#------------------------------------------------------------------------------
#$Date: 2019-11-14 09:28:08 +0200 (Thu, 14 Nov 2019) $
#$Revision: 227760 $
#$URL: file:///home/coder/svn-repositories/cod/cif/1/55/29/1552904.cif $
#------------------------------------------------------------------------------
#
# This file is available in the Crystallography Open Database (COD),
# http://www.crystallography.net/
#
# All data on this site have been placed in the public domain by the
# contributors.
#
data_1552904
loop_
_publ_author_name
'Asgari, Mehrdad'
'Jawahery, Sudi'
'Bloch, Eric D.'
'Hudson, Matthew R.'
'Flacau, Roxana'
'Vlaisavljevich, Bess'
'Long, Jeffrey R.'
'Brown, Craig M.'
'Queen, Wendy L.'
_publ_section_title
;
 An experimental and computational study of CO<sub>2</sub> adsorption in
 the sodalite-type M-BTT (M = Cr, Mn, Fe, Cu) metal-organic frameworks
 featuring open metal sites.
;
_journal_issue                   20
_journal_name_full               'Chemical science'
_journal_page_first              4579
_journal_page_last               4588
_journal_paper_doi               10.1039/c8sc00971f
_journal_volume                  9
_journal_year                    2018
_chemical_formula_sum            'C31.66 H8 Cl Cr4 N32 O16.26'
_chemical_formula_weight         1340.08
_space_group_IT_number           221
_space_group_name_Hall           '-P 4 2 3'
_space_group_name_H-M_alt        'P m -3 m'
_symmetry_cell_setting           cubic
_symmetry_space_group_name_Hall  '-P 4 2 3'
_symmetry_space_group_name_H-M   'P m -3 m'
_audit_creation_date             2016-03-03T18:49
_audit_creation_method           'from EXP file using GSAS2CIF'
_audit_update_record
;
2017-10-25 deposited with the CCDC.
2018-04-23 downloaded from the CCDC.
;
_cell_angle_alpha                90.0
_cell_angle_beta                 90.0
_cell_angle_gamma                90.0
_cell_formula_units_Z            3
_cell_length_a                   18.68163(34)
_cell_length_b                   18.68163
_cell_length_c                   18.68163
_cell_measurement_reflns_used    643
_cell_measurement_temperature    10
_cell_measurement_theta_max      160
_cell_measurement_theta_min      4
_cell_volume                     6519.95(12)
_computing_structure_refinement  GSAS
_diffrn_ambient_temperature      10
_diffrn_measurement_device_type  BT1
_diffrn_radiation_probe          neutron
_diffrn_radiation_wavelength     2.078
_exptl_absorpt_correction_T_max  1.00000
_exptl_absorpt_correction_T_min  1.00000
_exptl_absorpt_process_details
;   GSAS Absorption/surface roughness correction: function number 0
 No correction is applied.
;
_pd_block_id                     2016-03-03T18:49|1P5CO2_1|wendy|bt1
_pd_calc_method                  'Rietveld Refinement'
_pd_instr_location               ' ?'
_pd_meas_2theta_range_inc        0.05
_pd_meas_2theta_range_max        166.25
_pd_meas_2theta_range_min        1.5
_pd_meas_number_of_points        3296
_pd_phase_name
'from Z:/queen/Desktop/MBTT series_CO2/CuBTT/Copy of 1.5 CO2_finali'
_pd_proc_2theta_range_inc        0.05
_pd_proc_2theta_range_max        166.302
_pd_proc_2theta_range_min        1.552
_pd_proc_info_datetime           2016-03-03T18:49:17
_pd_proc_info_excluded_regions   ' ?'
_pd_proc_ls_background_function
;   GSAS Background function number 1 with 12 terms.
 Shifted Chebyshev function of 1st kind
      1:    1275.77     2:   -299.604     3:    396.780     4:   -83.1875    
      5:    235.412     6:   -61.9798     7:    148.343     8:   -46.3653    
      9:    74.4780    10:   -19.7223    11:    18.3584    12:   -13.5676    
;
_pd_proc_ls_peak_cutoff          0.00100
_pd_proc_ls_profile_function
;
 CW Profile function number 3 with  19 terms
 Pseudovoigt profile coefficients as parameterized in
 P. Thompson, D.E. Cox & J.B. Hastings (1987). J. Appl. Cryst.,20,79-83.
 Asymmetry correction of L.W. Finger, D.E. Cox & A. P. Jephcoat (1994).
 J. Appl. Cryst.,27,892-900.
 #1(GU)   =  507.887 #2(GV)   = -279.924 #3(GW)   =  120.258
 #4(GP)   =    0.000 #5(LX)   =    0.000 #6(LY)   =   26.221
 #7(S/L)  =   0.0431 #8(H/L)  =   0.0353
 #9(trns) =     0.00 #10(shft)=   0.0000
 #11(stec)=     0.00 #12(ptec)=     0.00 #13(sfec)=     0.00
 #14(L11) =    0.000 #15(L22) =    0.000 #16(L33) =    0.000
 #17(L12) =    0.000 #18(L13) =    0.000 #19(L23) =    0.000
 Peak tails are ignored  where the intensity is below 0.0010 times the peak
   Aniso. broadening axis   0.0   0.0   1.0
;
_pd_proc_ls_prof_R_factor        0.0271
_pd_proc_ls_prof_wR_expected     0.0272
_pd_proc_ls_prof_wR_factor       0.0317
_pd_proc_number_of_points        3296
_pd_spec_mounting                ' ?'
_refine_ls_goodness_of_fit_all   1.18
_refine_ls_matrix_type           full
_refine_ls_number_parameters     47
_refine_ls_number_restraints     17
_refine_ls_R_Fsqd_factor         0.05488
_refine_ls_shift/su_max          0.06
_refine_ls_shift/su_mean         0.01
_reflns_d_resolution_high        1.056
_reflns_d_resolution_low         18.682
_reflns_limit_h_max              17
_reflns_limit_h_min              1
_reflns_limit_k_max              12
_reflns_limit_k_min              0
_reflns_limit_l_max              10
_reflns_limit_l_min              0
_reflns_number_total             643
_cod_data_source_file            c8sc00971f3.cif
_cod_data_source_block           1P5CO2_1_publ
_cod_depositor_comments
;
The following automatic conversions were performed:

'_geom_bond_publ_flag' value 'N' changed to 'n' according to
/home/data/users/saulius/crontab/automatic-downloads/current/RSC/lib/dictionaries/cif_core.dic
dictionary named 'cif_core.dic' version 2.4.2 from 2011-04-26 (306
times).

'_geom_angle_publ_flag' value 'N' changed to 'n' according to
/home/data/users/saulius/crontab/automatic-downloads/current/RSC/lib/dictionaries/cif_core.dic
dictionary named 'cif_core.dic' version 2.4.2 from 2011-04-26 (169
times).

Automatic conversion script
Id: cif_fix_values 5376 2017-05-30 11:51:03Z andrius 
;
_cod_original_cell_volume        6520.0(4)
_cod_database_code               1552904
_gsas_exptl_extinct_corr_t_min   1.00000
_gsas_exptl_extinct_corr_t_max   1.00000
loop_
_symmetry_equiv_pos_site_id
_symmetry_equiv_pos_as_xyz
1 +x,+y,+z
2 +z,+x,+y
3 +y,+z,+x
4 +x,+y,-z
5 -z,+x,+y
6 +y,-z,+x
7 -z,+x,-y
8 -y,-z,+x
9 +y,-z,-x
10 -x,+y,-z
11 -z,-x,+y
12 +x,-y,-z
13 +y,+x,+z
14 +z,+y,+x
15 +x,+z,+y
16 +y,+x,-z
17 -z,+y,+x
18 +x,-z,+y
19 -z,+y,-x
20 -x,-z,+y
21 +x,-z,-y
22 -y,+x,-z
23 -z,-y,+x
24 +y,-x,-z
-1 -x,-y,-z
-2 -z,-x,-y
-3 -y,-z,-x
-4 -x,-y,+z
-5 +z,-x,-y
-6 -y,+z,-x
-7 +z,-x,+y
-8 +y,+z,-x
-9 -y,+z,+x
-10 +x,-y,+z
-11 +z,+x,-y
-12 -x,+y,+z
-13 -y,-x,-z
-14 -z,-y,-x
-15 -x,-z,-y
-16 -y,-x,+z
-17 +z,-y,-x
-18 -x,+z,-y
-19 +z,-y,+x
-20 +x,+z,-y
-21 -x,+z,+y
-22 +y,-x,+z
-23 +z,+y,-x
-24 -y,+x,+z
loop_
_atom_site_type_symbol
_atom_site_label
_atom_site_fract_x
_atom_site_fract_y
_atom_site_fract_z
_atom_site_occupancy
_atom_site_thermal_displace_type
_atom_site_U_iso_or_equiv
_atom_site_symmetry_multiplicity
Cr Cr1 0.1311(10) 0.5 0.0 1.0 Uiso 0.00372 12
C C1 0.14880(33) 0.3368(4) -0.14880(33) 1.0 Uiso 0.0111(9) 24
C C2 0.17778(32) 0.2690(4) -0.17778(32) 1.0 Uiso 0.0111(9) 24
C C3 0.24100(30) 0.24100(30) -0.1460(5) 1.0 Uiso 0.0111(9) 24
Cl Cl1 0.0 0.5 0.0 1.0 Uiso 0.112(10) 3
N N1 0.13061(23) 0.42228(23) -0.07883(23) 1.0 Uiso 0.0122(5) 48
N N2 0.17480(24) 0.36944(23) -0.09048(22) 1.0 Uiso 0.0122(5) 48
H H1 0.2610(6) 0.2610(6) -0.1040(7) 1.0 Uiso 0.010(4) 24
C C1a 0.2907(9) 0.4397(5) 0.0 0.386(6) Uiso 0.10145 24
O O1a 0.2724(10) 0.5 0.0 0.773(11) Uiso 0.065 12
O O1b 0.3097(16) 0.3808(9) 0.0 0.386(6) Uiso 0.10486 24
C C4a 0.1143(35) 0.0641(9) 0.0641(9) 0.133(5) Uiso 0.10621 24
O O4a 0.071(4) 0.0336(34) 0.0336(34) 0.133(5) Uiso 0.10621 24
O O4b 0.158(4) 0.0945(29) 0.0945(29) 0.133(5) Uiso 0.10621 24
C C2a 0.0 0.2772(16) 0.0310(10) 0.187(4) Uiso 0.03831 24
O O2b 0.0 0.2239(16) 0.0617(24) 0.187(4) Uiso 0.05208 24
O O2a 0.0 0.3301(18) 0.0 0.749(16) Uiso 0.06768 6
C C3a 0.1656(7) 0.1656(7) 0.0 0.501(12) Uiso 0.0634 12
O O3a 0.1107(12) 0.1934(20) 0.0 0.250(6) Uiso 0.0634 24
O O3b 0.2199(13) 0.1372(20) 0.0 0.250(6) Uiso 0.0634 24
O Os 0.2289(13) 0.5 0.0 0.2353 Uiso 0.00351 12
loop_
_atom_type_symbol
_atom_type_number_in_cell
_atom_type_scat_length_neutron
_atom_type_scat_source
Cr 12.0 0.3635 International_Tables_Vol_C
C 94.974 0.6646 International_Tables_Vol_C
Cl 3.0 0.9577 International_Tables_Vol_C
N 96.0 0.9360 International_Tables_Vol_C
H 24.0 -0.3739 International_Tables_Vol_C
O 48.773 0.5803 International_Tables_Vol_C
loop_
_geom_angle_atom_site_label_1
_geom_angle_atom_site_label_2
_geom_angle_atom_site_label_3
_geom_angle
_geom_angle_site_symmetry_1
_geom_angle_site_symmetry_3
_geom_angle_publ_flag
Cl1 Cr1 N1 89.7(6) 1_555 1_555 n
Cl1 Cr1 N1 89.7(6) 1_555 4_555 n
Cl1 Cr1 N1 89.7(6) 1_555 12_565 n
Cl1 Cr1 N1 89.7(6) 1_555 -10_565 n
Cl1 Cr1 Os 180.0 1_555 1_555 n
N1 Cr1 N1 90.81(26) 1_555 4_555 n
N1 Cr1 N1 180.000(11) 1_555 12_565 n
N1 Cr1 N1 89.19(26) 1_555 -10_565 n
N1 Cr1 Os 90.3(6) 1_555 1_555 n
N1 Cr1 N1 89.19(26) 4_555 12_565 n
N1 Cr1 N1 180.000(11) 4_555 -10_565 n
N1 Cr1 Os 90.3(6) 4_555 1_555 n
N1 Cr1 N1 90.81(26) 12_565 -10_565 n
N1 Cr1 Os 90.3(6) 12_565 1_555 n
N1 Cr1 Os 90.3(6) -10_565 1_555 n
C2 C1 N2 123.7(4) 1_555 1_555 n
C2 C1 N2 123.7(4) 1_555 19_555 n
N2 C1 N2 112.5(7) 1_555 19_555 n
C1 C2 C3 117.8(4) 1_555 1_555 n
C1 C2 C3 117.8(4) 1_555 7_555 n
C3 C2 C3 124.0(9) 1_555 7_555 n
C2 C3 C2 115.9(9) 1_555 9_555 n
C2 C3 H1 122.0(4) 1_555 1_555 n
C2 C3 H1 122.0(4) 9_555 1_555 n
Cr1 Cl1 Cr1 180.0 1_555 10_555 n
Cr1 Cl1 Cr1 90.0 1_555 14_555 n
Cr1 Cl1 Cr1 90.0 1_555 19_555 n
Cr1 Cl1 Cr1 90.0 10_555 14_555 n
Cr1 Cl1 Cr1 90.0 10_555 19_555 n
Cr1 Cl1 Cr1 180.0 14_555 19_555 n
Cr1 N1 N1 120.5(5) 1_555 19_555 n
Cr1 N1 N2 130.3(6) 1_555 1_555 n
N1 N1 N2 109.23(27) 19_555 1_555 n
C1 N2 N1 104.5(5) 1_555 1_555 n
O1a C1a O1b 179.0(11) 1_555 1_555 n
O1a C1a Os 28.8(7) 1_555 1_555 n
O1b C1a Os 152.2(12) 1_555 1_555 n
C1a O1a C1a 146.2(22) 1_555 12_565 n
C1a O1a Os 106.9(11) 1_555 1_555 n
C1a O1a Os 106.9(11) 12_565 1_555 n
C4a C4a C4a 60.0000(4) 2_555 3_555 n
C4a C4a O4a 81(5) 2_555 1_555 n
C4a C4a O4a 44.6(24) 2_555 2_555 n
C4a C4a O4a 65.8(18) 2_555 3_555 n
C4a C4a O4b 99(4) 2_555 1_555 n
C4a C4a O4a 81(5) 3_555 1_555 n
C4a C4a O4a 65.8(18) 3_555 2_555 n
C4a C4a O4a 44.6(24) 3_555 3_555 n
C4a C4a O4b 99(4) 3_555 1_555 n
O4a C4a O4a 37(6) 1_555 2_555 n
O4a C4a O4a 37(6) 1_555 3_555 n
O4a C4a O4b 180.000(34) 1_555 1_555 n
O4a C4a O4a 35(5) 2_555 3_555 n
O4a C4a O4b 144(6) 2_555 1_555 n
O4a C4a O4b 144(6) 3_555 1_555 n
C4a O4a C4a 54(5) 1_555 2_555 n
C4a O4a C4a 54(5) 1_555 3_555 n
C4a O4a O4a 99(5) 1_555 2_555 n
C4a O4a O4a 99(5) 1_555 3_555 n
C4a O4a O4a 119.8(33) 1_555 4_555 n
C4a O4a O4a 119.0(24) 1_555 6_555 n
C4a O4a O4a 135(6) 1_555 12_555 n
C4a O4a O4a 119.0(24) 1_555 16_555 n
C4a O4a O4a 119.8(33) 1_555 18_555 n
C4a O4a C4a 48(4) 2_555 3_555 n
C4a O4a O4a 44.6(24) 2_555 2_555 n
C4a O4a O4a 72.4(25) 2_555 3_555 n
C4a O4a O4a 110.6(18) 2_555 4_555 n
C4a O4a O4a 123(10) 2_555 6_555 n
C4a O4a O4a 155.4(18) 2_555 12_555 n
C4a O4a O4a 81(6) 2_555 16_555 n
C4a O4a O4a 158.9(19) 2_555 18_555 n
C4a O4a O4a 72.4(25) 3_555 2_555 n
C4a O4a O4a 44.6(24) 3_555 3_555 n
C4a O4a O4a 158.9(19) 3_555 4_555 n
C4a O4a O4a 81(6) 3_555 6_555 n
C4a O4a O4a 155.4(18) 3_555 12_555 n
C4a O4a O4a 123(10) 3_555 16_555 n
C4a O4a O4a 110.6(18) 3_555 18_555 n
O4a O4a O4a 60.0000(4) 2_555 3_555 n
O4a O4a O4a 90.0 2_555 4_555 n
O4a O4a O4a 105(7) 2_555 6_555 n
O4a O4a O4a 120.0000(4) 2_555 12_555 n
O4a O4a O4a 52(8) 2_555 16_555 n
O4a O4a O4a 135.0 2_555 18_555 n
O4a O4a O4a 135.0000(7) 3_555 4_555 n
O4a O4a O4a 52(8) 3_555 6_555 n
O4a O4a O4a 120.0000(9) 3_555 12_555 n
O4a O4a O4a 105(7) 3_555 16_555 n
O4a O4a O4a 90.0 3_555 18_555 n
O4a O4a O4a 116(5) 4_555 6_555 n
O4a O4a O4a 45.0000(7) 4_555 12_555 n
O4a O4a O4a 38(8) 4_555 16_555 n
O4a O4a O4a 90.0 4_555 18_555 n
O4a O4a O4a 75(7) 6_555 12_555 n
O4a O4a O4a 119.8(12) 6_555 16_555 n
O4a O4a O4a 38(8) 6_555 18_555 n
O4a O4a O4a 75(7) 12_555 16_555 n
O4a O4a O4a 45.0000(7) 12_555 18_555 n
O4a O4a O4a 116(5) 16_555 18_555 n
C4a O4b O4b 81(4) 1_555 2_555 n
C4a O4b O4b 81(4) 1_555 3_555 n
O4b O4b O4b 60.0000(4) 2_555 3_555 n
C2a C2a C2a 45.0000(7) 4_555 14_555 n
C2a C2a C2a 45.0000(7) 4_555 17_555 n
C2a C2a O2b 120.0(17) 4_555 1_555 n
C2a C2a O2b 69.2(4) 4_555 14_555 n
C2a C2a O2b 69.2(4) 4_555 17_555 n
C2a C2a O2a 59.7(11) 4_555 1_555 n
C2a C2a C2a 90.0000(15) 14_555 17_555 n
C2a C2a O2b 110.7(11) 14_555 1_555 n
C2a C2a O2b 41.3(12) 14_555 14_555 n
C2a C2a O2b 104.4(6) 14_555 17_555 n
C2a C2a O2a 69.1(7) 14_555 1_555 n
C2a C2a O2b 110.7(11) 17_555 1_555 n
C2a C2a O2b 104.4(6) 17_555 14_555 n
C2a C2a O2b 41.3(12) 17_555 17_555 n
C2a C2a O2a 69.1(7) 17_555 1_555 n
O2b C2a O2b 69.4(23) 1_555 14_555 n
O2b C2a O2b 69.4(23) 1_555 17_555 n
O2b C2a O2a 180.000(9) 1_555 1_555 n
O2b C2a O2b 90.1(25) 14_555 17_555 n
O2b C2a O2a 110.4(19) 14_555 1_555 n
O2b C2a O2a 110.4(19) 17_555 1_555 n
C2a O2b C2a 28.0(5) 1_555 14_555 n
C2a O2b C2a 28.0(5) 1_555 17_555 n
C2a O2b O2b 69.3(11) 1_555 14_555 n
C2a O2b O2b 69.3(11) 1_555 17_555 n
C2a O2b O3a 152(5) 1_555 14_555 n
C2a O2b O3b 123.0(24) 1_555 2_555 n
C2a O2b C2a 41.6(8) 14_555 17_555 n
C2a O2b O2b 41.3(12) 14_555 14_555 n
C2a O2b O2b 75.6(6) 14_555 17_555 n
C2a O2b O3a 157.5(16) 14_555 14_555 n
C2a O2b O3b 137.7(19) 14_555 2_555 n
C2a O2b O2b 75.6(6) 17_555 14_555 n
C2a O2b O2b 41.3(12) 17_555 17_555 n
C2a O2b O3a 157.5(16) 17_555 14_555 n
C2a O2b O3b 137.7(19) 17_555 2_555 n
O2b O2b O2b 90.0000(15) 14_555 17_555 n
O2b O2b O3a 126.9(16) 14_555 14_555 n
O2b O2b O3b 134.92(8) 14_555 2_555 n
O2b O2b O3a 126.9(16) 17_555 14_555 n
O2b O2b O3b 134.92(8) 17_555 2_555 n
O3a O2b O3b 28.9(35) 14_555 2_555 n
C2a O2a C2a 60.7(22) 1_555 4_555 n
C2a O2a C2a 41.9(15) 1_555 14_555 n
C2a O2a C2a 41.9(15) 1_555 17_555 n
C2a O2a C2a 41.9(15) 4_555 14_555 n
C2a O2a C2a 41.9(15) 4_555 17_555 n
C2a O2a C2a 60.7(22) 14_555 17_555 n
O3a C3a O3a 144(4) 1_555 13_555 n
O3a C3a O3b 180.000(13) 1_555 1_555 n
O3a C3a O3b 36(4) 1_555 13_555 n
O3a C3a O3b 36(4) 13_555 1_555 n
O3a C3a O3b 180.000(13) 13_555 13_555 n
O3b C3a O3b 145(4) 1_555 13_555 n
O2b O3a C3a 175(5) 14_555 1_555 n
O2b O3a O3b 103(4) 14_555 13_555 n
C3a O3a O3b 71.9(21) 1_555 13_555 n
O2b O3b C3a 120.6(30) 3_555 1_555 n
O2b O3b O3a 48.1(18) 3_555 13_555 n
C3a O3b O3a 72.6(22) 1_555 13_555 n
Cr1 Os C1a 135.7(8) 1_555 1_555 n
Cr1 Os C1a 135.7(8) 1_555 12_565 n
Cr1 Os O1a 180.0 1_555 1_555 n
C1a Os C1a 88.6(17) 1_555 12_565 n
C1a Os O1a 44.3(8) 1_555 1_555 n
C1a Os O1a 44.3(8) 12_565 1_555 n
loop_
_geom_bond_atom_site_label_1
_geom_bond_atom_site_label_2
_geom_bond_distance
_geom_bond_site_symmetry_2
_geom_bond_publ_flag
Cr1 Cr1 4.90(4) 10_555 n
Cr1 Cr1 3.465(27) 14_555 n
Cr1 Cr1 3.465(27) 19_555 n
Cr1 Cl1 2.450(19) 1_555 n
Cr1 N1 2.068(4) 1_555 n
Cr1 N1 2.068(4) 4_555 n
Cr1 N1 2.068(4) 12_565 n
Cr1 N1 3.003(7) 17_555 n
Cr1 N1 3.003(7) 19_555 n
Cr1 N1 3.003(7) 23_565 n
Cr1 N1 2.068(4) -10_565 n
Cr1 N1 3.003(7) -14_565 n
Cr1 N2 3.078(6) 1_555 n
Cr1 N2 3.078(6) 4_555 n
Cr1 N2 3.078(6) 12_565 n
Cr1 N2 3.078(6) -10_565 n
Cr1 C1a 3.187(20) 1_555 n
Cr1 C1a 3.187(20) 12_565 n
Cr1 O1a 2.639(14) 1_555 n
Cr1 O1b 4.011(27) 1_555 n
Cr1 O1b 4.011(27) 12_565 n
Cr1 O2a 4.010(30) 1_555 n
Cr1 O2a 4.010(30) 12_565 n
Cr1 Os 1.826(16) 1_555 n
C1 C2 1.480(11) 1_555 n
C1 C3 2.484(6) 1_555 n
C1 C3 2.484(6) 7_555 n
C1 N1 2.092(7) 1_555 n
C1 N1 2.092(7) 19_555 n
C1 N2 1.340(6) 1_555 n
C1 N2 1.340(6) 19_555 n
C2 C1 1.480(11) 1_555 n
C2 C2 2.409(14) 7_555 n
C2 C2 2.409(14) 9_555 n
C2 C3 1.421(6) 1_555 n
C2 C3 1.421(6) 7_555 n
C2 C3 2.840(11) 9_555 n
C2 N2 2.487(8) 1_555 n
C2 N2 2.487(8) 19_555 n
C3 C1 2.484(6) 1_555 n
C3 C1 2.484(6) 9_555 n
C3 C2 1.421(6) 1_555 n
C3 C2 2.840(11) 7_555 n
C3 C2 1.421(6) 9_555 n
C3 C3 2.510(15) 7_555 n
C3 C3 2.510(15) 9_555 n
C3 N2 2.892(6) 1_555 n
C3 N2 2.892(6) 13_555 n
C3 H1 0.946(19) 1_555 n
Cl1 Cr1 2.450(19) 1_555 n
Cl1 Cr1 2.450(19) 10_555 n
Cl1 Cr1 2.450(19) 14_555 n
Cl1 Cr1 2.450(19) 19_555 n
Cl1 N1 3.199(4) 1_555 n
Cl1 N1 3.199(4) 4_555 n
Cl1 N1 3.199(4) 10_555 n
Cl1 N1 3.199(4) 12_565 n
Cl1 N1 3.199(4) 14_555 n
Cl1 N1 3.199(4) 17_555 n
Cl1 N1 3.199(4) 19_555 n
Cl1 N1 3.199(4) 23_565 n
Cl1 N1 3.199(4) -1_565 n
Cl1 N1 3.199(4) -4_565 n
Cl1 N1 3.199(4) -10_565 n
Cl1 N1 3.199(4) -12_555 n
Cl1 N1 3.199(4) -14_565 n
Cl1 N1 3.199(4) -17_565 n
Cl1 N1 3.199(4) -19_565 n
Cl1 N1 3.199(4) -23_555 n
Cl1 O2a 3.174(34) 1_555 n
Cl1 O2a 3.174(34) 12_565 n
N1 Cr1 2.068(4) 1_555 n
N1 Cr1 3.003(7) 19_555 n
N1 C1 2.092(7) 1_555 n
N1 Cl1 3.199(4) 1_555 n
N1 N1 2.945(9) 4_555 n
N1 N1 1.368(9) 19_555 n
N1 N1 2.904(9) -10_565 n
N1 N2 1.305(6) 1_555 n
N1 N2 2.180(5) 19_555 n
N1 Os 2.765(17) 1_555 n
N2 Cr1 3.078(6) 1_555 n
N2 C1 1.340(6) 1_555 n
N2 C2 2.487(8) 1_555 n
N2 C3 2.892(6) 1_555 n
N2 N1 1.305(6) 1_555 n
N2 N1 2.180(5) 19_555 n
N2 N2 2.228(8) 19_555 n
H1 C3 0.946(19) 1_555 n
C1a Cr1 3.187(20) 1_555 n
C1a C1a 2.254(20) 12_565 n
C1a O1a 1.178(8) 1_555 n
C1a O1b 1.156(8) 1_555 n
C1a O1b 2.953(27) 13_555 n
C1a Os 1.614(19) 1_555 n
O1a Cr1 2.639(14) 1_555 n
O1a C1a 1.178(8) 1_555 n
O1a C1a 1.178(8) 12_565 n
O1a O1b 2.334(11) 1_555 n
O1a O1b 2.334(11) 12_565 n
O1a Os 0.814(21) 1_555 n
O1b Cr1 4.011(27) 1_555 n
O1b C1a 1.156(8) 1_555 n
O1b C1a 2.953(27) 13_555 n
O1b O1a 2.334(11) 1_555 n
O1b Os 2.691(19) 1_555 n
C4a C4a 1.33(10) 2_555 n
C4a C4a 1.33(10) 3_555 n
C4a C4a 2.394(34) 4_555 n
C4a C4a 2.74(4) 6_555 n
C4a C4a 2.74(4) 16_555 n
C4a C4a 2.394(34) 18_555 n
C4a O4a 1.149(8) 1_555 n
C4a O4a 1.62(8) 2_555 n
C4a O4a 1.62(8) 3_555 n
C4a O4a 2.08(8) 4_555 n
C4a O4a 2.82(10) 5_555 n
C4a O4a 2.37(5) 6_555 n
C4a O4a 2.71(12) 12_555 n
C4a O4a 2.37(5) 16_555 n
C4a O4a 2.82(10) 17_555 n
C4a O4a 2.08(8) 18_555 n
C4a O4a 2.99(9) -7_555 n
C4a O4a 2.99(9) -8_555 n
C4a O4b 1.151(8) 1_555 n
C4a O4b 1.89(8) 2_555 n
C4a O4b 1.89(8) 3_555 n
C4a O2b 2.37(6) 3_555 n
C4a O2b 2.37(6) 13_555 n
C4a C3a 2.438(27) 1_555 n
C4a C3a 2.438(27) 3_555 n
C4a O3a 2.696(34) 1_555 n
C4a O3a 2.09(6) 3_555 n
C4a O3a 2.09(6) 13_555 n
C4a O3a 2.696(34) 15_555 n
C4a O3b 2.68(6) 1_555 n
C4a O3b 2.68(6) 15_555 n
O4a C4a 1.149(8) 1_555 n
O4a C4a 1.62(8) 2_555 n
O4a C4a 1.62(8) 3_555 n
O4a C4a 2.08(8) 4_555 n
O4a C4a 2.99(9) 5_555 n
O4a C4a 2.37(5) 6_555 n
O4a C4a 2.71(12) 12_555 n
O4a C4a 2.37(5) 16_555 n
O4a C4a 2.99(9) 17_555 n
O4a C4a 2.08(8) 18_555 n
O4a C4a 2.82(10) -7_555 n
O4a C4a 2.82(10) -8_555 n
O4a O4a 0.98(17) 2_555 n
O4a O4a 0.98(17) 3_555 n
O4a O4a 1.25(13) 4_555 n
O4a O4a 2.06(7) 5_555 n
O4a O4a 1.59(4) 6_555 n
O4a O4a 2.41(7) 7_555 n
O4a O4a 2.41(7) 8_555 n
O4a O4a 2.41(7) 9_555 n
O4a O4a 2.92(9) 10_555 n
O4a O4a 2.75(7) 11_555 n
O4a O4a 1.77(18) 12_555 n
O4a O4a 1.59(4) 16_555 n
O4a O4a 2.06(7) 17_555 n
O4a O4a 1.25(13) 18_555 n
O4a O4a 2.75(7) 19_555 n
O4a O4a 2.92(9) 20_555 n
O4a O4a 2.41(7) 24_555 n
O4a O4a 2.06(7) -7_555 n
O4a O4a 2.06(7) -8_555 n
O4a O4a 2.64(14) -12_555 n
O4a O4b 2.299(12) 1_555 n
O4a O4b 2.63(5) 2_555 n
O4a O4b 2.63(5) 3_555 n
O4a O2b 2.98(7) 3_555 n
O4a O2b 2.98(7) 13_555 n
O4a O3a 2.78(6) 3_555 n
O4a O3a 2.78(6) 13_555 n
O4b C4a 1.151(8) 1_555 n
O4b C4a 1.89(8) 2_555 n
O4b C4a 1.89(8) 3_555 n
O4b O4a 2.299(12) 1_555 n
O4b O4a 2.63(5) 2_555 n
O4b O4a 2.63(5) 3_555 n
O4b O4b 1.69(16) 2_555 n
O4b O4b 1.69(16) 3_555 n
O4b O2b 2.23(9) 3_555 n
O4b O2b 2.23(9) 13_555 n
O4b C3a 2.213(17) 1_555 n
O4b C3a 2.213(17) 3_555 n
O4b O3a 2.706(30) 1_555 n
O4b O3a 1.91(6) 3_555 n
O4b O3a 1.91(6) 13_555 n
O4b O3a 2.706(30) 15_555 n
O4b O3b 2.25(6) 1_555 n
O4b O3b 2.959(24) 3_555 n
O4b O3b 2.959(24) 13_555 n
O4b O3b 2.25(6) 15_555 n
C2a C2a 1.16(4) 4_555 n
C2a C2a 0.818(28) 14_555 n
C2a C2a 0.818(28) 17_555 n
C2a O2b 1.149(8) 1_555 n
C2a O2b 2.00(5) 4_555 n
C2a O2b 1.629(29) 14_555 n
C2a O2b 1.629(29) 17_555 n
C2a O2a 1.145(8) 1_555 n
C2a O3a 2.658(20) 1_555 n
C2a O3a 2.658(20) 10_555 n
C2a O3a 2.162(31) 14_555 n
C2a O3b 2.256(31) 2_555 n
C2a O3b 2.838(29) 13_555 n
C2a O3b 2.838(29) 22_555 n
O2b C4a 2.37(6) 2_555 n
O2b C4a 2.37(6) 5_555 n
O2b O4a 2.98(7) 2_555 n
O2b O4a 2.98(7) 5_555 n
O2b O4b 2.23(9) 2_555 n
O2b O4b 2.23(9) 5_555 n
O2b C2a 1.149(8) 1_555 n
O2b C2a 2.00(5) 4_555 n
O2b C2a 1.629(29) 14_555 n
O2b C2a 1.629(29) 17_555 n
O2b O2b 2.30(9) 4_555 n
O2b O2b 1.63(6) 14_555 n
O2b O2b 1.63(6) 17_555 n
O2b O2a 2.294(12) 1_555 n
O2b C3a 2.23(4) 2_555 n
O2b O3a 2.435(25) 1_555 n
O2b O3a 2.435(25) 10_555 n
O2b O3a 1.08(4) 14_555 n
O2b O3b 1.41(5) 2_555 n
O2b O3b 2.81(4) 13_555 n
O2b O3b 2.81(4) 22_555 n
O2a Cr1 4.010(30) 1_555 n
O2a Cr1 4.010(30) 10_555 n
O2a Cr1 4.010(30) 14_555 n
O2a Cr1 4.010(30) 19_555 n
O2a Cl1 3.174(34) 1_555 n
O2a C2a 1.145(8) 1_555 n
O2a C2a 1.145(8) 4_555 n
O2a C2a 1.145(8) 14_555 n
O2a C2a 1.145(8) 17_555 n
O2a O2b 2.294(12) 1_555 n
O2a O2b 2.294(12) 4_555 n
O2a O2b 2.294(12) 14_555 n
O2a O2b 2.294(12) 17_555 n
C3a C4a 2.438(27) 1_555 n
C3a C4a 2.438(27) 2_555 n
C3a C4a 2.438(27) 4_555 n
C3a C4a 2.438(27) 16_555 n
C3a O4b 2.213(17) 1_555 n
C3a O4b 2.213(17) 2_555 n
C3a O4b 2.213(17) 4_555 n
C3a O4b 2.213(17) 16_555 n
C3a O2b 2.23(4) 3_555 n
C3a O2b 2.23(4) 14_555 n
C3a O3a 1.149(8) 1_555 n
C3a O3a 1.149(8) 13_555 n
C3a O3b 1.144(8) 1_555 n
C3a O3b 1.144(8) 13_555 n
O3a C4a 2.696(34) 1_555 n
O3a C4a 2.09(6) 2_555 n
O3a C4a 2.696(34) 4_555 n
O3a C4a 2.09(6) 16_555 n
O3a O4a 2.78(6) 2_555 n
O3a O4a 2.78(6) 16_555 n
O3a O4b 2.706(30) 1_555 n
O3a O4b 1.91(6) 2_555 n
O3a O4b 2.706(30) 4_555 n
O3a O4b 1.91(6) 16_555 n
O3a C2a 2.658(20) 1_555 n
O3a C2a 2.658(20) 4_555 n
O3a C2a 2.162(31) 14_555 n
O3a O2b 2.435(25) 1_555 n
O3a O2b 2.435(25) 4_555 n
O3a O2b 1.08(4) 14_555 n
O3a C3a 1.149(8) 1_555 n
O3a O3a 2.184(30) 13_555 n
O3a O3a 2.925(33) 14_555 n
O3a O3a 2.925(33) 19_555 n
O3a O3b 2.293(12) 1_555 n
O3a O3b 0.70(7) 13_555 n
O3b C4a 2.68(6) 1_555 n
O3b C4a 2.68(6) 4_555 n
O3b O4b 2.25(6) 1_555 n
O3b O4b 2.959(24) 2_555 n
O3b O4b 2.25(6) 4_555 n
O3b O4b 2.959(24) 16_555 n
O3b C2a 2.256(31) 3_555 n
O3b C2a 2.838(29) 13_555 n
O3b C2a 2.838(29) 16_555 n
O3b O2b 1.41(5) 3_555 n
O3b O2b 2.81(4) 13_555 n
O3b O2b 2.81(4) 16_555 n
O3b C3a 1.144(8) 1_555 n
O3b O3a 2.293(12) 1_555 n
O3b O3a 0.70(7) 13_555 n
O3b O3b 2.183(29) 13_555 n
Os Cr1 1.826(16) 1_555 n
Os N1 2.765(17) 1_555 n
Os N1 2.765(17) 4_555 n
Os N1 2.765(17) 12_565 n
Os N1 2.765(17) -10_565 n
Os C1a 1.614(19) 1_555 n
Os C1a 1.614(19) 12_565 n
Os O1a 0.814(21) 1_555 n
Os O1b 2.691(19) 1_555 n
Os O1b 2.691(19) 12_565 n
loop_
_pd_meas_intensity_total
_pd_proc_ls_weight
_pd_proc_intensity_bkg_calc
_pd_calc_intensity_total
7910(190) 0.0 3754. .
7000(180) 0.0 3728. .
6080(170) 0.0 3701. .
5680(160) 0.0 3675. .
5000(150) 0.0 3649. .
4370(140) 0.0 3623. .
3990(130) 0.0 3598. .
3950(130) 0.0 3573. .
3310(120) 0.0 3548. .
3310(120) 0.0 3523. .
3120(120) 0.0 3498. .
2850(110) 0.0 3474. .
3090(120) 0.0 3450. .
2790(110) 0.0 3426. .
2590(110) 0.0 3403. .
2760(110) 0.0 3379. .
2810(110) 0.0 3356. .
2600(110) 0.0 3333. .
2730(110) 0.0 3311. .
2710(110) 0.0 3288. .
2780(110) 0.0 3266. .
2950(120) 0.0 3244. .
2920(120) 0.0 3222. .
2930(120) 0.0 3200. .
2960(120) 0.0 3179. .
2780(110) 0.0 3158. .
2700(110) 0.0 3137. .
3110(120) 0.0 3116. .
2890(110) 0.0 3095. .
2970(120) 0.0 3075. .
3070(120) 0.0 3055. .
2910(120) 0.0 3035. .
2960(120) 0.0 3015. .
2710(110) 0.0 2995. .
3170(120) 0.0 2976. .
2800(110) 0.0 2956. .
2850(110) 0.0 2937. .
2760(110) 0.0 2919. .
2790(110) 0.0 2900. .
2720(110) 0.0 2881. .
2810(110) 0.0 2863. .
2570(110) 0.0 2845. .
2830(110) 0.0 2827. .
2710(110) 0.0 2809. .
2750(110) 0.0 2792. .
2810(110) 0.0 2774. .
2720(110) 0.0 2757. .
2810(110) 0.0 2740. .
2660(110) 0.0 2723. .
3020(120) 0.0 2706. .
2720(110) 0.0 2690. .
2750(110) 0.0000797 2674. 2674.
2670(110) 0.0000826 2657. 2657.
3100(120) 0.0000706 2641. 2641.
3070(120) 0.0000718 2625. 2625.
2960(120) 0.0000743 2610. 2610.
3140(120) 0.0000706 2594. 2621.
3080(120) 0.0000718 2579. 2618.
2770(110) 0.0000797 2563. 2627.
3090(120) 0.0000718 2548. 2652.
3070(120) 0.0000718 2533. 2698.
3070(120) 0.0000718 2519. 2763.
3140(120) 0.0000706 2504. 2847.
3250(120) 0.0000683 2490. 2943.
3150(120) 0.0000706 2475. 3050.
3430(130) 0.0000640 2461. 3164.
3460(130) 0.0000640 2447. 3287.
3530(130) 0.0000630 2433. 3417.
3370(120) 0.0000661 2419. 3556.
3930(130) 0.0000565 2406. 3704.
3990(130) 0.0000557 2392. 3862.
3860(130) 0.0000574 2379. 4031.
4160(140) 0.0000533 2366. 4212.
4500(140) 0.0000489 2353. 4407.
4510(140) 0.0000489 2340. 4616.
4760(150) 0.0000463 2327. 4842.
4870(150) 0.0000457 2314. 5087.
5030(150) 0.0000439 2302. 5352.
5290(150) 0.0000422 2289. 5642.
5830(160) 0.0000381 2277. 5959.
5950(160) 0.0000372 2265. 6308.
6620(170) 0.0000334 2253. 6694.
6890(180) 0.0000323 2241. 7125.
7440(180) 0.0000299 2230. 7607.
8130(190) 0.0000274 2218. 8154.
8540(200) 0.0000260 2206. 8780.
9070(200) 0.0000245 2195. 9506.
10130(210) 0.0000220 2184. 10366.
11370(230) 0.0000196 2173. 11408.
12590(240) 0.0000177 2162. 12720.
14200(250) 0.0000157 2151. 14449.
16700(270) 0.0000134 2140. 16815.
21490(310) 0.0000104 2129. 20018.
24900(330) 8.96e-6 2119. 23943.
27880(350) 8.03e-6 2108. 27745.
29030(360) 7.72e-6 2098. 29793.
27600(350) 8.12e-6 2088. 28475.
24050(330) 9.30e-6 2078. 23559.
17570(280) 0.0000128 2068. 16755.
11760(230) 0.0000189 2058. 10450.
6050(110) 0.0000783 2048. 6077.
3767(90) 0.0001235 2039. 3713.
2695(76) 0.0001731 2029. 2688.
2216(69) 0.0002100 2020. 2315.
2106(67) 0.0002228 2010. 2187.
2122(67) 0.0002228 2001. 2133.
2025(66) 0.0002296 1992. 2101.
1970(65) 0.0002367 1983. 2075.
2076(67) 0.0002228 1974. 2054.
2010(65) 0.0002367 1965. 2035.
2048(66) 0.0002296 1956. 2018.
1866(63) 0.0002520 1948. 2002.
1877(63) 0.0002520 1939. 1988.
1778(62) 0.0002601 1931. 1974.
1872(63) 0.0002520 1922. 1962.
1781(62) 0.0002601 1914. 1954.
1759(61) 0.0002687 1906. 1943.
1711(60) 0.0002778 1898. 1933.
1762(61) 0.0002687 1890. 1923.
1722(61) 0.0002687 1882. 1913.
1795(62) 0.0002601 1874. 1904.
1818(62) 0.0002601 1867. 1896.
1749(61) 0.0002687 1859. 1889.
1760(61) 0.0002687 1851. 1864.
1875(63) 0.0002520 1844. 1864.
1859(63) 0.0002520 1837. 1869.
1893(64) 0.0002441 1829. 1882.
1899(64) 0.0002441 1822. 1902.
1854(63) 0.0002520 1815. 1929.
1900(64) 0.0002441 1808. 1962.
1906(64) 0.0002441 1801. 2000.
2037(66) 0.0002296 1794. 2044.
2095(67) 0.0002228 1787. 2092.
2139(68) 0.0002163 1781. 2145.
2087(67) 0.0002228 1774. 2205.
2205(69) 0.0002100 1768. 2272.
2341(71) 0.0001984 1761. 2347.
2315(70) 0.0002041 1755. 2434.
2314(70) 0.0002041 1748. 2534.
2557(74) 0.0001826 1742. 2650.
2778(77) 0.0001687 1736. 2789.
2945(79) 0.0001602 1730. 2957.
3052(81) 0.0001524 1724. 3171.
3395(85) 0.0001384 1718. 3454.
3955(92) 0.0001181 1712. 3843.
4480(98) 0.0001041 1706. 4372.
5300(110) 0.0000890 1700. 5021.
5810(110) 0.0000812 1695. 5650.
6050(110) 0.0000769 1689. 5988.
5950(110) 0.0000783 1683. 5770.
5190(110) 0.0000907 1678. 4970.
3944(92) 0.0001181 1673. 3889.
2897(79) 0.0001602 1667. 2914.
2224(69) 0.0002100 1662. 2255.
1798(62) 0.0002601 1657. 1907.
1639(59) 0.0002873 1652. 1766.
1681(60) 0.0002778 1646. 1709.
1636(59) 0.0002873 1641. 1687.
1607(59) 0.0002873 1636. 1675.
1593(58) 0.0002973 1631. 1666.
1633(59) 0.0002873 1627. 1658.
1579(58) 0.0002973 1622. 1652.
1640(59) 0.0002873 1617. 1646.
1587(58) 0.0002973 1612. 1642.
1663(60) 0.0002778 1608. 1637.
1693(60) 0.0002778 1603. 1634.
1858(63) 0.0002520 1599. 1631.
1653(59) 0.0002873 1594. 1630.
1760(61) 0.0002687 1590. 1633.
1731(61) 0.0002687 1586. 1644.
1782(62) 0.0002601 1581. 1669.
1913(64) 0.0002441 1577. 1714.
1916(64) 0.0002441 1573. 1785.
1985(65) 0.0002367 1569. 1883.
2091(67) 0.0002228 1565. 2006.
2219(69) 0.0002100 1561. 2150.
2327(71) 0.0001984 1557. 2312.
2592(74) 0.0001826 1553. 2501.
2728(76) 0.0001731 1549. 2716.
2850(78) 0.0001644 1545. 2964.
3137(82) 0.0001487 1541. 3252.
3442(86) 0.0001352 1537. 3595.
3683(89) 0.0001262 1534. 4014.
4299(96) 0.0001085 1530. 4548.
5210(110) 0.0000907 1527. 5260.
6070(110) 0.0000769 1523. 6238.
7370(130) 0.0000640 1520. 7543.
9310(140) 0.0000503 1516. 9066.
10410(150) 0.0000450 1513. 10394.
10740(150) 0.0000439 1509. 10871.
9830(150) 0.0000476 1506. 9998.
7950(130) 0.0000592 1503. 7962.
5540(110) 0.0000842 1500. 5594.
3623(88) 0.0001291 1496. 3673.
2428(72) 0.0001929 1493. 2490.
1859(63) 0.0002520 1490. 1914.
1566(79) 0.0001602 1487. 1683.
1542(78) 0.0001644 1484. 1599.
1472(76) 0.0001731 1481. 1564.
1361(73) 0.0001877 1478. 1545.
1492(56) 0.0003189 1475. 1531.
1541(57) 0.0003078 1472. 1520.
1566(58) 0.0002973 1469. 1511.
1566(58) 0.0002973 1467. 1503.
1467(56) 0.0003189 1464. 1496.
1510(57) 0.0003078 1461. 1489.
1522(57) 0.0003078 1458. 1484.
1525(57) 0.0003078 1456. 1479.
1472(56) 0.0003189 1453. 1475.
1533(57) 0.0003078 1451. 1471.
1552(57) 0.0003078 1448. 1468.
1602(58) 0.0002973 1446. 1465.
1516(57) 0.0003078 1443. 1463.
1471(56) 0.0003189 1441. 1462.
1445(55) 0.0003306 1438. 1461.
1486(56) 0.0003189 1436. 1460.
1477(56) 0.0003189 1434. 1461.
1488(56) 0.0003189 1431. 1462.
1458(56) 0.0003189 1429. 1464.
1473(56) 0.0003189 1427. 1469.
1497(56) 0.0003189 1424. 1476.
1494(56) 0.0003189 1422. 1486.
1542(57) 0.0003078 1420. 1489.
1470(56) 0.0003189 1418. 1494.
1488(56) 0.0003189 1416. 1489.
1459(56) 0.0003189 1414. 1473.
1370(54) 0.0003429 1412. 1452.
1396(54) 0.0003429 1410. 1432.
1474(56) 0.0003189 1408. 1419.
1445(55) 0.0003306 1406. 1411.
1424(55) 0.0003306 1404. 1406.
1449(55) 0.0003306 1402. 1403.
1489(56) 0.0003189 1400. 1401.
1445(55) 0.0003306 1398. 1399.
1417(55) 0.0003306 1396. 1397.
1459(56) 0.0003189 1395. 1395.
1467(56) 0.0003189 1393. 1393.
1348(53) 0.000356 1391. 1392.
1462(56) 0.0003189 1389. 1390.
1486(56) 0.0003189 1388. 1388.
1459(56) 0.0003189 1386. 1387.
1357(54) 0.0003429 1384. 1385.
1479(56) 0.0003189 1383. 1384.
1507(56) 0.0003189 1381. 1383.
1502(56) 0.0003189 1380. 1382.
1470(56) 0.0003189 1378. 1381.
1383(54) 0.0003429 1377. 1380.
1443(55) 0.0003306 1375. 1380.
1438(55) 0.0003306 1374. 1380.
1426(55) 0.0003306 1372. 1380.
1433(55) 0.0003306 1371. 1381.
1341(53) 0.000356 1369. 1383.
1416(55) 0.0003306 1368. 1385.
1412(55) 0.0003306 1366. 1386.
1397(54) 0.0003429 1365. 1385.
1470(56) 0.0003189 1364. 1381.
1448(55) 0.0003306 1362. 1375.
1377(54) 0.0003429 1361. 1369.
1381(54) 0.0003429 1360. 1364.
1400(54) 0.0003429 1359. 1361.
1421(55) 0.0003306 1357. 1359.
1424(55) 0.0003306 1356. 1357.
1355(54) 0.0003429 1355. 1356.
1413(55) 0.0003306 1354. 1355.
1412(55) 0.0003306 1352. 1354.
1412(55) 0.0003306 1351. 1353.
1385(54) 0.0003429 1350. 1352.
1469(56) 0.0003189 1349. 1352.
1429(55) 0.0003306 1348. 1352.
1451(55) 0.0003306 1347. 1354.
1347(53) 0.000356 1346. 1357.
1291(52) 0.000370 1345. 1362.
1373(54) 0.0003429 1344. 1369.
1378(54) 0.0003429 1343. 1378.
1471(56) 0.0003189 1342. 1389.
1496(56) 0.0003189 1341. 1404.
1481(56) 0.0003189 1340. 1423.
1507(57) 0.0003078 1339. 1451.
1527(57) 0.0003078 1338. 1488.
1569(58) 0.0002973 1337. 1532.
1543(57) 0.0003078 1336. 1574.
1566(58) 0.0002973 1335. 1594.
1550(57) 0.0003078 1334. 1575.
1565(58) 0.0002973 1333. 1520.
1460(56) 0.0003189 1332. 1452.
1467(56) 0.0003189 1331. 1397.
1490(56) 0.0003189 1331. 1361.
1358(54) 0.0003429 1330. 1344.
1376(54) 0.0003429 1329. 1336.
1385(54) 0.0003429 1328. 1332.
1348(53) 0.000356 1327. 1331.
1307(53) 0.000356 1327. 1330.
1347(53) 0.000356 1326. 1329.
1306(53) 0.000356 1325. 1328.
1277(52) 0.000370 1324. 1327.
1269(52) 0.000370 1324. 1326.
1286(76) 0.0001731 1323. 1325.
1375(53) 0.000356 1322. 1324.
1392(54) 0.0003429 1321. 1323.
1363(53) 0.000356 1321. 1323.
1381(54) 0.0003429 1320. 1322.
1410(54) 0.0003429 1319. 1321.
1355(53) 0.000356 1319. 1321.
1396(54) 0.0003429 1318. 1320.
1351(53) 0.000356 1317. 1319.
1333(53) 0.000356 1317. 1319.
1330(53) 0.000356 1316. 1318.
1392(54) 0.0003429 1316. 1318.
1371(53) 0.000356 1315. 1318.
1246(51) 0.000384 1314. 1317.
1328(52) 0.000370 1314. 1317.
1386(54) 0.0003429 1313. 1317.
1331(53) 0.000356 1313. 1316.
1403(54) 0.0003429 1312. 1318.
1380(53) 0.000356 1312. 1318.
1390(54) 0.0003429 1311. 1318.
1321(52) 0.000370 1310. 1319.
1356(53) 0.000356 1310. 1321.
1372(53) 0.000356 1309. 1325.
1383(54) 0.0003429 1309. 1332.
1422(54) 0.0003429 1308. 1344.
1396(54) 0.0003429 1308. 1364.
1423(54) 0.0003429 1307. 1391.
1471(55) 0.0003306 1307. 1428.
1494(56) 0.0003189 1306. 1477.
1571(57) 0.0003078 1306. 1542.
1714(60) 0.0002778 1306. 1633.
1805(61) 0.0002687 1305. 1753.
1967(64) 0.0002441 1305. 1894.
2238(68) 0.0002163 1304. 2018.
2145(67) 0.0002228 1304. 2068.
1996(64) 0.0002441 1303. 1998.
1868(62) 0.0002601 1303. 1827.
1619(58) 0.0002973 1302. 1634.
1440(55) 0.0003306 1302. 1483.
1337(53) 0.000356 1302. 1393.
1351(53) 0.000356 1301. 1350.
1350(53) 0.000356 1301. 1334.
1322(52) 0.000370 1300. 1329.
1348(53) 0.000356 1300. 1330.
1301(52) 0.000370 1300. 1334.
1438(55) 0.0003306 1299. 1346.
1371(53) 0.000356 1299. 1368.
1400(54) 0.0003429 1299. 1407.
1534(56) 0.0003189 1298. 1467.
1657(59) 0.0002873 1298. 1553.
1618(58) 0.0002973 1298. 1669.
1809(61) 0.0002687 1297. 1828.
1954(64) 0.0002441 1297. 2048.
2300(69) 0.0002100 1297. 2344.
2672(74) 0.0001826 1296. 2703.
2906(77) 0.0001687 1296. 3043.
3027(79) 0.0001602 1296. 3219.
2860(77) 0.0001687 1295. 3097.
2424(71) 0.0001984 1295. 2698.
2053(65) 0.0002367 1295. 2202.
1731(60) 0.0002778 1294. 1792.
1426(54) 0.0003429 1294. 1537.
1248(51) 0.000384 1294. 1410.
1267(51) 0.000384 1293. 1357.
1279(52) 0.000370 1293. 1336.
1281(52) 0.000370 1293. 1326.
1261(51) 0.000384 1293. 1320.
1253(51) 0.000384 1292. 1317.
1234(51) 0.000384 1292. 1314.
1277(51) 0.000384 1292. 1311.
1301(52) 0.000370 1291. 1310.
1379(53) 0.000356 1291. 1308.
1274(51) 0.000384 1291. 1307.
1323(52) 0.000370 1291. 1306.
1180(49) 0.000416 1290. 1305.
1263(51) 0.000384 1290. 1305.
1261(51) 0.000384 1290. 1305.
1219(50) 0.000400 1290. 1307.
1231(51) 0.000384 1289. 1307.
1228(50) 0.000400 1289. 1308.
1350(53) 0.000356 1289. 1309.
1288(52) 0.000370 1289. 1310.
1293(52) 0.000370 1288. 1312.
1356(53) 0.000356 1288. 1315.
1302(52) 0.000370 1288. 1319.
1297(52) 0.000370 1288. 1326.
1315(52) 0.000370 1287. 1337.
1361(53) 0.000356 1287. 1360.
1501(56) 0.0003189 1287. 1400.
1541(56) 0.0003189 1287. 1470.
1644(58) 0.0002973 1286. 1580.
1805(61) 0.0002687 1286. 1740.
1979(64) 0.0002441 1286. 1967.
2190(67) 0.0002228 1286. 2286.
2774(76) 0.0001731 1286. 2718.
3368(83) 0.0001452 1285. 3240.
3928(90) 0.0001235 1285. 3735.
3985(91) 0.0001208 1285. 3997.
3676(87) 0.0001321 1285. 3834.
3127(80) 0.0001562 1284. 3269.
2396(67) 0.0002228 1284. 2572.
1950(60) 0.0002778 1284. 1997.
1600(55) 0.0003306 1284. 1639.
1406(51) 0.000384 1284. 1461.
1317(50) 0.000400 1283. 1388.
1350(50) 0.000400 1283. 1362.
1353(50) 0.000400 1283. 1356.
1320(50) 0.000400 1283. 1363.
1375(51) 0.000384 1283. 1385.
1342(50) 0.000400 1282. 1427.
1401(51) 0.000384 1282. 1495.
1499(53) 0.000356 1282. 1597.
1622(55) 0.0003306 1282. 1744.
1805(58) 0.0002973 1282. 1947.
2125(63) 0.0002520 1281. 2199.
2297(65) 0.0002367 1281. 2451.
2527(68) 0.0002163 1281. 2605.
2422(67) 0.0002228 1281. 2560.
2278(65) 0.0002367 1281. 2305.
1907(59) 0.0002873 1280. 1964.
1656(55) 0.0003306 1280. 1669.
1382(51) 0.000384 1280. 1478.
1373(51) 0.000384 1280. 1379.
1336(50) 0.000400 1280. 1336.
1294(49) 0.000416 1279. 1319.
1254(48) 0.000434 1279. 1312.
1248(48) 0.000434 1279. 1310.
1300(49) 0.000416 1279. 1311.
1272(49) 0.000416 1279. 1316.
1277(49) 0.000416 1278. 1326.
1365(50) 0.000400 1278. 1342.
1347(50) 0.000400 1278. 1366.
1382(51) 0.000384 1278. 1398.
1470(52) 0.000370 1278. 1434.
1528(53) 0.000356 1277. 1462.
1563(54) 0.0003429 1277. 1467.
1538(53) 0.000356 1277. 1442.
1432(52) 0.000370 1277. 1394.
1301(49) 0.000416 1277. 1349.
1269(49) 0.000416 1276. 1316.
1259(48) 0.000434 1276. 1299.
1297(49) 0.000416 1276. 1291.
1352(50) 0.000400 1276. 1287.
1264(49) 0.000416 1276. 1286.
1271(49) 0.000416 1275. 1286.
1299(49) 0.000416 1275. 1288.
1260(48) 0.000434 1275. 1291.
1277(49) 0.000416 1275. 1296.
1278(49) 0.000416 1275. 1303.
1245(48) 0.000434 1274. 1315.
1324(50) 0.000400 1274. 1329.
1297(49) 0.000416 1274. 1344.
1283(49) 0.000416 1274. 1354.
1270(49) 0.000416 1274. 1353.
1228(48) 0.000434 1274. 1340.
1251(48) 0.000434 1273. 1320.
1356(50) 0.000400 1273. 1303.
1244(48) 0.000434 1273. 1292.
1281(49) 0.000416 1273. 1286.
1194(47) 0.000453 1273. 1283.
1208(47) 0.000453 1272. 1282.
1256(48) 0.000434 1272. 1282.
1264(49) 0.000416 1272. 1282.
1247(48) 0.000434 1272. 1282.
1239(48) 0.000434 1272. 1283.
1267(49) 0.000416 1271. 1283.
1247(48) 0.000434 1271. 1284.
1296(49) 0.000416 1271. 1285.
1303(49) 0.000416 1271. 1286.
1155(46) 0.000473 1270. 1288.
1252(48) 0.000434 1270. 1289.
1256(48) 0.000434 1270. 1291.
1214(48) 0.000434 1270. 1295.
1239(48) 0.000434 1270. 1299.
1219(48) 0.000434 1269. 1303.
1366(50) 0.000400 1269. 1310.
1343(50) 0.000400 1269. 1321.
1372(51) 0.000384 1269. 1340.
1340(50) 0.000400 1269. 1378.
1416(51) 0.000384 1268. 1446.
1557(54) 0.0003429 1268. 1563.
1665(56) 0.0003189 1268. 1751.
1920(60) 0.0002778 1268. 2034.
2426(67) 0.0002228 1268. 2429.
3052(75) 0.0001778 1267. 2910.
3524(81) 0.0001524 1267. 3369.
3746(83) 0.0001452 1267. 3621.
3632(82) 0.0001487 1267. 3494.
3159(76) 0.0001731 1266. 3009.
2516(68) 0.0002163 1266. 2411.
1921(60) 0.0002778 1266. 1919.
1644(55) 0.0003306 1266. 1612.
1424(51) 0.000384 1266. 1461.
1362(50) 0.000400 1265. 1404.
1328(50) 0.000400 1265. 1398.
1334(50) 0.000400 1265. 1426.
1470(52) 0.000370 1265. 1493.
1633(55) 0.0003306 1265. 1612.
1835(58) 0.0002973 1264. 1800.
2109(62) 0.0002601 1264. 2071.
2650(70) 0.0002041 1264. 2410.
3044(75) 0.0001778 1264. 2748.
3278(78) 0.0001644 1263. 2954.
3214(77) 0.0001687 1263. 2897.
2856(72) 0.0001929 1263. 2573.
2343(66) 0.0002296 1263. 2145.
1891(59) 0.0002873 1262. 1780.
1588(54) 0.0003429 1262. 1545.
1371(50) 0.000400 1262. 1425.
1303(49) 0.000416 1262. 1379.
1321(49) 0.000416 1262. 1374.
1367(50) 0.000400 1261. 1397.
1473(52) 0.000370 1261. 1451.
1489(52) 0.000370 1261. 1547.
1641(55) 0.0003306 1261. 1697.
1948(60) 0.0002778 1260. 1907.
2190(63) 0.0002520 1260. 2154.
2451(67) 0.0002228 1260. 2374.
2503(68) 0.0002163 1260. 2467.
2230(64) 0.0002441 1259. 2361.
2138(63) 0.0002520 1259. 2096.
1853(58) 0.0002973 1259. 1804.
1598(54) 0.0003429 1259. 1580.
1410(51) 0.000384 1258. 1450.
1427(51) 0.000384 1258. 1395.
1427(51) 0.000384 1258. 1392.
1431(51) 0.000384 1258. 1430.
1491(52) 0.000370 1257. 1516.
1665(55) 0.0003306 1257. 1673.
1847(58) 0.0002973 1257. 1925.
2258(64) 0.0002441 1257. 2290.
2559(69) 0.0002100 1257. 2744.
3084(75) 0.0001778 1256. 3185.
3426(79) 0.0001602 1256. 3443.
3318(78) 0.0001644 1256. 3349.
2941(73) 0.0001877 1256. 2911.
2350(66) 0.0002296 1255. 2353.
1834(58) 0.0002973 1255. 1884.
1507(53) 0.000356 1255. 1582.
1399(51) 0.000384 1254. 1425.
1375(50) 0.000400 1254. 1354.
1268(48) 0.000434 1254. 1323.
1214(47) 0.000453 1254. 1309.
1320(49) 0.000416 1253. 1301.
1351(50) 0.000400 1253. 1297.
1348(50) 0.000400 1253. 1295.
1308(49) 0.000416 1253. 1296.
1329(50) 0.000400 1252. 1297.
1329(50) 0.000400 1252. 1295.
1320(49) 0.000416 1252. 1291.
1374(50) 0.000400 1252. 1284.
1340(50) 0.000400 1251. 1276.
1256(48) 0.000434 1251. 1270.
1268(48) 0.000434 1251. 1266.
1320(49) 0.000416 1251. 1263.
1234(48) 0.000434 1250. 1261.
1295(49) 0.000416 1250. 1260.
1247(48) 0.000434 1250. 1259.
1260(48) 0.000434 1250. 1259.
1289(49) 0.000416 1249. 1259.
1228(48) 0.000434 1249. 1259.
1276(49) 0.000416 1249. 1260.
1256(48) 0.000434 1248. 1260.
1242(48) 0.000434 1248. 1260.
1247(48) 0.000434 1248. 1257.
1294(49) 0.000416 1248. 1256.
1240(48) 0.000434 1247. 1254.
1268(48) 0.000434 1247. 1252.
1309(49) 0.000416 1247. 1251.
1260(48) 0.000434 1247. 1250.
1305(49) 0.000416 1246. 1250.
1231(48) 0.000434 1246. 1249.
1208(47) 0.000453 1246. 1249.
1275(49) 0.000416 1245. 1249.
1260(48) 0.000434 1245. 1248.
1285(49) 0.000416 1245. 1248.
1262(48) 0.000434 1245. 1247.
1286(49) 0.000416 1244. 1247.
1177(47) 0.000453 1244. 1248.
1282(49) 0.000416 1244. 1245.
1241(48) 0.000434 1244. 1245.
1221(48) 0.000434 1243. 1245.
1291(49) 0.000416 1243. 1245.
1254(48) 0.000434 1243. 1244.
1268(48) 0.000434 1242. 1244.
1209(47) 0.000453 1242. 1244.
1281(49) 0.000416 1242. 1244.
1284(49) 0.000416 1242. 1244.
1211(47) 0.000453 1241. 1244.
1252(48) 0.000434 1241. 1243.
1265(48) 0.000434 1241. 1243.
1271(48) 0.000434 1240. 1245.
1238(48) 0.000434 1240. 1245.
1201(47) 0.000453 1240. 1245.
1237(48) 0.000434 1240. 1245.
1292(49) 0.000416 1239. 1245.
1215(47) 0.000453 1239. 1245.
1173(47) 0.000453 1239. 1245.
1201(47) 0.000453 1238. 1245.
1187(47) 0.000453 1238. 1245.
1285(47) 0.000453 1238. 1246.
1269(46) 0.000473 1238. 1246.
1274(46) 0.000473 1237. 1246.
1282(47) 0.000453 1237. 1247.
1301(47) 0.000453 1237. 1248.
1271(46) 0.000473 1236. 1248.
1393(49) 0.000416 1236. 1249.
1297(47) 0.000453 1236. 1251.
1322(47) 0.000453 1236. 1253.
1322(47) 0.000453 1235. 1256.
1300(47) 0.000453 1235. 1261.
1303(47) 0.000453 1235. 1271.
1380(48) 0.000434 1234. 1291.
1367(48) 0.000434 1234. 1325.
1393(49) 0.000416 1234. 1380.
1471(50) 0.000400 1234. 1458.
1451(50) 0.000400 1233. 1551.
1596(52) 0.000370 1233. 1632.
1609(52) 0.000370 1233. 1666.
1568(52) 0.000370 1232. 1628.
1462(50) 0.000400 1232. 1539.
1416(49) 0.000416 1232. 1443.
1379(48) 0.000434 1231. 1373.
1425(49) 0.000416 1231. 1338.
1363(48) 0.000434 1231. 1337.
1293(47) 0.000453 1231. 1370.
1416(49) 0.000416 1230. 1444.
1640(53) 0.000356 1230. 1574.
1741(54) 0.0003429 1230. 1764.
1972(58) 0.0002973 1229. 1996.
2201(61) 0.0002687 1229. 2210.
2285(62) 0.0002601 1229. 2317.
2144(60) 0.0002778 1229. 2245.
1915(57) 0.0003078 1228. 2027.
1739(54) 0.0003429 1228. 1776.
1554(51) 0.000384 1228. 1582.
1539(51) 0.000384 1227. 1477.
1556(51) 0.000384 1227. 1459.
1551(51) 0.000384 1227. 1527.
1708(54) 0.0003429 1226. 1694.
2139(60) 0.0002778 1226. 1990.
2543(66) 0.0002296 1226. 2424.
3120(73) 0.0001877 1226. 2945.
3663(79) 0.0001602 1225. 3414.
3866(81) 0.0001524 1225. 3623.
3639(79) 0.0001602 1225. 3422.
3114(73) 0.0001877 1224. 2901.
2427(64) 0.0002441 1224. 2317.
1852(56) 0.0003189 1224. 1856.
1561(51) 0.000384 1223. 1568.
1343(48) 0.000434 1223. 1417.
1375(48) 0.000434 1223. 1348.
1304(47) 0.000453 1223. 1316.
1270(46) 0.000473 1222. 1301.
1230(46) 0.000473 1222. 1291.
1267(46) 0.000473 1222. 1285.
1299(47) 0.000453 1221. 1280.
1237(46) 0.000473 1221. 1278.
1236(46) 0.000473 1221. 1278.
1215(45) 0.000494 1220. 1280.
1210(45) 0.000494 1220. 1285.
1275(46) 0.000473 1220. 1296.
1334(48) 0.000434 1220. 1319.
1384(48) 0.000434 1219. 1366.
1530(51) 0.000384 1219. 1457.
1653(53) 0.000356 1219. 1614.
1842(56) 0.0003189 1218. 1853.
2113(60) 0.0002778 1218. 2154.
2386(64) 0.0002441 1218. 2447.
2605(67) 0.0002228 1217. 2617.
2582(66) 0.0002296 1217. 2559.
2292(62) 0.0002601 1217. 2289.
1890(57) 0.0003078 1217. 1949.
1608(52) 0.000370 1216. 1662.
1470(50) 0.000400 1216. 1477.
1378(48) 0.000434 1216. 1384.
1355(48) 0.000434 1215. 1357.
1336(48) 0.000434 1215. 1375.
1417(49) 0.000416 1215. 1427.
1529(51) 0.000384 1214. 1505.
1572(52) 0.000370 1214. 1591.
1594(52) 0.000370 1214. 1653.
1576(52) 0.000370 1214. 1654.
1574(52) 0.000370 1213. 1586.
1486(50) 0.000400 1213. 1484.
1370(48) 0.000434 1213. 1390.
1335(48) 0.000434 1212. 1324.
1283(47) 0.000453 1212. 1286.
1196(45) 0.000494 1212. 1269.
1273(46) 0.000473 1211. 1261.
1271(46) 0.000473 1211. 1258.
1344(48) 0.000434 1211. 1258.
1319(47) 0.000453 1211. 1259.
1262(46) 0.000473 1210. 1262.
1327(47) 0.000453 1210. 1266.
1293(47) 0.000453 1210. 1272.
1332(48) 0.000434 1209. 1282.
1345(48) 0.000434 1209. 1297.
1283(47) 0.000453 1209. 1327.
1416(49) 0.000416 1208. 1387.
1587(41) 0.000595 1208. 1502.
1739(50) 0.000400 1208. 1709.
2143(56) 0.0003189 1208. 2043.
2554(61) 0.0002687 1207. 2498.
2996(66) 0.0002296 1207. 2995.
3317(69) 0.0002100 1207. 3371.
3360(70) 0.0002041 1206. 3434.
2926(65) 0.0002367 1206. 3116.
2412(59) 0.0002873 1206. 2590.
1904(52) 0.000370 1205. 2084.
1682(49) 0.000416 1205. 1717.
1488(46) 0.000473 1205. 1506.
1382(45) 0.000494 1205. 1410.
1392(45) 0.000494 1204. 1387.
1452(46) 0.000473 1204. 1408.
1499(47) 0.000453 1204. 1455.
1498(46) 0.000473 1203. 1509.
1508(47) 0.000453 1203. 1546.
1495(46) 0.000473 1203. 1542.
1452(46) 0.000473 1203. 1494.
1445(46) 0.000473 1202. 1430.
1398(45) 0.000494 1202. 1378.
1361(44) 0.000517 1202. 1355.
1403(45) 0.000494 1201. 1375.
1507(47) 0.000453 1201. 1448.
1663(49) 0.000416 1201. 1590.
1834(51) 0.000384 1200. 1805.
2161(56) 0.0003189 1200. 2070.
2418(59) 0.0002873 1200. 2314.
2472(60) 0.0002778 1200. 2433.
2314(58) 0.0002973 1199. 2348.
2106(55) 0.0003306 1199. 2101.
1836(51) 0.000384 1199. 1815.
1581(48) 0.000434 1198. 1587.
1434(45) 0.000494 1198. 1449.
1435(46) 0.000473 1198. 1397.
1486(46) 0.000473 1197. 1415.
1549(47) 0.000453 1197. 1490.
1688(49) 0.000416 1197. 1607.
1819(51) 0.000384 1197. 1739.
1948(53) 0.000356 1196. 1834.
1944(53) 0.000356 1196. 1840.
1776(51) 0.000384 1196. 1744.
1679(49) 0.000416 1195. 1597.
1550(47) 0.000453 1195. 1458.
1384(45) 0.000494 1195. 1360.
1368(44) 0.000517 1195. 1308.
1331(44) 0.000517 1194. 1292.
1270(43) 0.000541 1194. 1304.
1383(45) 0.000494 1194. 1336.
1372(44) 0.000517 1193. 1379.
1401(45) 0.000494 1193. 1416.
1477(46) 0.000473 1193. 1429.
1437(46) 0.000473 1193. 1406.
1379(45) 0.000494 1192. 1357.
1335(44) 0.000517 1192. 1306.
1321(44) 0.000517 1192. 1265.
1284(43) 0.000541 1191. 1239.
1205(42) 0.000567 1191. 1224.
1195(42) 0.000567 1191. 1215.
1195(42) 0.000567 1190. 1211.
1169(41) 0.000595 1190. 1209.
1230(42) 0.000567 1190. 1208.
1204(42) 0.000567 1190. 1208.
1218(42) 0.000567 1189. 1207.
1252(42) 0.000567 1189. 1208.
1222(42) 0.000567 1189. 1209.
1269(43) 0.000541 1188. 1213.
1214(42) 0.000567 1188. 1221.
1248(42) 0.000567 1188. 1237.
1271(43) 0.000541 1188. 1265.
1279(43) 0.000541 1187. 1307.
1269(43) 0.000541 1187. 1360.
1358(44) 0.000517 1187. 1409.
1343(44) 0.000517 1186. 1435.
1392(45) 0.000494 1186. 1421.
1318(44) 0.000517 1186. 1374.
1329(44) 0.000517 1186. 1316.
1332(44) 0.000517 1185. 1268.
1257(43) 0.000541 1185. 1235.
1175(41) 0.000595 1185. 1217.
1175(41) 0.000595 1184. 1207.
1180(41) 0.000595 1184. 1202.
1263(43) 0.000541 1184. 1200.
1263(43) 0.000541 1184. 1199.
1211(42) 0.000567 1183. 1198.
1128(40) 0.000625 1183. 1198.
1144(41) 0.000595 1183. 1199.
1265(43) 0.000541 1182. 1201.
1217(42) 0.000567 1182. 1204.
1234(42) 0.000567 1182. 1210.
1255(43) 0.000541 1182. 1222.
1202(42) 0.000567 1181. 1241.
1291(43) 0.000541 1181. 1268.
1320(44) 0.000517 1181. 1300.
1381(45) 0.000494 1180. 1328.
1391(45) 0.000494 1180. 1342.
1337(44) 0.000517 1180. 1333.
1323(44) 0.000517 1180. 1310.
1301(43) 0.000541 1179. 1288.
1317(41) 0.000595 1179. 1283.
1348(42) 0.000567 1179. 1305.
1387(42) 0.000567 1178. 1365.
1495(44) 0.000517 1178. 1472.
1702(47) 0.000453 1178. 1622.
1773(48) 0.000434 1178. 1786.
1948(50) 0.000400 1177. 1913.
1932(50) 0.000400 1177. 1937.
1833(49) 0.000416 1177. 1839.
1674(47) 0.000453 1177. 1672.
1524(44) 0.000517 1176. 1510.
1381(42) 0.000567 1176. 1394.
1281(41) 0.000595 1176. 1335.
1269(41) 0.000595 1175. 1326.
1352(42) 0.000567 1175. 1357.
1367(42) 0.000567 1175. 1413.
1448(43) 0.000541 1175. 1471.
1464(44) 0.000517 1174. 1505.
1420(43) 0.000541 1174. 1492.
1374(42) 0.000567 1174. 1434.
1328(42) 0.000567 1173. 1362.
1265(41) 0.000595 1173. 1299.
1227(40) 0.000625 1173. 1257.
1231(40) 0.000625 1173. 1237.
1232(40) 0.000625 1172. 1233.
1229(40) 0.000625 1172. 1241.
1284(41) 0.000595 1172. 1255.
1308(41) 0.000595 1172. 1266.
1257(40) 0.000625 1171. 1268.
1289(41) 0.000595 1171. 1258.
1270(41) 0.000595 1171. 1240.
1248(40) 0.000625 1170. 1222.
1188(39) 0.000657 1170. 1208.
1234(40) 0.000625 1170. 1199.
1176(39) 0.000657 1170. 1196.
1202(40) 0.000625 1169. 1195.
1224(40) 0.000625 1169. 1196.
1213(40) 0.000625 1169. 1199.
1212(40) 0.000625 1168. 1202.
1198(39) 0.000657 1168. 1205.
1190(39) 0.000657 1168. 1210.
1280(41) 0.000595 1168. 1219.
1240(40) 0.000625 1167. 1239.
1281(41) 0.000595 1167. 1279.
1412(43) 0.000541 1167. 1350.
1502(44) 0.000517 1167. 1461.
1715(47) 0.000453 1166. 1605.
1873(49) 0.000416 1166. 1753.
1983(51) 0.000384 1166. 1854.
2041(51) 0.000384 1165. 1852.
1861(49) 0.000416 1165. 1745.
1643(46) 0.000473 1165. 1588.
1463(44) 0.000517 1165. 1441.
1336(42) 0.000567 1164. 1332.
1275(41) 0.000595 1164. 1264.
1227(40) 0.000625 1164. 1227.
1178(39) 0.000657 1164. 1208.
1188(39) 0.000657 1163. 1199.
1238(40) 0.000625 1163. 1194.
1208(40) 0.000625 1163. 1190.
1152(39) 0.000657 1162. 1187.
1161(39) 0.000657 1162. 1185.
1148(39) 0.000657 1162. 1184.
1170(39) 0.000657 1162. 1183.
1204(40) 0.000625 1161. 1183.
1171(39) 0.000657 1161. 1183.
1269(41) 0.000595 1161. 1183.
1221(40) 0.000625 1161. 1183.
1171(39) 0.000657 1160. 1184.
1210(40) 0.000625 1160. 1186.
1235(40) 0.000625 1160. 1189.
1222(40) 0.000625 1160. 1194.
1197(39) 0.000657 1159. 1204.
1222(40) 0.000625 1159. 1222.
1243(40) 0.000625 1159. 1254.
1265(41) 0.000595 1158. 1304.
1327(42) 0.000567 1158. 1370.
1448(43) 0.000541 1158. 1442.
1496(44) 0.000517 1158. 1498.
1477(44) 0.000517 1157. 1513.
1485(44) 0.000517 1157. 1479.
1455(43) 0.000541 1157. 1418.
1389(42) 0.000567 1157. 1363.
1394(43) 0.000541 1156. 1336.
1382(42) 0.000567 1156. 1348.
1352(42) 0.000567 1156. 1403.
1408(43) 0.000541 1155. 1492.
1516(44) 0.000517 1155. 1593.
1573(45) 0.000494 1155. 1671.
1570(45) 0.000494 1155. 1689.
1578(45) 0.000494 1154. 1639.
1498(44) 0.000517 1154. 1557.
1443(43) 0.000541 1154. 1495.
1465(44) 0.000517 1154. 1492.
1521(44) 0.000517 1153. 1573.
1702(47) 0.000453 1153. 1744.
1966(50) 0.000400 1153. 1987.
2192(53) 0.000356 1153. 2242.
2404(56) 0.0003189 1152. 2416.
2423(56) 0.0003189 1152. 2418.
2134(49) 0.000416 1152. 2236.
1885(46) 0.000473 1151. 1967.
1680(44) 0.000517 1151. 1716.
1539(42) 0.000567 1151. 1540.
1473(41) 0.000595 1151. 1451.
1456(41) 0.000595 1150. 1437.
1493(41) 0.000595 1150. 1470.
1550(42) 0.000567 1150. 1517.
1534(42) 0.000567 1150. 1546.
1511(42) 0.000567 1149. 1531.
1487(41) 0.000595 1149. 1476.
1449(41) 0.000595 1149. 1411.
1381(40) 0.000625 1149. 1366.
1346(39) 0.000657 1148. 1360.
1317(39) 0.000657 1148. 1399.
1408(40) 0.000625 1148. 1480.
1552(42) 0.000567 1147. 1584.
1580(42) 0.000567 1147. 1674.
1599(43) 0.000541 1147. 1710.
1641(43) 0.000541 1147. 1664.
1599(43) 0.000541 1146. 1559.
1462(41) 0.000595 1146. 1442.
1300(39) 0.000657 1146. 1345.
1239(38) 0.000693 1146. 1281.
1227(37) 0.000730 1145. 1247.
1198(37) 0.000730 1145. 1236.
1209(37) 0.000730 1145. 1236.
1252(38) 0.000693 1145. 1238.
1178(37) 0.000730 1144. 1235.
1197(37) 0.000730 1144. 1223.
1206(37) 0.000730 1144. 1209.
1145(36) 0.000772 1144. 1196.
1144(36) 0.000772 1143. 1188.
1147(36) 0.000772 1143. 1186.
1176(37) 0.000730 1143. 1190.
1176(37) 0.000730 1142. 1197.
1233(38) 0.000693 1142. 1205.
1185(37) 0.000730 1142. 1208.
1180(37) 0.000730 1142. 1204.
1223(37) 0.000730 1141. 1194.
1180(37) 0.000730 1141. 1182.
1197(37) 0.000730 1141. 1171.
1139(36) 0.000772 1141. 1164.
1131(36) 0.000772 1140. 1159.
1141(36) 0.000772 1140. 1156.
1106(36) 0.000772 1140. 1155.
1128(36) 0.000772 1140. 1154.
1157(36) 0.000772 1139. 1154.
1156(36) 0.000772 1139. 1154.
1171(37) 0.000730 1139. 1155.
1201(37) 0.000730 1139. 1157.
1171(37) 0.000730 1138. 1161.
1193(37) 0.000730 1138. 1168.
1179(37) 0.000730 1138. 1177.
1127(36) 0.000772 1137. 1188.
1155(36) 0.000772 1137. 1197.
1177(37) 0.000730 1137. 1203.
1144(36) 0.000772 1137. 1203.
1152(36) 0.000772 1136. 1200.
1173(37) 0.000730 1136. 1200.
1206(37) 0.000730 1136. 1212.
1223(37) 0.000730 1136. 1238.
1311(39) 0.000657 1135. 1282.
1363(39) 0.000657 1135. 1338.
1365(39) 0.000657 1135. 1394.
1416(40) 0.000625 1135. 1428.
1399(40) 0.000625 1134. 1424.
1404(40) 0.000625 1134. 1383.
1301(39) 0.000657 1134. 1326.
1305(39) 0.000657 1134. 1276.
1254(38) 0.000693 1133. 1243.
1199(37) 0.000730 1133. 1231.
1299(39) 0.000657 1133. 1236.
1267(38) 0.000693 1132. 1249.
1286(38) 0.000693 1132. 1262.
1330(39) 0.000657 1132. 1264.
1285(38) 0.000693 1132. 1255.
1260(38) 0.000693 1131. 1242.
1212(37) 0.000730 1131. 1236.
1235(38) 0.000693 1131. 1246.
1309(39) 0.000657 1131. 1277.
1386(40) 0.000625 1130. 1326.
1477(41) 0.000595 1130. 1385.
1421(40) 0.000625 1130. 1434.
1395(40) 0.000625 1130. 1449.
1396(40) 0.000625 1129. 1421.
1418(40) 0.000625 1129. 1363.
1304(39) 0.000657 1129. 1300.
1233(38) 0.000693 1129. 1246.
1265(38) 0.000693 1128. 1209.
1200(37) 0.000730 1128. 1186.
1149(36) 0.000772 1128. 1174.
1141(36) 0.000772 1128. 1170.
1133(36) 0.000772 1127. 1170.
1170(37) 0.000730 1127. 1175.
1188(37) 0.000730 1127. 1187.
1205(37) 0.000730 1126. 1210.
1223(37) 0.000730 1126. 1251.
1313(39) 0.000657 1126. 1316.
1410(40) 0.000625 1126. 1405.
1611(41) 0.000595 1125. 1508.
1657(41) 0.000595 1125. 1600.
1762(43) 0.000541 1125. 1646.
1714(42) 0.000567 1125. 1623.
1557(40) 0.000625 1124. 1546.
1495(39) 0.000657 1124. 1456.
1424(38) 0.000693 1124. 1386.
1302(37) 0.000730 1124. 1355.
1320(37) 0.000730 1123. 1363.
1373(38) 0.000693 1123. 1399.
1398(38) 0.000693 1123. 1441.
1433(38) 0.000693 1123. 1461.
1390(38) 0.000693 1122. 1441.
1366(38) 0.000693 1122. 1387.
1345(37) 0.000730 1122. 1320.
1210(35) 0.000816 1121.5 1260.1
1189(35) 0.000816 1121.3 1214.6
1161(35) 0.000816 1121.0 1184.4
1198(35) 0.000816 1120.7 1166.6
1110(34) 0.000865 1120.5 1156.7
1180(35) 0.000816 1120.2 1151.4
1176(35) 0.000816 1120.0 1148.6
1142(34) 0.000865 1119.7 1147.4
1163(35) 0.000816 1119.4 1147.7
1101(34) 0.000865 1119.2 1149.6
1185(35) 0.000816 1118.9 1153.4
1168(35) 0.000816 1118.7 1159.0
1161(35) 0.000816 1118.4 1166.0
1145(34) 0.000865 1118.1 1173.3
1152(35) 0.000816 1117.9 1179.4
1219(36) 0.000772 1118. 1185.
1229(36) 0.000772 1117. 1192.
1238(36) 0.000772 1117. 1209.
1315(37) 0.000730 1117. 1241.
1310(37) 0.000730 1117. 1293.
1317(37) 0.000730 1116. 1365.
1472(39) 0.000657 1116. 1445.
1556(40) 0.000625 1116. 1514.
1584(40) 0.000625 1116. 1545.
1537(40) 0.000625 1115. 1523.
1491(39) 0.000657 1115. 1467.
1421(38) 0.000693 1115. 1412.
1413(38) 0.000693 1115. 1382.
1305(37) 0.000730 1114. 1389.
1382(38) 0.000693 1114. 1426.
1417(38) 0.000693 1114. 1474.
1422(38) 0.000693 1113. 1503.
1469(39) 0.000657 1113. 1487.
1433(38) 0.000693 1113. 1428.
1370(38) 0.000693 1113. 1353.
1314(37) 0.000730 1112. 1284.
1271(36) 0.000772 1112. 1232.
1227(36) 0.000772 1112. 1198.
1117(34) 0.000865 1111.7 1179.9
1123(34) 0.000865 1111.4 1171.0
1109(34) 0.000865 1111.2 1166.0
1098(34) 0.000865 1110.9 1161.3
1148(34) 0.000865 1110.6 1156.8
1155(35) 0.000816 1110.4 1153.9
1132(34) 0.000865 1110.1 1154.2
1115(34) 0.000865 1109.9 1158.7
1155(35) 0.000816 1109.6 1167.1
1263(36) 0.000772 1109. 1178.
1251(36) 0.000772 1109. 1187.
1234(36) 0.000772 1109. 1192.
1189(35) 0.000816 1108.6 1190.2
1176(35) 0.000816 1108.3 1187.4
1211(35) 0.000816 1108.1 1189.9
1163(35) 0.000816 1107.8 1203.0
1168(35) 0.000816 1107.5 1228.7
1206(35) 0.000816 1107.3 1264.9
1225(36) 0.000772 1107. 1303.
1190(35) 0.000816 1106.8 1330.0
1301(37) 0.000730 1107. 1330.
1247(36) 0.000772 1106. 1304.
1258(36) 0.000772 1106. 1265.
1250(36) 0.000772 1106. 1228.
1227(36) 0.000772 1105. 1201.
1172(35) 0.000816 1105.2 1186.5
1197(35) 0.000816 1105.0 1182.5
1154(35) 0.000816 1104.7 1183.6
1175(35) 0.000816 1104.5 1183.8
1221(36) 0.000772 1104. 1178.
1196(35) 0.000816 1104.0 1167.9
1205(35) 0.000816 1103.7 1155.7
1156(35) 0.000816 1103.4 1144.8
1162(35) 0.000816 1103.2 1136.6
1123(34) 0.000865 1102.9 1131.1
1119(34) 0.000865 1102.7 1128.2
1089(34) 0.000865 1102.4 1126.8
1102(34) 0.000865 1102.2 1126.4
1082(34) 0.000865 1101.9 1126.9
1137(34) 0.000865 1101.7 1127.9
1104(34) 0.000865 1101.4 1129.4
1120(34) 0.000865 1101.1 1131.6
1164(35) 0.000816 1100.9 1134.4
1094(34) 0.000865 1100.6 1138.7
1214(35) 0.000816 1100.4 1144.0
1157(35) 0.000816 1100.1 1152.0
1201(35) 0.000816 1099.9 1164.8
1184(34) 0.000865 1099.6 1186.6
1232(34) 0.000865 1099.4 1223.3
1287(35) 0.000816 1099.1 1281.2
1390(37) 0.000730 1099. 1365.
1550(39) 0.000657 1099. 1471.
1588(39) 0.000657 1098. 1585.
1742(41) 0.000595 1098. 1680.
1819(42) 0.000567 1098. 1721.
1805(42) 0.000567 1098. 1699.
1684(40) 0.000625 1097. 1648.
1676(40) 0.000625 1097. 1616.
1645(40) 0.000625 1097. 1636.
1711(41) 0.000595 1097. 1720.
1829(42) 0.000567 1096. 1853.
1920(43) 0.000541 1096. 1994.
1972(44) 0.000517 1096. 2075.
2048(44) 0.000517 1096. 2044.
1918(43) 0.000541 1095. 1911.
1776(41) 0.000595 1095. 1737.
1641(40) 0.000625 1095. 1574.
1495(38) 0.000693 1095. 1451.
1409(37) 0.000730 1094. 1375.
1369(36) 0.000772 1094. 1336.
1310(36) 0.000772 1094. 1316.
1263(35) 0.000816 1093.6 1298.7
1237(35) 0.000816 1093.3 1272.8
1255(35) 0.000816 1093.1 1241.3
1189(34) 0.000865 1092.8 1210.7
1269(35) 0.000816 1092.6 1185.6
1175(34) 0.000865 1092.3 1167.7
1180(34) 0.000865 1092.1 1156.6
1166(34) 0.000865 1091.8 1151.0
1155(33) 0.000918 1091.6 1149.2
1225(34) 0.000865 1091.3 1150.8
1255(35) 0.000816 1091.1 1157.0
1227(34) 0.000865 1090.8 1170.4
1279(35) 0.000816 1090.6 1193.4
1351(36) 0.000772 1090. 1227.
1314(36) 0.000772 1090. 1267.
1346(36) 0.000772 1090. 1308.
1381(37) 0.000730 1090. 1334.
1325(36) 0.000772 1089. 1334.
1307(36) 0.000772 1089. 1308.
1295(35) 0.000816 1088.8 1269.7
1260(35) 0.000816 1088.6 1233.0
1208(34) 0.000865 1088.3 1205.5
1176(34) 0.000865 1088.1 1189.6
1228(34) 0.000865 1087.8 1183.3
1192(34) 0.000865 1087.6 1181.3
1200(34) 0.000865 1087.4 1177.6
1134(33) 0.000918 1087.1 1169.2
1193(34) 0.000865 1086.9 1157.4
1155(33) 0.000918 1086.6 1145.3
1135(33) 0.000918 1086.4 1135.3
1120(33) 0.000918 1086.1 1128.1
1140(33) 0.000918 1085.9 1124.1
1132(33) 0.000918 1085.6 1123.2
1109(33) 0.000918 1085.4 1125.6
1082(32) 0.000977 1085.2 1132.1
1139(33) 0.000918 1084.9 1144.3
1150(33) 0.000918 1084.7 1164.9
1147(33) 0.000918 1084.4 1194.9
1180(34) 0.000865 1084.2 1234.2
1202(34) 0.000865 1083.9 1279.7
1259(35) 0.000816 1083.7 1323.7
1309(36) 0.000772 1083. 1354.
1234(35) 0.000816 1083.2 1362.8
1300(35) 0.000816 1083.0 1355.9
1251(35) 0.000816 1082.7 1351.5
1299(35) 0.000816 1082.5 1365.3
1389(37) 0.000730 1082. 1405.
1446(37) 0.000730 1082. 1466.
1585(39) 0.000657 1082. 1534.
1550(39) 0.000657 1082. 1581.
1602(39) 0.000657 1081. 1579.
1473(38) 0.000693 1081. 1526.
1426(37) 0.000730 1081. 1445.
1401(37) 0.000730 1081. 1363.
1294(35) 0.000816 1080.3 1295.2
1233(35) 0.000816 1080.1 1248.2
1198(34) 0.000865 1079.9 1219.9
1178(34) 0.000865 1079.6 1203.4
1194(34) 0.000865 1079.4 1190.7
1116(33) 0.000918 1079.1 1177.1
1123(33) 0.000918 1078.9 1162.6
1130(33) 0.000918 1078.7 1149.4
1084(32) 0.000977 1078.4 1139.1
1068(32) 0.000977 1078.2 1132.4
1081(32) 0.000977 1078.0 1129.1
1144(33) 0.000918 1077.7 1128.6
1137(33) 0.000918 1077.5 1130.5
1097(33) 0.000918 1077.3 1135.3
1190(34) 0.000865 1077.0 1143.2
1133(33) 0.000918 1076.8 1158.7
1232(35) 0.000816 1076.6 1181.7
1222(34) 0.000865 1076.3 1211.1
1247(35) 0.000816 1076.1 1243.2
1295(35) 0.000816 1075.9 1270.2
1357(36) 0.000772 1076. 1282.
1310(36) 0.000772 1075. 1275.
1275(34) 0.000865 1075.2 1253.8
1253(33) 0.000918 1074.9 1230.2
1244(33) 0.000918 1074.7 1212.3
1253(33) 0.000918 1074.5 1203.6
1224(33) 0.000918 1074.2 1204.1
1232(33) 0.000918 1074.0 1210.4
1239(33) 0.000918 1073.8 1218.4
1225(33) 0.000918 1073.6 1226.6
1242(33) 0.000918 1073.3 1239.5
1282(34) 0.000865 1073.1 1264.4
1328(34) 0.000865 1072.9 1306.2
1394(35) 0.000816 1072.6 1364.5
1477(36) 0.000772 1072. 1431.
1449(36) 0.000772 1072. 1489.
1514(37) 0.000730 1072. 1515.
1462(36) 0.000772 1072. 1494.
1439(36) 0.000772 1072. 1435.
1408(35) 0.000816 1071.3 1360.2
1330(34) 0.000865 1071.1 1287.9
1241(33) 0.000918 1070.8 1228.8
1156(32) 0.000977 1070.6 1186.0
1122(31) 0.001041 1070.4 1158.9
1154(32) 0.000977 1070.2 1145.0
1098(31) 0.001041 1069.9 1141.5
1150(32) 0.000977 1069.7 1147.1
1153(32) 0.000977 1069.5 1161.1
1190(32) 0.000977 1069.3 1183.2
1197(33) 0.000918 1069.0 1212.0
1253(33) 0.000918 1068.8 1244.2
1228(33) 0.000918 1068.6 1273.7
1319(34) 0.000865 1068.4 1292.6
1334(34) 0.000865 1068.2 1297.1
1348(35) 0.000816 1067.9 1292.9
1302(34) 0.000865 1067.7 1291.2
1326(34) 0.000865 1067.5 1300.6
1356(35) 0.000816 1067.3 1323.9
1302(34) 0.000865 1067.1 1358.1
1381(35) 0.000816 1066.9 1394.3
1389(35) 0.000816 1066.6 1420.5
1361(35) 0.000816 1066.4 1431.6
1436(36) 0.000772 1066. 1438.
1479(36) 0.000772 1066. 1456.
1561(37) 0.000730 1066. 1498.
1615(38) 0.000693 1066. 1566.
1698(39) 0.000657 1065. 1649.
1785(40) 0.000625 1065. 1721.
1770(40) 0.000625 1065. 1747.
1846(40) 0.000625 1065. 1711.
1760(39) 0.000657 1064. 1626.
1641(38) 0.000693 1064. 1525.
1471(36) 0.000772 1064. 1433.
1477(36) 0.000772 1064. 1361.
1350(35) 0.000816 1063.6 1313.4
1252(33) 0.000918 1063.4 1282.4
1194(32) 0.000977 1063.2 1257.8
1221(33) 0.000918 1063.0 1231.9
1237(33) 0.000918 1062.8 1203.6
1207(33) 0.000918 1062.6 1175.8
1109(31) 0.001041 1062.4 1151.2
1138(32) 0.000977 1062.2 1131.2
1121(31) 0.001041 1062.0 1116.4
1086(31) 0.001041 1061.8 1106.0
1056(31) 0.001041 1061.6 1099.3
1100(31) 0.001041 1061.3 1095.1
1141(32) 0.000977 1061.1 1092.7
1107(31) 0.001041 1060.9 1091.7
1058(31) 0.001041 1060.7 1091.8
1041(30) 0.001111 1060.5 1092.9
1088(31) 0.001041 1060.3 1095.0
1105(31) 0.001041 1060.1 1098.1
1092(31) 0.001041 1059.9 1102.8
1067(31) 0.001041 1059.7 1109.9
1131(32) 0.000977 1059.5 1120.8
1152(32) 0.000977 1059.3 1136.6
1159(32) 0.000977 1059.1 1157.0
1193(32) 0.000977 1058.9 1179.8
1223(33) 0.000918 1058.7 1201.4
1214(33) 0.000918 1058.5 1214.8
1194(32) 0.000977 1058.3 1214.3
1242(33) 0.000918 1058.1 1199.9
1183(32) 0.000977 1057.9 1177.4
1154(32) 0.000977 1057.7 1153.3
1171(32) 0.000977 1057.5 1131.8
1171(32) 0.000977 1057.3 1114.9
1142(32) 0.000977 1057.1 1103.3
1115(31) 0.001041 1056.9 1096.2
1072(31) 0.001041 1056.7 1093.0
1087(31) 0.001041 1056.6 1092.9
1118(31) 0.001041 1056.4 1095.2
1084(31) 0.001041 1056.2 1099.8
1108(31) 0.001041 1056.0 1106.5
1115(31) 0.001041 1055.8 1115.1
1135(32) 0.000977 1055.6 1127.0
1135(32) 0.000977 1055.4 1142.8
1128(32) 0.000977 1055.2 1164.9
1203(33) 0.000918 1055.0 1196.8
1195(32) 0.000977 1054.8 1241.6
1277(34) 0.000865 1054.6 1300.1
1324(34) 0.000865 1054.5 1368.4
1362(35) 0.000816 1054.3 1436.6
1330(47) 0.000453 1054. 1488.
1420(34) 0.000865 1053.9 1504.1
1407(34) 0.000865 1053.7 1478.8
1361(33) 0.000918 1053.5 1424.4
1315(33) 0.000918 1053.3 1360.4
1233(32) 0.000977 1053.2 1301.4
1197(31) 0.001041 1053.0 1254.8
1173(31) 0.001041 1052.8 1221.8
1136(31) 0.001041 1052.6 1199.8
1158(31) 0.001041 1052.4 1184.1
1167(31) 0.001041 1052.2 1172.1
1147(31) 0.001041 1052.1 1163.8
1176(31) 0.001041 1051.9 1160.0
1172(31) 0.001041 1051.7 1161.2
1182(31) 0.001041 1051.5 1166.1
1184(31) 0.001041 1051.3 1172.1
1205(31) 0.001041 1051.2 1175.6
1188(31) 0.001041 1051.0 1173.7
1149(31) 0.001041 1050.8 1167.3
1158(31) 0.001041 1050.6 1159.8
1140(31) 0.001041 1050.5 1154.4
1147(31) 0.001041 1050.3 1153.1
1106(30) 0.001111 1050.1 1156.1
1143(31) 0.001041 1049.9 1162.4
1154(31) 0.001041 1049.8 1170.8
1108(30) 0.001111 1049.6 1181.3
1159(31) 0.001041 1049.4 1196.4
1175(31) 0.001041 1049.2 1219.2
1224(32) 0.000977 1049.1 1250.3
1270(32) 0.000977 1048.9 1287.2
1286(32) 0.000977 1048.7 1323.1
1320(33) 0.000918 1048.6 1346.7
1338(33) 0.000918 1048.4 1346.7
1303(33) 0.000918 1048.2 1322.1
1332(33) 0.000918 1048.1 1281.0
1201(31) 0.001041 1047.9 1234.4
1169(31) 0.001041 1047.7 1190.7
1168(31) 0.001041 1047.6 1154.4
1100(30) 0.001111 1047.4 1127.0
1132(30) 0.001111 1047.2 1107.7
1096(30) 0.001111 1047.1 1094.8
1067(30) 0.001111 1046.9 1086.6
1048(29) 0.001189 1046.7 1081.6
1034(29) 0.001189 1046.6 1078.7
1054(29) 0.001189 1046.4 1077.5
1069(30) 0.001111 1046.2 1077.9
1055(29) 0.001189 1046.1 1080.2
1049(29) 0.001189 1045.9 1085.0
1079(30) 0.001111 1045.8 1093.0
1090(30) 0.001111 1045.6 1104.9
1093(30) 0.001111 1045.4 1120.9
1125(30) 0.001111 1045.3 1140.7
1169(31) 0.001041 1045.1 1162.7
1156(31) 0.001041 1045.0 1184.3
1159(31) 0.001041 1044.8 1201.3
1193(31) 0.001041 1044.7 1210.7
1228(32) 0.000977 1044.5 1213.2
1229(32) 0.000977 1044.3 1213.7
1223(32) 0.000977 1044.2 1216.9
1250(32) 0.000977 1044.0 1225.1
1265(32) 0.000977 1043.9 1237.1
1292(33) 0.000918 1043.7 1248.7
1279(32) 0.000977 1043.6 1253.5
1277(32) 0.000977 1043.4 1247.8
1258(32) 0.000977 1043.3 1233.6
1221(32) 0.000977 1043.1 1216.9
1234(32) 0.000977 1043.0 1202.6
1195(31) 0.001041 1042.8 1193.4
1149(31) 0.001041 1042.7 1189.1
1151(31) 0.001041 1042.5 1187.6
1151(31) 0.001041 1042.4 1186.2
1185(31) 0.001041 1042.3 1184.0
1236(32) 0.000977 1042.1 1182.9
1252(32) 0.000977 1042.0 1185.5
1223(32) 0.000977 1041.8 1192.7
1254(32) 0.000977 1041.7 1204.0
1293(33) 0.000918 1041.5 1216.3
1319(33) 0.000918 1041.4 1225.6
1292(33) 0.000918 1041.2 1229.4
1326(33) 0.000918 1041.1 1229.1
1315(33) 0.000918 1041.0 1229.4
1268(32) 0.000977 1040.8 1233.8
1344(33) 0.000918 1040.7 1243.0
1348(33) 0.000918 1040.5 1254.4
1313(33) 0.000918 1040.4 1262.1
1295(33) 0.000918 1040.3 1259.6
1265(32) 0.000977 1040.1 1245.5
1213(32) 0.000977 1040.0 1221.5
1230(32) 0.000977 1039.9 1195.2
1194(31) 0.001041 1039.7 1170.9
1116(30) 0.001111 1039.6 1151.3
1155(31) 0.001041 1039.5 1136.6
1176(31) 0.001041 1039.3 1125.9
1133(30) 0.001111 1039.2 1117.9
1135(31) 0.001041 1039.1 1111.8
1173(31) 0.001041 1038.9 1107.8
1149(31) 0.001041 1038.8 1106.0
1155(31) 0.001041 1038.7 1106.2
1129(30) 0.001111 1038.5 1107.4
1142(31) 0.001041 1038.4 1108.0
1117(30) 0.001111 1038.3 1106.1
1132(31) 0.001041 1038.2 1101.2
1164(31) 0.001041 1038.0 1094.0
1139(31) 0.001041 1037.9 1086.0
1110(30) 0.001111 1037.8 1078.5
1140(31) 0.001041 1037.6 1072.1
1082(30) 0.001111 1037.5 1067.2
1078(30) 0.001111 1037.4 1063.8
1074(30) 0.001111 1037.3 1061.7
1064(30) 0.001111 1037.1 1060.8
1027(29) 0.001189 1037.0 1060.9
1058(30) 0.001111 1036.9 1062.1
1069(30) 0.001111 1036.8 1064.6
1063(30) 0.001111 1036.7 1068.9
1094(30) 0.001111 1036.5 1075.7
1118(30) 0.001111 1036.4 1085.9
1078(30) 0.001111 1036.3 1100.4
1134(31) 0.001041 1036.2 1119.8
1154(31) 0.001041 1036.1 1143.8
1103(30) 0.001111 1036.0 1171.8
1215(32) 0.000977 1035.8 1201.0
1250(32) 0.000977 1035.7 1227.6
1253(32) 0.000977 1035.6 1246.7
1235(32) 0.000977 1035.5 1255.8
1244(32) 0.000977 1035.4 1257.2
1314(33) 0.000918 1035.3 1256.4
1305(33) 0.000918 1035.1 1257.9
1278(32) 0.000977 1035.0 1262.9
1269(32) 0.000977 1034.9 1269.0
1206(32) 0.000977 1034.8 1271.0
1230(32) 0.000977 1034.7 1263.5
1171(31) 0.001041 1034.6 1245.1
1197(31) 0.001041 1034.5 1219.3
1223(32) 0.000977 1034.4 1191.6
1187(31) 0.001041 1034.3 1166.3
1156(31) 0.001041 1034.2 1145.3
1123(30) 0.001111 1034.0 1129.3
1124(30) 0.001111 1033.9 1117.9
1112(30) 0.001111 1033.8 1110.3
1102(30) 0.001111 1033.7 1106.0
1088(30) 0.001111 1033.6 1104.6
1116(30) 0.001111 1033.5 1105.6
1077(30) 0.001111 1033.4 1108.3
1109(30) 0.001111 1033.3 1111.1
1094(30) 0.001111 1033.2 1112.2
1084(30) 0.001111 1033.1 1110.1
1070(30) 0.001111 1033.0 1104.7
1058(30) 0.001111 1032.9 1097.4
1105(30) 0.001111 1032.8 1089.6
1087(30) 0.001111 1032.7 1082.9
1064(30) 0.001111 1032.6 1077.9
1082(30) 0.001111 1032.5 1075.0
1123(30) 0.001111 1032.4 1074.5
1112(30) 0.001111 1032.3 1076.5
1101(30) 0.001111 1032.2 1080.7
1096(30) 0.001111 1032.1 1087.0
1152(31) 0.001041 1032.0 1094.7
1133(31) 0.001041 1031.9 1102.7
1127(31) 0.001041 1031.8 1109.5
1115(30) 0.001111 1031.7 1113.3
1136(31) 0.001041 1031.6 1113.0
1165(31) 0.001041 1031.5 1109.1
1097(30) 0.001111 1031.5 1103.2
1077(30) 0.001111 1031.4 1097.0
1091(30) 0.001111 1031.3 1091.9
1052(29) 0.001189 1031.2 1088.6
1109(30) 0.001111 1031.1 1087.9
1080(30) 0.001111 1031.0 1089.9
1063(30) 0.001111 1030.9 1095.0
1074(30) 0.001111 1030.8 1103.8
1075(30) 0.001111 1030.7 1117.0
1090(30) 0.001111 1030.6 1136.1
1108(30) 0.001111 1030.6 1163.0
1169(31) 0.001041 1030.5 1200.3
1217(32) 0.000977 1030.4 1251.2
1278(32) 0.000977 1030.3 1318.6
1354(33) 0.000918 1030.2 1404.3
1486(35) 0.000816 1030.1 1507.6
1655(37) 0.000730 1030. 1623.
1684(37) 0.000730 1030. 1740.
1730(38) 0.000693 1030. 1838.
1890(39) 0.000657 1030. 1896.
1889(39) 0.000657 1030. 1899.
1848(39) 0.000657 1030. 1852.
1800(38) 0.000693 1030. 1775.
1690(37) 0.000730 1029. 1689.
1608(36) 0.000772 1029. 1610.
1517(35) 0.000816 1029.3 1541.9
1370(34) 0.000865 1029.2 1483.4
1403(34) 0.000865 1029.1 1429.3
1310(33) 0.000918 1029.1 1376.8
1326(33) 0.000918 1029.0 1326.9
1302(33) 0.000918 1028.9 1282.4
1252(32) 0.000977 1028.8 1244.7
1171(31) 0.001041 1028.8 1213.8
1147(31) 0.001041 1028.7 1188.8
1149(31) 0.001041 1028.6 1167.8
1167(31) 0.001041 1028.5 1149.4
1088(30) 0.001111 1028.5 1133.0
1123(30) 0.001111 1028.4 1118.9
1145(25) 0.001600 1028.3 1107.8
1118(30) 0.001111 1028.2 1100.0
1070(30) 0.001111 1028.2 1095.8
1105(30) 0.001111 1028.1 1095.7
1106(30) 0.001111 1028.0 1099.8
1137(30) 0.001111 1027.9 1108.0
1161(31) 0.001041 1027.9 1120.0
1152(31) 0.001041 1027.8 1134.6
1154(31) 0.001041 1027.7 1150.2
1213(31) 0.001041 1027.7 1164.1
1184(31) 0.001041 1027.6 1173.3
1211(31) 0.001041 1027.5 1175.1
1179(31) 0.001041 1027.5 1169.4
1188(31) 0.001041 1027.4 1158.6
1183(31) 0.001041 1027.3 1145.8
1207(31) 0.001041 1027.3 1133.3
1142(31) 0.001041 1027.2 1122.1
1126(30) 0.001111 1027.1 1112.4
1167(31) 0.001041 1027.1 1103.3
1097(30) 0.001111 1027.0 1094.8
1094(30) 0.001111 1026.9 1086.7
1125(30) 0.001111 1026.9 1079.7
1075(30) 0.001111 1026.8 1074.0
1071(30) 0.001111 1026.7 1070.1
1071(30) 0.001111 1026.7 1068.0
1094(30) 0.001111 1026.6 1067.9
1105(30) 0.001111 1026.5 1070.2
1028(29) 0.001189 1026.5 1074.6
1029(29) 0.001189 1026.4 1081.1
1091(30) 0.001111 1026.4 1089.4
1124(30) 0.001111 1026.3 1098.9
1134(30) 0.001111 1026.2 1109.2
1160(31) 0.001041 1026.2 1118.9
1127(30) 0.001111 1026.1 1127.8
1192(31) 0.001041 1026.1 1136.2
1217(32) 0.000977 1026.0 1145.0
1228(32) 0.000977 1025.9 1155.0
1194(31) 0.001041 1025.9 1166.0
1144(31) 0.001041 1025.8 1176.5
1157(31) 0.001041 1025.8 1184.5
1125(30) 0.001111 1025.7 1187.8
1219(32) 0.000977 1025.6 1186.5
1228(32) 0.000977 1025.6 1182.3
1197(31) 0.001041 1025.5 1177.9
1166(31) 0.001041 1025.5 1174.9
1186(31) 0.001041 1025.4 1173.9
1187(31) 0.001041 1025.4 1174.5
1159(31) 0.001041 1025.3 1175.5
1176(31) 0.001041 1025.3 1176.7
1194(31) 0.001041 1025.2 1178.7
1171(31) 0.001041 1025.1 1182.8
1148(31) 0.001041 1025.1 1189.4
1141(31) 0.001041 1025.0 1198.0
1184(31) 0.001041 1025.0 1207.1
1182(31) 0.001041 1024.9 1214.1
1152(31) 0.001041 1024.9 1218.2
1188(31) 0.001041 1024.8 1220.2
1226(32) 0.000977 1024.8 1221.7
1221(32) 0.000977 1024.7 1224.1
1222(32) 0.000977 1024.7 1227.0
1253(32) 0.000977 1024.6 1228.2
1182(31) 0.001041 1024.6 1224.6
1192(31) 0.001041 1024.5 1214.0
1220(32) 0.000977 1024.5 1196.8
1157(31) 0.001041 1024.4 1175.7
1166(31) 0.001041 1024.4 1153.9
1112(30) 0.001111 1024.3 1133.9
1096(30) 0.001111 1024.3 1117.6
1073(30) 0.001111 1024.2 1105.7
1059(29) 0.001189 1024.2 1098.7
1078(30) 0.001111 1024.1 1096.4
1085(30) 0.001111 1024.1 1098.0
1079(30) 0.001111 1024.0 1102.7
1089(30) 0.001111 1024.0 1109.0
1126(30) 0.001111 1023.9 1115.3
1101(30) 0.001111 1023.9 1119.6
1125(30) 0.001111 1023.8 1120.4
1143(31) 0.001041 1023.8 1116.4
1075(30) 0.001111 1023.7 1110.3
1053(29) 0.001189 1023.7 1102.9
1090(30) 0.001111 1023.6 1095.9
1035(29) 0.001189 1023.6 1090.4
977(28) 0.001276 1023.6 1087.5
1044(29) 0.001189 1023.5 1087.7
1091(30) 0.001111 1023.5 1091.4
1101(30) 0.001111 1023.4 1098.3
1092(30) 0.001111 1023.4 1108.6
1129(30) 0.001111 1023.3 1121.7
1134(30) 0.001111 1023.3 1137.3
1140(31) 0.001041 1023.2 1154.4
1154(31) 0.001041 1023.2 1172.1
1195(31) 0.001041 1023.1 1190.3
1222(32) 0.000977 1023.1 1209.8
1239(32) 0.000977 1023.1 1231.4
1228(32) 0.000977 1023.0 1255.6
1290(32) 0.000977 1023.0 1281.7
1280(32) 0.000977 1022.9 1307.5
1275(32) 0.000977 1022.9 1329.8
1308(33) 0.000918 1022.8 1346.8
1354(33) 0.000918 1022.8 1358.9
1390(47) 0.000453 1023. 1369.
1433(33) 0.000918 1022.7 1378.0
1419(33) 0.000918 1022.7 1386.7
1364(32) 0.000977 1022.6 1391.6
1466(34) 0.000865 1022.6 1387.8
1392(33) 0.000918 1022.6 1371.2
1430(33) 0.000918 1022.5 1341.7
1326(32) 0.000977 1022.5 1303.0
1259(31) 0.001041 1022.4 1260.8
1251(31) 0.001041 1022.4 1219.6
1203(30) 0.001111 1022.3 1182.4
1163(30) 0.001111 1022.3 1150.9
1094(29) 0.001189 1022.3 1125.7
1127(29) 0.001189 1022.2 1106.9
1097(29) 0.001189 1022.2 1093.5
1047(28) 0.001276 1022.1 1084.9
1111(29) 0.001189 1022.1 1080.3
1077(29) 0.001189 1022.1 1079.0
1085(29) 0.001189 1022.0 1080.8
1055(29) 0.001189 1022.0 1085.2
1061(29) 0.001189 1021.9 1092.3
1091(29) 0.001189 1021.9 1101.9
1088(29) 0.001189 1021.9 1113.8
1079(29) 0.001189 1021.8 1127.6
1130(30) 0.001111 1021.8 1142.8
1124(29) 0.001189 1021.7 1158.4
1143(30) 0.001111 1021.7 1173.3
1185(30) 0.001111 1021.7 1187.1
1199(30) 0.001111 1021.6 1200.3
1190(30) 0.001111 1021.6 1213.3
1226(31) 0.001041 1021.5 1226.3
1224(31) 0.001041 1021.5 1238.0
1232(31) 0.001041 1021.5 1246.1
1255(31) 0.001041 1021.4 1247.8
1296(32) 0.000977 1021.4 1242.1
1233(31) 0.001041 1021.3 1230.0
1214(31) 0.001041 1021.3 1215.1
1247(31) 0.001041 1021.3 1201.3
1220(31) 0.001041 1021.2 1192.0
1178(30) 0.001111 1021.2 1189.8
1208(30) 0.001111 1021.1 1196.5
1174(30) 0.001111 1021.1 1212.9
1232(31) 0.001041 1021.1 1238.5
1262(31) 0.001041 1021.0 1271.8
1333(32) 0.000977 1021.0 1309.8
1445(33) 0.000918 1020.9 1348.0
1405(33) 0.000918 1020.9 1380.4
1417(33) 0.000918 1020.9 1400.3
1422(33) 0.000918 1020.8 1403.7
1387(33) 0.000918 1020.8 1390.2
1413(33) 0.000918 1020.7 1365.0
1384(33) 0.000918 1020.7 1334.6
1309(32) 0.000977 1020.7 1304.7
1281(31) 0.001041 1020.6 1279.1
1198(30) 0.001111 1020.6 1259.9
1238(31) 0.001041 1020.5 1248.2
1228(31) 0.001041 1020.5 1244.3
1226(31) 0.001041 1020.5 1247.9
1266(31) 0.001041 1020.4 1258.4
1242(31) 0.001041 1020.4 1273.9
1292(32) 0.000977 1020.3 1291.7
1315(32) 0.000977 1020.3 1308.6
1332(32) 0.000977 1020.3 1321.8
1358(32) 0.000977 1020.2 1330.6
1316(32) 0.000977 1020.2 1335.7
1337(32) 0.000977 1020.1 1339.2
1363(32) 0.000977 1020.1 1342.1
1346(32) 0.000977 1020.1 1343.8
1302(32) 0.000977 1020.0 1342.0
1286(31) 0.001041 1020.0 1334.3
1269(31) 0.001041 1019.9 1320.0
1268(31) 0.001041 1019.9 1300.6
1282(31) 0.001041 1019.9 1279.0
1295(32) 0.000977 1019.8 1258.0
1231(31) 0.001041 1019.8 1239.0
1182(30) 0.001111 1019.7 1222.4
1189(30) 0.001111 1019.7 1207.8
1195(30) 0.001111 1019.6 1195.0
1172(30) 0.001111 1019.6 1184.0
1191(30) 0.001111 1019.6 1175.1
1155(30) 0.001111 1019.5 1168.3
1169(30) 0.001111 1019.5 1163.0
1119(29) 0.001189 1019.4 1158.3
1180(30) 0.001111 1019.4 1152.9
1178(30) 0.001111 1019.3 1146.1
1162(30) 0.001111 1019.3 1138.0
1134(30) 0.001111 1019.3 1129.2
1141(30) 0.001111 1019.2 1120.7
1149(30) 0.001111 1019.2 1112.7
1165(30) 0.001111 1019.1 1105.3
1148(30) 0.001111 1019.1 1098.4
1127(29) 0.001189 1019.0 1091.8
1158(30) 0.001111 1019.0 1085.6
1095(29) 0.001189 1018.9 1080.0
1107(29) 0.001189 1018.9 1075.3
1070(29) 0.001189 1018.9 1071.7
1089(29) 0.001189 1018.8 1069.3
1101(29) 0.001189 1018.8 1068.2
1087(29) 0.001189 1018.7 1068.8
1106(29) 0.001189 1018.7 1071.1
1054(29) 0.001189 1018.6 1075.6
1097(29) 0.001189 1018.6 1082.8
1065(29) 0.001189 1018.5 1092.6
1093(29) 0.001189 1018.5 1105.9
1160(30) 0.001111 1018.4 1122.8
1111(29) 0.001189 1018.4 1143.6
1177(30) 0.001111 1018.4 1168.3
1267(31) 0.001041 1018.3 1196.6
1297(32) 0.000977 1018.3 1227.6
1288(32) 0.000977 1018.2 1259.5
1339(32) 0.000977 1018.2 1289.8
1382(33) 0.000918 1018.1 1315.5
1368(33) 0.000918 1018.1 1334.6
1391(33) 0.000918 1018.0 1346.6
1410(33) 0.000918 1018.0 1353.4
1454(34) 0.000865 1017.9 1357.1
1435(33) 0.000918 1017.9 1358.6
1378(33) 0.000918 1017.8 1357.6
1358(32) 0.000977 1017.8 1352.7
1371(33) 0.000918 1017.7 1342.0
1358(32) 0.000977 1017.7 1325.5
1314(32) 0.000977 1017.6 1304.8
1317(32) 0.000977 1017.6 1282.5
1334(32) 0.000977 1017.5 1260.3
1250(31) 0.001041 1017.5 1239.3
1296(32) 0.000977 1017.4 1219.6
1201(30) 0.001111 1017.4 1201.0
1200(30) 0.001111 1017.3 1183.5
1215(31) 0.001041 1017.2 1167.8
1162(30) 0.001111 1017.2 1155.0
1141(30) 0.001111 1017.1 1146.1
1133(30) 0.001111 1017.1 1141.7
1155(30) 0.001111 1017.0 1142.3
1134(30) 0.001111 1017.0 1148.1
1183(30) 0.001111 1016.9 1158.7
1160(30) 0.001111 1016.9 1173.4
1162(30) 0.001111 1016.8 1190.9
1166(30) 0.001111 1016.8 1209.3
1145(30) 0.001111 1016.7 1226.0
1241(31) 0.001041 1016.6 1238.0
1221(31) 0.001041 1016.6 1242.7
1195(30) 0.001111 1016.5 1239.1
1180(30) 0.001111 1016.5 1228.0
1178(30) 0.001111 1016.4 1211.9
1222(31) 0.001041 1016.4 1193.4
1156(30) 0.001111 1016.3 1174.7
1119(29) 0.001189 1016.2 1157.2
1130(30) 0.001111 1016.2 1141.8
1141(30) 0.001111 1016.1 1129.3
1094(29) 0.001189 1016.1 1120.0
1051(29) 0.001189 1016.0 1114.7
1085(29) 0.001189 1015.9 1113.5
1082(29) 0.001189 1015.9 1116.8
1077(29) 0.001189 1015.8 1124.7
1077(29) 0.001189 1015.8 1137.3
1162(30) 0.001111 1015.7 1154.2
1124(29) 0.001189 1015.6 1175.0
1174(30) 0.001111 1015.6 1198.8
1199(30) 0.001111 1015.5 1224.3
1179(30) 0.001111 1015.4 1249.0
1275(31) 0.001041 1015.4 1270.6
1256(31) 0.001041 1015.3 1286.8
1338(32) 0.000977 1015.2 1296.2
1299(32) 0.000977 1015.2 1299.7
1313(32) 0.000977 1015.1 1299.6
1312(32) 0.000977 1015.0 1298.9
1300(32) 0.000977 1015.0 1299.7
1324(32) 0.000977 1014.9 1303.5
1334(32) 0.000977 1014.8 1310.7
1350(32) 0.000977 1014.8 1321.4
1305(32) 0.000977 1014.7 1335.2
1376(33) 0.000918 1014.6 1351.8
1380(33) 0.000918 1014.6 1370.0
1357(32) 0.000977 1014.5 1387.2
1333(32) 0.000977 1014.4 1399.8
1327(32) 0.000977 1014.4 1404.3
1321(32) 0.000977 1014.3 1398.0
1343(32) 0.000977 1014.2 1381.3
1332(32) 0.000977 1014.2 1357.1
1320(32) 0.000977 1014.1 1329.8
1261(31) 0.001041 1014.0 1303.6
1252(31) 0.001041 1013.9 1281.4
1268(31) 0.001041 1013.9 1265.5
1204(31) 0.001041 1013.8 1256.7
1254(31) 0.001041 1013.7 1255.3
1260(31) 0.001041 1013.6 1260.3
1250(31) 0.001041 1013.6 1270.3
1287(32) 0.000977 1013.5 1282.5
1258(31) 0.001041 1013.4 1293.9
1278(31) 0.001041 1013.3 1300.8
1296(32) 0.000977 1013.3 1300.7
1270(31) 0.001041 1013.2 1292.7
1226(31) 0.001041 1013.1 1278.1
1257(31) 0.001041 1013.0 1259.3
1274(31) 0.001041 1013.0 1238.9
1247(31) 0.001041 1012.9 1218.7
1204(31) 0.001041 1012.8 1200.0
1160(30) 0.001111 1012.7 1183.1
1160(30) 0.001111 1012.6 1168.5
1174(30) 0.001111 1012.6 1156.5
1176(30) 0.001111 1012.5 1146.8
1095(30) 0.001111 1012.4 1139.3
1145(31) 0.001041 1012.3 1133.2
1178(31) 0.001041 1012.2 1127.9
1131(30) 0.001111 1012.1 1122.5
1088(30) 0.001111 1012.1 1116.7
1117(30) 0.001111 1012.0 1110.7
1144(31) 0.001041 1011.9 1105.0
1158(31) 0.001041 1011.8 1100.2
1148(31) 0.001041 1011.7 1096.8
1076(30) 0.001111 1011.6 1095.3
1103(30) 0.001111 1011.6 1095.7
1095(30) 0.001111 1011.5 1098.3
1092(30) 0.001111 1011.4 1102.7
1091(30) 0.001111 1011.3 1108.8
1133(30) 0.001111 1011.2 1115.8
1109(30) 0.001111 1011.1 1123.2
1166(31) 0.001041 1011.0 1130.1
1093(30) 0.001111 1010.9 1135.6
1210(32) 0.000977 1010.9 1139.4
1193(31) 0.001041 1010.8 1141.8
1141(31) 0.001041 1010.7 1143.4
1164(31) 0.001041 1010.6 1145.0
1158(31) 0.001041 1010.5 1147.3
1164(31) 0.001041 1010.4 1150.5
1176(31) 0.001041 1010.3 1155.1
1123(30) 0.001111 1010.2 1161.2
1154(31) 0.001041 1010.1 1169.4
1097(30) 0.001111 1010.0 1180.2
1194(31) 0.001041 1009.9 1193.9
1206(31) 0.001041 1009.8 1210.8
1171(31) 0.001041 1009.7 1230.4
1252(32) 0.000977 1009.6 1252.2
1324(33) 0.000918 1009.5 1275.4
1305(33) 0.000918 1009.4 1299.5
1394(34) 0.000865 1009.4 1323.8
1384(34) 0.000865 1009.3 1347.3
1355(33) 0.000918 1009.2 1367.9
1369(34) 0.000865 1009.1 1383.0
1385(34) 0.000865 1009.0 1390.0
1416(34) 0.000865 1008.9 1387.2
1429(34) 0.000865 1008.8 1375.3
1406(34) 0.000865 1008.7 1356.7
1291(33) 0.000918 1008.6 1334.9
1379(34) 0.000865 1008.5 1313.3
1362(33) 0.000918 1008.4 1294.1
1299(33) 0.000918 1008.2 1279.3
1265(32) 0.000977 1008.1 1269.0
1255(32) 0.000977 1008.0 1263.5
1220(32) 0.000977 1007.9 1262.5
1228(32) 0.000977 1007.8 1264.9
1260(32) 0.000977 1007.7 1269.0
1239(32) 0.000977 1007.6 1272.3
1281(32) 0.000977 1007.5 1272.6
1265(32) 0.000977 1007.4 1267.9
1260(32) 0.000977 1007.3 1257.5
1288(33) 0.000918 1007.2 1242.5
1271(32) 0.000977 1007.1 1224.2
1208(31) 0.001041 1007.0 1204.3
1282(32) 0.000977 1006.9 1184.3
1177(31) 0.001041 1006.8 1165.0
1158(31) 0.001041 1006.6 1147.1
1107(30) 0.001111 1006.5 1131.0
1155(31) 0.001041 1006.4 1117.1
1136(31) 0.001041 1006.3 1105.6
1110(30) 0.001111 1006.2 1096.8
1129(30) 0.001111 1006.1 1090.7
1109(30) 0.001111 1006.0 1087.2
1083(30) 0.001111 1005.9 1086.0
1114(30) 0.001111 1005.7 1087.0
1069(30) 0.001111 1005.6 1089.9
1069(30) 0.001111 1005.5 1094.2
1112(30) 0.001111 1005.4 1099.6
1097(30) 0.001111 1005.3 1105.3
1105(30) 0.001111 1005.2 1110.9
1107(30) 0.001111 1005.1 1115.8
1087(30) 0.001111 1004.9 1119.9
1123(30) 0.001111 1004.8 1123.2
1098(30) 0.001111 1004.7 1126.0
1089(30) 0.001111 1004.6 1128.7
1106(30) 0.001111 1004.5 1131.5
1081(30) 0.001111 1004.3 1134.5
1123(30) 0.001111 1004.2 1137.9
1085(30) 0.001111 1004.1 1141.7
1179(31) 0.001041 1004.0 1146.6
1131(30) 0.001111 1003.9 1153.0
1151(31) 0.001041 1003.7 1161.5
1155(31) 0.001041 1003.6 1172.4
1215(32) 0.000977 1003.5 1185.8
1214(32) 0.000977 1003.4 1201.4
1236(32) 0.000977 1003.2 1219.1
1251(32) 0.000977 1003.1 1238.3
1231(32) 0.000977 1003.0 1258.5
1322(33) 0.000918 1002.9 1278.6
1306(33) 0.000918 1002.7 1297.2
1283(32) 0.000977 1002.6 1312.4
1321(33) 0.000918 1002.5 1322.2
1339(33) 0.000918 1002.4 1325.6
1279(32) 0.000977 1002.2 1322.7
1309(33) 0.000918 1002.1 1315.0
1226(32) 0.000977 1002.0 1304.2
1346(33) 0.000918 1001.8 1292.1
1325(33) 0.000918 1001.7 1279.9
1255(32) 0.000977 1001.6 1268.1
1272(33) 0.000918 1001.5 1257.1
1188(31) 0.001041 1001.3 1247.2
1226(32) 0.000977 1001.2 1238.7
1287(33) 0.000918 1001.1 1231.9
1173(31) 0.001041 1000.9 1226.2
1229(32) 0.000977 1000.8 1221.1
1207(32) 0.000977 1000.7 1215.8
1223(32) 0.000977 1000.5 1209.4
1228(32) 0.000977 1000.4 1201.5
1198(32) 0.000977 1000.3 1192.4
1215(32) 0.000977 1000.1 1182.4
1271(33) 0.000918 1000.0 1171.9
1193(32) 0.000977 999.8 1161.2
1153(31) 0.001041 999.7 1150.1
1160(31) 0.001041 999.6 1138.6
1123(31) 0.001041 999.4 1126.8
1128(31) 0.001041 999.3 1115.0
1055(30) 0.001111 999.2 1103.7
1069(30) 0.001111 999.0 1093.1
1031(29) 0.001189 998.9 1083.8
1026(29) 0.001189 998.7 1075.9
1042(29) 0.001189 998.6 1069.5
1096(30) 0.001111 998.5 1064.8
997(29) 0.001189 998.3 1061.7
986(29) 0.001189 998.2 1060.2
1018(29) 0.001189 998.0 1060.3
1041(29) 0.001189 997.9 1061.7
1059(30) 0.001111 997.8 1064.6
1097(30) 0.001111 997.6 1068.5
1024(29) 0.001189 997.5 1073.5
1068(30) 0.001111 997.3 1079.6
1025(29) 0.001189 997.2 1086.8
1048(30) 0.001111 997.0 1094.8
1003(29) 0.001189 996.9 1103.5
1104(30) 0.001111 996.8 1112.8
1078(30) 0.001111 996.6 1122.0
1131(31) 0.001041 996.5 1131.1
1136(31) 0.001041 996.3 1139.9
1156(31) 0.001041 996.2 1148.3
1108(30) 0.001111 996.0 1156.1
1181(31) 0.001041 995.9 1163.1
1205(32) 0.000977 995.7 1168.7
1161(31) 0.001041 995.6 1172.3
1193(32) 0.000977 995.4 1173.3
1218(32) 0.000977 995.3 1172.0
1184(31) 0.001041 995.1 1168.5
1198(32) 0.000977 995.0 1163.5
1188(31) 0.001041 994.8 1157.6
1147(31) 0.001041 994.7 1150.9
1101(30) 0.001111 994.5 1143.8
1146(31) 0.001041 994.4 1136.3
1165(31) 0.001041 994.2 1128.7
1151(31) 0.001041 994.1 1121.5
1111(30) 0.001111 993.9 1115.4
1100(30) 0.001111 993.8 1110.7
1118(30) 0.001111 993.6 1108.0
1107(30) 0.001111 993.5 1107.5
1133(31) 0.001041 993.3 1109.2
1113(30) 0.001111 993.2 1113.0
1129(31) 0.001041 993.0 1118.4
1151(31) 0.001041 992.9 1125.1
1170(31) 0.001041 992.7 1132.3
1118(31) 0.001041 992.6 1139.2
1136(31) 0.001041 992.4 1144.7
1193(32) 0.000977 992.2 1148.1
1207(32) 0.000977 992.1 1149.0
1200(32) 0.000977 991.9 1147.4
1183(31) 0.001041 991.8 1143.9
1171(31) 0.001041 991.6 1139.0
1178(31) 0.001041 991.5 1133.4
1134(31) 0.001041 991.3 1127.6
1121(31) 0.001041 991.2 1122.0
1154(31) 0.001041 991.0 1116.8
1078(30) 0.001111 990.8 1112.7
1075(30) 0.001111 990.7 1110.1
1072(30) 0.001111 990.5 1109.5
1118(30) 0.001111 990.4 1111.4
1103(30) 0.001111 990.2 1116.3
1094(30) 0.001111 990.0 1124.3
1059(30) 0.001111 989.9 1135.6
1087(30) 0.001111 989.7 1150.5
1049(30) 0.001111 989.6 1168.7
1092(30) 0.001111 989.4 1189.9
1165(31) 0.001041 989.2 1213.8
1134(31) 0.001041 989.1 1239.6
1184(31) 0.001041 988.9 1266.5
1288(33) 0.000918 988.8 1293.8
1277(33) 0.000918 988.6 1320.9
1287(33) 0.000918 988.4 1347.3
1376(34) 0.000865 988.3 1372.5
1380(34) 0.000865 988.1 1395.7
1370(34) 0.000865 988.0 1415.7
1420(34) 0.000865 987.8 1430.9
1389(34) 0.000865 987.6 1440.2
1448(35) 0.000816 987.5 1443.1
1472(35) 0.000816 987.3 1440.2
1501(35) 0.000816 987.1 1432.8
1464(33) 0.000918 987.0 1421.8
1495(34) 0.000865 986.8 1408.4
1490(34) 0.000865 986.7 1393.2
1429(33) 0.000918 986.5 1376.4
1347(32) 0.000977 986.3 1358.4
1346(32) 0.000977 986.2 1339.8
1385(32) 0.000977 986.0 1321.5
1309(32) 0.000977 985.8 1304.4
1323(32) 0.000977 985.7 1289.1
1306(32) 0.000977 985.5 1275.9
1313(32) 0.000977 985.3 1264.7
1217(30) 0.001111 985.2 1255.5
1250(31) 0.001041 985.0 1248.0
1238(31) 0.001041 984.9 1242.1
1220(30) 0.001111 984.7 1237.8
1252(31) 0.001041 984.5 1234.3
1239(31) 0.001041 984.4 1231.2
1235(31) 0.001041 984.2 1227.8
1247(31) 0.001041 984.0 1223.6
1233(31) 0.001041 983.9 1218.2
1181(30) 0.001111 983.7 1211.8
1227(31) 0.001041 983.5 1204.7
1207(30) 0.001111 983.4 1197.0
1167(30) 0.001111 983.2 1189.0
1175(30) 0.001111 983.0 1180.7
1141(29) 0.001189 982.9 1172.0
1159(30) 0.001111 982.7 1162.9
1158(30) 0.001111 982.5 1153.7
1109(29) 0.001189 982.4 1144.5
1148(30) 0.001111 982.2 1135.6
1168(30) 0.001111 982.0 1127.1
1105(29) 0.001189 981.9 1119.3
1059(28) 0.001276 981.7 1111.9
1119(29) 0.001189 981.5 1105.2
1081(29) 0.001189 981.4 1099.3
1101(29) 0.001189 981.2 1094.3
1135(29) 0.001189 981.0 1090.5
1161(30) 0.001111 980.9 1088.1
1109(29) 0.001189 980.7 1087.3
1115(29) 0.001189 980.5 1088.2
1126(29) 0.001189 980.4 1090.7
1128(29) 0.001189 980.2 1094.8
1122(29) 0.001189 980.0 1100.2
1093(29) 0.001189 979.9 1106.8
1163(30) 0.001111 979.7 1114.2
1134(29) 0.001189 979.5 1121.8
1190(30) 0.001111 979.4 1129.4
1149(30) 0.001111 979.2 1136.6
1180(30) 0.001111 979.0 1143.4
1166(30) 0.001111 978.9 1150.0
1169(30) 0.001111 978.7 1156.6
1235(31) 0.001041 978.6 1163.7
1227(31) 0.001041 978.4 1171.5
1237(31) 0.001041 978.2 1180.1
1249(31) 0.001041 978.1 1189.5
1269(31) 0.001041 977.9 1199.6
1257(31) 0.001041 977.7 1210.2
1258(31) 0.001041 977.6 1221.2
1255(31) 0.001041 977.4 1232.2
1267(31) 0.001041 977.2 1242.6
1365(32) 0.000977 977.1 1251.5
1315(32) 0.000977 976.9 1258.4
1245(31) 0.001041 976.7 1262.7
1351(32) 0.000977 976.6 1264.1
1293(31) 0.001041 976.4 1263.1
1273(31) 0.001041 976.2 1260.2
1223(30) 0.001111 976.1 1255.9
1297(31) 0.001041 975.9 1250.5
1229(31) 0.001041 975.7 1244.3
1222(30) 0.001111 975.6 1237.3
1264(31) 0.001041 975.4 1229.9
1223(30) 0.001111 975.3 1222.4
1239(31) 0.001041 975.1 1215.3
1270(31) 0.001041 974.9 1209.0
1247(31) 0.001041 974.8 1203.7
1237(31) 0.001041 974.6 1199.5
1213(30) 0.001111 974.4 1196.5
1212(30) 0.001111 974.3 1194.4
1251(31) 0.001041 974.1 1193.3
1220(30) 0.001111 973.9 1193.1
1231(31) 0.001041 973.8 1193.7
1241(31) 0.001041 973.6 1194.8
1233(31) 0.001041 973.5 1196.1
1243(31) 0.001041 973.3 1197.2
1214(30) 0.001111 973.1 1197.7
1233(31) 0.001041 973.0 1197.4
1222(30) 0.001111 972.8 1196.5
1247(31) 0.001041 972.7 1194.9
1251(31) 0.001041 972.5 1192.8
1255(31) 0.001041 972.3 1190.1
1244(31) 0.001041 972.2 1186.9
1218(30) 0.001111 972.0 1183.3
1231(31) 0.001041 971.9 1179.4
1229(31) 0.001041 971.7 1175.7
1206(30) 0.001111 971.5 1172.9
1269(31) 0.001041 971.4 1171.6
1204(30) 0.001111 971.2 1172.4
1230(31) 0.001041 971.1 1175.8
1153(30) 0.001111 970.9 1182.1
1192(41) 0.000595 971. 1191.
1199(30) 0.001111 970.6 1203.5
1187(30) 0.001111 970.4 1218.2
1256(31) 0.001041 970.3 1234.7
1261(31) 0.001041 970.1 1252.3
1244(31) 0.001041 970.0 1270.0
1264(31) 0.001041 969.8 1286.8
1289(31) 0.001041 969.7 1302.0
1272(31) 0.001041 969.5 1315.0
1250(31) 0.001041 969.3 1325.7
1263(31) 0.001041 969.2 1334.2
1289(31) 0.001041 969.0 1340.3
1321(32) 0.000977 968.9 1344.0
1321(32) 0.000977 968.7 1344.9
1327(32) 0.000977 968.6 1342.9
1319(32) 0.000977 968.4 1337.9
1295(31) 0.001041 968.3 1330.1
1312(32) 0.000977 968.1 1320.1
1272(31) 0.001041 968.0 1308.6
1252(31) 0.001041 967.8 1295.9
1251(31) 0.001041 967.7 1282.4
1233(31) 0.001041 967.5 1268.2
1169(30) 0.001111 967.4 1253.6
1190(30) 0.001111 967.2 1238.6
1184(30) 0.001111 967.1 1223.8
1183(30) 0.001111 966.9 1209.4
1192(30) 0.001111 966.8 1195.8
1170(30) 0.001111 966.6 1183.2
1174(30) 0.001111 966.5 1171.8
1141(29) 0.001189 966.3 1161.5
1149(30) 0.001111 966.2 1152.3
1154(30) 0.001111 966.0 1144.0
1134(29) 0.001189 965.9 1136.7
1136(29) 0.001189 965.8 1130.1
1092(29) 0.001189 965.6 1124.1
1106(29) 0.001189 965.5 1118.4
1100(29) 0.001189 965.3 1112.9
1122(29) 0.001189 965.2 1107.4
1111(29) 0.001189 965.0 1101.8
1099(29) 0.001189 964.9 1096.2
1089(29) 0.001189 964.8 1090.9
1071(28) 0.001276 964.6 1086.1
1101(29) 0.001189 964.5 1081.9
1125(29) 0.001189 964.3 1078.4
1098(29) 0.001189 964.2 1075.8
1050(28) 0.001276 964.1 1073.9
1054(28) 0.001276 963.9 1072.7
1064(28) 0.001276 963.8 1072.1
1024(28) 0.001276 963.6 1071.8
1047(28) 0.001276 963.5 1071.8
1059(28) 0.001276 963.4 1071.6
1064(28) 0.001276 963.2 1071.2
1052(28) 0.001276 963.1 1070.7
1087(29) 0.001189 963.0 1069.6
1076(29) 0.001189 962.8 1068.2
1069(28) 0.001276 962.7 1066.8
1047(28) 0.001276 962.6 1065.6
1053(28) 0.001276 962.4 1064.9
1029(28) 0.001276 962.3 1065.1
1005(28) 0.001276 962.2 1066.1
986(27) 0.001372 962.0 1068.4
1054(28) 0.001276 961.9 1071.7
1057(28) 0.001276 961.8 1076.2
1069(28) 0.001276 961.6 1081.9
1042(28) 0.001276 961.5 1088.6
1041(28) 0.001276 961.4 1096.4
1082(29) 0.001189 961.3 1105.0
1123(29) 0.001189 961.1 1114.6
1094(29) 0.001189 961.0 1124.9
1094(29) 0.001189 960.9 1136.2
1097(29) 0.001189 960.8 1148.3
1140(29) 0.001189 960.6 1161.3
1144(29) 0.001189 960.5 1175.1
1224(30) 0.001111 960.4 1189.7
1207(30) 0.001111 960.3 1205.0
1175(30) 0.001111 960.2 1220.8
1217(30) 0.001111 960.0 1237.3
1209(30) 0.001111 959.9 1254.3
1267(31) 0.001041 959.8 1271.8
1298(31) 0.001041 959.7 1289.5
1279(31) 0.001041 959.6 1307.0
1357(32) 0.000977 959.4 1323.9
1347(32) 0.000977 959.3 1339.7
1358(32) 0.000977 959.2 1354.0
1370(32) 0.000977 959.1 1366.3
1366(32) 0.000977 959.0 1376.4
1391(33) 0.000918 958.9 1383.8
1397(33) 0.000918 958.8 1387.9
1379(32) 0.000977 958.6 1388.1
1363(32) 0.000977 958.5 1383.9
1328(32) 0.000977 958.4 1375.5
1329(32) 0.000977 958.3 1363.2
1337(32) 0.000977 958.2 1348.0
1359(32) 0.000977 958.1 1331.0
1317(32) 0.000977 958.0 1313.6
1317(32) 0.000977 957.9 1296.9
1258(31) 0.001041 957.8 1281.3
1255(31) 0.001041 957.7 1267.7
1229(31) 0.001041 957.6 1256.1
1250(31) 0.001041 957.5 1246.5
1267(31) 0.001041 957.3 1238.6
1209(30) 0.001111 957.2 1231.9
1209(30) 0.001111 957.1 1225.6
1177(30) 0.001111 957.0 1219.1
1140(30) 0.001111 956.9 1211.5
1169(30) 0.001111 956.8 1202.5
1156(30) 0.001111 956.7 1191.7
1159(30) 0.001111 956.6 1179.4
1161(30) 0.001111 956.5 1165.8
1129(29) 0.001189 956.5 1151.6
1111(29) 0.001189 956.4 1137.1
1134(29) 0.001189 956.3 1122.7
1107(29) 0.001189 956.2 1109.0
1094(29) 0.001189 956.1 1096.1
1097(29) 0.001189 956.0 1084.3
1049(28) 0.001276 955.9 1073.8
1037(28) 0.001276 955.8 1064.8
1047(28) 0.001276 955.7 1057.3
1060(28) 0.001276 955.6 1051.4
1045(28) 0.001276 955.5 1047.2
1032(28) 0.001276 955.4 1044.6
1034(28) 0.001276 955.4 1043.6
996(28) 0.001276 955.3 1044.2
1016(28) 0.001276 955.2 1046.1
1032(28) 0.001276 955.1 1049.3
1017(28) 0.001276 955.0 1053.7
1049(28) 0.001276 954.9 1059.1
1084(29) 0.001189 954.9 1065.5
1074(29) 0.001189 954.8 1072.6
1061(29) 0.001189 954.7 1080.3
1074(29) 0.001189 954.6 1088.4
1091(29) 0.001189 954.5 1096.8
1133(29) 0.001189 954.5 1105.1
1123(29) 0.001189 954.4 1113.2
1132(29) 0.001189 954.3 1120.7
1167(30) 0.001111 954.2 1127.5
1139(30) 0.001111 954.2 1133.5
1134(29) 0.001189 954.1 1138.7
1154(30) 0.001111 954.0 1143.1
1145(30) 0.001111 953.9 1146.8
1145(30) 0.001111 953.9 1150.1
1166(30) 0.001111 953.8 1153.1
1160(30) 0.001111 953.7 1155.7
1148(30) 0.001111 953.7 1158.0
1147(30) 0.001111 953.6 1160.3
1170(30) 0.001111 953.5 1162.6
1167(30) 0.001111 953.5 1165.1
1167(30) 0.001111 953.4 1168.1
1203(30) 0.001111 953.3 1171.6
1213(30) 0.001111 953.3 1175.7
1194(30) 0.001111 953.2 1180.3
1188(30) 0.001111 953.1 1185.3
1200(30) 0.001111 953.1 1190.6
1192(30) 0.001111 953.0 1196.1
1189(30) 0.001111 953.0 1201.6
1211(30) 0.001111 952.9 1206.8
1214(30) 0.001111 952.9 1211.6
1221(31) 0.001041 952.8 1215.4
1231(31) 0.001041 952.7 1217.9
1222(31) 0.001041 952.7 1219.0
1203(30) 0.001111 952.6 1218.4
1203(30) 0.001111 952.6 1216.3
1218(31) 0.001041 952.5 1212.7
1262(31) 0.001041 952.5 1207.7
1227(31) 0.001041 952.4 1201.3
1189(30) 0.001111 952.4 1193.6
1184(30) 0.001111 952.3 1184.7
1206(30) 0.001111 952.3 1174.7
1203(30) 0.001111 952.2 1163.8
1164(30) 0.001111 952.2 1152.1
1163(30) 0.001111 952.2 1140.0
1156(30) 0.001111 952.1 1127.8
1175(30) 0.001111 952.1 1115.9
1135(29) 0.001189 952.0 1104.3
1133(29) 0.001189 952.0 1093.3
1079(29) 0.001189 952.0 1083.0
1056(28) 0.001276 951.9 1073.6
1047(28) 0.001276 951.9 1065.2
1088(29) 0.001189 951.8 1057.9
1058(28) 0.001276 951.8 1051.7
1050(28) 0.001276 951.8 1046.7
1042(28) 0.001276 951.7 1043.0
1057(28) 0.001276 951.7 1040.6
1010(28) 0.001276 951.7 1039.4
973(27) 0.001372 951.6 1039.6
997(28) 0.001276 951.6 1040.9
1045(28) 0.001276 951.6 1043.3
1063(29) 0.001189 951.6 1046.8
1079(29) 0.001189 951.5 1051.3
1072(29) 0.001189 951.5 1056.7
1049(28) 0.001276 951.5 1062.7
1031(28) 0.001276 951.5 1069.3
1043(28) 0.001276 951.4 1076.3
1068(29) 0.001189 951.4 1083.6
1104(29) 0.001189 951.4 1090.9
1084(29) 0.001189 951.4 1098.0
1073(29) 0.001189 951.4 1104.6
1097(29) 0.001189 951.3 1110.5
1117(29) 0.001189 951.3 1115.5
1116(29) 0.001189 951.3 1119.4
1098(29) 0.001189 951.3 1122.3
1101(30) 0.001111 951.3 1124.1
1103(30) 0.001111 951.3 1124.8
1132(30) 0.001111 951.2 1124.4
1135(30) 0.001111 951.2 1123.0
1125(30) 0.001111 951.2 1120.6
1105(30) 0.001111 951.2 1117.1
1161(31) 0.001041 951.2 1112.9
1069(30) 0.001111 951.2 1107.9
1057(29) 0.001189 951.2 1102.6
1066(29) 0.001189 951.2 1097.2
1099(30) 0.001111 951.2 1091.8
1096(30) 0.001111 951.2 1086.8
1025(29) 0.001189 951.2 1082.3
1113(30) 0.001111 951.2 1078.4
1133(30) 0.001111 951.2 1075.2
1112(30) 0.001111 951.2 1072.8
1040(29) 0.001189 951.2 1071.2
1078(30) 0.001111 951.2 1070.4
1073(30) 0.001111 951.2 1070.1
1084(30) 0.001111 951.2 1070.4
1073(30) 0.001111 951.2 1071.1
1118(30) 0.001111 951.2 1072.2
1112(30) 0.001111 951.2 1073.4
1113(30) 0.001111 951.2 1074.6
1051(29) 0.001189 951.2 1075.8
1110(30) 0.001111 951.2 1076.6
1044(29) 0.001189 951.2 1076.9
1038(29) 0.001189 951.2 1076.6
1083(30) 0.001111 951.2 1075.5
1070(30) 0.001111 951.3 1073.7
1068(30) 0.001111 951.3 1071.0
1056(29) 0.001189 951.3 1067.7
1050(29) 0.001189 951.3 1063.7
1105(30) 0.001111 951.3 1059.3
1039(29) 0.001189 951.3 1054.7
1025(29) 0.001189 951.3 1050.1
1025(29) 0.001189 951.4 1045.6
982(28) 0.001276 951.4 1041.3
952(28) 0.001276 951.4 1037.4
1013(29) 0.001189 951.4 1033.9
1034(29) 0.001189 951.4 1031.0
1000(29) 0.001189 951.5 1029.0
1033(29) 0.001189 951.5 1027.6
1015(29) 0.001189 951.5 1027.0
988(28) 0.001276 951.5 1027.4
1013(29) 0.001189 951.6 1028.9
1053(29) 0.001189 951.6 1031.4
1017(29) 0.001189 951.6 1035.1
1026(29) 0.001189 951.7 1040.0
1033(29) 0.001189 951.7 1046.3
1023(29) 0.001189 951.7 1053.9
1053(29) 0.001189 951.7 1062.9
1109(30) 0.001111 951.8 1073.4
1153(31) 0.001041 951.8 1085.3
1104(30) 0.001111 951.8 1098.8
1126(30) 0.001111 951.9 1113.7
1152(31) 0.001041 951.9 1130.1
1139(30) 0.001111 952.0 1147.7
1209(31) 0.001041 952.0 1166.5
1206(31) 0.001041 952.0 1186.0
1218(32) 0.000977 952.1 1206.3
1243(32) 0.000977 952.1 1226.9
1247(32) 0.000977 952.1 1247.7
1314(33) 0.000918 952.2 1268.2
1318(33) 0.000918 952.2 1288.2
1377(33) 0.000918 952.3 1307.3
1348(33) 0.000918 952.3 1325.0
1397(34) 0.000865 952.4 1340.9
1363(33) 0.000918 952.4 1354.6
1390(34) 0.000865 952.5 1365.7
1372(33) 0.000918 952.5 1374.2
1391(34) 0.000865 952.5 1380.2
1404(34) 0.000865 952.6 1383.7
1358(33) 0.000918 952.6 1385.3
1440(34) 0.000865 952.7 1385.1
1377(33) 0.000918 952.7 1383.4
1409(34) 0.000865 952.8 1380.6
1387(34) 0.000865 952.8 1376.7
1461(34) 0.000865 952.9 1372.1
1384(34) 0.000865 953.0 1366.7
1416(34) 0.000865 953.0 1360.8
1394(34) 0.000865 953.1 1354.3
1376(33) 0.000918 953.1 1347.4
1355(33) 0.000918 953.2 1339.9
1353(33) 0.000918 953.2 1331.9
1301(33) 0.000918 953.3 1323.2
1349(33) 0.000918 953.4 1313.7
1281(32) 0.000977 953.4 1303.6
1302(33) 0.000918 953.5 1292.8
1288(32) 0.000977 953.5 1281.5
1253(32) 0.000977 953.6 1269.9
1243(32) 0.000977 953.7 1258.0
1239(32) 0.000977 953.7 1246.1
1220(32) 0.000977 953.8 1234.2
1223(32) 0.000977 953.8 1222.3
1157(31) 0.001041 953.9 1210.7
1158(31) 0.001041 954.0 1199.3
1233(32) 0.000977 954.0 1188.4
1120(30) 0.001111 954.1 1178.0
1171(25) 0.001600 954.2 1168.2
1090(31) 0.001041 954.2 1159.2
1121(31) 0.001041 954.3 1151.1
1120(31) 0.001041 954.4 1144.0
1108(31) 0.001041 954.5 1137.8
1113(31) 0.001041 954.5 1132.7
1086(31) 0.001041 954.6 1128.9
1069(30) 0.001111 954.7 1126.4
1102(31) 0.001041 954.7 1125.3
1133(31) 0.001041 954.8 1125.8
1106(31) 0.001041 954.9 1127.7
1101(31) 0.001041 955.0 1131.2
1144(31) 0.001041 955.0 1136.3
1131(31) 0.001041 955.1 1142.8
1153(32) 0.000977 955.2 1150.7
1134(31) 0.001041 955.3 1159.8
1169(32) 0.000977 955.3 1170.1
1175(32) 0.000977 955.4 1181.1
1227(33) 0.000918 955.5 1192.7
1229(33) 0.000918 955.6 1204.5
1260(33) 0.000918 955.7 1216.3
1252(33) 0.000918 955.7 1227.8
1205(32) 0.000977 955.8 1238.8
1234(33) 0.000918 955.9 1248.9
1303(34) 0.000865 956.0 1257.9
1259(33) 0.000918 956.1 1265.5
1260(33) 0.000918 956.1 1271.3
1281(33) 0.000918 956.2 1275.1
1311(34) 0.000865 956.3 1276.7
1294(33) 0.000918 956.4 1276.1
1245(33) 0.000918 956.5 1273.2
1279(33) 0.000918 956.6 1268.4
1297(33) 0.000918 956.6 1261.9
1251(33) 0.000918 956.7 1254.0
1287(33) 0.000918 956.8 1245.1
1276(33) 0.000918 956.9 1235.5
1261(33) 0.000918 957.0 1225.6
1224(33) 0.000918 957.1 1215.3
1209(32) 0.000977 957.2 1205.1
1159(32) 0.000977 957.2 1195.0
1130(31) 0.001041 957.3 1185.3
1124(31) 0.001041 957.4 1176.0
1118(31) 0.001041 957.5 1167.2
1135(31) 0.001041 957.6 1159.0
1103(31) 0.001041 957.7 1151.3
1127(31) 0.001041 957.8 1144.2
1095(31) 0.001041 957.9 1137.8
1100(31) 0.001041 958.0 1132.2
1091(31) 0.001041 958.1 1127.2
1120(31) 0.001041 958.1 1122.9
1159(32) 0.000977 958.2 1119.6
1101(31) 0.001041 958.3 1117.1
1081(31) 0.001041 958.4 1115.5
1109(31) 0.001041 958.5 1114.9
1137(31) 0.001041 958.6 1115.1
1145(31) 0.001041 958.7 1116.1
1166(32) 0.000977 958.8 1118.0
1163(32) 0.000977 958.9 1120.4
1169(32) 0.000977 959.0 1123.3
1160(32) 0.000977 959.1 1126.6
1179(32) 0.000977 959.2 1130.0
1179(32) 0.000977 959.3 1133.4
1164(32) 0.000977 959.4 1136.6
1250(33) 0.000918 959.4 1139.4
1199(32) 0.000977 959.5 1141.8
1240(33) 0.000918 959.6 1143.6
1212(32) 0.000977 959.7 1144.8
1205(32) 0.000977 959.8 1145.3
1250(33) 0.000918 959.9 1145.1
1188(32) 0.000977 960.0 1144.1
1210(32) 0.000977 960.1 1142.2
1234(33) 0.000918 960.2 1139.6
1177(32) 0.000977 960.3 1136.2
1196(32) 0.000977 960.4 1132.2
1194(32) 0.000977 960.5 1127.8
1209(32) 0.000977 960.6 1123.0
1197(32) 0.000977 960.7 1118.2
1137(31) 0.001041 960.8 1113.5
1135(31) 0.001041 960.9 1109.1
1158(32) 0.000977 961.0 1105.2
1128(31) 0.001041 961.1 1101.9
1136(31) 0.001041 961.2 1099.5
1112(31) 0.001041 961.3 1097.7
1108(31) 0.001041 961.4 1096.8
1075(31) 0.001041 961.5 1096.7
1106(31) 0.001041 961.6 1097.7
1101(31) 0.001041 961.7 1099.3
1103(31) 0.001041 961.8 1101.9
1072(30) 0.001111 961.9 1105.2
1112(31) 0.001041 962.0 1109.2
1102(31) 0.001041 962.1 1113.8
1104(31) 0.001041 962.2 1118.9
1102(31) 0.001041 962.3 1124.4
1103(31) 0.001041 962.3 1130.3
1124(31) 0.001041 962.4 1136.3
1137(31) 0.001041 962.5 1142.4
1170(32) 0.000977 962.6 1148.3
1142(31) 0.001041 962.7 1154.1
1149(32) 0.000977 962.8 1159.7
1145(31) 0.001041 962.9 1164.9
1123(31) 0.001041 963.0 1169.9
1214(31) 0.001041 963.1 1174.5
1150(31) 0.001041 963.2 1178.8
1155(31) 0.001041 963.3 1182.8
1170(31) 0.001041 963.4 1186.5
1245(32) 0.000977 963.5 1189.8
1229(32) 0.000977 963.6 1192.9
1279(32) 0.000977 963.7 1195.7
1279(32) 0.000977 963.8 1198.1
1216(31) 0.001041 963.9 1200.3
1274(32) 0.000977 964.0 1202.3
1274(32) 0.000977 964.1 1203.9
1166(31) 0.001041 964.2 1205.3
1230(32) 0.000977 964.3 1206.5
1219(31) 0.001041 964.4 1207.3
1260(32) 0.000977 964.5 1207.9
1181(31) 0.001041 964.5 1208.3
1279(32) 0.000977 964.6 1208.6
1230(32) 0.000977 964.7 1208.8
1258(32) 0.000977 964.8 1209.1
1227(32) 0.000977 964.9 1209.5
1252(32) 0.000977 965.0 1210.2
1215(31) 0.001041 965.1 1211.0
1230(32) 0.000977 965.2 1212.2
1201(31) 0.001041 965.3 1213.5
1204(31) 0.001041 965.4 1215.0
1134(30) 0.001111 965.5 1216.6
1216(31) 0.001041 965.6 1218.0
1208(31) 0.001041 965.6 1219.2
1158(31) 0.001041 965.7 1219.9
1221(32) 0.000977 965.8 1220.0
1248(32) 0.000977 965.9 1219.2
1195(31) 0.001041 966.0 1217.4
1165(31) 0.001041 966.1 1214.5
1156(31) 0.001041 966.2 1210.5
1184(31) 0.001041 966.3 1205.4
1149(31) 0.001041 966.4 1199.4
1136(30) 0.001111 966.4 1192.6
1163(31) 0.001041 966.5 1185.2
1188(31) 0.001041 966.6 1177.3
1171(31) 0.001041 966.7 1169.2
1110(30) 0.001111 966.8 1161.1
1124(30) 0.001111 966.9 1153.1
1069(30) 0.001111 966.9 1145.3
1136(30) 0.001111 967.0 1137.9
1106(30) 0.001111 967.1 1131.0
1065(30) 0.001111 967.2 1124.7
1094(30) 0.001111 967.3 1119.1
1111(30) 0.001111 967.4 1114.1
1114(30) 0.001111 967.4 1110.0
1086(30) 0.001111 967.5 1106.6
1072(30) 0.001111 967.6 1104.0
1140(30) 0.001111 967.7 1102.2
1039(29) 0.001189 967.8 1101.0
1074(30) 0.001111 967.8 1100.5
1084(30) 0.001111 967.9 1100.6
1096(30) 0.001111 968.0 1101.2
1072(30) 0.001111 968.1 1102.2
1092(30) 0.001111 968.1 1103.6
1108(30) 0.001111 968.2 1105.1
1082(30) 0.001111 968.3 1106.8
1101(30) 0.001111 968.4 1108.7
1094(30) 0.001111 968.4 1110.6
1140(30) 0.001111 968.5 1112.5
1106(30) 0.001111 968.6 1114.4
1090(30) 0.001111 968.6 1116.3
1111(30) 0.001111 968.7 1118.1
1116(30) 0.001111 968.8 1120.0
1118(30) 0.001111 968.8 1121.8
1184(31) 0.001041 968.9 1123.5
1133(30) 0.001111 969.0 1125.2
1142(31) 0.001041 969.0 1126.9
1093(30) 0.001111 969.1 1128.5
1175(31) 0.001041 969.2 1130.2
1174(31) 0.001041 969.2 1131.8
1154(31) 0.001041 969.3 1133.5
1200(31) 0.001041 969.4 1135.2
1108(30) 0.001111 969.4 1137.0
1113(30) 0.001111 969.5 1138.8
1124(30) 0.001111 969.6 1140.8
1110(30) 0.001111 969.6 1142.9
1186(31) 0.001041 969.7 1145.3
1113(30) 0.001111 969.7 1148.0
1188(31) 0.001041 969.8 1151.0
1166(31) 0.001041 969.8 1154.4
1152(31) 0.001041 969.9 1158.4
1122(30) 0.001111 970.0 1162.9
1099(30) 0.001111 970.0 1168.0
1123(30) 0.001111 970.1 1173.6
1252(32) 0.000977 970.1 1179.9
1166(31) 0.001041 970.2 1186.7
1188(31) 0.001041 970.2 1194.1
1192(31) 0.001041 970.3 1202.0
1142(30) 0.001111 970.3 1210.4
1232(32) 0.000977 970.4 1219.1
1165(31) 0.001041 970.4 1228.0
1191(31) 0.001041 970.5 1237.2
1210(31) 0.001041 970.5 1246.4
1207(31) 0.001041 970.5 1255.5
1284(32) 0.000977 970.6 1264.5
1205(44) 0.000517 971. 1273.
1307(32) 0.000977 970.7 1281.7
1282(32) 0.000977 970.7 1289.7
1265(31) 0.001041 970.7 1297.1
1267(31) 0.001041 970.8 1303.8
1257(31) 0.001041 970.8 1309.8
1317(32) 0.000977 970.9 1314.9
1299(32) 0.000977 970.9 1319.1
1275(32) 0.000977 970.9 1322.3
1316(32) 0.000977 971.0 1324.5
1348(32) 0.000977 971.0 1325.6
1336(32) 0.000977 971.0 1325.9
1275(32) 0.000977 971.1 1325.1
1292(32) 0.000977 971.1 1323.5
1315(32) 0.000977 971.1 1321.0
1312(32) 0.000977 971.1 1317.7
1306(32) 0.000977 971.2 1313.6
1344(32) 0.000977 971.2 1308.9
1317(32) 0.000977 971.2 1303.6
1304(32) 0.000977 971.2 1298.0
1287(32) 0.000977 971.3 1292.1
1287(32) 0.000977 971.3 1286.2
1270(32) 0.000977 971.3 1280.3
1231(31) 0.001041 971.3 1274.7
1284(32) 0.000977 971.4 1269.4
1290(32) 0.000977 971.4 1264.5
1229(31) 0.001041 971.4 1260.1
1244(31) 0.001041 971.4 1256.3
1257(31) 0.001041 971.4 1252.9
1197(31) 0.001041 971.4 1250.0
1224(31) 0.001041 971.4 1247.6
1239(31) 0.001041 971.5 1245.4
1232(31) 0.001041 971.5 1243.5
1261(31) 0.001041 971.5 1241.8
1217(31) 0.001041 971.5 1240.1
1309(32) 0.000977 971.5 1238.3
1228(31) 0.001041 971.5 1236.5
1237(31) 0.001041 971.5 1234.6
1265(31) 0.001041 971.5 1232.6
1253(31) 0.001041 971.5 1230.5
1271(32) 0.000977 971.5 1228.5
1260(31) 0.001041 971.5 1226.6
1216(31) 0.001041 971.5 1224.8
1226(31) 0.001041 971.5 1223.2
1254(31) 0.001041 971.5 1221.9
1245(31) 0.001041 971.5 1220.9
1229(31) 0.001041 971.5 1220.3
1293(32) 0.000977 971.5 1220.1
1251(31) 0.001041 971.5 1220.3
1228(31) 0.001041 971.5 1220.9
1216(31) 0.001041 971.5 1221.8
1244(31) 0.001041 971.5 1223.0
1196(31) 0.001041 971.4 1224.6
1198(31) 0.001041 971.4 1226.3
1227(31) 0.001041 971.4 1228.2
1176(30) 0.001111 971.4 1230.3
1210(31) 0.001041 971.4 1232.5
1226(31) 0.001041 971.4 1234.9
1226(31) 0.001041 971.3 1237.3
1268(32) 0.000977 971.3 1239.8
1225(31) 0.001041 971.3 1242.4
1209(31) 0.001041 971.3 1245.2
1225(31) 0.001041 971.3 1248.0
1269(32) 0.000977 971.2 1250.9
1239(31) 0.001041 971.2 1253.8
1256(31) 0.001041 971.2 1256.7
1231(31) 0.001041 971.2 1259.6
1226(31) 0.001041 971.1 1262.3
1226(31) 0.001041 971.1 1264.9
1203(31) 0.001041 971.1 1267.1
1235(31) 0.001041 971.0 1269.0
1252(31) 0.001041 971.0 1270.4
1267(31) 0.001041 971.0 1271.2
1281(32) 0.000977 970.9 1271.4
1247(31) 0.001041 970.9 1270.8
1246(31) 0.001041 970.9 1269.4
1245(31) 0.001041 970.8 1267.2
1235(31) 0.001041 970.8 1264.1
1240(31) 0.001041 970.8 1260.2
1226(31) 0.001041 970.7 1255.6
1246(31) 0.001041 970.7 1250.3
1216(31) 0.001041 970.6 1244.4
1254(31) 0.001041 970.6 1237.9
1237(31) 0.001041 970.5 1231.0
1210(31) 0.001041 970.5 1223.7
1200(31) 0.001041 970.5 1216.1
1199(31) 0.001041 970.4 1208.2
1221(31) 0.001041 970.4 1200.3
1193(31) 0.001041 970.3 1192.2
1149(30) 0.001111 970.3 1184.1
1159(30) 0.001111 970.2 1176.1
1176(30) 0.001111 970.1 1168.1
1126(30) 0.001111 970.1 1160.3
1161(30) 0.001111 970.0 1152.7
1142(30) 0.001111 970.0 1145.3
1134(30) 0.001111 969.9 1138.2
1133(30) 0.001111 969.9 1131.4
1142(30) 0.001111 969.8 1125.0
1169(30) 0.001111 969.8 1118.9
1094(29) 0.001189 969.7 1113.3
1149(25) 0.001600 969.6 1108.1
1098(29) 0.001189 969.6 1103.4
1141(30) 0.001111 969.5 1099.2
1096(29) 0.001189 969.4 1095.5
1096(29) 0.001189 969.4 1092.3
1125(30) 0.001111 969.3 1089.7
1149(30) 0.001111 969.2 1087.7
1088(29) 0.001189 969.2 1086.2
1097(29) 0.001189 969.1 1085.2
1113(30) 0.001111 969.0 1084.8
1111(30) 0.001111 969.0 1085.0
1098(29) 0.001189 968.9 1085.6
1086(29) 0.001189 968.8 1086.8
1067(29) 0.001189 968.7 1088.4
1132(30) 0.001111 968.7 1090.5
1123(30) 0.001111 968.6 1093.0
1171(30) 0.001111 968.5 1095.9
1164(30) 0.001111 968.4 1099.1
1138(30) 0.001111 968.4 1102.5
1157(30) 0.001111 968.3 1106.2
1179(30) 0.001111 968.2 1110.1
1158(30) 0.001111 968.1 1114.2
1192(31) 0.001041 968.1 1118.3
1191(31) 0.001041 968.0 1122.3
1198(31) 0.001041 967.9 1126.4
1185(30) 0.001111 967.8 1130.3
1153(30) 0.001111 967.7 1134.1
1178(30) 0.001111 967.6 1137.7
1179(30) 0.001111 967.6 1141.0
1211(31) 0.001041 967.5 1144.1
1184(30) 0.001111 967.4 1146.9
1227(31) 0.001041 967.3 1149.4
1206(31) 0.001041 967.2 1151.7
1224(31) 0.001041 967.1 1153.6
1255(31) 0.001041 967.1 1155.2
1195(31) 0.001041 967.0 1156.5
1176(30) 0.001111 966.9 1157.5
1152(30) 0.001111 966.8 1158.2
1151(30) 0.001111 966.7 1158.6
1187(30) 0.001111 966.6 1158.7
1207(31) 0.001041 966.5 1158.5
1193(31) 0.001041 966.4 1158.0
1161(30) 0.001111 966.3 1157.2
1203(31) 0.001041 966.2 1156.2
1206(31) 0.001041 966.2 1154.9
1184(30) 0.001111 966.1 1153.4
1160(30) 0.001111 966.0 1151.7
1140(30) 0.001111 965.9 1149.8
1147(30) 0.001111 965.8 1147.7
1175(30) 0.001111 965.7 1145.5
1207(31) 0.001041 965.6 1143.2
1147(30) 0.001111 965.5 1140.9
1120(30) 0.001111 965.4 1138.5
1149(30) 0.001111 965.3 1136.2
1152(30) 0.001111 965.2 1134.0
1110(30) 0.001111 965.1 1131.9
1101(29) 0.001189 965.0 1130.1
1157(30) 0.001111 964.9 1128.4
1136(30) 0.001111 964.9 1126.9
1134(30) 0.001111 964.8 1125.7
1104(29) 0.001189 964.7 1124.8
1123(30) 0.001111 964.6 1124.2
1116(30) 0.001111 964.5 1123.8
1161(30) 0.001111 964.4 1123.6
1153(30) 0.001111 964.3 1123.7
1080(29) 0.001189 964.2 1124.0
1088(29) 0.001189 964.1 1124.5
1111(30) 0.001111 964.0 1125.2
1122(30) 0.001111 963.9 1125.9
1156(30) 0.001111 963.8 1126.7
1159(30) 0.001111 963.7 1127.6
1113(30) 0.001111 963.6 1128.4
1098(29) 0.001189 963.5 1129.3
1102(29) 0.001189 963.4 1130.0
1073(29) 0.001189 963.4 1130.7
1089(29) 0.001189 963.3 1131.2
1119(30) 0.001111 963.2 1131.5
1087(29) 0.001189 963.1 1131.6
1078(29) 0.001189 963.0 1131.6
1097(29) 0.001189 962.9 1131.3
1083(29) 0.001189 962.8 1130.8
1097(29) 0.001189 962.7 1130.0
1133(30) 0.001111 962.6 1129.1
1109(29) 0.001189 962.5 1127.9
1112(30) 0.001111 962.5 1126.6
1142(30) 0.001111 962.4 1125.2
1105(29) 0.001189 962.3 1123.7
1062(29) 0.001189 962.2 1122.2
1101(29) 0.001189 962.1 1120.8
1134(30) 0.001111 962.0 1119.4
1104(29) 0.001189 961.9 1118.3
1065(29) 0.001189 961.9 1117.3
1114(30) 0.001111 961.8 1116.6
1136(30) 0.001111 961.7 1116.1
1107(29) 0.001189 961.6 1116.0
1099(29) 0.001189 961.5 1116.3
1096(29) 0.001189 961.5 1116.9
1084(29) 0.001189 961.4 1118.0
1109(29) 0.001189 961.3 1119.5
1117(30) 0.001111 961.2 1121.5
1103(29) 0.001189 961.2 1123.9
1087(30) 0.001111 961.1 1126.8
1099(30) 0.001111 961.0 1130.1
1186(31) 0.001041 960.9 1134.0
1126(30) 0.001111 960.9 1138.3
1091(30) 0.001111 960.8 1143.0
1136(30) 0.001111 960.7 1148.2
1153(31) 0.001041 960.7 1153.8
1178(31) 0.001041 960.6 1159.9
1161(31) 0.001041 960.6 1166.4
1160(31) 0.001041 960.5 1173.2
1123(30) 0.001111 960.4 1180.4
1161(31) 0.001041 960.4 1187.8
1161(31) 0.001041 960.3 1195.6
1165(31) 0.001041 960.3 1203.5
1207(31) 0.001041 960.2 1211.7
1188(31) 0.001041 960.2 1219.9
1202(31) 0.001041 960.1 1228.2
1227(31) 0.001041 960.1 1236.5
1210(31) 0.001041 960.0 1244.7
1208(31) 0.001041 960.0 1252.7
1236(32) 0.000977 959.9 1260.5
1199(31) 0.001041 959.9 1268.0
1267(32) 0.000977 959.9 1275.1
1304(32) 0.000977 959.8 1281.8
1296(32) 0.000977 959.8 1288.0
1302(32) 0.000977 959.8 1293.7
1302(32) 0.000977 959.7 1298.7
1247(32) 0.000977 959.7 1303.1
1209(31) 0.001041 959.7 1306.9
1249(32) 0.000977 959.7 1310.1
1310(32) 0.000977 959.6 1312.6
1322(33) 0.000918 959.6 1314.5
1307(32) 0.000977 959.6 1315.7
1303(32) 0.000977 959.6 1316.4
1335(33) 0.000918 959.6 1316.5
1319(33) 0.000918 959.6 1316.0
1294(32) 0.000977 959.6 1315.0
1299(32) 0.000977 959.6 1313.5
1310(32) 0.000977 959.6 1311.5
1262(32) 0.000977 959.6 1309.1
1283(32) 0.000977 959.6 1306.2
1320(33) 0.000918 959.6 1303.0
1348(33) 0.000918 959.6 1299.4
1341(33) 0.000918 959.6 1295.4
1286(32) 0.000977 959.7 1291.2
1292(32) 0.000977 959.7 1286.7
1307(32) 0.000977 959.7 1282.0
1260(32) 0.000977 959.7 1277.0
1267(32) 0.000977 959.8 1271.9
1232(32) 0.000977 959.8 1266.6
1276(32) 0.000977 959.8 1261.3
1229(31) 0.001041 959.9 1255.8
1222(31) 0.001041 959.9 1250.3
1238(32) 0.000977 960.0 1244.8
1262(32) 0.000977 960.0 1239.3
1242(32) 0.000977 960.1 1233.9
1236(32) 0.000977 960.1 1228.6
1223(31) 0.001041 960.2 1223.4
1213(31) 0.001041 960.3 1218.3
1249(32) 0.000977 960.4 1213.4
1195(31) 0.001041 960.4 1208.8
1242(32) 0.000977 960.5 1204.3
1192(31) 0.001041 960.6 1200.0
1196(31) 0.001041 960.7 1196.0
1204(31) 0.001041 960.8 1192.3
1183(31) 0.001041 960.9 1188.8
1143(30) 0.001111 961.0 1185.6
1160(31) 0.001041 961.1 1182.6
1202(31) 0.001041 961.2 1179.9
1178(31) 0.001041 961.3 1177.4
1197(31) 0.001041 961.4 1175.2
1163(31) 0.001041 961.6 1173.3
1154(31) 0.001041 961.7 1171.6
1124(30) 0.001111 961.8 1170.2
1169(31) 0.001041 962.0 1169.1
1164(31) 0.001041 962.1 1168.3
1104(30) 0.001111 962.2 1167.7
1167(31) 0.001041 962.4 1167.5
1111(30) 0.001111 962.6 1167.6
1165(31) 0.001041 962.7 1168.0
1189(31) 0.001041 962.9 1168.8
1182(31) 0.001041 963.1 1170.0
1157(31) 0.001041 963.2 1171.5
1158(31) 0.001041 963.4 1173.5
1181(31) 0.001041 963.6 1175.8
1219(31) 0.001041 963.8 1178.6
1231(32) 0.000977 964.0 1181.8
1214(31) 0.001041 964.2 1185.4
1181(31) 0.001041 964.4 1189.4
1220(31) 0.001041 964.7 1193.9
1218(31) 0.001041 964.9 1198.7
1211(31) 0.001041 965.1 1203.9
1234(32) 0.000977 965.3 1209.5
1237(32) 0.000977 965.6 1215.4
1218(31) 0.001041 965.8 1221.6
1238(32) 0.000977 966.1 1228.0
1240(32) 0.000977 966.4 1234.7
1277(32) 0.000977 966.6 1241.6
1254(32) 0.000977 966.9 1248.6
1248(32) 0.000977 967.2 1255.7
1256(32) 0.000977 967.5 1262.9
1254(32) 0.000977 967.8 1270.1
1306(33) 0.000918 968.1 1277.2
1294(32) 0.000977 968.4 1284.2
1280(32) 0.000977 968.7 1291.0
1320(33) 0.000918 969.0 1297.6
1341(33) 0.000918 969.3 1303.9
1350(33) 0.000918 969.7 1309.8
1324(33) 0.000918 970.0 1315.4
1342(33) 0.000918 970.4 1320.5
1316(33) 0.000918 970.7 1325.1
1308(33) 0.000918 971.1 1329.3
1334(33) 0.000918 971.5 1332.9
1354(33) 0.000918 971.8 1335.9
1296(32) 0.000977 972.2 1338.5
1336(33) 0.000918 972.6 1340.5
1358(33) 0.000918 973.0 1342.0
1334(33) 0.000918 973.5 1343.0
1348(33) 0.000918 973.9 1343.5
1385(34) 0.000865 974.3 1343.7
1373(33) 0.000918 974.7 1343.5
1381(33) 0.000918 975.2 1342.9
1339(33) 0.000918 975.6 1342.0
1356(33) 0.000918 976.1 1340.9
1365(33) 0.000918 976.6 1339.5
1336(33) 0.000918 977.0 1337.9
1351(33) 0.000918 977.5 1336.0
1334(33) 0.000918 978.0 1334.0
1343(33) 0.000918 978.5 1331.9
1328(33) 0.000918 979.1 1329.5
1318(33) 0.000918 979.6 1327.0
1300(33) 0.000918 980.1 1324.4
1299(33) 0.000918 980.7 1321.6
1304(33) 0.000918 981.2 1318.7
1301(33) 0.000918 981.8 1315.6
1319(33) 0.000918 982.3 1312.3
1328(33) 0.000918 982.9 1308.9
1307(33) 0.000918 983.5 1305.4
1286(32) 0.000977 984.1 1301.6
1279(32) 0.000977 984.7 1297.8
1297(33) 0.000918 985.3 1293.8
1253(32) 0.000977 986.0 1289.6
1253(32) 0.000977 986.6 1285.4
1265(32) 0.000977 987.3 1281.1
1263(32) 0.000977 987.9 1276.7
1275(32) 0.000977 988.6 1272.2
1262(32) 0.000977 989.3 1267.7
1256(32) 0.000977 990.0 1263.2
1233(32) 0.000977 990.7 1258.7
1217(32) 0.000977 991.4 1254.3
1298(32) 0.000977 992.1 1249.9
1274(32) 0.000977 992.8 1245.5
1260(32) 0.000977 993.6 1241.2
1287(32) 0.000977 994.3 1237.0
1308(33) 0.000918 995.1 1232.9
1230(32) 0.000977 995.9 1228.9
1216(32) 0.000977 996.7 1225.0
1201(31) 0.001041 997.5 1221.2
1240(32) 0.000977 998.3 1217.5
1216(32) 0.000977 999.1 1213.9
1262(32) 0.000977 1000.0 1210.4
1216(32) 0.000977 1000.8 1207.0
1215(32) 0.000977 1001.7 1203.8
1235(32) 0.000977 1002.5 1200.6
1218(32) 0.000977 1003.4 1197.5
1232(32) 0.000977 1004.3 1194.5
1185(31) 0.001041 1005.2 1191.6
1168(31) 0.001041 1006.2 1188.8
1191(31) 0.001041 1007.1 1186.2
1184(31) 0.001041 1008.1 1183.6
1204(31) 0.001041 1009.0 1181.1
1169(31) 0.001041 1010.0 1178.7
1167(31) 0.001041 1011.0 1176.5
1171(31) 0.001041 1012.0 1174.3
1195(31) 0.001041 1013.0 1172.3
1165(31) 0.001041 1014.0 1170.4
1139(31) 0.001041 1015.1 1168.7
1143(31) 0.001041 1016.1 1167.1
1149(31) 0.001041 1017.2 1165.7
1171(31) 0.001041 1018.3 1164.4
1172(31) 0.001041 1019.4 1163.3
1125(30) 0.001111 1020.5 1162.3
1166(31) 0.001041 1021.6 1161.6
1174(31) 0.001041 1022.8 1161.0
1156(31) 0.001041 1023.9 1160.6
1159(31) 0.001041 1025.1 1160.4
1158(31) 0.001041 1026.3 1160.4
1153(31) 0.001041 1027.5 1160.7
1176(31) 0.001041 1028.7 1161.1
1167(31) 0.001041 1029.9 1161.8
1231(32) 0.000977 1031.1 1162.7
1225(32) 0.000977 1032.4 1163.9
1184(31) 0.001041 1033.7 1165.2
1196(31) 0.001041 1035.0 1166.9
1197(31) 0.001041 1036.3 1168.7
1183(31) 0.001041 1037.6 1170.9
1217(32) 0.000977 1038.9 1173.2
1225(32) 0.000977 1040.3 1175.9
1178(31) 0.001041 1041.6 1178.7
1199(26) 0.001479 1043.0 1181.9
1241(32) 0.000977 1044.4 1185.2
1253(32) 0.000977 1045.8 1188.8
1234(32) 0.000977 1047.2 1192.7
1205(32) 0.000977 1048.7 1196.8
1209(32) 0.000977 1050.2 1201.0
1223(32) 0.000977 1051.6 1205.6
1228(32) 0.000977 1053.1 1210.3
1246(32) 0.000977 1054.6 1215.2
1234(32) 0.000977 1056.2 1220.3
1244(32) 0.000977 1057.7 1225.6
1242(32) 0.000977 1059.3 1231.0
1247(32) 0.000977 1060.9 1236.6
1259(32) 0.000977 1062.5 1242.3
1264(32) 0.000977 1064.1 1248.2
1243(32) 0.000977 1065.7 1254.1
1212(32) 0.000977 1067.4 1260.1
1228(32) 0.000977 1069.0 1266.2
1255(32) 0.000977 1070.7 1272.3
1271(33) 0.000918 1072.4 1278.5
1290(33) 0.000918 1074.2 1284.7
1331(33) 0.000918 1075.9 1290.8
1308(33) 0.000918 1077.7 1297.0
1307(33) 0.000918 1079.5 1303.1
1322(33) 0.000918 1081.3 1309.1
1319(33) 0.000918 1083.1 1315.0
1306(33) 0.000918 1084.9 1320.9
1310(33) 0.000918 1086.8 1326.6
1284(33) 0.000918 1088.6 1332.2
1274(33) 0.000918 1090.5 1337.7
1307(33) 0.000918 1092.4 1343.1
1318(33) 0.000918 1094.4 1348.2
1330(33) 0.000918 1096.3 1353.3
1325(33) 0.000918 1098.3 1358.1
1347(33) 0.000918 1100.3 1362.8
1398(34) 0.000865 1102.3 1367.3
1364(34) 0.000865 1104.3 1371.6
1351(33) 0.000918 1106.4 1375.7
1396(34) 0.000865 1108.5 1379.6
1416(34) 0.000865 1110.6 1383.4
1398(34) 0.000865 1112.7 1386.9
1366(34) 0.000865 1114.8 1390.2
1425(34) 0.000865 1117.0 1393.4
1492(35) 0.000816 1119.2 1396.4
1432(34) 0.000865 1121.3 1399.2
1433(34) 0.000865 1123.6 1401.9
1436(34) 0.000865 1125.8 1404.4
1381(34) 0.000865 1128.1 1406.8
1376(34) 0.000865 1130.4 1409.0
1424(34) 0.000865 1132.7 1411.2
1449(35) 0.000816 1135.0 1413.2
1436(34) 0.000865 1137.3 1415.2
1439(34) 0.000865 1139.7 1417.1
1416(34) 0.000865 1142.1 1418.9
1408(34) 0.000865 1144.5 1420.6
1424(34) 0.000865 1147.0 1422.4
1436(34) 0.000865 1149.4 1424.0
1462(35) 0.000816 1151.9 1425.7
1460(35) 0.000816 1154.4 1427.3
1431(34) 0.000865 1156.9 1428.8
1434(34) 0.000865 1159.5 1430.4
1415(34) 0.000865 1162.1 1431.9
1414(34) 0.000865 1164.7 1433.4
1453(35) 0.000816 1167.3 1434.9
1416(34) 0.000865 1169.9 1436.3
1400(34) 0.000865 1172.6 1437.6
1386(34) 0.000865 1175.3 1438.9
1402(34) 0.000865 1178.0 1440.2
1421(34) 0.000865 1180.8 1441.4
1439(34) 0.000865 1183.5 1442.5
1426(34) 0.000865 1186.3 1443.6
1374(34) 0.000865 1189.1 1444.5
1383(34) 0.000865 1192.0 1445.4
1399(34) 0.000865 1194.8 1446.2
1400(34) 0.000865 1197.7 1446.9
1404(34) 0.000865 1200.6 1447.6
1434(34) 0.000865 1203.6 1448.1
1432(34) 0.000865 1206.5 1448.6
1438(34) 0.000865 1209.5 1448.9
1440(34) 0.000865 1212.5 1449.2
1429(34) 0.000865 1215.6 1449.5
1458(35) 0.000816 1218.6 1449.7
1467(35) 0.000816 1221.7 1449.8
1429(34) 0.000865 1224.8 1449.9
1468(35) 0.000816 1228.0 1450.0
1538(36) 0.000772 1231. 1450.
1490(35) 0.000816 1234.3 1450.1
1465(35) 0.000816 1237.5 1450.1
1497(35) 0.000816 1240.8 1450.2
1456(35) 0.000816 1244.1 1450.3
1416(34) 0.000865 1247.4 1450.4
1444(35) 0.000816 1250.7 1450.6
1431(34) 0.000865 1254.0 1450.8
1436(34) 0.000865 1257.4 1451.0
1456(35) 0.000816 1260.8 1451.4
1428(34) 0.000865 1264.3 1451.7
1439(34) 0.000865 1267.7 1452.2
1451(35) 0.000816 1271.2 1452.7
1465(35) 0.000816 1274.7 1453.3
1439(34) 0.000865 1278.3 1454.0
1433(35) 0.000816 1281.8 1454.7
1461(36) 0.000772 1285. 1456.
1463(36) 0.000772 1289. 1457.
1417(35) 0.000816 1292.7 1457.5
1472(36) 0.000772 1296. 1459.
1416(35) 0.000816 1300.1 1459.8
1392(35) 0.000816 1303.8 1461.1
1431(35) 0.000816 1307.6 1462.5
1466(36) 0.000772 1311. 1464.
1515(36) 0.000772 1315. 1466.
1461(36) 0.000772 1319. 1467.
1404(35) 0.000816 1323.0 1469.1
1399(35) 0.000816 1326.9 1471.0
1443(35) 0.000816 1330.8 1473.0
1458(36) 0.000772 1335. 1475.
1475(36) 0.000772 1339. 1477.
1447(35) 0.000816 1342.8 1479.8
1482(36) 0.000772 1347. 1482.
1502(36) 0.000772 1351. 1485.
1491(36) 0.000772 1355. 1488.
1459(36) 0.000772 1359. 1491.
1506(36) 0.000772 1363. 1494.
1508(36) 0.000772 1368. 1497.
1432(35) 0.000816 1371.9 1500.3
1443(35) 0.000816 1376.2 1503.8
1459(36) 0.000772 1380. 1507.
1491(36) 0.000772 1385. 1511.
1452(35) 0.000816 1389.2 1515.3
1502(36) 0.000772 1394. 1519.
1520(36) 0.000772 1398. 1524.
1556(37) 0.000730 1402. 1528.
1566(37) 0.000730 1407. 1533.
1540(36) 0.000772 1411. 1538.
1503(36) 0.000772 1416. 1543.
1585(37) 0.000730 1421. 1548.
1591(37) 0.000730 1425. 1553.
1567(37) 0.000730 1430. 1559.
1542(36) 0.000772 1434. 1564.
1536(36) 0.000772 1439. 1570.
1616(37) 0.000730 1444. 1576.
1624(37) 0.000730 1449. 1582.
1634(37) 0.000730 1454. 1589.
1652(38) 0.000693 1458. 1595.
1619(37) 0.000730 1463. 1602.
1628(37) 0.000730 1468. 1608.
1643(37) 0.000730 1473. 1615.
1576(37) 0.000730 1478. 1622.
1629(37) 0.000730 1483. 1630.
1660(38) 0.000693 1488. 1637.
1658(38) 0.000693 1493. 1645.
1680(38) 0.000693 1498. 1652.
1629(37) 0.000730 1503. 1660.
1633(37) 0.000730 1509. 1668.
1649(38) 0.000693 1514. 1676.
1713(38) 0.000693 1519. 1684.
1756(39) 0.000657 1524. 1692.
1700(38) 0.000693 1529. 1701.
1715(38) 0.000693 1535. 1709.
1726(38) 0.000693 1540. 1717.
1733(38) 0.000693 1546. 1726.
1706(38) 0.000693 1551. 1735.
1763(39) 0.000657 1556. 1743.
1732(38) 0.000693 1562. 1752.
1765(39) 0.000657 1568. 1761.
1750(39) 0.000657 1573. 1770.
1783(39) 0.000657 1579. 1779.
1736(38) 0.000693 1584. 1788.
1826(39) 0.000657 1590. 1797.
1827(39) 0.000657 1596. 1805.
1881(40) 0.000625 1601. 1814.
1874(40) 0.000625 1607. 1823.
1842(40) 0.000625 1613. 1832.
1859(40) 0.000625 1619. 1841.
1891(40) 0.000625 1625. 1850.
1905(40) . . .
1906(40) . . .
1886(40) . . .
1928(40) . . .
1918(40) . . .
1956(41) . . .
1906(40) . . .
1960(41) . . .
1987(41) . . .
1947(40) . . .
1930(40) . . .
2000(41) . . .
2004(41) . . .
1997(41) . . .
1995(41) . . .
2057(42) . . .
2061(42) . . .
1958(41) . . .
2036(41) . . .
2065(42) . . .
2061(42) . . .
2050(41) . . .
2061(42) . . .
2146(42) . . .
2113(42) . . .
2135(42) . . .
2153(61) . . .
2098(60) . . .
2083(60) . . .
2102(60) . . .
2042(59) . . .
2103(60) . . .
2146(61) . . .
2145(61) . . .
2107(60) . . .
2205(62) . . .
2114(60) . . .
2132(61) . . .
2162(61) . . .
2199(61) . . .
2185(61) . . .
2167(61) . . .
2134(61) . . .
2155(61) . . .
2128(61) . . .
2204(62) . . .
2200(61) . . .
2223(62) . . .
2200(61) . . .
2121(60) . . .
2147(61) . . .
2186(61) . . .
2246(62) . . .
2225(62) . . .
2155(61) . . .
2249(62) . . .
2264(62) . . .
2265(62) . . .
2331(63) . . .
2301(63) . . .
2238(62) . . .
2263(62) . . .
2351(63) . . .
2370(64) . . .
2291(63) . . .
2265(62) . . .
2296(63) . . .
2348(63) . . .
2291(63) . . .
2290(63) . . .
2393(64) . . .
2374(64) . . .
2436(64) . . .
2342(63) . . .
2442(64) . . .
2335(63) . . .
2443(64) . . .
2512(65) . . .
2454(65) . . .
2441(64) . . .
2436(64) . . .
2408(64) . . .
2471(65) . . .
2434(64) . . .
2367(64) . . .
2312(63) . . .
2416(64) . . .
2511(65) . . .
2497(65) . . .
2463(65) . . .
2377(64) . . .
2602(66) . . .
2587(66) . . .
2518(65) . . .
2615(66) . . .
2538(66) . . .
2457(65) . . .
2501(65) . . .
2546(66) . . .
2516(65) . . .
2493(65) . . .
2584(66) . . .
2469(65) . . .
2515(65) . . .
2539(66) . . .
2628(67) . . .
2557(66) . . .
2621(67) . . .
2612(66) . . .
2572(66) . . .
2578(66) . . .
2603(66) . . .
2573(66) . . .
2654(67) . . .
2696(67) . . .
2610(66) . . .
2585(66) . . .
2681(67) . . .
2627(67) . . .
2715(68) . . .
2643(67) . . .
2757(68) . . .
2789(68) . . .
2707(68) . . .
2691(67) . . .
2637(67) . . .
loop_
_gsas_i100_meas
100.00
13.04
26.48
0.39
0.38
1.09
2.30
3.01
1.06
0.00
6.25
2.66
0.46
0.00
5.41
1.45
2.92
0.79
1.92
4.92
0.11
0.02
0.00
0.00
0.65
0.34
0.88
1.51
3.08
2.90
2.22
0.93
0.91
5.15
0.43
0.23
0.00
3.00
1.73
0.23
0.35
0.00
0.19
0.32
0.40
0.23
0.31
1.35
0.64
0.23
0.02
1.50
0.53
0.00
0.83
0.22
0.83
1.36
0.00
1.69
0.25
0.60
1.22
0.08
0.02
0.08
0.00
0.03
0.08
0.60
0.14
0.32
0.65
0.21
0.33
1.12
0.48
0.29
0.08
0.82
0.01
0.33
0.00
0.38
0.52
0.03
0.01
0.17
0.35
0.11
0.18
0.00
0.00
0.46
0.56
1.70
1.53
0.20
0.25
0.17
0.04
0.08
0.73
0.19
0.51
0.51
0.05
0.05
0.73
0.12
0.02
0.00
0.02
0.62
0.18
0.09
1.10
0.05
0.18
0.55
0.18
1.98
0.08
0.19
0.35
0.10
0.19
0.38
0.02
0.00
0.51
0.07
0.00
1.18
0.15
0.02
0.01
0.16
0.00
0.12
0.16
0.00
0.06
0.01
0.30
0.50
0.00
0.01
0.09
0.31
0.19
0.44
0.34
0.28
0.26
0.06
0.57
0.25
0.16
0.00
0.07
0.01
0.19
0.16
0.04
0.45
0.40
0.28
0.01
0.09
0.18
0.00
0.01
0.01
0.00
0.03
0.23
0.09
0.26
0.19
2.57
0.09
0.10
0.02
0.32
0.50
0.04
0.03
0.33
0.18
0.06
0.11
0.00
0.24
0.13
0.05
0.14
0.17
0.26
0.05
0.19
0.09
0.15
0.44
0.14
0.00
0.02
0.21
0.00
0.00
0.04
0.23
1.28
0.02
0.64
0.20
0.01
0.00
0.00
0.00
0.08
0.22
0.76
1.11
0.47
0.09
0.08
0.01
0.23
0.09
0.00
0.38
0.12
0.78
0.16
0.32
0.01
0.07
0.22
0.07
0.10
0.01
0.04
0.34
0.44
0.24
0.00
0.15
0.00
0.03
0.76
0.38
0.04
0.35
0.03
0.80
0.06
0.02
0.93
0.01
0.02
0.26
0.12
0.19
0.06
1.21
0.00
0.04
1.06
0.06
0.01
0.03
0.16
0.08
0.01
0.21
0.39
0.00
0.01
0.20
0.15
0.24
0.02
0.01
0.56
0.30
0.82
0.00
0.17
0.30
0.55
0.00
0.26
0.04
0.12
0.00
0.27
0.24
0.00
0.09
0.14
0.01
0.15
0.66
0.50
0.04
0.40
0.30
0.00
0.01
0.09
0.52
0.03
0.04
0.02
0.03
0.00
0.03
0.14
0.00
0.08
0.54
0.15
0.21
0.03
0.00
0.08
0.57
0.20
0.56
0.07
0.36
0.17
0.02
0.02
0.42
0.22
1.51
0.17
0.29
0.45
0.30
0.00
0.16
0.28
0.06
0.08
0.11
0.00
0.39
0.17
0.02
0.19
0.15
0.00
0.01
1.16
0.06
0.00
0.73
0.43
0.00
0.16
0.08
0.00
0.24
0.24
0.00
0.56
0.14
1.13
0.40
0.23
0.09
0.01
0.00
0.48
0.65
0.07
0.06
0.21
0.04
0.38
0.01
0.02
0.34
0.01
0.14
0.35
0.14
0.09
0.00
0.06
0.79
0.07
0.07
0.71
1.30
0.15
0.39
0.00
0.31
0.34
0.03
0.01
0.01
0.09
0.00
0.03
0.09
0.42
0.08
0.07
0.30
0.06
0.38
0.00
0.17
0.50
0.59
0.00
0.17
0.69
0.06
0.00
0.00
0.11
0.02
0.09
0.17
0.00
0.12
0.30
0.35
0.12
0.17
0.00
0.03
0.21
0.00
0.10
0.12
0.04
0.42
0.02
0.03
0.13
0.00
0.09
0.26
0.53
1.45
0.08
0.23
0.64
0.78
0.01
0.01
0.64
0.42
0.14
0.03
0.29
0.18
0.01
0.01
0.32
0.00
0.51
0.08
1.15
0.11
0.65
0.07
0.15
0.03
0.12
0.10
0.01
0.21
0.30
0.03
0.77
0.18
0.64
0.18
0.14
0.13
0.01
0.38
0.27
0.11
0.23
0.10
0.18
0.18
0.17
0.95
0.12
0.02
0.00
0.09
0.45
0.78
0.01
0.34
0.13
0.05
0.02
0.27
0.09
0.00
0.03
0.45
0.01
0.02
0.00
0.55
0.02
0.03
0.12
0.80
0.04
0.81
0.03
0.84
0.33
0.04
0.14
0.07
1.01
0.01
1.56
0.09
0.14
0.00
0.16
0.00
0.30
0.54
0.35
0.25
0.02
1.82
0.22
0.48
0.21
0.28
0.17
0.01
0.00
0.04
0.51
0.06
0.20
0.11
0.17
0.04
0.66
0.44
0.49
0.37
0.07
0.00
0.35
0.07
0.33
0.21
0.62
0.12
0.15
0.05
0.74
0.44
0.07
1.07
0.09
0.02
0.01
0.06
0.22
0.00
0.20
1.47
0.13
0.01
0.14
0.03
0.00
0.13
0.04
0.20
0.00
0.57
0.97
0.57
0.24
0.02
0.23
0.48
0.00
0.00
0.78
0.37
0.69
0.01
0.10
0.00
0.11
0.46
0.00
0.06
0.44
0.07
0.00
3.37
0.01
0.00
1.20
0.45
0.07
0.00
0.54
2.67
0.00
0.00
0.44
0.33
0.40
1.70
0.27
0.08
0.22
0.08
0.87
0.23
1.60
0.26
0.39
0.07
0.01
0.46
0.00
