#------------------------------------------------------------------------------
#$Date: 2019-11-14 09:28:08 +0200 (Thu, 14 Nov 2019) $
#$Revision: 227760 $
#$URL: file:///home/coder/svn-repositories/cod/cif/1/55/28/1552898.cif $
#------------------------------------------------------------------------------
#
# This file is available in the Crystallography Open Database (COD),
# http://www.crystallography.net/
#
# All data on this site have been placed in the public domain by the
# contributors.
#
data_1552898
loop_
_publ_author_name
'Asgari, Mehrdad'
'Jawahery, Sudi'
'Bloch, Eric D.'
'Hudson, Matthew R.'
'Flacau, Roxana'
'Vlaisavljevich, Bess'
'Long, Jeffrey R.'
'Brown, Craig M.'
'Queen, Wendy L.'
_publ_section_title
;
 An experimental and computational study of CO<sub>2</sub> adsorption in
 the sodalite-type M-BTT (M = Cr, Mn, Fe, Cu) metal-organic frameworks
 featuring open metal sites.
;
_journal_issue                   20
_journal_name_full               'Chemical science'
_journal_page_first              4579
_journal_page_last               4588
_journal_paper_doi               10.1039/c8sc00971f
_journal_volume                  9
_journal_year                    2018
_chemical_formula_sum            'C26.59 H15.77 Cl Fe4.36 N32 O2.59'
_chemical_formula_weight         1103.75
_space_group_IT_number           221
_space_group_name_Hall           '-P 4 2 3'
_space_group_name_H-M_alt        'P m -3 m'
_symmetry_cell_setting           cubic
_symmetry_space_group_name_Hall  '-P 4 2 3'
_symmetry_space_group_name_H-M   'P m -3 m'
_audit_creation_date             2016-05-24T18:46
_audit_creation_method           'from EXP file using GSAS2CIF'
_audit_update_record
;
2017-10-25 deposited with the CCDC.
2018-04-23 downloaded from the CCDC.
;
_cell_angle_alpha                90.0
_cell_angle_beta                 90.0
_cell_angle_gamma                90.0
_cell_formula_units_Z            3
_cell_length_a                   18.8957(4)
_cell_length_b                   18.8957
_cell_length_c                   18.8957
_cell_measurement_reflns_used    660
_cell_measurement_temperature    10
_cell_measurement_theta_max      160
_cell_measurement_theta_min      10
_cell_volume                     6746.66(14)
_computing_structure_refinement  GSAS
_diffrn_ambient_temperature      10
_diffrn_measurement_device_type  BT1
_diffrn_radiation_probe          neutron
_diffrn_radiation_wavelength     2.0775
_exptl_absorpt_correction_T_max  1.00000
_exptl_absorpt_correction_T_min  1.00000
_exptl_absorpt_process_details
;   GSAS Absorption/surface roughness correction: function number 0
 No correction is applied.
;
_pd_block_id                     2016-05-24T18:46|FINAL|wendy|bt1
_pd_calc_method                  'Rietveld Refinement'
_pd_instr_location               ' ?'
_pd_meas_2theta_range_inc        0.05
_pd_meas_2theta_range_max        166.25
_pd_meas_2theta_range_min        1.5
_pd_meas_number_of_points        3296
_pd_phase_name
'from Z:/queen/Desktop/FeBTT/Bare_final/BARE.EXP'
_pd_proc_2theta_range_inc        0.05
_pd_proc_2theta_range_max        166.4219
_pd_proc_2theta_range_min        1.6719
_pd_proc_info_datetime           2016-05-24T18:46:58
_pd_proc_info_excluded_regions   ' ?'
_pd_proc_ls_background_function
;   GSAS Background function number 1 with 14 terms.
 Shifted Chebyshev function of 1st kind
      1:    1458.99     2:   -340.297     3:    313.063     4:   -13.2036    
      5:    154.310     6:   -20.5586     7:    84.6450     8:   -7.41900    
      9:    55.1880    10:   -7.60255    11:    16.3253    12:   -13.3603    
     13:    6.92335    14:   -1.86831    
;
_pd_proc_ls_peak_cutoff          0.00100
_pd_proc_ls_profile_function
;
 CW Profile function number 3 with  19 terms
 Pseudovoigt profile coefficients as parameterized in
 P. Thompson, D.E. Cox & J.B. Hastings (1987). J. Appl. Cryst.,20,79-83.
 Asymmetry correction of L.W. Finger, D.E. Cox & A. P. Jephcoat (1994).
 J. Appl. Cryst.,27,892-900.
 #1(GU)   =  532.564 #2(GV)   = -249.786 #3(GW)   =  126.763
 #4(GP)   =    0.000 #5(LX)   =    0.000 #6(LY)   =   17.120
 #7(S/L)  =   0.0427 #8(H/L)  =   0.0352
 #9(trns) =     0.00 #10(shft)=   0.0000
 #11(stec)=     0.00 #12(ptec)=     0.00 #13(sfec)=     0.00
 #14(L11) =    0.000 #15(L22) =    0.000 #16(L33) =    0.000
 #17(L12) =    0.000 #18(L13) =    0.000 #19(L23) =    0.000
 Peak tails are ignored  where the intensity is below 0.0010 times the peak
   Aniso. broadening axis   0.0   0.0   1.0
;
_pd_proc_ls_prof_R_factor        0.0236
_pd_proc_ls_prof_wR_expected     0.0253
_pd_proc_ls_prof_wR_factor       0.0272
_pd_proc_number_of_points        3296
_pd_spec_mounting                ' ?'
_refine_ls_goodness_of_fit_all   1.08
_refine_ls_matrix_type           full
_refine_ls_number_parameters     46
_refine_ls_number_restraints     7
_refine_ls_R_Fsqd_factor         0.05216
_refine_ls_shift/su_max          0.06
_refine_ls_shift/su_mean         0.02
_reflns_d_resolution_high        1.056
_reflns_d_resolution_low         18.896
_reflns_limit_h_max              18
_reflns_limit_h_min              1
_reflns_limit_k_max              12
_reflns_limit_k_min              0
_reflns_limit_l_max              10
_reflns_limit_l_min              0
_reflns_number_total             660
_cod_data_source_file            c8sc00971f3.cif
_cod_data_source_block           FINAL_publ
_cod_depositor_comments
;
The following automatic conversions were performed:

'_geom_bond_publ_flag' value 'N' changed to 'n' according to
/home/data/users/saulius/crontab/automatic-downloads/current/RSC/lib/dictionaries/cif_core.dic
dictionary named 'cif_core.dic' version 2.4.2 from 2011-04-26 (80
times).

'_geom_angle_publ_flag' value 'N' changed to 'n' according to
/home/data/users/saulius/crontab/automatic-downloads/current/RSC/lib/dictionaries/cif_core.dic
dictionary named 'cif_core.dic' version 2.4.2 from 2011-04-26 (40
times).

Automatic conversion script
Id: cif_fix_values 5376 2017-05-30 11:51:03Z andrius 
;
_cod_original_cell_volume        6746.6(5)
_cod_database_code               1552898
_gsas_exptl_extinct_corr_t_min   1.00000
_gsas_exptl_extinct_corr_t_max   1.00000
loop_
_symmetry_equiv_pos_site_id
_symmetry_equiv_pos_as_xyz
1 +x,+y,+z
2 +z,+x,+y
3 +y,+z,+x
4 +x,+y,-z
5 -z,+x,+y
6 +y,-z,+x
7 -z,+x,-y
8 -y,-z,+x
9 +y,-z,-x
10 -x,+y,-z
11 -z,-x,+y
12 +x,-y,-z
13 +y,+x,+z
14 +z,+y,+x
15 +x,+z,+y
16 +y,+x,-z
17 -z,+y,+x
18 +x,-z,+y
19 -z,+y,-x
20 -x,-z,+y
21 +x,-z,-y
22 -y,+x,-z
23 -z,-y,+x
24 +y,-x,-z
-1 -x,-y,-z
-2 -z,-x,-y
-3 -y,-z,-x
-4 -x,-y,+z
-5 +z,-x,-y
-6 -y,+z,-x
-7 +z,-x,+y
-8 +y,+z,-x
-9 -y,+z,+x
-10 +x,-y,+z
-11 +z,+x,-y
-12 -x,+y,+z
-13 -y,-x,-z
-14 -z,-y,-x
-15 -x,-z,-y
-16 -y,-x,+z
-17 +z,-y,-x
-18 -x,+z,-y
-19 +z,-y,+x
-20 +x,+z,-y
-21 -x,+z,+y
-22 +y,-x,+z
-23 +z,+y,-x
-24 -y,+x,+z
loop_
_atom_site_type_symbol
_atom_site_label
_atom_site_fract_x
_atom_site_fract_y
_atom_site_fract_z
_atom_site_occupancy
_atom_site_thermal_displace_type
_atom_site_U_iso_or_equiv
_atom_site_symmetry_multiplicity
Fe Fe1 0.1343(4) 0.5 0.0 1.0 Uiso 0.006(2) 12
C C1 0.15118(34) 0.3361(5) -0.15118(34) 1.0 Uiso 0.0186(12) 24
C C2 0.18069(31) 0.2710(4) -0.18069(31) 1.0 Uiso 0.0186(12) 24
C C3 0.24190(27) 0.24190(27) -0.1466(4) 1.0 Uiso 0.0186(12) 24
Cl Cl1 0.0 0.5 0.0 1.0 Uiso 0.007(3) 3
N N1 0.13030(22) 0.42082(22) -0.08157(22) 1.0 Uiso 0.0161(7) 48
N N2 0.17575(24) 0.36819(23) -0.09153(22) 1.0 Uiso 0.0161(7) 48
H H1 0.2629(5) 0.2629(5) -0.1069(6) 1.0 Uiso 0.028(5) 24
Fe Fe2 0.264(5) 0.0 0.0 0.179(20) Uiso 0.10(5) 6
O Os 0.2512(12) 0.5 0.0 0.647(19) Uiso 0.035(6) 12
C Cs 0.3034(12) 0.5 0.0550(10) 0.324(9) Uiso 0.035(6) 24
H Hsa 0.2797(19) 0.5 0.0995(9) 0.324(9) Uiso 0.11(2) 24
H Hsb 0.3301(15) 0.4578(8) 0.0530(16) 0.324(9) Uiso 0.11(2) 48
loop_
_atom_type_symbol
_atom_type_number_in_cell
_atom_type_scat_length_neutron
_atom_type_scat_source
Fe 13.076 0.9450 International_Tables_Vol_C
C 79.766 0.6646 International_Tables_Vol_C
Cl 3.0 0.9577 International_Tables_Vol_C
N 96.0 0.9360 International_Tables_Vol_C
H 47.297 -0.3739 International_Tables_Vol_C
O 7.766 0.5803 International_Tables_Vol_C
loop_
_geom_angle_atom_site_label_1
_geom_angle_atom_site_label_2
_geom_angle_atom_site_label_3
_geom_angle
_geom_angle_site_symmetry_1
_geom_angle_site_symmetry_3
_geom_angle_publ_flag
Cl1 Fe1 N1 87.97(26) 1_555 1_555 n
Cl1 Fe1 N1 87.97(26) 1_555 4_555 n
Cl1 Fe1 N1 87.97(26) 1_555 12_565 n
Cl1 Fe1 N1 87.97(26) 1_555 -10_565 n
N1 Fe1 N1 91.63(23) 1_555 4_555 n
N1 Fe1 N1 175.9(5) 1_555 12_565 n
N1 Fe1 N1 88.22(23) 1_555 -10_565 n
N1 Fe1 N1 88.22(23) 4_555 12_565 n
N1 Fe1 N1 175.9(5) 4_555 -10_565 n
N1 Fe1 N1 91.63(23) 12_565 -10_565 n
C2 C1 N2 124.1(4) 1_555 1_555 n
C2 C1 N2 124.1(4) 1_555 19_555 n
N2 C1 N2 111.5(8) 1_555 19_555 n
C1 C2 C3 117.4(4) 1_555 1_555 n
C1 C2 C3 117.4(4) 1_555 7_555 n
C3 C2 C3 125.3(7) 1_555 7_555 n
C2 C3 C2 114.7(7) 1_555 9_555 n
C2 C3 H1 122.6(4) 1_555 1_555 n
C2 C3 H1 122.6(4) 9_555 1_555 n
Fe1 Cl1 Fe1 180.0 1_555 10_555 n
Fe1 Cl1 Fe1 90.0 1_555 14_555 n
Fe1 Cl1 Fe1 90.0 1_555 19_555 n
Fe1 Cl1 Fe1 90.0 10_555 14_555 n
Fe1 Cl1 Fe1 90.0 10_555 19_555 n
Fe1 Cl1 Fe1 180.0 14_555 19_555 n
Fe1 N1 N1 122.15(23) 1_555 19_555 n
Fe1 N1 N2 126.9(4) 1_555 1_555 n
N1 N1 N2 110.93(28) 19_555 1_555 n
C1 N2 N1 103.3(5) 1_555 1_555 n
Cs Os Cs 93.0(22) 1_555 4_555 n
Os Cs Hsa 108.6(10) 1_555 1_555 n
Os Cs Hsb 109.9(10) 1_555 1_555 n
Os Cs Hsb 109.9(10) 1_555 -10_565 n
Hsa Cs Hsb 106.6(10) 1_555 1_555 n
Hsa Cs Hsb 106.6(10) 1_555 -10_565 n
Hsb Cs Hsb 115.1(27) 1_555 -10_565 n
Cs Hsa Hsb 36.5(6) 1_555 1_555 n
Cs Hsa Hsb 36.5(6) 1_555 -10_565 n
Hsb Hsa Hsb 63.2(15) 1_555 -10_565 n
Cs Hsb Hsa 36.9(6) 1_555 1_555 n
loop_
_geom_bond_atom_site_label_1
_geom_bond_atom_site_label_2
_geom_bond_distance
_geom_bond_site_symmetry_2
_geom_bond_publ_flag
Fe1 Fe1 3.590(12) 14_555 n
Fe1 Fe1 3.590(12) 19_555 n
Fe1 Cl1 2.539(8) 1_555 n
Fe1 N1 2.149(4) 1_555 n
Fe1 N1 2.149(4) 4_555 n
Fe1 N1 2.149(4) 12_565 n
Fe1 N1 3.049(5) 17_555 n
Fe1 N1 3.049(5) 19_555 n
Fe1 N1 3.049(5) 23_565 n
Fe1 N1 2.149(4) -10_565 n
Fe1 N1 3.049(5) -14_565 n
Fe1 N2 3.132(4) 1_555 n
Fe1 N2 3.132(4) 4_555 n
Fe1 N2 3.132(4) 12_565 n
Fe1 N2 3.132(4) -10_565 n
Fe1 Os 2.208(22) 1_555 n
Fe1 Cs 3.358(21) 1_555 n
Fe1 Cs 3.358(21) 4_555 n
Fe1 Hsa 3.329(29) 1_555 n
Fe1 Hsa 3.329(29) 4_555 n
C1 C2 1.461(12) 1_555 n
C1 N1 2.109(8) 1_555 n
C1 N1 2.109(8) 19_555 n
C1 N2 1.362(6) 1_555 n
C1 N2 1.362(6) 19_555 n
C2 C1 1.461(12) 1_555 n
C2 C3 1.433(5) 1_555 n
C2 C3 1.433(5) 7_555 n
C3 C2 1.433(5) 1_555 n
C3 C2 1.433(5) 9_555 n
C3 H1 0.937(10) 1_555 n
Cl1 Fe1 2.539(8) 1_555 n
Cl1 Fe1 2.539(8) 10_555 n
Cl1 Fe1 2.539(8) 14_555 n
Cl1 Fe1 2.539(8) 19_555 n
Cl1 N1 3.267(4) 1_555 n
Cl1 N1 3.267(4) 4_555 n
Cl1 N1 3.267(4) 10_555 n
Cl1 N1 3.267(4) 12_565 n
Cl1 N1 3.267(4) 14_555 n
Cl1 N1 3.267(4) 17_555 n
Cl1 N1 3.267(4) 19_555 n
Cl1 N1 3.267(4) 23_565 n
Cl1 N1 3.267(4) -1_565 n
Cl1 N1 3.267(4) -4_565 n
Cl1 N1 3.267(4) -10_565 n
Cl1 N1 3.267(4) -12_555 n
Cl1 N1 3.267(4) -14_565 n
Cl1 N1 3.267(4) -17_565 n
Cl1 N1 3.267(4) -19_565 n
Cl1 N1 3.267(4) -23_555 n
Cl1 Fe2 4.45(10) 2_555 n
Cl1 Fe2 4.45(10) 11_565 n
N1 Fe1 2.149(4) 1_555 n
N1 Fe1 3.049(5) 19_555 n
N1 C1 2.109(8) 1_555 n
N1 Cl1 3.267(4) 1_555 n
N1 N1 1.302(9) 19_555 n
N1 N2 1.327(6) 1_555 n
N2 Fe1 3.132(4) 1_555 n
N2 C1 1.362(6) 1_555 n
N2 N1 1.327(6) 1_555 n
H1 C3 0.937(10) 1_555 n
Fe2 Cl1 4.45(10) 3_555 n
Os Fe1 2.208(22) 1_555 n
Os Cs 1.431(10) 1_555 n
Os Cs 1.431(10) 4_555 n
Cs Fe1 3.358(21) 1_555 n
Cs Os 1.431(10) 1_555 n
Cs Cs 2.08(4) 4_555 n
Cs Hsa 0.952(11) 1_555 n
Cs Hsb 0.945(11) 1_555 n
Cs Hsb 0.945(11) -10_565 n
Hsa Fe1 3.329(29) 1_555 n
Hsa Cs 0.952(11) 1_555 n
Hsa Hsb 1.521(16) 1_555 n
Hsa Hsb 1.521(16) -10_565 n
Hsb Cs 0.945(11) 1_555 n
Hsb Hsa 1.521(16) 1_555 n
Hsb Hsb 1.594(30) -10_565 n
loop_
_pd_meas_intensity_total
_pd_proc_ls_weight
_pd_proc_intensity_bkg_calc
_pd_calc_intensity_total
5640(160) 0.0 3262. .
4980(150) 0.0 3241. .
4610(150) 0.0 3222. .
4100(140) 0.0 3202. .
4000(140) 0.0 3183. .
3890(140) 0.0 3164. .
3630(130) 0.0 3145. .
3280(120) 0.0 3126. .
3470(130) 0.0 3107. .
3750(130) 0.0 3089. .
3180(120) 0.0 3071. .
3270(120) 0.0 3053. .
3380(130) 0.0 3036. .
3240(120) 0.0 3018. .
3370(130) 0.0 3001. .
3500(130) 0.0 2984. .
3170(120) 0.0 2968. .
3210(120) 0.0 2951. .
3250(120) 0.0 2935. .
3210(120) 0.0 2918. .
3210(120) 0.0 2902. .
3150(120) 0.0 2887. .
3000(120) 0.0 2871. .
3090(120) 0.0 2856. .
3270(120) 0.0 2840. .
3040(120) 0.0 2825. .
3160(120) 0.0 2811. .
3370(130) 0.0 2796. .
3270(120) 0.0 2781. .
3140(120) 0.0 2767. .
3020(120) 0.0 2753. .
2960(120) 0.0 2739. .
2640(110) 0.0 2725. .
2880(120) 0.0 2712. .
2740(110) 0.0 2698. .
3150(120) 0.0 2685. .
2770(110) 0.0 2672. .
2930(120) 0.0 2659. .
2760(110) 0.0 2646. .
2590(110) 0.0 2634. .
2780(110) 0.0 2621. .
2560(110) 0.0 2609. .
2670(110) 0.0 2597. .
2810(120) 0.0 2585. .
2620(110) 0.0 2573. .
2730(110) 0.0 2561. .
2490(110) 0.0 2549. .
2590(110) 0.0 2538. .
2560(110) 0.0 2527. .
2920(120) 0.0 2516. .
2670(110) 0.0 2505. .
2590(110) 0.0000826 2494. 2494.
2790(120) 0.0000756 2483. 2497.
2820(120) 0.0000756 2472. 2497.
2610(110) 0.0000812 2462. 2504.
2690(110) 0.0000797 2452. 2521.
2720(110) 0.0000783 2442. 2546.
2810(120) 0.0000756 2431. 2580.
2530(110) 0.0000842 2422. 2620.
2720(110) 0.0000783 2412. 2664.
2820(120) 0.0000756 2402. 2712.
2820(120) 0.0000756 2393. 2764.
2970(120) 0.0000718 2383. 2820.
2990(120) 0.0000706 2374. 2879.
2800(120) 0.0000756 2365. 2942.
2690(110) 0.0000797 2356. 3009.
2900(120) 0.0000731 2347. 3082.
2840(120) 0.0000756 2338. 3159.
3180(120) 0.0000672 2329. 3242.
3090(120) 0.0000694 2320. 3332.
3360(130) 0.0000640 2312. 3429.
3460(130) 0.0000620 2304. 3533.
3460(130) 0.0000620 2295. 3647.
3690(130) 0.0000583 2287. 3770.
3660(130) 0.0000583 2279. 3905.
3930(140) 0.0000549 2271. 4053.
3980(140) 0.0000541 2263. 4216.
4370(140) 0.0000489 2255. 4396.
4670(150) 0.0000457 2248. 4598.
4730(150) 0.0000457 2240. 4824.
4740(150) 0.0000450 2233. 5080.
5130(150) 0.0000422 2225. 5374.
5640(160) 0.0000381 2218. 5715.
5900(170) 0.0000367 2211. 6119.
6440(170) 0.0000334 2204. 6610.
7650(190) 0.0000283 2197. 7228.
8310(200) 0.0000260 2190. 8044.
9450(210) 0.0000229 2183. 9156.
11090(230) 0.0000196 2177. 10653.
13410(250) 0.0000161 2170. 12485.
14910(260) 0.0000146 2163. 14279.
16170(270) 0.0000134 2157. 15320.
15940(270) 0.0000136 2151. 14875.
13660(250) 0.0000159 2144. 12769.
10860(220) 0.0000199 2138. 9661.
7740(190) 0.0000280 2132. 6611.
4820(150) 0.0000444 2126. 4365.
3320(130) 0.0000640 2120. 3071.
2490(110) 0.0000857 2114. 2474.
2160(100) 0.0000980 2108. 2246.
2134(68) 0.0002163 2103. 2169.
2058(67) 0.0002228 2097. 2140.
2075(67) 0.0002228 2092. 2126.
2010(66) 0.0002296 2086. 2115.
1997(66) 0.0002296 2081. 2105.
1918(65) 0.0002367 2075. 2097.
1938(65) 0.0002367 2070. 2089.
1931(65) 0.0002367 2065. 2082.
2009(66) 0.0002296 2060. 2075.
1972(66) 0.0002296 2055. 2068.
1904(64) 0.0002441 2050. 2055.
1981(66) 0.0002296 2045. 2050.
2061(67) 0.0002228 2040. 2046.
1948(65) 0.0002367 2035. 2042.
1998(66) 0.0002296 2030. 2037.
1955(65) 0.0002367 2026. 2034.
2049(67) 0.0002228 2021. 2030.
2132(68) 0.0002163 2017. 2029.
2056(67) 0.0002228 2012. 2030.
2033(67) 0.0002228 2008. 2038.
2086(67) 0.0002228 2003. 2055.
2178(69) 0.0002100 1999. 2086.
2181(69) 0.0002100 1995. 2131.
2236(70) 0.0002041 1991. 2189.
2221(70) 0.0002041 1986. 2259.
2220(70) 0.0002041 1982. 2339.
2456(73) 0.0001877 1978. 2428.
2576(75) 0.0001778 1974. 2525.
2585(75) 0.0001778 1971. 2633.
2639(76) 0.0001731 1967. 2751.
2808(78) 0.0001644 1963. 2883.
2878(79) 0.0001602 1959. 3030.
3148(83) 0.0001452 1955. 3196.
3279(85) 0.0001384 1952. 3385.
3618(89) 0.0001262 1948. 3604.
3672(90) 0.0001235 1945. 3860.
4250(96) 0.0001085 1941. 4167.
4501(99) 0.0001020 1938. 4548.
5000(110) 0.0000907 1934. 5042.
6160(120) 0.0000743 1931. 5709.
6950(120) 0.0000661 1928. 6622.
8380(140) 0.0000541 1924. 7798.
9620(150) 0.0000476 1921. 9081.
10670(150) 0.0000427 1918. 10062.
10580(150) 0.0000433 1915. 10206.
9620(150) 0.0000476 1912. 9219.
7470(130) 0.0000610 1909. 7364.
5610(110) 0.0000812 1906. 5325.
3849(92) 0.0001181 1903. 3700.
2735(77) 0.0001687 1900. 2702.
2231(70) 0.0002041 1897. 2214.
2005(66) 0.0002296 1894. 2020.
1898(64) 0.0002441 1891. 1953.
1846(63) 0.0002520 1888. 1929.
1961(65) 0.0002367 1886. 1917.
1858(64) 0.0002441 1883. 1909.
1941(65) 0.0002367 1880. 1919.
1868(64) 0.0002441 1878. 1915.
1832(63) 0.0002520 1875. 1911.
1905(64) 0.0002441 1872. 1909.
1980(66) 0.0002296 1870. 1907.
2052(67) 0.0002228 1867. 1907.
1997(66) 0.0002296 1865. 1911.
2067(67) 0.0002228 1862. 1923.
2172(69) 0.0002100 1860. 1950.
2373(72) 0.0001929 1858. 2005.
2383(72) 0.0001929 1855. 2097.
2450(73) 0.0001877 1853. 2229.
2730(77) 0.0001687 1851. 2415.
2877(79) 0.0001602 1849. 2643.
3025(81) 0.0001524 1846. 2911.
3344(86) 0.0001352 1844. 3216.
3609(89) 0.0001262 1842. 3562.
3829(92) 0.0001181 1840. 3955.
4053(94) 0.0001132 1838. 4406.
4730(100) 0.0000961 1836. 4933.
5150(110) 0.0000890 1834. 5559.
5750(110) 0.0000797 1832. 6328.
6970(120) 0.0000650 1830. 7310.
8360(140) 0.0000549 1828. 8627.
10090(150) 0.0000450 1826. 10432.
12800(170) 0.0000354 1824. 12815.
15480(180) 0.0000295 1822. 15559.
17860(200) 0.0000255 1820. 17921.
18460(200) 0.0000248 1818. 18777.
16750(190) 0.0000271 1816. 17307.
13240(170) 0.0000346 1815. 13793.
9200(140) 0.0000496 1813. 9577.
5950(110) 0.0000769 1811. 6029.
3723(90) 0.0001235 1809. 3752.
2667(76) 0.0001731 1808. 2601.
2107(68) 0.0002163 1806. 2128.
1910(64) 0.0002441 1804. 1962.
1883(64) 0.0002441 1803. 1905.
1775(62) 0.0002601 1801. 1880.
1808(63) 0.0002520 1799. 1865.
1797(85) 0.0001384 1798. 1854.
1936(88) 0.0001291 1796. 1844.
1852(86) 0.0001352 1795. 1837.
1750(84) 0.0001417 1793. 1830.
1893(63) 0.0002520 1792. 1824.
1857(63) 0.0002520 1790. 1820.
1877(63) 0.0002520 1789. 1815.
1859(63) 0.0002520 1787. 1811.
1704(60) 0.0002778 1786. 1808.
1774(61) 0.0002687 1784. 1805.
1828(62) 0.0002601 1783. 1803.
1817(62) 0.0002601 1782. 1784.
1679(59) 0.0002873 1780. 1784.
1736(60) 0.0002778 1779. 1783.
1834(62) 0.0002601 1777. 1783.
1779(61) 0.0002687 1776. 1783.
1922(64) 0.0002441 1775. 1784.
1916(64) 0.0002441 1773. 1785.
1838(62) 0.0002601 1772. 1787.
1762(61) 0.0002687 1771. 1791.
1731(60) 0.0002778 1770. 1795.
1898(63) 0.0002520 1768. 1798.
1821(62) 0.0002601 1767. 1798.
1786(61) 0.0002687 1766. 1794.
1831(62) 0.0002601 1765. 1786.
1868(63) 0.0002520 1764. 1777.
1803(62) 0.0002601 1762. 1770.
1815(62) 0.0002601 1761. 1765.
1779(61) 0.0002687 1760. 1761.
1731(60) 0.0002778 1759. 1759.
1669(59) 0.0002873 1758. 1758.
1754(61) 0.0002687 1757. 1757.
1874(63) 0.0002520 1756. 1756.
1812(62) 0.0002601 1754. 1755.
1775(61) 0.0002687 1753. 1753.
1711(60) 0.0002778 1752. 1752.
1680(59) 0.0002873 1751. 1751.
1817(62) 0.0002601 1750. 1750.
1713(60) 0.0002778 1749. 1749.
1688(60) 0.0002778 1748. 1748.
1700(60) 0.0002778 1747. 1747.
1765(61) 0.0002687 1746. 1747.
1792(61) 0.0002687 1745. 1746.
1793(61) 0.0002687 1744. 1745.
1701(60) 0.0002778 1743. 1744.
1725(60) 0.0002778 1742. 1744.
1734(60) 0.0002778 1741. 1744.
1713(60) 0.0002778 1740. 1743.
1798(62) 0.0002601 1739. 1743.
1697(60) 0.0002778 1738. 1744.
1676(59) 0.0002873 1737. 1744.
1708(60) 0.0002778 1736. 1745.
1730(60) 0.0002778 1735. 1744.
1755(61) 0.0002687 1734. 1742.
1628(58) 0.0002973 1734. 1740.
1696(60) 0.0002778 1733. 1737.
1745(61) 0.0002687 1732. 1734.
1706(60) 0.0002778 1731. 1732.
1798(62) 0.0002601 1730. 1731.
1802(62) 0.0002601 1729. 1729.
1781(61) 0.0002687 1728. 1729.
1730(60) 0.0002778 1727. 1728.
1678(59) 0.0002873 1726. 1727.
1667(59) 0.0002873 1726. 1726.
1604(58) 0.0002973 1725. 1725.
1609(58) 0.0002973 1724. 1725.
1714(60) 0.0002778 1723. 1725.
1715(60) 0.0002778 1722. 1725.
1737(60) 0.0002778 1721. 1726.
1692(60) 0.0002778 1721. 1727.
1711(60) 0.0002778 1720. 1729.
1784(61) 0.0002687 1719. 1732.
1715(60) 0.0002778 1718. 1736.
1767(61) 0.0002687 1717. 1741.
1720(60) 0.0002778 1717. 1748.
1709(60) 0.0002778 1716. 1758.
1744(61) 0.0002687 1715. 1772.
1727(60) 0.0002778 1714. 1788.
1863(63) 0.0002520 1713. 1802.
1789(61) 0.0002687 1713. 1808.
1830(62) 0.0002601 1712. 1800.
1766(61) 0.0002687 1711. 1780.
1728(60) 0.0002778 1710. 1755.
1702(60) 0.0002778 1710. 1734.
1658(59) 0.0002873 1709. 1720.
1681(59) 0.0002873 1708. 1713.
1717(60) 0.0002778 1707. 1709.
1706(60) 0.0002778 1707. 1708.
1754(61) 0.0002687 1706. 1707.
1710(60) 0.0002778 1705. 1706.
1683(59) 0.0002873 1704. 1705.
1682(59) 0.0002873 1704. 1704.
1724(60) 0.0002778 1703. 1703.
1794(61) 0.0002687 1702. 1703.
1662(59) 0.0002873 1702. 1703.
1728(60) 0.0002778 1701. 1703.
1658(59) 0.0002873 1700. 1702.
1642(59) 0.0002873 1699. 1702.
1629(58) 0.0002973 1699. 1701.
1715(60) 0.0002778 1698. 1700.
1617(85) 0.0001384 1697. 1700.
1706(59) 0.0002873 1697. 1699.
1722(59) 0.0002873 1696. 1699.
1697(59) 0.0002873 1695. 1698.
1666(58) 0.0002973 1695. 1698.
1599(57) 0.0003078 1694. 1698.
1718(59) 0.0002873 1693. 1697.
1720(59) 0.0002873 1692. 1697.
1784(61) 0.0002687 1692. 1697.
1705(59) 0.0002873 1691. 1697.
1737(60) 0.0002778 1690. 1697.
1688(59) 0.0002873 1690. 1697.
1767(60) 0.0002778 1689. 1698.
1759(60) 0.0002778 1688. 1699.
1667(58) 0.0002973 1688. 1703.
1813(61) 0.0002687 1687. 1711.
1725(60) 0.0002778 1686. 1730.
1825(61) 0.0002687 1686. 1759.
1858(62) 0.0002601 1685. 1804.
1924(63) 0.0002520 1684. 1870.
1941(63) 0.0002520 1684. 1960.
2079(65) 0.0002367 1683. 2080.
2286(69) 0.0002100 1682. 2241.
2454(71) 0.0001984 1682. 2464.
2715(75) 0.0001778 1681. 2765.
3241(82) 0.0001487 1680. 3137.
3737(88) 0.0001291 1680. 3505.
3688(88) 0.0001291 1679. 3728.
3816(89) 0.0001262 1678. 3667.
3277(82) 0.0001487 1678. 3302.
2753(76) 0.0001731 1677. 2787.
2303(69) 0.0002100 1677. 2316.
1995(64) 0.0002441 1676. 1995.
1744(60) 0.0002778 1675. 1824.
1743(60) 0.0002778 1675. 1752.
1786(61) 0.0002687 1674. 1728.
1748(60) 0.0002778 1673. 1724.
1838(62) 0.0002601 1673. 1733.
1941(63) 0.0002520 1672. 1757.
1901(63) 0.0002520 1671. 1806.
1965(64) 0.0002441 1671. 1891.
2082(66) 0.0002296 1670. 2024.
2330(69) 0.0002100 1669. 2216.
2518(72) 0.0001929 1669. 2479.
2875(77) 0.0001687 1668. 2842.
3384(84) 0.0001417 1668. 3345.
4001(91) 0.0001208 1667. 4026.
4830(100) 0.0001000 1666. 4853.
5680(110) 0.0000842 1666. 5649.
6060(110) 0.0000783 1665. 6098.
5800(110) 0.0000826 1664. 5905.
4860(100) 0.0000980 1664. 5066.
3906(90) 0.0001235 1663. 3940.
2804(76) 0.0001731 1663. 2942.
2166(67) 0.0002228 1662. 2278.
1841(62) 0.0002601 1661. 1929.
1709(59) 0.0002873 1661. 1784.
1631(58) 0.0002973 1660. 1729.
1690(59) 0.0002873 1659. 1708.
1576(57) 0.0003078 1659. 1698.
1658(58) 0.0002973 1658. 1691.
1659(58) 0.0002973 1658. 1686.
1669(59) 0.0002873 1657. 1683.
1634(58) 0.0002973 1656. 1680.
1599(57) 0.0003078 1656. 1677.
1661(58) 0.0002973 1655. 1676.
1643(58) 0.0002973 1654. 1675.
1719(59) 0.0002873 1654. 1674.
1606(57) 0.0003078 1653. 1673.
1591(57) 0.0003078 1653. 1673.
1623(58) 0.0002973 1652. 1673.
1722(59) 0.0002873 1651. 1672.
1685(59) 0.0002873 1651. 1671.
1628(58) 0.0002973 1650. 1671.
1698(59) 0.0002873 1649. 1671.
1671(59) 0.0002873 1649. 1672.
1627(58) 0.0002973 1648. 1674.
1685(59) 0.0002873 1648. 1678.
1742(60) 0.0002778 1647. 1686.
1783(61) 0.0002687 1646. 1703.
1825(61) 0.0002687 1646. 1738.
1968(64) 0.0002441 1645. 1802.
1988(64) 0.0002441 1645. 1910.
2206(67) 0.0002228 1644. 2071.
2337(70) 0.0002041 1643. 2310.
2655(74) 0.0001826 1643. 2653.
3198(82) 0.0001487 1642. 3132.
3781(89) 0.0001262 1641. 3757.
4458(96) 0.0001085 1641. 4451.
5100(100) 0.0000943 1640. 5008.
5060(100) 0.0000943 1640. 5157.
4584(98) 0.0001041 1639. 4745.
3806(89) 0.0001262 1638. 3924.
2902(77) 0.0001687 1638. 3046.
2343(70) 0.0002041 1637. 2373.
1921(63) 0.0002520 1637. 1976.
1779(60) 0.0002778 1636. 1789.
1711(59) 0.0002873 1635. 1715.
1690(59) 0.0002873 1635. 1690.
1681(59) 0.0002873 1634. 1683.
1697(56) 0.0003189 1633. 1687.
1677(56) 0.0003189 1633. 1700.
1773(58) 0.0002973 1632. 1725.
1682(56) 0.0003189 1632. 1765.
1794(58) 0.0002973 1631. 1826.
1879(59) 0.0002873 1630. 1912.
2036(62) 0.0002601 1630. 2026.
2160(64) 0.0002441 1629. 2149.
2222(64) 0.0002441 1629. 2245.
2324(66) 0.0002296 1628. 2263.
2289(65) 0.0002367 1627. 2181.
2072(62) 0.0002601 1627. 2029.
1871(59) 0.0002873 1626. 1873.
1761(57) 0.0003078 1626. 1756.
1709(56) 0.0003189 1625. 1687.
1665(56) 0.0003189 1624. 1655.
1542(54) 0.0003429 1624. 1642.
1564(54) 0.0003429 1623. 1637.
1606(55) 0.0003306 1623. 1634.
1729(57) 0.0003078 1622. 1633.
1626(55) 0.0003306 1621. 1633.
1607(55) 0.0003306 1621. 1635.
1598(55) 0.0003306 1620. 1637.
1634(55) 0.0003306 1620. 1639.
1679(56) 0.0003189 1619. 1646.
1736(57) 0.0003078 1618. 1653.
1744(57) 0.0003078 1618. 1660.
1681(56) 0.0003189 1617. 1662.
1654(56) 0.0003189 1617. 1657.
1690(56) 0.0003189 1616. 1646.
1689(56) 0.0003189 1615. 1635.
1659(56) 0.0003189 1615. 1626.
1638(55) 0.0003306 1614. 1620.
1633(55) 0.0003306 1614. 1618.
1610(55) 0.0003306 1613. 1616.
1607(55) 0.0003306 1612. 1616.
1608(55) 0.0003306 1612. 1617.
1588(54) 0.0003429 1611. 1619.
1653(55) 0.0003306 1611. 1623.
1637(55) 0.0003306 1610. 1629.
1571(54) 0.0003429 1610. 1640.
1681(56) 0.0003189 1609. 1654.
1679(56) 0.0003189 1608. 1672.
1697(56) 0.0003189 1608. 1691.
1682(56) 0.0003189 1607. 1705.
1741(57) 0.0003078 1607. 1704.
1674(56) 0.0003189 1606. 1687.
1710(56) 0.0003189 1605. 1662.
1646(55) 0.0003306 1605. 1639.
1633(55) 0.0003306 1604. 1624.
1560(54) 0.0003429 1604. 1615.
1592(54) 0.0003429 1603. 1611.
1565(54) 0.0003429 1603. 1609.
1619(55) 0.0003306 1602. 1609.
1587(54) 0.0003429 1601. 1608.
1607(55) 0.0003306 1601. 1608.
1640(55) 0.0003306 1600. 1608.
1566(54) 0.0003429 1600. 1608.
1583(54) 0.0003429 1599. 1608.
1601(55) 0.0003306 1598. 1608.
1572(54) 0.0003429 1598. 1611.
1593(54) 0.0003429 1597. 1612.
1495(53) 0.000356 1597. 1613.
1486(53) 0.000356 1596. 1614.
1676(56) 0.0003189 1596. 1616.
1669(56) 0.0003189 1595. 1619.
1720(57) 0.0003078 1594. 1623.
1669(56) 0.0003189 1594. 1631.
1708(56) 0.0003189 1593. 1645.
1655(56) 0.0003189 1593. 1675.
1699(56) 0.0003189 1592. 1736.
1857(59) 0.0002873 1592. 1845.
2082(62) 0.0002601 1591. 2028.
2276(65) 0.0002367 1591. 2318.
2665(71) 0.0001984 1590. 2744.
3198(77) 0.0001687 1589. 3305.
3917(86) 0.0001352 1589. 3921.
4345(90) 0.0001235 1588. 4405.
4264(90) 0.0001235 1588. 4522.
3876(85) 0.0001384 1587. 4158.
3415(80) 0.0001562 1587. 3466.
2816(73) 0.0001877 1586. 2745.
2272(65) 0.0002367 1586. 2204.
1991(61) 0.0002687 1585. 1891.
1783(58) 0.0002973 1584. 1750.
1707(56) 0.0003189 1584. 1710.
1741(57) 0.0003078 1583. 1725.
1840(59) 0.0002873 1583. 1787.
1870(59) 0.0002873 1582. 1906.
1956(60) 0.0002778 1582. 2102.
2307(66) 0.0002296 1581. 2394.
2845(73) 0.0001877 1581. 2779.
3198(77) 0.0001687 1580. 3194.
3553(82) 0.0001487 1579. 3507.
3563(82) 0.0001487 1579. 3562.
3221(78) 0.0001644 1578. 3292.
2806(73) 0.0001877 1578. 2818.
2242(65) 0.0002367 1577. 2339.
1926(60) 0.0002778 1577. 1989.
1805(58) 0.0002973 1576. 1791.
1763(57) 0.0003078 1576. 1707.
1716(56) 0.0003189 1575. 1692.
1691(55) 0.0003306 1575. 1725.
1806(57) 0.0003078 1574. 1807.
1904(59) 0.0002873 1574. 1953.
2058(61) 0.0002687 1573. 2185.
2466(67) 0.0002228 1573. 2513.
2888(73) 0.0001877 1572. 2908.
3230(77) 0.0001687 1571. 3275.
3372(79) 0.0001602 1571. 3463.
3266(78) 0.0001644 1570. 3354.
3040(75) 0.0001778 1570. 2972.
2552(68) 0.0002163 1569. 2499.
2115(62) 0.0002601 1569. 2100.
1889(59) 0.0002873 1568. 1846.
1717(56) 0.0003189 1568. 1721.
1696(55) 0.0003306 1567. 1682.
1712(56) 0.0003189 1567. 1699.
1794(57) 0.0003078 1566. 1765.
1923(59) 0.0002873 1566. 1892.
2098(62) 0.0002601 1565. 2099.
2368(66) 0.0002296 1565. 2398.
2699(70) 0.0002041 1564. 2764.
3164(76) 0.0001731 1564. 3114.
3322(78) 0.0001644 1563. 3309.
3220(77) 0.0001687 1563. 3231.
2942(73) 0.0001877 1562. 2893.
2405(66) 0.0002296 1562. 2451.
2080(62) 0.0002601 1561. 2068.
1773(57) 0.0003078 1561. 1815.
1638(54) 0.0003429 1560. 1681.
1634(54) 0.0003429 1560. 1622.
1604(54) 0.0003429 1559. 1598.
1565(53) 0.000356 1559. 1588.
1564(53) 0.000356 1558. 1583.
1617(54) 0.0003429 1558. 1581.
1678(55) 0.0003306 1557. 1579.
1632(54) 0.0003429 1557. 1579.
1634(54) 0.0003429 1556. 1578.
1603(54) 0.0003429 1556. 1577.
1605(54) 0.0003429 1555. 1574.
1569(53) 0.000356 1555. 1571.
1602(54) 0.0003429 1554. 1567.
1616(54) 0.0003429 1554. 1562.
1563(53) 0.000356 1553. 1560.
1553(53) 0.000356 1553. 1559.
1598(54) 0.0003429 1552. 1558.
1590(54) 0.0003429 1552. 1558.
1516(52) 0.000370 1551. 1559.
1580(53) 0.000356 1551. 1561.
1629(54) 0.0003429 1550. 1565.
1666(55) 0.0003306 1550. 1569.
1572(53) 0.000356 1549. 1574.
1585(53) 0.000356 1549. 1576.
1589(54) 0.0003429 1548. 1575.
1587(53) 0.000356 1548. 1570.
1563(53) 0.000356 1548. 1564.
1530(52) 0.000370 1547. 1558.
1553(53) 0.000356 1547. 1552.
1644(54) 0.0003429 1546. 1551.
1598(54) 0.0003429 1546. 1552.
1550(53) 0.000356 1545. 1555.
1610(54) 0.0003429 1545. 1561.
1627(54) 0.0003429 1544. 1573.
1569(53) 0.000356 1544. 1591.
1593(54) 0.0003429 1543. 1614.
1715(56) 0.0003189 1543. 1637.
1726(56) 0.0003189 1542. 1652.
1706(56) 0.0003189 1542. 1650.
1730(56) 0.0003189 1542. 1630.
1728(56) 0.0003189 1541. 1602.
1572(53) 0.000356 1541. 1576.
1627(54) 0.0003429 1540. 1559.
1603(54) 0.0003429 1540. 1549.
1576(53) 0.000356 1539. 1544.
1509(52) 0.000370 1539. 1542.
1521(52) 0.000370 1538. 1541.
1575(53) 0.000356 1538. 1540.
1581(53) 0.000356 1538. 1539.
1521(52) 0.000370 1537. 1539.
1513(52) 0.000370 1537. 1538.
1526(52) 0.000370 1536. 1538.
1529(52) 0.000370 1536. 1538.
1579(53) 0.000356 1535. 1537.
1549(53) 0.000356 1535. 1537.
1567(53) 0.000356 1534. 1537.
1608(54) 0.0003429 1534. 1536.
1526(52) 0.000370 1534. 1536.
1535(53) 0.000356 1533. 1537.
1638(54) 0.0003429 1533. 1539.
1555(53) 0.000356 1532. 1542.
1503(52) 0.000370 1532. 1546.
1517(52) 0.000370 1532. 1553.
1485(52) 0.000370 1531. 1560.
1516(52) 0.000370 1531. 1567.
1620(54) 0.0003429 1530. 1568.
1609(54) 0.0003429 1530. 1563.
1544(53) 0.000356 1529. 1555.
1596(54) 0.0003429 1529. 1548.
1569(53) 0.000356 1529. 1543.
1538(51) 0.000384 1528. 1542.
1548(51) 0.000384 1528. 1545.
1583(52) 0.000370 1527. 1553.
1540(51) 0.000384 1527. 1570.
1596(52) 0.000370 1527. 1598.
1632(52) 0.000370 1526. 1638.
1613(52) 0.000370 1526. 1683.
1713(54) 0.0003429 1525. 1720.
1706(54) 0.0003429 1525. 1734.
1655(53) 0.000356 1524. 1715.
1652(53) 0.000356 1524. 1671.
1683(53) 0.000356 1524. 1623.
1603(52) 0.000370 1523. 1587.
1606(52) 0.000370 1523. 1569.
1565(51) 0.000384 1522. 1570.
1608(52) 0.000370 1522. 1590.
1613(52) 0.000370 1522. 1635.
1752(54) 0.0003429 1521. 1710.
1781(55) 0.0003306 1521. 1817.
1874(56) 0.0003189 1521. 1939.
2058(59) 0.0002873 1520. 2041.
2103(60) 0.0002778 1520. 2077.
1983(58) 0.0002973 1519. 2024.
1875(56) 0.0003189 1519. 1906.
1761(55) 0.0003306 1519. 1778.
1674(53) 0.000356 1518. 1683.
1590(52) 0.000370 1518. 1639.
1676(53) 0.000356 1517. 1649.
1692(53) 0.000356 1517. 1719.
1851(56) 0.0003189 1517. 1867.
2130(60) 0.0002778 1516. 2108.
2383(64) 0.0002441 1516. 2435.
2702(68) 0.0002163 1516. 2788.
3004(72) 0.0001929 1515. 3050.
3142(74) 0.0001826 1515. 3093.
2935(71) 0.0001984 1514. 2874.
2491(65) 0.0002367 1514. 2498.
2112(60) 0.0002778 1514. 2122.
1776(55) 0.0003306 1513. 1843.
1553(51) 0.000384 1513. 1678.
1557(51) 0.000384 1513. 1597.
1545(51) 0.000384 1512. 1563.
1555(51) 0.000384 1512. 1548.
1559(51) 0.000384 1511. 1541.
1501(50) 0.000400 1511. 1536.
1539(51) 0.000384 1511. 1533.
1576(52) 0.000370 1510. 1531.
1590(52) 0.000370 1510. 1530.
1488(50) 0.000400 1510. 1529.
1508(50) 0.000400 1509. 1530.
1525(51) 0.000384 1509. 1532.
1539(51) 0.000384 1509. 1539.
1538(51) 0.000384 1508. 1554.
1527(51) 0.000384 1508. 1585.
1638(53) 0.000356 1507. 1642.
1781(55) 0.0003306 1507. 1736.
1902(57) 0.0003078 1507. 1857.
1932(57) 0.0003078 1506. 1984.
2064(59) 0.0002873 1506. 2074.
2050(59) 0.0002873 1506. 2080.
1941(57) 0.0003078 1505. 1994.
1894(57) 0.0003078 1505. 1857.
1772(55) 0.0003306 1505. 1725.
1676(53) 0.000356 1504. 1632.
1550(51) 0.000384 1504. 1582.
1583(52) 0.000370 1504. 1568.
1475(50) 0.000400 1503. 1581.
1525(51) 0.000384 1503. 1618.
1603(52) 0.000370 1503. 1672.
1675(53) 0.000356 1502. 1732.
1701(54) 0.0003429 1502. 1778.
1706(54) 0.0003429 1502. 1788.
1612(52) 0.000370 1501. 1753.
1619(52) 0.000370 1501. 1688.
1605(52) 0.000370 1501. 1623.
1543(51) 0.000384 1500. 1573.
1546(51) 0.000384 1500. 1544.
1536(51) 0.000384 1500. 1529.
1554(51) 0.000384 1499. 1524.
1612(52) 0.000370 1499. 1523.
1567(51) 0.000384 1499. 1523.
1529(51) 0.000384 1498. 1524.
1507(50) 0.000400 1498. 1527.
1485(50) 0.000400 1498. 1530.
1512(50) 0.000400 1497. 1535.
1546(51) 0.000384 1497. 1544.
1600(52) 0.000370 1497. 1559.
1625(52) 0.000370 1496. 1590.
1691(53) 0.000356 1496. 1656.
1847(56) 0.0003189 1496. 1790.
2084(60) 0.0002778 1495. 2032.
2409(64) 0.0002441 1495. 2413.
2993(72) 0.0001929 1495. 2914.
3477(77) 0.0001687 1494. 3430.
3845(81) 0.0001524 1494. 3779.
3883(82) 0.0001487 1494. 3785.
3473(77) 0.0001687 1493. 3422.
2909(71) 0.0001984 1493. 2868.
2285(62) 0.0002601 1493. 2341.
2001(58) 0.0002973 1492. 1963.
1779(43) 0.000541 1492. 1749.
1647(49) 0.000416 1492. 1660.
1645(49) 0.000416 1491. 1648.
1703(50) 0.000400 1491. 1682.
1777(51) 0.000384 1491. 1737.
1746(51) 0.000384 1490. 1791.
1794(51) 0.000384 1490. 1818.
1763(51) 0.000384 1490. 1800.
1677(50) 0.000400 1489. 1742.
1663(49) 0.000416 1489. 1675.
1598(48) 0.000434 1489. 1622.
1589(48) 0.000434 1488. 1602.
1636(49) 0.000416 1488. 1624.
1635(49) 0.000416 1488. 1697.
1794(51) 0.000384 1488. 1828.
1988(54) 0.0003429 1487. 2009.
2194(57) 0.0003078 1487. 2205.
2290(58) 0.0002973 1487. 2348.
2231(57) 0.0003078 1486. 2371.
2122(56) 0.0003189 1486. 2252.
1957(54) 0.0003429 1486. 2050.
1788(51) 0.000384 1485. 1851.
1696(50) 0.000400 1485. 1706.
1722(50) 0.000400 1485. 1633.
1671(50) 0.000400 1484. 1624.
1771(51) 0.000384 1484. 1667.
1796(51) 0.000384 1484. 1752.
1914(53) 0.000356 1484. 1857.
1983(54) 0.0003429 1483. 1949.
2047(55) 0.0003306 1483. 1986.
1948(54) 0.0003429 1483. 1943.
1786(51) 0.000384 1482. 1840.
1716(50) 0.000400 1482. 1722.
1596(48) 0.000434 1482. 1626.
1587(48) 0.000434 1481. 1563.
1603(48) 0.000434 1481. 1533.
1560(48) 0.000434 1481. 1526.
1554(48) 0.000434 1481. 1532.
1556(48) 0.000434 1480. 1545.
1630(49) 0.000416 1480. 1558.
1631(49) 0.000416 1480. 1565.
1635(49) 0.000416 1479. 1560.
1579(48) 0.000434 1479. 1544.
1645(49) 0.000416 1479. 1525.
1539(48) 0.000434 1478. 1509.
1496(47) 0.000453 1478. 1497.
1475(47) 0.000453 1478. 1490.
1458(46) 0.000473 1478. 1487.
1581(48) 0.000434 1477. 1486.
1513(47) 0.000453 1477. 1485.
1514(47) 0.000453 1477. 1485.
1535(47) 0.000453 1476. 1485.
1540(48) 0.000434 1476. 1485.
1486(47) 0.000453 1476. 1485.
1476(47) 0.000453 1475. 1487.
1470(46) 0.000473 1475. 1491.
1488(47) 0.000453 1475. 1501.
1518(47) 0.000453 1475. 1519.
1594(48) 0.000434 1474. 1553.
1618(49) 0.000416 1474. 1603.
1629(49) 0.000416 1474. 1664.
1706(50) 0.000400 1473. 1720.
1726(50) 0.000400 1473. 1749.
1685(50) 0.000400 1473. 1734.
1651(49) 0.000416 1473. 1682.
1609(49) 0.000416 1472. 1616.
1640(49) 0.000416 1472. 1559.
1587(48) 0.000434 1472. 1520.
1514(47) 0.000453 1471. 1498.
1484(47) 0.000453 1471. 1486.
1498(47) 0.000453 1471. 1482.
1399(45) 0.000494 1470. 1479.
1411(45) 0.000494 1470. 1478.
1409(45) 0.000494 1470. 1477.
1459(46) 0.000473 1470. 1477.
1494(47) 0.000453 1469. 1477.
1504(47) 0.000453 1469. 1477.
1529(47) 0.000453 1469. 1477.
1466(46) 0.000473 1468. 1479.
1440(46) 0.000473 1468. 1482.
1493(47) 0.000453 1468. 1488.
1492(47) 0.000453 1468. 1495.
1499(47) 0.000453 1467. 1502.
1551(48) 0.000434 1467. 1509.
1545(48) 0.000434 1467. 1511.
1465(46) 0.000473 1466. 1510.
1511(47) 0.000453 1466. 1508.
1502(47) 0.000453 1466. 1512.
1460(46) 0.000473 1466. 1530.
1543(48) 0.000434 1465. 1574.
1625(49) 0.000416 1465. 1653.
1754(51) 0.000384 1465. 1775.
1964(54) 0.0003429 1464. 1926.
2110(56) 0.0003189 1464. 2068.
2095(56) 0.0003189 1464. 2147.
2057(55) 0.0003306 1464. 2121.
1924(53) 0.000356 1463. 2000.
1797(51) 0.000384 1463. 1842.
1672(50) 0.000400 1463. 1703.
1668(49) 0.000416 1462. 1613.
1624(46) 0.000473 1462. 1573.
1598(46) 0.000473 1462. 1576.
1689(47) 0.000453 1461. 1607.
1704(47) 0.000453 1461. 1649.
1768(48) 0.000434 1461. 1682.
1708(47) 0.000453 1461. 1687.
1727(47) 0.000453 1460. 1660.
1726(47) 0.000453 1460. 1612.
1551(45) 0.000494 1460. 1563.
1541(45) 0.000494 1459. 1527.
1564(45) 0.000494 1459. 1507.
1517(44) 0.000517 1459. 1504.
1542(45) 0.000494 1459. 1512.
1571(45) 0.000494 1458. 1526.
1583(45) 0.000494 1458. 1540.
1518(44) 0.000517 1458. 1546.
1564(45) 0.000494 1457. 1539.
1611(46) 0.000473 1457. 1524.
1505(44) 0.000517 1457. 1505.
1517(44) 0.000517 1457. 1491.
1454(43) 0.000541 1456. 1482.
1525(45) 0.000494 1456. 1480.
1442(43) 0.000541 1456. 1483.
1423(43) 0.000541 1455. 1489.
1458(44) 0.000517 1455. 1495.
1490(44) 0.000517 1455. 1500.
1531(45) 0.000494 1455. 1501.
1448(43) 0.000541 1454. 1499.
1431(43) 0.000541 1454. 1498.
1528(45) 0.000494 1454. 1508.
1534(45) 0.000494 1453. 1534.
1555(45) 0.000494 1453. 1589.
1671(47) 0.000453 1453. 1676.
1764(48) 0.000434 1452. 1789.
1865(49) 0.000416 1452. 1903.
2000(51) 0.000384 1452. 1977.
1885(50) 0.000400 1452. 1975.
1796(48) 0.000434 1451. 1894.
1741(48) 0.000434 1451. 1774.
1562(45) 0.000494 1451. 1659.
1547(45) 0.000494 1450. 1572.
1540(45) 0.000494 1450. 1519.
1469(44) 0.000517 1450. 1491.
1530(45) 0.000494 1450. 1480.
1503(44) 0.000517 1449. 1475.
1471(44) 0.000517 1449. 1474.
1447(43) 0.000541 1449. 1472.
1432(43) 0.000541 1448. 1469.
1422(43) 0.000541 1448. 1466.
1484(44) 0.000517 1448. 1464.
1433(43) 0.000541 1448. 1462.
1486(44) 0.000517 1447. 1460.
1506(44) 0.000517 1447. 1460.
1443(43) 0.000541 1447. 1460.
1464(44) 0.000517 1446. 1460.
1454(43) 0.000541 1446. 1461.
1441(43) 0.000541 1446. 1463.
1461(44) 0.000517 1445. 1466.
1455(43) 0.000541 1445. 1474.
1452(43) 0.000541 1445. 1489.
1529(45) 0.000494 1445. 1518.
1568(45) 0.000494 1444. 1569.
1664(47) 0.000453 1444. 1646.
1726(47) 0.000453 1444. 1742.
1816(49) 0.000416 1443. 1836.
1878(50) 0.000400 1443. 1895.
1833(49) 0.000416 1443. 1889.
1808(49) 0.000416 1443. 1822.
1676(47) 0.000453 1442. 1727.
1630(46) 0.000473 1442. 1640.
1564(45) 0.000494 1442. 1584.
1538(45) 0.000494 1441. 1564.
1515(44) 0.000517 1441. 1576.
1597(46) 0.000473 1441. 1608.
1645(46) 0.000473 1440. 1643.
1658(46) 0.000473 1440. 1664.
1640(46) 0.000473 1440. 1661.
1564(45) 0.000494 1440. 1641.
1575(45) 0.000494 1439. 1626.
1576(45) 0.000494 1439. 1643.
1765(48) 0.000434 1439. 1718.
1879(50) 0.000400 1438. 1869.
2105(52) 0.000370 1438. 2092.
2341(55) 0.0003306 1438. 2347.
2566(58) 0.0002973 1437. 2558.
2641(59) 0.0002873 1437. 2635.
2465(57) 0.0003078 1437. 2534.
2309(55) 0.0003306 1437. 2308.
2036(52) 0.000370 1436. 2058.
1844(49) 0.000416 1436. 1863.
1714(47) 0.000453 1436. 1761.
1666(47) 0.000453 1435. 1749.
1800(48) 0.000434 1435. 1804.
1872(49) 0.000416 1435. 1882.
1972(51) 0.000384 1434. 1940.
1996(51) 0.000384 1434. 1938.
1871(49) 0.000416 1434. 1874.
1742(48) 0.000434 1434. 1782.
1655(46) 0.000473 1433. 1704.
1693(47) 0.000453 1433. 1671.
1728(45) 0.000494 1433. 1698.
1765(45) 0.000494 1432. 1779.
1972(48) 0.000434 1432. 1893.
2133(50) 0.000400 1432. 1997.
2182(50) 0.000400 1431. 2044.
2071(49) 0.000416 1431. 2005.
1981(48) 0.000434 1431. 1899.
1899(47) 0.000453 1430. 1774.
1726(45) 0.000494 1430. 1671.
1614(43) 0.000541 1430. 1612.
1639(44) 0.000517 1430. 1599.
1587(43) 0.000541 1429. 1620.
1597(43) 0.000541 1429. 1657.
1612(43) 0.000541 1429. 1684.
1601(43) 0.000541 1428. 1684.
1612(43) 0.000541 1428. 1653.
1577(43) 0.000541 1428. 1607.
1588(43) 0.000541 1427. 1566.
1524(42) 0.000567 1427. 1544.
1488(42) 0.000567 1427. 1549.
1546(42) 0.000567 1427. 1578.
1610(43) 0.000541 1426. 1619.
1679(44) 0.000517 1426. 1656.
1713(45) 0.000494 1426. 1670.
1653(44) 0.000517 1425. 1650.
1628(44) 0.000517 1425. 1606.
1580(43) 0.000541 1425. 1554.
1550(42) 0.000567 1424. 1509.
1524(42) 0.000567 1424. 1477.
1502(42) 0.000567 1424. 1457.
1549(42) 0.000567 1423. 1447.
1503(42) 0.000567 1423. 1441.
1429(41) 0.000595 1423. 1439.
1436(41) 0.000595 1422. 1438.
1407(40) 0.000625 1422. 1439.
1404(40) 0.000625 1422. 1441.
1453(41) 0.000595 1422. 1446.
1464(41) 0.000595 1421. 1454.
1411(40) 0.000625 1421. 1468.
1445(41) 0.000595 1421. 1485.
1497(42) 0.000567 1420. 1503.
1517(42) 0.000567 1420. 1516.
1457(41) 0.000595 1420. 1521.
1492(42) 0.000567 1419. 1518.
1435(41) 0.000595 1419. 1514.
1494(42) 0.000567 1419. 1524.
1536(42) 0.000567 1418. 1559.
1651(44) 0.000517 1418. 1624.
1725(45) 0.000494 1418. 1719.
1757(45) 0.000494 1417. 1823.
1886(47) 0.000453 1417. 1903.
1996(48) 0.000434 1417. 1926.
1904(47) 0.000453 1417. 1877.
1756(45) 0.000494 1416. 1779.
1610(43) 0.000541 1416. 1671.
1473(41) 0.000595 1416. 1580.
1458(41) 0.000595 1415. 1518.
1456(41) 0.000595 1415. 1483.
1466(41) 0.000595 1415. 1467.
1430(41) 0.000595 1414. 1461.
1439(41) 0.000595 1414. 1460.
1460(41) 0.000595 1414. 1463.
1457(41) 0.000595 1413. 1472.
1492(42) 0.000567 1413. 1494.
1543(42) 0.000567 1413. 1538.
1624(43) 0.000541 1412. 1611.
1782(46) 0.000473 1412. 1713.
1885(47) 0.000453 1412. 1828.
1989(48) 0.000434 1412. 1926.
1993(48) 0.000434 1411. 1969.
1957(48) 0.000434 1411. 1933.
1847(46) 0.000473 1411. 1836.
1792(46) 0.000473 1410. 1718.
1626(44) 0.000517 1410. 1612.
1538(42) 0.000567 1410. 1534.
1511(42) 0.000567 1409. 1486.
1495(42) 0.000567 1409. 1460.
1473(41) 0.000595 1409. 1448.
1454(41) 0.000595 1408. 1446.
1437(41) 0.000595 1408. 1449.
1487(42) 0.000567 1408. 1462.
1486(42) 0.000567 1407. 1489.
1524(42) 0.000567 1407. 1538.
1576(43) 0.000541 1407. 1618.
1693(44) 0.000517 1406. 1726.
1827(46) 0.000473 1406. 1847.
1992(48) 0.000434 1406. 1950.
2032(49) 0.000416 1405. 1993.
1953(48) 0.000434 1405. 1957.
1893(47) 0.000453 1405. 1858.
1785(46) 0.000473 1405. 1739.
1657(44) 0.000517 1404. 1637.
1574(43) 0.000541 1404. 1568.
1566(43) 0.000541 1404. 1535.
1578(43) 0.000541 1403. 1527.
1597(43) 0.000541 1403. 1529.
1565(43) 0.000541 1403. 1528.
1594(43) 0.000541 1402. 1516.
1593(43) 0.000541 1402. 1495.
1536(42) 0.000567 1402. 1471.
1502(40) 0.000625 1401. 1451.
1487(40) 0.000625 1401. 1435.
1426(39) 0.000657 1401. 1426.
1419(39) 0.000657 1400. 1420.
1418(39) 0.000657 1400. 1417.
1389(38) 0.000693 1400. 1416.
1407(38) 0.000693 1399. 1416.
1451(39) 0.000657 1399. 1418.
1401(38) 0.000693 1399. 1422.
1411(39) 0.000657 1398. 1429.
1424(39) 0.000657 1398. 1439.
1485(39) 0.000657 1398. 1451.
1481(39) 0.000657 1397. 1464.
1499(40) 0.000625 1397. 1473.
1477(39) 0.000657 1397. 1478.
1550(40) 0.000625 1396. 1480.
1506(40) 0.000625 1396. 1486.
1561(40) 0.000625 1396. 1506.
1541(40) 0.000625 1396. 1546.
1616(41) 0.000595 1395. 1608.
1666(42) 0.000567 1395. 1683.
1802(43) 0.000541 1395. 1754.
1830(44) 0.000517 1394. 1795.
1769(43) 0.000541 1394. 1791.
1776(43) 0.000541 1394. 1751.
1636(41) 0.000595 1393. 1705.
1685(42) 0.000567 1393. 1685.
1717(42) 0.000567 1393. 1709.
1815(44) 0.000517 1392. 1780.
1838(44) 0.000517 1392. 1876.
1906(45) 0.000494 1392. 1960.
1953(45) 0.000494 1391. 1991.
1960(45) 0.000494 1391. 1947.
1919(45) 0.000494 1391. 1846.
1664(42) 0.000567 1390. 1726.
1589(41) 0.000595 1390. 1619.
1518(40) 0.000625 1390. 1542.
1503(40) 0.000625 1389. 1495.
1486(39) 0.000657 1389. 1474.
1489(40) 0.000625 1389. 1463.
1438(39) 0.000657 1388. 1458.
1453(39) 0.000657 1388. 1454.
1437(39) 0.000657 1388. 1455.
1375(38) 0.000693 1388. 1464.
1494(40) 0.000625 1387. 1484.
1505(40) 0.000625 1387. 1516.
1547(40) 0.000625 1387. 1555.
1584(41) 0.000595 1386. 1591.
1539(40) 0.000625 1386. 1610.
1582(41) 0.000595 1386. 1603.
1580(41) 0.000595 1385. 1574.
1553(40) 0.000625 1385. 1537.
1495(40) 0.000625 1385. 1506.
1424(39) 0.000657 1384. 1489.
1464(39) 0.000657 1384. 1486.
1493(40) 0.000625 1384. 1493.
1464(39) 0.000657 1383. 1501.
1449(39) 0.000657 1383. 1501.
1410(38) 0.000693 1383. 1489.
1430(39) 0.000657 1382. 1470.
1414(39) 0.000657 1382. 1450.
1397(38) 0.000693 1382. 1433.
1416(39) 0.000657 1381. 1422.
1364(38) 0.000693 1381. 1416.
1427(39) 0.000657 1381. 1414.
1328(37) 0.000730 1380. 1413.
1422(39) 0.000657 1380. 1411.
1363(38) 0.000693 1380. 1407.
1441(39) 0.000657 1380. 1403.
1428(39) 0.000657 1379. 1400.
1392(38) 0.000693 1379. 1397.
1403(38) 0.000693 1379. 1395.
1379(38) 0.000693 1378. 1394.
1401(38) 0.000693 1378. 1394.
1385(38) 0.000693 1378. 1395.
1431(39) 0.000657 1377. 1396.
1358(38) 0.000693 1377. 1399.
1372(38) 0.000693 1377. 1403.
1466(39) 0.000657 1376. 1409.
1404(38) 0.000693 1376. 1417.
1397(38) 0.000693 1376. 1427.
1395(38) 0.000693 1375. 1437.
1417(39) 0.000657 1375. 1448.
1427(39) 0.000657 1375. 1463.
1485(39) 0.000657 1374. 1486.
1466(39) 0.000657 1374. 1529.
1591(41) 0.000595 1374. 1601.
1779(43) 0.000541 1374. 1705.
1782(43) 0.000541 1373. 1831.
1923(45) 0.000494 1373. 1955.
2044(46) 0.000473 1373. 2043.
2053(46) 0.000473 1372. 2065.
2058(46) 0.000473 1372. 2025.
1918(45) 0.000494 1372. 1963.
1916(45) 0.000494 1371. 1931.
1913(45) 0.000494 1371. 1959.
2040(46) 0.000473 1371. 2053.
2248(48) 0.000434 1370. 2182.
2351(50) 0.000400 1370. 2294.
2342(49) 0.000416 1370. 2328.
2231(47) 0.000453 1369. 2259.
2109(46) 0.000473 1369. 2114.
1935(44) 0.000517 1369. 1950.
1867(43) 0.000541 1369. 1813.
1742(41) 0.000595 1368. 1726.
1743(41) 0.000595 1368. 1685.
1755(41) 0.000595 1368. 1673.
1705(41) 0.000595 1367. 1665.
1731(41) 0.000595 1367. 1642.
1668(40) 0.000625 1367. 1600.
1566(39) 0.000657 1366. 1551.
1541(39) 0.000657 1366. 1506.
1456(38) 0.000693 1366. 1472.
1494(38) 0.000693 1365. 1451.
1455(38) 0.000693 1365. 1440.
1434(37) 0.000730 1365. 1435.
1434(37) 0.000730 1365. 1433.
1375(37) 0.000730 1364. 1433.
1419(37) 0.000730 1364. 1438.
1461(38) 0.000693 1364. 1452.
1435(37) 0.000730 1363. 1475.
1497(38) 0.000693 1363. 1505.
1508(38) 0.000693 1363. 1537.
1531(39) 0.000657 1362. 1559.
1525(39) 0.000657 1362. 1563.
1593(40) 0.000625 1362. 1547.
1545(39) 0.000657 1362. 1517.
1528(39) 0.000657 1361. 1487.
1478(38) 0.000693 1361. 1463.
1545(39) 0.000657 1361. 1449.
1476(38) 0.000693 1360. 1444.
1528(39) 0.000657 1360. 1443.
1524(39) 0.000657 1360. 1440.
1575(39) 0.000657 1359. 1433.
1502(38) 0.000693 1359. 1422.
1511(38) 0.000693 1359. 1411.
1534(39) 0.000657 1359. 1400.
1457(38) 0.000693 1358. 1393.
1444(38) 0.000693 1358. 1389.
1396(37) 0.000730 1358. 1388.
1389(37) 0.000730 1357. 1392.
1352(36) 0.000772 1357. 1401.
1402(37) 0.000730 1357. 1418.
1465(38) 0.000693 1356. 1445.
1502(38) 0.000693 1356. 1485.
1559(39) 0.000657 1356. 1536.
1633(40) 0.000625 1356. 1593.
1602(40) 0.000625 1355. 1643.
1649(40) 0.000625 1355. 1676.
1618(40) 0.000625 1355. 1687.
1680(41) 0.000595 1354. 1688.
1694(41) 0.000595 1354. 1703.
1748(41) 0.000595 1354. 1749.
1818(42) 0.000567 1353. 1831.
1944(44) 0.000517 1353. 1935.
2052(45) 0.000494 1353. 2031.
2097(45) 0.000494 1353. 2078.
2021(45) 0.000494 1352. 2049.
1961(44) 0.000517 1352. 1953.
1879(43) 0.000541 1352. 1823.
1695(41) 0.000595 1351. 1697.
1567(39) 0.000657 1351. 1596.
1544(39) 0.000657 1351. 1525.
1503(38) 0.000693 1351. 1482.
1449(38) 0.000693 1350. 1456.
1428(37) 0.000730 1350. 1439.
1390(37) 0.000730 1350. 1424.
1438(38) 0.000693 1349. 1412.
1415(37) 0.000730 1349. 1401.
1411(37) 0.000730 1349. 1394.
1399(37) 0.000730 1349. 1389.
1367(37) 0.000730 1348. 1388.
1286(35) 0.000816 1348.0 1388.9
1404(37) 0.000730 1348. 1392.
1428(37) 0.000730 1347. 1400.
1376(37) 0.000730 1347. 1413.
1522(39) 0.000657 1347. 1432.
1527(39) 0.000657 1347. 1457.
1529(39) 0.000657 1346. 1483.
1492(38) 0.000693 1346. 1504.
1504(38) 0.000693 1346. 1514.
1456(38) 0.000693 1346. 1509.
1532(39) 0.000657 1345. 1497.
1500(38) 0.000693 1345. 1485.
1455(38) 0.000693 1345. 1482.
1562(39) 0.000657 1344. 1488.
1534(39) 0.000657 1344. 1502.
1545(39) 0.000657 1344. 1518.
1562(39) 0.000657 1344. 1530.
1569(39) 0.000657 1343. 1538.
1496(38) 0.000693 1343. 1550.
1508(38) 0.000693 1343. 1576.
1513(38) 0.000693 1342. 1623.
1636(40) 0.000625 1342. 1689.
1745(41) 0.000595 1342. 1759.
1755(41) 0.000595 1342. 1811.
1825(42) 0.000567 1341. 1820.
1775(42) 0.000567 1341. 1779.
1649(40) 0.000625 1341. 1704.
1611(40) 0.000625 1341. 1617.
1572(38) 0.000693 1340. 1537.
1414(36) 0.000772 1340. 1474.
1389(36) 0.000772 1340. 1431.
1367(35) 0.000816 1339.5 1406.7
1403(36) 0.000772 1339. 1397.
1419(36) 0.000772 1339. 1398.
1391(36) 0.000772 1339. 1410.
1427(36) 0.000772 1338. 1432.
1472(37) 0.000730 1338. 1462.
1461(36) 0.000772 1338. 1498.
1514(37) 0.000730 1338. 1532.
1549(38) 0.000693 1337. 1555.
1518(37) 0.000730 1337. 1562.
1604(38) 0.000693 1337. 1554.
1562(38) 0.000693 1337. 1540.
1454(36) 0.000772 1336. 1530.
1475(37) 0.000730 1336. 1532.
1480(37) 0.000730 1336. 1545.
1490(37) 0.000730 1336. 1566.
1552(38) 0.000693 1335. 1589.
1538(37) 0.000730 1335. 1611.
1624(38) 0.000693 1335. 1638.
1648(39) 0.000657 1335. 1685.
1705(39) 0.000657 1334. 1763.
1832(41) 0.000595 1334. 1870.
2008(43) 0.000541 1334. 1993.
2038(43) 0.000541 1333. 2099.
2150(44) 0.000517 1333. 2150.
2143(44) 0.000517 1333. 2120.
2056(43) 0.000541 1333. 2023.
1903(42) 0.000567 1332. 1894.
1807(41) 0.000595 1332. 1769.
1688(39) 0.000657 1332. 1668.
1636(39) 0.000657 1332. 1598.
1512(37) 0.000730 1331. 1554.
1529(37) 0.000730 1331. 1522.
1458(36) 0.000772 1331. 1494.
1486(37) 0.000730 1331. 1464.
1414(36) 0.000772 1330. 1435.
1386(35) 0.000816 1330.2 1409.9
1351(35) 0.000816 1330.0 1389.4
1395(36) 0.000772 1330. 1374.
1371(35) 0.000816 1329.5 1364.3
1354(35) 0.000816 1329.2 1358.5
1340(35) 0.000816 1329.0 1355.5
1340(35) 0.000816 1328.8 1354.5
1321(35) 0.000816 1328.5 1355.0
1391(36) 0.000772 1328. 1357.
1374(35) 0.000816 1328.0 1359.8
1347(35) 0.000816 1327.8 1363.7
1342(35) 0.000816 1327.5 1369.0
1359(35) 0.000816 1327.3 1376.5
1350(35) 0.000816 1327.1 1388.0
1383(35) 0.000816 1326.8 1405.6
1421(36) 0.000772 1327. 1430.
1432(36) 0.000772 1326. 1461.
1482(37) 0.000730 1326. 1494.
1484(37) 0.000730 1326. 1521.
1503(37) 0.000730 1326. 1533.
1499(37) 0.000730 1325. 1525.
1453(36) 0.000772 1325. 1500.
1483(37) 0.000730 1325. 1466.
1439(36) 0.000772 1325. 1432.
1451(36) 0.000772 1324. 1403.
1377(35) 0.000816 1324.2 1381.3
1377(35) 0.000816 1324.0 1367.8
1349(35) 0.000816 1323.7 1361.3
1345(35) 0.000816 1323.5 1360.6
1352(35) 0.000816 1323.3 1364.7
1328(35) 0.000816 1323.1 1373.1
1398(36) 0.000772 1323. 1385.
1462(36) 0.000772 1323. 1400.
1410(36) 0.000772 1322. 1418.
1447(36) 0.000772 1322. 1438.
1498(37) 0.000730 1322. 1463.
1502(37) 0.000730 1322. 1497.
1534(37) 0.000730 1321. 1546.
1648(39) 0.000657 1321. 1615.
1652(39) 0.000657 1321. 1699.
1769(40) 0.000625 1321. 1788.
1810(41) 0.000595 1321. 1861.
1872(41) 0.000595 1320. 1895.
1819(41) 0.000595 1320. 1876.
1791(40) 0.000625 1320. 1815.
1721(40) 0.000625 1320. 1735.
1709(39) 0.000657 1319. 1656.
1645(39) 0.000657 1319. 1593.
1523(37) 0.000730 1319. 1548.
1501(37) 0.000730 1319. 1518.
1524(37) 0.000730 1319. 1496.
1512(37) 0.000730 1318. 1476.
1482(37) 0.000730 1318. 1458.
1508(37) 0.000730 1318. 1443.
1551(38) 0.000693 1318. 1434.
1515(37) 0.000730 1317. 1431.
1489(37) 0.000730 1317. 1431.
1412(36) 0.000772 1317. 1431.
1524(37) 0.000730 1317. 1429.
1485(37) 0.000730 1317. 1425.
1472(37) 0.000730 1316. 1422.
1491(51) 0.000384 1316. 1423.
1450(35) 0.000816 1316.0 1428.4
1463(35) 0.000816 1315.7 1437.3
1420(35) 0.000816 1315.5 1447.7
1423(35) 0.000816 1315.3 1457.1
1425(35) 0.000816 1315.1 1465.7
1487(35) 0.000816 1314.9 1477.1
1555(36) 0.000772 1315. 1495.
1581(37) 0.000730 1314. 1522.
1659(37) 0.000730 1314. 1553.
1638(37) 0.000730 1314. 1582.
1679(38) 0.000693 1314. 1597.
1653(37) 0.000730 1314. 1590.
1597(37) 0.000730 1313. 1562.
1548(36) 0.000772 1313. 1520.
1515(36) 0.000772 1313. 1475.
1514(36) 0.000772 1313. 1434.
1448(35) 0.000816 1312.6 1401.4
1381(34) 0.000865 1312.4 1377.8
1386(34) 0.000865 1312.2 1361.9
1328(34) 0.000865 1312.0 1351.3
1281(33) 0.000918 1311.8 1344.2
1326(33) 0.000918 1311.6 1339.6
1368(34) 0.000865 1311.4 1336.6
1329(34) 0.000865 1311.2 1335.3
1307(33) 0.000918 1311.0 1336.0
1372(34) 0.000865 1310.8 1339.2
1352(34) 0.000865 1310.6 1345.6
1410(35) 0.000816 1310.4 1356.5
1419(35) 0.000816 1310.2 1372.3
1374(34) 0.000865 1310.0 1392.8
1408(34) 0.000865 1309.8 1416.8
1445(35) 0.000816 1309.6 1441.4
1463(35) 0.000816 1309.4 1462.4
1488(35) 0.000816 1309.2 1476.6
1472(35) 0.000816 1309.0 1483.5
1460(35) 0.000816 1308.8 1487.1
1526(36) 0.000772 1309. 1493.
1531(36) 0.000772 1308. 1504.
1534(36) 0.000772 1308. 1520.
1577(36) 0.000772 1308. 1535.
1570(36) 0.000772 1308. 1544.
1622(37) 0.000730 1308. 1540.
1596(37) 0.000730 1307. 1524.
1528(36) 0.000772 1307. 1502.
1538(36) 0.000772 1307. 1480.
1505(36) 0.000772 1307. 1464.
1516(36) 0.000772 1307. 1454.
1467(35) 0.000816 1306.5 1448.3
1456(35) 0.000816 1306.3 1445.0
1446(35) 0.000816 1306.1 1442.0
1488(35) 0.000816 1305.9 1441.6
1505(36) 0.000772 1306. 1445.
1485(35) 0.000816 1305.5 1453.7
1451(35) 0.000816 1305.4 1465.8
1442(35) 0.000816 1305.2 1478.1
1432(35) 0.000816 1305.0 1486.1
1461(35) 0.000816 1304.8 1487.1
1456(35) 0.000816 1304.6 1482.6
1448(35) 0.000816 1304.4 1477.2
1505(36) 0.000772 1304. 1475.
1500(36) 0.000772 1304. 1476.
1456(35) 0.000816 1303.9 1479.8
1495(36) 0.000772 1304. 1481.
1510(36) 0.000772 1304. 1475.
1485(35) 0.000816 1303.3 1460.6
1465(35) 0.000816 1303.1 1440.3
1364(34) 0.000865 1303.0 1418.7
1347(34) 0.000865 1302.8 1399.4
1354(34) 0.000865 1302.6 1384.7
1384(34) 0.000865 1302.4 1375.4
1334(34) 0.000865 1302.2 1371.4
1299(33) 0.000918 1302.1 1372.2
1330(34) 0.000865 1301.9 1378.0
1341(34) 0.000865 1301.7 1388.4
1373(34) 0.000865 1301.5 1402.6
1415(35) 0.000816 1301.3 1418.4
1425(35) 0.000816 1301.2 1432.0
1452(35) 0.000816 1301.0 1438.9
1430(35) 0.000816 1300.8 1435.9
1472(35) 0.000816 1300.6 1423.0
1454(35) 0.000816 1300.4 1404.8
1337(34) 0.000865 1300.3 1383.9
1331(34) 0.000865 1300.1 1364.4
1305(33) 0.000918 1299.9 1348.2
1292(33) 0.000918 1299.7 1336.1
1302(33) 0.000918 1299.6 1328.0
1312(33) 0.000918 1299.4 1323.1
1305(33) 0.000918 1299.2 1320.7
1291(33) 0.000918 1299.0 1320.5
1272(33) 0.000918 1298.9 1322.0
1288(33) 0.000918 1298.7 1325.9
1319(33) 0.000918 1298.5 1333.0
1359(34) 0.000865 1298.4 1344.9
1420(35) 0.000816 1298.2 1362.9
1399(34) 0.000865 1298.0 1388.4
1410(35) 0.000816 1297.8 1421.4
1402(34) 0.000865 1297.7 1460.0
1464(35) 0.000816 1297.5 1500.7
1535(36) 0.000772 1297. 1538.
1557(36) 0.000772 1297. 1564.
1559(36) 0.000772 1297. 1576.
1568(36) 0.000772 1297. 1575.
1552(36) 0.000772 1297. 1568.
1571(36) 0.000772 1296. 1561.
1571(36) 0.000772 1296. 1558.
1535(36) 0.000772 1296. 1558.
1503(36) 0.000772 1296. 1555.
1480(35) 0.000816 1295.8 1543.5
1491(36) 0.000772 1296. 1522.
1488(35) 0.000816 1295.5 1491.9
1425(35) 0.000816 1295.3 1459.7
1426(35) 0.000816 1295.1 1429.6
1450(35) 0.000816 1295.0 1404.3
1357(34) 0.000865 1294.8 1384.4
1479(35) 0.000816 1294.6 1369.3
1394(34) 0.000865 1294.5 1357.8
1372(34) 0.000865 1294.3 1349.0
1350(34) 0.000865 1294.1 1342.4
1338(34) 0.000865 1294.0 1338.0
1372(34) 0.000865 1293.8 1335.3
1351(34) 0.000865 1293.6 1334.3
1313(33) 0.000918 1293.5 1334.5
1342(34) 0.000865 1293.3 1335.9
1333(34) 0.000865 1293.1 1338.6
1330(34) 0.000865 1293.0 1342.7
1369(34) 0.000865 1292.8 1348.6
1307(33) 0.000918 1292.6 1355.9
1328(34) 0.000865 1292.5 1364.1
1343(34) 0.000865 1292.3 1372.3
1322(33) 0.000918 1292.1 1380.0
1334(34) 0.000865 1292.0 1387.7
1351(34) 0.000865 1291.8 1396.5
1411(35) 0.000816 1291.7 1407.2
1375(34) 0.000865 1291.5 1419.4
1405(34) 0.000865 1291.3 1430.7
1408(35) 0.000816 1291.2 1437.8
1376(34) 0.000865 1291.0 1437.4
1395(34) 0.000865 1290.8 1428.3
1391(34) 0.000865 1290.7 1412.6
1388(34) 0.000865 1290.5 1393.6
1368(34) 0.000865 1290.4 1374.7
1345(34) 0.000865 1290.2 1358.3
1344(34) 0.000865 1290.0 1345.6
1326(34) 0.000865 1289.9 1337.2
1351(34) 0.000865 1289.7 1332.9
1297(33) 0.000918 1289.6 1332.6
1304(33) 0.000918 1289.4 1336.3
1298(33) 0.000918 1289.2 1345.5
1345(34) 0.000865 1289.1 1362.1
1364(34) 0.000865 1288.9 1389.8
1420(35) 0.000816 1288.7 1432.7
1499(36) 0.000772 1289. 1495.
1644(37) 0.000730 1288. 1579.
1730(38) 0.000693 1288. 1684.
1797(39) 0.000657 1288. 1803.
1862(40) 0.000625 1288. 1923.
2002(41) 0.000595 1288. 2026.
2005(41) 0.000595 1288. 2089.
1996(41) 0.000595 1287. 2098.
1919(40) 0.000625 1287. 2052.
1887(40) 0.000625 1287. 1972.
1885(40) 0.000625 1287. 1878.
1784(39) 0.000657 1287. 1788.
1683(38) 0.000693 1287. 1711.
1564(36) 0.000772 1287. 1651.
1517(36) 0.000772 1286. 1605.
1549(36) 0.000772 1286. 1571.
1556(36) 0.000772 1286. 1547.
1479(35) 0.000816 1285.9 1533.1
1586(37) 0.000730 1286. 1526.
1566(36) 0.000772 1286. 1523.
1549(36) 0.000772 1285. 1518.
1538(36) 0.000772 1285. 1507.
1491(36) 0.000772 1285. 1488.
1478(35) 0.000816 1284.9 1462.0
1410(35) 0.000816 1284.8 1433.3
1423(35) 0.000816 1284.6 1405.9
1406(34) 0.000865 1284.4 1383.1
1358(34) 0.000865 1284.3 1366.9
1365(34) 0.000865 1284.1 1358.3
1341(34) 0.000865 1284.0 1357.4
1383(34) 0.000865 1283.8 1363.7
1410(35) 0.000816 1283.7 1375.5
1378(34) 0.000865 1283.5 1390.7
1501(36) 0.000772 1283. 1406.
1518(36) 0.000772 1283. 1419.
1483(35) 0.000816 1283.0 1425.0
1428(35) 0.000816 1282.9 1422.9
1495(36) 0.000772 1283. 1413.
1470(35) 0.000816 1282.5 1399.5
1399(34) 0.000865 1282.4 1384.3
1359(34) 0.000865 1282.2 1369.7
1364(34) 0.000865 1282.1 1357.3
1348(34) 0.000865 1281.9 1346.4
1351(34) 0.000865 1281.7 1336.9
1338(34) 0.000865 1281.6 1328.5
1311(33) 0.000918 1281.4 1321.1
1285(33) 0.000918 1281.3 1314.9
1328(34) 0.000865 1281.1 1309.7
1320(27) 0.001372 1280.9 1305.8
1275(33) 0.000918 1280.8 1303.1
1314(33) 0.000918 1280.6 1301.6
1283(33) 0.000918 1280.5 1301.2
1339(34) 0.000865 1280.3 1302.0
1317(33) 0.000918 1280.1 1304.2
1354(34) 0.000865 1280.0 1308.0
1321(33) 0.000918 1279.8 1313.9
1310(33) 0.000918 1279.7 1322.7
1351(34) 0.000865 1279.5 1334.8
1364(34) 0.000865 1279.3 1350.8
1362(34) 0.000865 1279.2 1370.4
1353(34) 0.000865 1279.0 1393.1
1365(34) 0.000865 1278.9 1416.8
1376(34) 0.000865 1278.7 1439.0
1466(35) 0.000816 1278.5 1456.4
1472(35) 0.000816 1278.4 1466.4
1413(34) 0.000865 1278.2 1468.8
1468(35) 0.000816 1278.1 1466.2
1448(35) 0.000816 1277.9 1461.9
1426(35) 0.000816 1277.7 1458.6
1463(35) 0.000816 1277.6 1457.5
1436(35) 0.000816 1277.4 1458.1
1454(35) 0.000816 1277.2 1459.6
1488(35) 0.000816 1277.1 1461.6
1460(35) 0.000816 1276.9 1465.0
1493(35) 0.000816 1276.8 1470.5
1523(36) 0.000772 1277. 1478.
1503(35) 0.000816 1276.4 1485.1
1506(36) 0.000772 1276. 1489.
1530(36) 0.000772 1276. 1487.
1509(36) 0.000772 1276. 1476.
1560(36) 0.000772 1276. 1460.
1445(35) 0.000816 1275.6 1440.4
1435(35) 0.000816 1275.5 1420.6
1393(34) 0.000865 1275.3 1403.0
1413(34) 0.000865 1275.1 1386.4
1388(34) 0.000865 1275.0 1372.5
1419(34) 0.000865 1274.8 1359.9
1387(34) 0.000865 1274.6 1348.7
1371(34) 0.000865 1274.5 1339.0
1293(33) 0.000918 1274.3 1331.0
1328(33) 0.000918 1274.1 1324.8
1304(33) 0.000918 1274.0 1320.2
1308(33) 0.000918 1273.8 1317.1
1312(33) 0.000918 1273.6 1315.3
1358(34) 0.000865 1273.5 1314.5
1345(34) 0.000865 1273.3 1314.7
1314(33) 0.000918 1273.1 1315.6
1347(34) 0.000865 1273.0 1316.9
1349(34) 0.000865 1272.8 1317.7
1293(33) 0.000918 1272.6 1317.7
1288(33) 0.000918 1272.5 1316.6
1313(33) 0.000918 1272.3 1314.6
1349(34) 0.000865 1272.1 1312.5
1351(34) 0.000865 1272.0 1311.0
1268(33) 0.000918 1271.8 1311.2
1287(33) 0.000918 1271.6 1313.5
1331(33) 0.000918 1271.4 1318.6
1352(34) 0.000865 1271.3 1327.2
1359(34) 0.000865 1271.1 1339.2
1347(34) 0.000865 1270.9 1354.6
1367(34) 0.000865 1270.8 1372.9
1387(34) 0.000865 1270.6 1393.3
1406(34) 0.000865 1270.4 1414.3
1406(34) 0.000865 1270.2 1435.2
1422(35) 0.000816 1270.1 1455.5
1437(35) 0.000816 1269.9 1476.2
1493(35) 0.000816 1269.7 1498.7
1473(35) 0.000816 1269.6 1524.3
1498(35) 0.000816 1269.4 1552.8
1512(36) 0.000772 1269. 1583.
1553(36) 0.000772 1269. 1612.
1623(37) 0.000730 1269. 1638.
1613(37) 0.000730 1269. 1663.
1659(37) 0.000730 1269. 1689.
1752(38) 0.000693 1268. 1714.
1775(39) 0.000657 1268. 1737.
1754(38) 0.000693 1268. 1751.
1737(38) 0.000693 1268. 1749.
1756(38) 0.000693 1268. 1727.
1710(38) 0.000693 1267. 1685.
1661(37) 0.000730 1267. 1629.
1589(36) 0.000772 1267. 1569.
1558(36) 0.000772 1267. 1510.
1475(35) 0.000816 1266.7 1457.3
1470(35) 0.000816 1266.6 1413.0
1396(34) 0.000865 1266.4 1378.1
1357(34) 0.000865 1266.2 1351.7
1316(33) 0.000918 1266.0 1333.0
1338(33) 0.000918 1265.8 1319.9
1304(33) 0.000918 1265.7 1311.3
1331(33) 0.000918 1265.5 1306.0
1318(33) 0.000918 1265.3 1302.9
1296(33) 0.000918 1265.1 1302.0
1290(33) 0.000918 1264.9 1302.8
1298(33) 0.000918 1264.7 1305.7
1312(33) 0.000918 1264.6 1310.1
1303(33) 0.000918 1264.4 1316.5
1355(34) 0.000865 1264.2 1325.2
1279(45) 0.000494 1264. 1336.
1342(32) 0.000977 1263.8 1350.5
1370(33) 0.000918 1263.6 1367.1
1365(33) 0.000918 1263.4 1386.0
1420(33) 0.000918 1263.3 1405.7
1408(33) 0.000918 1263.1 1424.4
1374(33) 0.000918 1262.9 1439.5
1442(34) 0.000865 1262.7 1447.9
1469(34) 0.000865 1262.5 1448.4
1400(33) 0.000918 1262.3 1441.9
1447(34) 0.000865 1262.1 1431.7
1394(33) 0.000918 1261.9 1422.2
1406(33) 0.000918 1261.8 1417.9
1431(33) 0.000918 1261.6 1422.8
1435(34) 0.000865 1261.4 1439.7
1488(34) 0.000865 1261.2 1470.1
1497(34) 0.000865 1261.0 1513.7
1538(35) 0.000816 1260.8 1567.9
1606(35) 0.000816 1260.6 1627.8
1669(36) 0.000772 1260. 1686.
1757(37) 0.000730 1260. 1734.
1774(37) 0.000730 1260. 1763.
1766(37) 0.000730 1260. 1766.
1747(37) 0.000730 1260. 1744.
1717(37) 0.000730 1259. 1706.
1677(36) 0.000772 1259. 1659.
1554(35) 0.000816 1259.1 1611.6
1541(35) 0.000816 1258.9 1570.1
1575(35) 0.000816 1258.7 1537.6
1508(34) 0.000865 1258.5 1515.6
1523(35) 0.000816 1258.3 1504.2
1523(35) 0.000816 1258.1 1503.3
1506(34) 0.000865 1257.9 1511.2
1536(35) 0.000816 1257.7 1525.9
1558(35) 0.000816 1257.5 1544.4
1631(36) 0.000772 1257. 1563.
1593(35) 0.000816 1257.1 1580.6
1625(36) 0.000772 1257. 1596.
1599(35) 0.000816 1256.7 1609.5
1633(36) 0.000772 1256. 1622.
1624(36) 0.000772 1256. 1632.
1596(35) 0.000816 1256.1 1636.8
1594(35) 0.000816 1255.9 1632.1
1569(35) 0.000816 1255.7 1615.3
1539(35) 0.000816 1255.5 1587.3
1514(34) 0.000865 1255.2 1551.7
1467(34) 0.000865 1255.0 1513.2
1456(34) 0.000865 1254.8 1475.8
1390(33) 0.000918 1254.6 1442.5
1390(33) 0.000918 1254.4 1414.6
1417(33) 0.000918 1254.2 1392.6
1386(33) 0.000918 1254.0 1376.7
1348(32) 0.000977 1253.8 1365.8
1386(33) 0.000918 1253.6 1359.3
1435(34) 0.000865 1253.4 1355.9
1388(33) 0.000918 1253.2 1354.0
1346(32) 0.000977 1253.0 1352.3
1340(32) 0.000977 1252.7 1349.8
1353(33) 0.000918 1252.5 1346.1
1365(33) 0.000918 1252.3 1341.9
1312(32) 0.000977 1252.1 1337.4
1320(32) 0.000977 1251.9 1332.8
1307(32) 0.000977 1251.7 1328.0
1356(33) 0.000918 1251.5 1323.0
1284(32) 0.000977 1251.3 1317.5
1270(32) 0.000977 1251.0 1311.5
1323(32) 0.000977 1250.8 1305.6
1258(31) 0.001041 1250.6 1300.2
1315(32) 0.000977 1250.4 1295.7
1321(32) 0.000977 1250.2 1292.4
1305(32) 0.000977 1250.0 1290.7
1310(32) 0.000977 1249.7 1290.7
1333(32) 0.000977 1249.5 1292.9
1291(32) 0.000977 1249.3 1297.4
1306(32) 0.000977 1249.1 1304.5
1367(33) 0.000918 1248.9 1314.8
1329(32) 0.000977 1248.6 1328.5
1347(32) 0.000977 1248.4 1346.2
1401(33) 0.000918 1248.2 1368.1
1459(34) 0.000865 1248.0 1394.5
1495(34) 0.000865 1247.7 1425.2
1467(34) 0.000865 1247.5 1459.5
1531(35) 0.000816 1247.3 1496.3
1629(36) 0.000772 1247. 1534.
1693(36) 0.000772 1247. 1570.
1720(37) 0.000730 1247. 1603.
1626(36) 0.000772 1246. 1634.
1729(37) 0.000730 1246. 1664.
1729(37) 0.000730 1246. 1691.
1677(36) 0.000772 1246. 1714.
1650(36) 0.000772 1245. 1730.
1687(36) 0.000772 1245. 1733.
1665(36) 0.000772 1245. 1723.
1726(37) 0.000730 1245. 1701.
1708(37) 0.000730 1245. 1671.
1624(36) 0.000772 1244. 1636.
1603(35) 0.000816 1244.1 1600.7
1573(35) 0.000816 1243.9 1565.2
1569(35) 0.000816 1243.6 1529.7
1515(34) 0.000865 1243.4 1494.3
1502(34) 0.000865 1243.2 1460.2
1463(34) 0.000865 1242.9 1428.7
1401(33) 0.000918 1242.7 1401.4
1440(34) 0.000865 1242.5 1379.4
1384(33) 0.000918 1242.2 1363.9
1441(34) 0.000865 1242.0 1354.3
1380(33) 0.000918 1241.8 1350.7
1392(33) 0.000918 1241.5 1351.7
1338(32) 0.000977 1241.3 1357.1
1348(32) 0.000977 1241.0 1364.4
1345(32) 0.000977 1240.8 1371.6
1396(33) 0.000918 1240.6 1376.3
1384(33) 0.000918 1240.3 1376.8
1361(33) 0.000918 1240.1 1372.1
1326(32) 0.000977 1239.8 1362.8
1332(32) 0.000977 1239.6 1350.5
1334(32) 0.000977 1239.4 1336.8
1336(32) 0.000977 1239.1 1323.5
1289(32) 0.000977 1238.9 1311.4
1326(32) 0.000977 1238.6 1301.5
1253(31) 0.001041 1238.4 1294.4
1287(32) 0.000977 1238.1 1290.4
1268(31) 0.001041 1237.9 1290.1
1253(31) 0.001041 1237.6 1293.6
1317(32) 0.000977 1237.4 1301.2
1300(32) 0.000977 1237.2 1312.9
1279(32) 0.000977 1236.9 1328.7
1333(32) 0.000977 1236.7 1348.4
1384(33) 0.000918 1236.4 1371.3
1428(33) 0.000918 1236.2 1396.1
1445(34) 0.000865 1235.9 1421.2
1472(34) 0.000865 1235.7 1444.4
1492(34) 0.000865 1235.4 1463.2
1496(34) 0.000865 1235.2 1476.1
1511(34) 0.000865 1234.9 1482.8
1534(35) 0.000816 1234.6 1485.0
1505(34) 0.000865 1234.4 1485.2
1528(35) 0.000816 1234.1 1485.9
1523(35) 0.000816 1233.9 1489.0
1471(34) 0.000865 1233.6 1495.3
1450(34) 0.000865 1233.4 1505.0
1519(34) 0.000865 1233.1 1518.1
1582(35) 0.000816 1232.9 1533.9
1549(35) 0.000816 1232.6 1551.2
1545(35) 0.000816 1232.4 1567.9
1431(33) 0.000918 1232.1 1580.8
1534(35) 0.000816 1231.8 1586.3
1544(35) 0.000816 1231.6 1582.1
1565(35) 0.000816 1231.3 1568.5
1460(34) 0.000865 1231.1 1548.5
1466(34) 0.000865 1230.8 1526.7
1462(34) 0.000865 1230.5 1507.7
1500(34) 0.000865 1230.3 1495.7
1499(34) 0.000865 1230.0 1493.3
1461(34) 0.000865 1229.7 1501.9
1558(35) 0.000816 1229.5 1521.1
1553(35) 0.000816 1229.2 1549.2
1576(35) 0.000816 1229.0 1582.7
1579(35) 0.000816 1228.7 1616.7
1717(37) 0.000730 1228. 1646.
1692(36) 0.000772 1228. 1663.
1691(36) 0.000772 1228. 1666.
1671(36) 0.000772 1228. 1653.
1702(36) 0.000772 1227. 1627.
1639(36) 0.000772 1227. 1594.
1594(35) 0.000816 1226.8 1556.6
1618(36) 0.000772 1227. 1519.
1437(34) 0.000865 1226.3 1484.2
1471(34) 0.000865 1226.0 1452.5
1395(33) 0.000918 1225.8 1425.0
1371(33) 0.000918 1225.5 1402.0
1359(33) 0.000918 1225.2 1383.4
1401(33) 0.000918 1224.9 1368.6
1333(32) 0.000977 1224.7 1356.6
1292(32) 0.000977 1224.4 1346.2
1321(32) 0.000977 1224.1 1336.7
1350(32) 0.000977 1223.8 1327.9
1393(33) 0.000918 1223.6 1320.2
1313(32) 0.000977 1223.3 1314.1
1357(33) 0.000918 1223.0 1310.2
1330(32) 0.000977 1222.7 1309.3
1224(31) 0.001041 1222.5 1311.3
1355(33) 0.000918 1222.2 1316.3
1262(31) 0.001041 1221.9 1324.1
1313(32) 0.000977 1221.6 1334.0
1349(32) 0.000977 1221.4 1344.8
1311(32) 0.000977 1221.1 1355.2
1348(32) 0.000977 1220.8 1363.8
1376(33) 0.000918 1220.5 1369.3
1414(33) 0.000918 1220.3 1371.1
1379(33) 0.000918 1220.0 1369.7
1436(33) 0.000918 1219.7 1366.6
1370(33) 0.000918 1219.4 1363.6
1360(33) 0.000918 1219.1 1362.6
1405(33) 0.000918 1218.8 1365.0
1427(33) 0.000918 1218.6 1372.1
1336(32) 0.000977 1218.3 1384.7
1443(34) 0.000865 1218.0 1403.4
1422(33) 0.000918 1217.7 1427.9
1420(33) 0.000918 1217.4 1457.9
1419(33) 0.000918 1217.2 1492.2
1507(36) 0.000772 1217. 1529.
1524(36) 0.000772 1217. 1567.
1588(37) 0.000730 1216. 1604.
1683(38) 0.000693 1216. 1640.
1716(38) 0.000693 1216. 1673.
1744(38) 0.000693 1215. 1701.
1775(39) 0.000657 1215. 1723.
1784(39) 0.000657 1215. 1734.
1760(38) 0.000693 1215. 1731.
1768(39) 0.000657 1214. 1715.
1766(39) 0.000657 1214. 1686.
1712(38) 0.000693 1214. 1649.
1637(37) 0.000730 1213. 1609.
1530(36) 0.000772 1213. 1571.
1539(36) 0.000772 1213. 1538.
1500(35) 0.000816 1212.6 1512.3
1485(35) 0.000816 1212.3 1494.0
1469(35) 0.000816 1212.0 1483.3
1423(35) 0.000816 1211.7 1479.0
1470(35) 0.000816 1211.4 1479.2
1462(35) 0.000816 1211.1 1480.9
1383(34) 0.000865 1210.8 1481.2
1436(35) 0.000816 1210.5 1477.3
1419(35) 0.000816 1210.2 1467.9
1436(35) 0.000816 1209.9 1453.2
1485(35) 0.000816 1209.6 1434.4
1453(35) 0.000816 1209.3 1413.2
1410(34) 0.000865 1209.0 1391.2
1384(34) 0.000865 1208.7 1369.5
1357(34) 0.000865 1208.5 1349.0
1347(34) 0.000865 1208.2 1330.3
1325(33) 0.000918 1207.9 1313.8
1278(33) 0.000918 1207.6 1300.0
1308(33) 0.000918 1207.3 1289.1
1318(33) 0.000918 1207.0 1281.3
1283(33) 0.000918 1206.7 1276.4
1272(33) 0.000918 1206.4 1274.3
1234(32) 0.000977 1206.1 1274.9
1334(33) 0.000918 1205.8 1278.0
1240(32) 0.000977 1205.5 1283.1
1252(32) 0.000977 1205.2 1289.7
1228(32) 0.000977 1204.9 1297.6
1284(33) 0.000918 1204.6 1306.2
1293(33) 0.000918 1204.3 1315.0
1321(33) 0.000918 1204.0 1323.8
1266(33) 0.000918 1203.7 1332.5
1301(33) 0.000918 1203.4 1341.3
1280(33) 0.000918 1203.1 1349.5
1275(33) 0.000918 1202.8 1357.0
1301(33) 0.000918 1202.5 1363.5
1313(33) 0.000918 1202.2 1368.7
1320(33) 0.000918 1201.9 1372.6
1357(34) 0.000865 1201.6 1376.1
1379(34) 0.000865 1201.3 1380.1
1364(34) 0.000865 1201.0 1385.0
1392(34) 0.000865 1200.7 1391.4
1432(35) 0.000816 1200.4 1399.5
1408(34) 0.000865 1200.1 1409.2
1448(35) 0.000816 1199.8 1420.2
1396(34) 0.000865 1199.5 1432.3
1477(35) 0.000816 1199.2 1445.2
1485(35) 0.000816 1198.9 1457.8
1534(36) 0.000772 1199. 1469.
1482(35) 0.000816 1198.2 1477.1
1522(36) 0.000772 1198. 1481.
1514(36) 0.000772 1198. 1481.
1530(36) 0.000772 1197. 1478.
1526(36) 0.000772 1197. 1472.
1460(35) 0.000816 1196.7 1465.5
1431(35) 0.000816 1196.4 1458.5
1458(35) 0.000816 1196.1 1451.6
1439(35) 0.000816 1195.8 1445.0
1423(35) 0.000816 1195.5 1438.7
1444(35) 0.000816 1195.2 1433.1
1350(34) 0.000865 1194.9 1428.6
1419(35) 0.000816 1194.6 1424.9
1402(34) 0.000865 1194.3 1421.4
1456(35) 0.000816 1194.0 1417.5
1420(35) 0.000816 1193.7 1412.4
1416(34) 0.000865 1193.4 1405.7
1405(34) 0.000865 1193.0 1397.7
1377(34) 0.000865 1192.7 1388.7
1351(34) 0.000865 1192.4 1378.8
1329(33) 0.000918 1192.1 1368.0
1359(34) 0.000865 1191.8 1356.0
1283(33) 0.000918 1191.5 1342.8
1379(34) 0.000865 1191.2 1328.4
1338(34) 0.000865 1190.9 1313.5
1292(33) 0.000918 1190.6 1298.7
1283(33) 0.000918 1190.3 1284.6
1296(33) 0.000918 1190.0 1271.9
1235(32) 0.000977 1189.7 1261.0
1230(32) 0.000977 1189.3 1252.0
1219(32) 0.000977 1189.0 1245.1
1248(32) 0.000977 1188.7 1240.5
1247(32) 0.000977 1188.4 1238.3
1212(32) 0.000977 1188.1 1238.2
1258(32) 0.000977 1187.8 1240.3
1249(32) 0.000977 1187.5 1244.9
1234(32) 0.000977 1187.2 1251.5
1246(33) 0.000918 1186.9 1260.4
1287(33) 0.000918 1186.6 1271.4
1274(33) 0.000918 1186.3 1284.6
1244(33) 0.000918 1186.0 1299.8
1271(33) 0.000918 1185.6 1316.6
1347(34) 0.000865 1185.3 1334.7
1338(34) 0.000865 1185.0 1353.3
1349(34) 0.000865 1184.7 1372.3
1372(34) 0.000865 1184.4 1390.9
1366(34) 0.000865 1184.1 1408.6
1403(35) 0.000816 1183.8 1424.4
1410(35) 0.000816 1183.5 1437.0
1397(35) 0.000816 1183.2 1445.2
1512(36) 0.000772 1183. 1448.
1496(36) 0.000772 1183. 1445.
1455(35) 0.000816 1182.2 1438.1
1379(34) 0.000865 1181.9 1427.4
1431(35) 0.000816 1181.6 1414.1
1401(35) 0.000816 1181.3 1399.2
1343(34) 0.000865 1181.0 1383.0
1351(34) 0.000865 1180.7 1366.3
1370(34) 0.000865 1180.4 1349.5
1319(34) 0.000865 1180.1 1333.5
1348(34) 0.000865 1179.8 1319.4
1346(34) 0.000865 1179.5 1307.7
1340(34) 0.000865 1179.1 1299.1
1296(33) 0.000918 1178.8 1293.6
1284(33) 0.000918 1178.5 1291.6
1281(33) 0.000918 1178.2 1292.3
1337(34) 0.000865 1177.9 1295.4
1280(33) 0.000918 1177.6 1300.2
1310(33) 0.000918 1177.3 1305.8
1348(34) 0.000865 1177.0 1311.1
1375(34) 0.000865 1176.7 1315.1
1329(34) 0.000865 1176.4 1317.3
1316(34) 0.000865 1176.1 1317.3
1388(34) 0.000865 1175.8 1315.4
1342(34) 0.000865 1175.4 1312.0
1352(34) 0.000865 1175.1 1307.7
1337(34) 0.000865 1174.8 1302.9
1344(34) 0.000865 1174.5 1298.0
1324(34) 0.000865 1174.2 1293.9
1264(33) 0.000918 1173.9 1290.7
1313(34) 0.000865 1173.6 1289.3
1264(33) 0.000918 1173.3 1290.5
1233(32) 0.000977 1173.0 1295.2
1250(33) 0.000918 1172.7 1303.8
1277(33) 0.000918 1172.4 1316.8
1287(33) 0.000918 1172.1 1334.7
1286(33) 0.000918 1171.8 1357.0
1301(33) 0.000918 1171.5 1383.6
1316(34) 0.000865 1171.2 1414.1
1390(34) 0.000865 1170.8 1447.3
1429(35) 0.000816 1170.5 1482.1
1515(36) 0.000772 1170. 1517.
1543(36) 0.000772 1170. 1551.
1529(36) 0.000772 1170. 1583.
1626(37) 0.000730 1169. 1612.
1630(37) 0.000730 1169. 1639.
1613(37) 0.000730 1169. 1661.
1634(37) 0.000730 1168. 1677.
1702(38) 0.000693 1168. 1686.
1707(38) 0.000693 1168. 1687.
1710(38) 0.000693 1167. 1680.
1660(38) 0.000693 1167. 1666.
1685(38) 0.000693 1167. 1646.
1613(37) 0.000730 1167. 1623.
1588(37) 0.000730 1166. 1597.
1640(37) 0.000730 1166. 1569.
1621(37) 0.000730 1166. 1540.
1530(36) 0.000772 1165. 1510.
1466(35) 0.000816 1165.1 1480.6
1452(35) 0.000816 1164.8 1452.9
1467(35) 0.000816 1164.5 1427.9
1378(34) 0.000865 1164.2 1406.2
1402(35) 0.000816 1163.9 1388.0
1391(34) 0.000865 1163.6 1373.3
1319(34) 0.000865 1163.3 1362.0
1387(34) 0.000865 1163.0 1353.9
1374(34) 0.000865 1162.7 1348.5
1317(34) 0.000865 1162.4 1345.3
1406(35) 0.000816 1162.1 1343.7
1328(34) 0.000865 1161.8 1342.8
1347(34) 0.000865 1161.5 1342.2
1306(33) 0.000918 1161.2 1341.3
1320(34) 0.000865 1160.9 1340.1
1355(34) 0.000865 1160.6 1338.5
1395(35) 0.000816 1160.3 1336.7
1361(34) 0.000865 1160.0 1334.4
1274(33) 0.000918 1159.7 1331.6
1332(34) 0.000865 1159.4 1328.0
1329(34) 0.000865 1159.1 1323.6
1334(34) 0.000865 1158.8 1318.5
1323(34) 0.000865 1158.5 1312.9
1360(34) 0.000865 1158.3 1307.0
1329(34) 0.000865 1158.0 1300.8
1351(34) 0.000865 1157.7 1294.3
1264(33) 0.000918 1157.4 1287.4
1263(33) 0.000918 1157.1 1280.4
1296(33) 0.000918 1156.8 1273.7
1276(32) 0.000977 1156.5 1267.7
1268(32) 0.000977 1156.2 1263.0
1256(31) 0.001041 1155.9 1259.9
1284(32) 0.000977 1155.6 1258.7
1271(32) 0.000977 1155.3 1259.5
1265(31) 0.001041 1155.1 1262.4
1276(32) 0.000977 1154.8 1267.1
1308(32) 0.000977 1154.5 1273.4
1297(32) 0.000977 1154.2 1280.8
1293(32) 0.000977 1153.9 1289.1
1307(32) 0.000977 1153.6 1297.1
1317(32) 0.000977 1153.3 1304.7
1334(32) 0.000977 1153.1 1311.6
1374(33) 0.000918 1152.8 1318.0
1383(33) 0.000918 1152.5 1324.1
1382(33) 0.000918 1152.2 1330.1
1410(33) 0.000918 1151.9 1336.4
1402(33) 0.000918 1151.6 1343.0
1369(33) 0.000918 1151.4 1349.9
1443(34) 0.000865 1151.1 1357.2
1408(33) 0.000918 1150.8 1364.8
1488(34) 0.000865 1150.5 1372.7
1448(34) 0.000865 1150.2 1380.8
1404(33) 0.000918 1150.0 1388.6
1412(33) 0.000918 1149.7 1395.8
1486(34) 0.000865 1149.4 1401.5
1483(34) 0.000865 1149.1 1405.5
1476(34) 0.000865 1148.8 1407.9
1404(33) 0.000918 1148.6 1408.8
1409(33) 0.000918 1148.3 1408.6
1389(33) 0.000918 1148.0 1407.3
1453(34) 0.000865 1147.7 1405.0
1426(33) 0.000918 1147.5 1401.6
1485(34) 0.000865 1147.2 1397.3
1400(33) 0.000918 1146.9 1392.2
1402(33) 0.000918 1146.6 1386.8
1408(33) 0.000918 1146.4 1381.5
1387(33) 0.000918 1146.1 1376.7
1397(33) 0.000918 1145.8 1372.4
1427(33) 0.000918 1145.6 1368.8
1321(32) 0.000977 1145.3 1365.7
1374(33) 0.000918 1145.0 1363.3
1463(34) 0.000865 1144.8 1361.5
1382(33) 0.000918 1144.5 1360.6
1388(33) 0.000918 1144.2 1360.3
1399(33) 0.000918 1144.0 1360.4
1397(33) 0.000918 1143.7 1360.6
1387(33) 0.000918 1143.4 1360.6
1443(34) 0.000865 1143.2 1360.2
1410(33) 0.000918 1142.9 1359.3
1354(33) 0.000918 1142.6 1358.0
1342(32) 0.000977 1142.4 1356.3
1316(32) 0.000977 1142.1 1354.1
1306(32) 0.000977 1141.9 1351.6
1266(31) 0.001041 1141.6 1349.0
1307(32) 0.000977 1141.3 1346.4
1342(32) 0.000977 1141.1 1344.9
1369(33) 0.000918 1140.8 1345.1
1317(32) 0.000977 1140.6 1348.1
1341(32) 0.000977 1140.3 1354.6
1370(33) 0.000918 1140.1 1365.0
1375(33) 0.000918 1139.8 1379.6
1400(33) 0.000918 1139.5 1398.0
1452(34) 0.000865 1139.3 1419.8
1468(34) 0.000865 1139.0 1444.0
1453(34) 0.000865 1138.8 1469.3
1458(34) 0.000865 1138.5 1494.0
1506(34) 0.000865 1138.3 1516.6
1521(35) 0.000816 1138.0 1535.6
1527(35) 0.000816 1137.8 1550.1
1556(35) 0.000816 1137.5 1559.6
1548(35) 0.000816 1137.3 1564.6
1619(36) 0.000772 1137. 1565.
1531(35) 0.000816 1136.8 1561.6
1513(34) 0.000865 1136.5 1554.3
1474(34) 0.000865 1136.3 1543.3
1511(34) 0.000865 1136.1 1529.0
1466(34) 0.000865 1135.8 1512.0
1421(33) 0.000918 1135.6 1493.3
1429(33) 0.000918 1135.3 1473.9
1447(34) 0.000865 1135.1 1454.5
1415(33) 0.000918 1134.9 1435.7
1391(33) 0.000918 1134.6 1417.9
1371(33) 0.000918 1134.4 1401.3
1348(33) 0.000918 1134.1 1386.2
1332(32) 0.000977 1133.9 1372.7
1378(33) 0.000918 1133.7 1361.0
1364(33) 0.000918 1133.4 1351.1
1348(33) 0.000918 1133.2 1342.8
1342(32) 0.000977 1133.0 1335.9
1306(32) 0.000977 1132.7 1330.1
1299(32) 0.000977 1132.5 1325.0
1324(32) 0.000977 1132.3 1320.3
1310(32) 0.000977 1132.0 1315.8
1287(32) 0.000977 1131.8 1311.1
1333(32) 0.000977 1131.6 1306.0
1224(31) 0.001041 1131.4 1300.0
1304(32) 0.000977 1131.1 1293.0
1233(31) 0.001041 1130.9 1284.9
1257(43) 0.000541 1131. 1276.
1269(31) 0.001041 1130.5 1266.1
1277(31) 0.001041 1130.2 1256.3
1228(31) 0.001041 1130.0 1246.8
1214(31) 0.001041 1129.8 1237.7
1187(30) 0.001111 1129.6 1229.4
1222(31) 0.001041 1129.3 1222.0
1191(30) 0.001111 1129.1 1215.7
1200(30) 0.001111 1128.9 1210.3
1172(30) 0.001111 1128.7 1205.9
1217(31) 0.001041 1128.5 1202.4
1223(31) 0.001041 1128.3 1199.5
1203(30) 0.001111 1128.0 1197.2
1179(30) 0.001111 1127.8 1195.3
1158(30) 0.001111 1127.6 1194.0
1115(29) 0.001189 1127.4 1193.2
1167(30) 0.001111 1127.2 1193.1
1180(30) 0.001111 1127.0 1193.8
1216(31) 0.001041 1126.8 1195.6
1212(31) 0.001041 1126.6 1198.5
1211(31) 0.001041 1126.4 1202.6
1207(31) 0.001041 1126.2 1208.1
1204(30) 0.001111 1126.0 1215.0
1201(30) 0.001111 1125.8 1223.3
1247(31) 0.001041 1125.6 1232.8
1254(31) 0.001041 1125.4 1243.6
1250(31) 0.001041 1125.2 1255.4
1235(31) 0.001041 1125.0 1268.1
1205(30) 0.001111 1124.8 1281.4
1241(31) 0.001041 1124.6 1295.4
1284(31) 0.001041 1124.4 1309.8
1309(32) 0.000977 1124.2 1324.6
1308(32) 0.000977 1124.0 1339.4
1313(32) 0.000977 1123.8 1354.3
1369(33) 0.000918 1123.6 1368.9
1379(33) 0.000918 1123.4 1383.2
1385(33) 0.000918 1123.2 1397.3
1396(33) 0.000918 1123.0 1411.6
1411(33) 0.000918 1122.8 1426.2
1416(33) 0.000918 1122.6 1441.2
1460(34) 0.000865 1122.4 1456.3
1452(34) 0.000865 1122.3 1471.3
1469(34) 0.000865 1122.1 1485.8
1524(34) 0.000865 1121.9 1499.2
1543(35) 0.000816 1121.7 1511.0
1567(35) 0.000816 1121.5 1520.5
1567(35) 0.000816 1121.3 1527.1
1503(34) 0.000865 1121.2 1529.7
1523(34) 0.000865 1121.0 1527.7
1531(34) 0.000865 1120.8 1520.6
1530(34) 0.000865 1120.6 1508.6
1506(34) 0.000865 1120.5 1492.4
1513(34) 0.000865 1120.3 1473.3
1482(34) 0.000865 1120.1 1452.6
1485(34) 0.000865 1119.9 1431.8
1433(33) 0.000918 1119.8 1412.0
1371(33) 0.000918 1119.6 1394.0
1349(32) 0.000977 1119.4 1378.3
1349(32) 0.000977 1119.3 1365.2
1356(32) 0.000977 1119.1 1354.4
1339(32) 0.000977 1118.9 1345.8
1356(32) 0.000977 1118.8 1338.4
1311(32) 0.000977 1118.6 1331.4
1288(32) 0.000977 1118.4 1324.3
1266(31) 0.001041 1118.3 1316.4
1308(32) 0.000977 1118.1 1307.3
1279(31) 0.001041 1117.9 1297.0
1262(31) 0.001041 1117.8 1285.9
1207(31) 0.001041 1117.6 1274.1
1221(31) 0.001041 1117.5 1261.9
1200(30) 0.001111 1117.3 1249.7
1189(30) 0.001111 1117.2 1237.9
1218(31) 0.001041 1117.0 1226.7
1263(31) 0.001041 1116.9 1216.6
1208(31) 0.001041 1116.7 1207.7
1191(30) 0.001111 1116.6 1200.4
1195(30) 0.001111 1116.4 1194.6
1216(31) 0.001041 1116.3 1190.6
1169(30) 0.001111 1116.1 1188.6
1178(30) 0.001111 1116.0 1188.5
1217(31) 0.001041 1115.8 1190.5
1248(31) 0.001041 1115.7 1194.6
1199(30) 0.001111 1115.5 1200.6
1197(30) 0.001111 1115.4 1208.7
1219(31) 0.001041 1115.3 1218.6
1233(31) 0.001041 1115.1 1230.1
1266(31) 0.001041 1115.0 1243.2
1292(32) 0.000977 1114.8 1257.4
1270(31) 0.001041 1114.7 1272.5
1293(32) 0.000977 1114.6 1287.9
1331(32) 0.000977 1114.4 1303.1
1308(32) 0.000977 1114.3 1317.7
1321(32) 0.000977 1114.2 1330.9
1357(32) 0.000977 1114.0 1342.3
1332(32) 0.000977 1113.9 1351.7
1361(32) 0.000977 1113.8 1358.8
1339(32) 0.000977 1113.7 1363.9
1329(32) 0.000977 1113.5 1367.0
1418(33) 0.000918 1113.4 1368.5
1363(32) 0.000977 1113.3 1368.3
1384(33) 0.000918 1113.2 1366.8
1367(32) 0.000977 1113.0 1364.0
1330(32) 0.000977 1112.9 1360.4
1381(33) 0.000918 1112.8 1356.0
1345(32) 0.000977 1112.7 1351.5
1304(32) 0.000977 1112.6 1347.0
1318(32) 0.000977 1112.5 1342.9
1301(32) 0.000977 1112.3 1339.3
1299(32) 0.000977 1112.2 1336.4
1326(32) 0.000977 1112.1 1334.1
1319(32) 0.000977 1112.0 1332.6
1313(32) 0.000977 1111.9 1331.8
1316(32) 0.000977 1111.8 1331.7
1336(32) 0.000977 1111.7 1332.1
1344(32) 0.000977 1111.6 1332.9
1346(32) 0.000977 1111.5 1333.8
1335(32) 0.000977 1111.4 1334.5
1351(32) 0.000977 1111.3 1334.7
1343(32) 0.000977 1111.2 1334.2
1330(32) 0.000977 1111.1 1332.9
1308(32) 0.000977 1111.0 1330.5
1325(32) 0.000977 1110.9 1326.7
1294(31) 0.001041 1110.8 1321.4
1289(31) 0.001041 1110.7 1314.3
1284(31) 0.001041 1110.6 1305.6
1273(31) 0.001041 1110.5 1295.2
1316(32) 0.000977 1110.4 1283.7
1320(32) 0.000977 1110.3 1271.3
1284(31) 0.001041 1110.2 1258.5
1262(31) 0.001041 1110.1 1245.7
1235(31) 0.001041 1110.0 1233.2
1219(31) 0.001041 1109.9 1221.3
1205(30) 0.001111 1109.9 1210.2
1243(31) 0.001041 1109.8 1200.2
1221(31) 0.001041 1109.7 1191.4
1207(30) 0.001111 1109.6 1183.9
1166(30) 0.001111 1109.5 1177.8
1150(30) 0.001111 1109.4 1173.2
1169(30) 0.001111 1109.4 1170.1
1189(30) 0.001111 1109.3 1168.5
1201(30) 0.001111 1109.2 1168.4
1219(31) 0.001041 1109.1 1169.8
1212(30) 0.001111 1109.1 1172.7
1206(30) 0.001111 1109.0 1176.9
1169(30) 0.001111 1108.9 1182.4
1181(30) 0.001111 1108.8 1189.0
1197(30) 0.001111 1108.8 1196.6
1226(31) 0.001041 1108.7 1205.0
1250(31) 0.001041 1108.6 1213.9
1266(31) 0.001041 1108.6 1223.2
1264(31) 0.001041 1108.5 1232.6
1265(31) 0.001041 1108.4 1241.5
1290(31) 0.001041 1108.4 1249.9
1282(31) 0.001041 1108.3 1257.3
1255(31) 0.001041 1108.3 1263.7
1259(31) 0.001041 1108.2 1268.8
1366(32) 0.000977 1108.1 1272.7
1368(32) 0.000977 1108.1 1275.4
1321(32) 0.000977 1108.0 1277.1
1322(32) 0.000977 1108.0 1277.7
1320(32) 0.000977 1107.9 1277.3
1292(31) 0.001041 1107.9 1276.0
1290(31) 0.001041 1107.8 1274.0
1306(32) 0.000977 1107.8 1271.3
1315(32) 0.000977 1107.7 1268.3
1290(31) 0.001041 1107.7 1265.1
1283(31) 0.001041 1107.6 1261.9
1304(32) 0.000977 1107.6 1258.9
1260(31) 0.001041 1107.5 1256.1
1230(31) 0.001041 1107.5 1253.5
1227(31) 0.001041 1107.4 1251.3
1240(31) 0.001041 1107.4 1249.6
1251(31) 0.001041 1107.4 1248.0
1259(31) 0.001041 1107.3 1246.8
1248(31) 0.001041 1107.3 1245.8
1266(31) 0.001041 1107.3 1244.9
1216(30) 0.001111 1107.2 1243.9
1187(30) 0.001111 1107.2 1242.8
1208(30) 0.001111 1107.2 1241.5
1228(31) 0.001041 1107.1 1239.8
1223(31) 0.001041 1107.1 1237.7
1203(30) 0.001111 1107.1 1235.1
1165(30) 0.001111 1107.0 1232.0
1176(30) 0.001111 1107.0 1228.2
1148(30) 0.001111 1107.0 1223.7
1180(30) 0.001111 1106.9 1218.7
1213(30) 0.001111 1106.9 1213.1
1220(31) 0.001041 1106.9 1207.1
1167(30) 0.001111 1106.9 1201.0
1131(29) 0.001189 1106.9 1194.8
1155(30) 0.001111 1106.8 1188.7
1149(30) 0.001111 1106.8 1183.0
1152(30) 0.001111 1106.8 1177.6
1169(30) 0.001111 1106.8 1172.8
1170(30) 0.001111 1106.8 1168.7
1202(30) 0.001111 1106.8 1165.3
1117(29) 0.001189 1106.7 1162.8
1128(29) 0.001189 1106.7 1161.3
1116(29) 0.001189 1106.7 1160.7
1109(29) 0.001189 1106.7 1161.3
1161(30) 0.001111 1106.7 1163.0
1178(31) 0.001041 1106.7 1166.0
1138(30) 0.001111 1106.7 1170.3
1134(30) 0.001111 1106.7 1176.1
1185(31) 0.001041 1106.7 1183.3
1165(31) 0.001041 1106.7 1192.0
1201(31) 0.001041 1106.7 1202.4
1234(32) 0.000977 1106.7 1214.4
1216(31) 0.001041 1106.7 1228.0
1197(31) 0.001041 1106.7 1243.2
1250(32) 0.000977 1106.7 1259.8
1289(32) 0.000977 1106.7 1277.8
1328(33) 0.000918 1106.7 1296.8
1370(33) 0.000918 1106.7 1316.7
1330(33) 0.000918 1106.7 1337.1
1385(33) 0.000918 1106.7 1357.8
1441(34) 0.000865 1106.7 1378.3
1431(34) 0.000865 1106.7 1398.5
1423(34) 0.000865 1106.7 1417.8
1497(35) 0.000816 1106.7 1436.0
1442(34) 0.000865 1106.7 1452.7
1499(35) 0.000816 1106.8 1467.4
1463(34) 0.000865 1106.8 1479.8
1476(35) 0.000816 1106.8 1489.6
1487(35) 0.000816 1106.8 1497.0
1523(35) 0.000816 1106.8 1501.8
1566(36) 0.000772 1107. 1504.
1556(35) 0.000816 1106.8 1505.1
1568(36) 0.000772 1107. 1504.
1516(35) 0.000816 1106.9 1501.3
1510(35) 0.000816 1106.9 1497.3
1479(35) 0.000816 1106.9 1492.0
1483(35) 0.000816 1107.0 1485.6
1522(35) 0.000816 1107.0 1478.3
1526(35) 0.000816 1107.0 1470.3
1439(34) 0.000865 1107.0 1461.6
1449(34) 0.000865 1107.1 1452.3
1460(34) 0.000865 1107.1 1442.4
1447(34) 0.000865 1107.1 1431.9
1388(33) 0.000918 1107.2 1420.7
1442(34) 0.000865 1107.2 1409.0
1492(35) 0.000816 1107.2 1397.0
1398(34) 0.000865 1107.3 1384.7
1360(33) 0.000918 1107.3 1372.6
1351(33) 0.000918 1107.3 1360.6
1356(33) 0.000918 1107.4 1348.7
1376(33) 0.000918 1107.4 1337.3
1333(33) 0.000918 1107.4 1326.2
1312(33) 0.000918 1107.5 1315.6
1303(32) 0.000977 1107.5 1305.5
1264(32) 0.000977 1107.6 1296.0
1231(31) 0.001041 1107.6 1287.1
1270(32) 0.000977 1107.6 1279.0
1303(32) 0.000977 1107.7 1271.3
1262(32) 0.000977 1107.7 1264.2
1235(32) 0.000977 1107.8 1257.8
1228(31) 0.001041 1107.8 1252.3
1252(32) 0.000977 1107.9 1247.7
1267(32) 0.000977 1107.9 1244.2
1248(32) 0.000977 1108.0 1242.0
1211(31) 0.001041 1108.0 1241.2
1270(32) 0.000977 1108.1 1242.0
1212(31) 0.001041 1108.1 1244.5
1226(31) 0.001041 1108.2 1248.7
1208(31) 0.001041 1108.2 1254.8
1273(32) 0.000977 1108.3 1262.5
1329(33) 0.000918 1108.3 1271.8
1332(33) 0.000918 1108.4 1282.5
1318(33) 0.000918 1108.4 1294.3
1259(32) 0.000977 1108.5 1307.0
1302(32) 0.000977 1108.6 1320.1
1293(32) 0.000977 1108.6 1333.4
1318(33) 0.000918 1108.7 1346.2
1324(33) 0.000918 1108.7 1358.3
1307(32) 0.000977 1108.8 1369.1
1341(33) 0.000918 1108.9 1377.9
1344(33) 0.000918 1108.9 1384.5
1390(33) 0.000918 1109.0 1388.4
1343(33) 0.000918 1109.1 1389.2
1314(33) 0.000918 1109.1 1386.9
1360(33) 0.000918 1109.2 1381.7
1386(33) 0.000918 1109.3 1373.7
1292(32) 0.000977 1109.3 1363.5
1330(33) 0.000918 1109.4 1351.5
1297(32) 0.000977 1109.5 1338.3
1332(33) 0.000918 1109.5 1324.2
1296(32) 0.000977 1109.6 1309.9
1278(32) 0.000977 1109.7 1295.5
1296(32) 0.000977 1109.8 1281.5
1254(32) 0.000977 1109.8 1268.2
1235(32) 0.000977 1109.9 1255.7
1232(31) 0.001041 1110.0 1244.3
1208(31) 0.001041 1110.1 1234.1
1248(32) 0.000977 1110.1 1225.0
1220(31) 0.001041 1110.2 1217.1
1253(32) 0.000977 1110.3 1210.5
1196(31) 0.001041 1110.4 1205.1
1203(31) 0.001041 1110.4 1200.9
1160(31) 0.001041 1110.5 1197.8
1216(31) 0.001041 1110.6 1196.0
1204(25) 0.001600 1110.7 1195.3
1225(32) 0.000977 1110.8 1195.6
1220(32) 0.000977 1110.9 1196.9
1185(32) 0.000977 1110.9 1199.2
1227(32) 0.000977 1111.0 1202.3
1240(32) 0.000977 1111.1 1206.0
1253(33) 0.000918 1111.2 1210.4
1274(33) 0.000918 1111.3 1215.1
1241(32) 0.000977 1111.4 1220.1
1265(33) 0.000918 1111.4 1225.2
1240(32) 0.000977 1111.5 1230.2
1271(33) 0.000918 1111.6 1235.0
1282(33) 0.000918 1111.7 1239.3
1319(33) 0.000918 1111.8 1243.1
1310(33) 0.000918 1111.9 1246.2
1311(33) 0.000918 1112.0 1248.6
1334(34) 0.000865 1112.1 1250.1
1274(33) 0.000918 1112.2 1250.6
1274(33) 0.000918 1112.3 1250.2
1228(32) 0.000977 1112.4 1248.8
1282(33) 0.000918 1112.4 1246.5
1285(33) 0.000918 1112.5 1243.4
1323(33) 0.000918 1112.6 1239.7
1306(33) 0.000918 1112.7 1235.7
1300(33) 0.000918 1112.8 1231.5
1272(33) 0.000918 1112.9 1227.5
1260(33) 0.000918 1113.0 1223.6
1239(32) 0.000977 1113.1 1220.2
1222(32) 0.000977 1113.2 1217.4
1249(32) 0.000977 1113.3 1215.2
1257(33) 0.000918 1113.4 1213.8
1181(32) 0.000977 1113.5 1213.2
1176(31) 0.001041 1113.6 1213.3
1250(32) 0.000977 1113.7 1214.2
1222(32) 0.000977 1113.8 1215.8
1208(32) 0.000977 1113.9 1218.0
1182(32) 0.000977 1114.0 1220.8
1198(32) 0.000977 1114.1 1224.0
1253(33) 0.000918 1114.2 1227.7
1217(32) 0.000977 1114.3 1231.6
1219(32) 0.000977 1114.4 1235.8
1211(32) 0.000977 1114.5 1240.1
1202(32) 0.000977 1114.6 1244.4
1230(32) 0.000977 1114.8 1248.7
1200(32) 0.000977 1114.9 1252.9
1233(32) 0.000977 1115.0 1257.2
1260(33) 0.000918 1115.1 1261.3
1278(33) 0.000918 1115.2 1265.4
1225(32) 0.000977 1115.3 1269.5
1339(34) 0.000865 1115.4 1273.7
1278(33) 0.000918 1115.5 1278.0
1321(33) 0.000918 1115.6 1282.3
1304(33) 0.000918 1115.7 1286.8
1301(33) 0.000918 1115.8 1291.3
1352(34) 0.000865 1115.9 1295.9
1337(34) 0.000865 1116.0 1300.5
1295(33) 0.000918 1116.2 1305.0
1266(33) 0.000918 1116.3 1309.3
1304(33) 0.000918 1116.4 1313.4
1366(34) 0.000865 1116.5 1317.2
1311(33) 0.000918 1116.6 1320.5
1355(34) 0.000865 1116.7 1323.3
1379(34) 0.000865 1116.8 1325.6
1331(34) 0.000865 1116.9 1327.4
1325(33) 0.000918 1117.0 1328.9
1325(33) 0.000918 1117.2 1329.9
1345(34) 0.000865 1117.3 1330.6
1357(34) 0.000865 1117.4 1331.0
1318(33) 0.000918 1117.5 1331.1
1329(34) 0.000865 1117.6 1330.8
1344(34) 0.000865 1117.7 1330.3
1354(34) 0.000865 1117.8 1329.3
1279(33) 0.000918 1118.0 1328.0
1295(33) 0.000918 1118.1 1326.2
1338(34) 0.000865 1118.2 1323.9
1325(33) 0.000918 1118.3 1320.9
1363(34) 0.000865 1118.4 1317.3
1307(33) 0.000918 1118.5 1313.1
1293(33) 0.000918 1118.6 1308.1
1225(32) 0.000977 1118.8 1302.4
1261(33) 0.000918 1118.9 1296.2
1345(34) 0.000865 1119.0 1289.6
1256(33) 0.000918 1119.1 1282.6
1274(33) 0.000918 1119.2 1275.5
1281(33) 0.000918 1119.3 1268.6
1271(33) 0.000918 1119.5 1261.7
1241(32) 0.000977 1119.6 1255.1
1221(32) 0.000977 1119.7 1248.9
1271(33) 0.000918 1119.8 1243.2
1179(32) 0.000977 1119.9 1238.1
1236(32) 0.000977 1120.0 1233.7
1207(32) 0.000977 1120.2 1230.1
1218(32) 0.000977 1120.3 1227.3
1184(32) 0.000977 1120.4 1225.3
1242(32) 0.000977 1120.5 1224.1
1177(32) 0.000977 1120.6 1223.8
1158(31) 0.001041 1120.8 1224.2
1151(31) 0.001041 1120.9 1225.2
1216(32) 0.000977 1121.0 1226.8
1165(31) 0.001041 1121.1 1229.0
1204(32) 0.000977 1121.2 1231.5
1235(31) 0.001041 1121.3 1234.3
1224(31) 0.001041 1121.5 1237.2
1201(31) 0.001041 1121.6 1240.3
1224(31) 0.001041 1121.7 1243.4
1200(31) 0.001041 1121.8 1246.4
1226(31) 0.001041 1121.9 1249.5
1219(31) 0.001041 1122.1 1252.4
1282(32) 0.000977 1122.2 1255.3
1245(32) 0.000977 1122.3 1258.0
1226(31) 0.001041 1122.4 1260.7
1338(33) 0.000918 1122.5 1263.2
1226(31) 0.001041 1122.6 1265.6
1263(32) 0.000977 1122.8 1267.8
1242(31) 0.001041 1122.9 1269.8
1289(32) 0.000977 1123.0 1271.8
1261(32) 0.000977 1123.1 1273.5
1296(32) 0.000977 1123.2 1275.2
1259(32) 0.000977 1123.3 1276.6
1275(32) 0.000977 1123.5 1278.0
1269(32) 0.000977 1123.6 1279.3
1276(32) 0.000977 1123.7 1280.5
1283(32) 0.000977 1123.8 1281.8
1300(32) 0.000977 1123.9 1283.2
1273(32) 0.000977 1124.0 1284.9
1310(32) 0.000977 1124.2 1287.0
1313(32) 0.000977 1124.3 1289.7
1311(32) 0.000977 1124.4 1292.9
1331(33) 0.000918 1124.5 1297.0
1350(33) 0.000918 1124.6 1301.7
1266(32) 0.000977 1124.7 1307.3
1320(32) 0.000977 1124.9 1313.6
1341(33) 0.000918 1125.0 1320.7
1342(33) 0.000918 1125.1 1328.6
1363(33) 0.000918 1125.2 1337.2
1327(33) 0.000918 1125.3 1346.3
1336(33) 0.000918 1125.4 1355.9
1394(33) 0.000918 1125.5 1365.8
1394(33) 0.000918 1125.7 1375.9
1480(34) 0.000865 1125.8 1386.0
1420(34) 0.000865 1125.9 1395.9
1444(34) 0.000865 1126.0 1405.7
1473(34) 0.000865 1126.1 1415.1
1518(35) 0.000816 1126.2 1423.9
1523(35) 0.000816 1126.3 1432.0
1498(35) 0.000816 1126.4 1439.3
1512(35) 0.000816 1126.6 1445.6
1473(34) 0.000865 1126.7 1450.8
1514(35) 0.000816 1126.8 1454.8
1505(35) 0.000816 1126.9 1457.5
1462(34) 0.000865 1127.0 1458.9
1492(35) 0.000816 1127.1 1459.0
1479(34) 0.000865 1127.2 1457.6
1467(34) 0.000865 1127.3 1454.8
1479(34) 0.000865 1127.4 1450.8
1465(34) 0.000865 1127.5 1445.3
1467(34) 0.000865 1127.6 1438.6
1432(34) 0.000865 1127.8 1430.8
1411(34) 0.000865 1127.9 1422.0
1427(34) 0.000865 1128.0 1412.6
1402(33) 0.000918 1128.1 1402.6
1418(34) 0.000865 1128.2 1392.5
1366(33) 0.000918 1128.3 1382.4
1403(33) 0.000918 1128.4 1372.5
1451(34) 0.000865 1128.5 1363.1
1404(33) 0.000918 1128.6 1354.1
1330(33) 0.000918 1128.7 1345.9
1343(33) 0.000918 1128.8 1338.3
1343(33) 0.000918 1128.9 1331.5
1371(33) 0.000918 1129.0 1325.4
1348(33) 0.000918 1129.1 1320.0
1307(32) 0.000977 1129.2 1315.2
1280(32) 0.000977 1129.3 1310.9
1295(32) 0.000977 1129.4 1307.2
1278(32) 0.000977 1129.5 1303.8
1242(31) 0.001041 1129.6 1300.8
1281(32) 0.000977 1129.7 1298.2
1346(33) 0.000918 1129.8 1295.8
1282(32) 0.000977 1129.9 1293.8
1303(32) 0.000977 1130.0 1292.0
1333(33) 0.000918 1130.1 1290.6
1265(32) 0.000977 1130.2 1289.4
1284(32) 0.000977 1130.3 1288.7
1301(32) 0.000977 1130.4 1288.2
1253(32) 0.000977 1130.5 1288.2
1211(31) 0.001041 1130.6 1288.3
1269(32) 0.000977 1130.7 1288.8
1284(32) 0.000977 1130.8 1289.6
1238(31) 0.001041 1130.9 1290.8
1223(31) 0.001041 1131.0 1292.2
1278(32) 0.000977 1131.0 1294.1
1252(32) 0.000977 1131.1 1296.1
1293(32) 0.000977 1131.2 1298.4
1341(33) 0.000918 1131.3 1301.0
1290(32) 0.000977 1131.4 1303.9
1357(33) 0.000918 1131.5 1307.0
1331(33) 0.000918 1131.6 1310.5
1349(33) 0.000918 1131.7 1314.2
1292(32) 0.000977 1131.8 1318.2
1303(32) 0.000977 1131.8 1322.5
1205(44) 0.000517 1132. 1327.
1301(31) 0.001041 1132.0 1331.4
1343(32) 0.000977 1132.1 1336.0
1339(32) 0.000977 1132.2 1340.4
1301(31) 0.001041 1132.3 1344.7
1300(31) 0.001041 1132.3 1348.5
1313(32) 0.000977 1132.4 1351.9
1321(32) 0.000977 1132.5 1354.6
1321(32) 0.000977 1132.6 1356.5
1343(32) 0.000977 1132.7 1357.4
1349(32) 0.000977 1132.7 1357.3
1334(32) 0.000977 1132.8 1356.3
1356(32) 0.000977 1132.9 1354.0
1351(32) 0.000977 1133.0 1350.6
1336(32) 0.000977 1133.0 1346.1
1296(31) 0.001041 1133.1 1340.7
1282(31) 0.001041 1133.2 1334.5
1323(32) 0.000977 1133.3 1327.7
1295(31) 0.001041 1133.3 1320.3
1298(31) 0.001041 1133.4 1312.6
1298(31) 0.001041 1133.5 1304.8
1268(31) 0.001041 1133.5 1296.7
1284(31) 0.001041 1133.6 1288.5
1283(31) 0.001041 1133.7 1280.4
1263(31) 0.001041 1133.7 1272.4
1250(31) 0.001041 1133.8 1264.7
1249(31) 0.001041 1133.9 1257.3
1285(31) 0.001041 1133.9 1250.4
1210(30) 0.001111 1134.0 1243.8
1196(30) 0.001111 1134.1 1237.7
1234(31) 0.001041 1134.1 1232.0
1229(31) 0.001041 1134.2 1226.9
1204(30) 0.001111 1134.3 1222.4
1208(30) 0.001111 1134.3 1218.4
1200(30) 0.001111 1134.4 1215.1
1181(30) 0.001111 1134.4 1212.3
1236(31) 0.001041 1134.5 1210.2
1210(30) 0.001111 1134.6 1208.7
1242(31) 0.001041 1134.6 1207.7
1245(31) 0.001041 1134.7 1207.4
1219(30) 0.001111 1134.7 1207.7
1253(31) 0.001041 1134.8 1208.6
1194(30) 0.001111 1134.8 1210.0
1195(30) 0.001111 1134.9 1212.0
1233(31) 0.001041 1134.9 1214.5
1240(31) 0.001041 1135.0 1217.4
1194(30) 0.001111 1135.0 1220.9
1222(30) 0.001111 1135.1 1224.7
1193(30) 0.001111 1135.1 1228.9
1214(30) 0.001111 1135.2 1233.4
1236(31) 0.001041 1135.2 1238.2
1242(31) 0.001041 1135.3 1243.2
1234(31) 0.001041 1135.3 1248.4
1235(31) 0.001041 1135.4 1253.6
1232(31) 0.001041 1135.4 1258.8
1239(31) 0.001041 1135.4 1263.9
1225(30) 0.001111 1135.5 1268.9
1276(31) 0.001041 1135.5 1273.7
1302(31) 0.001041 1135.6 1278.3
1319(32) 0.000977 1135.6 1282.6
1350(32) 0.000977 1135.6 1286.6
1303(31) 0.001041 1135.7 1290.3
1319(32) 0.000977 1135.7 1293.7
1311(32) 0.000977 1135.7 1296.8
1296(31) 0.001041 1135.8 1299.6
1310(32) 0.000977 1135.8 1302.1
1316(32) 0.000977 1135.8 1304.4
1288(31) 0.001041 1135.9 1306.3
1281(31) 0.001041 1135.9 1308.0
1296(31) 0.001041 1135.9 1309.4
1305(32) 0.000977 1136.0 1310.5
1285(31) 0.001041 1136.0 1311.3
1287(31) 0.001041 1136.0 1311.7
1346(32) 0.000977 1136.1 1311.8
1325(32) 0.000977 1136.1 1311.5
1313(32) 0.000977 1136.1 1310.9
1310(32) 0.000977 1136.1 1309.8
1300(31) 0.001041 1136.1 1308.4
1311(32) 0.000977 1136.2 1306.6
1327(32) 0.000977 1136.2 1304.4
1274(31) 0.001041 1136.2 1302.0
1251(31) 0.001041 1136.2 1299.3
1248(31) 0.001041 1136.2 1296.5
1282(31) 0.001041 1136.3 1293.6
1302(31) 0.001041 1136.3 1290.7
1244(31) 0.001041 1136.3 1287.9
1246(31) 0.001041 1136.3 1285.2
1245(31) 0.001041 1136.3 1282.8
1245(31) 0.001041 1136.3 1280.6
1310(32) 0.000977 1136.3 1278.6
1285(31) 0.001041 1136.4 1277.0
1285(31) 0.001041 1136.4 1275.6
1277(31) 0.001041 1136.4 1274.6
1262(31) 0.001041 1136.4 1273.8
1271(31) 0.001041 1136.4 1273.3
1286(31) 0.001041 1136.4 1272.9
1279(31) 0.001041 1136.4 1272.8
1286(31) 0.001041 1136.4 1272.8
1251(31) 0.001041 1136.4 1272.8
1313(32) 0.000977 1136.4 1272.9
1265(25) 0.001600 1136.4 1273.0
1244(31) 0.001041 1136.4 1273.0
1258(31) 0.001041 1136.4 1272.9
1310(31) 0.001041 1136.4 1272.7
1302(31) 0.001041 1136.4 1272.3
1274(31) 0.001041 1136.4 1271.6
1312(31) 0.001041 1136.4 1270.7
1320(32) 0.000977 1136.4 1269.5
1262(31) 0.001041 1136.4 1268.0
1294(31) 0.001041 1136.4 1266.4
1276(31) 0.001041 1136.4 1264.4
1233(30) 0.001111 1136.4 1262.4
1264(31) 0.001041 1136.4 1260.2
1261(31) 0.001041 1136.4 1257.9
1269(31) 0.001041 1136.4 1255.6
1266(31) 0.001041 1136.4 1253.5
1282(31) 0.001041 1136.3 1251.4
1249(31) 0.001041 1136.3 1249.6
1203(30) 0.001111 1136.3 1248.1
1219(30) 0.001111 1136.3 1246.9
1218(30) 0.001111 1136.3 1246.1
1232(30) 0.001111 1136.3 1245.8
1281(31) 0.001041 1136.3 1245.9
1233(30) 0.001111 1136.2 1246.6
1238(31) 0.001041 1136.2 1247.8
1256(31) 0.001041 1136.2 1249.7
1274(31) 0.001041 1136.2 1252.2
1267(31) 0.001041 1136.2 1255.3
1262(31) 0.001041 1136.2 1259.0
1296(31) 0.001041 1136.1 1263.5
1261(31) 0.001041 1136.1 1268.6
1251(31) 0.001041 1136.1 1274.3
1266(31) 0.001041 1136.1 1280.7
1294(31) 0.001041 1136.0 1287.7
1295(31) 0.001041 1136.0 1295.3
1292(31) 0.001041 1136.0 1303.6
1323(32) 0.000977 1136.0 1312.3
1311(31) 0.001041 1135.9 1321.5
1379(32) 0.000977 1135.9 1331.1
1353(32) 0.000977 1135.9 1341.0
1340(32) 0.000977 1135.9 1351.2
1351(32) 0.000977 1135.8 1361.5
1334(32) 0.000977 1135.8 1371.9
1387(32) 0.000977 1135.8 1382.2
1384(32) 0.000977 1135.7 1392.3
1389(32) 0.000977 1135.7 1402.0
1427(33) 0.000918 1135.7 1411.4
1365(32) 0.000977 1135.6 1420.2
1374(32) 0.000977 1135.6 1428.3
1386(32) 0.000977 1135.6 1435.7
1436(33) 0.000918 1135.5 1442.2
1489(34) 0.000865 1135.5 1447.9
1504(34) 0.000865 1135.5 1452.6
1486(34) 0.000865 1135.4 1456.3
1466(33) 0.000918 1135.4 1459.2
1493(34) 0.000865 1135.4 1461.0
1433(33) 0.000918 1135.3 1461.9
1463(33) 0.000918 1135.3 1461.8
1452(33) 0.000918 1135.3 1460.8
1456(33) 0.000918 1135.2 1458.9
1464(33) 0.000918 1135.2 1456.1
1454(33) 0.000918 1135.1 1452.6
1446(33) 0.000918 1135.1 1448.3
1455(33) 0.000918 1135.1 1443.4
1469(33) 0.000918 1135.0 1438.0
1403(33) 0.000918 1135.0 1432.0
1429(33) 0.000918 1134.9 1425.7
1489(34) 0.000865 1134.9 1419.0
1382(32) 0.000977 1134.9 1412.2
1407(33) 0.000918 1134.8 1405.2
1418(33) 0.000918 1134.8 1398.1
1389(32) 0.000977 1134.7 1391.0
1408(33) 0.000918 1134.7 1383.9
1403(33) 0.000918 1134.6 1377.0
1397(32) 0.000977 1134.6 1370.2
1377(32) 0.000977 1134.6 1363.6
1368(32) 0.000977 1134.5 1357.2
1354(32) 0.000977 1134.5 1351.1
1344(32) 0.000977 1134.4 1345.2
1322(32) 0.000977 1134.4 1339.7
1314(31) 0.001041 1134.3 1334.5
1338(32) 0.000977 1134.3 1329.6
1376(32) 0.000977 1134.2 1325.0
1324(32) 0.000977 1134.2 1320.7
1319(32) 0.000977 1134.2 1316.7
1283(31) 0.001041 1134.1 1313.1
1336(32) 0.000977 1134.1 1309.8
1299(31) 0.001041 1134.0 1306.7
1260(31) 0.001041 1134.0 1304.0
1282(31) 0.001041 1133.9 1301.5
1299(31) 0.001041 1133.9 1299.4
1295(31) 0.001041 1133.9 1297.5
1270(31) 0.001041 1133.8 1295.9
1324(32) 0.000977 1133.8 1294.7
1315(32) 0.000977 1133.7 1293.7
1300(31) 0.001041 1133.7 1293.2
1280(31) 0.001041 1133.6 1293.0
1308(31) 0.001041 1133.6 1293.2
1240(31) 0.001041 1133.5 1293.9
1312(31) 0.001041 1133.5 1295.1
1324(32) 0.000977 1133.5 1296.8
1303(32) 0.000977 1133.4 1299.0
1291(32) 0.000977 1133.4 1301.8
1312(32) 0.000977 1133.3 1305.2
1288(32) 0.000977 1133.3 1309.2
1329(32) 0.000977 1133.3 1313.8
1371(33) 0.000918 1133.2 1318.9
1362(32) 0.000977 1133.2 1324.7
1329(32) 0.000977 1133.1 1331.0
1399(33) 0.000918 1133.1 1337.8
1403(33) 0.000918 1133.1 1345.1
1401(33) 0.000918 1133.0 1352.8
1459(34) 0.000865 1133.0 1360.9
1354(32) 0.000977 1133.0 1369.3
1407(33) 0.000918 1132.9 1377.9
1372(33) 0.000918 1132.9 1386.7
1419(33) 0.000918 1132.8 1395.6
1444(33) 0.000918 1132.8 1404.5
1440(33) 0.000918 1132.8 1413.2
1466(34) 0.000865 1132.7 1421.7
1467(34) 0.000865 1132.7 1429.9
1429(33) 0.000918 1132.7 1437.7
1418(33) 0.000918 1132.7 1445.0
1462(34) 0.000865 1132.6 1451.6
1497(34) 0.000865 1132.6 1457.6
1492(34) 0.000865 1132.6 1462.8
1489(34) 0.000865 1132.5 1467.3
1514(34) 0.000865 1132.5 1470.9
1526(34) 0.000865 1132.5 1473.8
1530(34) 0.000865 1132.5 1475.8
1480(34) 0.000865 1132.5 1477.2
1499(34) 0.000865 1132.4 1477.8
1485(34) 0.000865 1132.4 1477.9
1457(34) 0.000865 1132.4 1477.4
1502(34) 0.000865 1132.4 1476.4
1449(34) 0.000865 1132.4 1475.0
1489(34) 0.000865 1132.3 1473.3
1434(33) 0.000918 1132.3 1471.2
1481(34) 0.000865 1132.3 1468.9
1484(34) 0.000865 1132.3 1466.4
1440(33) 0.000918 1132.3 1463.6
1454(34) 0.000865 1132.3 1460.7
1430(33) 0.000918 1132.3 1457.6
1437(33) 0.000918 1132.3 1454.3
1454(34) 0.000865 1132.3 1450.8
1440(33) 0.000918 1132.3 1447.1
1400(33) 0.000918 1132.3 1443.2
1416(33) 0.000918 1132.3 1439.1
1419(33) 0.000918 1132.3 1434.7
1417(33) 0.000918 1132.3 1430.0
1426(33) 0.000918 1132.3 1425.1
1372(33) 0.000918 1132.3 1419.9
1361(32) 0.000977 1132.3 1414.5
1354(32) 0.000977 1132.3 1408.8
1409(33) 0.000918 1132.3 1403.0
1397(33) 0.000918 1132.4 1396.9
1369(33) 0.000918 1132.4 1390.7
1338(32) 0.000977 1132.4 1384.4
1394(33) 0.000918 1132.4 1378.0
1339(32) 0.000977 1132.4 1371.6
1372(33) 0.000918 1132.5 1365.1
1340(32) 0.000977 1132.5 1358.6
1377(33) 0.000918 1132.5 1352.1
1342(32) 0.000977 1132.6 1345.7
1349(32) 0.000977 1132.6 1339.3
1357(32) 0.000977 1132.6 1333.1
1301(32) 0.000977 1132.7 1326.9
1320(32) 0.000977 1132.7 1320.9
1313(32) 0.000977 1132.8 1315.0
1270(31) 0.001041 1132.8 1309.2
1288(32) 0.000977 1132.9 1303.6
1312(32) 0.000977 1132.9 1298.2
1317(32) 0.000977 1133.0 1293.0
1310(32) 0.000977 1133.0 1288.0
1265(31) 0.001041 1133.1 1283.2
1265(31) 0.001041 1133.2 1278.6
1232(31) 0.001041 1133.2 1274.3
1241(31) 0.001041 1133.3 1270.1
1269(31) 0.001041 1133.4 1266.2
1238(31) 0.001041 1133.4 1262.6
1208(31) 0.001041 1133.5 1259.2
1214(31) 0.001041 1133.6 1256.1
1221(31) 0.001041 1133.7 1253.2
1235(31) 0.001041 1133.8 1250.6
1242(31) 0.001041 1133.9 1248.3
1263(31) 0.001041 1134.0 1246.3
1232(31) 0.001041 1134.1 1244.6
1215(31) 0.001041 1134.2 1243.1
1220(31) 0.001041 1134.3 1242.0
1285(32) 0.000977 1134.4 1241.3
1257(31) 0.001041 1134.5 1240.8
1258(31) 0.001041 1134.6 1240.7
1260(31) 0.001041 1134.7 1240.9
1252(31) 0.001041 1134.9 1241.5
1235(31) 0.001041 1135.0 1242.5
1257(31) 0.001041 1135.1 1243.8
1230(31) 0.001041 1135.3 1245.5
1196(30) 0.001111 1135.4 1247.6
1224(31) 0.001041 1135.6 1250.1
1280(31) 0.001041 1135.7 1253.0
1299(32) 0.000977 1135.9 1256.3
1286(32) 0.000977 1136.0 1260.0
1254(31) 0.001041 1136.2 1264.0
1263(31) 0.001041 1136.3 1268.4
1295(32) 0.000977 1136.5 1273.2
1261(31) 0.001041 1136.7 1278.4
1284(32) 0.000977 1136.9 1283.9
1300(32) 0.000977 1137.0 1289.7
1317(32) 0.000977 1137.2 1295.9
1318(32) 0.000977 1137.4 1302.3
1328(32) 0.000977 1137.6 1309.0
1295(32) 0.000977 1137.8 1315.9
1309(32) 0.000977 1138.0 1323.0
1302(32) 0.000977 1138.3 1330.4
1288(32) 0.000977 1138.5 1337.8
1344(32) 0.000977 1138.7 1345.4
1320(32) 0.000977 1138.9 1353.0
1381(33) 0.000918 1139.2 1360.7
1419(33) 0.000918 1139.4 1368.4
1397(33) 0.000918 1139.6 1376.0
1366(33) 0.000918 1139.9 1383.6
1389(33) 0.000918 1140.1 1391.0
1414(33) 0.000918 1140.4 1398.3
1406(33) 0.000918 1140.7 1405.4
1400(33) 0.000918 1140.9 1412.3
1399(33) 0.000918 1141.2 1419.0
1419(33) 0.000918 1141.5 1425.4
1421(33) 0.000918 1141.8 1431.5
1448(34) 0.000865 1142.1 1437.4
1490(34) 0.000865 1142.4 1443.0
1493(34) 0.000865 1142.7 1448.2
1495(34) 0.000865 1143.0 1453.1
1458(34) 0.000865 1143.3 1457.7
1484(34) 0.000865 1143.7 1462.0
1489(34) 0.000865 1144.0 1466.0
1479(34) 0.000865 1144.3 1469.6
1471(34) 0.000865 1144.7 1472.9
1496(34) 0.000865 1145.0 1475.9
1493(34) 0.000865 1145.4 1478.6
1501(34) 0.000865 1145.8 1481.0
1515(34) 0.000865 1146.2 1483.2
1543(35) 0.000816 1146.5 1485.1
1522(35) 0.000816 1146.9 1486.7
1518(34) 0.000865 1147.3 1488.2
1524(35) 0.000816 1147.7 1489.5
1508(34) 0.000865 1148.1 1490.6
1445(34) 0.000865 1148.6 1491.5
1447(34) 0.000865 1149.0 1492.3
1566(35) 0.000816 1149.4 1492.9
1563(35) 0.000816 1149.9 1493.4
1487(34) 0.000865 1150.3 1493.8
1479(34) 0.000865 1150.8 1494.0
1484(34) 0.000865 1151.2 1494.0
1458(34) 0.000865 1151.7 1493.8
1490(34) 0.000865 1152.2 1493.4
1485(34) 0.000865 1152.7 1492.8
1464(34) 0.000865 1153.2 1491.9
1456(34) 0.000865 1153.7 1490.8
1462(34) 0.000865 1154.2 1489.3
1447(34) 0.000865 1154.7 1487.5
1445(34) 0.000865 1155.3 1485.4
1415(33) 0.000918 1155.8 1482.9
1449(34) 0.000865 1156.3 1480.0
1480(34) 0.000865 1156.9 1476.7
1459(34) 0.000865 1157.5 1473.0
1446(34) 0.000865 1158.0 1469.0
1488(34) 0.000865 1158.6 1464.6
1447(34) 0.000865 1159.2 1459.8
1437(34) 0.000865 1159.8 1454.7
1478(34) 0.000865 1160.5 1449.3
1465(34) 0.000865 1161.1 1443.7
1444(34) 0.000865 1161.7 1437.9
1453(34) 0.000865 1162.4 1431.9
1458(34) 0.000865 1163.0 1425.7
1459(34) 0.000865 1163.7 1419.4
1440(34) 0.000865 1164.4 1413.1
1401(33) 0.000918 1165.0 1406.8
1444(34) 0.000865 1165.7 1400.4
1410(33) 0.000918 1166.4 1394.1
1362(33) 0.000918 1167.2 1387.9
1385(33) 0.000918 1167.9 1381.7
1375(33) 0.000918 1168.6 1375.7
1393(33) 0.000918 1169.4 1369.8
1396(33) 0.000918 1170.1 1364.1
1332(32) 0.000977 1170.9 1358.6
1338(32) 0.000977 1171.7 1353.2
1374(33) 0.000918 1172.5 1348.1
1364(33) 0.000918 1173.3 1343.1
1353(33) 0.000918 1174.1 1338.4
1336(32) 0.000977 1174.9 1334.0
1358(33) 0.000918 1175.8 1329.8
1310(32) 0.000977 1176.6 1325.8
1333(32) 0.000977 1177.5 1322.1
1358(33) 0.000918 1178.4 1318.7
1301(32) 0.000977 1179.3 1315.6
1310(32) 0.000977 1180.2 1312.7
1299(32) 0.000977 1181.1 1310.2
1306(32) 0.000977 1182.0 1307.9
1345(32) 0.000977 1182.9 1305.9
1354(33) 0.000918 1183.9 1304.3
1296(26) 0.001479 1184.8 1303.0
1278(32) 0.000977 1185.8 1302.0
1314(32) 0.000977 1186.8 1301.3
1351(33) 0.000918 1187.8 1301.0
1317(32) 0.000977 1188.8 1301.0
1303(32) 0.000977 1189.9 1301.3
1319(33) 0.000918 1190.9 1302.0
1307(32) 0.000977 1192.0 1303.0
1330(33) 0.000918 1193.1 1304.4
1357(33) 0.000918 1194.1 1306.1
1312(32) 0.000977 1195.2 1308.1
1292(32) 0.000977 1196.4 1310.5
1320(33) 0.000918 1197.5 1313.2
1346(33) 0.000918 1198.6 1316.3
1345(33) 0.000918 1199.8 1319.7
1299(32) 0.000977 1201.0 1323.4
1320(33) 0.000918 1202.2 1327.4
1364(33) 0.000918 1203.4 1331.8
1346(33) 0.000918 1204.6 1336.5
1353(33) 0.000918 1205.8 1341.4
1377(33) 0.000918 1207.1 1346.7
1323(33) 0.000918 1208.3 1352.2
1336(33) 0.000918 1209.6 1358.1
1354(33) 0.000918 1210.9 1364.1
1381(33) 0.000918 1212.2 1370.4
1389(33) 0.000918 1213.6 1377.0
1398(33) 0.000918 1214.9 1383.7
1334(33) 0.000918 1216.3 1390.6
1362(33) 0.000918 1217.6 1397.7
1408(34) 0.000865 1219.0 1404.9
1408(34) 0.000865 1220.5 1412.3
1414(34) 0.000865 1221.9 1419.8
1462(34) 0.000865 1223.3 1427.3
1435(34) 0.000865 1224.8 1434.9
1417(34) 0.000865 1226.3 1442.5
1413(34) 0.000865 1227.8 1450.0
1439(34) 0.000865 1229.3 1457.6
1444(34) 0.000865 1230.8 1465.0
1428(34) 0.000865 1232.4 1472.4
1443(34) 0.000865 1234.0 1479.6
1425(34) 0.000865 1235.6 1486.6
1429(34) 0.000865 1237.2 1493.4
1460(34) 0.000865 1238.8 1500.0
1490(35) 0.000816 1240.4 1506.3
1488(34) 0.000865 1242.1 1512.3
1458(34) 0.000865 1243.8 1518.0
1462(34) 0.000865 1245.5 1523.3
1470(34) 0.000865 1247.2 1528.2
1490(35) 0.000816 1249.0 1532.7
1496(35) 0.000816 1250.7 1536.8
1511(35) 0.000816 1252.5 1540.4
1532(35) 0.000816 1254.3 1543.7
1507(35) 0.000816 1256.1 1546.4
1490(35) 0.000816 1258.0 1548.8
1527(35) 0.000816 1259.9 1550.7
1554(35) 0.000816 1261.7 1552.2
1550(35) 0.000816 1263.6 1553.2
1535(35) 0.000816 1265.6 1554.0
1509(35) 0.000816 1267.5 1554.3
1547(35) 0.000816 1269.5 1554.4
1562(35) 0.000816 1271.5 1554.1
1520(35) 0.000816 1273.5 1553.6
1494(35) 0.000816 1275.5 1552.9
1555(35) 0.000816 1277.6 1552.0
1594(36) 0.000772 1280. 1551.
1572(35) 0.000816 1281.8 1549.7
1529(35) 0.000816 1283.9 1548.4
1518(35) 0.000816 1286.1 1547.0
1567(35) 0.000816 1288.2 1545.6
1582(36) 0.000772 1290. 1544.
1546(35) 0.000816 1292.7 1542.7
1554(35) 0.000816 1294.9 1541.4
1536(35) 0.000816 1297.2 1540.1
1565(35) 0.000816 1299.5 1538.8
1557(35) 0.000816 1301.8 1537.7
1542(35) 0.000816 1304.1 1536.7
1550(35) 0.000816 1306.5 1535.8
1540(35) 0.000816 1308.9 1535.1
1551(35) 0.000816 1311.3 1534.5
1521(35) 0.000816 1313.7 1534.1
1521(35) 0.000816 1316.2 1533.8
1512(35) 0.000816 1318.7 1533.7
1510(35) 0.000816 1321.2 1533.8
1482(34) 0.000865 1323.7 1534.0
1510(35) 0.000816 1326.3 1534.4
1542(35) 0.000816 1328.9 1534.9
1553(35) 0.000816 1331.5 1535.7
1533(35) 0.000816 1334.1 1536.5
1540(35) 0.000816 1336.8 1537.5
1548(35) 0.000816 1339.5 1538.6
1519(35) 0.000816 1342.2 1539.8
1525(35) 0.000816 1345.0 1541.2
1544(35) 0.000816 1347.8 1542.6
1541(35) 0.000816 1350.6 1544.1
1531(35) 0.000816 1353.4 1545.6
1517(35) 0.000816 1356.3 1547.2
1515(35) 0.000816 1359.2 1548.8
1558(35) 0.000816 1362.1 1550.4
1587(36) 0.000772 1365. 1552.
1572(35) 0.000816 1368.0 1553.7
1572(36) 0.000772 1371. 1555.
1591(36) 0.000772 1374. 1557.
1599(36) 0.000772 1377. 1558.
1541(36) 0.000772 1380. 1560.
1535(36) 0.000772 1383. 1561.
1630(37) 0.000730 1387. 1563.
1616(37) 0.000730 1390. 1564.
1621(37) 0.000730 1393. 1566.
1585(36) 0.000772 1396. 1567.
1594(36) 0.000772 1399. 1568.
1603(36) 0.000772 1403. 1569.
1570(36) 0.000772 1406. 1571.
1605(36) 0.000772 1410. 1572.
1662(37) 0.000730 1413. 1573.
1622(37) 0.000730 1416. 1574.
1617(37) 0.000730 1420. 1576.
1621(37) 0.000730 1423. 1577.
1589(36) 0.000772 1427. 1578.
1594(36) 0.000772 1430. 1580.
1596(36) 0.000772 1434. 1581.
1616(37) 0.000730 1438. 1582.
1651(37) 0.000730 1441. 1584.
1618(37) 0.000730 1445. 1585.
1564(36) 0.000772 1449. 1587.
1544(36) 0.000772 1453. 1589.
1565(36) 0.000772 1456. 1591.
1615(37) 0.000730 1460. 1593.
1608(37) 0.000730 1464. 1595.
1570(36) 0.000772 1468. 1597.
1633(37) 0.000730 1472. 1600.
1654(37) 0.000730 1476. 1602.
1617(37) 0.000730 1480. 1605.
1644(37) 0.000730 1484. 1608.
1614(37) 0.000730 1488. 1611.
1634(37) 0.000730 1492. 1614.
1632(37) 0.000730 1496. 1617.
1665(37) 0.000730 1501. 1621.
1647(37) 0.000730 1505. 1624.
1613(37) 0.000730 1509. 1628.
1631(37) 0.000730 1514. 1632.
1617(37) 0.000730 1518. 1636.
1641(37) 0.000730 1522. 1641.
1664(37) 0.000730 1527. 1645.
1658(37) 0.000730 1531. 1650.
1635(37) 0.000730 1536. 1655.
1661(37) 0.000730 1540. 1660.
1691(37) 0.000730 1545. 1665.
1656(37) 0.000730 1550. 1671.
1697(37) 0.000730 1554. 1676.
1664(37) 0.000730 1559. 1682.
1649(37) 0.000730 1564. 1688.
1643(37) 0.000730 1569. 1694.
1659(37) 0.000730 1573. 1700.
1721(38) 0.000693 1578. 1707.
1665(37) 0.000730 1583. 1713.
1672(37) 0.000730 1588. 1720.
1705(38) 0.000693 1593. 1727.
1769(38) 0.000693 1598. 1733.
1783(38) 0.000693 1603. 1740.
1745(38) 0.000693 1608. 1748.
1750(38) 0.000693 1614. 1755.
1736(38) 0.000693 1619. 1762.
1724(38) 0.000693 1624. 1770.
1797(39) 0.000657 1629. 1777.
1759(38) 0.000693 1635. 1785.
1810(39) 0.000657 1640. 1792.
1735(38) 0.000693 1646. 1800.
1771(38) 0.000693 1651. 1808.
1807(39) 0.000657 1657. 1816.
1861(39) 0.000657 1662. 1824.
1852(39) 0.000657 1668. 1832.
1824(39) 0.000657 1674. 1840.
1849(39) 0.000657 1679. 1848.
1840(39) 0.000657 1685. 1856.
1848(39) . . .
1789(38) . . .
1804(39) . . .
1824(39) . . .
1904(40) . . .
1912(40) . . .
1901(40) . . .
1899(40) . . .
1935(40) . . .
1947(40) . . .
1919(40) . . .
1952(40) . . .
1973(40) . . .
1903(40) . . .
1900(40) . . .
1925(40) . . .
1996(41) . . .
1984(40) . . .
1987(40) . . .
2037(41) . . .
2032(41) . . .
2063(41) . . .
2029(41) . . .
2012(41) . . .
2049(41) . . .
2081(41) . . .
2105(60) . . .
1999(58) . . .
2090(60) . . .
2219(61) . . .
2076(59) . . .
2109(60) . . .
2107(60) . . .
2115(60) . . .
2074(59) . . .
2140(60) . . .
2116(60) . . .
2137(60) . . .
2176(61) . . .
2136(60) . . .
2178(61) . . .
2177(61) . . .
2163(60) . . .
2198(61) . . .
2195(61) . . .
2229(61) . . .
2310(62) . . .
2302(62) . . .
2323(63) . . .
2285(62) . . .
2275(62) . . .
2313(62) . . .
2289(62) . . .
2335(63) . . .
2288(62) . . .
2310(62) . . .
2282(62) . . .
2363(63) . . .
2366(63) . . .
2454(64) . . .
2365(63) . . .
2441(64) . . .
2355(63) . . .
2419(64) . . .
2436(64) . . .
2349(63) . . .
2390(63) . . .
2459(64) . . .
2451(64) . . .
2425(64) . . .
2491(65) . . .
2488(65) . . .
2476(64) . . .
2521(65) . . .
2550(65) . . .
2588(66) . . .
2543(65) . . .
2479(64) . . .
2406(64) . . .
2523(65) . . .
2502(65) . . .
2615(66) . . .
2576(66) . . .
2501(65) . . .
2486(65) . . .
2525(65) . . .
2570(66) . . .
2575(66) . . .
2474(64) . . .
2570(66) . . .
2491(65) . . .
2649(67) . . .
2630(66) . . .
2598(66) . . .
2587(66) . . .
2625(66) . . .
2592(66) . . .
2608(66) . . .
2636(66) . . .
2743(68) . . .
2669(67) . . .
2676(67) . . .
2665(67) . . .
2565(66) . . .
2498(65) . . .
2539(65) . . .
2601(66) . . .
2716(67) . . .
2667(67) . . .
2619(66) . . .
2627(66) . . .
2570(66) . . .
2595(66) . . .
2657(67) . . .
2654(67) . . .
2680(67) . . .
2700(67) . . .
2640(66) . . .
2666(67) . . .
2575(66) . . .
2655(67) . . .
2666(67) . . .
2737(68) . . .
2748(68) . . .
2765(68) . . .
2690(67) . . .
loop_
_gsas_i100_meas
100.00
53.62
94.90
0.50
0.00
0.22
10.35
14.34
6.54
0.00
16.45
2.95
0.40
0.42
12.78
7.33
1.37
3.42
4.82
7.93
0.13
0.24
0.99
0.18
0.75
0.12
0.63
1.73
2.70
4.15
1.09
1.44
0.82
10.87
1.21
0.01
3.53
0.13
2.47
0.61
0.02
0.00
0.57
0.69
0.14
0.37
1.25
1.38
1.31
0.50
0.07
1.55
0.64
0.03
1.94
0.71
0.05
0.07
3.67
1.77
1.34
0.89
3.27
0.34
0.64
0.05
1.15
0.05
0.26
2.24
0.04
0.05
1.72
1.27
0.99
2.05
0.38
0.40
0.36
0.22
1.30
0.49
0.36
2.46
0.11
0.17
0.25
0.71
0.32
0.02
0.05
0.07
0.06
3.09
0.27
3.00
1.40
0.64
1.51
0.00
0.17
1.08
0.00
0.67
1.54
1.41
0.24
2.02
0.34
0.09
0.18
0.05
0.00
0.89
0.57
0.23
0.15
0.15
2.09
1.01
0.30
0.47
0.02
0.07
3.97
0.50
0.05
0.67
0.15
0.90
0.07
0.40
3.33
0.00
0.07
0.72
0.03
0.28
0.10
0.28
0.65
0.00
1.16
0.25
0.02
0.59
0.03
0.04
0.90
0.01
0.84
0.68
0.57
0.08
0.19
0.71
0.29
0.60
0.08
0.02
0.64
0.00
0.05
0.36
0.04
0.91
0.00
0.69
0.78
0.24
0.02
0.08
0.11
0.10
0.03
0.05
0.62
0.00
4.63
0.24
0.21
0.65
0.16
0.19
0.89
0.40
0.04
0.44
0.63
0.03
0.03
0.16
0.01
0.04
0.34
0.16
0.42
0.10
0.70
0.08
0.00
0.38
1.05
0.11
0.28
0.12
0.01
0.00
0.21
0.00
0.61
0.08
0.01
0.10
1.41
3.29
0.02
0.10
0.00
0.01
0.02
0.09
1.15
1.57
2.16
0.31
0.10
0.14
0.21
0.02
0.00
0.44
0.86
1.80
0.47
0.25
0.22
0.00
0.15
0.12
0.00
0.01
0.26
0.01
0.12
0.22
0.37
0.80
0.39
0.09
1.79
1.51
0.00
1.37
0.96
0.00
0.01
0.00
1.67
0.64
0.00
0.08
0.06
0.15
0.12
2.06
0.00
0.06
0.23
3.32
0.08
0.01
0.61
0.46
0.01
0.03
0.00
0.11
0.00
1.05
0.17
0.83
0.49
0.08
0.00
1.52
2.17
0.38
0.34
0.78
0.77
0.22
0.08
0.26
0.02
0.09
0.33
0.70
0.02
0.07
0.33
0.24
0.09
1.00
0.84
0.94
0.08
0.04
0.95
0.15
0.05
0.77
0.00
0.01
0.00
0.41
1.47
0.09
0.01
0.02
0.28
0.08
0.48
0.46
0.05
0.02
0.84
0.18
0.47
1.62
3.05
0.60
0.01
0.63
0.95
0.00
0.00
0.36
0.41
0.05
0.27
0.68
0.38
0.05
0.43
0.01
0.15
0.16
0.42
0.47
0.00
0.15
0.24
0.38
0.05
0.64
1.74
0.03
1.49
0.00
0.00
1.00
0.81
0.27
0.01
0.01
0.18
0.15
0.41
0.47
2.92
0.81
0.32
0.81
0.36
0.00
0.00
0.09
0.88
0.47
0.23
0.00
1.02
0.01
0.06
0.00
0.26
0.05
0.16
0.22
0.96
0.37
1.11
0.04
0.19
2.16
0.07
1.66
0.26
0.44
0.34
0.60
0.00
0.14
0.06
0.00
0.06
0.25
0.03
1.56
0.01
0.00
0.05
0.73
0.10
0.77
0.02
0.64
0.55
0.53
0.41
0.01
1.34
0.13
0.01
0.01
0.05
0.02
0.01
0.50
0.00
0.87
0.03
0.06
0.00
0.22
0.04
0.89
0.59
0.05
0.57
0.03
0.04
0.04
0.16
0.50
0.02
0.13
0.05
0.82
0.13
0.39
2.22
0.66
0.02
1.38
0.54
0.20
1.13
1.13
0.02
0.20
0.10
0.54
0.00
0.01
0.73
0.14
0.10
0.43
1.32
0.18
0.41
1.47
0.01
0.22
0.07
0.03
0.05
0.02
0.19
0.09
0.84
0.55
0.37
0.64
0.30
0.22
0.03
0.25
0.21
0.31
0.33
0.16
0.10
0.28
0.38
1.45
0.05
0.77
0.07
0.05
0.37
0.01
0.47
0.94
0.00
0.37
0.27
0.29
0.01
0.02
0.72
0.04
0.06
0.01
1.27
0.01
0.01
0.08
0.05
1.66
0.37
0.12
0.04
0.11
1.34
0.74
0.21
0.02
1.58
1.84
0.71
0.77
0.12
0.30
0.11
0.71
0.29
0.03
0.01
0.03
0.22
3.01
0.07
0.01
0.50
0.04
0.22
0.01
0.09
0.03
0.10
0.05
0.38
0.61
0.37
0.08
0.46
0.22
1.94
0.25
0.02
0.46
0.11
0.21
0.52
0.20
1.05
0.01
0.00
0.02
0.11
0.11
0.27
0.05
1.48
0.01
0.00
0.81
1.46
0.01
0.12
3.42
0.05
0.14
0.09
0.12
0.40
0.63
0.87
0.90
0.33
0.38
0.00
0.00
5.10
0.00
0.16
1.64
0.01
0.03
0.17
0.11
0.37
0.01
1.19
0.60
1.31
1.32
0.17
0.74
1.02
0.02
0.53
0.02
0.01
0.21
0.00
2.79
0.86
0.36
0.28
0.48
0.00
0.58
0.04
0.00
2.63
0.00
0.37
0.44
0.05
0.01
0.00
0.07
1.96
5.69
0.12
0.40
1.06
0.38
1.60
2.19
1.11
1.26
2.60
0.38
0.01
0.52
0.00
0.05
0.20
0.01
3.60
2.26
0.09
0.02
0.39
0.04
