#------------------------------------------------------------------------------
#$Date: 2019-11-14 09:28:08 +0200 (Thu, 14 Nov 2019) $
#$Revision: 227760 $
#$URL: file:///home/coder/svn-repositories/cod/cif/1/55/28/1552896.cif $
#------------------------------------------------------------------------------
#
# This file is available in the Crystallography Open Database (COD),
# http://www.crystallography.net/
#
# All data on this site have been placed in the public domain by the
# contributors.
#
data_1552896
loop_
_publ_author_name
'Asgari, Mehrdad'
'Jawahery, Sudi'
'Bloch, Eric D.'
'Hudson, Matthew R.'
'Flacau, Roxana'
'Vlaisavljevich, Bess'
'Long, Jeffrey R.'
'Brown, Craig M.'
'Queen, Wendy L.'
_publ_section_title
;
 An experimental and computational study of CO<sub>2</sub> adsorption in
 the sodalite-type M-BTT (M = Cr, Mn, Fe, Cu) metal-organic frameworks
 featuring open metal sites.
;
_journal_issue                   20
_journal_name_full               'Chemical science'
_journal_page_first              4579
_journal_page_last               4588
_journal_paper_doi               10.1039/c8sc00971f
_journal_volume                  9
_journal_year                    2018
_chemical_formula_sum            'C26.22 H8 Cl Cr4 N32 O5.38'
_chemical_formula_weight         1100.68
_space_group_IT_number           221
_space_group_name_Hall           '-P 4 2 3'
_space_group_name_H-M_alt        'P m -3 m'
_symmetry_cell_setting           cubic
_symmetry_space_group_name_Hall  '-P 4 2 3'
_symmetry_space_group_name_H-M   'P m -3 m'
_audit_creation_date             2016-03-03T19:10
_audit_creation_method           'from EXP file using GSAS2CIF'
_audit_update_record
;
2017-10-25 deposited with the CCDC.
2018-04-23 downloaded from the CCDC.
;
_cell_angle_alpha                90.0
_cell_angle_beta                 90.0
_cell_angle_gamma                90.0
_cell_formula_units_Z            3
_cell_length_a                   18.6867(5)
_cell_length_b                   18.6867
_cell_length_c                   18.6867
_cell_measurement_reflns_used    643
_cell_measurement_temperature    10
_cell_measurement_theta_max      160
_cell_measurement_theta_min      4
_cell_volume                     6525.26(17)
_computing_structure_refinement  GSAS
_diffrn_ambient_temperature      10
_diffrn_measurement_device_type  BT1
_diffrn_radiation_probe          neutron
_diffrn_radiation_wavelength     2.078
_exptl_absorpt_correction_T_max  1.00000
_exptl_absorpt_correction_T_min  1.00000
_exptl_absorpt_process_details
;   GSAS Absorption/surface roughness correction: function number 0
 No correction is applied.
;
_pd_block_id                     2016-03-03T19:10|0P5CO2|wendy|bt1
_pd_calc_method                  'Rietveld Refinement'
_pd_instr_location               ' ?'
_pd_meas_2theta_range_inc        0.05
_pd_meas_2theta_range_max        166.25
_pd_meas_2theta_range_min        1.5
_pd_meas_number_of_points        3296
_pd_phase_name
'from Z:/queen/Desktop/MBTT series_CO2/CrBTT/BARE_final_NIST/BARE.E'
_pd_proc_2theta_range_inc        0.05
_pd_proc_2theta_range_max        166.2952
_pd_proc_2theta_range_min        1.5452
_pd_proc_info_datetime           2016-03-03T19:10:53
_pd_proc_info_excluded_regions   ' ?'
_pd_proc_ls_background_function
;   GSAS Background function number 1 with 10 terms.
 Shifted Chebyshev function of 1st kind
      1:    1119.85     2:   -251.388     3:    313.676     4:   -43.4275    
      5:    156.400     6:   -11.6657     7:    80.6467     8:   -2.92753    
      9:    43.7712    10:  -0.506341    
;
_pd_proc_ls_peak_cutoff          0.00100
_pd_proc_ls_profile_function
;
 CW Profile function number 3 with  19 terms
 Pseudovoigt profile coefficients as parameterized in
 P. Thompson, D.E. Cox & J.B. Hastings (1987). J. Appl. Cryst.,20,79-83.
 Asymmetry correction of L.W. Finger, D.E. Cox & A. P. Jephcoat (1994).
 J. Appl. Cryst.,27,892-900.
 #1(GU)   =  593.475 #2(GV)   = -251.867 #3(GW)   =  114.090
 #4(GP)   =    4.877 #5(LX)   =    0.000 #6(LY)   =   17.308
 #7(S/L)  =   0.0449 #8(H/L)  =   0.0356
 #9(trns) =     0.00 #10(shft)=   0.0000
 #11(stec)=     0.00 #12(ptec)=     0.00 #13(sfec)=     0.00
 #14(L11) =    0.000 #15(L22) =    0.000 #16(L33) =    0.000
 #17(L12) =    0.000 #18(L13) =    0.000 #19(L23) =    0.000
 Peak tails are ignored  where the intensity is below 0.0010 times the peak
   Aniso. broadening axis   0.0   0.0   1.0
;
_pd_proc_ls_prof_R_factor        0.0288
_pd_proc_ls_prof_wR_expected     0.0289
_pd_proc_ls_prof_wR_factor       0.0333
_pd_proc_number_of_points        3296
_pd_spec_mounting                ' ?'
_refine_ls_goodness_of_fit_all   1.16
_refine_ls_matrix_type           full
_refine_ls_number_parameters     39
_refine_ls_number_restraints     4
_refine_ls_R_Fsqd_factor         0.06629
_refine_ls_shift/su_max          0.03
_refine_ls_shift/su_mean         0.01
_reflns_d_resolution_high        1.056
_reflns_d_resolution_low         18.687
_reflns_limit_h_max              17
_reflns_limit_h_min              1
_reflns_limit_k_max              12
_reflns_limit_k_min              0
_reflns_limit_l_max              10
_reflns_limit_l_min              0
_reflns_number_total             643
_cod_data_source_file            c8sc00971f3.cif
_cod_data_source_block           0P5CO2_publ
_cod_depositor_comments
;
The following automatic conversions were performed:

'_geom_bond_publ_flag' value 'N' changed to 'n' according to
/home/data/users/saulius/crontab/automatic-downloads/current/RSC/lib/dictionaries/cif_core.dic
dictionary named 'cif_core.dic' version 2.4.2 from 2011-04-26 (57
times).

'_geom_angle_publ_flag' value 'N' changed to 'n' according to
/home/data/users/saulius/crontab/automatic-downloads/current/RSC/lib/dictionaries/cif_core.dic
dictionary named 'cif_core.dic' version 2.4.2 from 2011-04-26 (46
times).

Automatic conversion script
Id: cif_fix_values 5376 2017-05-30 11:51:03Z andrius 
;
_cod_original_cell_volume        6525.2(5)
_cod_database_code               1552896
_gsas_exptl_extinct_corr_t_min   1.00000
_gsas_exptl_extinct_corr_t_max   1.00000
loop_
_symmetry_equiv_pos_site_id
_symmetry_equiv_pos_as_xyz
1 +x,+y,+z
2 +z,+x,+y
3 +y,+z,+x
4 +x,+y,-z
5 -z,+x,+y
6 +y,-z,+x
7 -z,+x,-y
8 -y,-z,+x
9 +y,-z,-x
10 -x,+y,-z
11 -z,-x,+y
12 +x,-y,-z
13 +y,+x,+z
14 +z,+y,+x
15 +x,+z,+y
16 +y,+x,-z
17 -z,+y,+x
18 +x,-z,+y
19 -z,+y,-x
20 -x,-z,+y
21 +x,-z,-y
22 -y,+x,-z
23 -z,-y,+x
24 +y,-x,-z
-1 -x,-y,-z
-2 -z,-x,-y
-3 -y,-z,-x
-4 -x,-y,+z
-5 +z,-x,-y
-6 -y,+z,-x
-7 +z,-x,+y
-8 +y,+z,-x
-9 -y,+z,+x
-10 +x,-y,+z
-11 +z,+x,-y
-12 -x,+y,+z
-13 -y,-x,-z
-14 -z,-y,-x
-15 -x,-z,-y
-16 -y,-x,+z
-17 +z,-y,-x
-18 -x,+z,-y
-19 +z,-y,+x
-20 +x,+z,-y
-21 -x,+z,+y
-22 +y,-x,+z
-23 +z,+y,-x
-24 -y,+x,+z
loop_
_atom_site_type_symbol
_atom_site_label
_atom_site_fract_x
_atom_site_fract_y
_atom_site_fract_z
_atom_site_occupancy
_atom_site_thermal_displace_type
_atom_site_U_iso_or_equiv
_atom_site_symmetry_multiplicity
Cr Cr1 0.1322(13) 0.5 0.0 1.0 Uiso 0.00991 12
C C1 0.14846(34) 0.3366(4) -0.14846(34) 1.0 Uiso 0.0132(12) 24
C C2 0.18059(31) 0.2713(4) -0.18059(31) 1.0 Uiso 0.0132(12) 24
C C3 0.24254(31) 0.24254(31) -0.1486(5) 1.0 Uiso 0.0132(12) 24
Cl Cl1 0.0 0.5 0.0 1.0 Uiso 0.057(7) 3
N N1 0.13009(22) 0.42305(23) -0.07918(22) 1.0 Uiso 0.0139(7) 48
N N2 0.17526(25) 0.36979(23) -0.09004(22) 1.0 Uiso 0.0139(7) 48
H H1 0.2662(6) 0.2662(6) -0.1068(8) 1.0 Uiso 0.016(5) 24
O Os 0.2296(13) 0.5 0.0 0.2353 Uiso 0.00351 12
C Ca 0.2913(13) 0.4399(7) 0.0 0.277(5) Uiso 0.07288 24
O Oa 0.2746(18) 0.5 0.0 0.555(10) Uiso 0.08225 12
O Ob 0.3121(19) 0.3817(11) 0.0 0.277(5) Uiso 0.07411 24
loop_
_atom_type_symbol
_atom_type_number_in_cell
_atom_type_scat_length_neutron
_atom_type_scat_source
Cr 12.0 0.3635 International_Tables_Vol_C
C 78.656 0.6646 International_Tables_Vol_C
Cl 3.0 0.9577 International_Tables_Vol_C
N 96.0 0.9360 International_Tables_Vol_C
H 24.0 -0.3739 International_Tables_Vol_C
O 16.135 0.5803 International_Tables_Vol_C
loop_
_geom_angle_atom_site_label_1
_geom_angle_atom_site_label_2
_geom_angle_atom_site_label_3
_geom_angle
_geom_angle_site_symmetry_1
_geom_angle_site_symmetry_3
_geom_angle_publ_flag
Cl1 Cr1 N1 88.9(7) 1_555 1_555 n
Cl1 Cr1 N1 88.9(7) 1_555 4_555 n
Cl1 Cr1 N1 88.9(7) 1_555 12_565 n
Cl1 Cr1 N1 88.9(7) 1_555 -10_565 n
Cl1 Cr1 Os 180.0 1_555 1_555 n
N1 Cr1 N1 91.61(25) 1_555 4_555 n
N1 Cr1 N1 177.8(14) 1_555 12_565 n
N1 Cr1 N1 88.35(26) 1_555 -10_565 n
N1 Cr1 Os 91.1(7) 1_555 1_555 n
N1 Cr1 N1 88.35(26) 4_555 12_565 n
N1 Cr1 N1 177.8(14) 4_555 -10_565 n
N1 Cr1 Os 91.1(7) 4_555 1_555 n
N1 Cr1 N1 91.61(25) 12_565 -10_565 n
N1 Cr1 Os 91.1(7) 12_565 1_555 n
N1 Cr1 Os 91.1(7) -10_565 1_555 n
C2 C1 N2 123.6(4) 1_555 1_555 n
C2 C1 N2 123.6(4) 1_555 19_555 n
N2 C1 N2 112.8(8) 1_555 19_555 n
C1 C2 C3 118.3(4) 1_555 1_555 n
C1 C2 C3 118.3(4) 1_555 7_555 n
C3 C2 C3 123.5(9) 1_555 7_555 n
C2 C3 C2 116.5(9) 1_555 9_555 n
C2 C3 H1 121.7(4) 1_555 1_555 n
C2 C3 H1 121.7(4) 9_555 1_555 n
Cr1 Cl1 Cr1 180.0 1_555 10_555 n
Cr1 Cl1 Cr1 90.0 1_555 14_555 n
Cr1 Cl1 Cr1 90.0 1_555 19_555 n
Cr1 Cl1 Cr1 90.0 10_555 14_555 n
Cr1 Cl1 Cr1 90.0 10_555 19_555 n
Cr1 Cl1 Cr1 180.0 14_555 19_555 n
Cr1 N1 N1 121.4(6) 1_555 19_555 n
Cr1 N1 N2 128.5(6) 1_555 1_555 n
N1 N1 N2 110.08(27) 19_555 1_555 n
C1 N2 N1 103.5(5) 1_555 1_555 n
Cr1 Os Ca 135.8(10) 1_555 1_555 n
Cr1 Os Ca 135.8(10) 1_555 12_565 n
Cr1 Os Oa 180.0 1_555 1_555 n
Ca Os Ca 88.5(19) 1_555 12_565 n
Ca Os Oa 44.2(10) 1_555 1_555 n
Ca Os Oa 44.2(10) 12_565 1_555 n
Os Ca Oa 30.2(14) 1_555 1_555 n
Os Ca Ob 153.9(22) 1_555 1_555 n
Oa Ca Ob 175.8(24) 1_555 1_555 n
Os Oa Ca 105.5(18) 1_555 1_555 n
Os Oa Ca 105.5(18) 1_555 12_565 n
Ca Oa Ca 149(4) 1_555 12_565 n
loop_
_geom_bond_atom_site_label_1
_geom_bond_atom_site_label_2
_geom_bond_distance
_geom_bond_site_symmetry_2
_geom_bond_publ_flag
Cr1 Cr1 4.94(5) 10_555 n
Cr1 Cr1 3.493(33) 14_555 n
Cr1 Cr1 3.493(33) 19_555 n
Cr1 Cl1 2.470(24) 1_555 n
Cr1 N1 2.064(4) 1_555 n
Cr1 N1 2.064(4) 4_555 n
Cr1 N1 2.064(4) 12_565 n
Cr1 N1 2.993(8) 17_555 n
Cr1 N1 2.993(8) 19_555 n
Cr1 N1 2.993(8) 23_565 n
Cr1 N1 2.064(4) -10_565 n
Cr1 N1 2.993(8) -14_565 n
Cr1 N2 3.066(7) 1_555 n
Cr1 N2 3.066(7) 4_555 n
Cr1 N2 3.066(7) 12_565 n
Cr1 N2 3.066(7) -10_565 n
Cr1 Os 1.819(8) 1_555 n
Cr1 Ca 3.178(29) 1_555 n
Cr1 Ca 3.178(29) 12_565 n
Cr1 Oa 2.66(4) 1_555 n
C1 C2 1.486(11) 1_555 n
C1 N1 2.098(8) 1_555 n
C1 N1 2.098(8) 19_555 n
C1 N2 1.352(6) 1_555 n
C1 N2 1.352(6) 19_555 n
C2 C1 1.486(11) 1_555 n
C2 C3 1.410(6) 1_555 n
C2 C3 1.410(6) 7_555 n
C3 C2 1.410(6) 1_555 n
C3 C2 1.410(6) 9_555 n
C3 H1 1.001(20) 1_555 n
Cl1 Cr1 2.470(24) 1_555 n
Cl1 Cr1 2.470(24) 10_555 n
Cl1 Cr1 2.470(24) 14_555 n
Cl1 Cr1 2.470(24) 19_555 n
N1 Cr1 2.064(4) 1_555 n
N1 Cr1 2.993(8) 19_555 n
N1 C1 2.098(8) 1_555 n
N1 N1 1.345(9) 19_555 n
N1 N2 1.321(6) 1_555 n
N2 Cr1 3.066(7) 1_555 n
N2 C1 1.352(6) 1_555 n
N2 N1 1.321(6) 1_555 n
H1 C3 1.001(20) 1_555 n
Os Cr1 1.819(8) 1_555 n
Os Ca 1.610(23) 1_555 n
Os Ca 1.610(23) 12_565 n
Os Oa 0.84(4) 1_555 n
Ca Cr1 3.178(29) 1_555 n
Ca Os 1.610(23) 1_555 n
Ca Oa 1.166(8) 1_555 n
Ca Ob 1.156(8) 1_555 n
Oa Cr1 2.66(4) 1_555 n
Oa Os 0.84(4) 1_555 n
Oa Ca 1.166(8) 1_555 n
Oa Ca 1.166(8) 12_565 n
Ob Ca 1.156(8) 1_555 n
loop_
_pd_meas_intensity_total
_pd_proc_ls_weight
_pd_proc_intensity_bkg_calc
_pd_calc_intensity_total
7490(180) 0.0 2437. .
6460(170) 0.0 2428. .
5620(160) 0.0 2418. .
4780(150) 0.0 2409. .
4410(140) 0.0 2399. .
4020(140) 0.0 2390. .
3750(130) 0.0 2381. .
3290(120) 0.0 2372. .
2950(120) 0.0 2363. .
2850(110) 0.0 2354. .
2660(110) 0.0 2345. .
2600(110) 0.0 2336. .
2520(110) 0.0 2327. .
2440(110) 0.0 2318. .
2210(100) 0.0 2310. .
2220(100) 0.0 2301. .
2085(97) 0.0 2292. .
2260(100) 0.0 2284. .
2320(100) 0.0 2275. .
2130(98) 0.0 2267. .
2510(110) 0.0 2258. .
2470(110) 0.0 2250. .
2300(100) 0.0 2242. .
2330(100) 0.0 2234. .
2220(100) 0.0 2225. .
2200(100) 0.0 2217. .
2230(100) 0.0 2209. .
2350(100) 0.0 2201. .
2350(100) 0.0 2193. .
2350(100) 0.0 2185. .
2230(100) 0.0 2177. .
2310(100) 0.0 2170. .
2190(100) 0.0 2162. .
2290(100) 0.0 2154. .
2076(97) 0.0 2147. .
2166(99) 0.0 2139. .
2157(99) 0.0 2131. .
2180(100) 0.0 2124. .
2270(100) 0.0 2117. .
2094(97) 0.0 2109. .
2058(97) 0.0 2102. .
2094(97) 0.0 2094. .
1977(95) 0.0 2087. .
1955(94) 0.0 2080. .
2062(97) 0.0 2073. .
2053(97) 0.0 2066. .
2220(100) 0.0 2059. .
1941(94) 0.0 2052. .
2080(97) 0.0 2045. .
2220(100) 0.0 2038. .
1982(95) 0.0 2031. .
1991(95) 0.0001108 2024. 2028.
2049(96) 0.0001085 2017. 2022.
2134(98) 0.0001041 2011. 2016.
1937(94) 0.0001132 2004. 2011.
2220(100) 0.0001000 1997. 2009.
1977(95) 0.0001108 1991. 2011.
2200(100) 0.0001000 1984. 2019.
2152(99) 0.0001020 1978. 2033.
2270(100) 0.0000980 1971. 2054.
2340(100) 0.0000943 1965. 2080.
2049(96) 0.0001085 1959. 2110.
2350(100) 0.0000943 1952. 2142.
2080(97) 0.0001063 1946. 2178.
2240(100) 0.0000980 1940. 2215.
2220(100) 0.0001000 1934. 2255.
2190(100) 0.0001000 1928. 2297.
2116(98) 0.0001041 1921. 2342.
2460(110) 0.0000890 1915. 2390.
2280(100) 0.0000961 1909. 2441.
2690(110) 0.0000826 1903. 2496.
2630(110) 0.0000842 1898. 2554.
2570(110) 0.0000857 1892. 2617.
2520(110) 0.0000873 1886. 2684.
2700(110) 0.0000812 1880. 2757.
2980(120) 0.0000743 1874. 2835.
2750(110) 0.0000797 1868. 2920.
3050(120) 0.0000731 1863. 3013.
3180(120) 0.0000694 1857. 3114.
3060(120) 0.0000718 1852. 3224.
3270(120) 0.0000672 1846. 3346.
3450(130) 0.0000640 1840. 3480.
3450(130) 0.0000640 1835. 3630.
3830(130) 0.0000574 1830. 3798.
4150(140) 0.0000533 1824. 3989.
4250(140) 0.0000518 1819. 4207.
4420(140) 0.0000503 1813. 4460.
4800(150) 0.0000463 1808. 4759.
5490(160) 0.0000406 1803. 5121.
5980(160) 0.0000372 1798. 5576.
6950(180) 0.0000319 1793. 6172.
7660(190) 0.0000289 1787. 6989.
9230(200) 0.0000240 1782. 8104.
10770(220) 0.0000207 1777. 9497.
12140(230) 0.0000183 1772. 10892.
13060(240) 0.0000171 1767. 11714.
13200(240) 0.0000168 1762. 11353.
11190(220) 0.0000199 1757. 9666.
8550(200) 0.0000260 1752. 7219.
5760(160) 0.0000386 1748. 4887.
3821(90) 0.0001235 1743. 3241.
2514(73) 0.0001877 1738. 2343.
2021(65) 0.0002367 1733. 1954.
1817(62) 0.0002601 1728. 1815.
1732(61) 0.0002687 1724. 1770.
1669(59) 0.0002873 1719. 1752.
1722(60) 0.0002778 1715. 1741.
1743(61) 0.0002687 1710. 1732.
1760(61) 0.0002687 1705. 1725.
1634(59) 0.0002873 1701. 1718.
1690(60) 0.0002778 1696. 1711.
1668(59) 0.0002873 1692. 1705.
1614(58) 0.0002973 1688. 1699.
1601(58) 0.0002973 1683. 1694.
1570(58) 0.0002973 1679. 1688.
1680(60) 0.0002778 1675. 1689.
1647(59) 0.0002873 1670. 1685.
1528(57) 0.0003078 1666. 1680.
1698(60) 0.0002778 1662. 1670.
1712(60) 0.0002778 1658. 1666.
1716(60) 0.0002778 1653. 1664.
1589(58) 0.0002973 1649. 1663.
1693(60) 0.0002778 1645. 1667.
1698(60) 0.0002778 1641. 1678.
1697(60) 0.0002778 1637. 1700.
1780(61) 0.0002687 1633. 1736.
1824(62) 0.0002601 1629. 1786.
1901(63) 0.0002520 1625. 1849.
1965(64) 0.0002441 1621. 1922.
2054(66) 0.0002296 1617. 2004.
2083(66) 0.0002296 1614. 2094.
2214(68) 0.0002163 1610. 2192.
2181(68) 0.0002163 1606. 2299.
2315(70) 0.0002041 1602. 2418.
2338(70) 0.0002041 1598. 2548.
2631(75) 0.0001778 1595. 2694.
2614(75) 0.0001778 1591. 2857.
2748(76) 0.0001731 1587. 3041.
3034(80) 0.0001562 1584. 3252.
3278(84) 0.0001417 1580. 3496.
3518(87) 0.0001321 1577. 3785.
3993(92) 0.0001181 1573. 4134.
4374(97) 0.0001063 1569. 4571.
4800(100) 0.0000980 1566. 5147.
5900(110) 0.0000797 1563. 5937.
7160(120) 0.0000650 1559. 7017.
8410(130) 0.0000557 1556. 8369.
9710(140) 0.0000482 1552. 9719.
10210(150) 0.0000457 1549. 10508.
9990(150) 0.0000469 1546. 10157.
8510(140) 0.0000549 1542. 8560.
6300(120) 0.0000743 1539. 6304.
4077(93) 0.0001156 1536. 4217.
2637(75) 0.0001778 1532. 2790.
1989(65) 0.0002367 1529. 2036.
1608(58) 0.0002973 1526. 1727.
1507(56) 0.0003189 1523. 1616.
1556(57) 0.0003078 1520. 1579.
1465(56) 0.0003189 1517. 1564.
1501(56) 0.0003189 1514. 1555.
1551(57) 0.0003078 1511. 1548.
1525(57) 0.0003078 1507. 1542.
1479(56) 0.0003189 1504. 1537.
1599(58) 0.0002973 1501. 1533.
1618(58) 0.0002973 1499. 1529.
1576(58) 0.0002973 1496. 1527.
1592(58) 0.0002973 1493. 1526.
1614(58) 0.0002973 1490. 1529.
1573(58) 0.0002973 1487. 1540.
1791(61) 0.0002687 1484. 1567.
1774(61) 0.0002687 1481. 1615.
1848(62) 0.0002601 1478. 1690.
1986(65) 0.0002367 1476. 1795.
2018(65) 0.0002367 1473. 1926.
2122(67) 0.0002228 1470. 2079.
2309(70) 0.0002041 1467. 2254.
2478(73) 0.0001877 1465. 2446.
2517(73) 0.0001877 1462. 2668.
2745(76) 0.0001731 1459. 2920.
3041(80) 0.0001562 1457. 3209.
3430(85) 0.0001384 1454. 3545.
3722(89) 0.0001262 1451. 3944.
4142(94) 0.0001132 1449. 4431.
4750(100) 0.0000980 1446. 5049.
5680(110) 0.0000826 1444. 5873.
7090(120) 0.0000661 1441. 7012.
8430(130) 0.0000557 1439. 8547.
10480(150) 0.0000444 1436. 10377.
11770(160) 0.0000396 1434. 12025.
12410(160) 0.0000376 1431. 12693.
11460(160) 0.0000406 1429. 11749.
8940(140) 0.0000525 1427. 9352.
6160(120) 0.0000756 1424. 6468.
4060(93) 0.0001156 1422. 4083.
2656(75) 0.0001778 1420. 2603.
1761(61) 0.0002687 1417. 1886.
1460(75) 0.0001778 1415. 1607.
1419(74) 0.0001826 1413. 1512.
1368(73) 0.0001877 1410. 1478.
1465(76) 0.0001731 1408. 1462.
1501(56) 0.0003189 1406. 1451.
1396(54) 0.0003429 1404. 1442.
1355(53) 0.000356 1401. 1434.
1389(54) 0.0003429 1399. 1428.
1343(53) 0.000356 1397. 1422.
1362(53) 0.000356 1395. 1417.
1358(53) 0.000356 1393. 1413.
1430(54) 0.0003429 1391. 1409.
1435(54) 0.0003429 1389. 1405.
1376(53) 0.000356 1387. 1402.
1377(53) 0.000356 1385. 1400.
1396(54) 0.0003429 1383. 1397.
1437(55) 0.0003306 1380. 1395.
1382(53) 0.000356 1378. 1393.
1382(53) 0.000356 1377. 1391.
1397(54) 0.0003429 1375. 1389.
1398(54) 0.0003429 1373. 1388.
1388(54) 0.0003429 1371. 1380.
1477(55) 0.0003306 1369. 1380.
1488(56) 0.0003189 1367. 1381.
1449(55) 0.0003306 1365. 1384.
1446(55) 0.0003306 1363. 1387.
1433(54) 0.0003429 1361. 1391.
1493(56) 0.0003189 1359. 1393.
1451(55) 0.0003306 1358. 1390.
1479(55) 0.0003306 1356. 1382.
1356(53) 0.000356 1354. 1372.
1349(53) 0.000356 1352. 1362.
1390(54) 0.0003429 1350. 1355.
1359(53) 0.000356 1349. 1351.
1305(52) 0.000370 1347. 1348.
1280(51) 0.000384 1345. 1346.
1330(52) 0.000370 1343. 1344.
1317(52) 0.000370 1342. 1342.
1354(53) 0.000356 1340. 1340.
1330(52) 0.000370 1338. 1339.
1352(53) 0.000356 1337. 1337.
1333(52) 0.000370 1335. 1335.
1323(52) 0.000370 1333. 1334.
1357(53) 0.000356 1332. 1333.
1324(52) 0.000370 1330. 1331.
1310(52) 0.000370 1329. 1330.
1282(51) 0.000384 1327. 1330.
1358(53) 0.000356 1325. 1329.
1409(54) 0.0003429 1324. 1329.
1317(52) 0.000370 1322. 1329.
1347(53) 0.000356 1321. 1329.
1364(53) 0.000356 1319. 1330.
1359(53) 0.000356 1318. 1331.
1273(51) 0.000384 1316. 1334.
1303(52) 0.000370 1315. 1338.
1325(52) 0.000370 1313. 1343.
1349(53) 0.000356 1312. 1350.
1357(53) 0.000356 1311. 1355.
1404(54) 0.0003429 1309. 1354.
1374(53) 0.000356 1308. 1347.
1301(52) 0.000370 1306. 1334.
1316(52) 0.000370 1305. 1322.
1330(52) 0.000370 1304. 1312.
1335(53) 0.000356 1302. 1306.
1306(52) 0.000370 1301. 1303.
1345(53) 0.000356 1300. 1301.
1327(52) 0.000370 1298. 1299.
1300(52) 0.000370 1297. 1298.
1287(51) 0.000384 1296. 1297.
1273(51) 0.000384 1294. 1296.
1278(51) 0.000384 1293. 1295.
1276(51) 0.000384 1292. 1295.
1261(51) 0.000384 1290. 1297.
1328(52) 0.000370 1289. 1299.
1297(52) 0.000370 1288. 1304.
1354(53) 0.000356 1287. 1311.
1311(52) 0.000370 1285. 1320.
1328(52) 0.000370 1284. 1331.
1368(53) 0.000356 1283. 1345.
1326(52) 0.000370 1282. 1363.
1500(56) 0.0003189 1281. 1387.
1366(53) 0.000356 1279. 1421.
1507(56) 0.0003189 1278. 1468.
1533(56) 0.0003189 1277. 1525.
1622(58) 0.0002973 1276. 1579.
1589(57) 0.0003078 1275. 1606.
1612(58) 0.0002973 1274. 1584.
1558(57) 0.0003078 1273. 1514.
1411(54) 0.0003429 1272. 1427.
1297(52) 0.000370 1270. 1354.
1213(50) 0.000400 1269. 1307.
1242(51) 0.000384 1268. 1284.
1293(52) 0.000370 1267. 1274.
1275(51) 0.000384 1266. 1270.
1260(51) 0.000384 1265. 1269.
1196(50) 0.000400 1264. 1267.
1224(50) 0.000400 1263. 1266.
1257(51) 0.000384 1262. 1264.
1313(52) 0.000370 1261. 1263.
1287(52) 0.000370 1260. 1262.
1253(74) 0.0001826 1259. 1261.
1357(52) 0.000370 1258. 1260.
1260(50) 0.000400 1257. 1259.
1250(50) 0.000400 1256. 1258.
1346(52) 0.000370 1255. 1257.
1251(50) 0.000400 1254. 1256.
1261(50) 0.000400 1253. 1255.
1243(50) 0.000400 1252. 1254.
1243(50) 0.000400 1251. 1254.
1258(50) 0.000400 1250. 1253.
1233(50) 0.000400 1249. 1252.
1251(50) 0.000400 1249. 1251.
1318(51) 0.000384 1248. 1251.
1326(52) 0.000370 1247. 1250.
1339(52) 0.000370 1246. 1249.
1272(51) 0.000384 1245. 1249.
1254(50) 0.000400 1244. 1248.
1277(51) 0.000384 1243. 1250.
1324(52) 0.000370 1242. 1250.
1348(52) 0.000370 1241. 1250.
1296(51) 0.000384 1241. 1251.
1210(49) 0.000416 1240. 1255.
1288(51) 0.000384 1239. 1263.
1322(52) 0.000370 1238. 1277.
1297(51) 0.000384 1237. 1302.
1426(54) 0.0003429 1236. 1337.
1420(53) 0.000356 1236. 1386.
1401(53) 0.000356 1235. 1449.
1535(56) 0.0003189 1234. 1531.
1644(58) 0.0002973 1233. 1642.
1862(61) 0.0002687 1233. 1796.
2060(65) 0.0002367 1232. 2004.
2260(68) 0.0002163 1231. 2250.
2644(73) 0.0001877 1230. 2471.
2564(72) 0.0001929 1229. 2563.
2442(70) 0.0002041 1229. 2446.
2091(65) 0.0002367 1228. 2150.
1775(60) 0.0002778 1227. 1807.
1562(56) 0.0003189 1226. 1534.
1346(52) 0.000370 1226. 1370.
1218(49) 0.000416 1225. 1294.
1248(50) 0.000400 1224. 1265.
1257(50) 0.000400 1224. 1257.
1301(51) 0.000384 1223. 1259.
1307(51) 0.000384 1222. 1268.
1329(52) 0.000370 1222. 1290.
1426(54) 0.0003429 1221. 1331.
1448(54) 0.0003429 1220. 1399.
1447(54) 0.0003429 1219. 1499.
1585(57) 0.0003078 1219. 1636.
1772(60) 0.0002778 1218. 1819.
1918(62) 0.0002601 1217. 2068.
2376(69) 0.0002100 1217. 2412.
2698(74) 0.0001826 1216. 2881.
3332(82) 0.0001487 1216. 3454.
3818(88) 0.0001291 1215. 4001.
3990(90) 0.0001235 1214. 4288.
3682(87) 0.0001321 1214. 4103.
2997(78) 0.0001644 1213. 3469.
2353(69) 0.0002100 1212. 2668.
1884(62) 0.0002601 1212. 1996.
1484(55) 0.0003306 1211. 1575.
1265(50) 0.000400 1211. 1369.
1237(50) 0.000400 1210. 1286.
1249(50) 0.000400 1209. 1255.
1284(51) 0.000384 1209. 1243.
1256(50) 0.000400 1208. 1237.
1293(51) 0.000384 1208. 1232.
1227(50) 0.000400 1207. 1228.
1200(49) 0.000416 1206. 1225.
1215(49) 0.000416 1206. 1223.
1212(49) 0.000416 1205. 1221.
1207(49) 0.000416 1205. 1219.
1154(48) 0.000434 1204. 1218.
1231(50) 0.000400 1204. 1217.
1204(49) 0.000416 1203. 1216.
1218(49) 0.000416 1202. 1216.
1165(48) 0.000434 1202. 1216.
1157(48) 0.000434 1201. 1216.
1264(50) 0.000400 1201. 1216.
1161(48) 0.000434 1200. 1216.
1264(50) 0.000400 1200. 1217.
1126(47) 0.000453 1199. 1218.
1157(48) 0.000434 1199. 1219.
1224(50) 0.000400 1198. 1222.
1256(50) 0.000400 1198. 1229.
1320(52) 0.000370 1197. 1242.
1314(51) 0.000384 1197. 1268.
1369(52) 0.000370 1196. 1318.
1440(54) 0.0003429 1196. 1399.
1533(56) 0.0003189 1195. 1520.
1817(61) 0.0002687 1195. 1696.
2044(64) 0.0002441 1194. 1943.
2406(70) 0.0002041 1194. 2290.
2893(77) 0.0001687 1193. 2762.
3504(85) 0.0001384 1193. 3339.
4014(91) 0.0001208 1192. 3890.
4137(92) 0.0001181 1192. 4184.
3998(90) 0.0001235 1191. 4012.
3373(83) 0.0001452 1191. 3395.
2528(68) 0.0002163 1190. 2616.
1916(59) 0.0002873 1190. 1963.
1497(52) 0.000370 1189. 1552.
1301(48) 0.000434 1189. 1350.
1249(47) 0.000453 1188. 1269.
1240(47) 0.000453 1188. 1241.
1249(47) 0.000453 1187. 1234.
1242(47) 0.000453 1187. 1236.
1204(47) 0.000453 1187. 1248.
1299(48) 0.000434 1186. 1271.
1273(48) 0.000434 1186. 1308.
1326(49) 0.000416 1185. 1362.
1391(50) 0.000400 1185. 1441.
1526(53) 0.000356 1184. 1551.
1734(56) 0.0003189 1184. 1688.
1838(58) 0.0002973 1183. 1825.
1982(60) 0.0002778 1183. 1909.
1989(60) 0.0002778 1183. 1884.
1822(58) 0.0002973 1182. 1746.
1555(53) 0.000356 1182. 1558.
1459(51) 0.000384 1181. 1393.
1330(49) 0.000416 1181. 1285.
1263(48) 0.000434 1181. 1230.
1221(47) 0.000453 1180. 1207.
1211(47) 0.000453 1180. 1198.
1206(47) 0.000453 1179. 1196.
1199(46) 0.000473 1179. 1197.
1223(47) 0.000453 1178. 1201.
1193(46) 0.000473 1178. 1209.
1193(46) 0.000473 1178. 1221.
1243(47) 0.000453 1177. 1240.
1270(48) 0.000434 1177. 1267.
1343(49) 0.000416 1176. 1303.
1417(51) 0.000384 1176. 1344.
1394(50) 0.000400 1176. 1375.
1429(51) 0.000384 1175. 1381.
1384(50) 0.000400 1175. 1354.
1356(50) 0.000400 1174. 1302.
1284(48) 0.000434 1174. 1251.
1229(47) 0.000453 1174. 1214.
1213(47) 0.000453 1173. 1193.
1240(47) 0.000453 1173. 1183.
1191(46) 0.000473 1173. 1180.
1134(45) 0.000494 1172. 1179.
1208(47) 0.000453 1172. 1181.
1158(46) 0.000473 1171. 1184.
1189(46) 0.000473 1171. 1190.
1173(46) 0.000473 1171. 1202.
1219(47) 0.000453 1170. 1217.
1197(46) 0.000473 1170. 1238.
1193(46) 0.000473 1170. 1264.
1199(46) 0.000473 1169. 1292.
1220(47) 0.000453 1169. 1311.
1202(47) 0.000453 1168. 1309.
1211(47) 0.000453 1168. 1285.
1272(48) 0.000434 1168. 1248.
1191(46) 0.000473 1167. 1215.
1237(47) 0.000453 1167. 1192.
1129(45) 0.000494 1167. 1181.
1174(46) 0.000473 1166. 1175.
1205(47) 0.000453 1166. 1173.
1259(48) 0.000434 1166. 1173.
1178(46) 0.000473 1165. 1172.
1157(46) 0.000473 1165. 1173.
1186(46) 0.000473 1165. 1174.
1200(47) 0.000453 1164. 1174.
1172(46) 0.000473 1164. 1174.
1152(46) 0.000473 1163. 1175.
1180(46) 0.000473 1163. 1175.
1160(46) 0.000473 1163. 1176.
1154(46) 0.000473 1162. 1177.
1191(46) 0.000473 1162. 1179.
1266(48) 0.000434 1162. 1181.
1272(48) 0.000434 1161. 1184.
1258(48) 0.000434 1161. 1188.
1251(48) 0.000434 1161. 1194.
1228(47) 0.000453 1160. 1205.
1309(49) 0.000416 1160. 1229.
1366(50) 0.000400 1160. 1274.
1462(51) 0.000384 1159. 1358.
1495(52) 0.000370 1159. 1500.
1818(57) 0.0003078 1159. 1724.
2082(62) 0.0002601 1158. 2059.
2517(68) 0.0002163 1158. 2524.
2987(74) 0.0001826 1158. 3089.
3576(81) 0.0001524 1157. 3622.
4009(86) 0.0001352 1157. 3907.
3804(84) 0.0001417 1157. 3754.
3275(77) 0.0001687 1156. 3190.
2565(68) 0.0002163 1156. 2484.
1860(58) 0.0002973 1156. 1893.
1597(54) 0.0003429 1155. 1522.
1505(52) 0.000370 1155. 1340.
1272(48) 0.000434 1155. 1274.
1214(47) 0.000453 1154. 1268.
1288(48) 0.000434 1154. 1302.
1427(51) 0.000384 1154. 1376.
1621(54) 0.0003429 1153. 1504.
1840(58) 0.0002973 1153. 1702.
1999(60) 0.0002778 1153. 1985.
2410(66) 0.0002296 1152. 2337.
2958(73) 0.0001877 1152. 2682.
3117(75) 0.0001778 1152. 2886.
3077(75) 0.0001778 1151. 2821.
2704(70) 0.0002041 1151. 2489.
2169(63) 0.0002520 1151. 2047.
1767(57) 0.0003078 1150. 1663.
1434(51) 0.000384 1150. 1414.
1302(48) 0.000434 1150. 1290.
1228(47) 0.000453 1149. 1244.
1312(49) 0.000416 1149. 1244.
1300(48) 0.000434 1149. 1275.
1361(50) 0.000400 1148. 1340.
1374(50) 0.000400 1148. 1451.
1598(54) 0.0003429 1148. 1622.
1800(57) 0.0003078 1147. 1857.
2159(63) 0.0002520 1147. 2130.
2350(65) 0.0002367 1147. 2369.
2411(66) 0.0002296 1146. 2465.
2330(65) 0.0002367 1146. 2344.
2042(61) 0.0002687 1146. 2053.
1768(57) 0.0003078 1145. 1727.
1498(52) 0.000370 1145. 1472.
1304(49) 0.000416 1145. 1323.
1266(48) 0.000434 1144. 1261.
1311(49) 0.000416 1144. 1257.
1310(49) 0.000416 1144. 1297.
1407(50) 0.000400 1143. 1392.
1623(54) 0.0003429 1143. 1557.
1746(56) 0.0003189 1143. 1820.
2145(62) 0.0002601 1142. 2195.
2620(69) 0.0002100 1142. 2655.
3139(76) 0.0001731 1142. 3095.
3416(79) 0.0001602 1141. 3339.
3296(78) 0.0001644 1141. 3233.
2862(72) 0.0001929 1141. 2795.
2386(66) 0.0002296 1141. 2233.
1878(58) 0.0002973 1140. 1753.
1468(52) 0.000370 1140. 1443.
1297(48) 0.000434 1140. 1284.
1132(45) 0.000494 1139. 1215.
1146(45) 0.000494 1139. 1189.
1179(46) 0.000473 1139. 1178.
1206(47) 0.000453 1138. 1174.
1227(47) 0.000453 1138. 1175.
1144(45) 0.000494 1138. 1180.
1159(46) 0.000473 1137. 1186.
1203(47) 0.000453 1137. 1193.
1232(47) 0.000453 1137. 1195.
1199(47) 0.000453 1136. 1190.
1162(46) 0.000473 1136. 1179.
1142(45) 0.000494 1136. 1166.
1197(46) 0.000473 1135. 1156.
1170(46) 0.000473 1135. 1149.
1118(45) 0.000494 1135. 1145.
1122(45) 0.000494 1134. 1143.
1162(46) 0.000473 1134. 1142.
1133(45) 0.000494 1134. 1141.
1081(44) 0.000517 1133. 1142.
1157(46) 0.000473 1133. 1144.
1125(45) 0.000494 1133. 1147.
1139(45) 0.000494 1132. 1150.
1145(45) 0.000494 1132. 1152.
1168(46) 0.000473 1132. 1152.
1186(46) 0.000473 1131. 1150.
1154(46) 0.000473 1131. 1145.
1143(45) 0.000494 1131. 1141.
1105(45) 0.000494 1130. 1138.
1165(46) 0.000473 1130. 1136.
1097(44) 0.000517 1130. 1136.
1066(44) 0.000517 1129. 1138.
1104(45) 0.000494 1129. 1143.
1161(46) 0.000473 1129. 1152.
1168(46) 0.000473 1128. 1166.
1145(45) 0.000494 1128. 1186.
1187(46) 0.000473 1128. 1208.
1202(47) 0.000453 1127. 1227.
1175(46) 0.000473 1127. 1234.
1170(46) 0.000473 1127. 1223.
1164(46) 0.000473 1126. 1197.
1152(46) 0.000473 1126. 1171.
1101(45) 0.000494 1126. 1150.
1103(45) 0.000494 1125. 1137.
1171(46) 0.000473 1125. 1131.
1072(44) 0.000517 1125. 1128.
1117(45) 0.000494 1124. 1127.
1142(45) 0.000494 1124. 1126.
1144(45) 0.000494 1124. 1126.
1136(45) 0.000494 1123. 1125.
1188(46) 0.000473 1123. 1125.
1160(46) 0.000473 1123. 1125.
1117(45) 0.000494 1122. 1124.
1135(45) 0.000494 1122. 1124.
1138(45) 0.000494 1122. 1123.
1223(47) 0.000453 1121. 1123.
1127(45) 0.000494 1121. 1123.
1106(45) 0.000494 1121. 1123.
1035(43) 0.000541 1120. 1122.
1112(45) 0.000494 1120. 1123.
1183(46) 0.000473 1120. 1123.
1154(44) 0.000517 1119. 1123.
1169(44) 0.000517 1119. 1123.
1180(44) 0.000517 1119. 1123.
1211(45) 0.000494 1118. 1123.
1128(43) 0.000541 1118. 1123.
1112(43) 0.000541 1118. 1124.
1111(43) 0.000541 1117. 1124.
1143(44) 0.000517 1117. 1124.
1145(44) 0.000517 1116. 1124.
1130(44) 0.000517 1116. 1125.
1130(43) 0.000541 1116. 1128.
1109(43) 0.000541 1115. 1133.
1112(43) 0.000541 1115. 1144.
1150(44) 0.000517 1115. 1163.
1170(44) 0.000517 1114. 1194.
1229(45) 0.000494 1114. 1237.
1304(47) 0.000453 1114. 1286.
1362(48) 0.000434 1113. 1327.
1337(47) 0.000453 1113. 1342.
1330(47) 0.000453 1113. 1321.
1250(46) 0.000473 1112. 1273.
1214(45) 0.000494 1112. 1222.
1191(45) 0.000494 1112. 1184.
1160(44) 0.000517 1111. 1168.
1113(43) 0.000541 1111. 1173.
1178(44) 0.000517 1111. 1204.
1244(46) 0.000473 1110. 1267.
1299(47) 0.000453 1110. 1374.
1491(50) 0.000400 1110. 1528.
1694(54) 0.0003429 1109. 1711.
1820(56) 0.0003189 1109. 1874.
1970(58) 0.0002973 1108. 1948.
1912(57) 0.0003078 1108. 1887.
1723(54) 0.0003429 1108. 1716.
1427(49) 0.000416 1107. 1516.
1300(47) 0.000453 1107. 1357.
1272(46) 0.000473 1107. 1267.
1281(46) 0.000473 1106. 1247.
1349(48) 0.000434 1106. 1293.
1494(50) 0.000400 1106. 1412.
1707(54) 0.0003429 1105. 1620.
2016(58) 0.0002973 1105. 1918.
2477(65) 0.0002367 1105. 2268.
2796(69) 0.0002100 1104. 2569.
2988(71) 0.0001984 1104. 2692.
2818(69) 0.0002100 1103. 2553.
2407(64) 0.0002441 1103. 2210.
1959(57) 0.0003078 1103. 1820.
1521(51) 0.000384 1102. 1506.
1335(47) 0.000453 1102. 1309.
1195(45) 0.000494 1102. 1207.
1199(45) 0.000494 1101. 1162.
1185(45) 0.000494 1101. 1143.
1134(44) 0.000517 1101. 1135.
1096(43) 0.000541 1100. 1130.
1124(43) 0.000541 1100. 1127.
1110(43) 0.000541 1099. 1125.
1088(43) 0.000541 1099. 1123.
1122(43) 0.000541 1099. 1123.
1163(44) 0.000517 1098. 1123.
1093(43) 0.000541 1098. 1125.
1090(43) 0.000541 1098. 1131.
1169(44) 0.000517 1097. 1145.
1133(44) 0.000517 1097. 1173.
1172(44) 0.000517 1097. 1228.
1326(47) 0.000453 1096. 1321.
1482(50) 0.000400 1096. 1460.
1662(53) 0.000356 1095. 1630.
1750(54) 0.0003429 1095. 1788.
1777(55) 0.0003306 1095. 1872.
1761(55) 0.0003306 1094. 1833.
1646(53) 0.000356 1094. 1683.
1478(50) 0.000400 1094. 1494.
1321(47) 0.000453 1093. 1332.
1232(45) 0.000494 1093. 1226.
1219(45) 0.000494 1093. 1174.
1224(45) 0.000494 1092. 1162.
1178(44) 0.000517 1092. 1175.
1147(44) 0.000517 1091. 1210.
1144(44) 0.000517 1091. 1259.
1236(46) 0.000473 1091. 1311.
1301(47) 0.000453 1090. 1346.
1357(48) 0.000434 1090. 1346.
1276(46) 0.000473 1090. 1307.
1203(45) 0.000494 1089. 1247.
1101(43) 0.000541 1089. 1190.
1088(43) 0.000541 1088. 1150.
1149(44) 0.000517 1088. 1126.
1080(43) 0.000541 1088. 1115.
1064(42) 0.000567 1087. 1111.
1094(43) 0.000541 1087. 1109.
1071(42) 0.000567 1087. 1109.
1029(41) 0.000595 1086. 1110.
1056(42) 0.000567 1086. 1111.
1060(42) 0.000567 1085. 1114.
1073(42) 0.000567 1085. 1118.
1138(44) 0.000517 1085. 1125.
1133(44) 0.000517 1084. 1137.
1133(44) 0.000517 1084. 1163.
1211(45) 0.000494 1084. 1217.
1342(37) 0.000730 1083. 1324.
1581(48) 0.000434 1083. 1519.
1898(52) 0.000370 1082. 1826.
2258(57) 0.0003078 1082. 2234.
2663(62) 0.0002601 1082. 2666.
2876(65) 0.0002367 1081. 2975.
2851(64) 0.0002441 1081. 3012.
2572(61) 0.0002687 1081. 2736.
2199(56) 0.0003189 1080. 2281.
1778(51) 0.000384 1080. 1831.
1465(46) 0.000473 1079. 1500.
1287(43) 0.000541 1079. 1305.
1163(41) 0.000595 1079. 1217.
1113(40) 0.000625 1078. 1194.
1195(41) 0.000595 1078. 1207.
1220(42) 0.000567 1078. 1238.
1218(42) 0.000567 1077. 1273.
1275(43) 0.000541 1077. 1295.
1328(44) 0.000517 1076. 1289.
1290(43) 0.000541 1076. 1256.
1226(42) 0.000567 1076. 1211.
1192(41) 0.000595 1075. 1173.
1135(40) 0.000625 1075. 1154.
1138(40) 0.000625 1075. 1160.
1216(42) 0.000567 1074. 1197.
1269(43) 0.000541 1074. 1270.
1340(44) 0.000517 1073. 1380.
1442(46) 0.000473 1073. 1509.
1600(48) 0.000434 1073. 1622.
1709(50) 0.000400 1072. 1671.
1642(49) 0.000416 1072. 1626.
1451(46) 0.000473 1072. 1507.
1354(44) 0.000517 1071. 1369.
1245(42) 0.000567 1071. 1258.
1164(41) 0.000595 1070. 1194.
1191(41) 0.000595 1070. 1180.
1219(42) 0.000567 1070. 1209.
1265(43) 0.000541 1069. 1277.
1419(45) 0.000494 1069. 1373.
1504(47) 0.000453 1068. 1473.
1606(48) 0.000434 1068. 1541.
1599(48) 0.000434 1068. 1541.
1508(47) 0.000453 1067. 1468.
1407(45) 0.000494 1067. 1357.
1273(43) 0.000541 1067. 1250.
1192(41) 0.000595 1066. 1172.
1147(41) 0.000595 1066. 1127.
1098(40) 0.000625 1065. 1106.
1118(40) 0.000625 1065. 1102.
1155(41) 0.000595 1065. 1105.
1140(40) 0.000625 1064. 1113.
1184(41) 0.000595 1064. 1119.
1160(41) 0.000595 1064. 1119.
1169(41) 0.000595 1063. 1113.
1141(40) 0.000625 1063. 1102.
1058(39) 0.000657 1062. 1091.
1098(40) 0.000625 1062. 1081.
1071(39) 0.000657 1062. 1076.
1044(39) 0.000657 1061. 1074.
1079(39) 0.000657 1061. 1075.
1099(40) 0.000625 1060. 1079.
1052(39) 0.000657 1060. 1083.
1069(39) 0.000657 1060. 1087.
1113(40) 0.000625 1059. 1089.
1085(39) 0.000657 1059. 1087.
1034(38) 0.000693 1059. 1083.
1050(39) 0.000657 1058. 1079.
1083(39) 0.000657 1058. 1078.
1083(39) 0.000657 1057. 1082.
1100(40) 0.000625 1057. 1094.
1132(40) 0.000625 1057. 1118.
1119(40) 0.000625 1056. 1153.
1206(42) 0.000567 1056. 1195.
1229(42) 0.000567 1056. 1233.
1274(43) 0.000541 1055. 1252.
1227(42) 0.000567 1055. 1240.
1187(41) 0.000595 1054. 1202.
1120(40) 0.000625 1054. 1156.
1087(39) 0.000657 1054. 1116.
1036(39) 0.000657 1053. 1089.
1084(39) 0.000657 1053. 1073.
1118(40) 0.000625 1053. 1065.
1072(39) 0.000657 1052. 1061.
1031(38) 0.000693 1052. 1060.
1045(39) 0.000657 1051. 1059.
1030(38) 0.000693 1051. 1058.
1059(39) 0.000657 1051. 1058.
1014(38) 0.000693 1050. 1058.
1022(38) 0.000693 1050. 1058.
1062(39) 0.000657 1049. 1060.
1065(39) 0.000657 1049. 1063.
1163(41) 0.000595 1049. 1068.
1093(40) 0.000625 1048. 1078.
1102(40) 0.000625 1048. 1092.
1122(40) 0.000625 1048. 1107.
1167(41) 0.000595 1047. 1120.
1143(40) 0.000625 1047. 1126.
1120(40) 0.000625 1046. 1122.
1094(40) 0.000625 1046. 1112.
1098(40) 0.000625 1046. 1104.
1147(38) 0.000693 1045. 1109.
1163(39) 0.000657 1045. 1134.
1210(40) 0.000625 1045. 1190.
1340(42) 0.000567 1044. 1284.
1459(43) 0.000541 1044. 1409.
1542(45) 0.000494 1043. 1540.
1719(47) 0.000453 1043. 1633.
1759(48) 0.000434 1043. 1645.
1511(44) 0.000517 1042. 1566.
1449(43) 0.000541 1042. 1434.
1336(42) 0.000567 1042. 1303.
1187(39) 0.000657 1041. 1206.
1127(38) 0.000693 1041. 1155.
1135(38) 0.000693 1041. 1147.
1182(39) 0.000657 1040. 1170.
1220(40) 0.000625 1040. 1211.
1161(39) 0.000657 1039. 1252.
1231(40) 0.000625 1039. 1273.
1224(40) 0.000625 1039. 1262.
1230(40) 0.000625 1038. 1221.
1123(38) 0.000693 1038. 1169.
1127(38) 0.000693 1038. 1122.
1111(38) 0.000693 1037. 1089.
1096(38) 0.000693 1037. 1070.
1073(37) 0.000730 1036. 1062.
1076(37) 0.000730 1036. 1060.
1058(37) 0.000730 1036. 1061.
1048(37) 0.000730 1035. 1062.
1020(36) 0.000772 1035. 1062.
1051(37) 0.000730 1035. 1060.
1066(37) 0.000730 1034. 1056.
1043(37) 0.000730 1034. 1053.
1032(36) 0.000772 1034. 1053.
1059(37) 0.000730 1033. 1056.
1084(37) 0.000730 1033. 1063.
1068(37) 0.000730 1032. 1075.
1086(37) 0.000730 1032. 1089.
1070(37) 0.000730 1032. 1102.
1104(38) 0.000693 1031. 1109.
1122(38) 0.000693 1031. 1108.
1102(38) 0.000693 1031. 1101.
1120(38) 0.000693 1030. 1096.
1084(37) 0.000730 1030. 1104.
1122(38) 0.000693 1030. 1136.
1204(39) 0.000657 1029. 1201.
1321(41) 0.000595 1029. 1302.
1545(45) 0.000494 1028. 1430.
1704(47) 0.000453 1028. 1554.
1733(47) 0.000453 1028. 1629.
1642(46) 0.000473 1027. 1618.
1549(45) 0.000494 1027. 1523.
1459(43) 0.000541 1027. 1387.
1253(40) 0.000625 1026. 1258.
1195(39) 0.000657 1026. 1162.
1149(38) 0.000693 1026. 1101.
1042(37) 0.000730 1025. 1069.
1057(37) 0.000730 1025. 1054.
1076(37) 0.000730 1025. 1047.
1051(37) 0.000730 1024. 1043.
1057(37) 0.000730 1024. 1040.
1050(37) 0.000730 1024. 1038.
1041(37) 0.000730 1023. 1037.
1059(37) 0.000730 1023. 1035.
1010(36) 0.000772 1022. 1035.
1055(37) 0.000730 1022. 1034.
1001(36) 0.000772 1022. 1034.
1012(36) 0.000772 1021. 1033.
1083(37) 0.000730 1021. 1034.
1039(37) 0.000730 1021. 1034.
1051(37) 0.000730 1020. 1035.
1025(36) 0.000772 1020. 1037.
1014(36) 0.000772 1020. 1041.
1021(36) 0.000772 1019. 1049.
1024(36) 0.000772 1019. 1065.
1045(37) 0.000730 1019. 1093.
1110(38) 0.000693 1018. 1137.
1158(39) 0.000657 1018. 1195.
1269(40) 0.000625 1018. 1255.
1319(41) 0.000595 1017. 1300.
1284(41) 0.000595 1017. 1311.
1290(41) 0.000595 1017. 1282.
1230(40) 0.000625 1016. 1230.
1194(39) 0.000657 1016. 1179.
1160(39) 0.000657 1016. 1149.
1111(38) 0.000693 1015. 1151.
1151(39) 0.000657 1015. 1186.
1214(40) 0.000625 1015. 1245.
1277(41) 0.000595 1014. 1312.
1348(42) 0.000567 1014. 1363.
1393(42) 0.000567 1014. 1374.
1248(40) 0.000625 1013. 1343.
1225(40) 0.000625 1013. 1293.
1215(40) 0.000625 1013. 1260.
1220(40) 0.000625 1012. 1276.
1377(42) 0.000567 1012. 1363.
1528(44) 0.000517 1012. 1528.
1713(47) 0.000453 1011. 1750.
2004(51) 0.000384 1011. 1974.
2131(53) 0.000356 1011. 2120.
2090(52) 0.000370 1010. 2118.
1926(47) 0.000453 1010. 1966.
1689(44) 0.000517 1010. 1733.
1461(41) 0.000595 1009. 1507.
1337(39) 0.000657 1009. 1341.
1195(37) 0.000730 1009. 1253.
1262(38) 0.000693 1008. 1233.
1258(38) 0.000693 1008. 1256.
1267(38) 0.000693 1008. 1292.
1305(39) 0.000657 1007. 1314.
1275(38) 0.000693 1007. 1302.
1266(38) 0.000693 1007. 1260.
1220(37) 0.000730 1006. 1210.
1152(36) 0.000772 1006. 1174.
1109(36) 0.000772 1006. 1169.
1147(36) 0.000772 1005. 1202.
1248(38) 0.000693 1005. 1267.
1319(39) 0.000657 1005. 1346.
1369(40) 0.000625 1004. 1412.
1417(40) 0.000625 1004. 1434.
1359(39) 0.000657 1004. 1398.
1315(39) 0.000657 1004. 1320.
1214(37) 0.000730 1003. 1232.
1113(36) 0.000772 1003. 1160.
1055(35) 0.000816 1002.6 1115.8
1047(35) 0.000816 1002.3 1098.5
1068(35) 0.000816 1002.0 1101.2
1102(35) 0.000816 1001.7 1112.9
1135(36) 0.000772 1001. 1122.
1078(35) 0.000816 1001.1 1120.2
1064(35) 0.000816 1000.8 1106.1
1026(34) 0.000865 1000.5 1086.0
1043(34) 0.000865 1000.1 1068.6
1058(35) 0.000816 999.8 1060.0
1073(35) 0.000816 999.5 1063.5
1061(35) 0.000816 999.2 1077.9
1083(35) 0.000816 998.9 1098.4
1140(36) 0.000772 999. 1117.
1137(36) 0.000772 998. 1125.
1120(36) 0.000772 998. 1117.
1130(36) 0.000772 998. 1095.
1158(36) 0.000772 997. 1069.
1156(36) 0.000772 997. 1046.
1040(34) 0.000865 996.8 1028.6
1001(34) 0.000865 996.5 1017.4
1032(34) 0.000865 996.2 1011.2
1036(34) 0.000865 996.0 1008.0
1013(34) 0.000865 995.7 1006.3
1006(34) 0.000865 995.4 1005.5
1010(34) 0.000865 995.1 1005.3
1007(34) 0.000865 994.8 1005.5
1016(34) 0.000865 994.5 1006.9
1035(34) 0.000865 994.2 1009.4
1028(34) 0.000865 993.9 1013.6
1029(34) 0.000865 993.6 1019.3
1022(34) 0.000865 993.3 1025.7
1020(34) 0.000865 993.1 1031.3
1030(34) 0.000865 992.8 1034.6
1017(34) 0.000865 992.5 1035.6
1032(34) 0.000865 992.2 1036.9
1053(35) 0.000816 991.9 1042.9
1060(35) 0.000816 991.6 1060.6
1062(35) 0.000816 991.3 1093.8
1142(36) 0.000772 991. 1143.
1190(37) 0.000730 991. 1202.
1241(38) 0.000693 991. 1256.
1218(37) 0.000730 990. 1287.
1246(38) 0.000693 990. 1279.
1241(38) 0.000693 990. 1236.
1201(37) 0.000730 989. 1179.
1156(36) 0.000772 989. 1127.
1047(35) 0.000816 988.9 1091.2
1046(35) 0.000816 988.6 1075.6
1050(35) 0.000816 988.3 1076.3
1060(35) 0.000816 988.0 1085.4
1086(35) 0.000816 987.8 1093.9
1078(35) 0.000816 987.5 1095.0
1099(35) 0.000816 987.2 1088.3
1094(35) 0.000816 987.0 1080.8
1099(35) 0.000816 986.7 1081.6
1101(35) 0.000816 986.4 1099.2
1129(36) 0.000772 986. 1138.
1213(37) 0.000730 986. 1193.
1255(38) 0.000693 986. 1254.
1286(38) 0.000693 985. 1300.
1339(39) 0.000657 985. 1311.
1253(38) 0.000693 985. 1280.
1226(37) 0.000730 985. 1221.
1176(37) 0.000730 984. 1155.
1094(35) 0.000816 984.1 1097.2
1063(35) 0.000816 983.8 1056.0
1025(34) 0.000865 983.5 1030.7
1031(34) 0.000865 983.3 1017.5
995(34) 0.000865 983.0 1012.2
991(34) 0.000865 982.8 1012.0
1034(34) 0.000865 982.5 1017.0
1075(35) 0.000816 982.3 1029.6
1073(35) 0.000816 982.0 1054.8
1106(35) 0.000816 981.8 1098.7
1168(36) 0.000772 982. 1166.
1225(37) 0.000730 981. 1254.
1367(38) 0.000693 981. 1350.
1459(39) 0.000657 981. 1429.
1496(39) 0.000657 981. 1462.
1428(38) 0.000693 980. 1435.
1318(37) 0.000730 980. 1362.
1269(36) 0.000772 980. 1275.
1190(35) 0.000816 979.6 1203.2
1146(34) 0.000865 979.3 1162.3
1143(34) 0.000865 979.1 1153.6
1138(34) 0.000865 978.8 1167.1
1181(35) 0.000816 978.6 1186.1
1137(34) 0.000865 978.4 1193.2
1139(34) 0.000865 978.1 1178.1
1106(34) 0.000865 977.9 1144.0
1112(34) 0.000865 977.6 1102.5
1048(33) 0.000918 977.4 1064.0
1059(33) 0.000918 977.2 1034.4
1051(33) 0.000918 976.9 1014.7
1053(33) 0.000918 976.7 1003.1
977(32) 0.000977 976.5 996.9
933(31) 0.001041 976.2 993.7
1010(32) 0.000977 976.0 992.2
1015(32) 0.000977 975.8 991.5
968(32) 0.000977 975.6 991.5
945(31) 0.001041 975.3 992.0
1018(33) 0.000918 975.1 993.1
1058(33) 0.000918 974.9 994.6
996(32) 0.000977 974.7 996.9
1044(33) 0.000918 974.4 1000.0
1001(32) 0.000977 974.2 1004.7
1009(32) 0.000977 974.0 1013.0
1013(32) 0.000977 973.8 1028.6
1055(33) 0.000918 973.5 1057.1
1073(33) 0.000918 973.3 1103.8
1141(34) 0.000865 973.1 1171.2
1228(36) 0.000772 973. 1254.
1290(37) 0.000730 973. 1339.
1305(37) 0.000730 972. 1402.
1334(37) 0.000730 972. 1422.
1329(37) 0.000730 972. 1394.
1259(36) 0.000772 972. 1340.
1204(35) 0.000816 971.6 1291.5
1254(36) 0.000772 971. 1275.
1259(36) 0.000772 971. 1302.
1315(37) 0.000730 971. 1364.
1395(38) 0.000693 971. 1438.
1473(39) 0.000657 971. 1490.
1448(39) 0.000657 970. 1490.
1339(37) 0.000730 970. 1432.
1278(36) 0.000772 970. 1338.
1216(35) 0.000816 969.7 1238.8
1180(35) 0.000816 969.5 1155.8
1094(34) 0.000865 969.3 1098.1
1035(33) 0.000918 969.1 1064.6
1062(33) 0.000918 968.9 1048.2
1029(33) 0.000918 968.7 1040.4
995(32) 0.000977 968.5 1035.2
1024(33) 0.000918 968.3 1030.8
981(32) 0.000977 968.1 1029.0
1038(33) 0.000918 967.9 1032.7
1048(33) 0.000918 967.7 1044.1
1019(33) 0.000918 967.6 1062.8
1073(33) 0.000918 967.4 1085.3
1092(34) 0.000865 967.2 1104.6
1119(34) 0.000865 967.0 1114.2
1095(34) 0.000865 966.8 1110.2
1130(34) 0.000865 966.6 1096.7
1057(33) 0.000918 966.4 1083.0
1082(34) 0.000865 966.2 1077.6
1060(33) 0.000918 966.0 1085.2
1144(34) 0.000865 965.8 1104.6
1130(34) 0.000865 965.7 1129.3
1069(33) 0.000918 965.5 1148.7
1081(34) 0.000865 965.3 1152.4
1171(35) 0.000816 965.1 1137.1
1132(34) 0.000865 964.9 1109.0
1079(33) 0.000918 964.7 1078.6
1058(33) 0.000918 964.6 1054.3
996(32) 0.000977 964.4 1039.6
1068(33) 0.000918 964.2 1034.2
1074(33) 0.000918 964.0 1034.2
1035(33) 0.000918 963.9 1034.5
1024(33) 0.000918 963.7 1031.1
998(32) 0.000977 963.5 1022.8
961(32) 0.000977 963.3 1011.8
995(32) 0.000977 963.2 1000.8
968(32) 0.000977 963.0 991.6
973(32) 0.000977 962.8 985.0
943(31) 0.001041 962.6 980.9
949(31) 0.001041 962.5 978.7
961(32) 0.000977 962.3 977.8
965(32) 0.000977 962.1 977.7
987(32) 0.000977 962.0 978.1
995(32) 0.000977 961.8 978.9
1048(33) 0.000918 961.6 980.2
1074(33) 0.000918 961.5 981.9
1035(33) 0.000918 961.3 984.4
1003(32) 0.000977 961.1 988.1
982(32) 0.000977 961.0 993.7
1022(33) 0.000918 960.8 1003.9
1053(32) 0.000977 960.7 1022.0
1043(32) 0.000977 960.5 1053.2
1127(33) 0.000918 960.3 1102.7
1170(34) 0.000865 960.2 1172.8
1286(35) 0.000816 960.0 1260.2
1298(35) 0.000816 959.9 1353.3
1451(37) 0.000730 960. 1431.
1468(38) 0.000693 960. 1473.
1470(38) 0.000693 959. 1471.
1453(37) 0.000730 959. 1444.
1425(37) 0.000730 959. 1425.
1440(37) 0.000730 959. 1443.
1502(38) 0.000693 959. 1511.
1655(40) 0.000625 959. 1618.
1595(39) 0.000657 958. 1731.
1844(42) 0.000567 958. 1804.
1762(41) 0.000595 958. 1797.
1768(41) 0.000595 958. 1706.
1622(40) 0.000625 958. 1567.
1424(37) 0.000730 958. 1421.
1304(36) 0.000772 958. 1300.
1260(35) 0.000816 957.5 1217.7
1169(34) 0.000865 957.3 1170.1
1134(33) 0.000918 957.2 1145.2
1145(33) 0.000918 957.1 1128.0
1170(34) 0.000865 956.9 1108.4
1123(33) 0.000918 956.8 1084.7
1056(32) 0.000977 956.6 1060.4
1085(32) 0.000977 956.5 1039.7
1111(33) 0.000918 956.4 1025.2
1036(32) 0.000977 956.2 1016.9
1058(32) 0.000977 956.1 1013.7
1109(33) 0.000918 956.0 1014.2
1026(31) 0.001041 955.8 1017.9
1057(32) 0.000977 955.7 1026.5
1104(33) 0.000918 955.6 1043.3
1132(33) 0.000918 955.4 1071.5
1156(33) 0.000918 955.3 1111.6
1241(35) 0.000816 955.2 1159.4
1208(34) 0.000865 955.0 1205.7
1227(34) 0.000865 954.9 1237.3
1243(35) 0.000816 954.8 1242.4
1170(34) 0.000865 954.7 1219.1
1127(33) 0.000918 954.5 1177.9
1129(33) 0.000918 954.4 1133.1
1153(33) 0.000918 954.3 1095.7
1062(32) 0.000977 954.2 1070.7
1064(32) 0.000977 954.0 1057.2
1140(33) 0.000918 953.9 1050.7
1128(33) 0.000918 953.8 1045.2
1117(33) 0.000918 953.7 1036.5
1041(32) 0.000977 953.6 1024.4
1036(32) 0.000977 953.4 1011.1
1030(32) 0.000977 953.3 999.0
973(31) 0.001041 953.2 989.4
954(30) 0.001111 953.1 983.2
991(31) 0.001041 953.0 980.5
998(31) 0.001041 952.8 981.3
1000(31) 0.001041 952.7 986.2
1027(32) 0.000977 952.6 996.3
1029(32) 0.000977 952.5 1013.3
1028(32) 0.000977 952.4 1038.2
1035(32) 0.000977 952.3 1070.2
1068(32) 0.000977 952.2 1106.4
1041(32) 0.000977 952.1 1141.1
1153(33) 0.000918 951.9 1167.4
1172(34) 0.000865 951.8 1181.6
1169(34) 0.000865 951.7 1188.1
1202(34) 0.000865 951.6 1199.0
1212(34) 0.000865 951.5 1226.9
1297(35) 0.000816 951.4 1276.8
1293(35) 0.000816 951.3 1344.4
1420(37) 0.000730 951. 1414.
1481(38) 0.000693 951. 1462.
1403(37) 0.000730 951. 1466.
1364(36) 0.000772 951. 1420.
1330(36) 0.000772 951. 1340.
1256(35) 0.000816 950.7 1250.1
1178(34) 0.000865 950.6 1167.7
1089(32) 0.000977 950.5 1103.2
1038(32) 0.000977 950.4 1058.7
1038(32) 0.000977 950.3 1030.8
1012(31) 0.001041 950.2 1013.7
925(30) 0.001111 950.1 1002.5
990(31) 0.001041 950.0 993.8
965(31) 0.001041 949.9 987.6
1008(31) 0.001041 949.8 983.1
984(31) 0.001041 949.7 980.5
1027(31) 0.001041 949.6 979.8
984(31) 0.001041 949.5 981.4
1019(31) 0.001041 949.4 985.9
985(31) 0.001041 949.3 994.6
1006(31) 0.001041 949.2 1009.2
1046(32) 0.000977 949.2 1031.2
1112(33) 0.000918 949.1 1060.4
1094(33) 0.000918 949.0 1094.2
1166(34) 0.000865 948.9 1127.2
1190(34) 0.000865 948.8 1151.4
1189(34) 0.000865 948.7 1159.4
1194(34) 0.000865 948.6 1150.6
1198(32) 0.000977 948.5 1132.4
1174(32) 0.000977 948.5 1114.3
1140(32) 0.000977 948.4 1103.6
1159(32) 0.000977 948.3 1102.6
1109(31) 0.001041 948.2 1109.4
1110(31) 0.001041 948.1 1119.1
1111(31) 0.001041 948.0 1126.3
1131(31) 0.001041 948.0 1130.6
1123(31) 0.001041 947.9 1137.8
1189(32) 0.000977 947.8 1155.1
1197(32) 0.000977 947.7 1187.1
1191(32) 0.000977 947.6 1231.5
1262(33) 0.000918 947.5 1279.1
1413(35) 0.000816 947.5 1314.7
1362(35) 0.000816 947.4 1321.9
1302(34) 0.000865 947.3 1294.5
1299(34) 0.000865 947.2 1241.3
1223(33) 0.000918 947.2 1177.6
1097(31) 0.001041 947.1 1116.7
1114(31) 0.001041 947.0 1066.8
1079(31) 0.001041 946.9 1031.2
1064(30) 0.001111 946.9 1009.5
978(29) 0.001189 946.8 999.9
1021(30) 0.001111 946.7 1000.4
1036(30) 0.001111 946.6 1010.4
1035(30) 0.001111 946.6 1028.4
1083(31) 0.001041 946.5 1053.8
1137(32) 0.000977 946.4 1083.9
1094(31) 0.001041 946.4 1114.2
1117(31) 0.001041 946.3 1138.5
1169(32) 0.000977 946.2 1151.0
1177(32) 0.000977 946.1 1151.1
1205(33) 0.000918 946.1 1144.8
1206(33) 0.000918 946.0 1140.7
1226(33) 0.000918 945.9 1144.9
1210(33) 0.000918 945.9 1159.3
1206(32) 0.000977 945.8 1181.0
1285(34) 0.000865 945.7 1203.7
1262(33) 0.000918 945.7 1221.8
1236(33) 0.000918 945.6 1236.1
1270(33) 0.000918 945.5 1255.2
1365(35) 0.000816 945.5 1289.9
1362(35) 0.000816 945.4 1344.9
1388(35) 0.000816 945.4 1416.5
1536(37) 0.000730 945. 1490.
1529(37) 0.000730 945. 1542.
1520(37) 0.000730 945. 1549.
1545(37) 0.000730 945. 1507.
1510(36) 0.000772 945. 1430.
1361(35) 0.000816 945.0 1341.2
1269(33) 0.000918 944.9 1260.2
1220(33) 0.000918 944.9 1197.0
1189(32) 0.000977 944.8 1153.1
1144(32) 0.000977 944.7 1123.1
1136(32) 0.000977 944.7 1099.4
1064(30) 0.001111 944.6 1076.1
1064(30) 0.001111 944.6 1052.4
1053(30) 0.001111 944.5 1029.7
985(29) 0.001189 944.5 1009.8
990(29) 0.001189 944.4 993.8
1002(30) 0.001111 944.4 982.2
986(29) 0.001189 944.3 974.6
970(29) 0.001189 944.2 970.3
963(29) 0.001189 944.2 968.5
932(28) 0.001276 944.1 968.7
970(29) 0.001189 944.1 970.6
958(29) 0.001189 944.0 973.7
987(29) 0.001189 944.0 977.8
1036(30) 0.001111 943.9 983.0
1039(30) 0.001111 943.9 989.3
1000(30) 0.001111 943.8 997.3
990(29) 0.001189 943.8 1008.6
984(29) 0.001189 943.7 1024.9
1025(30) 0.001111 943.7 1047.0
1090(31) 0.001041 943.6 1073.7
1102(31) 0.001041 943.6 1101.4
1130(31) 0.001041 943.5 1124.1
1123(31) 0.001041 943.5 1134.6
1133(31) 0.001041 943.4 1128.7
1110(31) 0.001041 943.4 1108.3
1065(31) 0.001041 943.3 1079.6
1052(30) 0.001111 943.3 1049.3
1064(30) 0.001111 943.2 1022.3
994(29) 0.001189 943.2 1001.2
952(29) 0.001189 943.1 987.0
947(29) 0.001189 943.1 979.1
934(29) 0.001189 943.0 976.6
934(29) 0.001189 943.0 978.5
1004(30) 0.001111 942.9 984.1
982(29) 0.001189 942.9 992.9
1015(30) 0.001111 942.9 1004.3
1044(30) 0.001111 942.8 1017.8
1010(30) 0.001111 942.8 1033.8
1035(30) 0.001111 942.7 1052.8
1063(30) 0.001111 942.7 1077.7
1047(30) 0.001111 942.6 1112.2
1175(32) 0.000977 942.6 1158.8
1160(32) 0.000977 942.5 1216.7
1207(33) 0.000918 942.5 1279.8
1234(33) 0.000918 942.5 1336.4
1236(46) 0.000473 942. 1372.
1262(32) 0.000977 942.4 1373.8
1274(32) 0.000977 942.3 1342.0
1294(32) 0.000977 942.3 1288.2
1216(31) 0.001041 942.3 1227.6
1148(30) 0.001111 942.2 1171.9
1109(30) 0.001111 942.2 1127.1
1074(29) 0.001189 942.1 1094.4
1046(29) 0.001189 942.1 1071.1
1022(29) 0.001189 942.1 1053.4
1057(29) 0.001189 942.0 1038.9
1047(29) 0.001189 942.0 1027.2
1046(29) 0.001189 941.9 1018.6
1054(29) 0.001189 941.9 1013.0
1056(29) 0.001189 941.9 1010.2
1047(29) 0.001189 941.8 1008.7
1061(29) 0.001189 941.8 1007.6
1055(29) 0.001189 941.7 1005.8
1038(29) 0.001189 941.7 1004.0
1031(29) 0.001189 941.7 1003.1
1013(29) 0.001189 941.6 1004.1
1028(29) 0.001189 941.6 1007.6
1055(29) 0.001189 941.6 1013.7
1043(29) 0.001189 941.5 1021.8
1022(29) 0.001189 941.5 1032.9
1013(29) 0.001189 941.4 1047.9
1035(29) 0.001189 941.4 1068.6
1071(29) 0.001189 941.4 1096.3
1101(30) 0.001111 941.3 1129.7
1134(30) 0.001111 941.3 1164.6
1186(31) 0.001041 941.3 1193.8
1139(30) 0.001111 941.2 1208.5
1158(31) 0.001041 941.2 1202.7
1190(31) 0.001041 941.2 1177.3
1161(31) 0.001041 941.1 1139.6
1084(30) 0.001111 941.1 1098.1
1061(29) 0.001189 941.1 1059.4
1057(29) 0.001189 941.0 1027.1
1004(29) 0.001189 941.0 1002.8
1004(28) 0.001276 941.0 985.9
1014(29) 0.001189 940.9 974.8
963(28) 0.001276 940.9 967.9
967(28) 0.001276 940.9 963.8
976(28) 0.001276 940.8 961.8
986(28) 0.001276 940.8 961.3
974(28) 0.001276 940.8 962.4
969(28) 0.001276 940.7 965.5
1008(29) 0.001189 940.7 971.3
973(28) 0.001276 940.7 980.5
928(27) 0.001372 940.6 993.3
943(28) 0.001276 940.6 1009.7
990(28) 0.001276 940.6 1028.8
1038(29) 0.001189 940.5 1048.6
1059(29) 0.001189 940.5 1066.7
1081(30) 0.001111 940.5 1080.1
1077(30) 0.001111 940.4 1088.0
1085(30) 0.001111 940.4 1092.1
1085(30) 0.001111 940.4 1095.8
1144(30) 0.001111 940.3 1102.0
1131(30) 0.001111 940.3 1111.1
1147(30) 0.001111 940.3 1121.2
1172(31) 0.001041 940.2 1128.3
1187(31) 0.001041 940.2 1127.9
1135(30) 0.001111 940.2 1118.5
1134(30) 0.001111 940.1 1102.6
1113(30) 0.001111 940.1 1084.6
1083(30) 0.001111 940.1 1068.3
1109(30) 0.001111 940.0 1056.1
1106(30) 0.001111 940.0 1049.0
1087(30) 0.001111 940.0 1046.3
1032(29) 0.001189 939.9 1047.7
1082(30) 0.001111 939.9 1053.1
1117(30) 0.001111 939.9 1063.2
1153(31) 0.001041 939.8 1078.2
1159(31) 0.001041 939.8 1096.6
1164(31) 0.001041 939.8 1115.6
1205(31) 0.001041 939.7 1130.9
1220(31) 0.001041 939.7 1138.3
1177(31) 0.001041 939.7 1136.1
1152(31) 0.001041 939.6 1127.4
1143(30) 0.001111 939.6 1116.3
1166(31) 0.001041 939.6 1106.7
1144(30) 0.001111 939.5 1099.9
1125(30) 0.001111 939.5 1095.0
1105(30) 0.001111 939.5 1089.5
1109(30) 0.001111 939.5 1080.9
1111(30) 0.001111 939.4 1068.1
1105(30) 0.001111 939.4 1052.9
1050(29) 0.001189 939.4 1037.8
1012(29) 0.001189 939.3 1024.6
998(28) 0.001276 939.3 1014.3
1028(29) 0.001189 939.3 1006.7
1004(28) 0.001276 939.2 1001.3
988(28) 0.001276 939.2 997.6
1001(28) 0.001276 939.2 995.3
1011(29) 0.001189 939.1 994.5
1043(29) 0.001189 939.1 995.1
1032(29) 0.001189 939.1 996.7
1045(29) 0.001189 939.0 998.2
1047(29) 0.001189 939.0 998.4
1070(30) 0.001111 939.0 996.0
1020(29) 0.001189 938.9 991.0
1030(29) 0.001189 938.9 984.3
1026(29) 0.001189 938.9 976.9
987(28) 0.001276 938.8 969.9
943(28) 0.001276 938.8 963.8
981(28) 0.001276 938.8 959.2
975(28) 0.001276 938.7 956.0
948(28) 0.001276 938.7 954.0
963(28) 0.001276 938.7 953.2
994(28) 0.001276 938.6 953.5
981(28) 0.001276 938.6 954.8
971(28) 0.001276 938.6 957.6
953(28) 0.001276 938.5 962.4
984(28) 0.001276 938.5 970.0
969(28) 0.001276 938.5 981.4
978(28) 0.001276 938.4 996.9
1000(29) 0.001189 938.4 1016.9
1020(29) 0.001189 938.3 1040.6
1097(30) 0.001111 938.3 1066.2
1092(30) 0.001111 938.3 1091.2
1073(30) 0.001111 938.2 1112.0
1130(30) 0.001111 938.2 1125.8
1133(30) 0.001111 938.2 1132.0
1142(31) 0.001041 938.1 1133.0
1125(30) 0.001111 938.1 1132.4
1112(30) 0.001111 938.1 1132.9
1163(31) 0.001041 938.0 1134.4
1114(30) 0.001111 938.0 1135.1
1140(30) 0.001111 938.0 1131.4
1098(30) 0.001111 937.9 1120.8
1137(30) 0.001111 937.9 1103.2
1099(30) 0.001111 937.8 1081.4
1046(29) 0.001189 937.8 1058.8
1016(29) 0.001189 937.8 1038.1
1026(29) 0.001189 937.7 1020.6
1018(29) 0.001189 937.7 1007.0
986(28) 0.001276 937.7 996.9
977(28) 0.001276 937.6 989.7
982(28) 0.001276 937.6 985.0
996(28) 0.001276 937.5 982.3
1012(29) 0.001189 937.5 981.1
967(28) 0.001276 937.5 980.9
942(28) 0.001276 937.4 980.8
906(27) 0.001372 937.4 980.2
973(28) 0.001276 937.3 978.6
967(28) 0.001276 937.3 976.2
936(28) 0.001276 937.3 973.5
947(28) 0.001276 937.2 971.1
979(28) 0.001276 937.2 969.8
1006(29) 0.001189 937.1 970.2
979(28) 0.001276 937.1 972.5
970(28) 0.001276 937.1 977.1
988(28) 0.001276 937.0 984.0
983(28) 0.001276 937.0 993.3
1001(29) 0.001189 936.9 1004.4
1042(29) 0.001189 936.9 1016.1
1050(29) 0.001189 936.8 1026.8
1044(29) 0.001189 936.8 1034.4
1032(29) 0.001189 936.8 1036.8
1042(29) 0.001189 936.7 1033.3
1013(29) 0.001189 936.7 1025.0
1022(29) 0.001189 936.6 1014.1
985(28) 0.001276 936.6 1002.5
1001(29) 0.001189 936.5 992.2
988(28) 0.001276 936.5 984.2
950(28) 0.001276 936.4 979.1
974(28) 0.001276 936.4 977.3
1014(29) 0.001189 936.4 978.9
992(28) 0.001276 936.3 984.2
1005(29) 0.001189 936.3 994.2
989(28) 0.001276 936.2 1010.1
1004(29) 0.001189 936.2 1034.0
1030(29) 0.001189 936.1 1068.4
1087(30) 0.001111 936.1 1115.7
1108(30) 0.001111 936.0 1177.5
1235(32) 0.000977 936.0 1253.6
1332(33) 0.000918 935.9 1340.7
1431(34) 0.000865 935.9 1431.8
1558(36) 0.000772 936. 1516.
1611(36) 0.000772 936. 1579.
1565(36) 0.000772 936. 1609.
1558(36) 0.000772 936. 1602.
1564(36) 0.000772 936. 1563.
1541(35) 0.000816 935.6 1505.5
1508(35) 0.000816 935.5 1443.0
1335(33) 0.000918 935.5 1383.6
1267(32) 0.000977 935.4 1330.6
1192(31) 0.001041 935.4 1283.4
1224(32) 0.000977 935.3 1239.9
1137(30) 0.001111 935.3 1199.3
1124(30) 0.001111 935.2 1162.4
1104(30) 0.001111 935.2 1129.9
1069(30) 0.001111 935.1 1102.4
1088(30) 0.001111 935.1 1079.6
1029(29) 0.001189 935.0 1060.3
1018(29) 0.001189 935.0 1043.5
1052(29) 0.001189 934.9 1028.2
1010(29) 0.001189 934.8 1014.6
1020(29) 0.001189 934.8 1003.1
1017(23) 0.001890 934.7 994.0
964(28) 0.001276 934.7 988.0
919(27) 0.001372 934.6 985.7
966(28) 0.001276 934.6 987.4
940(27) 0.001372 934.5 993.2
993(28) 0.001276 934.4 1002.8
990(28) 0.001276 934.4 1015.3
1062(29) 0.001189 934.3 1029.3
1082(29) 0.001189 934.3 1042.8
1063(29) 0.001189 934.2 1053.5
1060(29) 0.001189 934.2 1059.0
1059(29) 0.001189 934.1 1058.2
1025(29) 0.001189 934.0 1051.6
1058(29) 0.001189 934.0 1041.2
1050(29) 0.001189 933.9 1029.1
1053(29) 0.001189 933.9 1016.9
1043(29) 0.001189 933.8 1005.8
996(28) 0.001276 933.7 996.0
980(28) 0.001276 933.7 987.3
999(28) 0.001276 933.6 979.6
975(28) 0.001276 933.5 972.9
972(28) 0.001276 933.5 967.4
945(28) 0.001276 933.4 963.1
961(28) 0.001276 933.3 960.3
979(28) 0.001276 933.3 959.1
991(28) 0.001276 933.2 959.6
938(27) 0.001372 933.2 961.7
970(28) 0.001276 933.1 965.4
974(28) 0.001276 933.0 970.4
998(28) 0.001276 933.0 976.5
962(28) 0.001276 932.9 983.2
1020(29) 0.001189 932.8 990.1
1017(29) 0.001189 932.8 996.8
984(28) 0.001276 932.7 1003.2
1051(29) 0.001189 932.6 1009.6
1025(29) 0.001189 932.5 1016.4
1027(29) 0.001189 932.5 1023.7
995(28) 0.001276 932.4 1031.2
1002(28) 0.001276 932.3 1038.1
1042(29) 0.001189 932.3 1043.4
1050(29) 0.001189 932.2 1046.6
1048(29) 0.001189 932.1 1048.1
1027(29) 0.001189 932.1 1049.3
1050(29) 0.001189 932.0 1050.9
1054(29) 0.001189 931.9 1053.9
1051(29) 0.001189 931.8 1058.3
1017(29) 0.001189 931.8 1063.9
1028(29) 0.001189 931.7 1070.4
1089(30) 0.001111 931.6 1077.7
1087(30) 0.001111 931.5 1086.3
1040(29) 0.001189 931.5 1096.4
1104(30) 0.001111 931.4 1107.4
1098(30) 0.001111 931.3 1117.6
1085(30) 0.001111 931.2 1124.9
1114(30) 0.001111 931.2 1127.5
1084(30) 0.001111 931.1 1124.9
1124(30) 0.001111 931.0 1118.5
1102(30) 0.001111 930.9 1109.8
1122(30) 0.001111 930.8 1100.6
1061(29) 0.001189 930.8 1091.3
1052(29) 0.001189 930.7 1081.4
1063(29) 0.001189 930.6 1070.0
1025(29) 0.001189 930.5 1056.5
1014(29) 0.001189 930.4 1041.8
997(28) 0.001276 930.4 1026.5
993(28) 0.001276 930.3 1012.1
1022(29) 0.001189 930.2 999.5
971(28) 0.001276 930.1 989.4
1010(28) 0.001276 930.0 982.1
977(28) 0.001276 929.9 977.5
962(28) 0.001276 929.9 975.4
974(28) 0.001276 929.8 975.2
974(28) 0.001276 929.7 976.5
944(28) 0.001276 929.6 978.4
978(28) 0.001276 929.5 980.1
935(27) 0.001372 929.4 980.7
964(28) 0.001276 929.3 979.8
972(28) 0.001276 929.3 977.1
984(28) 0.001276 929.2 973.8
928(27) 0.001372 929.1 970.4
920(27) 0.001372 929.0 967.6
901(27) 0.001372 928.9 966.1
936(27) 0.001372 928.8 966.3
961(28) 0.001276 928.7 968.6
984(28) 0.001276 928.6 973.2
979(28) 0.001276 928.5 980.1
965(28) 0.001276 928.5 989.2
995(28) 0.001276 928.4 1000.1
986(28) 0.001276 928.3 1012.6
1015(29) 0.001189 928.2 1026.1
1063(29) 0.001189 928.1 1040.4
1043(29) 0.001189 928.0 1055.6
1062(29) 0.001189 927.9 1072.2
1071(29) 0.001189 927.8 1090.8
1079(29) 0.001189 927.7 1111.2
1101(30) 0.001111 927.6 1132.9
1156(30) 0.001111 927.5 1154.7
1169(31) 0.001041 927.4 1175.2
1180(31) 0.001041 927.3 1194.0
1217(31) 0.001041 927.2 1211.2
1257(44) 0.000517 927. 1228.
1267(31) 0.001041 927.0 1242.4
1290(31) 0.001041 926.9 1254.0
1295(31) 0.001041 926.8 1258.7
1278(31) 0.001041 926.7 1253.0
1266(31) 0.001041 926.6 1235.1
1215(30) 0.001111 926.5 1206.6
1168(30) 0.001111 926.4 1170.9
1127(29) 0.001189 926.3 1132.3
1089(29) 0.001189 926.2 1094.7
1077(29) 0.001189 926.1 1060.4
1070(29) 0.001189 926.0 1031.1
1007(28) 0.001276 925.9 1007.4
998(28) 0.001276 925.8 989.2
1012(28) 0.001276 925.7 975.9
959(27) 0.001372 925.6 966.7
962(27) 0.001372 925.5 960.8
1000(28) 0.001276 925.4 957.4
930(27) 0.001372 925.3 956.1
947(27) 0.001372 925.2 956.4
995(28) 0.001276 925.1 958.4
975(27) 0.001372 925.0 962.0
966(27) 0.001372 924.8 967.4
975(27) 0.001372 924.7 974.7
981(27) 0.001372 924.6 984.2
975(27) 0.001372 924.5 996.0
1004(28) 0.001276 924.4 1010.0
1005(28) 0.001276 924.3 1026.2
996(28) 0.001276 924.2 1044.0
1057(28) 0.001276 924.1 1062.5
1099(29) 0.001189 924.0 1080.1
1075(29) 0.001189 923.8 1094.7
1046(28) 0.001276 923.7 1103.9
1065(29) 0.001189 923.6 1106.2
1113(29) 0.001189 923.5 1101.4
1066(29) 0.001189 923.4 1091.3
1086(29) 0.001189 923.3 1079.2
1044(28) 0.001276 923.2 1068.1
1049(28) 0.001276 923.0 1061.2
1069(29) 0.001189 922.9 1060.5
1087(29) 0.001189 922.8 1067.5
1060(28) 0.001276 922.7 1082.4
1098(29) 0.001189 922.6 1104.3
1116(29) 0.001189 922.5 1131.3
1163(30) 0.001111 922.3 1160.0
1161(30) 0.001111 922.2 1186.7
1208(30) 0.001111 922.1 1206.7
1251(31) 0.001041 922.0 1216.1
1201(30) 0.001111 921.9 1213.6
1223(31) 0.001041 921.7 1200.5
1230(31) 0.001041 921.6 1180.7
1164(30) 0.001111 921.5 1158.6
1164(30) 0.001111 921.4 1138.0
1136(29) 0.001189 921.3 1121.8
1133(29) 0.001189 921.1 1112.0
1078(29) 0.001189 921.0 1109.4
1123(29) 0.001189 920.9 1114.2
1155(30) 0.001111 920.8 1125.5
1151(30) 0.001111 920.6 1142.1
1133(29) 0.001189 920.5 1161.8
1125(29) 0.001189 920.4 1181.5
1194(30) 0.001111 920.3 1198.8
1196(30) 0.001111 920.1 1211.8
1185(30) 0.001111 920.0 1220.3
1214(30) 0.001111 919.9 1225.2
1188(30) 0.001111 919.7 1227.6
1171(30) 0.001111 919.6 1227.6
1220(31) 0.001041 919.5 1224.7
1138(29) 0.001189 919.4 1217.3
1138(29) 0.001189 919.2 1204.6
1125(29) 0.001189 919.1 1187.0
1125(29) 0.001189 919.0 1166.2
1123(29) 0.001189 918.8 1144.5
1136(29) 0.001189 918.7 1124.1
1083(29) 0.001189 918.6 1105.6
1071(29) 0.001189 918.4 1089.9
1052(28) 0.001276 918.3 1077.1
1042(28) 0.001276 918.2 1067.0
1050(28) 0.001276 918.0 1059.7
1093(29) 0.001189 917.9 1054.8
1030(28) 0.001276 917.8 1051.7
1030(28) 0.001276 917.6 1049.2
1059(28) 0.001276 917.5 1046.3
1012(28) 0.001276 917.4 1042.0
1036(28) 0.001276 917.2 1036.0
996(28) 0.001276 917.1 1028.6
1039(28) 0.001276 916.9 1020.2
1051(28) 0.001276 916.8 1011.7
994(28) 0.001276 916.7 1003.3
1006(28) 0.001276 916.5 995.2
1025(28) 0.001276 916.4 987.4
989(27) 0.001372 916.2 980.0
1008(28) 0.001276 916.1 973.2
982(27) 0.001372 916.0 967.2
950(27) 0.001372 915.8 962.4
984(27) 0.001372 915.7 958.9
956(27) 0.001372 915.5 956.9
965(27) 0.001372 915.4 956.6
939(27) 0.001372 915.3 958.3
878(26) 0.001479 915.1 962.0
937(27) 0.001372 915.0 968.1
994(28) 0.001276 914.8 976.7
965(27) 0.001372 914.7 988.2
972(28) 0.001276 914.5 1002.4
1021(28) 0.001276 914.4 1019.7
1044(29) 0.001189 914.2 1040.1
1029(28) 0.001276 914.1 1063.2
1098(29) 0.001189 914.0 1088.7
1150(30) 0.001111 913.8 1115.8
1148(30) 0.001111 913.7 1143.1
1195(30) 0.001111 913.5 1168.7
1232(31) 0.001041 913.4 1191.2
1257(31) 0.001041 913.2 1209.8
1277(32) 0.000977 913.1 1224.0
1271(31) 0.001041 912.9 1234.8
1251(31) 0.001041 912.8 1242.7
1268(31) 0.001041 912.6 1247.5
1330(32) 0.000977 912.5 1248.1
1210(31) 0.001041 912.3 1243.0
1251(31) 0.001041 912.2 1231.7
1208(31) 0.001041 912.0 1214.5
1226(31) 0.001041 911.9 1193.4
1181(30) 0.001111 911.7 1170.3
1167(30) 0.001111 911.6 1146.6
1065(29) 0.001189 911.4 1123.3
1136(30) 0.001111 911.2 1100.8
1064(29) 0.001189 911.1 1079.3
1093(29) 0.001189 910.9 1059.3
1032(28) 0.001276 910.8 1041.5
985(28) 0.001276 910.6 1026.7
981(28) 0.001276 910.5 1015.7
1008(28) 0.001276 910.3 1008.9
995(28) 0.001276 910.2 1006.4
1008(28) 0.001276 910.0 1008.1
1048(29) 0.001189 909.9 1013.4
1008(28) 0.001276 909.7 1021.6
1040(28) 0.001276 909.5 1031.4
980(28) 0.001276 909.4 1041.3
1084(29) 0.001189 909.2 1049.5
1031(28) 0.001276 909.1 1054.6
986(28) 0.001276 908.9 1055.3
1049(29) 0.001189 908.7 1051.4
1059(29) 0.001189 908.6 1043.7
1015(28) 0.001276 908.4 1033.5
1034(28) 0.001276 908.3 1022.0
1052(29) 0.001189 908.1 1010.3
951(27) 0.001372 907.9 999.3
985(28) 0.001276 907.8 989.6
1000(28) 0.001276 907.6 981.9
925(27) 0.001372 907.5 976.4
945(27) 0.001372 907.3 973.8
941(27) 0.001372 907.1 974.3
974(28) 0.001276 907.0 978.2
884(26) 0.001479 906.8 985.5
988(28) 0.001276 906.6 996.4
1005(28) 0.001276 906.5 1010.3
982(28) 0.001276 906.3 1026.7
992(28) 0.001276 906.2 1044.6
1001(28) 0.001276 906.0 1062.8
1049(29) 0.001189 905.8 1079.7
1008(28) 0.001276 905.7 1094.0
1091(29) 0.001189 905.5 1104.6
1083(29) 0.001189 905.3 1111.4
1134(30) 0.001111 905.2 1115.3
1108(29) 0.001189 905.0 1117.9
1160(30) 0.001111 904.8 1120.8
1091(29) 0.001189 904.7 1125.3
1075(29) 0.001189 904.5 1132.0
1142(30) 0.001111 904.3 1141.3
1126(30) 0.001111 904.2 1153.2
1155(30) 0.001111 904.0 1166.7
1120(30) 0.001111 903.8 1181.2
1159(30) 0.001111 903.7 1195.0
1157(30) 0.001111 903.5 1206.1
1109(29) 0.001189 903.3 1211.9
1102(29) 0.001189 903.1 1210.7
1179(30) 0.001111 903.0 1201.9
1168(30) 0.001111 902.8 1186.7
1082(29) 0.001189 902.6 1167.9
1128(30) 0.001111 902.5 1148.6
1071(29) 0.001189 902.3 1131.7
1082(29) 0.001189 902.1 1119.5
1085(29) 0.001189 901.9 1113.5
1103(29) 0.001189 901.8 1114.2
1131(30) 0.001111 901.6 1121.0
1137(30) 0.001111 901.4 1132.6
1159(30) 0.001111 901.3 1146.8
1151(30) 0.001111 901.1 1160.9
1211(31) 0.001041 900.9 1171.6
1210(31) 0.001041 900.7 1176.3
1164(30) 0.001111 900.6 1173.5
1169(30) 0.001111 900.4 1163.3
1200(31) 0.001041 900.2 1147.2
1171(30) 0.001111 900.0 1127.4
1088(29) 0.001189 899.9 1106.1
1115(29) 0.001189 899.7 1085.1
1054(29) 0.001189 899.5 1065.4
1012(28) 0.001276 899.4 1048.0
1062(29) 0.001189 899.2 1033.3
1042(28) 0.001276 899.0 1021.3
1018(28) 0.001276 898.8 1011.9
1022(29) 0.001189 898.6 1004.5
960(28) 0.001276 898.5 998.4
1038(29) 0.001189 898.3 992.9
923(28) 0.001276 898.1 987.6
985(29) 0.001189 897.9 982.3
1001(29) 0.001189 897.8 977.3
920(28) 0.001276 897.6 973.1
951(28) 0.001276 897.4 969.9
966(28) 0.001276 897.2 968.2
967(28) 0.001276 897.1 968.4
947(28) 0.001276 896.9 970.4
994(29) 0.001189 896.7 974.3
1006(29) 0.001189 896.5 979.6
966(28) 0.001276 896.3 985.9
997(29) 0.001189 896.2 992.5
988(29) 0.001189 896.0 998.7
1039(29) 0.001189 895.8 1003.7
998(29) 0.001189 895.6 1007.0
1067(30) 0.001111 895.5 1008.8
1016(29) 0.001189 895.3 1009.6
997(29) 0.001189 895.1 1010.0
985(29) 0.001189 894.9 1010.9
987(29) 0.001189 894.7 1013.2
997(29) 0.001189 894.6 1017.4
1035(29) 0.001189 894.4 1024.1
973(28) 0.001276 894.2 1033.7
1015(29) 0.001189 894.0 1046.5
1051(29) 0.001189 893.8 1062.6
1021(29) 0.001189 893.7 1082.0
1081(30) 0.001111 893.5 1103.9
1104(30) 0.001111 893.3 1127.6
1148(31) 0.001041 893.1 1152.2
1179(31) 0.001041 892.9 1176.8
1201(31) 0.001041 892.8 1200.3
1237(32) 0.000977 892.6 1222.2
1250(32) 0.000977 892.4 1240.8
1275(32) 0.000977 892.2 1254.3
1271(32) 0.000977 892.0 1260.8
1272(32) 0.000977 891.9 1258.8
1310(33) 0.000918 891.7 1248.2
1265(32) 0.000977 891.5 1230.3
1298(33) 0.000918 891.3 1207.8
1215(32) 0.000977 891.1 1183.5
1165(31) 0.001041 891.0 1159.8
1156(31) 0.001041 890.8 1138.7
1140(31) 0.001041 890.6 1121.4
1169(31) 0.001041 890.4 1108.6
1143(31) 0.001041 890.2 1100.3
1140(31) 0.001041 890.0 1096.0
1125(30) 0.001111 889.9 1094.4
1115(30) 0.001111 889.7 1094.1
1141(31) 0.001041 889.5 1093.3
1147(31) 0.001041 889.3 1090.5
1043(29) 0.001189 889.1 1084.6
1127(31) 0.001041 889.0 1075.4
1095(30) 0.001111 888.8 1063.6
1123(30) 0.001111 888.6 1049.9
1043(29) 0.001189 888.4 1035.6
1066(30) 0.001111 888.2 1020.9
1058(30) 0.001111 888.0 1006.6
1017(29) 0.001189 887.9 993.2
970(28) 0.001276 887.7 981.2
987(29) 0.001189 887.5 970.9
942(28) 0.001276 887.3 962.7
1006(29) 0.001189 887.1 957.0
995(29) 0.001189 887.0 953.4
963(28) 0.001276 886.8 952.1
928(28) 0.001276 886.6 952.9
956(28) 0.001276 886.4 955.6
918(28) 0.001276 886.2 960.0
959(28) 0.001276 886.0 965.6
989(29) 0.001189 885.9 972.1
1017(29) 0.001189 885.7 978.8
946(28) 0.001276 885.5 985.5
979(28) 0.001276 885.3 991.6
1006(29) 0.001189 885.1 997.0
1036(29) 0.001189 884.9 1001.8
1042(29) 0.001189 884.8 1006.2
995(29) 0.001189 884.6 1010.2
1039(29) 0.001189 884.4 1013.9
972(28) 0.001276 884.2 1017.3
1017(29) 0.001189 884.0 1020.5
1077(30) 0.001111 883.9 1023.9
1046(29) 0.001189 883.7 1028.0
1024(29) 0.001189 883.5 1033.4
1034(29) 0.001189 883.3 1040.6
1070(30) 0.001111 883.1 1049.9
1033(29) 0.001189 883.0 1061.2
1054(30) 0.001111 882.8 1074.3
1081(30) 0.001111 882.6 1088.8
1097(30) 0.001111 882.4 1103.9
1127(31) 0.001041 882.2 1119.0
1137(31) 0.001041 882.0 1132.9
1123(30) 0.001111 881.9 1144.2
1153(31) 0.001041 881.7 1151.4
1084(30) 0.001111 881.5 1153.6
1118(30) 0.001111 881.3 1150.7
1106(30) 0.001111 881.1 1143.3
1113(30) 0.001111 881.0 1132.9
1126(31) 0.001041 880.8 1121.3
1127(31) 0.001041 880.6 1109.8
1095(30) 0.001111 880.4 1099.6
1145(31) 0.001041 880.2 1091.6
1139(31) 0.001041 880.1 1086.2
1039(29) 0.001189 879.9 1083.2
1095(30) 0.001111 879.7 1082.7
1110(30) 0.001111 879.5 1084.1
1129(31) 0.001041 879.3 1086.2
1102(30) 0.001111 879.2 1087.9
1054(30) 0.001111 879.0 1088.2
1075(30) 0.001111 878.8 1086.3
1079(30) 0.001111 878.6 1081.9
1086(30) 0.001111 878.5 1075.2
1074(30) 0.001111 878.3 1066.5
1045(30) 0.001111 878.1 1056.3
1043(30) 0.001111 877.9 1044.8
1075(30) 0.001111 877.7 1032.1
1038(29) 0.001189 877.6 1018.4
997(29) 0.001189 877.4 1004.3
982(29) 0.001189 877.2 990.0
967(28) 0.001276 877.0 976.3
963(28) 0.001276 876.9 963.5
989(29) 0.001189 876.7 952.1
955(28) 0.001276 876.5 942.3
880(27) 0.001372 876.3 934.1
920(28) 0.001276 876.2 927.8
949(28) 0.001276 876.0 923.4
955(28) 0.001276 875.8 920.7
940(28) 0.001276 875.6 919.7
947(28) 0.001276 875.5 920.5
937(28) 0.001276 875.3 922.8
920(28) 0.001276 875.1 926.6
882(27) 0.001372 874.9 931.9
937(28) 0.001276 874.8 938.3
940(28) 0.001276 874.6 945.9
948(28) 0.001276 874.4 954.4
982(29) 0.001189 874.2 963.7
936(28) 0.001276 874.1 973.3
988(29) 0.001189 873.9 983.1
994(29) 0.001189 873.7 992.8
974(29) 0.001189 873.5 1002.2
981(29) 0.001189 873.4 1011.2
1001(29) 0.001189 873.2 1019.5
1043(30) 0.001111 873.0 1026.6
1042(30) 0.001111 872.9 1032.2
1033(29) 0.001189 872.7 1035.9
1014(29) 0.001189 872.5 1037.4
1137(31) 0.001041 872.3 1036.9
1059(30) 0.001111 872.2 1034.7
1018(29) 0.001189 872.0 1031.0
1048(30) 0.001111 871.8 1026.1
1020(29) 0.001189 871.7 1020.2
991(29) 0.001189 871.5 1013.4
975(29) 0.001189 871.3 1006.1
978(29) 0.001189 871.2 998.7
986(29) 0.001189 871.0 991.9
957(28) 0.001276 870.8 986.0
1019(29) 0.001189 870.7 981.7
995(29) 0.001189 870.5 979.2
991(29) 0.001189 870.3 978.9
1010(29) 0.001189 870.1 980.6
1038(29) 0.001189 870.0 984.0
953(28) 0.001276 869.8 989.0
990(29) 0.001189 869.7 994.5
1052(30) 0.001111 869.5 1000.1
1026(29) 0.001189 869.3 1004.6
1009(29) 0.001189 869.2 1007.7
1086(30) 0.001111 869.0 1008.8
1038(29) 0.001189 868.8 1007.7
1049(30) 0.001111 868.7 1004.5
1020(29) 0.001189 868.5 999.8
1029(29) 0.001189 868.3 994.0
975(29) 0.001189 868.2 987.7
990(29) 0.001189 868.0 981.3
981(29) 0.001189 867.9 975.5
1052(30) 0.001111 867.7 970.6
1003(29) 0.001189 867.5 967.2
952(28) 0.001276 867.4 965.8
972(29) 0.001189 867.2 966.9
960(28) 0.001276 867.0 970.7
960(28) 0.001276 866.9 977.7
972(29) 0.001189 866.7 988.0
981(29) 0.001189 866.6 1001.7
940(28) 0.001276 866.4 1018.6
981(29) 0.001189 866.3 1038.6
982(29) 0.001189 866.1 1061.3
1063(30) 0.001111 865.9 1086.0
1093(30) 0.001111 865.8 1112.1
1070(30) 0.001111 865.6 1138.7
1160(31) 0.001041 865.5 1165.2
1140(31) 0.001041 865.3 1191.0
1186(32) 0.000977 865.2 1215.4
1258(32) 0.000977 865.0 1237.8
1236(32) 0.000977 864.9 1257.2
1236(32) 0.000977 864.7 1272.5
1262(33) 0.000918 864.5 1282.9
1292(33) 0.000918 864.4 1287.6
1284(33) 0.000918 864.2 1286.8
1289(33) 0.000918 864.1 1281.0
1329(33) 0.000918 863.9 1271.2
1314(32) 0.000977 863.8 1258.2
1260(31) 0.001041 863.6 1242.6
1209(31) 0.001041 863.5 1224.9
1187(30) 0.001111 863.3 1205.6
1196(30) 0.001111 863.2 1185.2
1198(30) 0.001111 863.0 1164.5
1117(29) 0.001189 862.9 1144.3
1153(30) 0.001111 862.7 1125.4
1126(29) 0.001189 862.6 1108.1
1078(29) 0.001189 862.4 1092.9
1118(29) 0.001189 862.3 1079.6
1086(29) 0.001189 862.2 1068.4
1090(29) 0.001189 862.0 1059.0
1101(29) 0.001189 861.9 1051.5
1082(29) 0.001189 861.7 1045.6
1074(29) 0.001189 861.6 1041.0
1036(28) 0.001276 861.4 1037.3
1043(28) 0.001276 861.3 1034.1
1020(28) 0.001276 861.1 1030.9
1038(28) 0.001276 861.0 1027.8
1040(28) 0.001276 860.9 1024.6
1019(28) 0.001276 860.7 1021.4
1004(28) 0.001276 860.6 1018.0
989(28) 0.001276 860.4 1014.4
998(28) 0.001276 860.3 1010.5
949(27) 0.001372 860.2 1006.3
1021(28) 0.001276 860.0 1001.6
1008(28) 0.001276 859.9 996.6
1008(28) 0.001276 859.7 991.4
952(27) 0.001372 859.6 986.1
980(27) 0.001372 859.5 980.9
1038(28) 0.001276 859.3 975.7
1021(28) 0.001276 859.2 970.8
1000(28) 0.001276 859.1 966.1
997(28) 0.001276 858.9 962.1
965(27) 0.001372 858.8 959.0
971(27) 0.001372 858.7 957.1
970(27) 0.001372 858.5 956.5
971(27) 0.001372 858.4 957.5
1031(28) 0.001276 858.3 960.0
938(27) 0.001372 858.1 964.2
970(27) 0.001372 858.0 969.6
955(27) 0.001372 857.9 976.1
1010(28) 0.001276 857.8 983.4
997(28) 0.001276 857.6 991.0
1044(28) 0.001276 857.5 998.6
1054(28) 0.001276 857.4 1005.7
1078(29) 0.001189 857.2 1012.3
1067(29) 0.001189 857.1 1018.4
1047(28) 0.001276 857.0 1024.2
1062(29) 0.001189 856.9 1029.9
1077(29) 0.001189 856.7 1035.7
1086(29) 0.001189 856.6 1042.0
1131(30) 0.001111 856.5 1048.6
1131(30) 0.001111 856.4 1055.7
1116(29) 0.001189 856.3 1063.1
1146(30) 0.001111 856.1 1070.7
1128(29) 0.001189 856.0 1078.4
1111(29) 0.001189 855.9 1085.6
1096(29) 0.001189 855.8 1092.0
1153(30) 0.001111 855.7 1097.1
1161(30) 0.001111 855.5 1100.4
1124(29) 0.001189 855.4 1101.6
1177(30) 0.001111 855.3 1101.0
1128(29) 0.001189 855.2 1098.7
1126(29) 0.001189 855.1 1095.0
1131(30) 0.001111 855.0 1090.2
1146(30) 0.001111 854.8 1084.6
1141(30) 0.001111 854.7 1078.4
1130(29) 0.001189 854.6 1071.7
1080(29) 0.001189 854.5 1065.0
1120(29) 0.001189 854.4 1058.6
1108(29) 0.001189 854.3 1052.8
1074(29) 0.001189 854.2 1048.0
1070(29) 0.001189 854.1 1044.3
1086(29) 0.001189 853.9 1041.7
1062(29) 0.001189 853.8 1040.2
1045(28) 0.001276 853.7 1039.7
1061(29) 0.001189 853.6 1040.2
1109(29) 0.001189 853.5 1041.5
1052(28) 0.001276 853.4 1043.3
1048(28) 0.001276 853.3 1045.4
1059(29) 0.001189 853.2 1047.3
1081(29) 0.001189 853.1 1048.8
1109(29) 0.001189 853.0 1049.6
1118(29) 0.001189 852.9 1049.7
1057(29) 0.001189 852.8 1049.1
1069(29) 0.001189 852.7 1047.9
1092(29) 0.001189 852.6 1046.3
1078(29) 0.001189 852.5 1044.4
1100(29) 0.001189 852.4 1042.3
1084(29) 0.001189 852.3 1040.3
1052(28) 0.001276 852.2 1039.0
1078(29) 0.001189 852.1 1038.8
1096(29) 0.001189 852.0 1040.4
1057(29) 0.001189 851.9 1044.4
1092(29) 0.001189 851.8 1051.2
1107(29) 0.001189 851.7 1061.0
1076(29) 0.001189 851.6 1073.9
1087(40) 0.000625 852. 1090.
1096(29) 0.001189 851.4 1108.3
1107(29) 0.001189 851.3 1128.7
1165(30) 0.001111 851.2 1150.3
1200(30) 0.001111 851.2 1172.1
1205(31) 0.001041 851.1 1193.0
1246(31) 0.001041 851.0 1212.1
1255(31) 0.001041 850.9 1228.6
1271(31) 0.001041 850.8 1242.1
1299(32) 0.000977 850.7 1252.4
1339(32) 0.000977 850.6 1259.4
1311(32) 0.000977 850.5 1262.9
1320(32) 0.000977 850.5 1262.7
1269(31) 0.001041 850.4 1258.8
1238(31) 0.001041 850.3 1251.1
1237(31) 0.001041 850.2 1240.0
1241(31) 0.001041 850.1 1226.0
1185(30) 0.001111 850.0 1209.8
1154(30) 0.001111 850.0 1192.1
1146(30) 0.001111 849.9 1173.4
1085(29) 0.001189 849.8 1154.2
1068(29) 0.001189 849.7 1134.8
1105(29) 0.001189 849.6 1115.6
1093(29) 0.001189 849.6 1096.9
1068(29) 0.001189 849.5 1079.1
1017(28) 0.001276 849.4 1062.6
1044(28) 0.001276 849.3 1047.4
1025(28) 0.001276 849.3 1033.8
1010(28) 0.001276 849.2 1021.6
990(28) 0.001276 849.1 1010.9
991(28) 0.001276 849.1 1001.5
975(27) 0.001372 849.0 993.3
983(28) 0.001276 848.9 986.0
1006(28) 0.001276 848.8 979.6
963(27) 0.001372 848.8 973.7
987(28) 0.001276 848.7 968.2
953(27) 0.001372 848.6 962.9
970(27) 0.001372 848.6 957.7
1013(28) 0.001276 848.5 952.6
964(27) 0.001372 848.4 947.7
924(27) 0.001372 848.4 943.1
925(27) 0.001372 848.3 938.8
919(27) 0.001372 848.2 935.1
931(27) 0.001372 848.2 931.8
934(27) 0.001372 848.1 929.1
912(27) 0.001372 848.1 926.9
933(27) 0.001372 848.0 925.2
919(27) 0.001372 847.9 923.9
908(26) 0.001479 847.9 922.8
910(27) 0.001372 847.8 922.0
896(26) 0.001479 847.8 921.1
901(26) 0.001479 847.7 920.3
904(26) 0.001479 847.7 919.5
913(27) 0.001372 847.6 918.7
911(27) 0.001372 847.6 918.2
917(27) 0.001372 847.5 918.0
912(27) 0.001372 847.4 918.3
916(27) 0.001372 847.4 919.2
909(27) 0.001372 847.3 921.1
880(26) 0.001479 847.3 923.8
914(27) 0.001372 847.2 927.5
911(27) 0.001372 847.2 932.3
924(27) 0.001372 847.2 938.2
912(27) 0.001372 847.1 945.1
955(27) 0.001372 847.1 952.9
968(27) 0.001372 847.0 961.6
958(27) 0.001372 847.0 971.2
987(28) 0.001276 846.9 981.4
994(28) 0.001276 846.9 992.3
1000(28) 0.001276 846.8 1003.7
998(28) 0.001276 846.8 1015.6
992(28) 0.001276 846.8 1027.8
1011(28) 0.001276 846.7 1040.4
1058(29) 0.001189 846.7 1053.1
1071(29) 0.001189 846.6 1066.0
1076(29) 0.001189 846.6 1079.0
1100(29) 0.001189 846.6 1092.2
1099(29) 0.001189 846.5 1105.5
1146(30) 0.001111 846.5 1119.0
1148(30) 0.001111 846.5 1132.4
1098(29) 0.001189 846.4 1145.6
1097(29) 0.001189 846.4 1158.2
1190(30) 0.001111 846.4 1170.0
1164(30) 0.001111 846.3 1180.4
1190(30) 0.001111 846.3 1189.3
1177(30) 0.001111 846.3 1196.2
1206(31) 0.001041 846.2 1200.7
1212(31) 0.001041 846.2 1202.4
1198(30) 0.001111 846.2 1201.0
1168(30) 0.001111 846.2 1196.4
1167(30) 0.001111 846.1 1189.1
1194(30) 0.001111 846.1 1179.3
1240(31) 0.001041 846.1 1168.1
1177(30) 0.001111 846.1 1156.2
1179(30) 0.001111 846.0 1144.5
1173(30) 0.001111 846.0 1133.5
1153(30) 0.001111 846.0 1123.7
1113(29) 0.001189 846.0 1115.3
1080(29) 0.001189 845.9 1108.2
1090(29) 0.001189 845.9 1102.4
1091(29) 0.001189 845.9 1097.4
1070(29) 0.001189 845.9 1092.5
1044(29) 0.001189 845.9 1087.3
1069(29) 0.001189 845.9 1081.2
1093(29) 0.001189 845.8 1073.7
1045(29) 0.001189 845.8 1064.5
1035(28) 0.001276 845.8 1053.7
1022(28) 0.001276 845.8 1041.6
1039(28) 0.001276 845.8 1028.4
1013(28) 0.001276 845.8 1014.5
985(28) 0.001276 845.8 1000.5
967(27) 0.001372 845.8 986.6
967(27) 0.001372 845.7 973.2
956(27) 0.001372 845.7 960.7
904(27) 0.001372 845.7 949.3
912(27) 0.001372 845.7 939.3
921(27) 0.001372 845.7 930.7
908(27) 0.001372 845.7 923.7
849(26) 0.001479 845.7 918.4
915(27) 0.001372 845.7 914.8
904(27) 0.001372 845.7 912.8
906(27) 0.001372 845.7 912.4
928(27) 0.001372 845.7 913.6
967(27) 0.001372 845.7 916.3
934(27) 0.001372 845.7 920.4
915(27) 0.001372 845.7 925.7
922(27) 0.001372 845.7 932.1
935(27) 0.001372 845.7 939.4
935(27) 0.001372 845.7 947.5
946(27) 0.001372 845.7 956.2
977(28) 0.001276 845.7 965.3
966(27) 0.001372 845.7 974.6
1002(28) 0.001276 845.7 983.7
1009(28) 0.001276 845.7 992.5
1004(28) 0.001276 845.7 1000.7
1001(28) 0.001276 845.7 1008.1
985(28) 0.001276 845.7 1014.8
996(28) 0.001276 845.7 1020.6
999(28) 0.001276 845.8 1025.7
1032(28) 0.001276 845.8 1030.0
1006(28) 0.001276 845.8 1033.7
1017(28) 0.001276 845.8 1036.7
1060(29) 0.001189 845.8 1039.2
1058(29) 0.001189 845.8 1041.4
989(28) 0.001276 845.8 1043.3
1016(28) 0.001276 845.8 1045.1
1066(29) 0.001189 845.9 1047.0
1033(28) 0.001276 845.9 1049.2
1029(28) 0.001276 845.9 1051.7
1072(29) 0.001189 845.9 1054.5
1038(28) 0.001276 845.9 1057.7
1043(28) 0.001276 846.0 1061.1
1038(28) 0.001276 846.0 1064.7
1057(29) 0.001189 846.0 1068.2
1101(29) 0.001189 846.0 1071.4
1068(29) 0.001189 846.0 1074.2
1041(28) 0.001276 846.1 1076.1
1046(29) 0.001189 846.1 1076.9
1056(29) 0.001189 846.1 1076.5
1074(29) 0.001189 846.1 1074.6
1123(30) 0.001111 846.2 1071.4
1094(29) 0.001189 846.2 1066.8
1087(29) 0.001189 846.2 1060.9
1083(29) 0.001189 846.2 1053.9
1077(29) 0.001189 846.3 1045.8
1027(28) 0.001276 846.3 1036.8
1062(29) 0.001189 846.3 1027.0
1025(28) 0.001276 846.3 1016.5
1020(28) 0.001276 846.4 1005.7
997(28) 0.001276 846.4 994.6
1007(28) 0.001276 846.4 983.6
1001(28) 0.001276 846.5 972.9
968(27) 0.001372 846.5 962.6
953(27) 0.001372 846.5 952.8
970(27) 0.001372 846.6 943.8
950(27) 0.001372 846.6 935.6
945(27) 0.001372 846.6 928.2
913(27) 0.001372 846.7 921.9
884(26) 0.001479 846.7 916.6
890(26) 0.001479 846.8 912.3
904(27) 0.001372 846.8 909.2
882(26) 0.001479 846.8 907.3
899(26) 0.001479 846.9 906.5
912(27) 0.001372 846.9 906.8
890(26) 0.001479 847.0 908.2
867(26) 0.001479 847.0 910.7
870(26) 0.001479 847.0 914.2
846(26) 0.001479 847.1 918.7
862(26) 0.001479 847.1 924.0
878(26) 0.001479 847.2 930.0
879(26) 0.001479 847.2 936.7
904(27) 0.001372 847.3 943.8
931(27) 0.001372 847.3 951.2
961(27) 0.001372 847.4 958.7
958(27) 0.001372 847.4 965.9
933(27) 0.001372 847.5 972.7
957(27) 0.001372 847.5 978.9
941(27) 0.001372 847.5 984.3
946(27) 0.001372 847.6 988.7
952(27) 0.001372 847.6 992.2
931(27) 0.001372 847.7 994.5
974(28) 0.001276 847.8 995.7
961(28) 0.001276 847.8 995.9
931(28) 0.001276 847.9 995.0
970(28) 0.001276 847.9 993.0
952(28) 0.001276 848.0 990.1
944(28) 0.001276 848.0 986.5
976(28) 0.001276 848.1 982.2
969(28) 0.001276 848.1 977.5
982(28) 0.001276 848.2 972.6
979(28) 0.001276 848.2 967.7
982(28) 0.001276 848.3 963.1
954(28) 0.001276 848.4 958.9
916(28) 0.001276 848.4 955.1
939(28) 0.001276 848.5 952.0
937(28) 0.001276 848.5 949.6
965(28) 0.001276 848.6 947.8
957(28) 0.001276 848.6 946.7
901(27) 0.001372 848.7 946.2
930(28) 0.001276 848.8 946.2
939(28) 0.001276 848.8 946.7
974(28) 0.001276 848.9 947.4
935(28) 0.001276 849.0 948.2
948(28) 0.001276 849.0 949.0
950(28) 0.001276 849.1 949.7
905(27) 0.001372 849.1 950.2
900(27) 0.001372 849.2 950.2
936(28) 0.001276 849.3 949.6
940(28) 0.001276 849.3 948.4
957(28) 0.001276 849.4 946.5
909(27) 0.001372 849.5 943.9
934(28) 0.001276 849.5 940.7
924(28) 0.001276 849.6 936.9
908(27) 0.001372 849.7 932.8
941(28) 0.001276 849.7 928.3
893(27) 0.001372 849.8 923.8
908(27) 0.001372 849.9 919.3
892(27) 0.001372 850.0 915.0
870(27) 0.001372 850.0 911.1
925(28) 0.001276 850.1 907.5
901(27) 0.001372 850.2 904.4
895(27) 0.001372 850.2 901.9
901(27) 0.001372 850.3 900.1
879(27) 0.001372 850.4 899.1
909(27) 0.001372 850.5 898.9
864(27) 0.001372 850.5 899.5
897(27) 0.001372 850.6 901.1
905(27) 0.001372 850.7 903.7
908(27) 0.001372 850.8 907.4
911(27) 0.001372 850.8 912.1
896(27) 0.001372 850.9 918.0
905(27) 0.001372 851.0 925.3
960(28) 0.001276 851.1 933.7
972(28) 0.001276 851.1 943.4
970(28) 0.001276 851.2 954.4
947(28) 0.001276 851.3 966.6
985(28) 0.001276 851.4 980.1
1016(29) 0.001189 851.4 994.9
1005(29) 0.001189 851.5 1010.5
1034(29) 0.001189 851.6 1027.0
1082(30) 0.001111 851.7 1044.2
1059(30) 0.001111 851.8 1061.8
1076(30) 0.001111 851.8 1079.6
1112(30) 0.001111 851.9 1097.4
1154(31) 0.001041 852.0 1114.8
1107(30) 0.001111 852.1 1131.5
1141(31) 0.001041 852.2 1147.2
1219(32) 0.000977 852.2 1161.5
1224(32) 0.000977 852.3 1174.2
1240(32) 0.000977 852.4 1185.0
1201(31) 0.001041 852.5 1193.9
1215(32) 0.000977 852.6 1200.8
1240(32) 0.000977 852.7 1205.9
1221(32) 0.000977 852.7 1209.3
1241(32) 0.000977 852.8 1211.3
1222(32) 0.000977 852.9 1212.1
1260(32) 0.000977 853.0 1211.9
1293(33) 0.000918 853.1 1210.8
1264(32) 0.000977 853.2 1209.0
1187(31) 0.001041 853.3 1206.5
1185(31) 0.001041 853.3 1203.5
1269(32) 0.000977 853.4 1199.9
1212(32) 0.000977 853.5 1195.8
1181(31) 0.001041 853.6 1191.1
1207(32) 0.000977 853.7 1185.7
1230(32) 0.000977 853.8 1179.5
1226(32) 0.000977 853.9 1172.5
1186(31) 0.001041 853.9 1164.7
1187(31) 0.001041 854.0 1156.1
1146(31) 0.001041 854.1 1147.0
1130(30) 0.001111 854.2 1137.3
1150(31) 0.001041 854.3 1127.2
1179(31) 0.001041 854.4 1116.8
1126(30) 0.001111 854.5 1106.4
1060(30) 0.001111 854.6 1095.8
1064(30) 0.001111 854.6 1085.3
1081(30) 0.001111 854.7 1075.0
1081(30) 0.001111 854.8 1065.0
1091(30) 0.001111 854.9 1055.3
996(29) 0.001189 855.0 1046.2
995(23) 0.001890 855.1 1037.7
1006(30) 0.001111 855.2 1029.9
1046(30) 0.001111 855.3 1022.9
1031(30) 0.001111 855.4 1016.7
935(28) 0.001276 855.5 1011.5
959(29) 0.001189 855.5 1007.3
951(29) 0.001189 855.6 1004.2
957(29) 0.001189 855.7 1002.5
1007(30) 0.001111 855.8 1002.0
987(29) 0.001189 855.9 1002.9
996(29) 0.001189 856.0 1005.1
1025(30) 0.001111 856.1 1008.8
1003(29) 0.001189 856.2 1013.8
1012(30) 0.001111 856.3 1020.1
1073(30) 0.001111 856.4 1027.4
1037(30) 0.001111 856.5 1035.7
1060(30) 0.001111 856.6 1044.8
1064(30) 0.001111 856.6 1054.4
1089(31) 0.001041 856.7 1064.2
1077(31) 0.001041 856.8 1074.1
1081(31) 0.001041 856.9 1083.7
1107(31) 0.001041 857.0 1092.8
1158(32) 0.000977 857.1 1101.2
1112(31) 0.001041 857.2 1108.5
1144(31) 0.001041 857.3 1114.5
1127(31) 0.001041 857.4 1119.0
1156(32) 0.000977 857.5 1121.8
1151(32) 0.000977 857.6 1122.8
1113(31) 0.001041 857.7 1121.8
1123(31) 0.001041 857.8 1119.1
1096(31) 0.001041 857.8 1114.7
1187(32) 0.000977 857.9 1108.8
1151(32) 0.000977 858.0 1101.8
1120(31) 0.001041 858.1 1093.9
1091(31) 0.001041 858.2 1085.4
1093(31) 0.001041 858.3 1076.5
1065(30) 0.001111 858.4 1067.4
1118(31) 0.001041 858.5 1058.5
1085(31) 0.001041 858.6 1049.8
1060(30) 0.001111 858.7 1041.5
1008(30) 0.001111 858.8 1033.7
997(29) 0.001189 858.9 1026.4
964(29) 0.001189 859.0 1019.8
939(29) 0.001189 859.0 1013.8
997(29) 0.001189 859.1 1008.6
950(29) 0.001189 859.2 1004.1
944(29) 0.001189 859.3 1000.4
997(29) 0.001189 859.4 997.5
1009(30) 0.001111 859.5 995.5
1013(30) 0.001111 859.6 994.4
930(28) 0.001276 859.7 994.1
976(29) 0.001189 859.8 994.7
1008(30) 0.001111 859.9 996.2
967(29) 0.001189 860.0 998.5
1006(30) 0.001111 860.1 1001.6
1043(30) 0.001111 860.1 1005.4
995(29) 0.001189 860.2 1009.7
1049(30) 0.001111 860.3 1014.4
1093(31) 0.001041 860.4 1019.4
1125(31) 0.001041 860.5 1024.4
1050(30) 0.001111 860.6 1029.3
1066(30) 0.001111 860.7 1033.9
1108(31) 0.001041 860.8 1038.1
1003(29) 0.001189 860.9 1041.7
1075(31) 0.001041 861.0 1044.7
1140(31) 0.001041 861.0 1046.9
1040(30) 0.001111 861.1 1048.2
1071(30) 0.001111 861.2 1048.5
1065(30) 0.001111 861.3 1047.9
1087(31) 0.001041 861.4 1046.3
1080(31) 0.001041 861.5 1043.8
1062(30) 0.001111 861.6 1040.3
1053(30) 0.001111 861.7 1036.1
1062(30) 0.001111 861.8 1031.2
1069(30) 0.001111 861.8 1026.0
1056(30) 0.001111 861.9 1020.5
1005(30) 0.001111 862.0 1015.1
1050(30) 0.001111 862.1 1009.8
1065(30) 0.001111 862.2 1004.9
971(29) 0.001189 862.3 1000.5
969(29) 0.001189 862.4 996.8
980(29) 0.001189 862.4 993.8
1030(30) 0.001111 862.5 991.6
959(29) 0.001189 862.6 990.3
981(29) 0.001189 862.7 989.8
962(29) 0.001189 862.8 990.2
959(29) 0.001189 862.9 991.4
991(29) 0.001189 862.9 993.4
1012(30) 0.001111 863.0 996.0
1049(30) 0.001111 863.1 999.2
1005(30) 0.001111 863.2 1003.0
970(29) 0.001189 863.3 1007.3
988(29) 0.001189 863.4 1011.8
998(29) 0.001189 863.4 1016.5
998(29) 0.001189 863.5 1021.2
1015(30) 0.001111 863.6 1026.0
1005(30) 0.001111 863.7 1030.6
1050(30) 0.001111 863.8 1035.1
1047(30) 0.001111 863.9 1039.4
1061(30) 0.001111 863.9 1043.5
1020(30) 0.001111 864.0 1047.3
1004(29) 0.001189 864.1 1050.8
1093(30) 0.001111 864.2 1054.2
1091(30) 0.001111 864.2 1057.4
1068(29) 0.001189 864.3 1060.3
1130(30) 0.001111 864.4 1063.0
1167(31) 0.001041 864.5 1065.4
1081(30) 0.001111 864.6 1067.7
1060(29) 0.001189 864.6 1069.8
1054(29) 0.001189 864.7 1071.6
1066(29) 0.001189 864.8 1073.3
1093(30) 0.001111 864.9 1074.7
1099(30) 0.001111 864.9 1075.9
1128(30) 0.001111 865.0 1076.9
1070(29) 0.001189 865.1 1077.7
1120(30) 0.001111 865.2 1078.3
1090(30) 0.001111 865.2 1078.7
1109(30) 0.001111 865.3 1079.1
1103(30) 0.001111 865.4 1079.5
1105(30) 0.001111 865.4 1079.8
1143(30) 0.001111 865.5 1080.4
1079(30) 0.001111 865.6 1081.1
1073(30) 0.001111 865.6 1081.7
1056(29) 0.001189 865.7 1082.3
1105(30) 0.001111 865.8 1083.0
1114(30) 0.001111 865.9 1083.6
1061(29) 0.001189 865.9 1083.9
1046(29) 0.001189 866.0 1084.1
1080(30) 0.001111 866.1 1083.7
1068(29) 0.001189 866.1 1082.7
1079(30) 0.001111 866.2 1081.1
1070(29) 0.001189 866.3 1078.6
967(28) 0.001276 866.3 1075.4
1044(29) 0.001189 866.4 1071.2
1022(29) 0.001189 866.4 1066.4
988(28) 0.001276 866.5 1060.7
1019(29) 0.001189 866.6 1054.4
1026(29) 0.001189 866.6 1047.7
1040(29) 0.001189 866.7 1040.7
1039(29) 0.001189 866.8 1033.4
1038(29) 0.001189 866.8 1026.2
987(28) 0.001276 866.9 1019.0
1007(29) 0.001189 866.9 1012.1
997(28) 0.001276 867.0 1005.6
951(28) 0.001276 867.0 999.5
960(28) 0.001276 867.1 993.9
953(28) 0.001276 867.2 989.0
962(28) 0.001276 867.2 984.7
919(27) 0.001372 867.3 981.2
954(28) 0.001276 867.3 978.3
1003(29) 0.001189 867.4 976.3
992(28) 0.001276 867.4 974.9
933(28) 0.001276 867.5 974.2
1011(29) 0.001189 867.5 974.0
952(28) 0.001276 867.6 974.6
943(28) 0.001276 867.6 975.5
966(28) 0.001276 867.7 976.9
930(28) 0.001276 867.7 978.5
959(28) 0.001276 867.8 980.4
938(28) 0.001276 867.8 982.5
968(28) 0.001276 867.9 984.7
1007(29) 0.001189 867.9 986.9
977(28) 0.001276 868.0 989.2
1031(29) 0.001189 868.0 991.3
959(28) 0.001276 868.1 993.5
973(28) 0.001276 868.1 995.5
981(28) 0.001276 868.2 997.4
1004(29) 0.001189 868.2 999.2
1041(29) 0.001189 868.2 1000.7
1034(29) 0.001189 868.3 1002.2
1056(29) 0.001189 868.3 1003.5
1043(29) 0.001189 868.4 1004.7
1001(29) 0.001189 868.4 1005.8
992(28) 0.001276 868.4 1006.8
975(28) 0.001276 868.5 1007.9
1027(29) 0.001189 868.5 1009.0
1017(29) 0.001189 868.6 1010.1
1080(30) 0.001111 868.6 1011.4
993(28) 0.001276 868.6 1012.9
1022(29) 0.001189 868.7 1014.6
1063(29) 0.001189 868.7 1016.5
1033(29) 0.001189 868.7 1018.9
1084(30) 0.001111 868.8 1021.6
985(28) 0.001276 868.8 1024.7
970(28) 0.001276 868.8 1028.3
1056(29) 0.001189 868.9 1032.4
1016(29) 0.001189 868.9 1037.1
1028(29) 0.001189 868.9 1042.3
1046(29) 0.001189 868.9 1048.0
1026(29) 0.001189 869.0 1054.2
1053(29) 0.001189 869.0 1060.9
1025(29) 0.001189 869.0 1068.1
1123(30) 0.001111 869.0 1075.6
1074(30) 0.001111 869.1 1083.5
1055(29) 0.001189 869.1 1091.5
1028(29) 0.001189 869.1 1099.7
1104(30) 0.001111 869.1 1108.0
1123(30) 0.001111 869.2 1116.2
1105(30) 0.001111 869.2 1124.3
1105(30) 0.001111 869.2 1132.1
1121(43) 0.000541 869. 1140.
1108(29) 0.001189 869.2 1146.5
1125(30) 0.001111 869.2 1153.0
1133(30) 0.001111 869.3 1158.8
1170(30) 0.001111 869.3 1163.8
1141(30) 0.001111 869.3 1168.0
1153(30) 0.001111 869.3 1171.3
1137(30) 0.001111 869.3 1173.7
1143(30) 0.001111 869.3 1175.1
1132(30) 0.001111 869.3 1175.6
1166(30) 0.001111 869.3 1175.2
1140(30) 0.001111 869.4 1173.9
1113(30) 0.001111 869.4 1171.8
1144(30) 0.001111 869.4 1168.8
1161(30) 0.001111 869.4 1165.1
1157(30) 0.001111 869.4 1160.7
1144(30) 0.001111 869.4 1155.8
1189(30) 0.001111 869.4 1150.4
1159(30) 0.001111 869.4 1144.7
1147(30) 0.001111 869.4 1138.8
1110(29) 0.001189 869.4 1132.9
1145(30) 0.001111 869.4 1127.0
1095(29) 0.001189 869.4 1121.3
1111(29) 0.001189 869.4 1115.8
1087(29) 0.001189 869.4 1110.8
1090(29) 0.001189 869.4 1106.1
1067(29) 0.001189 869.4 1102.0
1086(29) 0.001189 869.4 1098.2
1101(29) 0.001189 869.4 1095.0
1070(29) 0.001189 869.4 1092.1
1075(29) 0.001189 869.4 1089.6
1068(29) 0.001189 869.4 1087.5
1077(29) 0.001189 869.4 1085.6
1096(29) 0.001189 869.4 1084.0
1048(29) 0.001189 869.4 1082.5
1088(29) 0.001189 869.3 1081.1
1090(29) 0.001189 869.3 1079.9
1083(29) 0.001189 869.3 1078.7
1132(30) 0.001111 869.3 1077.6
1080(29) 0.001189 869.3 1076.7
1095(29) 0.001189 869.3 1075.9
1053(29) 0.001189 869.3 1075.2
1090(29) 0.001189 869.2 1074.8
1053(29) 0.001189 869.2 1074.5
1061(29) 0.001189 869.2 1074.5
1118(30) 0.001111 869.2 1074.7
1132(30) 0.001111 869.2 1075.1
1120(30) 0.001111 869.2 1075.7
1124(30) 0.001111 869.1 1076.6
1106(29) 0.001189 869.1 1077.7
1043(29) 0.001189 869.1 1078.9
1051(29) 0.001189 869.1 1080.3
1064(29) 0.001189 869.0 1081.8
1055(29) 0.001189 869.0 1083.4
1061(29) 0.001189 869.0 1085.2
1080(29) 0.001189 869.0 1086.9
1122(30) 0.001111 868.9 1088.8
1041(29) 0.001189 868.9 1090.6
1101(29) 0.001189 868.9 1092.5
1087(29) 0.001189 868.9 1094.5
1057(29) 0.001189 868.8 1096.5
1107(29) 0.001189 868.8 1098.5
1101(29) 0.001189 868.8 1100.4
1077(29) 0.001189 868.7 1102.4
1105(29) 0.001189 868.7 1104.2
1085(29) 0.001189 868.7 1105.9
1083(29) 0.001189 868.6 1107.5
1068(29) 0.001189 868.6 1108.8
1055(29) 0.001189 868.6 1109.8
1085(29) 0.001189 868.5 1110.5
1103(29) 0.001189 868.5 1110.7
1131(30) 0.001111 868.4 1110.4
1107(29) 0.001189 868.4 1109.6
1126(30) 0.001111 868.4 1108.2
1121(30) 0.001111 868.3 1106.2
1072(29) 0.001189 868.3 1103.5
1055(29) 0.001189 868.2 1100.2
1050(29) 0.001189 868.2 1096.3
1081(29) 0.001189 868.2 1091.9
1090(29) 0.001189 868.1 1087.0
1075(29) 0.001189 868.1 1081.6
1040(29) 0.001189 868.0 1075.8
1042(29) 0.001189 868.0 1069.8
1025(28) 0.001276 867.9 1063.4
1083(29) 0.001189 867.9 1056.9
1092(29) 0.001189 867.8 1050.3
1015(28) 0.001276 867.8 1043.6
1015(28) 0.001276 867.7 1036.9
1053(29) 0.001189 867.7 1030.2
1064(29) 0.001189 867.6 1023.6
1003(28) 0.001276 867.6 1017.2
1046(29) 0.001189 867.5 1010.9
1012(28) 0.001276 867.5 1004.8
1002(28) 0.001276 867.4 999.0
1008(28) 0.001276 867.4 993.5
1012(28) 0.001276 867.3 988.3
1017(28) 0.001276 867.3 983.5
988(28) 0.001276 867.2 979.0
984(28) 0.001276 867.1 974.9
986(28) 0.001276 867.1 971.3
977(23) 0.001890 867.0 968.1
990(28) 0.001276 867.0 965.4
983(28) 0.001276 866.9 963.2
1017(28) 0.001276 866.8 961.5
967(28) 0.001276 866.8 960.3
931(27) 0.001372 866.7 959.6
979(28) 0.001276 866.7 959.5
973(28) 0.001276 866.6 959.9
933(27) 0.001372 866.5 960.7
936(27) 0.001372 866.5 962.1
959(27) 0.001372 866.4 964.0
972(28) 0.001276 866.3 966.3
1000(28) 0.001276 866.3 969.0
1012(28) 0.001276 866.2 972.2
1020(28) 0.001276 866.1 975.6
1041(29) 0.001189 866.1 979.5
1054(29) 0.001189 866.0 983.6
1040(29) 0.001189 866.0 987.9
1036(28) 0.001276 865.9 992.4
1051(29) 0.001189 865.8 997.0
1035(28) 0.001276 865.7 1001.6
1011(28) 0.001276 865.7 1006.3
1044(29) 0.001189 865.6 1010.9
1080(29) 0.001189 865.5 1015.3
1067(29) 0.001189 865.5 1019.6
1079(29) 0.001189 865.4 1023.7
1079(29) 0.001189 865.3 1027.4
1058(29) 0.001189 865.3 1030.9
1081(29) 0.001189 865.2 1034.0
1038(29) 0.001189 865.1 1036.8
1080(29) 0.001189 865.0 1039.2
1112(29) 0.001189 865.0 1041.2
1096(29) 0.001189 864.9 1042.8
1101(29) 0.001189 864.8 1044.1
1074(29) 0.001189 864.7 1044.9
1078(29) 0.001189 864.7 1045.3
1092(29) 0.001189 864.6 1045.4
1069(29) 0.001189 864.5 1045.1
1097(29) 0.001189 864.5 1044.4
1124(30) 0.001111 864.4 1043.4
1097(29) 0.001189 864.3 1042.0
1119(30) 0.001111 864.2 1040.4
1084(29) 0.001189 864.2 1038.4
1071(29) 0.001189 864.1 1036.3
1055(29) 0.001189 864.0 1033.9
1090(29) 0.001189 863.9 1031.4
1058(29) 0.001189 863.9 1028.7
1030(28) 0.001276 863.8 1025.8
1026(28) 0.001276 863.7 1022.9
1041(29) 0.001189 863.6 1020.0
1002(28) 0.001276 863.6 1017.1
1031(28) 0.001276 863.5 1014.2
1001(28) 0.001276 863.4 1011.4
990(28) 0.001276 863.3 1008.8
975(28) 0.001276 863.2 1006.3
998(28) 0.001276 863.2 1004.1
986(28) 0.001276 863.1 1002.0
997(28) 0.001276 863.0 1000.3
1003(28) 0.001276 862.9 998.7
989(28) 0.001276 862.9 997.5
984(28) 0.001276 862.8 996.5
982(28) 0.001276 862.7 995.8
954(27) 0.001372 862.6 995.4
974(28) 0.001276 862.6 995.2
973(28) 0.001276 862.5 995.2
970(28) 0.001276 862.4 995.3
1008(28) 0.001276 862.3 995.6
1033(28) 0.001276 862.3 996.1
1017(28) 0.001276 862.2 996.6
1017(28) 0.001276 862.1 997.2
1033(28) 0.001276 862.0 997.8
969(28) 0.001276 862.0 998.4
986(28) 0.001276 861.9 998.9
998(28) 0.001276 861.8 999.4
995(28) 0.001276 861.8 999.8
980(28) 0.001276 861.7 1000.0
975(28) 0.001276 861.6 1000.1
991(28) 0.001276 861.5 1000.0
952(27) 0.001372 861.5 999.8
949(27) 0.001372 861.4 999.3
986(28) 0.001276 861.3 998.7
968(28) 0.001276 861.3 998.0
987(28) 0.001276 861.2 997.1
989(28) 0.001276 861.1 996.1
994(28) 0.001276 861.1 995.1
979(28) 0.001276 861.0 994.0
1027(28) 0.001276 860.9 993.0
973(28) 0.001276 860.9 991.9
951(27) 0.001372 860.8 991.0
986(28) 0.001276 860.7 990.3
940(27) 0.001372 860.7 989.7
952(27) 0.001372 860.6 989.3
943(27) 0.001372 860.5 989.2
961(27) 0.001372 860.5 989.4
975(28) 0.001276 860.4 989.8
960(27) 0.001372 860.4 990.7
950(27) 0.001372 860.3 991.8
985(28) 0.001276 860.2 993.4
983(28) 0.001276 860.2 995.3
1002(28) 0.001276 860.1 997.6
989(28) 0.001276 860.1 1000.3
953(28) 0.001276 860.0 1003.4
963(28) 0.001276 860.0 1006.9
963(28) 0.001276 859.9 1010.8
974(28) 0.001276 859.9 1015.1
988(28) 0.001276 859.8 1019.8
993(28) 0.001276 859.8 1024.8
987(28) 0.001276 859.7 1030.2
1034(29) 0.001189 859.7 1035.9
1023(29) 0.001189 859.6 1041.9
1044(29) 0.001189 859.6 1048.1
1004(29) 0.001189 859.5 1054.6
1017(29) 0.001189 859.5 1061.3
1020(29) 0.001189 859.4 1068.2
1031(29) 0.001189 859.4 1075.2
1063(29) 0.001189 859.4 1082.2
1089(30) 0.001111 859.3 1089.3
1084(30) 0.001111 859.3 1096.4
1151(31) 0.001041 859.3 1103.3
1106(30) 0.001111 859.2 1110.2
1102(30) 0.001111 859.2 1116.8
1076(30) 0.001111 859.2 1123.1
1102(30) 0.001111 859.1 1129.2
1146(30) 0.001111 859.1 1134.9
1147(30) 0.001111 859.1 1140.2
1137(30) 0.001111 859.1 1145.1
1109(30) 0.001111 859.0 1149.4
1147(30) 0.001111 859.0 1153.3
1162(31) 0.001041 859.0 1156.7
1179(31) 0.001041 859.0 1159.5
1150(31) 0.001041 859.0 1161.8
1148(30) 0.001111 858.9 1163.6
1136(30) 0.001111 858.9 1164.8
1160(31) 0.001041 858.9 1165.4
1160(31) 0.001041 858.9 1165.5
1131(30) 0.001111 858.9 1165.1
1136(30) 0.001111 858.9 1164.2
1155(31) 0.001041 858.9 1162.8
1205(31) 0.001041 858.9 1160.9
1134(30) 0.001111 858.9 1158.6
1159(31) 0.001041 858.9 1155.8
1213(31) 0.001041 858.9 1152.6
1138(30) 0.001111 858.9 1149.0
1152(31) 0.001041 858.9 1145.1
1094(30) 0.001111 859.0 1140.9
1126(30) 0.001111 859.0 1136.4
1075(30) 0.001111 859.0 1131.6
1104(30) 0.001111 859.0 1126.6
1111(30) 0.001111 859.0 1121.4
1134(30) 0.001111 859.1 1116.1
1126(30) 0.001111 859.1 1110.6
1107(30) 0.001111 859.1 1105.0
1114(30) 0.001111 859.1 1099.3
1090(30) 0.001111 859.2 1093.7
1097(30) 0.001111 859.2 1088.0
1120(30) 0.001111 859.3 1082.4
1120(30) 0.001111 859.3 1076.8
1070(29) 0.001189 859.4 1071.4
1095(30) 0.001111 859.4 1066.1
1098(30) 0.001111 859.5 1060.9
1049(29) 0.001189 859.5 1055.9
1107(30) 0.001111 859.6 1051.1
1058(29) 0.001189 859.6 1046.5
1068(29) 0.001189 859.7 1042.2
1043(29) 0.001189 859.8 1038.0
1041(29) 0.001189 859.8 1034.1
1047(29) 0.001189 859.9 1030.5
1044(29) 0.001189 860.0 1027.1
1054(29) 0.001189 860.1 1024.0
1030(29) 0.001189 860.1 1021.2
1043(29) 0.001189 860.2 1018.6
1009(29) 0.001189 860.3 1016.3
1038(29) 0.001189 860.4 1014.3
1031(29) 0.001189 860.5 1012.6
1018(29) 0.001189 860.6 1011.2
1048(29) 0.001189 860.7 1010.0
1030(29) 0.001189 860.8 1009.2
1032(29) 0.001189 860.9 1008.7
1007(29) 0.001189 861.0 1008.5
1087(30) 0.001111 861.2 1008.7
1052(29) 0.001189 861.3 1009.2
1032(29) 0.001189 861.4 1010.1
1032(29) 0.001189 861.5 1011.3
1010(29) 0.001189 861.7 1012.8
1014(29) 0.001189 861.8 1014.8
1041(29) 0.001189 862.0 1017.1
1018(29) 0.001189 862.1 1019.7
1053(29) 0.001189 862.2 1022.7
1036(29) 0.001189 862.4 1026.1
1055(29) 0.001189 862.6 1029.7
1057(29) 0.001189 862.7 1033.7
1079(30) 0.001111 862.9 1037.9
1065(29) 0.001189 863.1 1042.5
1043(29) 0.001189 863.2 1047.3
1087(30) 0.001111 863.4 1052.3
1122(30) 0.001111 863.6 1057.5
1061(29) 0.001189 863.8 1062.8
1121(30) 0.001111 864.0 1068.3
1105(30) 0.001111 864.2 1073.8
1111(30) 0.001111 864.4 1079.5
1108(30) 0.001111 864.6 1085.1
1092(30) 0.001111 864.8 1090.7
1120(30) 0.001111 865.0 1096.2
1107(30) 0.001111 865.3 1101.6
1092(30) 0.001111 865.5 1106.8
1086(30) 0.001111 865.7 1111.9
1101(30) 0.001111 866.0 1116.7
1116(30) 0.001111 866.2 1121.2
1147(31) 0.001041 866.4 1125.4
1124(30) 0.001111 866.7 1129.3
1168(31) 0.001041 867.0 1132.8
1157(31) 0.001041 867.2 1135.9
1118(30) 0.001111 867.5 1138.7
1144(31) 0.001041 867.8 1141.1
1167(31) 0.001041 868.1 1143.1
1173(31) 0.001041 868.3 1144.7
1159(31) 0.001041 868.6 1146.0
1129(31) 0.001041 868.9 1146.9
1142(31) 0.001041 869.2 1147.5
1119(30) 0.001111 869.5 1147.8
1148(31) 0.001041 869.9 1147.9
1174(31) 0.001041 870.2 1147.6
1159(31) 0.001041 870.5 1147.2
1154(31) 0.001041 870.9 1146.6
1136(31) 0.001041 871.2 1145.7
1128(31) 0.001041 871.5 1144.7
1139(31) 0.001041 871.9 1143.6
1146(31) 0.001041 872.3 1142.2
1165(31) 0.001041 872.6 1140.8
1144(31) 0.001041 873.0 1139.2
1126(31) 0.001041 873.4 1137.5
1149(31) 0.001041 873.8 1135.6
1134(31) 0.001041 874.2 1133.6
1099(30) 0.001111 874.6 1131.5
1095(30) 0.001111 875.0 1129.3
1139(31) 0.001041 875.4 1126.9
1159(31) 0.001041 875.8 1124.4
1184(31) 0.001041 876.2 1121.8
1128(31) 0.001041 876.7 1119.0
1086(30) 0.001111 877.1 1116.2
1127(31) 0.001041 877.6 1113.2
1107(30) 0.001111 878.0 1110.1
1063(30) 0.001111 878.5 1107.0
1089(30) 0.001111 879.0 1103.7
1095(30) 0.001111 879.4 1100.5
1049(29) 0.001189 879.9 1097.1
1059(30) 0.001111 880.4 1093.8
1086(30) 0.001111 880.9 1090.4
1093(30) 0.001111 881.5 1087.0
1092(30) 0.001111 882.0 1083.7
1091(30) 0.001111 882.5 1080.3
1107(30) 0.001111 883.0 1077.0
1061(30) 0.001111 883.6 1073.7
1060(30) 0.001111 884.1 1070.5
1065(30) 0.001111 884.7 1067.3
1036(29) 0.001189 885.3 1064.2
1055(30) 0.001111 885.8 1061.1
1067(30) 0.001111 886.4 1058.1
1082(30) 0.001111 887.0 1055.2
1041(29) 0.001189 887.6 1052.3
1030(29) 0.001189 888.3 1049.5
1054(30) 0.001111 888.9 1046.8
1064(30) 0.001111 889.5 1044.2
1079(30) 0.001111 890.1 1041.6
1077(30) 0.001111 890.8 1039.1
1017(29) 0.001189 891.5 1036.6
982(29) 0.001189 892.1 1034.3
1011(29) 0.001189 892.8 1032.0
994(29) 0.001189 893.5 1029.8
1018(29) 0.001189 894.2 1027.7
1034(29) 0.001189 894.9 1025.7
1012(29) 0.001189 895.6 1023.8
1026(29) 0.001189 896.3 1022.0
1062(30) 0.001111 897.1 1020.3
1072(30) 0.001111 897.8 1018.6
1016(29) 0.001189 898.6 1017.2
1005(29) 0.001189 899.4 1015.8
1036(29) 0.001189 900.1 1014.5
1053(30) 0.001111 900.9 1013.4
1062(30) 0.001111 901.7 1012.4
1021(29) 0.001189 902.5 1011.6
1029(29) 0.001189 903.3 1010.9
1022(29) 0.001189 904.2 1010.4
1029(29) 0.001189 905.0 1010.0
1040(29) 0.001189 905.9 1009.8
1035(29) 0.001189 906.7 1009.8
1029(29) 0.001189 907.6 1010.0
1013(29) 0.001189 908.5 1010.3
1013(29) 0.001189 909.4 1010.9
1014(29) 0.001189 910.3 1011.6
992(29) 0.001189 911.2 1012.6
994(29) 0.001189 912.2 1013.8
1020(29) 0.001189 913.1 1015.2
1043(29) 0.001189 914.1 1016.8
1011(29) 0.001189 915.0 1018.6
1005(29) 0.001189 916.0 1020.7
1020(29) 0.001189 917.0 1023.0
1040(29) 0.001189 918.0 1025.5
1060(30) 0.001111 919.0 1028.2
1089(30) 0.001111 920.0 1031.2
1059(24) 0.001736 921.1 1034.4
1042(30) 0.001111 922.1 1037.8
1015(29) 0.001189 923.2 1041.4
1044(30) 0.001111 924.3 1045.3
1080(30) 0.001111 925.4 1049.3
1051(30) 0.001111 926.5 1053.5
1004(29) 0.001189 927.6 1058.0
1022(29) 0.001189 928.7 1062.6
1066(30) 0.001111 929.9 1067.4
1065(30) 0.001111 931.0 1072.3
1077(30) 0.001111 932.2 1077.4
1091(30) 0.001111 933.4 1082.6
1114(31) 0.001041 934.6 1088.0
1107(30) 0.001111 935.8 1093.5
1104(30) 0.001111 937.0 1099.0
1109(31) 0.001041 938.3 1104.7
1106(30) 0.001111 939.5 1110.4
1094(30) 0.001111 940.8 1116.1
1076(30) 0.001111 942.1 1121.9
1084(30) 0.001111 943.4 1127.7
1099(30) 0.001111 944.7 1133.5
1141(31) 0.001041 946.0 1139.3
1152(31) 0.001041 947.4 1145.1
1152(31) 0.001041 948.7 1150.8
1226(32) 0.000977 950.1 1156.5
1214(32) 0.000977 951.5 1162.1
1199(32) 0.000977 952.9 1167.6
1190(32) 0.000977 954.3 1173.1
1170(31) 0.001041 955.8 1178.4
1173(31) 0.001041 957.2 1183.6
1157(31) 0.001041 958.7 1188.7
1140(31) 0.001041 960.2 1193.7
1199(32) 0.000977 961.7 1198.6
1230(32) 0.000977 963.2 1203.3
1215(32) 0.000977 964.7 1207.8
1206(32) 0.000977 966.3 1212.2
1212(32) 0.000977 967.8 1216.4
1246(32) 0.000977 969.4 1220.5
1232(32) 0.000977 971.0 1224.4
1263(32) 0.000977 972.6 1228.2
1265(32) 0.000977 974.3 1231.8
1238(32) 0.000977 975.9 1235.2
1260(32) 0.000977 977.6 1238.5
1253(32) 0.000977 979.3 1241.6
1232(32) 0.000977 981.0 1244.6
1192(32) 0.000977 982.7 1247.5
1267(32) 0.000977 984.4 1250.3
1297(33) 0.000918 986.2 1252.9
1263(32) 0.000977 988.0 1255.4
1270(32) 0.000977 989.8 1257.8
1290(33) 0.000918 991.6 1260.1
1292(33) 0.000918 993.4 1262.4
1279(33) 0.000918 995.2 1264.5
1291(33) 0.000918 997.1 1266.6
1264(32) 0.000977 999.0 1268.5
1233(32) 0.000977 1000.9 1270.4
1251(32) 0.000977 1002.8 1272.2
1271(33) 0.000918 1004.8 1274.0
1303(33) 0.000918 1006.7 1275.6
1296(33) 0.000918 1008.7 1277.2
1260(32) 0.000977 1010.7 1278.6
1241(32) 0.000977 1012.7 1280.0
1203(32) 0.000977 1014.8 1281.3
1221(32) 0.000977 1016.8 1282.4
1226(32) 0.000977 1018.9 1283.5
1204(32) 0.000977 1021.0 1284.4
1221(32) 0.000977 1023.2 1285.2
1249(32) 0.000977 1025.3 1285.8
1235(32) 0.000977 1027.5 1286.3
1220(32) 0.000977 1029.7 1286.7
1241(32) 0.000977 1031.9 1286.9
1253(32) 0.000977 1034.1 1286.9
1266(32) 0.000977 1036.3 1286.9
1236(32) 0.000977 1038.6 1286.6
1243(32) 0.000977 1040.9 1286.3
1285(33) 0.000918 1043.2 1285.7
1270(32) 0.000977 1045.6 1285.1
1228(32) 0.000977 1047.9 1284.3
1247(32) 0.000977 1050.3 1283.5
1238(32) 0.000977 1052.7 1282.5
1228(32) 0.000977 1055.2 1281.4
1236(32) 0.000977 1057.6 1280.3
1242(32) 0.000977 1060.1 1279.1
1262(32) 0.000977 1062.6 1277.8
1258(32) 0.000977 1065.1 1276.5
1249(32) 0.000977 1067.6 1275.2
1222(32) 0.000977 1070.2 1273.8
1220(32) 0.000977 1072.8 1272.4
1202(32) 0.000977 1075.4 1271.1
1230(32) 0.000977 1078.1 1269.8
1267(32) 0.000977 1080.7 1268.5
1237(32) 0.000977 1083.4 1267.2
1252(32) 0.000977 1086.1 1266.0
1244(32) 0.000977 1088.9 1264.9
1232(32) 0.000977 1091.6 1263.8
1256(32) 0.000977 1094.4 1262.8
1292(33) 0.000918 1097.2 1261.8
1278(33) 0.000918 1100.1 1261.0
1258(32) 0.000977 1102.9 1260.2
1266(32) 0.000977 1105.8 1259.6
1252(33) 0.000918 1108.7 1259.1
1248(33) 0.000918 1111.7 1258.6
1238(33) 0.000918 1114.7 1258.3
1258(33) 0.000918 1117.7 1258.1
1253(33) 0.000918 1120.7 1258.1
1248(33) 0.000918 1123.7 1258.1
1274(33) 0.000918 1126.8 1258.3
1264(33) 0.000918 1129.9 1258.7
1229(33) 0.000918 1133.0 1259.1
1269(33) 0.000918 1136.2 1259.8
1278(33) 0.000918 1139.4 1260.5
1277(33) 0.000918 1142.6 1261.5
1285(33) 0.000918 1145.8 1262.5
1282(33) 0.000918 1149.1 1263.8
1313(34) 0.000865 1152.4 1265.2
1264(33) 0.000918 1155.7 1266.7
1302(34) 0.000865 1159.1 1268.5
1310(34) 0.000865 1162.5 1270.4
1253(33) 0.000918 1165.9 1272.5
1318(34) 0.000865 1169.3 1274.7
1298(34) 0.000865 1172.8 1277.1
1323(34) 0.000865 1176.3 1279.7
1303(34) 0.000865 1179.8 1282.5
1271(33) 0.000918 1183.4 1285.5
1269(33) 0.000918 1187.0 1288.6
1260(33) 0.000918 1190.6 1291.9
1298(34) 0.000865 1194.3 1295.4
1312(34) 0.000865 1198.0 1299.1
1343(34) 0.000865 1201.7 1302.9
1351(34) 0.000865 1205.4 1307.0
1329(34) 0.000865 1209.2 1311.2
1371(34) 0.000865 1213.0 1315.6
1321(34) 0.000865 1216.9 1320.2
1308(34) 0.000865 1220.7 1324.9
1332(34) 0.000865 1224.6 1329.8
1314(34) 0.000865 1228.6 1334.9
1317(34) 0.000865 1232.6 1340.1
1341(34) 0.000865 1236.6 1345.6
1356(34) 0.000865 1240.6 1351.1
1334(34) 0.000865 1244.7 1356.9
1344(34) 0.000865 1248.8 1362.8
1364(34) 0.000865 1252.9 1368.8
1353(34) 0.000865 1257.1 1375.0
1380(34) 0.000865 1261.3 1381.4
1381(34) 0.000865 1265.5 1387.9
1427(35) 0.000816 1269.8 1394.5
1413(35) 0.000816 1274.1 1401.2
1420(35) 0.000816 1278.5 1408.1
1455(35) 0.000816 1282.8 1415.1
1421(35) 0.000816 1287.3 1422.2
1394(35) 0.000816 1291.7 1429.5
1421(35) 0.000816 1296.2 1436.8
1405(35) 0.000816 1300.7 1444.2
1452(35) 0.000816 1305.3 1451.7
1475(36) 0.000772 1310. 1459.
1491(36) 0.000772 1315. 1467.
1515(36) 0.000772 1319. 1475.
1489(36) 0.000772 1324. 1483.
1478(36) 0.000772 1329. 1490.
1512(36) 0.000772 1333. 1498.
1534(36) 0.000772 1338. 1506.
1542(36) 0.000772 1343. 1514.
1529(36) 0.000772 1348. 1522.
1509(36) 0.000772 1353. 1530.
1516(36) 0.000772 1358. 1538.
1566(37) 0.000730 1363. 1547.
1565(36) 0.000772 1368. 1555.
1586(37) 0.000730 1373. 1563.
1659(37) 0.000730 1378. 1571.
1609(37) 0.000730 1383. 1578.
1570(37) 0.000730 1389. 1586.
1678(38) 0.000693 1394. 1594.
1677(38) 0.000693 1399. 1602.
1668(38) 0.000693 1404. 1610.
1706(38) . . .
1672(38) . . .
1642(37) . . .
1663(38) . . .
1677(38) . . .
1626(37) . . .
1672(38) . . .
1691(38) . . .
1696(38) . . .
1695(38) . . .
1726(38) . . .
1741(38) . . .
1723(38) . . .
1758(38) . . .
1752(38) . . .
1694(38) . . .
1716(38) . . .
1735(38) . . .
1749(38) . . .
1702(38) . . .
1732(38) . . .
1767(39) . . .
1768(39) . . .
1715(38) . . .
1736(38) . . .
1769(39) . . .
1742(55) . . .
1861(57) . . .
1792(56) . . .
1804(56) . . .
1950(58) . . .
1853(57) . . .
1850(57) . . .
1812(56) . . .
1840(56) . . .
1825(56) . . .
1939(58) . . .
1920(58) . . .
1869(57) . . .
1876(57) . . .
1960(58) . . .
1873(57) . . .
1865(57) . . .
1915(58) . . .
1926(58) . . .
1986(58) . . .
1879(57) . . .
1936(58) . . .
1872(57) . . .
1849(57) . . .
1902(57) . . .
1937(58) . . .
1874(57) . . .
1998(59) . . .
1915(58) . . .
1967(58) . . .
1960(58) . . .
1907(57) . . .
2074(60) . . .
1998(59) . . .
1894(57) . . .
2003(59) . . .
2040(59) . . .
2023(59) . . .
1938(58) . . .
1983(58) . . .
2044(59) . . .
2036(59) . . .
2028(59) . . .
1918(58) . . .
2012(59) . . .
1972(58) . . .
1966(58) . . .
1924(58) . . .
2060(59) . . .
2055(59) . . .
2059(59) . . .
2005(59) . . .
2026(59) . . .
2018(59) . . .
1990(59) . . .
1988(58) . . .
2044(59) . . .
2088(60) . . .
2178(61) . . .
2112(60) . . .
2168(61) . . .
2054(59) . . .
2103(60) . . .
2087(60) . . .
2147(61) . . .
2099(60) . . .
2111(60) . . .
2162(61) . . .
2092(60) . . .
2133(60) . . .
2129(60) . . .
2142(60) . . .
2223(62) . . .
2207(61) . . .
2213(61) . . .
2236(62) . . .
2202(61) . . .
2231(62) . . .
2263(62) . . .
2174(61) . . .
2257(62) . . .
2233(62) . . .
2215(61) . . .
2208(61) . . .
2239(62) . . .
2191(61) . . .
2259(62) . . .
2185(61) . . .
2199(61) . . .
2234(62) . . .
2240(62) . . .
2266(62) . . .
2286(62) . . .
2170(61) . . .
2133(60) . . .
2207(61) . . .
2293(62) . . .
2251(62) . . .
2186(61) . . .
2321(63) . . .
loop_
_gsas_i100_meas
100.00
65.57
76.37
0.67
0.36
2.09
8.52
10.04
5.96
0.00
17.54
4.37
1.43
0.41
16.09
3.75
7.12
4.76
2.34
12.42
0.27
0.08
0.29
0.02
0.24
0.99
1.93
2.46
3.65
6.49
2.46
1.56
0.98
10.19
0.93
0.08
3.13
0.01
2.95
0.26
0.17
0.08
0.55
0.45
0.49
1.36
0.65
1.73
1.17
0.07
0.36
0.74
3.29
0.01
1.54
0.11
1.62
2.59
3.89
0.01
1.30
0.26
2.23
0.44
0.04
0.83
0.02
0.06
0.18
1.69
0.01
0.51
1.17
0.87
2.02
1.02
0.73
0.43
0.04
0.02
0.35
2.01
0.00
1.84
1.16
0.20
0.15
0.66
1.04
0.06
0.31
0.02
0.00
3.00
0.33
1.45
3.11
1.28
0.81
0.18
0.25
0.10
2.05
0.66
1.20
1.95
0.25
0.18
1.10
0.08
0.06
0.01
0.04
0.68
0.34
1.66
0.20
0.29
2.41
1.46
0.41
0.92
0.37
0.03
0.43
0.14
4.02
0.85
0.17
1.30
0.05
0.35
2.80
0.00
0.04
0.01
0.49
0.00
0.07
0.37
0.32
0.06
0.04
0.00
0.22
0.63
0.01
1.15
0.78
0.09
0.82
0.73
0.28
0.27
1.09
0.72
0.71
0.43
0.31
0.00
0.04
0.54
0.06
0.08
0.39
0.87
0.64
0.65
0.08
0.17
0.00
0.16
0.01
0.01
0.04
0.62
0.19
0.14
0.46
4.68
0.41
0.23
1.27
0.07
0.19
0.25
0.03
0.51
0.35
0.16
0.02
0.13
0.11
0.36
0.14
0.23
0.14
0.20
0.17
0.45
0.39
0.32
0.59
0.11
0.69
0.05
0.00
0.00
0.19
0.03
0.35
1.08
0.03
0.35
0.10
0.02
2.93
0.01
0.05
0.00
0.04
0.13
1.52
0.82
2.02
0.10
0.06
0.15
0.02
0.94
0.37
0.24
0.33
1.60
0.32
0.55
0.24
0.22
0.02
0.37
0.21
0.08
0.04
0.04
0.15
0.91
1.76
0.81
0.40
0.43
0.45
0.02
0.10
0.79
0.04
1.23
0.03
0.15
1.38
0.01
0.49
0.01
0.21
0.23
0.00
2.11
0.21
0.03
0.12
2.76
0.00
0.32
0.07
0.06
0.10
0.42
0.91
0.01
0.50
0.63
0.06
0.00
0.00
0.26
0.74
0.00
1.28
1.92
0.33
0.00
0.65
1.04
0.49
0.16
0.00
0.27
0.69
0.00
0.86
0.35
0.00
0.21
1.00
0.37
1.38
0.42
0.02
0.08
1.37
0.41
0.06
0.90
0.04
0.02
0.03
0.35
0.06
0.09
0.00
1.24
0.10
0.01
0.58
0.43
0.12
0.04
0.14
1.34
0.44
1.39
3.41
0.40
0.15
0.94
0.81
0.43
0.02
0.01
0.21
0.63
0.50
0.64
0.26
0.25
0.02
0.24
0.71
0.22
0.00
0.95
0.08
0.50
0.02
0.16
0.72
0.00
0.26
2.33
1.58
0.03
0.00
0.85
1.28
0.30
0.00
0.40
0.25
0.00
0.52
0.40
3.39
1.42
0.16
0.01
1.46
0.13
0.83
0.01
1.14
0.25
0.27
0.13
0.73
0.01
0.07
0.04
0.49
0.25
0.00
0.21
0.43
0.94
0.13
0.22
1.22
0.10
2.55
1.63
0.02
0.02
0.09
0.02
0.91
0.27
0.89
0.77
0.08
0.01
0.06
0.96
0.24
0.09
0.00
0.51
0.88
0.06
0.68
0.11
1.21
1.10
0.07
1.11
0.29
0.19
0.06
0.05
0.00
0.01
0.04
0.27
0.61
0.13
0.00
0.01
0.69
0.01
0.14
0.32
0.18
0.00
0.38
0.22
0.84
0.03
0.02
0.01
0.43
0.18
0.07
0.01
1.11
2.85
0.36
0.21
0.52
1.15
0.08
0.18
2.05
1.38
0.42
0.01
0.64
0.27
0.05
0.85
0.07
0.00
0.25
0.94
0.17
0.22
0.07
0.10
1.31
2.13
0.13
0.61
0.50
0.05
0.00
0.54
1.70
1.41
0.50
0.42
0.44
0.13
0.48
0.61
0.38
0.16
0.38
0.02
0.52
0.66
0.40
2.07
0.01
0.34
0.00
0.68
0.65
0.00
1.84
0.15
0.26
0.08
0.89
0.00
0.01
0.02
0.84
0.24
0.00
0.93
0.06
0.04
0.06
0.09
0.38
1.59
0.09
1.72
0.07
1.56
0.07
0.63
0.07
0.05
2.22
0.30
2.76
0.14
0.51
0.03
0.01
0.58
0.32
0.08
1.27
0.26
0.78
3.78
0.17
0.21
0.86
0.00
0.55
0.34
0.08
0.03
0.05
1.20
0.10
0.75
0.08
0.57
1.59
0.64
0.95
1.35
0.47
0.15
0.00
0.32
0.43
0.98
0.95
0.42
0.30
0.12
0.01
0.56
0.00
3.32
0.48
0.01
0.74
0.05
0.40
0.01
1.36
1.93
1.24
2.14
1.00
0.53
0.42
0.02
0.09
0.00
0.20
0.45
0.05
0.01
1.14
0.32
0.14
0.00
5.76
0.30
0.28
0.00
0.63
0.52
0.70
3.41
0.00
0.00
0.72
0.02
0.74
0.05
1.01
1.07
0.84
0.03
0.00
0.08
0.15
0.09
0.95
0.00
0.01
2.70
0.15
0.22
0.02
7.59
1.04
0.12
0.33
0.08
0.63
1.52
0.05
1.21
0.03
0.70
3.46
0.64
0.00
