#------------------------------------------------------------------------------
#$Date: 2019-11-14 09:28:08 +0200 (Thu, 14 Nov 2019) $
#$Revision: 227760 $
#$URL: file:///home/coder/svn-repositories/cod/cif/1/55/29/1552902.cif $
#------------------------------------------------------------------------------
#
# This file is available in the Crystallography Open Database (COD),
# http://www.crystallography.net/
#
# All data on this site have been placed in the public domain by the
# contributors.
#
data_1552902
loop_
_publ_author_name
'Asgari, Mehrdad'
'Jawahery, Sudi'
'Bloch, Eric D.'
'Hudson, Matthew R.'
'Flacau, Roxana'
'Vlaisavljevich, Bess'
'Long, Jeffrey R.'
'Brown, Craig M.'
'Queen, Wendy L.'
_publ_section_title
;
 An experimental and computational study of CO<sub>2</sub> adsorption in
 the sodalite-type M-BTT (M = Cr, Mn, Fe, Cu) metal-organic frameworks
 featuring open metal sites.
;
_journal_issue                   20
_journal_name_full               'Chemical science'
_journal_page_first              4579
_journal_page_last               4588
_journal_paper_doi               10.1039/c8sc00971f
_journal_volume                  9
_journal_year                    2018
_chemical_formula_sum            'C30.7 H8 Cl1.77 Cu5.54 N32 O14.09'
_chemical_formula_weight         1464.80
_space_group_IT_number           221
_space_group_name_Hall           '-P 4 2 3'
_space_group_name_H-M_alt        'P m -3 m'
_symmetry_cell_setting           cubic
_symmetry_space_group_name_Hall  '-P 4 2 3'
_symmetry_space_group_name_H-M   'P m -3 m'
_audit_creation_date             2016-02-24T11:36
_audit_creation_method           'from EXP file using GSAS2CIF'
_audit_update_record
;
2017-10-25 deposited with the CCDC.
2018-04-23 downloaded from the CCDC.
;
_cell_angle_alpha                90.0
_cell_angle_beta                 90.0
_cell_angle_gamma                90.0
_cell_formula_units_Z            3
_cell_length_a                   18.5323(4)
_cell_length_b                   18.5323
_cell_length_c                   18.5323
_cell_measurement_reflns_used    639
_cell_measurement_temperature    10
_cell_measurement_theta_max      160
_cell_measurement_theta_min      4.5
_cell_volume                     6364.85(14)
_computing_structure_refinement  GSAS
_diffrn_ambient_temperature      10
_diffrn_measurement_device_type  BT1
_diffrn_radiation_probe          neutron
_diffrn_radiation_wavelength     2.0782
_exptl_absorpt_correction_T_max  1.00000
_exptl_absorpt_correction_T_min  1.00000
_exptl_absorpt_process_details
;   GSAS Absorption/surface roughness correction: function number 0
 No correction is applied.
;
_pd_block_id                     2016-02-24T11:36|1P5CO2_FINAL|bt1|blah
_pd_calc_method                  'Rietveld Refinement'
_pd_instr_location               ' ?'
_pd_meas_2theta_range_inc        0.05
_pd_meas_2theta_range_max        166.25
_pd_meas_2theta_range_min        1.5
_pd_meas_number_of_points        3296
_pd_phase_name                   'Cu MOF'
_pd_proc_2theta_range_inc        0.05
_pd_proc_2theta_range_max        166.2514
_pd_proc_2theta_range_min        1.5014
_pd_proc_info_datetime           2016-02-24T11:36:21
_pd_proc_info_excluded_regions   ' ?'
_pd_proc_ls_background_function
;   GSAS Background function number 1 with 12 terms.
 Shifted Chebyshev function of 1st kind
      1:    698.466     2:   -121.677     3:    185.559     4:    1.99339    
      5:    96.4740     6:   -9.51754     7:    57.9160     8:   -9.09569    
      9:    30.1520    10:   -9.64698    11:    5.82812    12:   -6.89541    
;
_pd_proc_ls_peak_cutoff          0.00050
_pd_proc_ls_profile_function
;
 CW Profile function number 3 with  19 terms
 Pseudovoigt profile coefficients as parameterized in
 P. Thompson, D.E. Cox & J.B. Hastings (1987). J. Appl. Cryst.,20,79-83.
 Asymmetry correction of L.W. Finger, D.E. Cox & A. P. Jephcoat (1994).
 J. Appl. Cryst.,27,892-900.
 #1(GU)   =  537.085 #2(GV)   = -265.342 #3(GW)   =   81.753
 #4(GP)   =   37.085 #5(LX)   =    1.057 #6(LY)   =    7.902
 #7(S/L)  =   0.0326 #8(H/L)  =   0.0280
 #9(trns) =     0.00 #10(shft)=   0.0000
 #11(stec)=     0.00 #12(ptec)=     0.00 #13(sfec)=     0.00
 #14(L11) =    0.000 #15(L22) =    0.000 #16(L33) =    0.000
 #17(L12) =    0.000 #18(L13) =    0.000 #19(L23) =    0.000
 Peak tails are ignored  where the intensity is below 0.0005 times the peak
   Aniso. broadening axis   0.0   0.0   1.0
;
_pd_proc_ls_prof_R_factor        0.0319
_pd_proc_ls_prof_wR_expected     0.0355
_pd_proc_ls_prof_wR_factor       0.0369
_pd_proc_number_of_points        3296
_pd_spec_mounting                ' ?'
_refine_ls_goodness_of_fit_all   1.05
_refine_ls_matrix_type           full
_refine_ls_number_parameters     51
_refine_ls_number_restraints     20
_refine_ls_R_Fsqd_factor         0.05263
_refine_ls_shift/su_max          0.05
_refine_ls_shift/su_mean         0.01
_reflns_d_resolution_high        1.053
_reflns_d_resolution_low         18.532
_reflns_limit_h_max              17
_reflns_limit_h_min              1
_reflns_limit_k_max              12
_reflns_limit_k_min              0
_reflns_limit_l_max              10
_reflns_limit_l_min              0
_reflns_number_total             639
_cod_data_source_file            c8sc00971f3.cif
_cod_data_source_block           1P5CO2_FINAL_publ
_cod_depositor_comments
;
The following automatic conversions were performed:

'_geom_bond_publ_flag' value 'N' changed to 'n' according to
/home/data/users/saulius/crontab/automatic-downloads/current/RSC/lib/dictionaries/cif_core.dic
dictionary named 'cif_core.dic' version 2.4.2 from 2011-04-26 (515
times).

'_geom_angle_publ_flag' value 'N' changed to 'n' according to
/home/data/users/saulius/crontab/automatic-downloads/current/RSC/lib/dictionaries/cif_core.dic
dictionary named 'cif_core.dic' version 2.4.2 from 2011-04-26 (179
times).

Automatic conversion script
Id: cif_fix_values 5376 2017-05-30 11:51:03Z andrius 
;
_cod_original_cell_volume        6364.8(4)
_cod_original_formula_sum        'C30.70 H8 Cl1.77 Cu5.54 N32 O14.09'
_cod_database_code               1552902
_gsas_exptl_extinct_corr_t_min   1.00000
_gsas_exptl_extinct_corr_t_max   1.00000
loop_
_symmetry_equiv_pos_site_id
_symmetry_equiv_pos_as_xyz
1 +x,+y,+z
2 +z,+x,+y
3 +y,+z,+x
4 +x,+y,-z
5 -z,+x,+y
6 +y,-z,+x
7 -z,+x,-y
8 -y,-z,+x
9 +y,-z,-x
10 -x,+y,-z
11 -z,-x,+y
12 +x,-y,-z
13 +y,+x,+z
14 +z,+y,+x
15 +x,+z,+y
16 +y,+x,-z
17 -z,+y,+x
18 +x,-z,+y
19 -z,+y,-x
20 -x,-z,+y
21 +x,-z,-y
22 -y,+x,-z
23 -z,-y,+x
24 +y,-x,-z
-1 -x,-y,-z
-2 -z,-x,-y
-3 -y,-z,-x
-4 -x,-y,+z
-5 +z,-x,-y
-6 -y,+z,-x
-7 +z,-x,+y
-8 +y,+z,-x
-9 -y,+z,+x
-10 +x,-y,+z
-11 +z,+x,-y
-12 -x,+y,+z
-13 -y,-x,-z
-14 -z,-y,-x
-15 -x,-z,-y
-16 -y,-x,+z
-17 +z,-y,-x
-18 -x,+z,-y
-19 +z,-y,+x
-20 +x,+z,-y
-21 -x,+z,+y
-22 +y,-x,+z
-23 +z,+y,-x
-24 -y,+x,+z
loop_
_atom_site_type_symbol
_atom_site_label
_atom_site_fract_x
_atom_site_fract_y
_atom_site_fract_z
_atom_site_occupancy
_atom_site_thermal_displace_type
_atom_site_U_iso_or_equiv
_atom_site_symmetry_multiplicity
Cu Cu1 0.1330(5) 0.5 0.0 1.0 Uiso 0.0162(27) 12
C C1 0.14780(26) 0.33629(34) -0.14780(26) 1.0 Uiso 0.0085(8) 24
C C2 0.17930(26) 0.27168(35) -0.17930(26) 1.0 Uiso 0.0085(8) 24
C C3 0.24046(26) 0.24046(26) -0.1474(4) 1.0 Uiso 0.0085(8) 24
Cl Cl1 0.0 0.5 0.0 1.0 Uiso 0.061(6) 3
N N1 0.12987(19) 0.42584(20) -0.07784(20) 1.0 Uiso 0.0103(5) 48
N N2 0.17437(20) 0.36991(19) -0.08899(18) 1.0 Uiso 0.0103(5) 48
H H1 0.2636(5) 0.2636(5) -0.1014(7) 1.0 Uiso 0.0155(34) 24
Cu Cu2 0.2160(14) 0.3282(16) 0.0 0.19199 Uiso 0.06409 24
C C1a 0.2915(7) 0.43892(35) 0.0 0.434(5) Uiso 0.03625 24
O O1a 0.2753(8) 0.5 0.0 0.868(10) Uiso 0.10109 12
O O1b 0.3091(11) 0.3787(7) 0.0 0.434(5) Uiso 0.07825 24
C C4a 0.095(4) 0.0664(34) 0.0664(34) 0.0581(34) Uiso 0.04533 24
O O4a 0.080(5) 0.0234(29) 0.0234(29) 0.0581(34) Uiso 0.04533 24
O O4b 0.1096(26) 0.1096(26) 0.1096(26) 0.174(10) Uiso 0.04533 8
C C2a 0.0 0.2722(11) 0.0358(12) 0.180(4) Uiso 0.03761 24
O O2b 0.0 0.2212(12) 0.0721(16) 0.180(4) Uiso 0.06551 24
O O2a 0.0 0.3235(12) 0.0 0.721(15) Uiso 0.05482 6
C C3a 0.1597(8) 0.1597(8) 0.0 0.330(10) Uiso 0.06602 12
O O3a 0.0990(8) 0.173(4) 0.0 0.165(5) Uiso 0.04786 24
O O3b 0.2199(8) 0.146(4) 0.0 0.165(5) Uiso 0.04786 24
O Os 0.2505(8) 0.5 0.0 0.17378 Uiso 0.01168 12
Cl Cl2 0.3491(15) 0.3491(15) 0.0 0.19199 Uiso 0.06535 12
loop_
_atom_type_symbol
_atom_type_number_in_cell
_atom_type_scat_length_neutron
_atom_type_scat_source
Cu 16.608 0.7718 International_Tables_Vol_C
C 92.086 0.6648 International_Tables_Vol_C
Cl 5.304 0.9579 International_Tables_Vol_C
N 96.0 0.9360 International_Tables_Vol_C
H 24.0 -0.3741 International_Tables_Vol_C
O 42.258 0.5803 International_Tables_Vol_C
loop_
_geom_angle_atom_site_label_1
_geom_angle_atom_site_label_2
_geom_angle_atom_site_label_3
_geom_angle
_geom_angle_site_symmetry_1
_geom_angle_site_symmetry_3
_geom_angle_publ_flag
Cl1 Cu1 N1 88.32(31) 1_555 1_555 n
Cl1 Cu1 N1 88.32(31) 1_555 4_555 n
Cl1 Cu1 N1 88.32(31) 1_555 12_565 n
Cl1 Cu1 N1 88.32(31) 1_555 -10_565 n
N1 Cu1 N1 92.73(23) 1_555 4_555 n
N1 Cu1 N1 176.6(6) 1_555 12_565 n
N1 Cu1 N1 87.18(23) 1_555 -10_565 n
N1 Cu1 N1 87.18(23) 4_555 12_565 n
N1 Cu1 N1 176.6(6) 4_555 -10_565 n
N1 Cu1 N1 92.73(23) 12_565 -10_565 n
C2 C1 N2 123.93(29) 1_555 1_555 n
C2 C1 N2 123.93(29) 1_555 19_555 n
N2 C1 N2 112.1(6) 1_555 19_555 n
C1 C2 C3 119.6(4) 1_555 1_555 n
C1 C2 C3 119.6(4) 1_555 7_555 n
C3 C2 C3 120.7(7) 1_555 7_555 n
C2 C3 C2 119.2(7) 1_555 9_555 n
C2 C3 H1 120.4(4) 1_555 1_555 n
C2 C3 H1 120.4(4) 9_555 1_555 n
Cu1 Cl1 Cu1 180.0 1_555 10_555 n
Cu1 Cl1 Cu1 90.0 1_555 14_555 n
Cu1 Cl1 Cu1 90.0 1_555 19_555 n
Cu1 Cl1 Cu1 90.0 10_555 14_555 n
Cu1 Cl1 Cu1 90.0 10_555 19_555 n
Cu1 Cl1 Cu1 180.0 14_555 19_555 n
Cu1 N1 N1 122.17(28) 1_555 19_555 n
Cu1 N1 N2 128.8(4) 1_555 1_555 n
N1 N1 N2 109.03(22) 19_555 1_555 n
C1 N2 N1 104.9(4) 1_555 1_555 n
C1 N2 Cu2 129.5(9) 1_555 1_555 n
N1 N2 Cu2 114.4(6) 1_555 1_555 n
N2 Cu2 N2 113.0(9) 1_555 4_555 n
N2 Cu2 O1b 99.0(12) 1_555 1_555 n
N2 Cu2 Cl2 108.9(9) 1_555 1_555 n
N2 Cu2 O1b 99.0(12) 4_555 1_555 n
N2 Cu2 Cl2 108.9(9) 4_555 1_555 n
O1b Cu2 Cl2 19.6(5) 1_555 1_555 n
O1a C1a O1b 178.5(10) 1_555 1_555 n
O1a C1a Os 19.1(8) 1_555 1_555 n
O1a C1a Cl2 162.2(16) 1_555 1_555 n
O1b C1a Os 162.4(11) 1_555 1_555 n
O1b C1a Cl2 16.3(16) 1_555 1_555 n
Os C1a Cl2 178.8(15) 1_555 1_555 n
C1a O1a C1a 150.3(16) 1_555 12_565 n
C1a O1a Os 104.8(8) 1_555 1_555 n
C1a O1a Os 104.8(8) 12_565 1_555 n
Cu2 O1b C1a 102.2(12) 1_555 1_555 n
Cu2 O1b Cl2 115.0(30) 1_555 1_555 n
C1a O1b Cl2 142.9(33) 1_555 1_555 n
C4a C4a C4a 60.0000(4) 2_555 3_555 n
C4a C4a O4a 108.4(30) 2_555 1_555 n
C4a C4a O4a 45(4) 2_555 2_555 n
C4a C4a O4a 76.2(21) 2_555 3_555 n
C4a C4a O4b 71(4) 2_555 1_555 n
C4a C4a O4a 108.4(30) 3_555 1_555 n
C4a C4a O4a 76.2(21) 3_555 2_555 n
C4a C4a O4a 45(4) 3_555 3_555 n
C4a C4a O4b 71(4) 3_555 1_555 n
O4a C4a O4a 64(5) 1_555 2_555 n
O4a C4a O4a 64(5) 1_555 3_555 n
O4a C4a O4b 180.00(5) 1_555 1_555 n
O4a C4a O4a 56.5(35) 2_555 3_555 n
O4a C4a O4b 116(8) 2_555 1_555 n
O4a C4a O4b 116(8) 3_555 1_555 n
C4a O4a C4a 27(5) 1_555 2_555 n
C4a O4a C4a 27(5) 1_555 3_555 n
C4a O4a O4a 71.6(30) 1_555 2_555 n
C4a O4a O4a 71.6(30) 1_555 3_555 n
C4a O4a O4a 133.4(8) 1_555 4_555 n
C4a O4a O4a 94(4) 1_555 6_555 n
C4a O4a O4a 166(4) 1_555 12_555 n
C4a O4a O4a 94(4) 1_555 16_555 n
C4a O4a O4a 133.4(8) 1_555 18_555 n
C4a O4a C4a 28(4) 2_555 3_555 n
C4a O4a O4a 45(4) 2_555 2_555 n
C4a O4a O4a 61.8(17) 2_555 3_555 n
C4a O4a O4a 120.5(25) 2_555 4_555 n
C4a O4a O4a 91(5) 2_555 6_555 n
C4a O4a O4a 163.3(35) 2_555 12_555 n
C4a O4a O4a 69(8) 2_555 16_555 n
C4a O4a O4a 147.8(16) 2_555 18_555 n
C4a O4a O4a 61.8(17) 3_555 2_555 n
C4a O4a O4a 45(4) 3_555 3_555 n
C4a O4a O4a 147.8(16) 3_555 4_555 n
C4a O4a O4a 69(8) 3_555 6_555 n
C4a O4a O4a 163.3(35) 3_555 12_555 n
C4a O4a O4a 91(5) 3_555 16_555 n
C4a O4a O4a 120.5(25) 3_555 18_555 n
O4a O4a O4a 60.0000(4) 2_555 3_555 n
O4a O4a O4a 90.0 2_555 4_555 n
O4a O4a O4a 86(4) 2_555 6_555 n
O4a O4a O4a 120.0000(4) 2_555 12_555 n
O4a O4a O4a 30(5) 2_555 16_555 n
O4a O4a O4a 135.0 2_555 18_555 n
O4a O4a O4a 135.0000(8) 3_555 4_555 n
O4a O4a O4a 30(5) 3_555 6_555 n
O4a O4a O4a 120.0000(9) 3_555 12_555 n
O4a O4a O4a 86(4) 3_555 16_555 n
O4a O4a O4a 90.0 3_555 18_555 n
O4a O4a O4a 127.6(23) 4_555 6_555 n
O4a O4a O4a 45.0000(8) 4_555 12_555 n
O4a O4a O4a 60(5) 4_555 16_555 n
O4a O4a O4a 90.0 4_555 18_555 n
O4a O4a O4a 94(4) 6_555 12_555 n
O4a O4a O4a 104(6) 6_555 16_555 n
O4a O4a O4a 60(5) 6_555 18_555 n
O4a O4a O4a 94(4) 12_555 16_555 n
O4a O4a O4a 45.0000(8) 12_555 18_555 n
O4a O4a O4a 127.6(23) 16_555 18_555 n
C4a O4b C4a 38(8) 1_555 2_555 n
C4a O4b C4a 38(8) 1_555 3_555 n
C4a O4b C4a 38(8) 2_555 3_555 n
C2a C2a C2a 45.0000(8) 4_555 14_555 n
C2a C2a C2a 45.0000(8) 4_555 17_555 n
C2a C2a O2b 125.5(10) 4_555 1_555 n
C2a C2a O2b 67.9(5) 4_555 14_555 n
C2a C2a O2b 67.9(5) 4_555 17_555 n
C2a C2a O2a 55.1(14) 4_555 1_555 n
C2a C2a C2a 90.0000(15) 14_555 17_555 n
C2a C2a O2b 114.2(6) 14_555 1_555 n
C2a C2a O2b 36.8(8) 14_555 14_555 n
C2a C2a O2b 105.6(4) 14_555 17_555 n
C2a C2a O2a 66.1(9) 14_555 1_555 n
C2a C2a O2b 114.2(6) 17_555 1_555 n
C2a C2a O2b 105.6(4) 17_555 14_555 n
C2a C2a O2b 36.8(8) 17_555 17_555 n
C2a C2a O2a 66.1(9) 17_555 1_555 n
O2b C2a O2b 77.4(12) 1_555 14_555 n
O2b C2a O2b 77.4(12) 1_555 17_555 n
O2b C2a O2a 180.000(16) 1_555 1_555 n
O2b C2a O2b 98.4(12) 14_555 17_555 n
O2b C2a O2a 102.9(16) 14_555 1_555 n
O2b C2a O2a 102.9(16) 17_555 1_555 n
C2a O2b C2a 29.0(7) 1_555 14_555 n
C2a O2b C2a 29.0(7) 1_555 17_555 n
C2a O2b O3a 174(4) 1_555 14_555 n
C2a O2b O3b 126.5(18) 1_555 2_555 n
C2a O2b C2a 44.1(9) 14_555 17_555 n
C2a O2b O3a 146.6(28) 14_555 14_555 n
C2a O2b O3b 140.0(13) 14_555 2_555 n
C2a O2b O3a 146.6(28) 17_555 14_555 n
C2a O2b O3b 140.0(13) 17_555 2_555 n
O3a O2b O3b 59.9(30) 14_555 2_555 n
C2a O2a C2a 69.8(27) 1_555 4_555 n
C2a O2a C2a 47.7(17) 1_555 14_555 n
C2a O2a C2a 47.7(17) 1_555 17_555 n
C2a O2a C2a 47.7(17) 4_555 14_555 n
C2a O2a C2a 47.7(17) 4_555 17_555 n
C2a O2a C2a 69.8(27) 14_555 17_555 n
O3a C3a O3a 114(8) 1_555 13_555 n
O3a C3a O3b 180.000(19) 1_555 1_555 n
O3a C3a O3b 65(4) 1_555 13_555 n
O3a C3a O3b 65(4) 13_555 1_555 n
O3a C3a O3b 180.000(19) 13_555 13_555 n
O3b C3a O3b 115(8) 1_555 13_555 n
O2b O3a C3a 131(6) 14_555 1_555 n
O2b O3a O3b 74(5) 14_555 13_555 n
C3a O3a O3b 56.9(22) 1_555 13_555 n
O2b O3b C3a 103(4) 3_555 1_555 n
O2b O3b O3a 46(4) 3_555 13_555 n
C3a O3b O3a 57.6(22) 1_555 13_555 n
C1a Os C1a 112.2(13) 1_555 12_565 n
C1a Os O1a 56.1(7) 1_555 1_555 n
C1a Os O1a 56.1(7) 12_565 1_555 n
Cu2 Cl2 Cu2 72.1(12) 1_555 13_555 n
Cu2 Cl2 C1a 66.3(11) 1_555 1_555 n
Cu2 Cl2 C1a 138.4(15) 1_555 13_555 n
Cu2 Cl2 O1b 45.5(27) 1_555 1_555 n
Cu2 Cl2 O1b 117.6(31) 1_555 13_555 n
Cu2 Cl2 C1a 138.4(15) 13_555 1_555 n
Cu2 Cl2 C1a 66.3(11) 13_555 13_555 n
Cu2 Cl2 O1b 117.6(31) 13_555 1_555 n
Cu2 Cl2 O1b 45.5(27) 13_555 13_555 n
C1a Cl2 C1a 155.3(24) 1_555 13_555 n
C1a Cl2 O1b 20.8(18) 1_555 1_555 n
C1a Cl2 O1b 176(4) 1_555 13_555 n
C1a Cl2 O1b 176(4) 13_555 1_555 n
C1a Cl2 O1b 20.8(18) 13_555 13_555 n
O1b Cl2 O1b 163(6) 1_555 13_555 n
loop_
_geom_bond_atom_site_label_1
_geom_bond_atom_site_label_2
_geom_bond_distance
_geom_bond_site_symmetry_2
_geom_bond_publ_flag
Cu1 Cu1 4.930(19) 10_555 n
Cu1 Cu1 3.486(14) 14_555 n
Cu1 Cu1 3.486(14) 19_555 n
Cu1 C1 4.097(6) 1_555 n
Cu1 C1 4.097(6) 4_555 n
Cu1 C1 4.097(6) 12_565 n
Cu1 C1 4.097(6) -10_565 n
Cu1 Cl1 2.465(10) 1_555 n
Cu1 N1 1.9933(32) 1_555 n
Cu1 N1 1.9933(32) 4_555 n
Cu1 N1 1.9933(32) 12_565 n
Cu1 N1 2.954(5) 17_555 n
Cu1 N1 2.954(5) 19_555 n
Cu1 N1 2.954(5) 23_565 n
Cu1 N1 1.9933(32) -10_565 n
Cu1 N1 2.954(5) -14_565 n
Cu1 N2 3.020(4) 1_555 n
Cu1 N2 3.020(4) 4_555 n
Cu1 N2 3.020(4) 12_565 n
Cu1 N2 3.020(4) -10_565 n
Cu1 Cu2 3.536(22) 1_555 n
Cu1 Cu2 3.536(22) 12_565 n
Cu1 C1a 3.148(13) 1_555 n
Cu1 C1a 3.148(13) 12_565 n
Cu1 O1a 2.638(16) 1_555 n
Cu1 O1b 3.963(18) 1_555 n
Cu1 O1b 3.963(18) 12_565 n
Cu1 O2a 4.096(19) 1_555 n
Cu1 O2a 4.096(19) 12_565 n
Cu1 Os 2.177(10) 1_555 n
Cu1 Cl2 4.884(11) 1_555 n
Cu1 Cl2 4.884(11) 12_565 n
C1 Cu1 4.097(6) 1_555 n
C1 Cu1 4.097(6) 19_555 n
C1 C2 1.454(9) 1_555 n
C1 C3 2.470(5) 1_555 n
C1 C3 2.470(5) 7_555 n
C1 N1 2.132(7) 1_555 n
C1 N1 2.132(7) 19_555 n
C1 N2 1.349(5) 1_555 n
C1 N2 1.349(5) 19_555 n
C1 Cu2 3.020(11) 1_555 n
C1 Cu2 3.020(11) 19_555 n
C2 C1 1.454(9) 1_555 n
C2 C2 2.421(12) 7_555 n
C2 C2 2.421(12) 9_555 n
C2 C3 1.403(5) 1_555 n
C2 C3 1.403(5) 7_555 n
C2 C3 2.806(9) 9_555 n
C2 N2 2.475(7) 1_555 n
C2 N2 2.475(7) 19_555 n
C2 Cu2 3.550(13) 1_555 n
C2 Cu2 3.550(13) 19_555 n
C3 C1 2.470(5) 1_555 n
C3 C1 2.470(5) 9_555 n
C3 C2 1.403(5) 1_555 n
C3 C2 2.806(9) 7_555 n
C3 C2 1.403(5) 9_555 n
C3 C3 2.440(12) 7_555 n
C3 C3 2.440(12) 9_555 n
C3 N2 2.903(5) 1_555 n
C3 N2 2.903(5) 13_555 n
C3 H1 1.047(17) 1_555 n
C3 Cu2 3.211(14) 1_555 n
C3 Cu2 3.211(14) 13_555 n
C3 Cl2 3.946(28) 1_555 n
Cl1 Cu1 2.465(10) 1_555 n
Cl1 Cu1 2.465(10) 10_555 n
Cl1 Cu1 2.465(10) 14_555 n
Cl1 Cu1 2.465(10) 19_555 n
Cl1 N1 3.1245(34) 1_555 n
Cl1 N1 3.1245(34) 4_555 n
Cl1 N1 3.1245(34) 10_555 n
Cl1 N1 3.1245(34) 12_565 n
Cl1 N1 3.1245(34) 14_555 n
Cl1 N1 3.1245(34) 17_555 n
Cl1 N1 3.1245(34) 19_555 n
Cl1 N1 3.1245(34) 23_565 n
Cl1 N1 3.1245(34) -1_565 n
Cl1 N1 3.1245(34) -4_565 n
Cl1 N1 3.1245(34) -10_565 n
Cl1 N1 3.1245(34) -12_555 n
Cl1 N1 3.1245(34) -14_565 n
Cl1 N1 3.1245(34) -17_565 n
Cl1 N1 3.1245(34) -19_565 n
Cl1 N1 3.1245(34) -23_555 n
Cl1 N2 4.356(4) 1_555 n
Cl1 N2 4.356(4) 4_555 n
Cl1 N2 4.356(4) 10_555 n
Cl1 N2 4.356(4) 12_565 n
Cl1 N2 4.356(4) 14_555 n
Cl1 N2 4.356(4) 17_555 n
Cl1 N2 4.356(4) 19_555 n
Cl1 N2 4.356(4) 23_565 n
Cl1 N2 4.356(4) -1_565 n
Cl1 N2 4.356(4) -4_565 n
Cl1 N2 4.356(4) -10_565 n
Cl1 N2 4.356(4) -12_555 n
Cl1 N2 4.356(4) -14_565 n
Cl1 N2 4.356(4) -17_565 n
Cl1 N2 4.356(4) -19_565 n
Cl1 N2 4.356(4) -23_555 n
Cl1 Cu2 5.115(18) 1_555 n
Cl1 Cu2 5.115(18) 10_555 n
Cl1 Cu2 5.115(18) 12_565 n
Cl1 Cu2 5.115(18) 14_555 n
Cl1 Cu2 5.115(18) 19_555 n
Cl1 Cu2 5.115(18) 23_565 n
Cl1 Cu2 5.115(18) -1_565 n
Cl1 Cu2 5.115(18) -14_565 n
Cl1 C2a 4.274(20) 1_555 n
Cl1 C2a 4.274(20) 4_555 n
Cl1 C2a 4.274(20) 12_565 n
Cl1 C2a 4.274(20) 14_555 n
Cl1 C2a 4.274(20) 17_555 n
Cl1 C2a 4.274(20) 23_565 n
Cl1 C2a 4.274(20) -4_565 n
Cl1 C2a 4.274(20) -17_565 n
Cl1 O2a 3.271(23) 1_555 n
Cl1 O2a 3.271(23) 12_565 n
N1 Cu1 1.9933(32) 1_555 n
N1 Cu1 2.954(5) 19_555 n
N1 C1 2.132(7) 1_555 n
N1 Cl1 3.1245(34) 1_555 n
N1 N1 2.885(7) 4_555 n
N1 N1 1.364(8) 19_555 n
N1 N1 2.749(7) -10_565 n
N1 N1 3.068(8) -14_565 n
N1 N2 1.341(5) 1_555 n
N1 N2 2.202(4) 19_555 n
N1 Cu2 2.811(16) 1_555 n
N1 Cu2 3.953(15) 19_555 n
N1 Os 2.994(11) 1_555 n
N1 Cl2 4.540(16) 1_555 n
N2 Cu1 3.020(4) 1_555 n
N2 C1 1.349(5) 1_555 n
N2 C2 2.475(7) 1_555 n
N2 C3 2.903(5) 1_555 n
N2 Cl1 4.356(4) 1_555 n
N2 N1 1.341(5) 1_555 n
N2 N1 2.202(4) 19_555 n
N2 N2 2.238(6) 19_555 n
N2 Cu2 1.978(10) 1_555 n
N2 Cu2 4.072(14) 19_555 n
N2 C1a 3.011(10) 1_555 n
N2 O1b 2.997(18) 1_555 n
N2 Cl2 3.654(21) 1_555 n
H1 C3 1.047(17) 1_555 n
H1 Cu2 2.396(16) 1_555 n
H1 Cu2 2.396(16) 13_555 n
H1 Cl2 2.924(32) 1_555 n
Cu2 Cu1 3.536(22) 1_555 n
Cu2 C1 3.020(11) 1_555 n
Cu2 C1 3.020(11) 4_555 n
Cu2 C2 3.550(13) 1_555 n
Cu2 C2 3.550(13) 4_555 n
Cu2 C3 3.211(14) 1_555 n
Cu2 C3 3.211(14) 4_555 n
Cu2 Cl1 5.115(18) 1_555 n
Cu2 N1 2.811(16) 1_555 n
Cu2 N1 2.811(16) 4_555 n
Cu2 N1 3.953(15) 17_555 n
Cu2 N1 3.953(15) 19_555 n
Cu2 N2 1.978(10) 1_555 n
Cu2 N2 1.978(10) 4_555 n
Cu2 N2 4.072(14) 17_555 n
Cu2 N2 4.072(14) 19_555 n
Cu2 H1 2.396(16) 1_555 n
Cu2 H1 2.396(16) 4_555 n
Cu2 Cu2 2.94(4) 13_555 n
Cu2 C1a 2.48(4) 1_555 n
Cu2 O1a 3.369(34) 1_555 n
Cu2 O1b 1.96(4) 1_555 n
Cu2 O1b 3.036(28) 13_555 n
Cu2 C2a 3.50(4) 14_555 n
Cu2 O2b 3.32(5) 14_555 n
Cu2 O2a 4.004(27) 1_555 n
Cu2 C3a 3.29(4) 1_555 n
Cu2 O3a 3.60(7) 1_555 n
Cu2 O3b 3.37(7) 1_555 n
Cu2 O3b 2.39(5) 13_555 n
Cu2 Os 3.247(32) 1_555 n
Cu2 Cl2 2.497(20) 1_555 n
C1a Cu1 3.148(13) 1_555 n
C1a N2 3.011(10) 1_555 n
C1a N2 3.011(10) 4_555 n
C1a Cu2 2.48(4) 1_555 n
C1a C1a 2.264(13) 12_565 n
C1a O1a 1.171(5) 1_555 n
C1a O1b 1.162(10) 1_555 n
C1a O1b 2.898(20) 13_555 n
C1a Os 1.364(10) 1_555 n
C1a Cl2 1.977(11) 1_555 n
C1a Cl2 4.071(19) 12_565 n
O1a Cu1 2.638(16) 1_555 n
O1a Cu2 3.369(34) 1_555 n
O1a Cu2 3.369(34) 12_565 n
O1a C1a 1.171(5) 1_555 n
O1a C1a 1.171(5) 12_565 n
O1a O1b 2.333(11) 1_555 n
O1a O1b 2.333(11) 12_565 n
O1a Os 0.461(19) 1_555 n
O1a Cl2 3.113(14) 1_555 n
O1a Cl2 3.113(14) 12_565 n
O1b Cu1 3.963(18) 1_555 n
O1b N2 2.997(18) 1_555 n
O1b N2 2.997(18) 4_555 n
O1b Cu2 1.96(4) 1_555 n
O1b Cu2 3.036(28) 13_555 n
O1b C1a 1.162(10) 1_555 n
O1b C1a 2.898(20) 13_555 n
O1b O1a 2.333(11) 1_555 n
O1b O1b 1.824(28) 13_555 n
O1b Os 2.497(13) 1_555 n
O1b Cl2 0.922(17) 1_555 n
C4a C4a 0.75(16) 2_555 n
C4a C4a 0.75(16) 3_555 n
C4a C4a 2.46(12) 4_555 n
C4a C4a 3.04(6) 5_555 n
C4a C4a 2.57(8) 6_555 n
C4a C4a 2.57(8) 16_555 n
C4a C4a 3.04(6) 17_555 n
C4a C4a 2.46(12) 18_555 n
C4a C4a 3.04(6) -7_555 n
C4a C4a 3.04(6) -8_555 n
C4a O4a 1.161(9) 1_555 n
C4a O4a 1.57(11) 2_555 n
C4a O4a 1.57(11) 3_555 n
C4a O4a 1.87(10) 4_555 n
C4a O4a 2.35(6) 5_555 n
C4a O4a 2.14(5) 6_555 n
C4a O4a 2.76(8) 7_555 n
C4a O4a 2.76(8) 8_555 n
C4a O4a 2.37(16) 12_555 n
C4a O4a 2.14(5) 16_555 n
C4a O4a 2.35(6) 17_555 n
C4a O4a 1.87(10) 18_555 n
C4a O4a 3.12(11) -7_555 n
C4a O4a 3.12(11) -8_555 n
C4a O4b 1.165(10) 1_555 n
C4a O2b 3.15(4) 2_555 n
C4a O2b 2.65(8) 3_555 n
C4a O2b 2.65(8) 13_555 n
C4a O2b 3.15(4) 14_555 n
C4a C3a 2.438(32) 1_555 n
C4a C3a 3.01(10) 2_555 n
C4a C3a 2.438(32) 3_555 n
C4a O3a 2.33(6) 1_555 n
C4a O3a 2.71(11) 2_555 n
C4a O3a 1.99(8) 3_555 n
C4a O3a 1.99(8) 13_555 n
C4a O3a 2.71(11) 14_555 n
C4a O3a 2.33(6) 15_555 n
C4a O3b 3.01(6) 1_555 n
C4a O3b 3.01(6) 15_555 n
O4a C4a 1.161(9) 1_555 n
O4a C4a 1.57(11) 2_555 n
O4a C4a 1.57(11) 3_555 n
O4a C4a 1.87(10) 4_555 n
O4a C4a 3.12(11) 5_555 n
O4a C4a 2.14(5) 6_555 n
O4a C4a 2.76(8) 9_555 n
O4a C4a 2.37(16) 12_555 n
O4a C4a 2.14(5) 16_555 n
O4a C4a 3.12(11) 17_555 n
O4a C4a 1.87(10) 18_555 n
O4a C4a 2.76(8) 24_555 n
O4a C4a 2.35(6) -7_555 n
O4a C4a 2.35(6) -8_555 n
O4a O4a 1.48(16) 2_555 n
O4a O4a 1.48(16) 3_555 n
O4a O4a 0.87(11) 4_555 n
O4a O4a 2.18(13) 5_555 n
O4a O4a 1.72(12) 6_555 n
O4a O4a 2.35(13) 7_555 n
O4a O4a 2.35(13) 8_555 n
O4a O4a 2.35(13) 9_555 n
O4a O4a 3.09(19) 10_555 n
O4a O4a 2.71(15) 11_555 n
O4a O4a 1.23(15) 12_555 n
O4a O4a 1.72(12) 16_555 n
O4a O4a 2.18(13) 17_555 n
O4a O4a 0.87(11) 18_555 n
O4a O4a 2.71(15) 19_555 n
O4a O4a 3.09(19) 20_555 n
O4a O4a 2.35(13) 24_555 n
O4a O4a 2.84(17) -2_555 n
O4a O4a 2.84(17) -3_555 n
O4a O4a 2.18(13) -7_555 n
O4a O4a 2.18(13) -8_555 n
O4a O4a 2.96(19) -12_555 n
O4a O4b 2.326(14) 1_555 n
O4a O4b 2.99(9) 4_555 n
O4a O4b 2.99(9) 6_555 n
O4a O2b 2.80(9) 3_555 n
O4a O2b 3.19(9) 6_555 n
O4a O2b 2.80(9) 13_555 n
O4a O2b 3.19(9) 16_555 n
O4a C3a 2.96(6) 1_555 n
O4a C3a 2.96(6) 3_555 n
O4a O3a 2.82(8) 1_555 n
O4a O3a 2.26(10) 3_555 n
O4a O3a 2.88(9) 9_555 n
O4a O3a 2.26(10) 13_555 n
O4a O3a 2.82(8) 15_555 n
O4a O3a 2.88(9) 24_555 n
O4b C4a 1.165(10) 1_555 n
O4b C4a 1.165(10) 2_555 n
O4b C4a 1.165(10) 3_555 n
O4b O4a 2.326(14) 1_555 n
O4b O4a 2.326(14) 2_555 n
O4b O4a 2.326(14) 3_555 n
O4b O4a 2.99(9) 4_555 n
O4b O4a 2.99(9) 5_555 n
O4b O4a 2.99(9) 6_555 n
O4b O4a 2.99(9) 16_555 n
O4b O4a 2.99(9) 17_555 n
O4b O4a 2.99(9) 18_555 n
O4b O2b 2.981(18) 1_555 n
O4b O2b 2.981(18) 2_555 n
O4b O2b 2.981(18) 3_555 n
O4b O2b 2.981(18) 13_555 n
O4b O2b 2.981(18) 14_555 n
O4b O2b 2.981(18) 15_555 n
O4b C3a 2.418(12) 1_555 n
O4b C3a 2.418(12) 2_555 n
O4b C3a 2.418(12) 3_555 n
O4b O3a 2.35(4) 1_555 n
O4b O3a 2.35(4) 2_555 n
O4b O3a 2.35(4) 3_555 n
O4b O3a 2.35(4) 13_555 n
O4b O3a 2.35(4) 14_555 n
O4b O3a 2.35(4) 15_555 n
O4b O3b 2.961(24) 1_555 n
O4b O3b 2.961(24) 2_555 n
O4b O3b 2.961(24) 3_555 n
O4b O3b 2.961(24) 13_555 n
O4b O3b 2.961(24) 14_555 n
O4b O3b 2.961(24) 15_555 n
C2a Cl1 4.274(20) 1_555 n
C2a Cu2 3.50(4) 14_555 n
C2a C2a 1.33(5) 4_555 n
C2a C2a 0.938(32) 14_555 n
C2a C2a 0.938(32) 17_555 n
C2a O2b 1.159(5) 1_555 n
C2a O2b 2.21(4) 4_555 n
C2a O2b 1.766(27) 14_555 n
C2a O2b 1.766(27) 17_555 n
C2a O2a 1.1599(10) 1_555 n
C2a C3a 3.101(19) 2_555 n
C2a O3a 2.68(4) 1_555 n
C2a O3a 2.68(4) 10_555 n
C2a O3a 2.18(6) 14_555 n
C2a O3a 3.10(4) 19_555 n
C2a O3b 2.27(6) 2_555 n
C2a O3b 2.96(6) 13_555 n
C2a O3b 2.96(6) 22_555 n
O2b Cu2 3.32(5) 14_555 n
O2b C4a 2.65(8) 2_555 n
O2b C4a 3.15(4) 3_555 n
O2b C4a 2.65(8) 5_555 n
O2b C4a 3.15(4) 17_555 n
O2b O4a 2.80(9) 2_555 n
O2b O4a 2.80(9) 5_555 n
O2b O4a 3.19(9) 7_555 n
O2b O4a 3.19(9) 16_555 n
O2b O4b 2.981(18) 1_555 n
O2b O4b 2.981(18) 5_555 n
O2b C2a 1.159(5) 1_555 n
O2b C2a 2.21(4) 4_555 n
O2b C2a 1.766(27) 14_555 n
O2b C2a 1.766(27) 17_555 n
O2b O2b 2.67(6) 4_555 n
O2b O2b 1.89(4) 14_555 n
O2b O2b 1.89(4) 17_555 n
O2b O2a 2.319(5) 1_555 n
O2b C3a 1.983(22) 2_555 n
O2b O3a 2.440(30) 1_555 n
O2b O3a 2.93(5) 2_555 n
O2b O3a 2.440(30) 10_555 n
O2b O3a 1.03(6) 14_555 n
O2b O3b 1.38(7) 2_555 n
O2b O3b 3.03(6) 13_555 n
O2b O3b 3.07(4) 14_555 n
O2b O3b 3.03(6) 22_555 n
O2a Cu1 4.096(19) 1_555 n
O2a Cu1 4.096(19) 10_555 n
O2a Cu1 4.096(19) 14_555 n
O2a Cu1 4.096(19) 19_555 n
O2a Cl1 3.271(23) 1_555 n
O2a Cu2 4.004(27) 1_555 n
O2a Cu2 4.004(27) 10_555 n
O2a Cu2 4.004(27) 14_555 n
O2a Cu2 4.004(27) 19_555 n
O2a C2a 1.1599(10) 1_555 n
O2a C2a 1.1599(10) 4_555 n
O2a C2a 1.1599(10) 14_555 n
O2a C2a 1.1599(10) 17_555 n
O2a O2b 2.319(5) 1_555 n
O2a O2b 2.319(5) 4_555 n
O2a O2b 2.319(5) 14_555 n
O2a O2b 2.319(5) 17_555 n
C3a Cu2 3.29(4) 1_555 n
C3a Cu2 3.29(4) 13_555 n
C3a C4a 2.438(32) 1_555 n
C3a C4a 2.438(32) 2_555 n
C3a C4a 3.01(10) 3_555 n
C3a C4a 2.438(32) 4_555 n
C3a C4a 2.438(32) 16_555 n
C3a C4a 3.01(10) -8_555 n
C3a O4a 2.96(6) 1_555 n
C3a O4a 2.96(6) 2_555 n
C3a O4a 2.96(6) 4_555 n
C3a O4a 2.96(6) 16_555 n
C3a O4b 2.418(12) 1_555 n
C3a O4b 2.418(12) 4_555 n
C3a C2a 3.101(19) 3_555 n
C3a C2a 3.101(19) 14_555 n
C3a O2b 1.983(22) 3_555 n
C3a O2b 1.983(22) 14_555 n
C3a O3a 1.151(10) 1_555 n
C3a O3a 1.151(10) 13_555 n
C3a O3b 1.142(10) 1_555 n
C3a O3b 1.142(10) 13_555 n
O3a Cu2 3.60(7) 1_555 n
O3a C4a 2.33(6) 1_555 n
O3a C4a 1.99(8) 2_555 n
O3a C4a 2.71(11) 3_555 n
O3a C4a 2.33(6) 4_555 n
O3a C4a 1.99(8) 16_555 n
O3a C4a 2.71(11) -8_555 n
O3a O4a 2.82(8) 1_555 n
O3a O4a 2.26(10) 2_555 n
O3a O4a 2.82(8) 4_555 n
O3a O4a 2.88(9) 5_555 n
O3a O4a 2.88(9) 7_555 n
O3a O4a 2.26(10) 16_555 n
O3a O4b 2.35(4) 1_555 n
O3a O4b 2.35(4) 4_555 n
O3a C2a 2.68(4) 1_555 n
O3a C2a 2.68(4) 4_555 n
O3a C2a 2.18(6) 14_555 n
O3a C2a 3.10(4) 17_555 n
O3a O2b 2.440(30) 1_555 n
O3a O2b 2.93(5) 3_555 n
O3a O2b 2.440(30) 4_555 n
O3a O2b 1.03(6) 14_555 n
O3a C3a 1.151(10) 1_555 n
O3a O3a 1.93(9) 13_555 n
O3a O3a 2.594(22) 14_555 n
O3a O3a 2.594(22) 19_555 n
O3a O3b 2.293(15) 1_555 n
O3a O3b 1.24(7) 13_555 n
O3b Cu2 3.37(7) 1_555 n
O3b Cu2 2.39(5) 13_555 n
O3b C4a 3.01(6) 1_555 n
O3b C4a 3.01(6) 4_555 n
O3b O4b 2.961(24) 1_555 n
O3b O4b 2.961(24) 4_555 n
O3b C2a 2.27(6) 3_555 n
O3b C2a 2.96(6) 13_555 n
O3b C2a 2.96(6) 16_555 n
O3b O2b 1.38(7) 3_555 n
O3b O2b 3.03(6) 13_555 n
O3b O2b 3.07(4) 14_555 n
O3b O2b 3.03(6) 16_555 n
O3b C3a 1.142(10) 1_555 n
O3b O3a 2.293(15) 1_555 n
O3b O3a 1.24(7) 13_555 n
O3b O3b 1.92(9) 13_555 n
O3b Cl2 4.45(7) 1_555 n
Os Cu1 2.177(10) 1_555 n
Os N1 2.994(11) 1_555 n
Os N1 2.994(11) 4_555 n
Os N1 2.994(11) 12_565 n
Os N1 2.994(11) -10_565 n
Os Cu2 3.247(32) 1_555 n
Os Cu2 3.247(32) 12_565 n
Os C1a 1.364(10) 1_555 n
Os C1a 1.364(10) 12_565 n
Os O1a 0.461(19) 1_555 n
Os O1b 2.497(13) 1_555 n
Os O1b 2.497(13) 12_565 n
Os Cl2 3.341(11) 1_555 n
Os Cl2 3.341(11) 12_565 n
Cl2 Cu1 4.884(11) 1_555 n
Cl2 Cu1 4.884(11) 13_555 n
Cl2 C3 3.946(28) 1_555 n
Cl2 C3 3.946(28) 4_555 n
Cl2 N1 4.540(16) 1_555 n
Cl2 N1 4.540(16) 4_555 n
Cl2 N1 4.540(16) 13_555 n
Cl2 N1 4.540(16) 16_555 n
Cl2 N2 3.654(21) 1_555 n
Cl2 N2 3.654(21) 4_555 n
Cl2 N2 3.654(21) 13_555 n
Cl2 N2 3.654(21) 16_555 n
Cl2 H1 2.924(32) 1_555 n
Cl2 H1 2.924(32) 4_555 n
Cl2 Cu2 2.497(20) 1_555 n
Cl2 Cu2 2.497(20) 13_555 n
Cl2 C1a 1.977(11) 1_555 n
Cl2 C1a 4.071(19) 12_565 n
Cl2 C1a 1.977(11) 13_555 n
Cl2 C1a 4.071(19) 22_655 n
Cl2 O1a 3.113(14) 1_555 n
Cl2 O1a 3.113(14) 13_555 n
Cl2 O1b 0.922(17) 1_555 n
Cl2 O1b 0.922(17) 13_555 n
Cl2 O3b 4.45(7) 1_555 n
Cl2 O3b 4.45(7) 13_555 n
Cl2 Os 3.341(11) 1_555 n
Cl2 Os 3.341(11) 13_555 n
Cl2 Cl2 5.59(5) 10_655 n
Cl2 Cl2 5.59(5) 12_565 n
loop_
_pd_meas_intensity_total
_pd_proc_ls_weight
_pd_proc_intensity_bkg_calc
_pd_calc_intensity_total
6050(170) 0.0 1618. .
5230(160) 0.0 1608. .
5020(150) 0.0 1598. .
4400(140) 0.0 1589. .
3960(140) 0.0 1580. .
3670(130) 0.0 1570. .
3450(130) 0.0 1561. .
3130(120) 0.0 1552. .
2830(110) 0.0 1543. .
2430(110) 0.0 1534. .
2520(110) 0.0 1525. .
2220(100) 0.0 1516. .
2330(100) 0.0 1508. .
1836(92) 0.0 1499. .
2026(97) 0.0 1491. .
2100(99) 0.0 1482. .
1638(87) 0.0 1474. .
1841(92) 0.0 1466. .
1809(92) 0.0 1457. .
1887(94) 0.0 1449. .
1859(93) 0.0 1441. .
1841(92) 0.0 1433. .
1698(89) 0.0 1426. .
1813(92) 0.0 1418. .
1850(93) 0.0 1410. .
1712(89) 0.0 1402. .
1813(92) 0.0 1395. .
1679(88) 0.0 1387. .
1693(89) 0.0 1380. .
1850(93) 0.0 1373. .
1573(85) 0.0 1365. .
1568(85) 0.0 1358. .
1439(82) 0.0 1351. .
1513(84) 0.0 1344. .
1397(80) 0.0 1337. .
1328(78) 0.0 1330. .
1420(81) 0.0 1324. .
1351(79) 0.0 1317. .
1503(83) 0.0 1310. .
1332(79) 0.0 1303. .
1226(75) 0.0 1297. .
1268(77) 0.0 1290. .
1411(81) 0.0 1284. .
1355(79) 0.0 1278. .
1397(80) 0.0 1271. .
1240(76) 0.0 1265. .
1346(79) 0.0 1259. .
1166(74) 0.0 1253. .
1166(74) 0.0 1247. .
1124(72) 0.0 1241. .
1018(69) 0.0 1235. .
1101(71) 0.0001984 1229. 1229.
1254(76) 0.0001731 1223. 1223.
1203(75) 0.0001778 1218. 1218.
1249(76) 0.0001731 1212. 1212.
1244(76) 0.0001731 1206. 1206.
1189(74) 0.0001826 1201. 1201.
1110(72) 0.0001929 1195. 1195.
1194(74) 0.0001826 1190. 1198.
1124(72) 0.0001929 1185. 1193.
981(67) 0.0002228 1179. 1188.
1240(76) 0.0001731 1174. 1184.
1110(72) 0.0001929 1169. 1179.
1194(74) 0.0001826 1164. 1175.
1120(72) 0.0001929 1159. 1170.
1046(70) 0.0002041 1154. 1166.
1027(69) 0.0002100 1149. 1162.
1207(75) 0.0001778 1144. 1158.
1129(72) 0.0001929 1139. 1155.
1069(70) 0.0002041 1134. 1151.
1180(74) 0.0001826 1129. 1148.
1157(73) 0.0001877 1125. 1145.
1217(75) 0.0001778 1120. 1143.
1221(75) 0.0001778 1115. 1142.
1351(79) 0.0001602 1111. 1143.
1513(84) 0.0001417 1106. 1150.
1471(83) 0.0001452 1102. 1169.
1443(82) 0.0001487 1097. 1211.
1633(87) 0.0001321 1093. 1289.
1785(91) 0.0001208 1089. 1411.
1735(90) 0.0001235 1084. 1580.
1994(96) 0.0001085 1080. 1794.
2150(100) 0.0001000 1076. 2047.
2360(110) 0.0000907 1072. 2335.
2660(110) 0.0000812 1068. 2660.
2860(120) 0.0000756 1064. 3025.
3380(130) 0.0000640 1060. 3439.
3700(130) 0.0000583 1056. 3912.
4300(140) 0.0000503 1052. 4459.
4710(150) 0.0000457 1048. 5105.
5610(160) 0.0000386 1044. 5887.
6650(180) 0.0000327 1040. 6868.
7770(190) 0.0000277 1037. 8158.
9560(210) 0.0000227 1033. 9926.
12440(240) 0.0000174 1029. 12345.
15890(270) 0.0000136 1026. 15380.
18900(300) 0.0000114 1022. 18466.
20920(310) 0.0000103 1018. 20414.
21060(310) 0.0000103 1015. 19950.
17820(290) 0.0000121 1012. 16744.
11310(160) 0.0000401 1008. 11949.
7440(130) 0.0000610 1005. 7345.
4431(98) 0.0001041 1001. 4078.
2451(73) 0.0001877 998. 2283.
1622(59) 0.0002873 995. 1497.
1213(51) 0.000384 992. 1211.
1139(49) 0.000416 988. 1116.
1023(47) 0.000453 985. 1079.
1065(48) 0.000434 982. 1058.
1009(47) 0.000453 979. 1043.
1065(48) 0.000434 976. 1031.
1067(48) 0.000434 973. 1023.
972(46) 0.000473 970. 1014.
951(45) 0.000494 967. 1007.
1010(47) 0.000453 964. 1000.
966(46) 0.000473 961. 994.
873(43) 0.000541 958. 988.
917(44) 0.000517 956. 983.
937(45) 0.000494 953. 979.
989(46) 0.000473 950. 974.
881(43) 0.000541 947. 970.
982(46) 0.000473 945. 966.
803(41) 0.000595 942. 963.
928(45) 0.000494 939. 959.
866(43) 0.000541 937. 956.
885(43) 0.000541 934. 953.
848(43) 0.000541 932. 950.
813(42) 0.000567 929. 948.
927(45) 0.000494 927. 945.
946(45) 0.000494 924. 943.
892(44) 0.000517 922. 941.
900(44) 0.000517 920. 931.
869(43) 0.000541 917. 930.
929(45) 0.000494 915. 930.
969(46) 0.000473 913. 932.
1083(48) 0.000434 910. 938.
1087(48) 0.000434 908. 953.
1083(48) 0.000434 906. 985.
1239(52) 0.000370 904. 1044.
1252(52) 0.000370 902. 1139.
1318(53) 0.000356 899. 1273.
1421(55) 0.0003306 897. 1448.
1620(59) 0.0002873 895. 1666.
1892(64) 0.0002441 893. 1932.
2182(69) 0.0002100 891. 2265.
2657(76) 0.0001731 889. 2694.
3186(84) 0.0001417 887. 3275.
4075(95) 0.0001108 885. 4084.
5310(110) 0.0000857 883. 5159.
6690(120) 0.0000683 881. 6392.
7860(130) 0.0000574 880. 7417.
7810(130) 0.0000583 878. 7714.
7110(130) 0.0000640 876. 6961.
5500(110) 0.0000826 874. 5383.
3750(91) 0.0001208 872. 3637.
2458(73) 0.0001877 870. 2280.
1531(58) 0.0002973 869. 1479.
1197(51) 0.000384 867. 1109.
953(45) 0.000494 865. 970.
906(44) 0.000517 864. 923.
873(43) 0.000541 862. 906.
917(44) 0.000517 860. 897.
873(43) 0.000541 859. 891.
810(42) 0.000567 857. 886.
856(43) 0.000541 855. 881.
824(42) 0.000567 854. 878.
846(42) 0.000567 852. 875.
856(43) 0.000541 851. 873.
821(42) 0.000567 849. 871.
832(42) 0.000567 848. 869.
820(42) 0.000567 846. 868.
755(40) 0.000625 845. 867.
879(43) 0.000541 844. 866.
858(43) 0.000541 842. 866.
890(44) 0.000517 841. 866.
809(41) 0.000595 839. 867.
899(44) 0.000517 838. 869.
961(45) 0.000494 837. 872.
906(44) 0.000517 835. 880.
1020(47) 0.000453 834. 900.
980(46) 0.000473 833. 943.
1185(51) 0.000384 831. 1030.
1297(53) 0.000356 830. 1185.
1525(58) 0.0002973 829. 1425.
1800(63) 0.0002520 828. 1765.
2208(69) 0.0002100 827. 2228.
2693(77) 0.0001687 825. 2847.
3432(87) 0.0001321 824. 3697.
4680(100) 0.0000980 823. 4887.
6570(120) 0.0000694 822. 6487.
8220(140) 0.0000549 821. 8356.
9920(150) 0.0000457 820. 9964.
10190(150) 0.0000444 819. 10523.
9080(140) 0.0000503 817. 9515.
6990(120) 0.0000650 816. 7263.
4650(100) 0.0000980 815. 4749.
2460(100) 0.0001000 814. 2800.
1450(77) 0.0001687 813. 1663.
1060(65) 0.0002367 812. 1146.
969(62) 0.0002601 811. 954.
903(43) 0.000541 810. 890.
826(41) 0.000595 809. 867.
820(41) 0.000595 808. 854.
826(41) 0.000595 807. 846.
896(43) 0.000541 807. 839.
909(44) 0.000517 806. 834.
845(42) 0.000567 805. 829.
863(42) 0.000567 804. 825.
899(43) 0.000541 803. 822.
858(42) 0.000567 802. 819.
866(42) 0.000567 801. 816.
852(42) 0.000567 800. 814.
817(41) 0.000595 799. 812.
874(43) 0.000541 799. 810.
857(42) 0.000567 798. 809.
789(40) 0.000625 797. 807.
832(42) 0.000567 796. 807.
880(43) 0.000541 795. 807.
829(41) 0.000595 795. 809.
795(41) 0.000595 794. 813.
833(42) 0.000567 793. 819.
821(41) 0.000595 792. 829.
873(43) 0.000541 792. 844.
962(45) 0.000494 791. 865.
967(45) 0.000494 790. 893.
969(45) 0.000494 790. 919.
1018(46) 0.000473 789. 941.
966(45) 0.000494 788. 942.
931(44) 0.000517 788. 917.
899(43) 0.000541 787. 876.
864(42) 0.000567 786. 836.
859(42) 0.000567 786. 809.
817(41) 0.000595 785. 795.
822(41) 0.000595 784. 788.
785(40) 0.000625 784. 786.
818(41) 0.000595 783. 784.
756(39) 0.000657 782. 783.
800(41) 0.000595 782. 783.
765(40) 0.000625 781. 782.
778(40) 0.000625 781. 781.
836(42) 0.000567 780. 781.
725(39) 0.000657 780. 780.
776(40) 0.000625 779. 780.
793(41) 0.000595 779. 779.
766(40) 0.000625 778. 778.
750(39) 0.000657 777. 778.
790(40) 0.000625 777. 778.
740(39) 0.000657 776. 777.
742(39) 0.000657 776. 777.
772(40) 0.000625 775. 777.
803(41) 0.000595 775. 778.
790(40) 0.000625 774. 780.
747(39) 0.000657 774. 783.
777(40) 0.000625 773. 788.
829(41) 0.000595 773. 795.
817(41) 0.000595 773. 804.
812(41) 0.000595 772. 812.
796(41) 0.000595 772. 816.
877(43) 0.000541 771. 813.
817(41) 0.000595 771. 803.
765(40) 0.000625 770. 791.
740(39) 0.000657 770. 781.
738(39) 0.000657 769. 774.
788(40) 0.000625 769. 771.
737(39) 0.000657 769. 770.
766(40) 0.000625 768. 769.
751(39) 0.000657 768. 769.
779(40) 0.000625 767. 768.
803(41) 0.000595 767. 768.
771(40) 0.000625 767. 768.
763(40) 0.000625 766. 767.
741(39) 0.000657 766. 767.
782(40) 0.000625 766. 767.
816(41) 0.000595 765. 767.
807(41) 0.000595 765. 767.
802(41) 0.000595 765. 768.
789(40) 0.000625 764. 770.
771(40) 0.000625 764. 775.
757(40) 0.000625 763. 785.
760(40) 0.000625 763. 803.
811(41) 0.000595 763. 832.
860(42) 0.000567 763. 877.
921(44) 0.000517 762. 939.
979(45) 0.000494 762. 1012.
1121(49) 0.000416 762. 1075.
1098(48) 0.000434 761. 1095.
1117(49) 0.000416 761. 1056.
958(45) 0.000494 761. 972.
884(43) 0.000541 760. 885.
793(41) 0.000595 760. 820.
749(39) 0.000657 760. 785.
781(40) 0.000625 759. 769.
761(40) 0.000625 759. 764.
764(40) 0.000625 759. 762.
760(40) 0.000625 759. 761.
724(39) 0.000657 758. 760.
680(54) 0.0003429 758. 760.
760(39) 0.000657 758. 759.
745(39) 0.000657 758. 759.
778(39) 0.000657 757. 759.
780(40) 0.000625 757. 758.
779(40) 0.000625 757. 758.
797(40) 0.000625 757. 758.
744(39) 0.000657 756. 757.
791(40) 0.000625 756. 757.
749(39) 0.000657 756. 757.
810(40) 0.000625 756. 757.
767(39) 0.000657 755. 756.
759(39) 0.000657 755. 756.
758(39) 0.000657 755. 756.
805(40) 0.000625 755. 756.
728(38) 0.000693 754. 755.
697(37) 0.000730 754. 755.
753(39) 0.000657 754. 755.
720(38) 0.000693 754. 755.
738(38) 0.000693 754. 755.
814(40) 0.000625 753. 755.
763(39) 0.000657 753. 755.
787(40) 0.000625 753. 755.
756(39) 0.000657 753. 755.
692(37) 0.000730 753. 756.
718(38) 0.000693 752. 756.
742(38) 0.000693 752. 756.
725(38) 0.000693 752. 756.
811(40) 0.000625 752. 757.
765(39) 0.000657 752. 759.
726(38) 0.000693 751. 765.
795(40) 0.000625 751. 777.
784(40) 0.000625 751. 801.
884(42) 0.000567 751. 848.
920(43) 0.000541 751. 926.
1135(48) 0.000434 750. 1045.
1317(52) 0.000370 750. 1198.
1434(54) 0.0003429 750. 1345.
1413(54) 0.0003429 750. 1423.
1449(55) 0.0003306 750. 1379.
1249(51) 0.000384 750. 1227.
1063(46) 0.000473 749. 1044.
923(43) 0.000541 749. 899.
791(40) 0.000625 749. 815.
830(41) 0.000595 749. 777.
816(40) 0.000625 749. 764.
719(38) 0.000693 748. 760.
729(38) 0.000693 748. 759.
724(38) 0.000693 748. 759.
772(39) 0.000657 748. 759.
802(40) 0.000625 748. 760.
806(40) 0.000625 748. 763.
776(39) 0.000657 747. 770.
703(37) 0.000730 747. 788.
797(40) 0.000625 747. 829.
879(42) 0.000567 747. 912.
1000(45) 0.000494 747. 1065.
1203(50) 0.000400 747. 1314.
1566(57) 0.0003078 747. 1662.
1959(64) 0.0002441 746. 2046.
2285(69) 0.0002100 746. 2322.
2182(67) 0.0002228 746. 2331.
1882(62) 0.0002601 746. 2041.
1480(55) 0.0003306 746. 1601.
1173(49) 0.000416 746. 1207.
913(43) 0.000541 745. 953.
782(40) 0.000625 745. 830.
790(40) 0.000625 745. 782.
800(40) 0.000625 745. 765.
732(38) 0.000693 745. 760.
709(38) 0.000693 745. 757.
770(39) 0.000657 745. 755.
760(39) 0.000657 744. 753.
763(39) 0.000657 744. 752.
714(38) 0.000693 744. 752.
687(37) 0.000730 744. 751.
766(39) 0.000657 744. 752.
802(40) 0.000625 744. 753.
784(40) 0.000625 744. 756.
772(39) 0.000657 743. 761.
749(39) 0.000657 743. 766.
767(39) 0.000657 743. 771.
769(39) 0.000657 743. 773.
752(39) 0.000657 743. 769.
770(39) 0.000657 743. 763.
766(39) 0.000657 743. 757.
773(39) 0.000657 742. 753.
699(37) 0.000730 742. 751.
792(40) 0.000625 742. 751.
800(40) 0.000625 742. 751.
769(39) 0.000657 742. 752.
751(39) 0.000657 742. 754.
712(38) 0.000693 742. 756.
748(39) 0.000657 741. 761.
763(39) 0.000657 741. 772.
822(41) 0.000595 741. 799.
805(40) 0.000625 741. 861.
993(45) 0.000494 741. 990.
1259(51) 0.000384 741. 1224.
1546(56) 0.0003189 741. 1586.
2105(63) 0.0002520 740. 2038.
2611(70) 0.0002041 740. 2441.
2707(71) 0.0001984 740. 2593.
2389(67) 0.0002228 740. 2380.
1921(60) 0.0002778 740. 1909.
1474(52) 0.000370 740. 1416.
1125(46) 0.000473 740. 1064.
878(40) 0.000625 739. 876.
791(38) 0.000693 739. 798.
746(37) 0.000730 739. 771.
730(36) 0.000772 739. 762.
728(36) 0.000772 739. 759.
751(37) 0.000730 739. 759.
772(38) 0.000693 739. 761.
798(38) 0.000693 738. 770.
842(39) 0.000657 738. 795.
831(39) 0.000657 738. 851.
943(42) 0.000567 738. 962.
1130(46) 0.000473 738. 1148.
1445(52) 0.000370 738. 1402.
1728(57) 0.0003078 738. 1659.
1788(58) 0.0002973 737. 1807.
1735(57) 0.0003078 737. 1749.
1556(54) 0.0003429 737. 1507.
1252(48) 0.000434 737. 1211.
1032(44) 0.000517 737. 977.
839(39) 0.000657 737. 841.
726(36) 0.000772 737. 780.
720(36) 0.000772 736. 758.
734(37) 0.000730 736. 750.
745(37) 0.000730 736. 747.
790(38) 0.000693 736. 745.
685(35) 0.000816 735.9 744.3
774(38) 0.000693 736. 744.
732(37) 0.000730 736. 746.
708(36) 0.000772 735. 752.
820(39) 0.000657 735. 763.
895(41) 0.000595 735. 780.
859(40) 0.000625 735. 802.
818(39) 0.000657 735. 821.
874(40) 0.000625 735. 826.
845(39) 0.000657 735. 812.
816(39) 0.000657 734. 788.
760(37) 0.000730 734. 765.
708(36) 0.000772 734. 749.
704(36) 0.000772 734. 741.
725(36) 0.000772 734. 738.
711(36) 0.000772 734. 736.
693(35) 0.000816 733.6 735.8
731(37) 0.000730 733. 736.
710(36) 0.000772 733. 736.
739(37) 0.000730 733. 736.
668(35) 0.000816 733.0 738.5
685(35) 0.000816 732.8 742.7
772(38) 0.000693 733. 751.
728(36) 0.000772 733. 763.
754(37) 0.000730 732. 778.
720(36) 0.000772 732. 790.
762(37) 0.000730 732. 793.
759(37) 0.000730 732. 783.
733(37) 0.000730 732. 767.
721(36) 0.000772 732. 751.
775(38) 0.000693 731. 741.
796(38) 0.000693 731. 736.
780(38) 0.000693 731. 734.
725(36) 0.000772 731. 733.
637(34) 0.000865 730.8 733.0
696(36) 0.000772 731. 733.
683(35) 0.000816 730.5 733.5
747(37) 0.000730 730. 734.
727(36) 0.000772 730. 734.
663(35) 0.000816 730.0 733.6
683(35) 0.000816 729.9 733.7
675(35) 0.000816 729.7 733.9
685(35) 0.000816 729.5 734.1
726(36) 0.000772 729. 734.
721(36) 0.000772 729. 735.
706(36) 0.000772 729. 735.
716(36) 0.000772 729. 736.
720(36) 0.000772 729. 737.
728(36) 0.000772 729. 738.
723(36) 0.000772 728. 739.
745(37) 0.000730 728. 741.
689(35) 0.000816 728.1 744.5
737(37) 0.000730 728. 752.
784(38) 0.000693 728. 770.
822(39) 0.000657 728. 816.
948(42) 0.000567 727. 919.
1143(46) 0.000473 727. 1118.
1540(54) 0.0003429 727. 1434.
1994(61) 0.0002687 727. 1819.
2442(68) 0.0002163 727. 2135.
2336(66) 0.0002296 727. 2209.
2134(63) 0.0002520 726. 1979.
1766(57) 0.0003078 726. 1578.
1283(49) 0.000416 726. 1200.
954(42) 0.000567 726. 950.
809(38) 0.000693 726. 825.
754(37) 0.000730 726. 777.
700(36) 0.000772 725. 763.
743(37) 0.000730 725. 764.
788(37) 0.000730 725. 776.
824(38) 0.000693 725. 813.
944(41) 0.000595 725. 905.
1085(44) 0.000517 725. 1095.
1396(50) 0.000400 724. 1419.
1840(58) 0.0002973 724. 1849.
2213(64) 0.0002441 724. 2249.
2466(68) 0.0002163 724. 2421.
2275(65) 0.0002367 724. 2243.
1928(60) 0.0002778 724. 1815.
1424(51) 0.000384 723. 1362.
1028(43) 0.000541 723. 1036.
870(39) 0.000657 723. 862.
780(37) 0.000730 723. 789.
775(37) 0.000730 723. 765.
803(38) 0.000693 723. 761.
761(37) 0.000730 722. 769.
752(37) 0.000730 722. 798.
861(39) 0.000657 722. 871.
1024(43) 0.000541 722. 1019.
1249(48) 0.000434 722. 1263.
1682(55) 0.0003306 721. 1571.
1946(60) 0.0002778 721. 1834.
2115(63) 0.0002520 721. 1911.
1926(60) 0.0002778 721. 1743.
1539(53) 0.000356 721. 1428.
1129(45) 0.000494 721. 1122.
968(42) 0.000567 720. 916.
844(39) 0.000657 720. 811.
772(37) 0.000730 720. 770.
782(37) 0.000730 720. 759.
714(35) 0.000816 719.7 764.5
806(38) 0.000693 720. 791.
880(40) 0.000625 719. 861.
1013(43) 0.000541 719. 1017.
1269(48) 0.000434 719. 1299.
1582(54) 0.0003429 719. 1701.
1935(60) 0.0002778 719. 2114.
2204(64) 0.0002441 718. 2347.
2130(63) 0.0002520 718. 2249.
1812(58) 0.0002973 718. 1869.
1408(51) 0.000384 718. 1419.
1006(42) 0.000567 718. 1071.
797(38) 0.000693 718. 872.
745(36) 0.000772 717. 784.
731(36) 0.000772 717. 751.
714(36) 0.000772 717. 740.
737(36) 0.000772 717. 735.
750(37) 0.000730 717. 735.
772(37) 0.000730 716. 739.
747(36) 0.000772 716. 748.
741(36) 0.000772 716. 763.
739(36) 0.000772 716. 779.
795(38) 0.000693 716. 788.
778(37) 0.000730 715. 783.
854(39) 0.000657 715. 768.
827(38) 0.000693 715. 749.
781(37) 0.000730 715. 734.
757(37) 0.000730 715. 725.
697(35) 0.000816 714.6 721.1
671(34) 0.000865 714.4 719.4
744(36) 0.000772 714. 719.
808(38) 0.000693 714. 719.
794(38) 0.000693 714. 721.
752(37) 0.000730 714. 726.
733(36) 0.000772 713. 735.
741(36) 0.000772 713. 746.
764(37) 0.000730 713. 757.
767(37) 0.000730 713. 761.
797(38) 0.000693 713. 755.
807(38) 0.000693 713. 743.
711(35) 0.000816 712.3 730.3
711(35) 0.000816 712.1 721.4
755(37) 0.000730 712. 717.
721(36) 0.000772 712. 715.
743(36) 0.000772 712. 714.
727(36) 0.000772 711. 713.
709(35) 0.000816 711.2 713.9
753(37) 0.000730 711. 715.
707(35) 0.000816 710.8 717.7
681(35) 0.000816 710.6 722.2
755(37) 0.000730 710. 727.
807(38) 0.000693 710. 730.
797(38) 0.000693 710. 729.
752(37) 0.000730 710. 724.
763(37) 0.000730 710. 719.
696(35) 0.000816 709.5 714.2
721(36) 0.000772 709. 712.
753(37) 0.000730 709. 710.
725(36) 0.000772 709. 710.
686(35) 0.000816 708.7 709.3
738(36) 0.000772 709. 709.
759(37) 0.000730 708. 709.
722(36) 0.000772 708. 709.
732(36) 0.000772 708. 709.
702(35) 0.000816 707.8 708.4
716(36) 0.000772 708. 708.
698(35) 0.000816 707.4 708.1
731(36) 0.000772 707. 708.
709(34) 0.000865 707.0 707.8
703(34) 0.000865 706.8 707.6
725(35) 0.000816 706.6 707.5
686(34) 0.000865 706.4 707.4
683(33) 0.000918 706.3 707.3
686(34) 0.000865 706.1 708.0
720(34) 0.000865 705.9 708.3
749(35) 0.000816 705.7 708.9
736(35) 0.000816 705.5 710.2
707(34) 0.000865 705.3 712.0
729(35) 0.000816 705.1 713.8
725(35) 0.000816 704.9 714.8
751(35) 0.000816 704.7 714.3
712(34) 0.000865 704.5 712.7
691(34) 0.000865 704.4 711.0
711(34) 0.000865 704.2 709.9
685(34) 0.000865 704.0 709.6
691(34) 0.000865 703.8 710.4
748(35) 0.000816 703.6 713.2
698(34) 0.000865 703.4 720.9
678(33) 0.000918 703.2 739.4
816(37) 0.000730 703. 777.
860(38) 0.000693 703. 837.
896(39) 0.000657 703. 910.
940(40) 0.000625 702. 967.
945(40) 0.000625 702. 977.
893(39) 0.000657 702. 931.
848(38) 0.000693 702. 858.
810(37) 0.000730 702. 791.
762(35) 0.000816 701.5 747.9
735(35) 0.000816 701.3 728.1
707(34) 0.000865 701.1 723.2
717(34) 0.000865 700.9 730.5
780(36) 0.000772 701. 755.
845(38) 0.000693 701. 809.
897(39) 0.000657 700. 902.
1039(42) 0.000567 700. 1025.
1083(43) 0.000541 700. 1138.
1083(43) 0.000541 700. 1182.
1066(42) 0.000567 700. 1128.
959(40) 0.000625 699. 1009.
848(38) 0.000693 699. 887.
765(36) 0.000772 699. 802.
736(35) 0.000816 698.8 760.9
758(35) 0.000816 698.6 754.2
795(36) 0.000772 698. 783.
874(38) 0.000693 698. 870.
1089(43) 0.000541 698. 1062.
1424(49) 0.000416 698. 1398.
1953(58) 0.0002973 698. 1849.
2523(66) 0.0002296 698. 2269.
2614(67) 0.0002228 697. 2445.
2415(65) 0.0002367 697. 2257.
1949(58) 0.0002973 697. 1819.
1439(49) 0.000416 697. 1359.
1093(43) 0.000541 697. 1026.
918(39) 0.000657 696. 843.
750(35) 0.000816 696.2 763.2
732(35) 0.000816 696.0 733.4
745(35) 0.000816 695.8 722.4
736(35) 0.000816 695.6 717.4
706(34) 0.000865 695.5 714.4
753(35) 0.000816 695.3 712.5
728(35) 0.000816 695.1 711.2
692(34) 0.000865 694.9 710.4
720(34) 0.000865 694.7 710.1
760(35) 0.000816 694.5 710.4
779(36) 0.000772 694. 712.
727(35) 0.000816 694.1 714.3
755(35) 0.000816 694.0 719.6
775(36) 0.000772 694. 734.
769(36) 0.000772 694. 772.
850(38) 0.000693 693. 861.
1016(41) 0.000595 693. 1032.
1241(46) 0.000473 693. 1290.
1510(51) 0.000384 693. 1578.
1762(55) 0.0003306 693. 1772.
1681(54) 0.0003429 692. 1756.
1416(49) 0.000416 692. 1536.
1172(45) 0.000494 692. 1239.
987(41) 0.000595 692. 989.
869(38) 0.000693 692. 834.
780(36) 0.000772 692. 761.
718(34) 0.000865 691.4 738.4
754(35) 0.000816 691.2 746.1
746(35) 0.000816 691.0 781.5
825(37) 0.000730 691. 846.
914(39) 0.000657 691. 931.
1030(42) 0.000567 690. 1005.
997(41) 0.000595 690. 1029.
911(39) 0.000657 690. 985.
861(38) 0.000693 690. 900.
830(37) 0.000730 690. 815.
739(35) 0.000816 689.6 755.3
755(35) 0.000816 689.4 723.0
772(36) 0.000772 689. 709.
707(34) 0.000865 689.0 703.8
716(34) 0.000865 688.8 701.2
701(34) 0.000865 688.6 700.6
706(34) 0.000865 688.5 700.6
691(26) 0.001479 688.3 700.9
680(31) 0.001041 688.1 701.5
708(32) 0.000977 687.9 702.8
734(32) 0.000977 687.7 704.4
710(32) 0.000977 687.6 707.0
735(32) 0.000977 687.4 711.6
721(32) 0.000977 687.2 721.9
724(32) 0.000977 687.0 748.3
787(34) 0.000865 686.9 815.2
952(37) 0.000730 687. 962.
1146(41) 0.000595 686. 1227.
1562(48) 0.000434 686. 1599.
1937(53) 0.000356 686. 1972.
2071(55) 0.0003306 686. 2172.
1880(53) 0.000356 686. 2073.
1615(49) 0.000416 686. 1733.
1254(43) 0.000541 685. 1337.
1007(38) 0.000693 685. 1029.
880(36) 0.000772 685. 849.
764(33) 0.000918 684.9 769.1
749(33) 0.000918 684.7 749.9
719(32) 0.000977 684.6 768.1
805(34) 0.000865 684.4 815.9
873(36) 0.000772 684. 885.
996(38) 0.000693 684. 953.
1018(38) 0.000693 684. 985.
976(38) 0.000693 684. 959.
885(36) 0.000772 684. 892.
853(35) 0.000816 683.3 818.2
815(34) 0.000865 683.2 764.7
744(33) 0.000918 683.0 740.8
776(33) 0.000918 682.8 749.5
827(35) 0.000816 682.6 801.6
943(37) 0.000730 682. 918.
1105(40) 0.000625 682. 1112.
1401(45) 0.000494 682. 1356.
1652(49) 0.000416 682. 1564.
1597(48) 0.000434 682. 1624.
1490(47) 0.000453 682. 1497.
1286(43) 0.000541 681. 1257.
1028(39) 0.000657 681. 1021.
905(36) 0.000772 681. 856.
794(34) 0.000865 680.9 768.6
755(33) 0.000918 680.8 739.1
738(33) 0.000918 680.6 748.2
836(35) 0.000816 680.4 788.3
869(35) 0.000816 680.2 853.7
958(37) 0.000730 680. 926.
1018(38) 0.000693 680. 974.
999(38) 0.000693 680. 968.
939(37) 0.000730 680. 910.
840(35) 0.000816 679.4 832.6
769(33) 0.000918 679.2 767.3
733(32) 0.000977 679.1 727.3
707(32) 0.000977 678.9 711.5
720(32) 0.000977 678.7 716.0
747(33) 0.000918 678.6 739.9
743(33) 0.000918 678.4 783.7
807(34) 0.000865 678.2 840.0
875(36) 0.000772 678. 888.
864(35) 0.000816 677.9 903.8
905(36) 0.000772 678. 875.
832(35) 0.000816 677.6 819.2
804(34) 0.000865 677.4 762.6
735(32) 0.000977 677.2 721.8
755(33) 0.000918 677.1 698.9
721(32) 0.000977 676.9 688.4
683(31) 0.001041 676.7 684.2
680(31) 0.001041 676.6 682.5
681(31) 0.001041 676.4 681.9
673(31) 0.001041 676.3 681.5
701(32) 0.000977 676.1 681.0
680(31) 0.001041 675.9 680.8
695(32) 0.000977 675.8 680.7
671(31) 0.001041 675.6 680.9
681(31) 0.001041 675.4 681.8
656(31) 0.001041 675.3 684.6
676(31) 0.001041 675.1 692.1
697(32) 0.000977 675.0 709.1
758(33) 0.000918 674.8 740.2
792(34) 0.000865 674.6 784.9
775(33) 0.000918 674.5 832.4
827(35) 0.000816 674.3 862.0
832(35) 0.000816 674.2 855.7
807(34) 0.000865 674.0 817.6
788(34) 0.000865 673.8 768.0
749(33) 0.000918 673.7 726.2
711(32) 0.000977 673.5 699.6
698(32) 0.000977 673.4 686.1
707(32) 0.000977 673.2 680.3
694(32) 0.000977 673.0 678.1
719(32) 0.000977 672.9 677.1
682(31) 0.001041 672.7 676.6
694(32) 0.000977 672.6 676.3
711(32) 0.000977 672.4 676.0
718(32) 0.000977 672.3 675.9
729(32) 0.000977 672.1 676.0
731(32) 0.000977 671.9 676.3
732(32) 0.000977 671.8 677.5
681(31) 0.001041 671.6 680.6
705(30) 0.001111 671.5 687.2
742(31) 0.001041 671.3 699.1
733(31) 0.001041 671.2 715.8
735(31) 0.001041 671.0 733.4
697(30) 0.001111 670.8 744.6
722(30) 0.001111 670.7 742.8
723(30) 0.001111 670.5 729.7
716(30) 0.001111 670.4 713.6
690(30) 0.001111 670.2 702.8
709(30) 0.001111 670.1 704.0
742(31) 0.001041 669.9 725.4
801(32) 0.000977 669.8 778.3
889(34) 0.000865 669.6 871.2
1029(37) 0.000730 669. 997.
1115(38) 0.000693 669. 1118.
1248(40) 0.000625 669. 1179.
1137(39) 0.000657 669. 1142.
1037(37) 0.000730 669. 1030.
898(34) 0.000865 668.7 900.3
831(33) 0.000918 668.6 797.7
760(31) 0.001041 668.4 738.1
722(30) 0.001111 668.3 717.0
766(31) 0.001041 668.1 724.6
754(31) 0.001041 667.9 752.6
752(31) 0.001041 667.8 791.1
758(31) 0.001041 667.6 824.2
787(32) 0.000977 667.5 833.9
781(32) 0.000977 667.3 813.4
754(31) 0.001041 667.2 774.3
716(30) 0.001111 667.0 735.0
691(30) 0.001111 666.9 707.6
682(30) 0.001111 666.8 696.0
682(30) 0.001111 666.6 699.9
746(31) 0.001041 666.5 718.3
722(30) 0.001111 666.3 748.2
815(32) 0.000977 666.2 781.3
809(32) 0.000977 666.0 803.1
755(31) 0.001041 665.9 801.0
745(31) 0.001041 665.7 775.9
692(30) 0.001111 665.6 741.3
710(30) 0.001111 665.4 710.9
682(30) 0.001111 665.3 690.8
650(29) 0.001189 665.1 680.7
652(29) 0.001189 665.0 677.5
694(30) 0.001111 664.8 678.1
672(29) 0.001189 664.7 680.7
726(31) 0.001041 664.5 683.4
658(29) 0.001189 664.4 684.9
670(29) 0.001189 664.3 684.9
666(29) 0.001189 664.1 684.7
681(30) 0.001111 664.0 687.3
766(31) 0.001041 663.8 698.9
760(31) 0.001041 663.7 730.6
816(32) 0.000977 663.5 799.4
951(35) 0.000816 663.4 919.7
1111(38) 0.000693 663. 1086.
1294(41) 0.000595 663. 1257.
1419(43) 0.000541 663. 1359.
1331(42) 0.000567 663. 1334.
1184(39) 0.000657 663. 1196.
988(36) 0.000772 663. 1019.
844(33) 0.000918 662.4 865.1
745(31) 0.001041 662.2 764.4
740(31) 0.001041 662.1 711.3
679(29) 0.001189 662.0 687.9
714(30) 0.001111 661.8 679.0
670(29) 0.001189 661.7 675.5
684(30) 0.001111 661.5 673.8
677(29) 0.001189 661.4 672.5
699(30) 0.001111 661.2 671.1
680(30) 0.001111 661.1 669.8
659(29) 0.001189 661.0 668.7
652(29) 0.001189 660.8 667.9
678(29) 0.001189 660.7 667.3
655(29) 0.001189 660.5 667.3
654(29) 0.001189 660.4 667.2
665(29) 0.001189 660.3 667.3
690(30) 0.001111 660.1 667.5
660(29) 0.001189 660.0 667.9
675(29) 0.001189 659.8 668.6
672(29) 0.001189 659.7 670.2
670(29) 0.001189 659.6 674.0
648(29) 0.001189 659.4 683.3
700(30) 0.001111 659.3 703.9
746(31) 0.001041 659.2 743.2
796(32) 0.000977 659.0 804.4
899(34) 0.000865 658.9 878.9
994(36) 0.000772 659. 943.
1013(36) 0.000772 659. 966.
944(35) 0.000816 658.5 934.8
890(34) 0.000865 658.3 868.3
787(32) 0.000977 658.2 799.2
772(32) 0.000977 658.0 752.5
734(31) 0.001041 657.9 740.0
729(31) 0.001041 657.8 764.7
794(32) 0.000977 657.6 822.7
940(35) 0.000816 657.5 899.7
986(36) 0.000772 657. 968.
886(34) 0.000865 657.2 994.5
900(34) 0.000865 657.1 964.1
841(31) 0.001041 657.0 897.0
775(30) 0.001111 656.8 830.9
762(30) 0.001111 656.7 799.7
804(30) 0.001111 656.5 829.0
903(32) 0.000977 656.4 935.9
1101(36) 0.000772 656. 1121.
1338(39) 0.000657 656. 1349.
1496(42) 0.000567 656. 1543.
1512(42) 0.000567 656. 1607.
1392(40) 0.000625 656. 1504.
1272(38) 0.000693 656. 1291.
1076(35) 0.000816 655.5 1065.9
896(32) 0.000977 655.3 898.0
798(30) 0.001111 655.2 810.5
783(30) 0.001111 655.1 795.0
851(31) 0.001041 654.9 830.1
914(33) 0.000918 654.8 888.4
947(33) 0.000918 654.7 937.7
917(33) 0.000918 654.5 948.3
876(32) 0.000977 654.4 911.9
835(31) 0.001041 654.3 849.3
745(29) 0.001189 654.1 790.8
753(29) 0.001189 654.0 760.4
751(29) 0.001189 653.9 770.9
811(31) 0.001041 653.7 826.8
877(32) 0.000977 653.6 919.6
995(34) 0.000865 653.5 1023.5
1124(36) 0.000772 653. 1096.
1052(35) 0.000816 653.2 1097.3
960(33) 0.000918 653.1 1025.8
836(31) 0.001041 652.9 919.1
775(30) 0.001111 652.8 819.1
747(29) 0.001189 652.7 750.2
690(28) 0.001276 652.5 716.5
695(28) 0.001276 652.4 710.6
718(29) 0.001189 652.3 721.2
719(29) 0.001189 652.1 736.3
734(29) 0.001189 652.0 744.8
775(30) 0.001111 651.9 739.7
739(29) 0.001189 651.7 722.7
707(29) 0.001189 651.6 701.8
681(28) 0.001276 651.5 684.4
684(28) 0.001276 651.3 673.9
688(28) 0.001276 651.2 670.6
675(28) 0.001276 651.1 673.0
656(27) 0.001372 651.0 678.3
703(28) 0.001276 650.8 683.2
690(28) 0.001276 650.7 684.5
659(27) 0.001372 650.6 681.0
679(28) 0.001276 650.4 674.3
650(27) 0.001372 650.3 667.1
640(27) 0.001372 650.2 661.2
695(28) 0.001276 650.0 657.6
661(28) 0.001276 649.9 655.6
667(28) 0.001276 649.8 654.7
663(28) 0.001276 649.7 654.3
675(28) 0.001276 649.5 654.2
671(28) 0.001276 649.4 654.2
710(29) 0.001189 649.3 654.5
696(28) 0.001276 649.1 655.5
673(28) 0.001276 649.0 657.5
621(27) 0.001372 648.9 661.3
665(28) 0.001276 648.7 668.9
695(28) 0.001276 648.6 680.2
699(28) 0.001276 648.5 693.6
696(28) 0.001276 648.4 705.2
698(28) 0.001276 648.2 710.4
694(28) 0.001276 648.1 707.1
693(28) 0.001276 648.0 699.8
685(28) 0.001276 647.8 696.6
711(29) 0.001189 647.7 707.7
728(29) 0.001189 647.6 742.6
800(30) 0.001111 647.5 806.6
909(32) 0.000977 647.3 893.8
1005(34) 0.000865 647.2 981.8
1003(34) 0.000865 647.1 1035.8
970(34) 0.000865 646.9 1027.6
923(33) 0.000918 646.8 961.7
844(31) 0.001041 646.7 871.0
805(30) 0.001111 646.6 788.9
758(30) 0.001111 646.4 733.5
711(29) 0.001189 646.3 707.3
710(29) 0.001189 646.2 703.4
753(29) 0.001189 646.0 711.0
753(29) 0.001189 645.9 720.0
729(29) 0.001189 645.8 722.6
688(28) 0.001276 645.7 717.1
693(28) 0.001276 645.5 709.8
698(28) 0.001276 645.4 711.7
698(28) 0.001276 645.3 735.0
750(29) 0.001189 645.2 790.7
838(31) 0.001041 645.0 881.3
993(34) 0.000865 644.9 993.0
1091(36) 0.000772 645. 1092.
1095(36) 0.000772 645. 1135.
1034(35) 0.000816 644.5 1098.5
954(33) 0.000918 644.4 1001.5
833(31) 0.001041 644.3 887.1
737(29) 0.001189 644.1 789.7
686(28) 0.001276 644.0 723.7
672(26) 0.001479 643.9 686.8
658(26) 0.001479 643.8 669.4
690(26) 0.001479 643.6 662.3
669(26) 0.001479 643.5 660.0
633(25) 0.001600 643.4 660.5
663(26) 0.001479 643.2 664.3
692(26) 0.001479 643.1 674.8
666(26) 0.001479 643.0 698.6
748(28) 0.001276 642.9 743.9
824(29) 0.001189 642.7 816.3
932(31) 0.001041 642.6 910.3
1032(32) 0.000977 642.5 1004.2
1094(33) 0.000918 642.4 1063.3
1105(34) 0.000865 642.2 1058.5
1026(32) 0.000977 642.1 993.3
902(30) 0.001111 642.0 901.7
853(29) 0.001189 641.9 820.3
773(28) 0.001276 641.7 772.3
762(28) 0.001276 641.6 763.6
769(28) 0.001276 641.5 785.9
822(29) 0.001189 641.4 821.3
862(30) 0.001111 641.2 847.9
794(28) 0.001276 641.1 847.4
798(28) 0.001276 641.0 817.5
775(28) 0.001276 640.8 771.6
728(27) 0.001372 640.7 726.2
668(26) 0.001479 640.6 691.2
710(27) 0.001372 640.5 669.1
705(27) 0.001372 640.3 657.2
650(26) 0.001479 640.2 651.6
683(26) 0.001479 640.1 649.1
657(26) 0.001479 640.0 648.1
631(25) 0.001600 639.8 647.8
648(26) 0.001479 639.7 648.2
616(25) 0.001600 639.6 649.8
651(26) 0.001479 639.5 653.2
671(26) 0.001479 639.3 658.8
673(26) 0.001479 639.2 666.5
697(27) 0.001372 639.1 674.7
697(27) 0.001372 639.0 681.1
688(26) 0.001479 638.8 683.6
683(26) 0.001479 638.7 682.8
693(27) 0.001372 638.6 683.8
660(26) 0.001479 638.5 694.2
677(26) 0.001479 638.3 722.1
752(28) 0.001276 638.2 772.4
858(30) 0.001111 638.1 842.0
881(30) 0.001111 638.0 915.3
963(31) 0.001041 637.8 967.5
942(31) 0.001041 637.7 974.4
882(30) 0.001111 637.6 933.7
823(29) 0.001189 637.5 868.9
797(28) 0.001276 637.3 810.4
757(28) 0.001276 637.2 780.3
766(28) 0.001276 637.1 786.7
830(29) 0.001189 637.0 823.1
921(31) 0.001041 636.8 870.8
924(31) 0.001041 636.7 904.7
891(30) 0.001111 636.6 903.9
836(29) 0.001189 636.5 866.1
788(28) 0.001276 636.3 808.8
741(27) 0.001372 636.2 752.7
750(28) 0.001276 636.1 711.2
694(27) 0.001372 636.0 688.0
681(26) 0.001479 635.8 679.6
701(27) 0.001372 635.7 679.1
636(25) 0.001600 635.6 680.2
657(26) 0.001479 635.5 678.6
663(26) 0.001479 635.3 673.0
647(26) 0.001479 635.2 666.7
649(26) 0.001479 635.1 662.8
646(26) 0.001479 635.0 664.1
634(25) 0.001600 634.8 671.0
658(26) 0.001479 634.7 681.7
671(26) 0.001479 634.6 692.3
686(26) 0.001479 634.5 698.0
700(27) 0.001372 634.3 695.5
669(26) 0.001479 634.2 686.6
670(26) 0.001479 634.1 676.1
669(26) 0.001479 634.0 669.2
636(25) 0.001600 633.8 668.9
619(25) 0.001600 633.7 675.4
660(26) 0.001479 633.6 685.9
640(25) 0.001600 633.5 695.8
675(26) 0.001479 633.3 699.7
677(26) 0.001479 633.2 695.3
633(25) 0.001600 633.1 685.4
655(26) 0.001479 633.0 675.2
648(26) 0.001479 632.8 669.8
720(27) 0.001372 632.7 671.5
693(26) 0.001479 632.6 679.9
735(27) 0.001372 632.5 691.4
692(26) 0.001479 632.3 700.4
694(27) 0.001372 632.2 701.7
704(27) 0.001372 632.1 694.0
661(26) 0.001479 632.0 680.6
680(26) 0.001479 631.9 666.3
659(26) 0.001479 631.7 654.5
668(26) 0.001479 631.6 646.4
625(25) 0.001600 631.5 641.9
647(25) 0.001600 631.4 639.7
692(26) 0.001479 631.2 638.9
667(25) 0.001600 631.1 638.8
616(24) 0.001736 631.0 639.2
680(25) 0.001600 630.9 640.1
689(26) 0.001479 630.7 641.6
630(24) 0.001736 630.6 644.1
673(25) 0.001600 630.5 647.4
659(25) 0.001600 630.4 651.4
658(25) 0.001600 630.2 655.5
702(26) 0.001479 630.1 659.9
704(26) 0.001479 630.0 666.3
687(25) 0.001600 629.9 679.3
707(26) 0.001479 629.7 706.2
752(27) 0.001372 629.6 755.6
806(28) 0.001276 629.5 831.8
960(30) 0.001111 629.4 929.1
1053(32) 0.000977 629.2 1028.2
1138(33) 0.000918 629.1 1098.5
1175(34) 0.000865 629.0 1114.1
1078(32) 0.000977 628.9 1076.6
1039(32) 0.000977 628.8 1021.3
998(31) 0.001041 628.6 994.2
1015(31) 0.001041 628.5 1029.9
1111(33) 0.000918 628.4 1137.2
1367(36) 0.000772 628. 1291.
1442(37) 0.000730 628. 1438.
1504(38) 0.000693 628. 1509.
1421(37) 0.000730 628. 1466.
1317(36) 0.000772 628. 1327.
1104(33) 0.000918 627.6 1151.1
987(31) 0.001041 627.5 995.0
906(29) 0.001189 627.4 890.5
898(29) 0.001189 627.3 841.3
871(29) 0.001189 627.2 830.5
829(28) 0.001276 627.0 832.8
853(29) 0.001189 626.9 826.1
828(28) 0.001276 626.8 801.7
754(27) 0.001372 626.7 765.2
744(27) 0.001372 626.5 727.8
744(27) 0.001372 626.4 697.9
724(26) 0.001479 626.3 679.1
693(26) 0.001479 626.2 670.3
663(25) 0.001600 626.0 667.5
702(26) 0.001479 625.9 666.7
689(26) 0.001479 625.8 666.2
667(25) 0.001600 625.7 666.9
643(25) 0.001600 625.6 672.3
689(26) 0.001479 625.4 686.2
706(26) 0.001479 625.3 710.3
733(26) 0.001479 625.2 742.4
787(27) 0.001372 625.1 774.9
820(28) 0.001276 624.9 796.8
750(27) 0.001372 624.8 798.5
772(27) 0.001372 624.7 779.3
757(27) 0.001372 624.6 748.3
691(26) 0.001479 624.4 717.4
713(26) 0.001479 624.3 694.7
669(25) 0.001600 624.2 683.3
686(25) 0.001600 624.1 680.8
684(25) 0.001600 624.0 682.3
654(25) 0.001600 623.8 682.1
678(25) 0.001600 623.7 677.2
715(26) 0.001479 623.6 668.2
675(25) 0.001600 623.5 657.8
657(25) 0.001600 623.3 648.4
652(25) 0.001600 623.2 641.5
617(24) 0.001736 623.1 637.4
598(24) 0.001736 623.0 635.7
607(24) 0.001736 622.9 636.2
647(25) 0.001600 622.7 639.3
645(25) 0.001600 622.6 646.5
652(25) 0.001600 622.5 660.6
683(25) 0.001600 622.4 684.2
713(26) 0.001479 622.2 718.7
771(27) 0.001372 622.1 761.2
795(28) 0.001276 622.0 804.1
871(29) 0.001189 621.9 835.8
888(29) 0.001189 621.8 846.9
887(29) 0.001189 621.6 839.3
817(28) 0.001276 621.5 828.4
809(28) 0.001276 621.4 834.0
873(29) 0.001189 621.3 869.9
943(30) 0.001111 621.2 936.8
1014(31) 0.001041 621.0 1019.2
1154(33) 0.000918 620.9 1088.2
1127(33) 0.000918 620.8 1112.1
1107(33) 0.000918 620.7 1076.1
968(30) 0.001111 620.5 993.9
882(29) 0.001189 620.4 895.5
821(28) 0.001276 620.3 806.1
717(26) 0.001479 620.2 739.2
721(26) 0.001479 620.1 697.0
649(25) 0.001600 619.9 673.9
687(25) 0.001600 619.8 661.7
660(25) 0.001600 619.7 654.1
635(24) 0.001736 619.6 648.1
615(24) 0.001736 619.5 643.2
665(25) 0.001600 619.3 639.9
669(25) 0.001600 619.2 638.1
642(24) 0.001736 619.1 637.9
645(24) 0.001736 619.0 638.7
633(24) 0.001736 618.9 640.3
652(24) 0.001736 618.7 643.0
637(24) 0.001736 618.6 648.6
677(25) 0.001600 618.5 659.4
697(25) 0.001600 618.4 678.0
719(25) 0.001600 618.3 704.7
718(25) 0.001600 618.1 736.3
741(26) 0.001479 618.0 765.9
795(27) 0.001372 617.9 784.0
795(27) 0.001372 617.8 783.6
803(27) 0.001372 617.7 765.9
737(26) 0.001479 617.5 739.8
762(26) 0.001479 617.4 715.4
748(26) 0.001479 617.3 699.2
708(25) 0.001600 617.2 693.2
693(25) 0.001600 617.1 694.7
732(26) 0.001479 616.9 699.3
740(26) 0.001479 616.8 703.7
725(25) 0.001600 616.7 709.5
698(25) 0.001600 616.6 722.9
682(25) 0.001600 616.5 751.6
766(26) 0.001479 616.3 799.5
878(28) 0.001276 616.2 862.5
932(29) 0.001189 616.1 927.6
964(29) 0.001189 616.0 974.1
900(28) 0.001276 615.9 982.6
875(28) 0.001276 615.8 948.1
865(28) 0.001276 615.6 884.1
817(27) 0.001372 615.5 811.1
760(26) 0.001479 615.4 745.7
678(25) 0.001600 615.3 696.6
664(24) 0.001736 615.2 665.0
635(24) 0.001736 615.0 647.9
655(24) 0.001736 614.9 641.3
656(24) 0.001736 614.8 642.7
658(24) 0.001736 614.7 651.5
654(24) 0.001736 614.6 668.4
676(25) 0.001600 614.5 693.7
717(25) 0.001600 614.3 725.4
751(26) 0.001479 614.2 758.2
803(27) 0.001372 614.1 784.0
815(27) 0.001372 614.0 794.7
759(26) 0.001479 613.9 788.2
802(27) 0.001372 613.8 771.0
764(26) 0.001479 613.6 754.0
733(26) 0.001479 613.5 746.0
780(26) 0.001479 613.4 750.4
813(27) 0.001372 613.3 764.5
814(27) 0.001372 613.2 781.2
813(27) 0.001372 613.1 793.6
821(27) 0.001372 612.9 801.4
777(26) 0.001479 612.8 813.3
831(27) 0.001372 612.7 842.7
945(29) 0.001189 612.6 898.9
962(29) 0.001189 612.5 980.2
1122(32) 0.000977 612.4 1071.2
1189(33) 0.000918 612.2 1145.0
1211(33) 0.000918 612.1 1172.3
1157(32) 0.000977 612.0 1140.1
1061(31) 0.001041 611.9 1062.8
1017(30) 0.001111 611.8 969.3
934(29) 0.001189 611.7 886.0
810(27) 0.001372 611.5 827.2
822(27) 0.001372 611.4 794.1
758(26) 0.001479 611.3 777.6
739(26) 0.001479 611.2 764.9
768(26) 0.001479 611.1 747.2
714(25) 0.001600 611.0 723.1
689(25) 0.001600 610.9 696.3
683(25) 0.001600 610.7 671.5
668(24) 0.001736 610.6 651.6
615(23) 0.001890 610.5 637.8
630(24) 0.001736 610.4 629.1
618(23) 0.001890 610.3 624.2
637(24) 0.001736 610.2 621.7
616(23) 0.001890 610.1 620.7
649(24) 0.001736 609.9 620.4
633(24) 0.001736 609.8 620.5
611(23) 0.001890 609.7 621.3
603(23) 0.001890 609.6 622.6
645(24) 0.001736 609.5 625.1
630(24) 0.001736 609.4 629.6
635(24) 0.001736 609.3 637.9
615(23) 0.001890 609.1 652.3
646(24) 0.001736 609.0 674.9
713(25) 0.001600 608.9 706.0
781(26) 0.001479 608.8 742.8
829(27) 0.001372 608.7 778.7
801(27) 0.001372 608.6 804.1
791(27) 0.001372 608.5 810.3
743(26) 0.001479 608.4 794.6
747(26) 0.001479 608.2 762.9
723(25) 0.001600 608.1 725.1
674(24) 0.001736 608.0 689.5
689(25) 0.001600 607.9 661.4
642(24) 0.001736 607.8 642.2
642(24) 0.001736 607.7 630.9
645(24) 0.001736 607.6 625.8
634(33) 0.000918 607.5 625.1
618(23) 0.001890 607.3 627.8
642(23) 0.001890 607.2 633.4
677(24) 0.001736 607.1 641.6
681(24) 0.001736 607.0 651.6
690(24) 0.001736 606.9 662.5
704(24) 0.001736 606.8 673.7
708(24) 0.001736 606.7 686.5
722(24) 0.001736 606.6 704.5
747(25) 0.001600 606.5 733.3
788(26) 0.001479 606.4 777.6
836(26) 0.001479 606.2 836.6
873(27) 0.001372 606.1 903.0
891(27) 0.001372 606.0 962.2
956(28) 0.001276 605.9 996.0
945(28) 0.001276 605.8 991.6
921(28) 0.001276 605.7 950.9
862(27) 0.001372 605.6 889.3
846(27) 0.001372 605.5 824.6
755(25) 0.001600 605.4 769.8
761(25) 0.001600 605.3 730.8
716(24) 0.001736 605.1 706.5
691(24) 0.001736 605.0 692.2
705(24) 0.001736 604.9 682.9
672(24) 0.001736 604.8 676.2
646(23) 0.001890 604.7 672.6
670(24) 0.001736 604.6 673.1
688(24) 0.001736 604.5 677.5
712(24) 0.001736 604.4 684.9
713(24) 0.001736 604.3 691.9
718(24) 0.001736 604.2 695.4
707(24) 0.001736 604.1 693.9
718(24) 0.001736 604.0 689.5
680(24) 0.001736 603.8 685.6
686(24) 0.001736 603.7 685.2
710(24) 0.001736 603.6 689.3
710(24) 0.001736 603.5 697.0
704(24) 0.001736 603.4 705.7
708(24) 0.001736 603.3 713.1
728(25) 0.001600 603.2 720.2
736(25) 0.001600 603.1 730.9
766(25) 0.001600 603.0 749.8
781(25) 0.001600 602.9 778.7
834(26) 0.001479 602.8 814.2
877(27) 0.001372 602.7 848.1
859(27) 0.001372 602.6 868.6
872(27) 0.001372 602.5 866.4
816(26) 0.001479 602.4 840.1
823(26) 0.001479 602.3 797.6
787(26) 0.001479 602.1 750.0
701(24) 0.001736 602.0 706.1
650(23) 0.001890 601.9 671.3
643(23) 0.001890 601.8 646.9
643(23) 0.001890 601.7 631.4
635(23) 0.001890 601.6 622.3
606(22) 0.002066 601.5 617.1
635(23) 0.001890 601.4 614.1
617(23) 0.001890 601.3 612.3
597(22) 0.002066 601.2 611.3
631(23) 0.001890 601.1 611.0
614(23) 0.001890 601.0 611.7
600(22) 0.002066 600.9 613.7
618(23) 0.001890 600.8 617.7
632(23) 0.001890 600.7 624.2
652(23) 0.001890 600.6 633.8
659(23) 0.001890 600.5 646.3
663(23) 0.001890 600.4 660.5
679(24) 0.001736 600.3 674.7
722(24) 0.001736 600.2 687.0
698(24) 0.001736 600.1 695.9
677(24) 0.001736 600.0 702.9
677(24) 0.001736 599.9 711.5
726(25) 0.001600 599.8 725.2
771(25) 0.001600 599.7 745.3
778(25) 0.001600 599.6 769.5
811(26) 0.001479 599.5 792.1
833(26) 0.001479 599.4 806.0
801(26) 0.001479 599.3 806.4
787(26) 0.001479 599.2 794.8
774(25) 0.001600 599.1 777.8
754(25) 0.001600 599.0 762.4
743(25) 0.001600 598.9 753.3
743(25) 0.001600 598.8 750.9
757(25) 0.001600 598.7 751.9
755(25) 0.001600 598.6 752.2
731(25) 0.001600 598.5 749.3
726(25) 0.001600 598.4 744.7
735(25) 0.001600 598.3 742.4
757(25) 0.001600 598.2 745.4
753(25) 0.001600 598.1 754.0
764(25) 0.001600 598.0 765.4
776(25) 0.001600 597.9 774.1
783(26) 0.001479 597.8 775.4
783(26) 0.001479 597.7 768.3
743(25) 0.001600 597.6 756.7
755(25) 0.001600 597.5 746.0
757(25) 0.001600 597.4 739.7
775(25) 0.001600 597.3 738.5
730(25) 0.001600 597.2 739.5
736(25) 0.001600 597.1 738.1
736(25) 0.001600 597.0 730.5
713(24) 0.001736 596.9 716.5
713(24) 0.001736 596.8 698.8
677(24) 0.001736 596.7 681.4
684(24) 0.001736 596.6 666.8
668(24) 0.001736 596.5 656.2
630(23) 0.001890 596.4 649.2
638(23) 0.001890 596.3 644.4
679(24) 0.001736 596.2 640.9
620(23) 0.001890 596.1 638.3
643(23) 0.001890 596.0 637.0
665(24) 0.001736 595.9 637.6
671(24) 0.001736 595.8 639.3
667(24) 0.001736 595.7 641.1
659(23) 0.001890 595.6 641.8
657(23) 0.001890 595.5 639.9
654(23) 0.001890 595.4 635.4
641(23) 0.001890 595.3 629.1
645(23) 0.001890 595.2 622.1
626(23) 0.001890 595.1 615.6
627(23) 0.001890 595.0 610.3
594(22) 0.002066 595.0 606.4
638(23) 0.001890 594.9 603.8
634(23) 0.001890 594.8 602.4
584(22) 0.002066 594.7 601.7
604(22) 0.002066 594.6 601.5
631(23) 0.001890 594.5 601.9
592(22) 0.002066 594.4 602.8
590(22) 0.002066 594.3 604.8
613(23) 0.001890 594.2 608.4
582(22) 0.002066 594.1 614.3
630(23) 0.001890 594.0 623.8
643(23) 0.001890 593.9 637.2
626(23) 0.001890 593.8 654.7
672(24) 0.001736 593.7 675.2
725(25) 0.001600 593.6 696.5
738(25) 0.001600 593.5 716.0
730(25) 0.001600 593.5 731.4
746(25) 0.001600 593.4 742.4
734(25) 0.001600 593.3 751.7
735(25) 0.001600 593.2 763.2
811(26) 0.001479 593.1 779.5
828(26) 0.001479 593.0 799.8
851(27) 0.001372 592.9 819.8
778(26) 0.001479 592.8 832.9
858(27) 0.001372 592.7 833.0
846(27) 0.001372 592.6 818.5
762(25) 0.001600 592.5 793.9
779(26) 0.001479 592.4 765.7
703(24) 0.001736 592.4 739.7
701(24) 0.001736 592.3 718.9
682(24) 0.001736 592.2 703.8
669(24) 0.001736 592.1 692.4
628(23) 0.001890 592.0 682.6
594(22) 0.002066 591.9 673.6
627(23) 0.001890 591.8 665.8
658(23) 0.001890 591.7 659.8
672(24) 0.001736 591.6 655.9
616(23) 0.001890 591.5 653.5
650(23) 0.001890 591.5 651.4
675(24) 0.001736 591.4 648.1
604(22) 0.002066 591.3 643.0
619(23) 0.001890 591.2 636.6
627(23) 0.001890 591.1 629.8
616(23) 0.001890 591.0 623.8
626(23) 0.001890 590.9 619.3
614(23) 0.001890 590.8 616.6
579(22) 0.002066 590.7 616.0
592(22) 0.002066 590.7 617.5
641(23) 0.001890 590.6 621.0
668(24) 0.001736 590.5 626.8
651(23) 0.001890 590.4 634.1
624(23) 0.001890 590.3 642.1
649(23) 0.001890 590.2 649.2
653(23) 0.001890 590.1 653.6
656(23) 0.001890 590.0 653.9
644(23) 0.001890 590.0 649.7
630(23) 0.001890 589.9 642.4
632(23) 0.001890 589.8 633.4
615(23) 0.001890 589.7 624.7
595(22) 0.002066 589.6 617.4
607(23) 0.001890 589.5 612.2
601(22) 0.002066 589.4 609.4
624(23) 0.001890 589.3 609.0
617(23) 0.001890 589.3 610.8
598(22) 0.002066 589.2 615.0
589(22) 0.002066 589.1 621.9
622(23) 0.001890 589.0 632.8
620(23) 0.001890 588.9 649.8
624(23) 0.001890 588.8 676.0
723(25) 0.001600 588.7 715.1
763(25) 0.001600 588.7 770.9
891(27) 0.001372 588.6 845.2
967(28) 0.001276 588.5 935.3
1011(29) 0.001189 588.4 1033.1
1150(31) 0.001041 588.3 1125.0
1243(32) 0.000977 588.2 1193.7
1224(32) 0.000977 588.2 1223.3
1224(32) 0.000977 588.1 1207.9
1164(31) 0.001041 588.0 1155.6
1083(24) 0.001736 587.9 1083.1
1048(30) 0.001111 587.8 1006.9
958(28) 0.001276 587.7 938.6
850(27) 0.001372 587.6 882.9
839(26) 0.001479 587.6 838.9
759(25) 0.001600 587.5 802.5
739(25) 0.001600 587.4 770.7
732(25) 0.001600 587.3 742.4
666(24) 0.001736 587.2 718.0
678(24) 0.001736 587.1 697.9
688(24) 0.001736 587.1 682.0
655(23) 0.001890 587.0 669.4
663(24) 0.001736 586.9 658.6
638(23) 0.001890 586.8 648.6
617(23) 0.001890 586.7 638.8
653(23) 0.001890 586.6 629.8
644(23) 0.001890 586.6 622.1
648(23) 0.001890 586.5 616.7
613(23) 0.001890 586.4 614.2
587(22) 0.002066 586.3 615.3
607(23) 0.001890 586.2 620.5
630(23) 0.001890 586.2 630.0
669(24) 0.001736 586.1 643.2
667(24) 0.001736 586.0 659.2
648(23) 0.001890 585.9 675.7
699(24) 0.001736 585.8 690.3
721(25) 0.001600 585.7 699.9
746(25) 0.001600 585.7 702.6
692(24) 0.001736 585.6 698.3
702(24) 0.001736 585.5 688.9
702(24) 0.001736 585.4 677.1
663(24) 0.001736 585.3 665.5
645(23) 0.001890 585.3 655.1
620(23) 0.001890 585.2 646.4
634(23) 0.001890 585.1 638.6
653(23) 0.001890 585.0 631.2
608(23) 0.001890 584.9 624.1
637(23) 0.001890 584.9 617.1
641(23) 0.001890 584.8 610.8
588(22) 0.002066 584.7 605.6
573(22) 0.002066 584.6 601.8
619(23) 0.001890 584.5 599.6
570(22) 0.002066 584.5 599.1
617(23) 0.001890 584.4 600.2
607(23) 0.001890 584.3 602.8
636(23) 0.001890 584.2 606.5
621(23) 0.001890 584.1 611.2
617(23) 0.001890 584.1 616.6
619(23) 0.001890 584.0 622.7
603(22) 0.002066 583.9 629.4
613(23) 0.001890 583.8 637.2
595(22) 0.002066 583.7 646.4
658(23) 0.001890 583.7 657.2
666(24) 0.001736 583.6 668.9
715(24) 0.001736 583.5 680.3
692(24) 0.001736 583.4 689.6
699(24) 0.001736 583.3 694.8
698(24) 0.001736 583.3 695.3
711(24) 0.001736 583.2 692.0
719(24) 0.001736 583.1 686.9
710(24) 0.001736 583.0 682.0
716(24) 0.001736 582.9 678.5
683(24) 0.001736 582.9 676.9
682(24) 0.001736 582.8 677.0
682(24) 0.001736 582.7 678.7
671(24) 0.001736 582.6 681.9
692(24) 0.001736 582.6 687.2
660(23) 0.001890 582.5 694.8
697(24) 0.001736 582.4 704.0
734(25) 0.001600 582.3 713.7
743(25) 0.001600 582.2 722.2
714(24) 0.001736 582.2 727.9
706(24) 0.001736 582.1 730.6
725(25) 0.001600 582.0 731.7
715(24) 0.001736 581.9 732.6
708(24) 0.001736 581.8 734.0
752(25) 0.001600 581.8 735.2
767(25) 0.001600 581.7 734.5
723(25) 0.001600 581.6 729.4
699(24) 0.001736 581.5 718.7
674(24) 0.001736 581.5 702.9
645(23) 0.001890 581.4 684.3
656(23) 0.001890 581.3 665.1
656(23) 0.001890 581.2 647.4
625(23) 0.001890 581.2 633.3
663(24) 0.001736 581.1 623.0
636(23) 0.001890 581.0 616.9
648(23) 0.001890 580.9 614.3
620(23) 0.001890 580.8 614.7
574(22) 0.002066 580.8 617.1
639(23) 0.001890 580.7 620.4
624(23) 0.001890 580.6 623.6
612(23) 0.001890 580.5 625.5
626(23) 0.001890 580.5 625.4
610(23) 0.001890 580.4 623.2
608(23) 0.001890 580.3 619.3
627(23) 0.001890 580.2 614.9
649(23) 0.001890 580.1 610.8
633(23) 0.001890 580.1 608.2
600(22) 0.002066 580.0 607.8
574(30) 0.001111 579.9 610.3
631(22) 0.002066 579.8 616.0
647(22) 0.002066 579.8 625.0
635(22) 0.002066 579.7 636.8
658(23) 0.001890 579.6 650.8
651(22) 0.002066 579.5 666.0
705(23) 0.001890 579.5 681.5
680(23) 0.001890 579.4 696.3
683(23) 0.001890 579.3 710.4
704(23) 0.001890 579.2 724.5
716(24) 0.001736 579.2 739.8
707(23) 0.001890 579.1 757.1
747(24) 0.001736 579.0 776.3
738(24) 0.001736 578.9 796.3
743(24) 0.001736 578.8 815.8
787(25) 0.001600 578.8 833.5
821(25) 0.001600 578.7 849.8
834(26) 0.001479 578.6 866.2
867(26) 0.001479 578.5 883.2
899(26) 0.001479 578.5 899.9
900(27) 0.001372 578.4 912.7
894(26) 0.001479 578.3 916.9
896(26) 0.001479 578.2 907.7
874(26) 0.001479 578.2 883.7
874(26) 0.001479 578.1 847.3
794(25) 0.001600 578.0 803.6
777(25) 0.001600 577.9 758.2
745(24) 0.001736 577.9 715.9
691(23) 0.001890 577.8 679.6
679(23) 0.001890 577.7 650.9
593(21) 0.002268 577.6 629.7
626(22) 0.002066 577.5 615.1
584(21) 0.002268 577.5 605.8
618(22) 0.002066 577.4 600.3
594(21) 0.002268 577.3 597.7
606(22) 0.002066 577.2 597.5
608(22) 0.002066 577.2 599.0
596(22) 0.002066 577.1 602.2
580(21) 0.002268 577.0 607.2
587(21) 0.002268 576.9 613.9
607(22) 0.002066 576.9 622.3
614(22) 0.002066 576.8 632.3
619(22) 0.002066 576.7 643.8
664(23) 0.001890 576.6 656.7
621(22) 0.002066 576.6 671.1
700(23) 0.001890 576.5 687.0
717(24) 0.001736 576.4 704.6
683(23) 0.001890 576.3 723.2
734(24) 0.001736 576.2 741.4
738(24) 0.001736 576.2 756.5
707(23) 0.001890 576.1 765.5
752(24) 0.001736 576.0 766.0
748(24) 0.001736 575.9 757.3
743(24) 0.001736 575.9 741.1
722(24) 0.001736 575.8 721.0
669(23) 0.001890 575.7 701.1
671(23) 0.001890 575.6 685.4
628(22) 0.002066 575.6 676.9
643(22) 0.002066 575.5 677.9
676(23) 0.001890 575.4 689.2
727(24) 0.001736 575.3 710.1
728(24) 0.001736 575.3 738.5
762(24) 0.001736 575.2 770.8
834(25) 0.001600 575.1 802.1
901(27) 0.001372 575.0 827.1
872(26) 0.001479 574.9 840.8
859(26) 0.001479 574.9 840.2
894(26) 0.001479 574.8 826.0
843(26) 0.001479 574.7 801.8
815(25) 0.001600 574.6 772.7
769(24) 0.001736 574.6 743.6
726(24) 0.001736 574.5 718.3
719(24) 0.001736 574.4 699.6
717(24) 0.001736 574.3 688.6
675(23) 0.001890 574.2 685.6
734(24) 0.001736 574.2 689.8
707(23) 0.001890 574.1 699.8
724(24) 0.001736 574.0 713.7
746(24) 0.001736 573.9 729.3
769(24) 0.001736 573.9 744.6
774(25) 0.001600 573.8 758.0
782(25) 0.001600 573.7 768.8
799(25) 0.001600 573.6 777.6
826(25) 0.001600 573.6 785.2
806(25) 0.001600 573.5 791.7
766(24) 0.001736 573.4 796.6
793(25) 0.001600 573.3 798.2
800(25) 0.001600 573.2 794.7
773(25) 0.001600 573.2 785.4
766(24) 0.001736 573.1 770.9
796(25) 0.001600 573.0 753.5
780(25) 0.001600 572.9 735.4
714(24) 0.001736 572.8 718.6
722(24) 0.001736 572.8 704.5
661(23) 0.001890 572.7 693.7
675(23) 0.001890 572.6 686.4
724(24) 0.001736 572.5 682.2
694(23) 0.001890 572.5 680.9
703(23) 0.001890 572.4 681.6
733(24) 0.001736 572.3 683.4
700(23) 0.001890 572.2 684.9
715(24) 0.001736 572.1 684.5
688(23) 0.001890 572.1 681.5
674(23) 0.001890 572.0 675.5
650(22) 0.002066 571.9 667.3
685(23) 0.001890 571.8 657.7
617(22) 0.002066 571.7 647.8
645(22) 0.002066 571.7 638.2
600(21) 0.002268 571.6 629.4
610(22) 0.002066 571.5 621.3
609(22) 0.002066 571.4 614.1
630(22) 0.002066 571.4 607.6
604(22) 0.002066 571.3 602.0
619(22) 0.002066 571.2 597.2
618(22) 0.002066 571.1 593.4
614(22) 0.002066 571.0 590.5
584(21) 0.002268 571.0 588.7
564(21) 0.002268 570.9 588.1
595(21) 0.002268 570.8 588.9
558(21) 0.002268 570.7 591.4
607(22) 0.002066 570.6 596.3
613(22) 0.002066 570.6 604.0
610(22) 0.002066 570.5 615.4
640(22) 0.002066 570.4 631.1
609(22) 0.002066 570.3 651.5
714(24) 0.001736 570.2 676.4
768(24) 0.001736 570.1 705.3
767(24) 0.001736 570.1 736.7
773(25) 0.001600 570.0 768.6
762(24) 0.001736 569.9 798.6
858(26) 0.001479 569.8 824.5
857(26) 0.001479 569.7 844.7
880(26) 0.001479 569.7 859.3
879(26) 0.001479 569.6 869.5
908(27) 0.001372 569.5 876.5
917(27) 0.001372 569.4 880.5
849(26) 0.001479 569.3 881.1
900(26) 0.001479 569.3 876.6
856(26) 0.001479 569.2 865.8
844(26) 0.001479 569.1 848.5
798(25) 0.001600 569.0 826.3
815(25) 0.001600 568.9 801.3
766(24) 0.001736 568.8 775.6
786(25) 0.001600 568.8 750.8
705(23) 0.001890 568.7 727.4
727(24) 0.001736 568.6 705.9
665(23) 0.001890 568.5 686.1
649(22) 0.002066 568.4 668.6
649(22) 0.002066 568.3 653.7
689(23) 0.001890 568.3 642.0
669(23) 0.001890 568.2 634.2
592(21) 0.002268 568.1 630.6
625(22) 0.002066 568.0 631.5
610(22) 0.002066 567.9 636.8
647(22) 0.002066 567.8 645.9
664(23) 0.001890 567.8 657.8
691(23) 0.001890 567.7 670.8
698(23) 0.001890 567.6 683.0
691(23) 0.001890 567.5 692.5
656(23) 0.001890 567.4 697.5
681(23) 0.001890 567.3 697.0
651(22) 0.002066 567.3 691.1
675(23) 0.001890 567.2 681.2
646(22) 0.002066 567.1 668.8
645(22) 0.002066 567.0 655.5
611(22) 0.002066 566.9 642.5
609(22) 0.002066 566.8 630.8
593(21) 0.002268 566.8 620.9
597(21) 0.002268 566.7 613.2
589(21) 0.002268 566.6 608.0
595(21) 0.002268 566.5 605.6
635(22) 0.002066 566.4 606.2
626(22) 0.002066 566.3 610.2
600(22) 0.002066 566.2 617.8
620(22) 0.002066 566.2 629.2
652(22) 0.002066 566.1 643.9
665(23) 0.001890 566.0 661.4
717(24) 0.001736 565.9 680.6
718(24) 0.001736 565.8 699.9
739(24) 0.001736 565.7 717.4
694(23) 0.001890 565.6 731.2
698(23) 0.001890 565.6 740.0
780(25) 0.001600 565.5 743.5
736(24) 0.001736 565.4 742.7
710(23) 0.001890 565.3 739.7
744(24) 0.001736 565.2 736.6
747(24) 0.001736 565.1 735.6
772(24) 0.001736 565.0 737.9
725(24) 0.001736 564.9 744.6
755(24) 0.001736 564.9 755.6
774(25) 0.001600 564.8 770.7
758(24) 0.001736 564.7 788.5
793(25) 0.001600 564.6 807.1
775(25) 0.001600 564.5 823.7
777(25) 0.001600 564.4 835.2
817(25) 0.001600 564.3 838.9
797(25) 0.001600 564.2 833.5
815(25) 0.001600 564.2 819.6
809(25) 0.001600 564.1 800.1
802(25) 0.001600 564.0 778.6
735(24) 0.001736 563.9 759.1
741(25) 0.001600 563.8 744.9
724(25) 0.001600 563.7 738.6
747(25) 0.001600 563.6 741.2
766(25) 0.001600 563.5 752.8
753(25) 0.001600 563.4 771.6
794(26) 0.001479 563.4 795.1
768(25) 0.001600 563.3 819.3
841(27) 0.001372 563.2 840.2
921(28) 0.001276 563.1 853.5
915(28) 0.001276 563.0 856.3
870(27) 0.001372 562.9 847.8
832(26) 0.001479 562.8 829.4
819(26) 0.001479 562.7 804.2
771(25) 0.001600 562.6 775.7
785(26) 0.001479 562.5 747.2
757(25) 0.001600 562.5 721.1
704(24) 0.001736 562.4 699.3
695(24) 0.001736 562.3 682.2
670(24) 0.001736 562.2 670.1
599(22) 0.002066 562.1 662.3
648(23) 0.001890 562.0 657.7
646(23) 0.001890 561.9 655.0
630(23) 0.001890 561.8 652.7
630(23) 0.001890 561.7 649.9
640(23) 0.001890 561.6 645.7
619(23) 0.001890 561.5 640.0
619(23) 0.001890 561.5 633.6
639(23) 0.001890 561.4 627.2
647(23) 0.001890 561.3 621.6
637(23) 0.001890 561.2 617.7
586(22) 0.002066 561.1 616.0
593(22) 0.002066 561.0 616.8
635(23) 0.001890 560.9 620.0
619(23) 0.001890 560.8 625.5
652(23) 0.001890 560.7 632.5
646(23) 0.001890 560.6 640.2
621(23) 0.001890 560.5 647.8
648(23) 0.001890 560.4 654.3
647(23) 0.001890 560.3 659.3
663(24) 0.001736 560.2 662.4
678(24) 0.001736 560.2 664.3
656(23) 0.001890 560.1 665.5
661(24) 0.001736 560.0 666.6
690(24) 0.001736 559.9 668.2
656(23) 0.001890 559.8 670.8
644(23) 0.001890 559.7 674.7
680(24) 0.001736 559.6 680.2
644(23) 0.001890 559.5 688.0
658(23) 0.001890 559.4 698.3
703(24) 0.001736 559.3 711.6
677(24) 0.001736 559.2 727.8
693(24) 0.001736 559.1 746.7
757(25) 0.001600 559.0 768.0
798(26) 0.001479 558.9 790.9
846(27) 0.001372 558.8 814.6
883(27) 0.001372 558.7 837.9
878(27) 0.001372 558.6 859.3
908(28) 0.001276 558.5 876.6
844(27) 0.001372 558.5 887.2
854(27) 0.001372 558.4 889.0
872(27) 0.001372 558.3 881.1
825(26) 0.001479 558.2 864.2
867(27) 0.001372 558.1 841.0
850(27) 0.001372 558.0 814.8
836(26) 0.001479 557.9 789.0
781(26) 0.001479 557.8 766.6
740(25) 0.001600 557.7 749.8
729(25) 0.001600 557.6 739.8
751(25) 0.001600 557.5 736.7
788(26) 0.001479 557.4 739.8
771(25) 0.001600 557.3 747.4
786(26) 0.001479 557.2 757.2
753(25) 0.001600 557.1 766.4
792(26) 0.001479 557.0 772.5
772(25) 0.001600 556.9 773.5
832(26) 0.001479 556.8 768.6
787(26) 0.001479 556.7 758.2
764(25) 0.001600 556.6 743.4
746(25) 0.001600 556.5 725.8
743(25) 0.001600 556.4 706.9
676(24) 0.001736 556.3 687.8
688(24) 0.001736 556.2 669.5
657(23) 0.001890 556.1 652.5
649(23) 0.001890 556.0 637.2
609(23) 0.001890 555.9 624.1
593(22) 0.002066 555.8 613.1
565(22) 0.002066 555.7 604.4
631(23) 0.001890 555.6 597.9
626(23) 0.001890 555.5 593.5
604(22) 0.002066 555.4 591.1
605(22) 0.002066 555.3 590.6
578(22) 0.002066 555.2 591.8
621(23) 0.001890 555.1 594.5
612(23) 0.001890 555.0 598.5
606(23) 0.001890 554.9 603.5
597(22) 0.002066 554.8 609.4
633(23) 0.001890 554.7 615.8
618(23) 0.001890 554.6 622.7
598(22) 0.002066 554.5 629.7
601(23) 0.001890 554.4 636.6
619(23) 0.001890 554.3 643.2
649(24) 0.001736 554.2 649.1
639(23) 0.001890 554.1 654.1
656(24) 0.001736 554.0 658.1
678(24) 0.001736 553.9 661.4
645(24) 0.001736 553.8 664.8
633(23) 0.001890 553.7 669.3
670(24) 0.001736 553.6 675.9
687(24) 0.001736 553.5 685.6
682(24) 0.001736 553.4 698.9
716(25) 0.001600 553.3 716.1
759(26) 0.001479 553.2 737.0
763(26) 0.001479 553.1 760.7
771(26) 0.001479 553.0 786.1
843(27) 0.001372 552.9 811.1
878(28) 0.001276 552.8 833.8
848(27) 0.001372 552.7 851.6
890(28) 0.001276 552.6 862.5
839(27) 0.001372 552.5 865.6
858(27) 0.001372 552.4 861.0
868(27) 0.001372 552.3 850.3
890(28) 0.001276 552.2 835.4
869(27) 0.001372 552.1 818.7
840(27) 0.001372 552.0 801.8
790(26) 0.001479 551.9 786.1
779(26) 0.001479 551.8 772.5
790(26) 0.001479 551.7 761.5
795(26) 0.001479 551.6 753.2
730(25) 0.001600 551.5 747.4
725(25) 0.001600 551.4 743.5
718(25) 0.001600 551.3 740.6
767(26) 0.001479 551.2 737.5
751(25) 0.001600 551.1 733.4
724(25) 0.001600 551.0 727.8
725(25) 0.001600 550.9 720.5
746(25) 0.001600 550.8 711.7
710(25) 0.001600 550.7 701.8
684(24) 0.001736 550.6 691.1
734(25) 0.001600 550.5 679.8
702(25) 0.001600 550.4 667.9
644(24) 0.001736 550.3 655.5
644(24) 0.001736 550.2 643.1
669(24) 0.001736 550.1 631.0
608(23) 0.001890 550.0 619.5
620(23) 0.001890 549.9 609.0
634(23) 0.001890 549.8 600.0
585(22) 0.002066 549.7 592.4
564(22) 0.002066 549.6 586.4
565(22) 0.002066 549.5 582.3
567(22) 0.002066 549.4 579.7
571(22) 0.002066 549.3 578.8
557(22) 0.002066 549.2 579.4
582(22) 0.002066 549.1 581.6
582(22) 0.002066 549.0 585.1
570(22) 0.002066 548.9 590.0
561(22) 0.002066 548.8 596.1
549(22) 0.002066 548.7 603.4
579(22) 0.002066 548.6 611.8
609(23) 0.001890 548.5 621.2
602(23) 0.001890 548.4 631.3
604(23) 0.001890 548.3 641.9
677(24) 0.001736 548.2 652.7
637(23) 0.001890 548.1 663.3
632(23) 0.001890 547.9 673.7
685(24) 0.001736 547.8 683.3
698(25) 0.001600 547.7 691.9
697(25) 0.001600 547.6 699.1
720(25) 0.001600 547.5 704.1
733(25) 0.001600 547.4 706.6
723(25) 0.001600 547.3 706.1
700(25) 0.001600 547.2 702.9
708(25) 0.001600 547.1 697.2
672(24) 0.001736 547.0 689.6
664(24) 0.001736 546.9 680.8
647(24) 0.001736 546.8 671.2
691(24) 0.001736 546.7 661.2
655(24) 0.001736 546.6 651.2
639(23) 0.001890 546.5 641.7
667(24) 0.001736 546.4 633.2
584(22) 0.002066 546.3 626.2
599(23) 0.001890 546.2 621.1
629(23) 0.001890 546.1 618.3
604(23) 0.001890 546.0 618.0
625(23) 0.001890 545.9 620.1
637(23) 0.001890 545.8 624.5
638(23) 0.001890 545.7 630.8
656(24) 0.001736 545.6 638.4
667(24) 0.001736 545.5 646.6
697(25) 0.001600 545.4 654.4
649(24) 0.001736 545.3 661.1
660(24) 0.001736 545.2 665.7
682(24) 0.001736 545.1 667.9
683(24) 0.001736 545.0 667.5
672(24) 0.001736 544.9 664.9
726(25) 0.001600 544.8 660.3
658(24) 0.001736 544.7 654.5
655(24) 0.001736 544.6 648.0
642(24) 0.001736 544.5 641.2
646(24) 0.001736 544.4 634.8
658(24) 0.001736 544.3 629.3
612(22) 0.002066 544.2 625.2
603(22) 0.002066 544.1 623.3
618(22) 0.002066 544.0 624.0
613(22) 0.002066 543.9 627.8
617(22) 0.002066 543.8 635.1
602(22) 0.002066 543.7 646.0
672(23) 0.001890 543.6 660.5
678(23) 0.001890 543.5 678.4
668(23) 0.001890 543.4 699.3
695(23) 0.001890 543.3 722.7
696(23) 0.001890 543.2 747.5
712(24) 0.001736 543.1 773.0
803(25) 0.001600 543.0 798.0
816(25) 0.001600 542.9 821.9
808(25) 0.001600 542.8 843.8
845(26) 0.001479 542.7 863.6
940(27) 0.001372 542.6 880.7
950(27) 0.001372 542.5 894.8
920(27) 0.001372 542.4 905.1
931(27) 0.001372 542.3 911.1
936(27) 0.001372 542.2 912.1
921(27) 0.001372 542.1 908.2
884(26) 0.001479 542.0 899.9
945(27) 0.001372 541.9 888.1
893(27) 0.001372 541.8 873.8
942(27) 0.001372 541.7 857.8
908(27) 0.001372 541.6 840.5
869(26) 0.001479 541.5 822.7
864(26) 0.001479 541.4 804.6
834(26) 0.001479 541.3 787.0
782(25) 0.001600 541.2 770.6
790(25) 0.001600 541.1 755.9
747(24) 0.001736 541.0 743.6
746(24) 0.001736 540.9 733.8
709(24) 0.001736 540.8 726.5
703(24) 0.001736 540.7 721.7
698(23) 0.001890 540.6 719.0
736(24) 0.001736 540.5 718.2
737(24) 0.001736 540.4 718.8
732(24) 0.001736 540.3 720.1
754(24) 0.001736 540.2 721.5
744(24) 0.001736 540.1 722.2
743(24) 0.001736 540.0 721.7
749(24) 0.001736 539.9 719.6
728(24) 0.001736 539.8 715.9
707(24) 0.001736 539.7 710.7
696(23) 0.001890 539.6 704.4
714(24) 0.001736 539.5 697.4
690(23) 0.001890 539.4 689.8
724(24) 0.001736 539.3 681.9
678(23) 0.001890 539.2 673.8
649(23) 0.001890 539.1 665.7
665(23) 0.001890 539.0 657.7
632(22) 0.002066 538.9 650.0
662(23) 0.001890 538.8 642.6
673(23) 0.001890 538.7 635.7
604(22) 0.002066 538.6 629.2
637(22) 0.002066 538.6 623.1
620(22) 0.002066 538.5 617.7
599(22) 0.002066 538.4 613.0
631(22) 0.002066 538.3 609.3
627(22) 0.002066 538.2 606.8
637(22) 0.002066 538.1 605.9
634(22) 0.002066 538.0 606.7
614(22) 0.002066 537.9 609.2
656(23) 0.001890 537.8 613.4
672(23) 0.001890 537.7 619.2
615(22) 0.002066 537.6 626.0
663(23) 0.001890 537.5 633.8
650(23) 0.001890 537.4 641.8
669(23) 0.001890 537.3 649.9
675(23) 0.001890 537.2 657.4
696(23) 0.001890 537.2 664.3
739(24) 0.001736 537.1 670.4
689(23) 0.001890 537.0 676.1
697(23) 0.001890 536.9 681.7
704(24) 0.001736 536.8 687.7
703(24) 0.001736 536.7 694.5
738(24) 0.001736 536.6 702.2
723(24) 0.001736 536.5 711.1
729(24) 0.001736 536.4 721.0
734(24) 0.001736 536.3 731.9
793(25) 0.001600 536.2 743.2
765(25) 0.001600 536.2 754.6
764(25) 0.001600 536.1 765.4
749(24) 0.001736 536.0 774.7
764(25) 0.001600 535.9 781.8
789(25) 0.001600 535.8 786.1
842(26) 0.001479 535.7 787.4
829(26) 0.001479 535.6 785.8
812(25) 0.001600 535.5 781.5
798(25) 0.001600 535.5 775.2
764(25) 0.001600 535.4 767.1
764(25) 0.001600 535.3 757.8
724(24) 0.001736 535.2 747.4
716(24) 0.001736 535.1 736.5
727(24) 0.001736 535.0 725.5
713(24) 0.001736 534.9 714.8
683(23) 0.001890 534.8 705.0
723(33) 0.000918 534.8 696.3
681(23) 0.001890 534.7 689.0
689(23) 0.001890 534.6 683.2
681(23) 0.001890 534.5 678.8
676(23) 0.001890 534.4 675.9
675(23) 0.001890 534.3 674.4
666(23) 0.001890 534.3 674.0
690(23) 0.001890 534.2 674.6
685(23) 0.001890 534.1 675.8
667(23) 0.001890 534.0 677.3
681(23) 0.001890 533.9 678.8
717(24) 0.001736 533.8 679.8
688(23) 0.001890 533.8 680.3
697(23) 0.001890 533.7 680.2
709(24) 0.001736 533.6 679.4
692(23) 0.001890 533.5 677.8
720(24) 0.001736 533.4 675.7
697(23) 0.001890 533.4 673.0
670(23) 0.001890 533.3 670.0
652(23) 0.001890 533.2 667.0
651(23) 0.001890 533.1 664.7
640(22) 0.002066 533.0 663.5
665(23) 0.001890 533.0 664.3
690(23) 0.001890 532.9 667.6
717(24) 0.001736 532.8 673.9
704(23) 0.001890 532.7 683.4
706(24) 0.001736 532.6 696.2
705(24) 0.001736 532.6 712.2
749(24) 0.001736 532.5 730.9
747(24) 0.001736 532.4 751.6
726(24) 0.001736 532.3 773.7
774(25) 0.001600 532.3 796.0
822(25) 0.001600 532.2 817.4
822(25) 0.001600 532.1 837.2
857(26) 0.001479 532.0 854.4
812(25) 0.001600 532.0 868.6
876(26) 0.001479 531.9 879.5
899(27) 0.001372 531.8 886.9
865(26) 0.001479 531.7 890.6
862(26) 0.001479 531.7 890.4
861(26) 0.001479 531.6 886.2
837(26) 0.001479 531.5 878.0
851(26) 0.001479 531.4 866.3
819(25) 0.001600 531.4 851.9
795(25) 0.001600 531.3 835.5
791(25) 0.001600 531.2 818.1
799(25) 0.001600 531.2 800.4
798(25) 0.001600 531.1 783.0
742(24) 0.001736 531.0 766.5
755(24) 0.001736 530.9 751.1
760(24) 0.001736 530.9 737.2
735(24) 0.001736 530.8 725.0
694(23) 0.001890 530.7 714.5
688(23) 0.001890 530.7 705.6
670(23) 0.001890 530.6 698.2
678(23) 0.001890 530.5 691.9
685(23) 0.001890 530.5 686.4
675(23) 0.001890 530.4 681.5
685(23) 0.001890 530.3 677.0
683(23) 0.001890 530.3 672.5
667(23) 0.001890 530.2 668.1
668(23) 0.001890 530.1 663.4
682(23) 0.001890 530.1 658.4
657(23) 0.001890 530.0 652.9
658(23) 0.001890 529.9 647.0
652(23) 0.001890 529.9 640.6
649(23) 0.001890 529.8 634.0
625(22) 0.002066 529.8 627.4
624(22) 0.002066 529.7 621.0
625(22) 0.002066 529.6 615.0
604(22) 0.002066 529.6 609.5
593(22) 0.002066 529.5 604.7
612(22) 0.002066 529.4 600.6
613(22) 0.002066 529.4 597.2
591(22) 0.002066 529.3 594.3
584(21) 0.002268 529.3 592.0
587(21) 0.002268 529.2 590.0
590(21) 0.002268 529.1 588.3
595(22) 0.002066 529.1 586.6
608(22) 0.002066 529.0 584.9
581(21) 0.002268 529.0 583.2
576(21) 0.002268 528.9 581.5
574(21) 0.002268 528.9 579.9
564(21) 0.002268 528.8 578.7
560(21) 0.002268 528.7 578.0
593(22) 0.002066 528.7 577.9
578(21) 0.002268 528.6 578.6
597(22) 0.002066 528.6 580.2
593(22) 0.002066 528.5 582.9
563(21) 0.002268 528.5 586.7
577(21) 0.002268 528.4 591.5
586(21) 0.002268 528.4 597.5
599(22) 0.002066 528.3 604.4
597(22) 0.002066 528.3 612.3
590(21) 0.002268 528.2 621.1
621(22) 0.002066 528.2 630.5
639(22) 0.002066 528.1 640.7
646(23) 0.001890 528.1 651.4
673(23) 0.001890 528.0 662.6
680(23) 0.001890 528.0 674.2
669(23) 0.001890 527.9 686.2
696(23) 0.001890 527.9 698.3
719(24) 0.001736 527.8 710.7
697(23) 0.001890 527.8 723.3
714(24) 0.001736 527.7 736.1
719(24) 0.001736 527.7 749.2
747(24) 0.001736 527.6 762.7
750(24) 0.001736 527.6 776.4
759(24) 0.001736 527.5 790.1
786(25) 0.001600 527.5 803.6
821(25) 0.001600 527.5 816.3
809(25) 0.001600 527.4 828.0
802(25) 0.001600 527.4 838.2
819(25) 0.001600 527.3 846.4
837(26) 0.001479 527.3 852.2
841(26) 0.001479 527.2 855.1
828(25) 0.001600 527.2 854.7
821(25) 0.001600 527.2 850.8
836(26) 0.001479 527.1 843.3
848(26) 0.001479 527.1 832.8
846(26) 0.001479 527.0 820.0
854(26) 0.001479 527.0 805.7
834(26) 0.001479 527.0 791.1
787(25) 0.001600 526.9 777.0
777(25) 0.001600 526.9 764.3
755(24) 0.001736 526.9 753.4
761(24) 0.001736 526.8 744.7
752(24) 0.001736 526.8 738.2
714(24) 0.001736 526.7 733.6
679(23) 0.001890 526.7 730.4
708(24) 0.001736 526.7 728.0
706(24) 0.001736 526.6 725.7
692(23) 0.001890 526.6 722.7
690(23) 0.001890 526.6 718.4
692(23) 0.001890 526.5 712.5
678(23) 0.001890 526.5 704.7
656(23) 0.001890 526.5 695.2
673(23) 0.001890 526.5 684.2
665(23) 0.001890 526.4 672.1
663(23) 0.001890 526.4 659.4
646(22) 0.002066 526.4 646.4
636(22) 0.002066 526.3 633.6
612(22) 0.002066 526.3 621.4
584(21) 0.002268 526.3 610.0
580(21) 0.002268 526.2 599.8
588(21) 0.002268 526.2 590.9
568(21) 0.002268 526.2 583.4
570(21) 0.002268 526.2 577.5
562(21) 0.002268 526.1 573.1
546(21) 0.002268 526.1 570.3
555(21) 0.002268 526.1 569.1
575(21) 0.002268 526.1 569.4
573(21) 0.002268 526.0 571.1
580(21) 0.002268 526.0 574.2
596(22) 0.002066 526.0 578.7
572(21) 0.002268 526.0 584.5
560(21) 0.002268 526.0 591.4
609(22) 0.002066 525.9 599.5
636(22) 0.002066 525.9 608.5
648(23) 0.001890 525.9 618.3
659(23) 0.001890 525.9 628.8
657(23) 0.001890 525.9 639.6
652(23) 0.001890 525.8 650.7
649(23) 0.001890 525.8 661.6
687(23) 0.001890 525.8 672.1
713(24) 0.001736 525.8 682.1
731(24) 0.001736 525.8 691.4
711(24) 0.001736 525.8 699.7
707(24) 0.001736 525.7 707.0
743(24) 0.001736 525.7 713.3
718(24) 0.001736 525.7 718.5
732(24) 0.001736 525.7 722.4
713(24) 0.001736 525.7 725.0
726(24) 0.001736 525.7 726.4
744(24) 0.001736 525.7 726.7
711(24) 0.001736 525.7 726.0
739(24) 0.001736 525.7 724.4
721(24) 0.001736 525.6 722.4
739(24) 0.001736 525.6 719.9
691(23) 0.001890 525.6 717.3
704(23) 0.001890 525.6 714.5
720(24) 0.001736 525.6 711.6
684(23) 0.001890 525.6 708.7
666(23) 0.001890 525.6 705.9
689(23) 0.001890 525.6 703.1
672(23) 0.001890 525.6 700.3
706(23) 0.001890 525.6 697.5
687(23) 0.001890 525.6 694.6
707(24) 0.001736 525.6 691.4
712(24) 0.001736 525.6 687.8
694(23) 0.001890 525.6 683.8
681(23) 0.001890 525.6 679.4
679(23) 0.001890 525.6 674.6
672(23) 0.001890 525.6 669.3
663(23) 0.001890 525.5 663.7
625(22) 0.002066 525.5 657.7
644(22) 0.002066 525.5 651.4
663(23) 0.001890 525.5 644.7
655(23) 0.001890 525.6 637.7
627(22) 0.002066 525.6 630.5
609(22) 0.002066 525.6 623.3
619(23) 0.001890 525.6 616.1
592(22) 0.002066 525.6 609.0
610(22) 0.002066 525.6 602.1
621(23) 0.001890 525.6 595.5
601(22) 0.002066 525.6 589.3
604(22) 0.002066 525.6 583.4
543(21) 0.002268 525.6 578.0
538(21) 0.002268 525.6 573.2
552(21) 0.002268 525.6 569.0
548(21) 0.002268 525.6 565.5
557(21) 0.002268 525.6 562.8
546(21) 0.002268 525.6 560.9
570(22) 0.002066 525.6 559.8
552(21) 0.002268 525.6 559.7
529(21) 0.002268 525.6 560.5
531(21) 0.002268 525.7 562.3
571(22) 0.002066 525.7 565.0
578(22) 0.002066 525.7 568.7
576(22) 0.002066 525.7 573.2
541(21) 0.002268 525.7 578.5
566(22) 0.002066 525.7 584.5
578(22) 0.002066 525.7 591.1
584(22) 0.002066 525.7 598.0
587(22) 0.002066 525.8 605.2
598(22) 0.002066 525.8 612.3
610(22) 0.002066 525.8 619.1
598(22) 0.002066 525.8 625.5
609(22) 0.002066 525.8 631.1
634(23) 0.001890 525.8 635.9
657(23) 0.001890 525.9 639.6
698(24) 0.001736 525.9 642.3
641(23) 0.001890 525.9 643.8
599(22) 0.002066 525.9 644.3
636(23) 0.001890 525.9 643.8
645(23) 0.001890 526.0 642.3
644(23) 0.001890 526.0 639.9
639(23) 0.001890 526.0 636.8
626(23) 0.001890 526.0 633.1
639(23) 0.001890 526.0 628.9
593(22) 0.002066 526.1 624.5
615(22) 0.002066 526.1 620.0
607(22) 0.002066 526.1 615.8
628(23) 0.001890 526.1 611.8
615(22) 0.002066 526.2 608.4
613(22) 0.002066 526.2 605.5
613(22) 0.002066 526.2 603.4
575(22) 0.002066 526.2 601.9
581(22) 0.002066 526.3 601.1
574(22) 0.002066 526.3 601.1
594(22) 0.002066 526.3 601.7
579(22) 0.002066 526.3 602.8
587(22) 0.002066 526.4 604.3
619(23) 0.001890 526.4 606.0
605(22) 0.002066 526.4 607.9
565(22) 0.002066 526.5 609.7
604(22) 0.002066 526.5 611.3
643(23) 0.001890 526.5 612.5
579(22) 0.002066 526.6 613.3
613(22) 0.002066 526.6 613.5
603(22) 0.002066 526.6 613.0
555(21) 0.002268 526.7 611.7
610(22) 0.002066 526.7 609.6
624(23) 0.001890 526.7 606.8
596(22) 0.002066 526.8 603.2
611(22) 0.002066 526.8 599.1
569(22) 0.002066 526.8 594.5
591(22) 0.002066 526.9 589.7
576(22) 0.002066 526.9 584.8
550(21) 0.002268 526.9 579.9
550(21) 0.002268 527.0 575.2
544(21) 0.002268 527.0 570.8
530(21) 0.002268 527.0 566.9
558(21) 0.002268 527.1 563.4
556(21) 0.002268 527.1 560.6
587(22) 0.002066 527.2 558.4
529(21) 0.002268 527.2 557.0
539(21) 0.002268 527.2 556.3
592(22) 0.002066 527.3 556.4
570(22) 0.002066 527.3 557.4
556(21) 0.002268 527.4 559.4
547(21) 0.002268 527.4 562.4
551(21) 0.002268 527.4 566.5
580(22) 0.002066 527.5 571.8
575(22) 0.002066 527.5 578.3
626(23) 0.001890 527.6 586.2
613(22) 0.002066 527.6 595.5
602(22) 0.002066 527.7 606.4
624(23) 0.001890 527.7 618.7
649(23) 0.001890 527.8 632.6
662(23) 0.001890 527.8 647.9
678(24) 0.001736 527.9 664.6
684(24) 0.001736 527.9 682.6
678(24) 0.001736 527.9 701.5
720(24) 0.001736 528.0 721.2
740(25) 0.001600 528.0 741.2
766(25) 0.001600 528.1 761.3
767(25) 0.001600 528.1 781.1
791(26) 0.001479 528.2 800.0
837(26) 0.001479 528.2 817.6
832(21) 0.002268 528.3 833.6
806(26) 0.001479 528.3 847.3
841(27) 0.001372 528.4 858.4
880(28) 0.001276 528.4 866.7
877(27) 0.001372 528.5 872.0
828(27) 0.001372 528.5 874.2
872(27) 0.001372 528.6 873.7
865(27) 0.001372 528.6 870.6
831(27) 0.001372 528.7 865.4
856(27) 0.001372 528.7 858.4
822(27) 0.001372 528.8 850.2
818(27) 0.001372 528.9 841.0
828(27) 0.001372 528.9 831.1
842(27) 0.001372 529.0 821.0
900(28) 0.001276 529.0 810.8
819(27) 0.001372 529.1 800.7
802(26) 0.001479 529.1 791.1
781(26) 0.001479 529.2 781.8
744(25) 0.001600 529.2 773.0
744(25) 0.001600 529.3 764.5
756(25) 0.001600 529.4 756.5
721(25) 0.001600 529.4 748.8
711(25) 0.001600 529.5 741.3
755(25) 0.001600 529.5 734.1
720(25) 0.001600 529.6 727.2
750(25) 0.001600 529.6 720.4
744(25) 0.001600 529.7 713.9
707(25) 0.001600 529.8 707.5
667(24) 0.001736 529.8 701.2
690(24) 0.001736 529.9 695.1
703(25) 0.001600 529.9 689.1
727(25) 0.001600 530.0 683.3
684(24) 0.001736 530.1 677.6
686(24) 0.001736 530.1 672.1
666(24) 0.001736 530.2 666.8
659(24) 0.001736 530.2 661.7
693(24) 0.001736 530.3 657.0
688(24) 0.001736 530.4 652.6
606(23) 0.001890 530.4 648.6
631(23) 0.001890 530.5 645.2
682(24) 0.001736 530.6 642.4
670(24) 0.001736 530.6 640.5
672(24) 0.001736 530.7 639.5
654(24) 0.001736 530.8 639.6
650(24) 0.001736 530.8 641.0
662(24) 0.001736 530.9 643.8
615(23) 0.001890 530.9 648.0
597(23) 0.001890 531.0 653.6
620(23) 0.001890 531.1 660.8
668(24) 0.001736 531.1 669.5
664(24) 0.001736 531.2 679.5
705(25) 0.001600 531.3 690.8
674(24) 0.001736 531.3 703.1
734(25) 0.001600 531.4 716.1
751(25) 0.001600 531.5 729.7
751(25) 0.001600 531.5 743.4
726(25) 0.001600 531.6 756.9
769(26) 0.001479 531.7 769.9
782(26) 0.001479 531.7 782.1
797(26) 0.001479 531.8 793.0
770(26) 0.001479 531.9 802.3
787(26) 0.001479 531.9 809.7
812(26) 0.001479 532.0 815.0
780(26) 0.001479 532.1 817.8
807(26) 0.001479 532.1 818.3
797(26) 0.001479 532.2 816.2
839(27) 0.001372 532.3 811.9
756(25) 0.001600 532.4 805.5
736(25) 0.001600 532.4 797.5
748(25) 0.001600 532.5 787.9
773(26) 0.001479 532.6 777.4
780(26) 0.001479 532.6 766.0
744(25) 0.001600 532.7 754.3
744(25) 0.001600 532.8 742.5
743(25) 0.001600 532.8 730.7
742(25) 0.001600 532.9 719.3
699(24) 0.001736 533.0 708.4
681(24) 0.001736 533.1 698.2
679(24) 0.001736 533.1 688.6
649(24) 0.001736 533.2 679.9
617(23) 0.001890 533.3 672.1
604(23) 0.001890 533.3 665.0
657(24) 0.001736 533.4 658.9
625(23) 0.001890 533.5 653.6
631(23) 0.001890 533.5 649.3
615(23) 0.001890 533.6 646.0
625(23) 0.001890 533.7 643.6
635(23) 0.001890 533.8 642.3
629(23) 0.001890 533.8 641.9
646(24) 0.001736 533.9 642.6
638(23) 0.001890 534.0 644.2
657(24) 0.001736 534.1 646.8
652(24) 0.001736 534.1 650.3
720(25) 0.001600 534.2 654.5
689(24) 0.001736 534.3 659.4
656(24) 0.001736 534.3 664.8
663(24) 0.001736 534.4 670.5
695(24) 0.001736 534.5 676.3
707(25) 0.001600 534.6 682.1
729(25) 0.001600 534.6 687.6
691(24) 0.001736 534.7 692.6
764(25) 0.001600 534.8 697.1
733(24) 0.001736 534.8 700.9
713(24) 0.001736 534.9 703.8
715(24) 0.001736 535.0 705.7
757(25) 0.001600 535.1 706.6
723(24) 0.001736 535.1 706.3
722(24) 0.001736 535.2 705.0
769(25) 0.001600 535.3 702.6
731(24) 0.001736 535.4 699.1
728(24) 0.001736 535.4 694.8
809(25) 0.001600 535.5 689.8
751(25) 0.001600 535.6 684.3
724(24) 0.001736 535.6 678.5
692(24) 0.001736 535.7 672.7
717(24) 0.001736 535.8 667.1
703(24) 0.001736 535.9 661.8
716(24) 0.001736 535.9 657.0
714(24) 0.001736 536.0 653.0
658(23) 0.001890 536.1 649.7
654(23) 0.001890 536.2 647.3
675(23) 0.001890 536.2 645.7
685(23) 0.001890 536.3 645.1
692(24) 0.001736 536.4 645.3
671(23) 0.001890 536.4 646.3
614(22) 0.002066 536.5 648.0
646(23) 0.001890 536.6 650.4
676(23) 0.001890 536.7 653.4
665(23) 0.001890 536.7 656.8
667(23) 0.001890 536.8 660.5
712(24) 0.001736 536.9 664.5
655(23) 0.001890 536.9 668.6
657(23) 0.001890 537.0 672.7
678(23) 0.001890 537.1 676.8
705(24) 0.001736 537.2 680.7
693(24) 0.001736 537.2 684.3
672(23) 0.001890 537.3 687.7
726(24) 0.001736 537.4 690.8
717(24) 0.001736 537.4 693.6
707(24) 0.001736 537.5 696.1
698(24) 0.001736 537.6 698.3
715(24) 0.001736 537.7 700.2
734(24) 0.001736 537.7 701.9
712(24) 0.001736 537.8 703.3
735(24) 0.001736 537.9 704.5
742(24) 0.001736 537.9 705.5
684(23) 0.001890 538.0 706.3
694(24) 0.001736 538.1 707.0
712(24) 0.001736 538.1 707.5
697(24) 0.001736 538.2 707.8
700(24) 0.001736 538.3 708.1
719(24) 0.001736 538.4 708.2
694(24) 0.001736 538.4 708.3
702(24) 0.001736 538.5 708.3
685(23) 0.001890 538.6 708.3
726(24) 0.001736 538.6 708.3
764(25) 0.001600 538.7 708.4
713(24) 0.001736 538.8 708.6
749(25) 0.001600 538.8 708.9
730(24) 0.001736 538.9 709.5
685(23) 0.001890 539.0 710.3
713(24) 0.001736 539.0 711.3
743(24) 0.001736 539.1 712.5
759(25) 0.001600 539.2 714.0
766(25) 0.001600 539.2 715.5
756(25) 0.001600 539.3 717.0
676(23) 0.001890 539.4 718.5
717(24) 0.001736 539.4 719.7
699(24) 0.001736 539.5 720.7
705(24) 0.001736 539.6 721.1
734(24) 0.001736 539.6 720.8
687(23) 0.001890 539.7 719.9
726(24) 0.001736 539.8 718.1
669(23) 0.001890 539.8 715.4
743(24) 0.001736 539.9 711.9
661(23) 0.001890 539.9 707.4
723(24) 0.001736 540.0 702.3
695(24) 0.001736 540.1 696.4
681(23) 0.001890 540.1 689.9
661(23) 0.001890 540.2 683.0
678(23) 0.001890 540.3 675.9
701(24) 0.001736 540.3 668.5
635(23) 0.001890 540.4 661.1
650(23) 0.001890 540.4 653.8
610(22) 0.002066 540.5 646.8
641(23) 0.001890 540.6 640.0
645(23) 0.001890 540.6 633.8
630(22) 0.002066 540.7 628.0
587(22) 0.002066 540.7 622.8
633(22) 0.002066 540.8 618.3
635(23) 0.001890 540.9 614.4
563(21) 0.002268 540.9 611.2
598(22) 0.002066 541.0 608.8
618(22) 0.002066 541.0 607.0
580(22) 0.002066 541.1 605.8
601(22) 0.002066 541.1 605.3
573(21) 0.002268 541.2 605.3
603(22) 0.002066 541.3 605.8
599(22) 0.002066 541.3 606.8
625(22) 0.002066 541.4 608.2
611(31) 0.001041 541.4 609.9
628(22) 0.002066 541.5 612.0
637(22) 0.002066 541.5 614.2
621(22) 0.002066 541.6 616.7
619(22) 0.002066 541.6 619.3
617(22) 0.002066 541.7 622.0
585(21) 0.002268 541.7 624.7
629(22) 0.002066 541.8 627.5
640(22) 0.002066 541.8 630.5
681(23) 0.001890 541.9 633.3
657(23) 0.001890 541.9 636.0
650(22) 0.002066 542.0 638.6
669(23) 0.001890 542.0 641.2
671(23) 0.001890 542.1 643.7
669(23) 0.001890 542.1 646.0
676(23) 0.001890 542.2 648.2
671(23) 0.001890 542.2 650.4
686(23) 0.001890 542.3 652.4
680(23) 0.001890 542.3 654.5
630(22) 0.002066 542.4 656.3
641(22) 0.002066 542.4 658.2
665(23) 0.001890 542.5 660.1
709(23) 0.001890 542.5 662.0
705(23) 0.001890 542.6 664.0
652(22) 0.002066 542.6 666.1
679(23) 0.001890 542.7 668.6
691(23) 0.001890 542.7 671.3
663(23) 0.001890 542.7 674.3
692(23) 0.001890 542.8 677.7
709(23) 0.001890 542.8 681.6
694(23) 0.001890 542.9 685.9
681(23) 0.001890 542.9 690.6
690(23) 0.001890 543.0 695.9
692(23) 0.001890 543.0 701.6
706(23) 0.001890 543.0 707.7
712(23) 0.001890 543.1 714.2
708(23) 0.001890 543.1 721.1
713(23) 0.001890 543.2 728.2
748(24) 0.001736 543.2 735.5
713(23) 0.001890 543.2 743.0
749(24) 0.001736 543.3 750.4
783(25) 0.001600 543.3 757.8
808(25) 0.001600 543.3 765.1
776(25) 0.001600 543.4 772.1
784(25) 0.001600 543.4 778.8
785(25) 0.001600 543.4 785.1
817(25) 0.001600 543.5 791.0
808(25) 0.001600 543.5 796.2
774(25) 0.001600 543.5 800.7
740(24) 0.001736 543.6 804.6
798(25) 0.001600 543.6 807.6
804(25) 0.001600 543.6 809.8
798(25) 0.001600 543.7 811.1
810(25) 0.001600 543.7 811.6
829(25) 0.001600 543.7 811.3
821(25) 0.001600 543.8 810.1
798(25) 0.001600 543.8 808.2
823(25) 0.001600 543.8 805.4
804(25) 0.001600 543.8 802.1
779(25) 0.001600 543.9 798.0
804(25) 0.001600 543.9 793.5
797(25) 0.001600 543.9 788.4
817(25) 0.001600 543.9 783.1
784(25) 0.001600 544.0 777.5
746(24) 0.001736 544.0 771.9
754(24) 0.001736 544.0 766.2
788(25) 0.001600 544.0 760.7
742(24) 0.001736 544.1 755.5
759(24) 0.001736 544.1 750.6
734(24) 0.001736 544.1 746.1
754(24) 0.001736 544.1 742.1
784(25) 0.001600 544.1 738.5
725(24) 0.001736 544.2 735.4
713(23) 0.001890 544.2 732.8
738(24) 0.001736 544.2 730.6
740(24) 0.001736 544.2 728.7
744(24) 0.001736 544.2 727.2
743(24) 0.001736 544.3 725.9
733(24) 0.001736 544.3 724.8
717(24) 0.001736 544.3 723.8
726(24) 0.001736 544.3 722.9
718(24) 0.001736 544.3 722.1
708(23) 0.001890 544.3 721.2
728(24) 0.001736 544.3 720.3
738(24) 0.001736 544.4 719.4
728(24) 0.001736 544.4 718.5
726(24) 0.001736 544.4 717.6
742(24) 0.001736 544.4 716.8
732(24) 0.001736 544.4 716.1
718(24) 0.001736 544.4 715.5
753(24) 0.001736 544.4 715.0
737(24) 0.001736 544.4 714.7
747(24) 0.001736 544.4 714.5
731(24) 0.001736 544.4 714.5
717(24) 0.001736 544.5 714.7
733(24) 0.001736 544.5 715.1
704(23) 0.001890 544.5 715.6
740(24) 0.001736 544.5 716.3
753(24) 0.001736 544.5 717.2
729(24) 0.001736 544.5 718.2
707(19) 0.002770 544.5 719.3
714(24) 0.001736 544.5 720.5
732(24) 0.001736 544.5 721.9
702(23) 0.001890 544.5 723.4
707(23) 0.001890 544.5 725.0
718(24) 0.001736 544.5 726.8
709(23) 0.001890 544.5 728.7
717(24) 0.001736 544.5 730.7
724(24) 0.001736 544.5 732.9
738(24) 0.001736 544.5 735.2
730(24) 0.001736 544.5 737.7
718(24) 0.001736 544.5 740.3
713(23) 0.001890 544.5 742.9
730(24) 0.001736 544.5 745.5
712(23) 0.001890 544.5 748.1
747(24) 0.001736 544.5 750.6
736(24) 0.001736 544.5 753.0
752(24) 0.001736 544.5 755.1
756(24) 0.001736 544.5 756.9
783(25) 0.001600 544.5 758.4
719(24) 0.001736 544.4 759.4
718(24) 0.001736 544.4 759.9
734(24) 0.001736 544.4 759.8
759(24) 0.001736 544.4 759.2
726(24) 0.001736 544.4 758.0
750(24) 0.001736 544.4 756.1
743(24) 0.001736 544.4 753.7
728(24) 0.001736 544.4 750.7
735(24) 0.001736 544.4 747.2
743(24) 0.001736 544.4 743.2
729(24) 0.001736 544.3 738.7
730(24) 0.001736 544.3 733.8
746(24) 0.001736 544.3 728.5
729(24) 0.001736 544.3 723.0
692(23) 0.001890 544.3 717.1
699(23) 0.001890 544.3 711.1
685(23) 0.001890 544.3 704.9
695(23) 0.001890 544.2 698.7
696(23) 0.001890 544.2 692.4
666(23) 0.001890 544.2 686.1
670(23) 0.001890 544.2 679.9
664(23) 0.001890 544.2 673.7
639(22) 0.002066 544.2 667.8
640(22) 0.002066 544.1 662.0
628(22) 0.002066 544.1 656.4
628(22) 0.002066 544.1 651.1
641(22) 0.002066 544.1 646.1
680(23) 0.001890 544.1 641.4
623(22) 0.002066 544.0 637.1
626(22) 0.002066 544.0 633.2
620(22) 0.002066 544.0 629.6
602(22) 0.002066 544.0 626.5
630(22) 0.002066 544.0 623.9
641(22) 0.002066 543.9 621.8
622(22) 0.002066 543.9 620.1
625(22) 0.002066 543.9 618.9
629(22) 0.002066 543.9 618.2
615(22) 0.002066 543.8 618.0
626(22) 0.002066 543.8 618.3
615(22) 0.002066 543.8 619.0
603(22) 0.002066 543.8 620.2
621(22) 0.002066 543.7 621.9
621(22) 0.002066 543.7 623.9
610(22) 0.002066 543.7 626.3
658(23) 0.001890 543.7 629.1
634(22) 0.002066 543.6 632.2
609(22) 0.002066 543.6 635.5
636(22) 0.002066 543.6 639.1
618(22) 0.002066 543.6 642.8
625(22) 0.002066 543.5 646.7
647(22) 0.002066 543.5 650.7
674(23) 0.001890 543.5 654.7
662(23) 0.001890 543.4 658.7
684(23) 0.001890 543.4 662.6
663(23) 0.001890 543.4 666.5
680(23) 0.001890 543.3 670.2
685(23) 0.001890 543.3 673.7
698(23) 0.001890 543.3 677.1
690(23) 0.001890 543.3 680.2
708(23) 0.001890 543.2 683.1
727(24) 0.001736 543.2 685.8
676(23) 0.001890 543.2 688.3
700(23) 0.001890 543.1 690.5
673(23) 0.001890 543.1 692.4
698(23) 0.001890 543.1 694.2
720(24) 0.001736 543.0 695.7
722(24) 0.001736 543.0 697.0
716(24) 0.001736 543.0 698.0
730(24) 0.001736 542.9 698.8
730(24) 0.001736 542.9 699.4
708(23) 0.001890 542.9 699.7
734(24) 0.001736 542.8 699.7
738(24) 0.001736 542.8 699.6
699(23) 0.001890 542.8 699.1
711(23) 0.001890 542.7 698.4
689(23) 0.001890 542.7 697.4
683(23) 0.001890 542.7 696.1
690(23) 0.001890 542.6 694.5
664(23) 0.001890 542.6 692.7
659(23) 0.001890 542.6 690.6
660(23) 0.001890 542.5 688.2
662(23) 0.001890 542.5 685.6
671(23) 0.001890 542.5 682.8
676(23) 0.001890 542.4 679.8
655(23) 0.001890 542.4 676.7
665(23) 0.001890 542.4 673.5
657(23) 0.001890 542.3 670.3
675(23) 0.001890 542.3 667.2
647(23) 0.001890 542.3 664.1
653(23) 0.001890 542.2 661.1
621(22) 0.002066 542.2 658.2
652(23) 0.001890 542.2 655.6
643(23) 0.001890 542.1 653.2
654(23) 0.001890 542.1 651.0
670(23) 0.001890 542.1 649.1
646(23) 0.001890 542.0 647.5
615(22) 0.002066 542.0 646.1
618(22) 0.002066 542.0 645.1
615(22) 0.002066 541.9 644.3
612(22) 0.002066 541.9 643.8
607(22) 0.002066 541.9 643.6
611(22) 0.002066 541.9 643.5
621(22) 0.002066 541.8 643.7
641(23) 0.001890 541.8 644.1
671(23) 0.001890 541.8 644.6
658(23) 0.001890 541.7 645.2
628(22) 0.002066 541.7 645.8
627(22) 0.002066 541.7 646.5
635(22) 0.002066 541.6 647.2
615(22) 0.002066 541.6 647.8
607(22) 0.002066 541.6 648.3
635(22) 0.002066 541.6 648.7
631(22) 0.002066 541.5 649.0
623(22) 0.002066 541.5 649.1
636(22) 0.002066 541.5 649.1
625(22) 0.002066 541.4 648.8
666(23) 0.001890 541.4 648.4
625(22) 0.002066 541.4 647.8
620(22) 0.002066 541.4 647.1
619(22) 0.002066 541.3 646.2
632(22) 0.002066 541.3 645.2
637(22) 0.002066 541.3 644.1
657(23) 0.001890 541.3 643.0
674(23) 0.001890 541.2 642.0
678(23) 0.001890 541.2 640.9
647(23) 0.001890 541.2 640.0
657(23) 0.001890 541.2 639.2
645(23) 0.001890 541.2 638.6
599(22) 0.002066 541.1 638.2
617(22) 0.002066 541.1 638.0
628(22) 0.002066 541.1 638.1
595(22) 0.002066 541.1 638.5
659(23) 0.001890 541.1 639.3
643(23) 0.001890 541.1 640.4
631(22) 0.002066 541.0 641.9
624(22) 0.002066 541.0 643.8
655(23) 0.001890 541.0 646.1
654(23) 0.001890 541.0 648.8
633(22) 0.002066 541.0 652.0
634(22) 0.002066 541.0 655.5
652(23) 0.001890 541.0 659.5
652(23) 0.001890 541.0 663.9
708(24) 0.001736 540.9 668.7
696(23) 0.001890 540.9 673.9
683(23) 0.001890 540.9 679.4
680(23) 0.001890 540.9 685.3
698(24) 0.001736 540.9 691.5
730(24) 0.001736 540.9 698.0
714(24) 0.001736 540.9 704.7
707(24) 0.001736 540.9 711.6
699(24) 0.001736 540.9 718.7
713(24) 0.001736 540.9 725.9
719(24) 0.001736 540.9 733.2
771(25) 0.001600 540.9 740.5
732(24) 0.001736 540.9 747.7
722(24) 0.001736 540.9 754.8
723(24) 0.001736 540.9 761.8
795(25) 0.001600 540.9 768.6
777(25) 0.001600 540.9 775.0
761(25) 0.001600 541.0 781.2
808(25) 0.001600 541.0 787.0
781(25) 0.001600 541.0 792.4
771(25) 0.001600 541.0 797.3
788(25) 0.001600 541.0 801.7
788(25) 0.001600 541.0 805.5
780(25) 0.001600 541.0 808.8
782(25) 0.001600 541.1 811.5
796(25) 0.001600 541.1 813.7
832(26) 0.001479 541.1 815.3
786(25) 0.001600 541.1 816.3
793(25) 0.001600 541.1 816.7
824(26) 0.001479 541.2 816.7
792(25) 0.001600 541.2 816.1
803(25) 0.001600 541.2 815.0
819(26) 0.001479 541.3 813.5
803(25) 0.001600 541.3 811.6
816(25) 0.001600 541.3 809.2
817(25) 0.001600 541.4 806.5
812(25) 0.001600 541.4 803.5
797(25) 0.001600 541.4 800.1
786(25) 0.001600 541.5 796.5
822(26) 0.001479 541.5 792.6
803(25) 0.001600 541.6 788.5
802(25) 0.001600 541.6 784.2
798(25) 0.001600 541.7 779.8
786(25) 0.001600 541.7 775.3
787(25) 0.001600 541.8 770.6
783(25) 0.001600 541.8 765.9
743(24) 0.001736 541.9 761.1
763(25) 0.001600 541.9 756.3
768(25) 0.001600 542.0 751.4
768(25) 0.001600 542.0 746.6
774(25) 0.001600 542.1 741.7
760(25) 0.001600 542.2 737.0
746(24) 0.001736 542.2 732.2
720(24) 0.001736 542.3 727.6
712(24) 0.001736 542.4 723.0
741(24) 0.001736 542.5 718.5
727(24) 0.001736 542.5 714.2
756(25) 0.001600 542.6 710.0
741(24) 0.001736 542.7 705.9
734(24) 0.001736 542.8 702.0
696(24) 0.001736 542.9 698.2
683(23) 0.001890 543.0 694.6
665(23) 0.001890 543.0 691.2
676(23) 0.001890 543.1 688.0
718(24) 0.001736 543.2 684.9
701(24) 0.001736 543.3 682.0
702(24) 0.001736 543.4 679.3
710(24) 0.001736 543.5 676.8
688(23) 0.001890 543.6 674.5
670(23) 0.001890 543.7 672.3
656(23) 0.001890 543.9 670.4
671(23) 0.001890 544.0 668.6
684(23) 0.001890 544.1 667.0
631(22) 0.002066 544.2 665.7
656(23) 0.001890 544.3 664.5
690(23) 0.001890 544.4 663.5
663(23) 0.001890 544.6 662.8
664(23) 0.001890 544.7 662.3
692(23) 0.001890 544.8 662.0
682(23) 0.001890 545.0 662.0
669(23) 0.001890 545.1 662.2
671(23) 0.001890 545.2 662.7
669(23) 0.001890 545.4 663.5
678(23) 0.001890 545.5 664.6
661(23) 0.001890 545.7 666.0
660(23) 0.001890 545.8 667.7
696(24) 0.001736 546.0 669.7
704(24) 0.001736 546.2 672.0
668(23) 0.001890 546.3 674.7
676(23) 0.001890 546.5 677.7
702(24) 0.001736 546.7 681.1
704(24) 0.001736 546.8 684.8
704(24) 0.001736 547.0 688.8
698(24) 0.001736 547.2 693.1
724(24) 0.001736 547.4 697.8
748(24) 0.001736 547.6 702.7
736(24) 0.001736 547.7 707.9
730(24) 0.001736 547.9 713.3
753(25) 0.001600 548.1 719.0
729(24) 0.001736 548.3 724.9
739(24) 0.001736 548.5 730.9
759(25) 0.001600 548.7 737.2
744(24) 0.001736 549.0 743.5
777(25) 0.001600 549.2 749.9
764(25) 0.001600 549.4 756.3
752(24) 0.001736 549.6 762.8
765(25) 0.001600 549.8 769.2
754(25) 0.001600 550.1 775.6
776(25) 0.001600 550.3 781.8
806(25) 0.001600 550.5 787.9
802(25) 0.001600 550.8 793.8
793(25) 0.001600 551.0 799.5
776(25) 0.001600 551.3 805.0
794(25) 0.001600 551.5 810.1
805(25) 0.001600 551.8 815.0
791(25) 0.001600 552.0 819.5
830(26) 0.001479 552.3 823.7
830(26) 0.001479 552.6 827.5
837(26) 0.001479 552.8 830.9
852(26) 0.001479 553.1 834.0
853(26) 0.001479 553.4 836.7
859(26) 0.001479 553.7 839.0
869(26) 0.001479 554.0 841.0
866(26) 0.001479 554.3 842.6
879(26) 0.001479 554.6 844.0
855(26) 0.001479 554.9 845.0
823(26) 0.001479 555.2 845.7
850(26) 0.001479 555.5 846.2
851(26) 0.001479 555.8 846.4
877(26) 0.001479 556.1 846.4
891(27) 0.001372 556.5 846.3
870(26) 0.001479 556.8 845.9
882(27) 0.001372 557.1 845.3
898(27) 0.001372 557.5 844.6
870(26) 0.001479 557.8 843.8
857(26) 0.001479 558.2 842.8
873(26) 0.001479 558.5 841.7
842(26) 0.001479 558.9 840.4
813(21) 0.002268 559.3 839.1
774(25) 0.001600 559.6 837.6
823(26) 0.001479 560.0 836.0
832(26) 0.001479 560.4 834.2
822(26) 0.001479 560.8 832.3
837(26) 0.001479 561.2 830.3
812(25) 0.001600 561.6 828.1
796(25) 0.001600 562.0 825.8
809(25) 0.001600 562.4 823.4
832(26) 0.001479 562.8 820.8
816(26) 0.001479 563.2 818.1
772(25) 0.001600 563.6 815.2
778(25) 0.001600 564.1 812.2
791(25) 0.001600 564.5 809.1
785(25) 0.001600 564.9 805.9
790(25) 0.001600 565.4 802.6
797(25) 0.001600 565.8 799.2
820(26) 0.001479 566.3 795.7
820(26) 0.001479 566.7 792.1
791(25) 0.001600 567.2 788.5
780(25) 0.001600 567.7 784.9
785(25) 0.001600 568.2 781.2
793(25) 0.001600 568.6 777.5
774(25) 0.001600 569.1 773.8
766(25) 0.001600 569.6 770.1
779(25) 0.001600 570.1 766.4
737(24) 0.001736 570.7 762.7
731(24) 0.001736 571.2 759.1
758(25) 0.001600 571.7 755.5
748(24) 0.001736 572.2 752.0
738(24) 0.001736 572.7 748.5
744(24) 0.001736 573.3 745.1
722(24) 0.001736 573.8 741.8
743(24) 0.001736 574.4 738.5
735(24) 0.001736 574.9 735.3
728(24) 0.001736 575.5 732.2
712(24) 0.001736 576.1 729.1
739(24) 0.001736 576.7 726.1
743(24) 0.001736 577.2 723.3
712(24) 0.001736 577.8 720.5
705(24) 0.001736 578.4 717.7
697(24) 0.001736 579.0 715.1
707(24) 0.001736 579.7 712.5
715(24) 0.001736 580.3 710.1
723(24) 0.001736 580.9 707.7
706(24) 0.001736 581.5 705.4
723(24) 0.001736 582.2 703.2
728(24) 0.001736 582.8 701.1
738(24) 0.001736 583.5 699.0
716(24) 0.001736 584.1 697.1
662(23) 0.001890 584.8 695.3
660(23) 0.001890 585.5 693.5
683(23) 0.001890 586.1 691.8
680(23) 0.001890 586.8 690.3
708(24) 0.001736 587.5 688.8
711(24) 0.001736 588.2 687.5
702(24) 0.001736 588.9 686.2
689(23) 0.001890 589.7 685.1
698(24) 0.001736 590.4 684.1
706(24) 0.001736 591.1 683.2
692(23) 0.001890 591.8 682.4
710(24) 0.001736 592.6 681.7
719(24) 0.001736 593.3 681.2
708(24) 0.001736 594.1 680.8
708(24) 0.001736 594.9 680.6
700(24) 0.001736 595.7 680.5
674(23) 0.001890 596.4 680.5
670(23) 0.001890 597.2 680.7
658(23) 0.001890 598.0 681.1
671(23) 0.001890 598.8 681.6
678(23) 0.001890 599.7 682.4
711(24) 0.001736 600.5 683.2
714(24) 0.001736 601.3 684.3
693(24) 0.001736 602.1 685.5
685(23) 0.001890 603.0 686.9
711(24) 0.001736 603.9 688.5
707(24) 0.001736 604.7 690.3
697(24) 0.001736 605.6 692.3
712(24) 0.001736 606.5 694.5
710(24) 0.001736 607.4 696.8
706(24) 0.001736 608.3 699.3
716(24) 0.001736 609.2 702.0
724(24) 0.001736 610.1 704.9
712(24) 0.001736 611.0 707.9
695(24) 0.001736 611.9 711.2
699(24) 0.001736 612.9 714.6
715(24) 0.001736 613.8 718.1
715(24) 0.001736 614.8 721.8
717(24) 0.001736 615.7 725.7
766(25) 0.001600 616.7 729.6
771(25) 0.001600 617.7 733.8
750(24) 0.001736 618.7 738.0
764(25) 0.001600 619.7 742.4
740(24) 0.001736 620.7 746.8
733(24) 0.001736 621.7 751.4
753(25) 0.001600 622.7 756.0
751(24) 0.001736 623.8 760.8
776(25) 0.001600 624.8 765.6
755(25) 0.001600 625.9 770.4
758(25) 0.001600 626.9 775.3
770(25) 0.001600 628.0 780.2
779(25) 0.001600 629.1 785.1
789(26) 0.001479 630.2 790.1
735(25) 0.001600 631.3 795.0
749(25) 0.001600 632.4 800.0
781(26) 0.001479 633.5 804.9
792(26) 0.001479 634.6 809.7
790(26) 0.001479 635.8 814.6
798(26) 0.001479 636.9 819.3
802(26) 0.001479 638.1 824.0
830(26) 0.001479 639.2 828.7
788(26) 0.001479 640.4 833.2
794(26) 0.001479 641.6 837.7
813(26) 0.001479 642.8 842.0
819(26) 0.001479 644.0 846.3
826(26) 0.001479 645.2 850.4
836(26) 0.001479 646.4 854.5
842(26) 0.001479 647.7 858.4
856(27) 0.001372 648.9 862.2
865(27) 0.001372 650.2 865.8
857(27) 0.001372 651.4 869.3
834(26) 0.001479 652.7 872.7
895(27) 0.001372 654.0 876.0
845(26) 0.001479 655.3 879.1
868(27) 0.001372 656.6 882.1
870(27) 0.001372 657.9 885.0
869(27) 0.001372 659.2 887.7
882(27) 0.001372 660.6 890.3
877(27) 0.001372 661.9 892.8
937(28) 0.001276 663.3 895.1
908(27) 0.001372 664.6 897.3
883(27) 0.001372 666.0 899.4
865(27) 0.001372 667.4 901.3
878(27) 0.001372 668.8 903.2
914(27) 0.001372 670.2 904.9
919(28) 0.001276 671.6 906.6
913(27) 0.001372 673.0 908.2
872(27) 0.001372 674.5 909.6
906(27) 0.001372 675.9 911.0
922(28) 0.001276 677.4 912.4
898(27) 0.001372 678.9 913.6
913(28) 0.001276 680.3 914.8
960(28) 0.001276 681.8 915.9
902(27) 0.001372 683.3 917.0
930(28) 0.001276 684.8 918.0
912(27) 0.001372 686.4 919.0
940(28) 0.001276 687.9 919.9
915(27) 0.001372 689.5 920.7
881(27) 0.001372 691.0 921.6
924(28) 0.001276 692.6 922.3
925(28) 0.001276 694.2 923.1
914(27) 0.001372 695.7 923.8
893(27) 0.001372 697.3 924.4
922(28) 0.001276 699.0 925.0
932(28) 0.001276 700.6 925.6
934(28) 0.001276 702.2 926.1
930(28) 0.001276 703.9 926.5
912(27) 0.001372 705.5 927.0
903(27) 0.001372 707.2 927.3
968(28) 0.001276 708.9 927.6
912(27) 0.001372 710.6 927.8
929(28) 0.001276 712.3 928.0
935(28) 0.001276 714.0 928.1
925(28) 0.001276 715.7 928.2
935(28) 0.001276 717.4 928.1
900(27) 0.001372 719.2 928.0
950(28) 0.001276 720.9 927.9
961(28) 0.001276 722.7 927.7
896(27) 0.001372 724.5 927.4
926(28) 0.001276 726.3 927.0
904(27) 0.001372 728.1 926.6
921(28) 0.001276 729.9 926.1
930(28) 0.001276 731.7 925.5
931(28) 0.001276 733.6 924.9
941(28) 0.001276 735.4 924.3
909(27) 0.001372 737.3 923.6
939(28) 0.001276 739.2 922.8
957(28) 0.001276 741.1 922.0
943(28) 0.001276 743.0 921.2
922(28) 0.001276 744.9 920.3
913(27) 0.001372 746.8 919.4
938(28) 0.001276 748.7 918.5
932(28) 0.001276 750.7 917.6
885(27) 0.001372 752.6 916.7
907(27) 0.001372 754.6 915.8
927(28) 0.001276 756.6 914.8
933(28) 0.001276 758.6 913.9
947(28) 0.001276 760.6 913.0
940(28) 0.001276 762.6 912.2
913(28) 0.001276 764.6 911.3
936(28) 0.001276 766.7 910.5
904(27) 0.001372 768.7 909.7
929(28) 0.001276 770.8 908.9
938(28) 0.001276 772.9 908.2
908(27) 0.001372 774.9 907.6
928(28) 0.001276 777.0 906.9
944(28) 0.001276 779.2 906.4
945(28) 0.001276 781.3 905.9
897(27) 0.001372 783.4 905.5
905(27) 0.001372 785.6 905.1
960(41) 0.000595 788. 905.
873(39) 0.000657 790. 905.
923(40) 0.000625 792. 904.
917(40) 0.000625 794. 904.
877(39) 0.000657 797. 904.
833(38) 0.000693 799. 904.
899(40) 0.000625 801. 905.
966(41) 0.000595 803. 905.
900(40) 0.000625 805. 905.
912(40) 0.000625 808. 905.
868(39) 0.000657 810. 906.
881(39) 0.000657 812. 907.
952(41) 0.000595 815. 907.
881(39) 0.000657 817. 908.
920(40) 0.000625 819. 909.
939(40) 0.000625 822. 910.
936(40) 0.000625 824. 911.
912(40) 0.000625 826. 912.
981(41) 0.000595 829. 913.
932(40) 0.000625 831. 914.
949(41) 0.000595 834. 916.
918(40) 0.000625 836. 917.
925(40) 0.000625 838. 919.
880(39) 0.000657 841. 920.
910(40) 0.000625 843. 922.
904(40) 0.000625 846. 924.
909(40) 0.000625 848. 926.
925(40) 0.000625 851. 928.
920(40) 0.000625 853. 930.
901(40) 0.000625 856. 932.
1014(42) 0.000567 858. 934.
1004(42) 0.000567 861. 937.
907(40) 0.000625 863. 939.
859(39) 0.000657 866. 942.
952(41) 0.000595 868. 944.
1041(42) 0.000567 871. 947.
979(41) 0.000595 874. 950.
946(40) 0.000625 876. 953.
901(40) 0.000625 879. 956.
948(41) 0.000595 881. 959.
971(41) 0.000595 884. 962.
963(41) 0.000595 887. 965.
929(40) 0.000625 889. 969.
927(40) 0.000625 892. 972.
933(40) 0.000625 895. 975.
1012(42) 0.000567 898. 979.
933(40) 0.000625 900. 983.
919(40) 0.000625 903. 986.
968(41) 0.000595 906. 990.
985(41) 0.000595 908. 994.
987(41) 0.000595 911. 998.
1055(43) 0.000541 914. 1002.
1027(42) 0.000567 917. 1006.
1031(42) 0.000567 920. 1010.
1030(42) . . .
1077(43) . . .
1075(43) . . .
1065(43) . . .
1087(43) . . .
1073(43) . . .
1076(43) . . .
1025(42) . . .
1029(42) . . .
1072(43) . . .
1062(43) . . .
1111(44) . . .
1075(43) . . .
1074(43) . . .
1022(42) . . .
1048(42) . . .
1064(43) . . .
1051(42) . . .
1052(42) . . .
1081(43) . . .
1032(42) . . .
1086(43) . . .
1165(45) . . .
1171(45) . . .
1096(43) . . .
1090(43) . . .
1134(44) . . .
1121(44) . . .
1168(45) . . .
1082(43) . . .
1103(43) . . .
1129(44) . . .
1085(43) . . .
1109(44) . . .
1174(45) . . .
1117(44) . . .
1136(44) . . .
1139(44) . . .
1244(46) . . .
1215(45) . . .
1148(44) . . .
1148(44) . . .
1177(45) . . .
1132(44) . . .
1097(43) . . .
1146(44) . . .
loop_
_gsas_i100_meas
100.00
31.03
38.90
0.93
0.13
1.23
2.66
2.39
2.67
0.09
6.61
3.71
0.39
0.03
5.44
1.40
4.33
0.85
3.56
5.04
0.32
0.30
0.23
0.06
0.30
0.59
0.78
0.66
3.44
3.14
1.77
1.82
1.06
4.71
0.58
0.46
0.02
3.40
1.13
0.08
0.74
0.00
0.41
0.28
0.29
0.47
1.29
0.22
0.46
0.41
0.04
0.67
1.97
0.01
1.16
0.69
0.33
1.06
2.19
0.02
0.60
0.38
1.48
0.02
0.31
0.00
0.11
0.00
0.20
1.33
0.13
0.26
0.48
1.18
0.47
1.30
0.46
0.33
0.15
0.00
0.41
0.78
0.53
0.53
0.01
0.10
0.03
0.13
0.10
0.02
0.32
0.03
0.06
0.18
1.91
0.56
0.83
2.33
0.27
0.59
0.13
0.05
0.66
0.22
0.94
1.03
0.01
1.02
0.13
0.01
0.08
0.00
0.05
0.80
0.08
0.24
0.13
0.04
1.35
0.78
0.34
0.28
0.02
0.09
2.52
0.12
0.06
0.59
0.02
0.93
0.02
0.29
0.00
1.80
0.24
0.02
0.00
0.11
0.01
0.31
0.01
0.42
0.01
0.01
0.67
0.15
0.53
0.01
0.39
0.00
0.33
0.65
0.36
0.25
0.20
0.62
0.41
0.25
0.18
0.00
0.09
0.01
0.20
0.43
0.03
0.15
0.01
0.63
0.54
0.26
0.19
0.00
0.02
0.01
0.01
0.28
0.02
0.24
2.87
0.39
0.08
0.03
0.11
0.62
0.17
0.07
0.41
0.01
0.06
0.18
0.15
0.03
0.01
0.13
0.22
0.07
0.13
0.18
0.06
0.29
0.18
0.05
0.41
0.30
0.42
0.03
0.01
0.00
0.21
0.01
0.36
0.10
0.01
0.14
0.75
0.00
0.02
1.78
0.04
0.00
0.02
0.20
0.98
1.42
0.40
0.09
0.04
0.02
0.39
0.11
0.00
0.08
0.33
1.08
0.12
0.35
0.00
0.08
0.20
0.34
0.06
0.01
0.09
0.00
0.00
0.00
0.35
0.23
0.67
0.18
1.14
0.46
0.48
0.00
0.01
0.73
0.01
0.08
1.06
0.01
0.29
0.00
0.10
0.09
0.01
1.50
0.07
0.05
1.98
0.11
0.00
0.16
0.01
0.33
0.08
0.04
0.51
0.01
0.30
0.01
0.00
0.27
0.30
0.06
0.01
1.19
0.31
0.71
0.72
0.34
0.51
0.01
0.11
0.20
0.00
0.13
0.17
0.49
0.02
0.09
0.01
0.13
1.18
0.23
0.83
0.12
0.52
0.88
0.06
0.08
0.02
0.50
0.02
0.03
0.26
0.02
0.03
0.00
0.00
0.03
0.11
0.80
0.22
0.20
0.07
0.03
0.00
0.81
0.32
1.21
2.05
0.25
0.00
0.17
0.00
0.49
0.61
0.03
0.24
0.24
0.25
0.87
0.00
0.23
0.35
0.00
0.07
0.27
0.06
0.13
0.31
0.47
1.41
0.27
0.02
0.01
0.15
0.31
0.00
0.96
0.00
0.41
0.55
0.16
0.01
0.18
0.07
0.29
0.01
0.24
1.71
1.00
0.01
0.01
0.61
0.13
0.33
0.00
0.69
0.37
0.27
0.62
0.08
0.32
0.02
0.03
0.08
0.11
0.15
0.01
0.69
0.12
0.18
0.06
0.83
1.26
1.25
0.04
0.55
0.04
0.16
0.44
0.36
0.03
0.02
0.11
0.06
0.85
0.42
0.01
0.05
0.05
0.11
0.59
0.08
0.04
0.68
0.04
0.44
0.45
0.48
0.15
0.00
0.03
0.15
0.00
0.02
0.01
0.00
0.13
0.00
0.34
0.27
0.02
0.12
0.02
0.50
0.01
0.02
0.26
0.11
0.16
0.42
0.06
0.01
0.01
0.02
0.17
0.00
0.37
1.65
0.44
0.80
0.33
0.05
0.63
0.05
0.33
0.02
0.53
0.15
0.03
0.62
0.65
0.03
0.03
0.04
0.59
0.12
0.58
1.06
0.17
0.09
1.55
0.08
0.14
0.05
0.24
0.28
0.36
0.00
0.03
1.02
1.08
0.34
0.24
0.35
0.48
0.28
0.24
0.43
0.06
0.16
0.29
0.01
0.53
0.00
0.28
0.01
1.16
0.15
1.36
0.27
0.01
0.03
0.35
0.27
0.07
0.35
0.00
0.00
0.00
0.03
0.00
0.02
0.91
0.31
0.04
0.17
0.15
0.14
1.22
1.29
0.46
0.00
0.03
0.04
0.21
0.04
0.01
1.17
1.07
0.06
1.94
0.00
0.30
0.12
0.47
0.85
0.17
0.21
2.16
0.09
0.00
0.26
0.70
0.27
0.16
0.44
0.01
0.05
0.09
0.09
0.15
0.08
0.14
0.55
0.58
0.49
0.11
0.74
1.22
0.16
0.05
0.00
0.05
0.77
0.39
0.40
0.12
0.31
0.08
0.00
0.00
0.36
0.10
1.46
0.31
0.06
0.33
1.26
0.51
0.00
1.71
0.11
0.02
0.32
0.01
0.00
1.35
0.75
0.70
0.00
0.35
0.33
0.38
0.04
0.03
1.11
0.43
0.16
0.01
0.01
5.52
0.47
0.02
0.46
0.09
0.47
0.20
0.34
0.15
0.11
4.82
0.01
0.03
0.38
0.00
0.70
0.09
2.52
0.62
0.86
0.80
0.15
0.04
0.00
0.54
1.48
0.60
0.01
0.18
0.34
0.82
0.58
2.97
0.02
0.81
0.01
