#------------------------------------------------------------------------------
#$Date: 2019-11-14 09:28:08 +0200 (Thu, 14 Nov 2019) $
#$Revision: 227760 $
#$URL: file:///home/coder/svn-repositories/cod/cif/1/55/28/1552899.cif $
#------------------------------------------------------------------------------
#
# This file is available in the Crystallography Open Database (COD),
# http://www.crystallography.net/
#
# All data on this site have been placed in the public domain by the
# contributors.
#
data_1552899
loop_
_publ_author_name
'Asgari, Mehrdad'
'Jawahery, Sudi'
'Bloch, Eric D.'
'Hudson, Matthew R.'
'Flacau, Roxana'
'Vlaisavljevich, Bess'
'Long, Jeffrey R.'
'Brown, Craig M.'
'Queen, Wendy L.'
_publ_section_title
;
 An experimental and computational study of CO<sub>2</sub> adsorption in
 the sodalite-type M-BTT (M = Cr, Mn, Fe, Cu) metal-organic frameworks
 featuring open metal sites.
;
_journal_issue                   20
_journal_name_full               'Chemical science'
_journal_page_first              4579
_journal_page_last               4588
_journal_paper_doi               10.1039/c8sc00971f
_journal_volume                  9
_journal_year                    2018
_chemical_formula_sum            'C28.51 Cl Fe5.24 N32 O4.74'
_chemical_formula_weight         1194.78
_space_group_IT_number           221
_space_group_name_Hall           '-P 4 2 3'
_space_group_name_H-M_alt        'P m -3 m'
_symmetry_cell_setting           cubic
_symmetry_space_group_name_Hall  '-P 4 2 3'
_symmetry_space_group_name_H-M   'P m -3 m'
_audit_creation_date             2016-03-08T12:39
_audit_creation_method           'from EXP file using GSAS2CIF'
_audit_update_record
;
2017-10-25 deposited with the CCDC.
2018-04-23 downloaded from the CCDC.
;
_cell_angle_alpha                90.0
_cell_angle_beta                 90.0
_cell_angle_gamma                90.0
_cell_formula_units_Z            3
_cell_length_a                   18.80041(11)
_cell_length_b                   18.80041
_cell_length_c                   18.80041
_cell_measurement_temperature    100
_cell_volume                     6645.11(4)
_computing_structure_refinement  GSAS
_diffrn_ambient_temperature      100
_diffrn_measurement_device_type  17-BM
_diffrn_radiation_polarisn_ratio 0.95
_diffrn_radiation_probe          x-ray
_diffrn_radiation_wavelength     0.61072
_exptl_absorpt_correction_T_max  1.00000
_exptl_absorpt_correction_T_min  1.00000
_exptl_absorpt_process_details
;   GSAS Absorption/surface roughness correction: function number 0
 No correction is applied.
;
_pd_block_id                     2016-03-08T12:39|FINAL|blah|17BM
_pd_calc_method                  'Rietveld Refinement'
_pd_instr_location               ' ?'
_pd_meas_2theta_range_inc        0.0072
_pd_meas_2theta_range_max        35.9964
_pd_meas_2theta_range_min        0.0108
_pd_meas_number_of_points        4999
_pd_phase_name
'from Z:/Users/wendyqueen/Desktop/research/Gas Storage Research/Jef'
_pd_proc_2theta_range_inc        0.0072
_pd_proc_2theta_range_max        35.99413
_pd_proc_2theta_range_min        0.00853
_pd_proc_info_datetime           2016-03-08T12:39:00
_pd_proc_info_excluded_regions   ' ?'
_pd_proc_ls_background_function
;   GSAS Background function number 1 with 32 terms.
 Shifted Chebyshev function of 1st kind
      1:    7968.44     2:   -6915.90     3:    2832.16     4:   -787.614    
      5:   -192.508     6:   -155.474     7:    660.745     8:   -540.162    
      9:    127.716    10:    214.669    11:   -460.023    12:    208.526    
     13:   -16.7118    14:   -108.416    15:    80.7819    16:   -47.9302    
     17:   -9.22506    18:   -37.5550    19:    76.0069    20:   -132.787    
     21:    124.008    22:   -91.7071    23:    31.9891    24:    20.5344    
     25:   -28.0893    26:    42.7098    27:   -16.2578    28:    33.1962    
     29:   -75.9283    30:    78.3085    31:   -43.1458    32:    19.0254    
;
_pd_proc_ls_peak_cutoff          0.00100
_pd_proc_ls_profile_function
;
 CW Profile function number 3 with  19 terms
 Pseudovoigt profile coefficients as parameterized in
 P. Thompson, D.E. Cox & J.B. Hastings (1987). J. Appl. Cryst.,20,79-83.
 Asymmetry correction of L.W. Finger, D.E. Cox & A. P. Jephcoat (1994).
 J. Appl. Cryst.,27,892-900.
 #1(GU)   =  207.010 #2(GV)   =  -17.288 #3(GW)   =    3.999
 #4(GP)   =    0.897 #5(LX)   =    0.161 #6(LY)   =   22.980
 #7(S/L)  =   0.0005 #8(H/L)  =   0.0005
 #9(trns) =     0.00 #10(shft)=   0.0000
 #11(stec)=     0.00 #12(ptec)=     0.00 #13(sfec)=     0.00
 #14(L11) =    0.000 #15(L22) =    0.000 #16(L33) =    0.000
 #17(L12) =    0.000 #18(L13) =    0.000 #19(L23) =    0.000
 Peak tails are ignored  where the intensity is below 0.0010 times the peak
   Aniso. broadening axis   0.0   0.0   1.0
;
_pd_proc_ls_prof_R_factor        0.0213
_pd_proc_ls_prof_wR_expected     0.0091
_pd_proc_ls_prof_wR_factor       0.0289
_pd_proc_number_of_points        4999
_pd_spec_mounting                ' ?'
_refine_ls_goodness_of_fit_all   3.20
_refine_ls_matrix_type           full
_refine_ls_number_parameters     30
_refine_ls_number_restraints     6
_refine_ls_R_Fsqd_factor         0.05319
_refine_ls_shift/su_max          0.04
_refine_ls_shift/su_mean         0.01
_reflns_d_resolution_high        1.002
_reflns_d_resolution_low         18.800
_reflns_limit_h_max              19
_reflns_limit_h_min              1
_reflns_limit_k_max              13
_reflns_limit_k_min              0
_reflns_limit_l_max              11
_reflns_limit_l_min              0
_reflns_number_total             755
_cod_data_source_file            c8sc00971f3.cif
_cod_data_source_block           FINAL_publ_CCDC1
_cod_depositor_comments
;
The following automatic conversions were performed:

'_geom_bond_publ_flag' value 'N' changed to 'n' according to
/home/data/users/saulius/crontab/automatic-downloads/current/RSC/lib/dictionaries/cif_core.dic
dictionary named 'cif_core.dic' version 2.4.2 from 2011-04-26 (42
times).

'_geom_angle_publ_flag' value 'N' changed to 'n' according to
/home/data/users/saulius/crontab/automatic-downloads/current/RSC/lib/dictionaries/cif_core.dic
dictionary named 'cif_core.dic' version 2.4.2 from 2011-04-26 (30
times).

Automatic conversion script
Id: cif_fix_values 5376 2017-05-30 11:51:03Z andrius 
;
_cod_original_cell_volume        6645.10(11)
_cod_database_code               1552899
_gsas_exptl_extinct_corr_t_min   1.00000
_gsas_exptl_extinct_corr_t_max   1.00000
loop_
_symmetry_equiv_pos_site_id
_symmetry_equiv_pos_as_xyz
1 +x,+y,+z
2 +z,+x,+y
3 +y,+z,+x
4 +x,+y,-z
5 -z,+x,+y
6 +y,-z,+x
7 -z,+x,-y
8 -y,-z,+x
9 +y,-z,-x
10 -x,+y,-z
11 -z,-x,+y
12 +x,-y,-z
13 +y,+x,+z
14 +z,+y,+x
15 +x,+z,+y
16 +y,+x,-z
17 -z,+y,+x
18 +x,-z,+y
19 -z,+y,-x
20 -x,-z,+y
21 +x,-z,-y
22 -y,+x,-z
23 -z,-y,+x
24 +y,-x,-z
-1 -x,-y,-z
-2 -z,-x,-y
-3 -y,-z,-x
-4 -x,-y,+z
-5 +z,-x,-y
-6 -y,+z,-x
-7 +z,-x,+y
-8 +y,+z,-x
-9 -y,+z,+x
-10 +x,-y,+z
-11 +z,+x,-y
-12 -x,+y,+z
-13 -y,-x,-z
-14 -z,-y,-x
-15 -x,-z,-y
-16 -y,-x,+z
-17 +z,-y,-x
-18 -x,+z,-y
-19 +z,-y,+x
-20 +x,+z,-y
-21 -x,+z,+y
-22 +y,-x,+z
-23 +z,+y,-x
-24 -y,+x,+z
loop_
_atom_site_type_symbol
_atom_site_label
_atom_site_fract_x
_atom_site_fract_y
_atom_site_fract_z
_atom_site_occupancy
_atom_site_thermal_displace_type
_atom_site_U_iso_or_equiv
_atom_site_symmetry_multiplicity
Fe Fe1 0.13601(10) 0.5 0.0 1.0 Uiso 0.0183(4) 12
C C1 0.1498(4) 0.3341(5) -0.1498(4) 1.0 Uiso 0.0477(23) 24
C C2 0.1810(4) 0.2701(4) -0.1810(4) 1.0 Uiso 0.0477(23) 24
C C3 0.23970(34) 0.23970(34) -0.1468(4) 1.0 Uiso 0.0477(23) 24
Cl Cl1 0.0 0.5 0.0 1.0 Uiso 0.0153(23) 3
N N1 0.12935(14) 0.42012(20) -0.07952(16) 1.0 Uiso 0.0191(11) 48
N N2 0.17459(24) 0.36607(23) -0.09201(23) 1.0 Uiso 0.0191(11) 48
Fe Fe3 0.2447(24) 0.0 0.0 0.1137(23) Uiso 0.28059 6
O Os 0.2578(5) 0.5 0.0 1.0 Uiso 0.09725 12
C Cs 0.3180(6) 0.5 0.0491(7) 0.5 Uiso 0.09725 24
O Os2 0.3698(30) 0.3698(30) 0.0 0.1272(13) Uiso 0.12388 12
C Cs2 0.4194(22) 0.4194(22) -0.031(8) 0.0636(7) Uiso 0.12388 24
O Os3 -0.086(5) 0.0 0.0 0.1137(23) Uiso 0.28059 6
Fe Fe2 0.2523(8) 0.3619(7) 0.0 0.1272(13) Uiso 0.12388 24
loop_
_atom_type_symbol
_atom_type_number_in_cell
_atom_type_scat_dispersion_real
_atom_type_scat_dispersion_imag
_atom_type_scat_Cromer_Mann_a1
_atom_type_scat_Cromer_Mann_a2
_atom_type_scat_Cromer_Mann_a3
_atom_type_scat_Cromer_Mann_a4
_atom_type_scat_Cromer_Mann_b1
_atom_type_scat_Cromer_Mann_b2
_atom_type_scat_Cromer_Mann_b3
_atom_type_scat_Cromer_Mann_b4
_atom_type_scat_Cromer_Mann_c
_atom_type_scat_source
Fe 15.735 0.000 0.000 11.7695 4.76110 7.35730 0.30720 3.52220 15.3535 2.30450
76.8805 1.03690 International_Tables_Vol_C
C 85.526 0.000 0.000 2.31000 20.8439 1.02000 10.2075 1.58860 0.56870 0.86500
51.6512 0.21560 International_Tables_Vol_C
Cl 3.0 0.000 0.000 11.4604 0.01040 7.19640 1.16620 6.25560 18.5194 1.64550
47.7784 -9.5574 International_Tables_Vol_C
N 96.0 0.000 0.000 12.2126 0.00570 3.13220 9.89330 2.01250 28.9975 1.16630
0.58260 -11.529 International_Tables_Vol_C
H 0.0 0.000 0.000 0.49300 10.5109 0.32291 26.1257 0.14019 3.14236 0.04081
57.7997 0.00304 International_Tables_Vol_C
O 14.208 0.000 0.000 3.04850 13.2771 2.28680 5.70110 1.54630 0.32390 0.86700
32.9089 0.25080 International_Tables_Vol_C
loop_
_geom_angle_atom_site_label_1
_geom_angle_atom_site_label_2
_geom_angle_atom_site_label_3
_geom_angle
_geom_angle_site_symmetry_1
_geom_angle_site_symmetry_3
_geom_angle_publ_flag
Cl1 Fe1 N1 86.62(10) 1_555 1_555 n
Cl1 Fe1 N1 86.62(10) 1_555 4_555 n
Cl1 Fe1 N1 86.62(10) 1_555 12_565 n
Cl1 Fe1 N1 86.62(10) 1_555 -10_565 n
N1 Fe1 N1 89.54(22) 1_555 4_555 n
N1 Fe1 N1 173.24(21) 1_555 12_565 n
N1 Fe1 N1 90.06(21) 1_555 -10_565 n
N1 Fe1 N1 90.06(21) 4_555 12_565 n
N1 Fe1 N1 173.24(21) 4_555 -10_565 n
N1 Fe1 N1 89.54(22) 12_565 -10_565 n
C2 C1 N2 124.1(4) 1_555 1_555 n
C2 C1 N2 124.1(4) 1_555 19_555 n
N2 C1 N2 111.7(8) 1_555 19_555 n
C1 C2 C3 117.93(26) 1_555 1_555 n
C1 C2 C3 117.93(26) 1_555 7_555 n
C3 C2 C3 123.9(5) 1_555 7_555 n
C2 C3 C2 115.7(5) 1_555 9_555 n
Fe1 Cl1 Fe1 180.0 1_555 10_555 n
Fe1 Cl1 Fe1 90.0 1_555 14_555 n
Fe1 Cl1 Fe1 90.0 1_555 19_555 n
Fe1 Cl1 Fe1 90.0 10_555 14_555 n
Fe1 Cl1 Fe1 90.0 10_555 19_555 n
Fe1 Cl1 Fe1 180.0 14_555 19_555 n
Fe1 N1 N1 122.66(8) 1_555 19_555 n
Fe1 N1 N2 128.30(23) 1_555 1_555 n
N1 N1 N2 108.88(21) 19_555 1_555 n
C1 N2 N1 105.3(5) 1_555 1_555 n
Cs Os Cs 78.4(13) 1_555 4_555 n
Cs2 Os2 Cs2 47(14) 1_555 4_555 n
Os2 Cs2 Cs2 66(7) 1_555 4_555 n
loop_
_geom_bond_atom_site_label_1
_geom_bond_atom_site_label_2
_geom_bond_distance
_geom_bond_site_symmetry_2
_geom_bond_publ_flag
Fe1 Cl1 2.5570(18) 1_555 n
Fe1 N1 2.1228(29) 1_555 n
Fe1 N1 2.1228(29) 4_555 n
Fe1 N1 2.1228(29) 12_565 n
Fe1 N1 2.1228(29) -10_565 n
Fe1 Os 2.290(9) 1_555 n
C1 C2 1.461(7) 1_555 n
C1 N1 2.124(7) 1_555 n
C1 N1 2.124(7) 19_555 n
C1 N2 1.326(4) 1_555 n
C1 N2 1.326(4) 19_555 n
C2 C1 1.461(7) 1_555 n
C2 C3 1.4000(30) 1_555 n
C2 C3 1.4000(30) 7_555 n
C3 C2 1.4000(30) 1_555 n
C3 C2 1.4000(30) 9_555 n
Cl1 Fe1 2.5570(18) 1_555 n
Cl1 Fe1 2.5570(18) 10_555 n
Cl1 Fe1 2.5570(18) 14_555 n
Cl1 Fe1 2.5570(18) 19_555 n
N1 Fe1 2.1228(29) 1_555 n
N1 C1 2.124(7) 1_555 n
N1 N1 1.325(4) 19_555 n
N1 N2 1.346(5) 1_555 n
N2 C1 1.326(4) 1_555 n
N2 N1 1.346(5) 1_555 n
N2 Fe2 2.266(10) 1_555 n
Os Fe1 2.290(9) 1_555 n
Os Cs 1.461(9) 1_555 n
Os Cs 1.461(9) 4_555 n
Cs Os 1.461(9) 1_555 n
Cs Cs 1.846(28) 4_555 n
Os2 Cs2 1.439(10) 1_555 n
Os2 Cs2 1.439(10) 4_555 n
Os2 Fe2 2.21(6) 1_555 n
Os2 Fe2 2.21(6) 13_555 n
Cs2 Os2 1.439(10) 1_555 n
Cs2 Cs2 1.15(32) 4_555 n
Fe2 N2 2.266(10) 1_555 n
Fe2 N2 2.266(10) 4_555 n
Fe2 Os2 2.21(6) 1_555 n
Fe2 Fe2 2.915(33) 13_555 n
loop_
_pd_meas_counts_total
_pd_proc_ls_weight
_pd_proc_intensity_bkg_calc
_pd_calc_intensity_total
0.0 0.0 -22254898.00000 .
0.0 0.0 -21615424.00000 .
0.0 0.0 -20992742.00000 .
0.0 0.0 -20386448.00000 .
0.0 0.0 -19796138.00000 .
0.0 0.0 -19221422.00000 .
0.0 0.0 -18661948.00000 .
0.0 0.0 -18117314.00000 .
0.0 0.0 -17587190.00000 .
0.0 0.0 -17071212.00000 .
0.0 0.0 -16569032.00000 .
0.0 0.0 -16080317.00000 .
0.0 0.0 -15604730.00000 .
0.0 0.0 -15141957.00000 .
0.0 0.0 -14691682.00000 .
0.0 0.0 -14253594.00000 .
0.0 0.0 -13827398.00000 .
0.0 0.0 -13412798.00000 .
0.0 0.0 -13009501.00000 .
0.0 0.0 -12617231.00000 .
0.0 0.0 -12235709.00000 .
0.0 0.0 -11864678.00000 .
0.0 0.0 -11503858.00000 .
0.0 0.0 -11153012.00000 .
0.0 0.0 -10811874.00000 .
0.0 0.0 -10480208.00000 .
0.0 0.0 -10157774.00000 .
0.0 0.0 -9844334.00000 .
0.0 0.0 -9539665.00000 .
0.0 0.0 -9243539.00000 .
0.0 0.0 -8955742.00000 .
0.0 0.0 -8676068.00000 .
0.0 0.0 -8404284.00000 .
0.0 0.0 -8140216.50000 .
0.0 0.0 -7883657.50000 .
0.0 0.0 -7634403.50000 .
0.0 0.0 -7392278.50000 .
0.0 0.0 -7157093.50000 .
0.0 0.0 -6928664.50000 .
0.0 0.0 -6706823.00000 .
0.0 0.0 -6491387.00000 .
0.0 0.0 -6282195.50000 .
0.0 0.0 -6079082.50000 .
0.0 0.0 -5881889.50000 .
0.0 0.0 -5690463.00000 .
0.0 0.0 -5504644.50000 .
0.0 0.0 -5324290.50000 .
0.0 0.0 -5149253.00000 .
0.0 0.0 -4979391.00000 .
0.0 0.0 -4814566.50000 .
0.0 0.0 -4654644.00000 .
0.0 0.0 -4499493.00000 .
0.0 0.0 -4348984.50000 .
0.0 0.0 -4202991.00000 .
0.0 0.0 -4061397.25000 .
0.0 0.0 -3924076.75000 .
0.0 0.0 -3790912.50000 .
0.0 0.0 -3661798.50000 .
0.0 0.0 -3536616.75000 .
0.0 0.0 -3415261.50000 .
0.0 0.0 -3297632.00000 .
0.0 0.0 -3183617.00000 .
0.0 0.0 -3073123.75000 .
0.0 0.0 -2966053.50000 .
0.0 0.0 -2862307.00000 .
0.0 0.0 -2761793.75000 .
0.0 0.0 -2664423.75000 .
0.0 0.0 -2570111.00000 .
0.0 0.0 -2478764.25000 .
0.0 0.0 -2390303.75000 .
0.0 0.0 -2304647.25000 .
0.0 0.0 -2221712.25000 .
0.0 0.0 -2141424.75000 .
0.0 0.0 -2063709.12500 .
0.0 0.0 -1988489.25000 .
0.0 0.0 -1915695.25000 .
0.0 0.0 -1845256.00000 .
0.0 0.0 -1777104.25000 .
0.0 0.0 -1711173.50000 .
0.0 0.0 -1647399.37500 .
0.0 0.0 -1585717.37500 .
0.0 0.0 -1526068.37500 .
0.0 0.0 -1468391.87500 .
0.0 0.0 -1412629.87500 .
0.0 0.0 -1358726.12500 .
0.0 0.0 -1306622.87500 .
0.0 0.0 -1256271.25000 .
0.0 0.0 -1207615.50000 .
0.0 0.0 -1160605.37500 .
0.0 0.0 -1115192.00000 .
0.0 0.0 -1071328.62500 .
0.0 0.0 -1028964.37500 .
0.0 0.0 -988056.87500 .
0.0 0.0 -948561.81250 .
0.0 0.0 -910434.87500 .
0.0 0.0 -873634.43750 .
0.0 0.0 -838118.81250 .
0.0 0.0 -803850.43750 .
0.0 0.0 -770789.56250 .
0.0 0.0 -738897.68750 .
0.0 0.0 -708139.00000 .
0.0 0.0 -678479.12500 .
0.0 0.0 -649881.68750 .
0.0 0.0 -622314.43750 .
0.0 0.0 -595744.12500 .
0.0 0.0 -570138.75000 .
0.0 0.0 -545468.12500 .
0.0 0.0 -521701.93750 .
0.0 0.0 -498811.03125 .
0.0 0.0 -476767.71875 .
0.0 0.0 -455544.00000 .
0.0 0.0 -435113.18750 .
0.0 0.0 -415449.59375 .
0.0 0.0 -396527.46875 .
0.0 0.0 -378322.93750 .
0.0 0.0 -360812.03125 .
0.0 0.0 -343972.09375 .
0.0 0.0 -327780.12500 .
0.0 0.0 -312214.68750 .
0.0 0.0 -297254.62500 .
0.0 0.0 -282879.87500 .
0.0 0.0 -269069.68750 .
0.0 0.0 -255805.65625 .
0.0 0.0 -243068.98438 .
0.0 0.0 -230840.67188 .
0.0 0.0 -219104.17188 .
0.0 0.0 -207841.89063 .
0.0 0.0 -197037.26563 .
0.0 0.0 -186674.62500 .
0.0 0.0 -176738.06250 .
0.0 0.0 -167212.40625 .
0.0 0.0 -158083.37500 .
0.0 0.0 -149336.57813 .
0.0 0.0 -140958.43750 .
0.0 0.0 -132935.35938 .
0.0 0.0 -125254.94531 .
0.0 0.0 -117904.34375 .
0.0 0.0 -110871.39844 .
0.0 0.0 -104144.68750 .
0.0 0.0 -97712.65625 .
0.0 0.0 -91564.44531 .
0.0 0.0 -85689.39844 .
0.0 0.0 -80077.15625 .
28678.0 0.0 -74717.83594 .
28478.0 0.0 -69601.87500 .
28408.0 0.0 -64719.93359 .
28319.0 0.0 -60062.68750 .
27990.0 0.0 -55621.98828 .
27719.0 0.0 -51389.00781 .
27532.0 0.0 -47355.69531 .
27371.0 0.0 -43514.14453 .
27093.0 0.0 -39856.81250 .
26722.0 0.0 -36376.26563 .
26513.0 0.0 -33065.57422 .
26387.0 0.0 -29917.64063 .
26202.0 0.0 -26925.85547 .
26029.0 0.0 -24083.89258 .
25915.0 0.0 -21385.62109 .
25786.0 0.0 -18824.97656 .
25585.0 0.0 -16396.26953 .
25417.0 0.0 -14093.98535 .
25220.0 0.0 -11912.55762 .
25041.0 0.0 -9846.96191 .
24842.0 0.0 -7892.16455 .
24685.0 0.0 -6043.38721 .
24515.0 0.0 -4295.97559 .
24351.0 0.0 -2645.53540 .
24164.0 0.0 -1087.62805 .
23996.0 0.0 381.82666 .
23829.0 0.0 1766.87146 .
23664.0 0.0 3071.28467 .
23493.0 0.0 4298.83496 .
23360.0 0.0 5453.00684 .
23202.0 0.0 6537.29053 .
23072.0 0.0 7554.98096 .
22924.0 0.0 8509.24121 .
22817.0 0.0 9403.13965 .
22695.0 0.0 10239.57813 .
22585.0 0.0 11021.40723 .
22445.0 0.0 11751.31152 .
22335.0 0.0 12431.90918 .
22194.0 0.0 13065.64844 .
22101.0 0.0 13655.00586 .
21969.0 0.0 14202.23438 .
21868.0 0.0 14709.54883 .
21780.0 0.0 15179.05371 .
21674.0 0.0 15612.77930 .
21572.0 0.0 16012.68750 .
21476.0 0.0 16380.61426 .
21367.0 0.0 16718.35547 .
21267.0 0.0 17027.61523 .
21155.0 0.0 17310.02344 .
21067.0 0.0 17567.14453 .
20950.0 0.0 17800.46680 .
20866.0 0.0 18011.42188 .
20728.0 0.0 18201.37305 .
20681.0 0.0 18371.61719 .
20601.0 0.0 18523.39648 .
20523.0 0.0 18657.89844 .
20438.0 0.0 18776.25195 .
20376.0 0.0 18879.52930 .
20306.0 0.0 18968.75781 .
20224.0 0.0 19044.91406 .
20158.0 0.0 19108.92383 .
20111.0 0.0 19161.67578 .
20082.0 0.0 19204.00195 .
20015.0 0.0 19236.70313 .
19966.0 0.0000501 19260.53320 19588.69336
19943.0 0.0000501 19276.21094 19617.74609
19875.0 0.0000503 19284.41211 19640.15625
19838.0 0.0000504 19285.78320 19656.64063
19795.0 0.0000505 19280.92969 19667.88086
19786.0 0.0000505 19270.42969 19674.54297
19760.0 0.0000506 19254.82422 19677.26563
19722.0 0.0000507 19234.62695 19676.66797
19694.0 0.0000508 19210.32031 19673.35352
19669.0 0.0000508 19182.36133 19667.91406
19649.0 0.0000509 19151.17578 19660.92773
19601.0 0.0000510 19117.16602 19652.96680
19578.0 0.0000511 19080.71094 19644.60156
19552.0 0.0000511 19042.16406 19636.40430
19526.0 0.0000512 19001.85352 19628.95313
19483.0 0.0000513 18960.09375 19622.84570
19459.0 0.0000514 18917.16797 19618.68945
19444.0 0.0000514 18873.34961 19617.12695
19424.0 0.0000515 18828.88477 19618.83789
19410.0 0.0000515 18784.00781 19624.55273
19401.0 0.0000515 18738.93164 19635.06055
19414.0 0.0000515 18693.85352 19651.23828
19421.0 0.0000515 18648.95898 19674.06250
19427.0 0.0000515 18604.41406 19704.63477
19443.0 0.0000514 18560.37305 19744.22070
19472.0 0.0000514 18516.97461 19794.28711
19512.0 0.0000513 18474.34570 19856.54883
19523.0 0.0000512 18432.59961 19933.04492
19594.0 0.0000510 18391.84375 20026.22656
19660.0 0.0000509 18352.16992 20139.05859
19730.0 0.0000507 18313.65820 20275.17578
19807.0 0.0000505 18276.38086 20439.08789
19937.0 0.0000502 18240.40234 20636.46875
20108.0 0.0000497 18205.77539 20874.59375
20331.0 0.0000492 18172.54883 21163.23828
20707.0 0.0000483 18140.75781 21516.90430
21268.0 0.0000470 18110.43359 21961.51172
22244.0 0.0000450 18081.60156 22554.27734
23749.0 0.0000421 18054.27734 23438.19727
26302.0 0.0000380 18028.47266 24973.91406
30779.0 0.0000325 18004.19336 28011.61719
38790.0 0.0000258 17981.44141 34350.86719
52348.0 0.0000191 17960.20898 47321.47266
74576.0 0.0000134 17940.49023 72161.99219
116491.0 8.58e-6 17922.26953 115558.64844
178928.0 5.59e-6 17905.52930 183649.15625
267963.0 3.73e-6 17890.25000 278397.28125
382225.0 2.616e-6 17876.40430 393532.21875
507125.0 1.972e-6 17863.96680 512396.96875
612136.0 1.634e-6 17852.90625 609878.31250
667123.0 1.499e-6 17843.18750 659459.18750
665081.0 1.504e-6 17834.77930 645209.00000
594005.0 1.683e-6 17827.63867 571895.12500
475923.0 2.101e-6 17821.73047 461699.59375
353844.0 2.826e-6 17817.00977 341747.56250
237486.0 4.21e-6 17813.43750 234028.28125
149939.0 6.67e-6 17810.96484 150645.40625
97411.0 0.0000103 17809.54883 93853.62500
64005.0 0.0000156 17809.14453 59356.72266
45610.0 0.0000219 17809.70117 40418.04688
34189.0 0.0000292 17811.17383 30838.32031
27927.0 0.0000358 17813.51172 26218.87500
24509.0 0.0000408 17816.66602 23964.74414
22387.0 0.0000447 17820.58984 22757.11719
21091.0 0.0000474 17825.23242 22003.56250
20388.0 0.0000490 17830.54297 21461.65039
19914.0 0.0000502 17836.47461 21036.00977
19625.0 0.0000510 17842.97656 20686.95703
19455.0 0.0000514 17850.00000 20394.87695
19313.0 0.0000518 17857.49609 20147.76172
19213.0 0.0000520 17865.41797 19937.08594
19151.0 0.0000522 17873.71680 19756.35156
19083.0 0.0000524 17882.34570 19600.45703
19065.0 0.0000525 17891.25977 19465.32813
19026.0 0.0000526 17900.41016 19347.68164
18976.0 0.0000527 17909.75586 19244.85156
18986.0 0.0000527 17919.24805 19154.63477
18976.0 0.0000527 17928.84570 19075.22070
18964.0 0.0000527 17938.50781 19005.10352
18992.0 0.0 17948.19141 .
19014.0 0.0 17957.85547 .
19043.0 0.0 17967.46289 .
19074.0 0.0 17976.97266 .
19129.0 0.0 17986.34766 .
19182.0 0.0 17995.55469 .
19267.0 0.0 18004.55469 .
19281.0 0.0 18013.31641 .
19355.0 0.0 18021.80664 .
19427.0 0.0 18029.99023 .
19480.0 0.0 18037.84180 .
19519.0 0.0 18045.33008 .
19593.0 0.0 18052.42578 .
19667.0 0.0 18059.10352 .
19741.0 0.0 18065.33594 .
19786.0 0.0 18071.10156 .
19838.0 0.0 18076.37305 .
19911.0 0.0 18081.13086 .
19987.0 0.0 18085.35352 .
20004.0 0.0 18089.02148 .
20101.0 0.0 18092.11328 .
20155.0 0.0 18094.61523 .
20233.0 0.0 18096.50781 .
20261.0 0.0 18097.77930 .
20350.0 0.0 18098.41211 .
20394.0 0.0 18098.39258 .
20468.0 0.0 18097.71289 .
20454.0 0.0 18096.35938 .
20511.0 0.0 18094.32227 .
20567.0 0.0 18091.59180 .
20566.0 0.0 18088.16211 .
20532.0 0.0 18084.02539 .
20563.0 0.0 18079.17578 .
20550.0 0.0 18073.60938 .
20547.0 0.0 18067.31836 .
20472.0 0.0 18060.30469 .
20468.0 0.0 18052.56250 .
20444.0 0.0 18044.09180 .
20405.0 0.0 18034.89258 .
20310.0 0.0 18024.96289 .
20302.0 0.0 18014.30664 .
20206.0 0.0 18002.92383 .
20143.0 0.0 17990.81641 .
20054.0 0.0 17977.99023 .
19987.0 0.0 17964.44727 .
19919.0 0.0 17950.19336 .
19840.0 0.0 17935.23242 .
19740.0 0.0 17919.57031 .
19692.0 0.0 17903.21680 .
19631.0 0.0 17886.17383 .
19566.0 0.0 17868.45313 .
19492.0 0.0 17850.06250 .
19466.0 0.0000514 17831.00977 19203.93555
19437.0 0.0000514 17811.30273 19292.13672
19427.0 0.0000515 17790.95508 19392.82617
19373.0 0.0000516 17769.97461 19508.21484
19398.0 0.0000516 17748.37109 19640.98828
19416.0 0.0000515 17726.15625 19794.43555
19436.0 0.0000515 17703.34180 19972.62109
19477.0 0.0000513 17679.93945 20180.60742
19563.0 0.0000511 17655.96094 20424.77344
19696.0 0.0000508 17631.41797 20713.32227
19878.0 0.0000503 17606.32422 21057.15820
20166.0 0.0000496 17580.69336 21472.08984
20692.0 0.0000483 17554.53906 21984.93555
21500.0 0.0000465 17527.87109 22651.11914
22920.0 0.0000436 17500.70703 23601.83398
25188.0 0.0000397 17473.05859 25156.25391
29327.0 0.0000341 17444.94141 28050.63477
36557.0 0.0000274 17416.36914 33823.52734
49333.0 0.0000203 17387.35547 45301.63672
69959.0 0.0000143 17357.91602 66930.20313
107497.0 9.30e-6 17328.06445 104413.42969
163912.0 6.10e-6 17297.81445 163126.85938
243808.0 4.10e-6 17267.18750 245118.85938
346189.0 2.889e-6 17236.18750 345713.93750
454797.0 2.199e-6 17204.83984 451385.56250
547364.0 1.827e-6 17173.14844 540858.43750
597337.0 1.674e-6 17141.14258 590310.62500
593102.0 1.686e-6 17108.82227 583767.87500
532555.0 1.878e-6 17076.21680 523469.28125
433685.0 2.306e-6 17043.32813 428219.21875
323975.0 3.087e-6 17010.18164 321997.62500
222268.0 4.50e-6 16976.78320 224634.64063
142775.0 7.00e-6 16943.15625 147649.82813
92578.0 0.0000108 16909.30859 93955.27344
61416.0 0.0000163 16875.26367 60458.26563
43957.0 0.0000227 16841.02344 41493.37109
33228.0 0.0000301 16806.61523 31550.37500
27115.0 0.0000369 16772.04492 26547.80469
23813.0 0.0000420 16737.33008 23986.99609
21718.0 0.0000460 16702.48633 22549.04883
20477.0 0.0000488 16667.52344 21618.11914
19735.0 0.0000507 16632.46094 20932.05859
19238.0 0.0000520 16597.30664 20383.16797
18923.0 0.0000528 16562.07813 19925.13867
18700.0 0.0000535 16526.78516 19534.48828
18526.0 0.0000540 16491.44727 19196.91797
18406.0 0.0000543 16456.07031 18902.21094
18297.0 0.0000547 16420.67383 18642.70898
18205.0 0.0000549 16385.26563 18412.33984
18122.0 0.0000552 16349.86133 18206.34766
18051.0 0.0000554 16314.46875 18020.84766
17964.0 0.0000557 16279.10645 17852.75195
17925.0 0.0000558 16243.78125 17699.48633
17861.0 0.0000560 16208.50586 17558.97656
17807.0 0.0000562 16173.29199 17429.46680
17770.0 0.0000563 16138.15332 17309.52734
17736.0 0.0000564 16103.09570 17596.60352
17714.0 0.0000565 16068.13477 17507.85547
17686.0 0.0000565 16033.27637 17426.47852
17670.0 0.0000566 15998.53711 17351.82227
17663.0 0.0000566 15963.91992 17283.32422
17640.0 0.0000567 15929.44043 17220.54102
17609.0 0.0000568 15895.10254 17163.09570
17593.0 0.0000568 15860.92188 17110.70117
17583.0 0.0000569 15826.90039 17063.11914
17558.0 0.0000570 15793.05371 17020.18945
17552.0 0.0000570 15759.38770 16981.79102
17526.0 0.0000571 15725.90625 16947.85938
17515.0 0.0000571 15692.62500 16918.38477
17500.0 0.0000571 15659.54395 16893.39648
17465.0 0.0000573 15626.67969 16872.98242
17450.0 0.0000573 15594.02734 16857.27148
17426.0 0.0000574 15561.60547 16846.45703
17389.0 0.0000575 15529.41406 16840.78320
17359.0 0.0000576 15497.46289 16840.56055
17344.0 0.0000577 15465.75586 16846.17383
17313.0 0.0000578 15434.30273 16858.07813
17299.0 0.0000578 15403.10254 16876.83789
17283.0 0.0000579 15372.16797 16903.11133
17269.0 0.0000579 15341.49707 16587.05859
17280.0 0.0000579 15311.10254 16643.79492
17262.0 0.0000579 15280.98242 16710.22461
17270.0 0.0000579 15251.14648 16787.73828
17284.0 0.0000579 15221.59277 16878.01367
17311.0 0.0000578 15192.33301 16983.03320
17344.0 0.0000577 15163.36328 17105.22070
17383.0 0.0000575 15134.69531 17247.47656
17435.0 0.0000574 15106.32324 17413.39648
17500.0 0.0000571 15078.25781 17607.35742
17589.0 0.0000569 15050.49609 17834.87109
17682.0 0.0000566 15023.04688 18102.79297
17835.0 0.0000561 14995.90820 18419.94531
18036.0 0.0000554 14969.08203 18797.97852
18338.0 0.0000545 14942.57227 19253.25586
18795.0 0.0000532 14916.37891 19812.47266
19546.0 0.0000512 14890.50488 20527.42188
20829.0 0.0000480 14864.95020 21515.43945
22875.0 0.0000437 14839.71973 23054.11523
26492.0 0.0000377 14814.80859 25777.98242
32960.0 0.0000303 14790.22363 31011.59961
43635.0 0.0000229 14765.95898 41209.98438
63395.0 0.0000158 14742.02148 60287.88672
94561.0 0.0000106 14718.40625 93421.46875
145843.0 6.86e-6 14695.11719 145761.04688
217683.0 4.59e-6 14672.15137 219926.48438
311722.0 3.208e-6 14649.50977 312830.31250
410013.0 2.439e-6 14627.19141 413478.93750
502484.0 1.990e-6 14605.19629 503131.34375
558585.0 1.790e-6 14583.52246 559160.81250
561331.0 1.781e-6 14562.16992 563839.62500
513617.0 1.947e-6 14541.13672 515529.40625
427428.0 2.340e-6 14520.42285 429926.37500
321646.0 3.109e-6 14500.02637 329600.56250
225950.0 4.43e-6 14479.94531 234339.85938
151187.0 6.61e-6 14460.17773 156543.71875
95082.0 0.0000105 14440.72266 100535.49219
62558.0 0.0000160 14421.57910 64440.97656
43462.0 0.0000230 14402.74121 43325.87891
32543.0 0.0000307 14384.21289 31899.26172
25934.0 0.0000386 14365.98340 25992.06445
22239.0 0.0000450 14348.05957 22919.13867
20015.0 0.0000500 14330.43066 21195.44922
18698.0 0.0000535 14313.10059 20097.60742
17865.0 0.0000560 14296.06152 19304.54883
17314.0 0.0000578 14279.31543 18680.85938
16967.0 0.0000589 14262.85449 18185.73242
16694.0 0.0000599 14246.68066 17753.75391
16507.0 0.0000606 14230.78613 17384.95898
16359.0 0.0000611 14215.17090 17067.17383
16215.0 0.0000617 14199.82910 16791.14453
16102.0 0.0000621 14184.76074 16549.74805
16009.0 0.0000625 14169.95898 16337.25293
15908.0 0.0000629 14155.42480 16149.13672
15833.0 0.0000632 14141.14844 15981.66797
15748.0 0.0000635 14127.13281 15831.86621
15683.0 0.0000638 14113.36816 15697.22363
15612.0 0.0000641 14099.85742 15575.71582
15570.0 0.0000642 14086.58984 15465.60938
15494.0 0.0000645 14073.56738 15365.49609
15457.0 0.0000647 14060.78125 15274.14844
15409.0 0.0000649 14048.23242 15190.56934
15356.0 0.0000651 14035.91504 15113.87891
15312.0 0.0000653 14023.82324 15043.33398
15269.0 0.0000655 14011.95508 14978.31445
15235.0 0.0000656 14000.30566 14918.26953
15191.0 0.0000658 13988.87207 14862.74316
15140.0 0.0000661 13977.64844 14811.32910
15105.0 0.0000662 13966.63184 14763.69434
15068.0 0.0000664 13955.81934 14719.54492
15023.0 0.0000666 13945.20410 14678.63770
14966.0 0.0000668 13934.78516 14640.76855
14936.0 0.0000670 13924.55566 14605.77246
14886.0 0.0000672 13914.51270 14573.52246
14851.0 0.0000673 13904.65137 14543.92480
14803.0 0.0000676 13894.96875 14516.92383
14776.0 0.0000677 13885.46094 14492.50586
14746.0 0.0000678 13876.12207 14470.69336
14702.0 0.0000680 13866.94922 14451.56250
14677.0 0.0000681 13857.93848 14435.24512
14649.0 0.0000683 13849.08496 14421.94531
14614.0 0.0000684 13840.38477 14411.95215
14584.0 0.0000686 13831.83496 14004.44043
14567.0 0.0000686 13823.42969 14017.31543
14553.0 0.0000687 13815.16602 14034.70410
14547.0 0.0000687 13807.04102 14058.52637
14563.0 0.0000687 13799.04883 14092.87988
14581.0 0.0000686 13791.18652 14147.24805
14692.0 0.0000681 13783.44824 14243.20508
14857.0 0.0000673 13775.83398 14426.28223
15199.0 0.0000658 13768.33594 14782.65137
15782.0 0.0000634 13760.95410 15454.11426
16817.0 0.0000595 13753.67969 16637.19141
18519.0 0.0000540 13746.51465 18544.67188
20868.0 0.0000479 13739.45117 21319.44141
24233.0 0.0000413 13732.48828 24912.29297
27989.0 0.0000357 13725.61914 28979.13281
31542.0 0.0000317 13718.84375 32851.69531
34219.0 0.0000292 13712.15625 35636.36719
35114.0 0.0000285 13705.55469 36497.80859
34054.0 0.0000294 13699.03320 35134.74609
31232.0 0.0000320 13692.59180 32008.89258
27424.0 0.0000365 13686.22363 28005.88477
23460.0 0.0000426 13679.92871 23985.98633
20147.0 0.0000496 13673.70117 20546.42188
17788.0 0.0000562 13667.54004 17959.45898
16229.0 0.0000616 13661.44043 16219.32715
15263.0 0.0000655 13655.40039 15158.19043
14714.0 0.0000680 13649.41504 14560.14063
14376.0 0.0000696 13643.48438 14239.84375
14176.0 0.0000705 13637.60254 14068.76660
14057.0 0.0000711 13631.76855 13971.53223
13960.0 0.0000716 13625.97949 13909.33887
13906.0 0.0000719 13620.23145 13864.17578
13851.0 0.0000722 13614.52246 13828.21191
13823.0 0.0000723 13608.85059 13798.01855
13797.0 0.0000725 13603.21191 13771.94727
13764.0 0.0000727 13597.60449 13749.05273
13744.0 0.0000728 13592.02637 13728.70508
13721.0 0.0000729 13586.47559 13710.43555
13709.0 0.0000729 13580.94824 13693.88281
13682.0 0.0000731 13575.44238 13678.75977
13674.0 0.0000731 13569.95703 13664.83984
13654.0 0.0000732 13564.48828 13651.93555
13646.0 0.0000733 13559.03613 13639.89844
13633.0 0.0000734 13553.59668 13628.60059
13604.0 0.0000735 13548.16895 13617.94238
13598.0 0.0000735 13542.75000 13607.83496
13586.0 0.0000736 13537.33984 13598.20898
13577.0 0.0000737 13531.93457 13589.00195
13553.0 0.0000738 13526.53418 13580.16504
13555.0 0.0000738 13521.13574 13571.65039
13546.0 0.0000738 13515.73926 13563.42383
13535.0 0.0000739 13510.34082 13555.45215
13524.0 0.0000739 13504.94141 13547.70801
13517.0 0.0000740 13499.53711 13540.16602
13520.0 0.0000740 13494.12891 13532.81055
13500.0 0.0000741 13488.71484 13525.62109
13490.0 0.0000741 13483.29297 13518.58496
13489.0 0.0000741 13477.86133 13511.68750
13477.0 0.0000742 13472.41992 13504.92188
13472.0 0.0000742 13466.96777 13498.28125
13456.0 0.0000743 13461.50391 13491.76074
13466.0 0.0000743 13456.02734 13485.35938
13454.0 0.0000743 13450.53516 13479.08008
13452.0 0.0000743 13445.03027 13472.93457
13426.0 0.0000745 13439.50781 13466.94238
13424.0 0.0000745 13433.97168 13461.17090
13405.0 0.0000746 13428.41504 13455.75488
13396.0 0.0000746 13422.84277 13451.03125
13392.0 0.0000747 13417.25195 13447.68652
13380.0 0.0000747 13411.64258 13447.02637
13399.0 0.0000746 13406.01270 13432.93262
13410.0 0.0000746 13400.36328 13445.50977
13417.0 0.0000745 13394.69336 13469.01465
13451.0 0.0000743 13389.00391 13505.63184
13480.0 0.0000742 13383.29199 13554.75977
13518.0 0.0000740 13377.56055 13611.41992
13536.0 0.0000739 13371.80566 13665.76758
13579.0 0.0000736 13366.03027 13704.30176
13581.0 0.0000736 13360.23340 13713.95215
13565.0 0.0000737 13354.41406 13689.34961
13511.0 0.0000740 13348.57324 13652.79297
13469.0 0.0000742 13342.70996 13586.63574
13426.0 0.0000745 13336.82520 13519.39648
13372.0 0.0000748 13330.91797 13460.45020
13342.0 0.0000750 13324.99023 13414.29688
13323.0 0.0000751 13319.04004 13381.17285
13313.0 0.0000751 13313.06934 13358.72266
13301.0 0.0000752 13307.07617 13343.71973
13291.0 0.0000752 13301.06250 13333.29395
13297.0 0.0000752 13295.02930 13325.40137
13283.0 0.0000753 13288.97461 13318.81445
13287.0 0.0000753 13282.90039 13312.89258
13270.0 0.0000754 13276.80762 13307.33398
13288.0 0.0000753 13270.69531 13302.00977
13279.0 0.0000753 13264.56348 13296.86523
13288.0 0.0000753 13258.41406 13291.88770
13288.0 0.0000753 13252.24707 13287.07031
13292.0 0.0000752 13246.06348 13282.41602
13293.0 0.0000752 13239.86328 13277.93262
13285.0 0.0000753 13233.64648 13273.63184
13285.0 0.0000753 13227.41504 13269.53223
13290.0 0.0000752 13221.16895 13265.65039
13301.0 0.0000752 13214.90918 13262.01270
13299.0 0.0000752 13208.63574 13258.64941
13293.0 0.0000752 13202.34961 13255.59473
13307.0 0.0000751 13196.05273 13252.89160
13300.0 0.0000752 13189.74414 13250.59082
13309.0 0.0000751 13183.42480 13248.75000
13302.0 0.0000752 13177.09668 13247.44531
13324.0 0.0000751 13170.75977 13246.76172
13321.0 0.0000751 13164.41406 13246.80371
13317.0 0.0000751 13158.06250 13247.70117
13327.0 0.0000750 13151.70410 13249.61035
13336.0 0.0000750 13145.34082 13252.72656
13340.0 0.0000750 13138.97363 13257.29297
13336.0 0.0000750 13132.60156 13263.61523
13356.0 0.0000749 13126.22852 13272.09570
13364.0 0.0000748 13119.85254 13283.26953
13377.0 0.0000748 13113.47656 13297.94531
13384.0 0.0000747 13107.10059 13317.50977
13418.0 0.0000745 13100.72559 13344.78125
13483.0 0.0000742 13094.35352 13385.97363
13561.0 0.0000737 13087.98340 13454.89258
13733.0 0.0000728 13081.61816 13580.33398
14013.0 0.0000714 13075.25684 13816.77441
14492.0 0.0000690 13068.90332 14254.70801
15278.0 0.0000655 13062.55566 15022.38477
16445.0 0.0000608 13056.21680 16265.36621
18242.0 0.0000548 13049.88574 18095.89844
20481.0 0.0000488 13043.56543 20515.48828
23038.0 0.0000434 13037.25586 23341.49609
25451.0 0.0000393 13030.95898 26169.88086
27256.0 0.0000367 13024.67383 28411.37695
27879.0 0.0000359 13018.40332 29436.87305
27105.0 0.0000369 13012.14844 28894.77930
25246.0 0.0000396 13005.90820 26973.21484
22646.0 0.0000442 12999.68555 24251.99414
20028.0 0.0000499 12993.48047 21357.69922
17772.0 0.0000563 12987.29492 18762.73438
16073.0 0.0000622 12981.12891 16720.35938
14909.0 0.0000671 12974.98438 15282.27051
14226.0 0.0000703 12968.86035 14363.02539
13808.0 0.0000724 12962.75977 13820.88379
13570.0 0.0000737 12956.68359 13518.25488
13430.0 0.0000745 12950.63184 13351.79688
13339.0 0.0000750 12944.60547 13256.22363
13295.0 0.0000752 12938.60547 13195.66895
13244.0 0.0000755 12932.63281 13152.43164
13232.0 0.0000756 12926.68945 13118.43262
13215.0 0.0000757 12920.77441 13090.04297
13194.0 0.0000758 12914.89063 13065.54688
13182.0 0.0000759 12909.03711 13043.99805
13176.0 0.0000759 12903.21582 13024.79395
13172.0 0.0000759 12897.42773 13007.49805
13163.0 0.0000760 12891.67285 12991.77930
13155.0 0.0000760 12885.95313 12977.37598
13152.0 0.0000760 12880.26855 12964.08105
13154.0 0.0000760 12874.62109 12984.45898
13149.0 0.0000761 12869.00879 12973.80469
13127.0 0.0000762 12863.43652 12963.88574
13146.0 0.0000761 12857.90137 12954.60547
13131.0 0.0000762 12852.40625 12945.89355
13133.0 0.0000761 12846.95020 12937.68652
13124.0 0.0000762 12841.53613 12929.93750
13125.0 0.0000762 12836.16309 12922.60156
13126.0 0.0000762 12830.83301 12915.64355
13126.0 0.0000762 12825.54492 12909.03516
13117.0 0.0000762 12820.30078 12902.75098
13120.0 0.0000762 12815.10156 12896.77246
13128.0 0.0000762 12809.94629 12891.08008
13114.0 0.0000763 12804.83789 12885.66504
13115.0 0.0000762 12799.77441 12880.51074
13118.0 0.0000762 12794.75879 12875.61426
13112.0 0.0000763 12789.79004 12870.96680
13118.0 0.0000762 12784.86914 12866.56348
13106.0 0.0000763 12779.99707 12862.40332
13125.0 0.0000762 12775.17480 12858.48633
13124.0 0.0000762 12770.40137 12854.80957
13124.0 0.0000762 12765.67773 12851.37695
13120.0 0.0000762 12761.00488 12848.19434
13130.0 0.0000762 12756.38281 12845.26563
13129.0 0.0000762 12751.81250 12842.59766
13127.0 0.0000762 12747.29395 12840.19922
13133.0 0.0000761 12742.82813 12838.08203
13133.0 0.0000761 12738.41406 12836.25488
13137.0 0.0000761 12734.05469 12834.73633
13132.0 0.0000761 12729.74707 12833.53711
13134.0 0.0000761 12725.49414 12832.68066
13144.0 0.0000761 12721.29492 12832.18652
13133.0 0.0000761 12717.15039 12832.08008
13132.0 0.0000761 12713.06055 12832.38574
13127.0 0.0000762 12709.02539 12833.13867
13133.0 0.0000761 12705.04590 12834.37207
13126.0 0.0000762 12701.12109 12836.12695
13130.0 0.0000762 12697.25293 12838.45020
13128.0 0.0000762 12693.43945 12841.39453
13132.0 0.0000761 12689.68359 12845.01953
13132.0 0.0000761 12685.98242 12849.39551
13115.0 0.0000762 12682.33887 12854.60352
13125.0 0.0000762 12678.75000 12860.73340
13123.0 0.0000762 12675.21973 12867.89648
13122.0 0.0000762 12671.74512 12876.21387
13127.0 0.0000762 12668.32715 12947.69336
13132.0 0.0000761 12664.96680 12960.49707
13144.0 0.0000761 12661.66309 12975.04785
13144.0 0.0000761 12658.41602 12991.59375
13151.0 0.0000760 12655.22656 13010.42188
13159.0 0.0000760 12652.09375 13023.65527
13172.0 0.0000759 12649.01660 13048.38965
13171.0 0.0000759 12645.99805 13076.68359
13181.0 0.0000759 12643.03516 13109.16504
13205.0 0.0000757 12640.12988 13146.61133
13220.0 0.0000756 12637.28125 13189.98047
13246.0 0.0000755 12634.48926 13240.50781
13257.0 0.0000754 12631.75391 13299.75586
13300.0 0.0000752 12629.07422 13369.90234
13344.0 0.0000749 12626.45117 13454.12402
13417.0 0.0000745 12623.88379 13557.95117
13533.0 0.0000739 12621.37305 13692.32227
13740.0 0.0000728 12618.91797 13880.82031
14085.0 0.0000710 12616.51758 14174.37305
14657.0 0.0000682 12614.17285 14676.14258
15676.0 0.0000638 12611.88281 15576.64941
17431.0 0.0000574 12609.64844 17185.18945
20238.0 0.0000494 12607.46875 19932.53320
24824.0 0.0000403 12605.34277 24298.04297
31273.0 0.0000320 12603.27051 30645.53906
40181.0 0.0000249 12601.25293 38972.96875
50211.0 0.0000199 12599.28906 48682.06641
60136.0 0.0000166 12597.37695 58443.27344
67918.0 0.0000147 12595.51855 66291.66406
71681.0 0.0000140 12593.71387 70072.45313
70049.0 0.0000143 12591.95996 68507.71094
63584.0 0.0000157 12590.25781 62151.62109
53787.0 0.0000186 12588.60742 52944.48047
43063.0 0.0000232 12587.00781 43023.42969
33586.0 0.0000298 12585.45898 34007.30078
26182.0 0.0000382 12583.96094 26803.75781
21134.0 0.0000473 12582.51270 21641.25781
17802.0 0.0000562 12581.11328 18279.83789
15950.0 0.0000627 12579.76270 16261.55176
14867.0 0.0000673 12578.46191 15122.31250
14245.0 0.0000702 12577.20898 14498.19434
13900.0 0.0000719 12576.00293 14151.54297
13697.0 0.0000730 12574.84570 13959.55957
13586.0 0.0000736 12573.73340 13828.09180
13507.0 0.0000740 12572.66895 13737.02441
13471.0 0.0000742 12571.64941 13671.55371
13432.0 0.0000744 12570.67578 13624.79102
13405.0 0.0000746 12569.74707 13593.19434
13386.0 0.0000747 12568.86328 13574.77441
13372.0 0.0000748 12568.02246 13568.34375
13374.0 0.0000748 12567.22461 13573.26855
13364.0 0.0000748 12566.47070 13589.36719
13365.0 0.0000748 12565.75879 13616.85059
13381.0 0.0000747 12565.08887 13656.35840
13381.0 0.0000747 12564.45996 13708.95313
13401.0 0.0000746 12563.87207 13776.25586
13424.0 0.0000745 12563.32422 13860.49023
13469.0 0.0000742 12562.81641 13964.86230
13530.0 0.0000739 12562.34766 14094.09863
13640.0 0.0000733 12561.91699 14256.19531
13818.0 0.0000724 12561.52539 14466.27539
14126.0 0.0000708 12561.16992 14756.36133
14650.0 0.0000683 12560.85156 15195.19434
15504.0 0.0000645 12560.57031 15925.08789
17043.0 0.0000587 12560.32520 17215.30273
19587.0 0.0000511 12560.11523 19522.33398
23822.0 0.0000420 12559.93945 23514.87109
30499.0 0.0000328 12559.79785 30005.35547
40468.0 0.0000247 12559.69043 39731.05469
54153.0 0.0000185 12559.61523 52967.58984
70096.0 0.0000143 12559.57324 69115.17969
87269.0 0.0000115 12559.56250 86383.61719
102201.0 9.78e-6 12559.58398 101786.92188
110965.0 9.01e-6 12559.63574 111569.75000
111372.0 8.98e-6 12559.71777 112642.68750
103101.0 9.70e-6 12559.82910 104624.86719
88389.0 0.0000113 12559.96973 90153.50781
70906.0 0.0000141 12560.13867 73001.37500
53968.0 0.0000185 12560.33594 56393.19922
39977.0 0.0000250 12560.56055 42402.38672
29668.0 0.0000337 12560.81152 31875.66602
22874.0 0.0000437 12561.08887 24702.43359
18951.0 0.0000528 12561.39258 20221.35547
16638.0 0.0000601 12561.72168 17593.75000
15285.0 0.0000654 12562.07422 16115.30273
14517.0 0.0000689 12562.45117 15282.34277
14085.0 0.0000710 12562.85254 14787.51563
13839.0 0.0000723 12563.27637 14465.21582
13683.0 0.0000731 12563.72266 14233.70215
13598.0 0.0000735 12564.19141 14054.94434
13526.0 0.0000739 12564.68066 13910.94531
13470.0 0.0000742 12565.19141 13792.54590
13443.0 0.0000744 12565.72266 13694.36035
13398.0 0.0000746 12566.27344 13612.77051
13374.0 0.0000748 12566.84375 13545.23926
13343.0 0.0000749 12567.43359 13489.85156
13331.0 0.0000750 12568.04102 13445.23633
13319.0 0.0000751 12568.66602 13410.41895
13313.0 0.0000751 12569.30957 13384.83789
13306.0 0.0000752 12569.96875 13368.28906
13315.0 0.0000751 12570.64551 13361.06250
13338.0 0.0000750 12571.33691 13364.21973
13361.0 0.0000748 12572.04492 13380.42383
13425.0 0.0000745 12572.76758 13382.72949
13538.0 0.0000739 12573.50488 13451.83301
13727.0 0.0000728 12574.25586 13581.89258
14065.0 0.0000711 12575.02148 13825.81836
14588.0 0.0000685 12575.79883 14272.32227
15521.0 0.0000644 12576.58984 15049.78418
16890.0 0.0000592 12577.39355 16312.85156
18974.0 0.0000527 12578.20898 18198.09766
21806.0 0.0000459 12579.03613 20754.84766
25207.0 0.0000397 12579.87402 23863.75781
28745.0 0.0000348 12580.72266 27183.95313
31805.0 0.0000314 12581.58203 30142.66992
33722.0 0.0000297 12582.45117 32023.08008
33995.0 0.0000294 12583.32910 32230.31836
32428.0 0.0000308 12584.21777 30688.43555
29409.0 0.0000340 12585.11426 27903.11328
25738.0 0.0000389 12586.01953 24595.75977
22051.0 0.0000453 12586.93262 21397.57031
19054.0 0.0000525 12587.85449 18679.89648
16845.0 0.0000594 12588.78320 16622.31836
15336.0 0.0000652 12589.71875 15209.18457
14418.0 0.0000694 12590.66113 14316.36230
13888.0 0.0000720 12591.61035 13788.64746
13592.0 0.0000736 12592.56641 13488.91309
13412.0 0.0000746 12593.52734 13319.02930
13319.0 0.0000751 12594.49512 13218.28809
13257.0 0.0000754 12595.46680 13153.52734
13210.0 0.0000757 12596.44531 13108.17871
13207.0 0.0000757 12597.42676 13074.46777
13184.0 0.0000758 12598.41406 13048.73730
13179.0 0.0000759 12599.40527 13029.18457
13196.0 0.0000758 12600.40039 13014.80957
13183.0 0.0000759 12601.40039 13005.04102
13180.0 0.0000759 12602.40332 12999.53906
13171.0 0.0000759 12603.40918 12998.18066
13139.0 0.0000761 12604.41895 13001.00781
13128.0 0.0000762 12605.43066 13008.28516
13134.0 0.0000761 12606.44629 13020.57324
13134.0 0.0000761 12607.46387 13038.98535
13151.0 0.0000760 12608.48438 13065.86230
13193.0 0.0000758 12609.50684 13106.18262
13260.0 0.0000754 12610.53223 13170.58301
13394.0 0.0000747 12611.55859 13280.46191
13590.0 0.0000736 12612.58691 13475.16895
13967.0 0.0000716 12613.61719 13757.18652
14544.0 0.0000688 12614.64941 14344.27246
15434.0 0.0000648 12615.68262 15280.06445
16748.0 0.0000597 12616.71680 16656.19141
18488.0 0.0000541 12617.75293 18500.08203
20511.0 0.0000488 12618.79004 20718.83203
22568.0 0.0000443 12619.82715 23064.95117
24310.0 0.0000411 12620.86621 25131.54297
25338.0 0.0000395 12621.90527 26415.21680
25343.0 0.0000395 12622.94629 26508.90625
24260.0 0.0000412 12623.98633 25380.27734
22448.0 0.0000445 12625.02832 23397.53320
20230.0 0.0000494 12626.07031 21066.04688
18114.0 0.0000552 12627.11230 18813.12695
16395.0 0.0000610 12628.15527 16909.75586
15095.0 0.0000662 12629.19922 15469.28418
14225.0 0.0000703 12630.24316 14478.30176
13705.0 0.0000730 12631.28711 13851.36816
13404.0 0.0000746 12632.33203 13480.61816
13221.0 0.0000756 12633.37695 13271.03320
13122.0 0.0000762 12634.42285 13153.95117
13069.0 0.0000765 12635.46777 13086.84668
13025.0 0.0000768 12636.51367 13046.24023
13010.0 0.0000769 12637.56055 13020.37891
13001.0 0.0000769 12638.60742 13003.74902
12994.0 0.0000770 12639.65527 12993.82520
12996.0 0.0000769 12640.70215 12989.46680
12982.0 0.0000770 12641.75098 12990.17090
12995.0 0.0000770 12642.79980 12995.79688
12988.0 0.0000770 12643.84961 13006.48828
12990.0 0.0000770 12644.89941 13022.65137
13007.0 0.0000769 12645.95020 13045.10352
13033.0 0.0000767 12647.00195 13075.36035
13069.0 0.0000765 12648.05469 13116.47656
13125.0 0.0000762 12649.10742 13174.81836
13228.0 0.0000756 12650.16211 13263.84668
13394.0 0.0000747 12651.21777 13410.54785
13687.0 0.0000731 12652.27344 13664.95996
14170.0 0.0000706 12653.33105 14109.76172
14986.0 0.0000667 12654.39063 14864.47559
16277.0 0.0000614 12655.45117 16072.59570
18086.0 0.0000553 12656.51270 17864.99805
20643.0 0.0000484 12657.57617 20281.93945
23685.0 0.0000422 12658.64258 23254.62891
26820.0 0.0000373 12659.70898 26470.48438
29495.0 0.0000339 12660.77930 29418.83398
31117.0 0.0000321 12661.85059 31415.47266
31319.0 0.0000319 12662.92383 31857.95117
30012.0 0.0000333 12664.00000 30590.64063
27416.0 0.0000365 12665.07715 28037.25391
24217.0 0.0000413 12666.15820 24880.00195
20998.0 0.0000476 12667.24219 21731.45508
18258.0 0.0000548 12668.32813 19001.16211
16312.0 0.0000613 12669.41699 16883.23633
14961.0 0.0000668 12670.50977 15389.93555
14103.0 0.0000709 12671.60547 14421.38281
13618.0 0.0000734 12672.70410 13833.77441
13324.0 0.0000751 12673.80664 13492.45898
13159.0 0.0000760 12674.91309 13295.63770
13069.0 0.0000765 12676.02344 13177.82617
13016.0 0.0000768 12677.13672 13101.55176
12986.0 0.0000770 12678.25488 13047.42188
12968.0 0.0000771 12679.37695 13005.95313
12966.0 0.0000771 12680.50391 12972.59961
12958.0 0.0000772 12681.63477 12945.02539
12952.0 0.0000772 12682.77148 12921.89648
12931.0 0.0000773 12683.91113 12902.32031
12932.0 0.0000773 12685.05762 12885.67383
12921.0 0.0000774 12686.20801 12871.46973
12906.0 0.0000775 12687.36426 12859.34180
12908.0 0.0000775 12688.52539 12849.01074
12904.0 0.0000775 12689.69238 12840.31250
12908.0 0.0000775 12690.86523 12833.20117
12903.0 0.0000775 12692.04395 12827.81934
12898.0 0.0000775 12693.22754 12824.58301
12910.0 0.0000775 12694.41895 12824.23242
12919.0 0.0000774 12695.61523 12827.82129
12932.0 0.0000773 12696.81934 12836.52051
12956.0 0.0000772 12698.02930 12851.18750
13004.0 0.0000769 12699.24512 12871.79102
13037.0 0.0000767 12700.46875 12896.79102
13098.0 0.0000763 12701.69922 12922.81543
13149.0 0.0000761 12702.93652 12935.15234
13188.0 0.0000758 12704.18164 12947.07324
13212.0 0.0000757 12705.43359 12944.54590
13187.0 0.0000758 12706.69336 12928.20898
13152.0 0.0000760 12707.95996 12903.03711
13102.0 0.0000763 12709.23535 12874.99609
13044.0 0.0000767 12710.51758 12848.83496
12994.0 0.0000770 12711.80859 12827.43262
12957.0 0.0000772 12713.10742 12811.87402
12932.0 0.0000773 12714.41406 12801.87305
12916.0 0.0000774 12715.72949 12796.39355
12909.0 0.0000775 12717.05273 12794.20020
12903.0 0.0000775 12718.38477 12794.23828
12918.0 0.0000774 12719.72559 12795.76758
12912.0 0.0000774 12721.07520 12798.35254
12908.0 0.0000775 12722.43359 12801.78906
12923.0 0.0000774 12723.80078 12806.01855
12918.0 0.0000774 12725.17578 12811.07715
12926.0 0.0000774 12726.56152 12817.06445
12925.0 0.0000774 12727.95508 12824.13379
12933.0 0.0000773 12729.35938 12832.50781
12946.0 0.0000772 12730.77051 12842.51953
12949.0 0.0000772 12732.19336 12854.74805
12955.0 0.0000772 12733.62402 12870.26758
12983.0 0.0000770 12735.06445 12891.27832
13020.0 0.0000768 12736.51367 12922.24121
13067.0 0.0000765 12737.97363 12971.82617
13167.0 0.0000759 12739.44238 13055.40234
13326.0 0.0000750 12740.92090 13197.45605
13573.0 0.0000737 12742.40820 13431.70020
13965.0 0.0000716 12743.90625 13799.70508
14495.0 0.0000690 12745.41309 14327.41602
15256.0 0.0000655 12746.92969 15025.94922
16107.0 0.0000621 12748.45703 15861.08203
16980.0 0.0000589 12749.99219 16744.07617
17762.0 0.0000563 12751.53809 17528.09180
18247.0 0.0000548 12753.09375 18028.42969
18311.0 0.0000546 12754.65820 18090.31055
17936.0 0.0000558 12756.23242 17678.62891
17200.0 0.0000581 12757.81738 16951.32227
16291.0 0.0000614 12759.41016 16080.38477
15399.0 0.0000649 12761.01367 15225.09961
14612.0 0.0000684 12762.62598 14489.60156
14021.0 0.0000713 12764.24707 13920.70508
13626.0 0.0000734 12765.87793 13519.59277
13373.0 0.0000748 12767.51855 13258.46387
13238.0 0.0000755 12769.16797 13099.19531
13152.0 0.0000760 12770.82715 13006.08398
13108.0 0.0000763 12772.49414 12952.23242
13083.0 0.0000764 12774.17090 12920.10645
13070.0 0.0000765 12775.85645 12899.60840
13068.0 0.0000765 12777.55078 12885.40820
13076.0 0.0000765 12779.25293 12874.87305
13080.0 0.0000765 12780.96484 12866.70703
13078.0 0.0000765 12782.68359 12860.23730
13091.0 0.0000764 12784.41211 12855.07129
13089.0 0.0000764 12786.14746 12850.95605
13092.0 0.0000764 12787.89160 12847.70117
13094.0 0.0000764 12789.64355 12845.16602
13093.0 0.0000764 12791.40332 12843.23828
13109.0 0.0000763 12793.16992 12841.82520
13108.0 0.0000763 12794.94434 12840.85742
13111.0 0.0000763 12796.72656 12872.66309
13125.0 0.0000762 12798.51465 12873.31738
13134.0 0.0000761 12800.31055 12874.31055
13137.0 0.0000761 12802.11230 12875.61328
13140.0 0.0000761 12803.92090 12877.20117
13151.0 0.0000760 12805.73535 12879.05762
13155.0 0.0000760 12807.55566 12881.16895
13167.0 0.0000759 12809.38281 12883.52930
13166.0 0.0000760 12811.21484 12886.12793
13183.0 0.0000759 12813.05176 12888.96387
13193.0 0.0000758 12814.89453 12892.04102
13191.0 0.0000758 12816.74219 12895.36230
13202.0 0.0000757 12818.59375 12898.93457
13209.0 0.0000757 12820.44922 12902.64160
13220.0 0.0000756 12822.30957 12906.75781
13223.0 0.0000756 12824.17383 12911.17090
13222.0 0.0000756 12826.04102 12915.90332
13238.0 0.0000755 12827.91113 12920.98633
13248.0 0.0000755 12829.78516 12926.45801
13254.0 0.0000754 12831.66113 12932.36230
13258.0 0.0000754 12833.54004 12938.75586
13277.0 0.0000753 12835.41992 12945.70313
13278.0 0.0000753 12837.30273 12953.29395
13287.0 0.0000753 12839.18555 12961.63086
13292.0 0.0000752 12841.07031 12970.85449
13302.0 0.0000752 12842.95508 12981.14648
13321.0 0.0000751 12844.84082 12992.78809
13322.0 0.0000751 12846.72656 13006.23438
13342.0 0.0000750 12848.61133 13022.34668
13371.0 0.0000748 12850.49512 13042.83789
13398.0 0.0000746 12852.37891 13071.07910
13448.0 0.0000744 12854.26074 13150.75977
13522.0 0.0000740 12856.13965 13219.12012
13641.0 0.0000733 12858.01758 13329.25879
13814.0 0.0000724 12859.89258 13503.37598
14064.0 0.0000711 12861.76465 13765.79102
14407.0 0.0000694 12863.63281 14134.94824
14862.0 0.0000673 12865.49707 14612.89355
15362.0 0.0000651 12867.35742 15173.81641
15878.0 0.0000630 12869.21289 15757.20801
16337.0 0.0000612 12871.06348 16266.02344
16614.0 0.0000602 12872.90820 16581.16602
16645.0 0.0000601 12874.74609 16608.18359
16418.0 0.0000609 12876.57910 16342.54688
15995.0 0.0000625 12878.40430 15873.54492
15469.0 0.0000646 12880.22168 15320.89258
14936.0 0.0000670 12882.03223 14784.58496
14477.0 0.0000691 12883.83398 14328.63184
14119.0 0.0000708 12885.62695 13977.85742
13888.0 0.0000720 12887.41113 13741.01367
13738.0 0.0000728 12889.18457 13596.71191
13658.0 0.0000732 12890.94922 13521.30859
13617.0 0.0000734 12892.70215 13492.84961
13599.0 0.0000735 12894.44434 13494.80176
13602.0 0.0000735 12896.17383 13516.71387
13600.0 0.0000735 12897.89258 13553.05371
13637.0 0.0000733 12899.59766 13601.73535
13662.0 0.0000732 12901.29004 13662.96289
13698.0 0.0000730 12902.96777 13738.92285
13761.0 0.0000727 12904.63281 13834.42480
13857.0 0.0000722 12906.28125 13959.32422
14013.0 0.0000714 12907.91602 14146.65820
14255.0 0.0000702 12909.53418 14409.61426
14660.0 0.0000682 12911.13672 14833.28125
15362.0 0.0000651 12912.72168 15539.72949
16469.0 0.0000607 12914.28906 16711.27539
18238.0 0.0000548 12915.83887 18583.84570
20920.0 0.0000478 12917.36914 21403.34570
24688.0 0.0000405 12918.88184 25344.37500
29290.0 0.0000341 12920.37402 30391.93164
34684.0 0.0000288 12921.84570 36237.41406
39950.0 0.0000250 12923.29688 42203.39453
44199.0 0.0000226 12924.72754 47248.68750
46383.0 0.0000216 12926.13574 50127.60547
45975.0 0.0000218 12927.52148 49931.39844
43104.0 0.0000232 12928.88379 46733.37500
38421.0 0.0000260 12930.22266 41527.57813
32996.0 0.0000303 12931.53711 35554.83594
27580.0 0.0000363 12932.82813 29813.87500
22957.0 0.0000436 12934.09277 24932.37695
19495.0 0.0000513 12935.33105 21176.58594
17226.0 0.0000581 12936.54297 18528.49805
15825.0 0.0000632 12937.72852 16801.08984
14958.0 0.0000669 12938.88574 15745.44629
14480.0 0.0000691 12940.01563 15132.32422
14212.0 0.0000704 12941.11621 14787.91309
14066.0 0.0000711 12942.18652 14599.07031
13998.0 0.0000714 12943.22754 14500.22656
13966.0 0.0000716 12944.23828 14457.67090
13984.0 0.0000715 12945.21680 14456.67773
14033.0 0.0000713 12946.16406 14494.63086
14147.0 0.0000707 12947.07910 14578.03711
14345.0 0.0000697 12947.96094 14728.00879
14657.0 0.0000682 12948.80859 14988.65430
15179.0 0.0000659 12949.62305 15442.09082
16063.0 0.0000623 12950.40234 16226.11523
17462.0 0.0000573 12951.14648 17544.44531
19592.0 0.0000510 12951.85352 19657.20898
22813.0 0.0000438 12952.52539 22829.67383
27222.0 0.0000367 12953.15918 27241.72656
32648.0 0.0000306 12953.75586 32861.45703
38739.0 0.0000258 12954.31348 39334.30859
44742.0 0.0000224 12954.83203 45900.28906
49722.0 0.0000201 12955.31152 51403.35938
52235.0 0.0000191 12955.75098 54476.02344
51819.0 0.0000193 12956.14941 54141.34766
48524.0 0.0000206 12956.50684 50511.39453
43082.0 0.0000232 12956.82129 44698.39844
36691.0 0.0000273 12957.09473 38060.38281
30379.0 0.0000329 12957.32422 31688.27734
24942.0 0.0000401 12957.50977 26260.02734
20729.0 0.0000482 12957.65137 22067.51563
18000.0 0.0000556 12957.74707 19091.70703
16278.0 0.0000614 12957.79883 17128.98242
15220.0 0.0000657 12957.80371 15907.68066
14610.0 0.0000684 12957.76270 15173.46484
14264.0 0.0000701 12957.67383 14739.91602
14073.0 0.0000711 12957.53809 14477.23145
13957.0 0.0000716 12957.35352 14310.77539
13903.0 0.0000719 12957.12012 14205.29395
13886.0 0.0000720 12956.83691 14133.48535
13887.0 0.0000720 12956.50391 14092.88281
13937.0 0.0000718 12956.12012 14086.38574
14019.0 0.0000713 12955.68652 14124.15332
14160.0 0.0000706 12955.20020 14232.03418
14406.0 0.0000694 12954.66113 14453.77441
14825.0 0.0000675 12954.06934 14855.62402
15468.0 0.0000646 12953.42578 15522.90527
16447.0 0.0000608 12952.72754 16545.39648
17826.0 0.0000561 12951.97363 17986.82617
19611.0 0.0000510 12951.16602 19844.94727
21687.0 0.0000461 12950.30273 22012.73633
23716.0 0.0000422 12949.38477 24249.17578
25470.0 0.0000393 12948.40918 26177.68359
26576.0 0.0000376 12947.37598 27335.74219
26689.0 0.0000375 12946.28516 27360.59375
25787.0 0.0000388 12945.13770 26237.76563
24058.0 0.0000416 12943.93164 24313.16602
21888.0 0.0000457 12942.66504 22049.98047
19685.0 0.0000508 12941.33984 19832.45313
17801.0 0.0000562 12939.95508 17910.72852
16293.0 0.0000614 12938.50879 16399.87891
15221.0 0.0000657 12937.00195 15307.81348
14561.0 0.0000687 12935.43359 14572.66309
14158.0 0.0000706 12933.80469 14104.97363
13925.0 0.0000718 12932.11133 13817.18262
13780.0 0.0000726 12930.35645 13640.46387
13701.0 0.0000730 12928.53809 13495.63965
13650.0 0.0000733 12926.65527 13419.82910
13614.0 0.0000735 12924.70898 13364.18555
13604.0 0.0000735 12922.69824 13320.62891
13587.0 0.0000736 12920.62109 13285.11426
13574.0 0.0000737 12918.47949 13255.74023
13567.0 0.0000737 12916.27246 13231.74609
13564.0 0.0000737 12913.99902 13213.18945
13561.0 0.0000737 12911.65820 13200.83301
13559.0 0.0000738 12909.25098 13196.05078
13566.0 0.0000737 12906.77539 13200.53711
13574.0 0.0000737 12904.23242 13215.71680
13592.0 0.0000736 12901.62109 13241.88867
13602.0 0.0000735 12898.94043 13277.32520
13628.0 0.0000734 12896.19238 13317.51074
13652.0 0.0000732 12893.37402 13354.87402
13656.0 0.0000732 12890.48633 13379.28711
13658.0 0.0000732 12887.52637 13381.05469
13646.0 0.0000733 12884.49902 13356.62402
13627.0 0.0000734 12881.39941 13311.37402
13595.0 0.0000736 12878.22852 13255.46387
13554.0 0.0000738 12874.98633 13198.42285
13528.0 0.0000739 12871.67285 13147.01367
13499.0 0.0000741 12868.28711 13104.89063
13477.0 0.0000742 12864.82910 13073.09180
13453.0 0.0000743 12861.29785 13050.77148
13448.0 0.0000744 12857.69434 13036.17188
13433.0 0.0000744 12854.01660 13027.36914
13425.0 0.0000745 12850.26660 13022.80371
13418.0 0.0000745 12846.44238 13021.47363
13416.0 0.0000745 12842.54395 13028.43652
13421.0 0.0000745 12838.57129 12995.99609
13415.0 0.0000745 12834.52441 13005.86621
13426.0 0.0000745 12830.40332 13022.33691
13453.0 0.0000743 12826.20508 13050.27246
13485.0 0.0000742 12821.93359 13098.37500
13553.0 0.0000738 12817.58594 13180.84473
13657.0 0.0000732 12813.16406 13318.23242
13832.0 0.0000723 12808.66406 13536.33984
14080.0 0.0000710 12804.08984 13861.16406
14408.0 0.0000694 12799.43848 14310.27148
14831.0 0.0000674 12794.71191 14880.83594
15314.0 0.0000653 12789.90820 15539.10254
15766.0 0.0000634 12785.02637 16211.96777
16131.0 0.0000620 12780.06934 16786.64063
16355.0 0.0000611 12775.03516 17125.84766
16346.0 0.0000612 12769.92383 17124.05469
16119.0 0.0000620 12764.73438 16780.08789
15704.0 0.0000637 12759.46875 16198.23438
15195.0 0.0000658 12754.12598 15515.87695
14684.0 0.0000681 12748.70508 14846.38086
14247.0 0.0000702 12743.20605 14263.62500
13904.0 0.0000719 12737.62891 13802.13770
13661.0 0.0000732 12731.97559 13465.21973
13505.0 0.0000740 12726.24414 13235.53809
13411.0 0.0000746 12720.43359 13087.21777
13350.0 0.0000749 12714.54492 12994.50195
13320.0 0.0000751 12708.57910 12936.70313
13300.0 0.0000752 12702.53613 12899.65723
13295.0 0.0000752 12696.41309 12874.75879
13292.0 0.0000752 12690.21289 12857.49023
13307.0 0.0000751 12683.93457 12832.87695
13328.0 0.0000750 12677.57910 12827.98340
13352.0 0.0000749 12671.14258 12831.38184
13390.0 0.0000747 12664.62988 12847.26855
13438.0 0.0000744 12658.03906 12881.94531
13501.0 0.0000741 12651.37109 12943.26953
13568.0 0.0000737 12644.62305 13039.09766
13640.0 0.0000733 12637.79785 13174.33398
13734.0 0.0000728 12630.89453 13347.48340
13815.0 0.0000724 12623.91504 13547.15234
13875.0 0.0000721 12616.85547 13750.01270
13915.0 0.0000719 12609.71973 13920.19824
13923.0 0.0000718 12602.50391 14014.94238
13880.0 0.0000720 12595.21484 14002.34766
13791.0 0.0000725 12587.84473 13883.68359
13675.0 0.0000731 12580.39844 13692.40234
13541.0 0.0000738 12572.87402 13471.14160
13416.0 0.0000745 12565.27539 13254.89063
13291.0 0.0000752 12557.59668 13066.01953
13196.0 0.0000758 12549.84277 12915.11816
13124.0 0.0000762 12542.01172 12803.65918
13069.0 0.0000765 12534.10449 12724.99414
13030.0 0.0000767 12526.12207 12671.70703
13002.0 0.0000769 12518.06055 12635.79102
12984.0 0.0000770 12509.92578 12610.83105
12964.0 0.0000771 12501.71387 12592.34473
12940.0 0.0000773 12493.42676 12577.56348
12932.0 0.0000773 12485.06348 12564.91602
12915.0 0.0000774 12476.62695 12553.57617
12899.0 0.0000775 12468.11328 12542.79785
12878.0 0.0000777 12459.52734 12533.00488
12869.0 0.0000777 12450.86426 12523.74609
12853.0 0.0000778 12442.12891 12514.95703
12839.0 0.0000779 12433.31934 12506.59863
12819.0 0.0000780 12424.43652 12498.64551
12807.0 0.0000781 12415.47754 12491.08691
12798.0 0.0000781 12406.44824 12483.93066
12778.0 0.0000783 12397.34570 12477.19043
12766.0 0.0000783 12388.16992 12470.88965
12761.0 0.0000784 12378.92090 12465.06641
12748.0 0.0000784 12369.60254 12459.76953
12735.0 0.0000785 12360.20996 12455.06836
12721.0 0.0000786 12350.74805 12451.03906
12713.0 0.0000787 12341.21289 12447.78320
12700.0 0.0000787 12331.60840 12445.42676
12685.0 0.0000788 12321.93359 12444.12695
12672.0 0.0000789 12312.18848 12456.91797
12666.0 0.0000790 12302.37402 12458.62598
12663.0 0.0000790 12292.49023 12462.15137
12651.0 0.0000790 12282.53711 12467.90820
12653.0 0.0000790 12272.51563 12476.50000
12657.0 0.0000790 12262.42676 12488.86426
12664.0 0.0000790 12252.26855 12506.65039
12673.0 0.0000789 12242.04297 12532.93066
12704.0 0.0000787 12231.75195 12573.56055
12764.0 0.0000783 12221.39355 12639.31152
12857.0 0.0000778 12210.96875 12748.88770
13021.0 0.0000768 12200.47852 12931.76563
13312.0 0.0000751 12189.92285 13225.37207
13741.0 0.0000728 12179.30273 13689.04980
14376.0 0.0000696 12168.61719 14368.65723
15238.0 0.0000656 12157.86719 15295.87695
16324.0 0.0000613 12147.05469 16462.92188
17536.0 0.0000570 12136.18066 17800.82227
18687.0 0.0000535 12125.24121 19166.35938
19641.0 0.0000509 12114.24023 20336.44727
20222.0 0.0000495 12103.17773 21039.55273
20230.0 0.0000494 12092.05469 21061.82422
19673.0 0.0000508 12080.86914 20392.27344
18646.0 0.0000536 12069.62500 19231.83203
17364.0 0.0000576 12058.32031 17852.68555
16060.0 0.0000623 12046.95703 16484.16211
14919.0 0.0000670 12035.53320 15276.69043
13967.0 0.0000716 12024.05273 14305.75293
13256.0 0.0000754 12012.51563 13583.81348
12821.0 0.0000780 12000.91895 13081.57129
12547.0 0.0000797 11989.26758 12749.94141
12374.0 0.0000808 11977.55664 12537.57422
12310.0 0.0000812 11965.79395 12401.90137
12247.0 0.0000817 11953.97168 12312.28906
12198.0 0.0000820 11942.10059 12249.28027
12167.0 0.0000822 11930.16992 12201.55176
12143.0 0.0000824 11918.18945 12163.07910
12126.0 0.0000825 11906.15234 12130.80371
12101.0 0.0000826 11894.06836 12103.31250
12085.0 0.0000827 11881.92773 12079.99414
12075.0 0.0000828 11869.73633 12060.63770
12060.0 0.0000829 11857.49609 12045.09082
12046.0 0.0000830 11845.20801 12033.04492
12036.0 0.0000831 11832.86523 12023.81152
12033.0 0.0000831 11820.47461 12016.20605
12022.0 0.0000832 11808.03711 12008.46973
12003.0 0.0000833 11795.55371 11998.41504
11996.0 0.0000834 11783.01953 11984.09863
11979.0 0.0000835 11770.43848 11965.00391
11958.0 0.0000836 11757.81348 11945.00293
11930.0 0.0000838 11745.14551 11920.93945
11915.0 0.0000839 11732.42773 11897.23535
11890.0 0.0000841 11719.66699 11875.18848
11869.0 0.0000843 11706.86523 11855.50488
11845.0 0.0000844 11694.01855 11838.39258
11828.0 0.0000845 11681.13086 11823.73340
11820.0 0.0000846 11668.19922 11811.23828
11802.0 0.0000847 11655.22754 11800.63672
11789.0 0.0000848 11642.21484 11791.81348
11787.0 0.0000848 11629.16504 11784.93066
11778.0 0.0000849 11616.07129 11780.61719
11777.0 0.0000849 11602.94238 11780.20605
11780.0 0.0000849 11589.77441 11786.03711
11793.0 0.0000848 11576.57129 11801.74121
11819.0 0.0000846 11563.32715 11831.51953
11849.0 0.0000844 11550.04980 11882.78613
11908.0 0.0000840 11536.73633 11960.18555
11985.0 0.0000834 11523.38965 12066.68457
12079.0 0.0000828 11510.00488 12200.48926
12177.0 0.0000821 11496.58984 12352.66016
12285.0 0.0000814 11483.14063 12505.82617
12370.0 0.0000808 11469.66113 12633.82910
12413.0 0.0000806 11456.14648 12706.00391
12393.0 0.0000807 11442.60449 12700.49316
12327.0 0.0000811 11429.03027 12619.19531
12224.0 0.0000818 11415.42773 12487.19043
12090.0 0.0000827 11401.79297 12335.58398
11947.0 0.0000837 11388.13379 12189.99219
11830.0 0.0000845 11374.44434 12067.19238
11730.0 0.0000853 11360.72852 11975.75879
11667.0 0.0000857 11346.98828 11917.76953
11622.0 0.0000860 11333.21973 11891.18652
11611.0 0.0000861 11319.42676 11892.71289
11624.0 0.0000860 11305.60840 11920.51953
11662.0 0.0000857 11291.76953 11977.02441
11746.0 0.0000851 11277.90430 12072.26758
11913.0 0.0000839 11264.01758 12228.27344
12179.0 0.0000821 11250.10840 12484.86523
12629.0 0.0000792 11236.17969 12904.86035
13373.0 0.0000748 11222.22949 13576.21582
14515.0 0.0000689 11208.25879 14604.07813
16172.0 0.0000618 11194.26855 16091.02441
18380.0 0.0000544 11180.26172 18100.82813
21173.0 0.0000472 11166.23535 20616.84570
24362.0 0.0000410 11152.19238 23497.27734
27310.0 0.0000366 11138.13086 26448.50391
29816.0 0.0000335 11124.05664 29011.46289
31349.0 0.0000319 11109.96289 30617.44531
31518.0 0.0000317 11095.85840 30796.07031
30283.0 0.0000330 11081.73828 29484.54297
27816.0 0.0000360 11067.60547 27076.78125
24649.0 0.0000406 11053.45703 24143.71484
21312.0 0.0000469 11039.29980 21182.15430
18393.0 0.0000544 11025.13184 18527.04492
16001.0 0.0000625 11010.94824 16355.00586
14161.0 0.0000706 10996.76074 14711.27148
12975.0 0.0000771 10982.55762 13547.14355
12236.0 0.0000817 10968.34961 12766.48145
11789.0 0.0000848 10954.12793 12261.67188
11513.0 0.0000869 10939.90527 11939.22168
11347.0 0.0000881 10925.66992 11729.18945
11252.0 0.0000889 10911.42969 11585.43555
11174.0 0.0000895 10897.18457 11480.04590
11129.0 0.0000899 10882.93652 11397.39258
11090.0 0.0000902 10868.67871 11329.02832
11059.0 0.0000904 10854.41895 11270.46777
11030.0 0.0000907 10840.15527 11219.15820
11012.0 0.0000908 10825.89258 11173.56445
10996.0 0.0000909 10811.62207 11127.15039
10976.0 0.0000911 10797.35156 11098.84180
10957.0 0.0000913 10783.08008 11065.39844
10947.0 0.0000913 10768.81250 11034.83691
10933.0 0.0000915 10754.53906 11006.78906
10915.0 0.0000916 10740.26758 10980.99609
10903.0 0.0000917 10725.99902 10957.25879
10896.0 0.0000918 10711.73340 10935.42773
10881.0 0.0000919 10697.46680 10915.40723
10862.0 0.0000921 10683.20508 10897.17285
10850.0 0.0000922 10668.94824 10880.73340
10835.0 0.0000923 10654.69434 10866.18457
10825.0 0.0000924 10640.44629 10853.71875
10804.0 0.0000926 10626.20020 10843.72168
10805.0 0.0000925 10611.96289 10836.92969
10803.0 0.0000926 10597.73145 10834.76465
10809.0 0.0000925 10583.50781 10839.90234
10830.0 0.0000923 10569.28809 10857.15625
10871.0 0.0000920 10555.08008 10894.58789
10943.0 0.0000914 10540.87891 10964.53711
11059.0 0.0000904 10526.68848 11083.85059
11224.0 0.0000891 10512.50488 11272.57324
11478.0 0.0000871 10498.33496 11549.77734
11800.0 0.0000847 10484.17383 11927.28613
12183.0 0.0000821 10470.02539 12406.42188
12639.0 0.0000791 10455.88477 12950.62402
13102.0 0.0000763 10441.75977 13509.16504
13482.0 0.0000742 10427.64648 13995.58496
13726.0 0.0000729 10413.54785 14301.53320
13783.0 0.0000726 10399.45996 14335.76953
13628.0 0.0000734 10385.38965 14082.29980
13292.0 0.0000752 10371.33203 13612.99414
12820.0 0.0000780 10357.29102 13036.74805
12288.0 0.0000814 10343.26270 12449.24902
11796.0 0.0000848 10329.25391 11916.62012
11398.0 0.0000877 10315.25977 11474.55176
11092.0 0.0000902 10301.28223 11133.59277
10879.0 0.0000919 10287.32520 10886.30371
10743.0 0.0000931 10273.38379 10715.09570
10659.0 0.0000938 10259.45996 10599.85254
10606.0 0.0000943 10245.55664 10522.51465
10575.0 0.0000946 10231.67383 10469.50684
10558.0 0.0000947 10217.80859 10431.91113
10548.0 0.0000948 10203.96289 10404.73926
10538.0 0.0000949 10190.13867 10385.73340
10545.0 0.0000948 10176.33789 10374.30859
10552.0 0.0000948 10162.55566 10384.38965
10566.0 0.0000946 10148.79590 10388.76855
10581.0 0.0000945 10135.05762 10400.23535
10602.0 0.0000943 10121.34473 10416.71387
10626.0 0.0000941 10107.65039 10434.42188
10633.0 0.0000940 10093.98438 10447.71777
10633.0 0.0000940 10080.33887 10449.14746
10629.0 0.0000941 10066.71973 10434.73535
10608.0 0.0000943 10053.12207 10403.40332
10579.0 0.0000945 10039.55273 10359.94043
10542.0 0.0000949 10026.00879 10311.02051
10511.0 0.0000951 10012.48633 10262.32031
10480.0 0.0000954 9998.99219 10217.69336
10450.0 0.0000957 9985.52637 10179.16309
10431.0 0.0000959 9972.08691 10147.25684
10416.0 0.0000960 9958.67090 10121.45020
10402.0 0.0000961 9945.28418 10100.66016
10381.0 0.0000963 9931.92578 10083.66016
10374.0 0.0000964 9918.59473 10069.36621
10366.0 0.0000965 9905.29395 10056.96777
10360.0 0.0000965 9892.01758 10045.92578
10353.0 0.0000966 9878.77344 10035.93555
10349.0 0.0000966 9865.55762 10027.74414
10345.0 0.0000967 9852.37012 10019.49902
10336.0 0.0000967 9839.21387 10012.09863
10324.0 0.0000969 9826.08789 10005.58203
10324.0 0.0000969 9812.99121 10000.01758
10317.0 0.0000969 9799.92676 9995.50586
10313.0 0.0000970 9786.88965 9992.16309
10305.0 0.0000970 9773.88770 9990.13965
10301.0 0.0000971 9760.91406 9989.61230
10296.0 0.0000971 9747.97363 9977.90918
10290.0 0.0000972 9735.06348 9981.36816
10285.0 0.0000972 9722.18848 9987.16895
10282.0 0.0000973 9709.34277 9995.74316
10288.0 0.0000972 9696.53223 10007.67676
10284.0 0.0000972 9683.75000 10023.78223
10293.0 0.0000972 9671.00586 10045.31152
10315.0 0.0000969 9658.29199 10074.36035
10345.0 0.0000967 9645.61328 10114.68457
10392.0 0.0000962 9632.96484 10173.12500
10483.0 0.0000954 9620.35352 10261.82031
10638.0 0.0000940 9607.77441 10401.27539
10878.0 0.0000919 9595.23047 10623.47949
11271.0 0.0000887 9582.71973 10980.82715
11904.0 0.0000840 9570.24316 11515.61621
12766.0 0.0000783 9557.80176 12293.88965
13955.0 0.0000717 9545.39648 13361.83691
15480.0 0.0000646 9533.02246 14731.11621
17305.0 0.0000578 9520.68750 16355.05469
19182.0 0.0000521 9508.38574 18110.75977
20841.0 0.0000480 9496.12012 19785.29883
22163.0 0.0000451 9483.88965 21080.26758
22783.0 0.0000439 9471.69336 21676.65234
22602.0 0.0000442 9459.53418 21393.40039
21636.0 0.0000462 9447.41113 20319.11133
19982.0 0.0000500 9435.32227 18743.73047
18000.0 0.0000556 9423.27148 16986.97656
16023.0 0.0000624 9411.25488 15295.91211
14304.0 0.0000699 9399.27734 13826.32031
12833.0 0.0000779 9387.33301 12651.70020
11786.0 0.0000848 9375.42480 11780.72070
11136.0 0.0000898 9363.55566 11180.29004
10733.0 0.0000932 9351.72266 10798.34570
10529.0 0.0000950 9339.92480 10584.26172
10463.0 0.0000956 9328.16309 10501.56934
10517.0 0.0000951 9316.43945 10534.40723
10685.0 0.0000936 9304.75391 10684.70020
10993.0 0.0000910 9293.10254 10971.24316
11464.0 0.0000872 9281.49023 11418.09961
12072.0 0.0000828 9269.91113 12042.89746
12846.0 0.0000778 9258.37305 12842.13184
13763.0 0.0000727 9246.86914 13778.31250
14650.0 0.0000683 9235.40039 14769.12500
15410.0 0.0000649 9223.97266 15680.51563
15929.0 0.0000628 9212.58008 16335.07422
16124.0 0.0000620 9201.22559 16560.66406
15898.0 0.0000629 9189.90820 16286.76563
15318.0 0.0000653 9178.62500 15597.24805
14447.0 0.0000692 9167.37988 14669.06445
13447.0 0.0000744 9156.17383 13677.35840
12514.0 0.0000799 9145.00098 12749.00781
11704.0 0.0000854 9133.86816 11968.56934
11065.0 0.0000904 9122.77051 11368.77832
10624.0 0.0000941 9111.71094 10953.27051
10376.0 0.0000964 9100.68848 10708.37988
10289.0 0.0000972 9089.70020 10618.76563
10337.0 0.0000967 9078.74902 10683.40625
10556.0 0.0000947 9067.83691 10917.29395
10947.0 0.0000913 9056.95898 11368.38184
11592.0 0.0000863 9046.11816 12106.54395
12618.0 0.0000793 9035.31445 13212.23828
13987.0 0.0000715 9024.54688 14753.68066
15753.0 0.0000635 9013.81543 16754.36523
17877.0 0.0000559 9003.12109 19158.79297
20235.0 0.0000494 8992.45996 21803.03906
22433.0 0.0000446 8981.83789 24391.14648
24095.0 0.0000415 8971.25098 26495.92383
25036.0 0.0000399 8960.69922 27629.53711
25034.0 0.0000399 8950.18359 27457.40234
24033.0 0.0000416 8939.70508 26028.00000
22233.0 0.0000450 8929.25977 23734.81445
19869.0 0.0000503 8918.85254 21065.22656
17370.0 0.0000576 8908.47656 18418.00977
15106.0 0.0000662 8898.13965 16057.27441
13309.0 0.0000751 8887.83594 14119.39160
11882.0 0.0000842 8877.56738 12637.30176
10903.0 0.0000917 8867.33301 11572.55273
10317.0 0.0000969 8857.13574 10847.33301
9962.0 0.0001004 8846.97168 10374.88379
9764.0 0.0001024 8836.84277 10078.89648
9667.0 0.0001034 8826.74609 9902.49219
9644.0 0.0001037 8816.68555 9809.03711
9665.0 0.0001035 8806.65820 9777.83301
9737.0 0.0001027 8796.66602 9798.23340
9848.0 0.0001015 8786.70410 9863.59766
9988.0 0.0001001 8776.77930 9966.21289
10139.0 0.0000986 8766.88574 10093.64160
10302.0 0.0000971 8757.02734 10226.29395
10430.0 0.0000959 8747.20117 10336.55664
10496.0 0.0000953 8737.40625 10392.45898
10489.0 0.0000953 8727.64551 10370.30566
10415.0 0.0000960 8717.91797 10270.09375
10273.0 0.0000973 8708.22070 10115.24219
10097.0 0.0000990 8698.55762 9937.27832
9891.0 0.0001011 8688.92480 9763.08496
9711.0 0.0001030 8679.32617 9611.38184
9569.0 0.0001045 8669.75781 9493.40430
9473.0 0.0001056 8660.21973 9414.97656
9430.0 0.0001060 8650.71387 9381.34375
9437.0 0.0001060 8641.24023 9393.68848
9511.0 0.0001051 8631.79395 9463.95020
9651.0 0.0001036 8622.38086 9611.06445
9894.0 0.0001011 8612.99902 9864.39355
10262.0 0.0000974 8603.64746 10261.97461
10756.0 0.0000930 8594.32422 10844.15234
11413.0 0.0000876 8585.02930 11642.23828
12286.0 0.0000814 8575.76758 12662.70703
13271.0 0.0000754 8566.53418 13872.08887
14311.0 0.0000699 8557.32910 15182.78516
15299.0 0.0000654 8548.15137 16443.49609
16125.0 0.0000620 8539.00586 17439.33008
16572.0 0.0000603 8529.88770 17934.67578
16555.0 0.0000604 8520.79785 17781.80078
16065.0 0.0000622 8511.73535 17023.66992
15159.0 0.0000660 8502.70020 15861.29199
14057.0 0.0000711 8493.69238 14531.32031
12874.0 0.0000777 8484.71387 13223.10938
11742.0 0.0000852 8475.76074 12060.08496
10795.0 0.0000926 8466.83594 11109.86914
10093.0 0.0000991 8457.93652 10379.00391
9627.0 0.0001039 8449.06543 9843.48828
9308.0 0.0001074 8440.21973 9483.85449
9118.0 0.0001097 8431.39844 9250.20313
9014.0 0.0001109 8422.60352 9106.87500
8962.0 0.0001116 8413.83594 9027.53320
8944.0 0.0001118 8405.09082 8995.40820
8955.0 0.0001117 8396.37305 9000.88867
8980.0 0.0001114 8387.67871 9038.11133
9015.0 0.0001109 8379.00977 9101.66992
9069.0 0.0001103 8370.36523 9183.89941
9117.0 0.0001097 8361.74316 9272.97266
9162.0 0.0001091 8353.14648 9351.79590
9175.0 0.0001090 8344.57324 9399.27930
9173.0 0.0001090 8336.02246 9396.83008
9145.0 0.0001093 8327.49512 9339.13184
9083.0 0.0001101 8318.99023 9237.93457
9008.0 0.0001110 8310.50879 9113.66309
8927.0 0.0001120 8302.04883 8985.53125
8849.0 0.0001130 8293.61230 8867.54395
8790.0 0.0001138 8285.19434 8768.31641
8733.0 0.0001145 8276.80176 8692.20215
8714.0 0.0001148 8268.42773 8640.68262
8713.0 0.0001148 8260.07617 8614.28613
8736.0 0.0001145 8251.74512 8609.39355
8794.0 0.0001137 8243.43555 8640.08301
8892.0 0.0001125 8235.14453 8708.02148
9036.0 0.0001107 8226.87500 8822.34961
9235.0 0.0001083 8218.62402 8992.35156
9515.0 0.0001051 8210.39355 9223.79395
9852.0 0.0001015 8202.18164 9514.78613
10219.0 0.0000979 8193.98926 9851.58691
10588.0 0.0000944 8185.81543 10204.94824
10939.0 0.0000914 8177.66113 10528.22168
11181.0 0.0000894 8169.52441 10759.49316
11267.0 0.0000888 8161.40625 10838.19434
11187.0 0.0000894 8153.30420 10737.67773
10949.0 0.0000913 8145.22168 10484.60645
10584.0 0.0000945 8137.15527 10139.50000
10170.0 0.0000983 8129.10547 9770.48926
9721.0 0.0001029 8121.07422 9411.58398
9320.0 0.0001073 8113.05957 9097.89258
9011.0 0.0001110 8105.06006 8842.85645
8776.0 0.0001139 8097.07813 8647.81250
8613.0 0.0001161 8089.11084 8505.98926
8506.0 0.0001176 8081.15967 8406.60254
8447.0 0.0001184 8073.22314 8324.28613
8407.0 0.0001189 8065.30322 8277.39648
8379.0 0.0001193 8057.39551 8244.12988
8358.0 0.0001196 8049.50537 8219.37109
8338.0 0.0001199 8041.62842 8199.88770
8315.0 0.0001203 8033.76660 8183.78906
8304.0 0.0001204 8025.91748 8170.01514
8296.0 0.0001205 8018.08154 8157.98584
8280.0 0.0001208 8010.26074 8147.39209
8262.0 0.0001210 8002.45361 8138.06201
8250.0 0.0001212 7994.65723 8129.90869
8228.0 0.0001215 7986.87451 8122.91016
8221.0 0.0001216 7979.10596 8117.09326
8201.0 0.0001219 7971.34912 8112.62549
8198.0 0.0001220 7963.60400 8109.54346
8201.0 0.0001219 7955.86914 8108.27686
8197.0 0.0001220 7948.14893 8109.47998
8204.0 0.0001219 7940.43945 8114.32568
8214.0 0.0001217 7932.73975 8124.85889
8239.0 0.0001214 7925.05176 8144.41602
8278.0 0.0001208 7917.37598 8178.07617
8349.0 0.0001198 7909.70947 8232.88086
8461.0 0.0001182 7902.05469 8316.60742
8599.0 0.0001163 7894.40967 8440.34961
8787.0 0.0001138 7886.77295 8610.75684
9039.0 0.0001106 7879.14746 8830.70020
9323.0 0.0001073 7871.53174 9095.23340
9619.0 0.0001040 7863.92432 9388.54492
9895.0 0.0001011 7856.32764 9681.42090
10137.0 0.0000986 7848.73877 9930.62891
10273.0 0.0000973 7841.16016 10084.14063
10293.0 0.0000972 7833.58984 10100.65039
10165.0 0.0000984 7826.02588 9977.05957
9926.0 0.0001007 7818.47168 9745.79297
9620.0 0.0001040 7810.92627 9460.88281
9271.0 0.0001079 7803.38672 9169.15918
8940.0 0.0001119 7795.85693 8904.28906
8664.0 0.0001154 7788.33398 8687.00098
8463.0 0.0001182 7780.81885 8528.15918
8363.0 0.0001196 7773.30957 8432.42383
8333.0 0.0001200 7765.80811 8402.46680
8423.0 0.0001187 7758.31299 8442.79297
8609.0 0.0001162 7750.82568 8561.94629
8921.0 0.0001121 7743.34277 8772.23730
9419.0 0.0001062 7735.86865 9079.01270
10037.0 0.0000996 7728.39893 9504.12891
10799.0 0.0000926 7720.93701 10034.55762
11631.0 0.0000860 7713.47900 10644.77441
12509.0 0.0000799 7706.02881 11283.33887
13263.0 0.0000754 7698.58105 11868.89258
13764.0 0.0000727 7691.14160 12293.51367
13949.0 0.0000717 7683.70605 12451.31250
13784.0 0.0000725 7676.27539 12294.04102
13288.0 0.0000753 7668.85010 11864.12207
12520.0 0.0000799 7661.43018 11265.99512
11595.0 0.0000862 7654.01416 10608.13672
10636.0 0.0000940 7646.60352 9973.41992
9798.0 0.0001021 7639.19531 9414.20215
9139.0 0.0001094 7631.79395 8956.33301
8606.0 0.0001162 7624.39551 8604.12988
8254.0 0.0001212 7617.00049 8347.39063
8036.0 0.0001244 7609.61035 8168.31299
7896.0 0.0001266 7602.22412 8047.12939
7820.0 0.0001279 7594.84131 7966.19336
7768.0 0.0001287 7587.46240 7911.76172
7743.0 0.0001291 7580.08545 7874.20752
7721.0 0.0001295 7572.71387 7846.72412
7706.0 0.0001298 7565.34424 7826.93750
7702.0 0.0001298 7557.97705 7812.12500
7691.0 0.0001300 7550.61475 7801.20117
7682.0 0.0001302 7543.25586 7793.63867
7682.0 0.0001302 7535.89795 7789.23486
7680.0 0.0001302 7528.54443 7788.02539
7676.0 0.0001303 7521.19238 7790.24951
7672.0 0.0001303 7513.84277 7796.43115
7684.0 0.0001301 7506.49609 7807.53955
7690.0 0.0001300 7499.15283 7825.35303
7709.0 0.0001297 7491.80957 7853.06543
7738.0 0.0001292 7484.46924 7896.22949
7796.0 0.0001283 7477.13281 7964.06348
7896.0 0.0001266 7469.79834 8070.86670
8053.0 0.0001242 7462.46484 8237.04883
8321.0 0.0001202 7455.13281 8488.98340
8698.0 0.0001150 7447.80420 8856.31934
9227.0 0.0001084 7440.47754 9366.71387
9917.0 0.0001008 7433.15088 10037.37109
10804.0 0.0000926 7425.82666 10864.46680
11795.0 0.0000848 7418.50537 11811.78027
12782.0 0.0000782 7411.18604 12810.06152
13695.0 0.0000730 7403.86719 13738.21680
14408.0 0.0000694 7396.54883 14447.25488
14767.0 0.0000677 7389.23389 14749.12012
14690.0 0.0000681 7381.91992 14567.83105
14182.0 0.0000705 7374.60693 13953.58301
13352.0 0.0000749 7367.29590 13058.58594
12322.0 0.0000812 7359.98682 12050.70898
11249.0 0.0000889 7352.67871 11062.25977
10189.0 0.0000981 7345.37207 10179.37305
9310.0 0.0001074 7338.06787 9446.84473
8650.0 0.0001156 7330.76221 8876.15625
8197.0 0.0001220 7323.45947 8455.48633
7902.0 0.0001266 7316.15869 8159.40723
7723.0 0.0001295 7308.85742 7958.35107
7633.0 0.0001310 7301.55908 7825.01465
7590.0 0.0001318 7294.26123 7737.39746
7575.0 0.0001320 7286.96582 7679.61035
7590.0 0.0001318 7279.67041 7640.94873
7606.0 0.0001315 7272.37695 7614.39600
7620.0 0.0001312 7265.08398 7596.31348
7648.0 0.0001308 7257.79395 7580.82178
7645.0 0.0001308 7250.50293 7565.91846
7642.0 0.0001309 7243.21533 7549.21436
7620.0 0.0001312 7235.92773 7529.74512
7587.0 0.0001318 7228.64355 7508.28906
7558.0 0.0001323 7221.35889 7486.67725
7510.0 0.0001332 7214.07617 7466.93701
7471.0 0.0001339 7206.79443 7451.00098
7440.0 0.0001344 7199.51563 7449.56250
7417.0 0.0001348 7192.23584 7447.79004
7418.0 0.0001348 7184.95996 7457.52686
7434.0 0.0001345 7177.68457 7483.26514
7480.0 0.0001337 7170.41211 7530.81494
7551.0 0.0001324 7163.14014 7606.86133
7647.0 0.0001308 7155.87061 7717.83496
7796.0 0.0001283 7148.60107 7868.04199
7964.0 0.0001256 7141.33545 8057.23633
8153.0 0.0001227 7134.07080 8278.38086
8346.0 0.0001198 7126.80762 8524.15918
8537.0 0.0001171 7119.54688 8748.83301
8678.0 0.0001152 7112.28906 8927.41699
8760.0 0.0001142 7105.03223 9017.27148
8770.0 0.0001140 7097.77881 8992.01855
8706.0 0.0001149 7090.52539 8856.95410
8601.0 0.0001163 7083.27637 8645.34863
8450.0 0.0001183 7076.02832 8398.37109
8278.0 0.0001208 7068.78271 8154.44141
8135.0 0.0001229 7061.54053 7929.01221
7992.0 0.0001251 7054.30176 7739.52881
7872.0 0.0001270 7047.06445 7591.31494
7759.0 0.0001289 7039.83057 7483.84814
7658.0 0.0001306 7032.59766 7413.15137
7579.0 0.0001319 7025.36963 7373.99805
7506.0 0.0001332 7018.14404 7361.26855
7471.0 0.0001339 7010.91992 7370.56250
7452.0 0.0001342 7003.70117 7397.93359
7451.0 0.0001342 6996.48633 7439.19043
7468.0 0.0001339 6989.27295 7489.05078
7497.0 0.0001334 6982.06494 7540.34863
7530.0 0.0001328 6974.85889 7583.57275
7545.0 0.0001325 6967.65576 7603.84863
7548.0 0.0001325 6960.45850 7600.64404
7535.0 0.0001327 6953.26465 7568.70459
7499.0 0.0001334 6946.07324 7514.90576
7451.0 0.0001342 6938.88672 7453.26563
7388.0 0.0001354 6931.70557 7386.21582
7331.0 0.0001364 6924.52832 7324.03125
7278.0 0.0001374 6917.35498 7270.78955
7230.0 0.0001383 6910.18457 7228.28760
7198.0 0.0001389 6903.02148 7196.59521
7169.0 0.0001395 6895.86279 7174.62012
7157.0 0.0001397 6888.70752 7160.72998
7139.0 0.0001401 6881.55762 7153.22998
7138.0 0.0001401 6874.41406 7150.68506
7139.0 0.0001401 6867.27490 7152.03857
7132.0 0.0001402 6860.14209 7156.64795
7133.0 0.0001402 6853.01270 7164.22119
7128.0 0.0001403 6845.89111 7174.74219
7129.0 0.0001403 6838.77441 7188.42285
7134.0 0.0001402 6831.66309 7205.69336
7131.0 0.0001402 6824.55811 7227.21875
7150.0 0.0001399 6817.45996 7254.05469
7163.0 0.0001396 6810.36768 7288.93604
7185.0 0.0001392 6803.28223 7332.68799
7226.0 0.0001384 6796.20361 7391.26465
7283.0 0.0001373 6789.13037 7473.03564
7382.0 0.0001355 6782.06396 7591.60693
7528.0 0.0001328 6775.00635 7767.97705
7783.0 0.0001285 6767.95313 8032.16797
8178.0 0.0001223 6760.91016 8423.09668
8735.0 0.0001145 6753.87256 8985.86621
9567.0 0.0001045 6746.84424 9764.48730
10716.0 0.0000933 6739.82227 10790.49316
12088.0 0.0000827 6732.80811 12068.84473
13657.0 0.0000732 6725.80176 13562.11816
15375.0 0.0000650 6718.80518 15178.40527
17085.0 0.0000585 6711.81445 16759.28711
18412.0 0.0000543 6704.83447 18075.81055
19247.0 0.0000520 6697.86182 18862.19141
19457.0 0.0000514 6690.89893 18916.26367
18962.0 0.0000527 6683.94434 18216.63477
17878.0 0.0000559 6676.99805 16959.11523
16328.0 0.0000612 6670.06152 15402.97461
14486.0 0.0000690 6663.13525 13785.49707
12670.0 0.0000789 6656.21631 12275.93066
11111.0 0.0000900 6649.30908 10977.08203
9866.0 0.0001014 6642.41113 9934.87988
8898.0 0.0001124 6635.52344 9152.77637
8318.0 0.0001202 6628.64551 8606.14844
7994.0 0.0001251 6621.77832 8256.44043
7857.0 0.0001273 6614.91992 8062.25830
7867.0 0.0001271 6608.07373 7986.01074
7956.0 0.0001257 6601.23779 7995.80029
8119.0 0.0001232 6594.41309 8064.49658
8310.0 0.0001203 6587.59863 8166.93164
8513.0 0.0001175 6580.79688 8276.96191
8675.0 0.0001153 6574.00537 8365.92969
8774.0 0.0001140 6567.22656 8406.83008
8802.0 0.0001136 6560.45703 8383.01855
8739.0 0.0001144 6553.70166 8300.38281
8607.0 0.0001162 6546.95752 8181.67627
8415.0 0.0001188 6540.22461 8055.42383
8211.0 0.0001218 6533.50537 7947.92090
8035.0 0.0001245 6526.79932 7882.44971
7938.0 0.0001260 6520.10449 7881.27197
7945.0 0.0001259 6513.42383 7967.89111
8089.0 0.0001236 6506.75439 8168.52148
8391.0 0.0001192 6500.09961 8511.47070
8861.0 0.0001129 6493.45703 9023.98730
9541.0 0.0001048 6486.82764 9725.64355
10406.0 0.0000961 6480.21338 10618.66602
11395.0 0.0000878 6473.61133 11678.53418
12459.0 0.0000803 6467.02539 12843.99707
13561.0 0.0000737 6460.45215 14008.66211
14509.0 0.0000689 6453.89355 15016.91113
15155.0 0.0000660 6447.34766 15685.72168
15403.0 0.0000649 6440.81836 15847.53125
15215.0 0.0000657 6434.30371 15471.89648
14647.0 0.0000683 6427.80225 14671.07129
13759.0 0.0000727 6421.31689 13633.57910
12694.0 0.0000788 6414.84717 12546.81934
11594.0 0.0000863 6408.39307 11552.49902
10679.0 0.0000936 6401.95361 10752.72461
10076.0 0.0000992 6395.52930 10217.46582
9794.0 0.0001021 6389.12158 9994.62402
9908.0 0.0001009 6382.72998 10117.54492
10380.0 0.0000963 6376.35352 10609.58301
11221.0 0.0000891 6369.99365 11481.40430
12453.0 0.0000803 6363.65137 12722.67383
13954.0 0.0000717 6357.32471 14288.32422
15641.0 0.0000639 6351.01514 16083.53320
17334.0 0.0000577 6344.72119 17949.16797
18993.0 0.0000527 6338.44580 19649.66016
20209.0 0.0000495 6332.18701 20883.84961
20837.0 0.0000480 6325.94531 21362.95313
20757.0 0.0000482 6319.72070 20952.72266
19915.0 0.0000502 6313.51465 19763.79102
18516.0 0.0000540 6307.32568 18076.37305
16712.0 0.0000598 6301.15527 16193.68555
14715.0 0.0000680 6295.00195 14358.90430
12765.0 0.0000783 6288.86719 12736.38184
11197.0 0.0000893 6282.75049 11424.42773
10060.0 0.0000994 6276.65283 10467.51563
9325.0 0.0001072 6270.57227 9872.18457
9016.0 0.0001109 6264.51221 9621.09766
9073.0 0.0001102 6258.46973 9682.86523
9410.0 0.0001063 6252.44727 10017.39160
10003.0 0.0001000 6246.44287 10574.93848
10709.0 0.0000934 6240.45801 11291.39551
11462.0 0.0000872 6234.49219 12088.28320
12165.0 0.0000822 6228.54688 12836.27148
12746.0 0.0000785 6222.61963 13401.06055
13062.0 0.0000766 6216.71338 13641.73535
13063.0 0.0000766 6210.82617 13481.58496
12729.0 0.0000786 6204.95996 12955.62793
12113.0 0.0000826 6199.11279 12185.96777
11328.0 0.0000883 6193.28613 11314.84961
10477.0 0.0000954 6187.47998 10461.25684
9634.0 0.0001038 6181.69434 9709.78711
8908.0 0.0001123 6175.92871 9115.27246
8424.0 0.0001187 6170.18457 8709.43262
8141.0 0.0001228 6164.46045 8506.50000
8078.0 0.0001238 6158.75830 8508.82324
8197.0 0.0001220 6153.07617 8709.69824
8473.0 0.0001180 6147.41602 9093.33594
8873.0 0.0001127 6141.77588 9632.11035
9370.0 0.0001067 6136.15820 10281.55469
9885.0 0.0001012 6130.56152 10975.43945
10339.0 0.0000967 6124.98535 11620.56641
10695.0 0.0000935 6119.43213 12098.90723
10889.0 0.0000918 6113.90137 12294.32227
10874.0 0.0000920 6108.39111 12145.81055
10642.0 0.0000940 6102.90381 11686.23145
10209.0 0.0000980 6097.43701 11019.24121
9658.0 0.0001035 6091.99365 10263.44531
9062.0 0.0001104 6086.57178 9515.39551
8499.0 0.0001177 6081.17139 8829.87402
8001.0 0.0001250 6075.79492 8270.08301
7623.0 0.0001312 6070.44141 7841.74316
7404.0 0.0001351 6065.10938 7546.32178
7303.0 0.0001369 6059.80029 7374.53564
7322.0 0.0001366 6054.51318 7310.99170
7427.0 0.0001346 6049.24902 7340.15332
7589.0 0.0001318 6044.00879 7435.74219
7806.0 0.0001281 6038.79004 7577.78125
8035.0 0.0001245 6033.59570 7739.39648
8243.0 0.0001213 6028.42383 7888.20410
8390.0 0.0001192 6023.27588 7987.32031
8453.0 0.0001183 6018.15088 8004.03418
8431.0 0.0001186 6013.04834 7925.03906
8312.0 0.0001203 6007.96924 7763.98926
8111.0 0.0001233 6002.91406 7551.77393
7850.0 0.0001274 5997.88281 7320.58594
7568.0 0.0001321 5992.87402 7095.40820
7303.0 0.0001369 5987.88916 6892.67090
7069.0 0.0001415 5982.92822 6719.92236
6878.0 0.0001454 5977.99121 6582.06592
6744.0 0.0001483 5973.07813 6476.08691
6654.0 0.0001503 5968.18750 6397.40527
6593.0 0.0001517 5963.32227 6340.66553
6556.0 0.0001525 5958.47998 6299.76074
6530.0 0.0001531 5953.66211 6270.27832
6514.0 0.0001535 5948.86768 6248.65869
6501.0 0.0001538 5944.09863 6232.41650
6497.0 0.0001539 5939.35205 6219.94922
6495.0 0.0001540 5934.63086 6210.30762
6495.0 0.0001540 5929.93213 6202.98633
6493.0 0.0001540 5925.25928 6197.80859
6498.0 0.0001539 5920.60938 6194.85938
6501.0 0.0001538 5915.98438 6194.50146
6502.0 0.0001538 5911.38330 6197.44043
6523.0 0.0001533 5906.80713 6204.80273
6543.0 0.0001528 5902.25439 6218.22021
6584.0 0.0001519 5897.72705 6239.83447
6637.0 0.0001507 5893.22314 6272.15820
6713.0 0.0001490 5888.74365 6317.74756
6822.0 0.0001466 5884.28857 6378.62891
6945.0 0.0001440 5879.85840 6455.63818
7105.0 0.0001407 5875.45117 6547.65039
7294.0 0.0001371 5871.06934 6650.80811
7474.0 0.0001338 5866.71191 6757.97021
7644.0 0.0001308 5862.37891 6858.22119
7783.0 0.0001285 5858.07031 6937.62500
7869.0 0.0001271 5853.78564 6983.15967
7895.0 0.0001267 5849.52539 6989.84766
7847.0 0.0001274 5845.29004 6965.50342
7756.0 0.0001289 5841.07813 6927.89844
7640.0 0.0001309 5836.89160 6898.72559
7531.0 0.0001328 5832.72900 6900.35010
7475.0 0.0001338 5828.59131 6955.86963
7493.0 0.0001335 5824.47705 7089.85938
7623.0 0.0001312 5820.38770 7328.18115
7869.0 0.0001271 5816.32227 7699.88965
8249.0 0.0001212 5812.28174 8216.89063
8781.0 0.0001139 5808.26416 8892.44629
9409.0 0.0001063 5804.27197 9717.35547
10139.0 0.0000986 5800.30322 10657.57324
10946.0 0.0000914 5796.35938 11647.04199
11726.0 0.0000853 5792.43945 12581.92676
12363.0 0.0000809 5788.54395 13321.76758
12769.0 0.0000783 5784.67139 13715.55566
12908.0 0.0000775 5780.82373 13664.60547
12697.0 0.0000788 5776.99951 13183.15234
12194.0 0.0000820 5773.19922 12388.42578
11428.0 0.0000875 5769.42383 11433.92871
10502.0 0.0000952 5765.67188 10452.91602
9585.0 0.0001043 5761.94336 9540.54492
8757.0 0.0001142 5758.23926 8755.33984
8053.0 0.0001242 5754.55762 8127.75439
7526.0 0.0001329 5750.90088 7657.65137
7200.0 0.0001389 5747.26709 7335.30127
7022.0 0.0001424 5743.65674 7139.05322
6950.0 0.0001439 5740.07080 7043.36865
6966.0 0.0001436 5736.50732 7022.30322
7022.0 0.0001424 5732.96826 7051.27441
7096.0 0.0001409 5729.45215 7106.98828
7186.0 0.0001392 5725.95850 7166.93164
7248.0 0.0001380 5722.48877 7210.60742
7288.0 0.0001372 5719.04248 7224.80127
7290.0 0.0001372 5715.61816 7209.99609
7268.0 0.0001376 5712.21777 7168.51758
7248.0 0.0001380 5708.83984 7150.00928
7232.0 0.0001383 5705.48535 7169.62402
7283.0 0.0001373 5702.15332 7258.09912
7433.0 0.0001345 5698.84375 7453.62402
7709.0 0.0001297 5695.55664 7784.37158
8171.0 0.0001224 5692.29248 8290.95898
8844.0 0.0001131 5689.05029 9004.11426
9736.0 0.0001027 5685.83057 9940.56738
10797.0 0.0000926 5682.63330 11092.57520
12017.0 0.0000832 5679.45850 12418.84961
13378.0 0.0000747 5676.30518 13834.45703
14638.0 0.0000683 5673.17432 15202.24121
15665.0 0.0000638 5670.06445 16331.36426
16345.0 0.0000612 5666.97754 17004.17383
16592.0 0.0000603 5663.91162 17057.32422
16292.0 0.0000614 5660.86768 16474.41406
15531.0 0.0000644 5657.84521 15397.32910
14337.0 0.0000697 5654.84424 14035.96484
12906.0 0.0000775 5651.86426 12596.83008
11453.0 0.0000873 5648.90576 11221.66406
10082.0 0.0000992 5645.96777 10002.15723
8877.0 0.0001127 5643.05127 8985.02539
7927.0 0.0001262 5640.15576 8180.34033
7282.0 0.0001373 5637.28076 7572.69385
6845.0 0.0001461 5634.42627 7131.99707
6561.0 0.0001524 5631.59277 6822.32324
6395.0 0.0001564 5628.77930 6609.35303
6301.0 0.0001587 5625.98682 6464.30615
6236.0 0.0001604 5623.21387 6365.37793
6202.0 0.0001612 5620.46094 6297.44092
6184.0 0.0001617 5617.72852 6250.90674
6173.0 0.0001620 5615.01563 6220.35156
6183.0 0.0001617 5612.32227 6203.55957
6197.0 0.0001614 5609.64893 6200.91943
6229.0 0.0001605 5606.99463 6215.28516
6278.0 0.0001593 5604.36035 6252.06592
6354.0 0.0001574 5601.74463 6319.73047
6479.0 0.0001543 5599.14795 6429.02148
6648.0 0.0001504 5596.57080 6592.62354
6891.0 0.0001451 5594.01221 6823.31738
7232.0 0.0001383 5591.47168 7131.15723
7635.0 0.0001310 5588.95068 7519.64941
8115.0 0.0001232 5586.44775 7982.18799
8643.0 0.0001157 5583.96338 8498.11816
9192.0 0.0001088 5581.49658 9029.25000
9682.0 0.0001033 5579.04834 9517.18457
10047.0 0.0000995 5576.61719 9885.16602
10264.0 0.0000974 5574.20508 10055.64941
10287.0 0.0000972 5571.80908 9984.71680
10089.0 0.0000991 5569.43115 9689.43457
9707.0 0.0001030 5567.07129 9236.77930
9181.0 0.0001089 5564.72803 8708.37988
8592.0 0.0001164 5562.40186 8171.18994
8021.0 0.0001247 5560.09277 7673.17529
7487.0 0.0001336 5557.79980 7245.76221
7050.0 0.0001418 5555.52393 6901.86084
6741.0 0.0001483 5553.26416 6643.02686
6541.0 0.0001529 5551.02100 6462.26123
6436.0 0.0001554 5548.79395 6347.47314
6397.0 0.0001563 5546.58350 6284.19092
6410.0 0.0001560 5544.38818 6257.61035
6440.0 0.0001553 5542.20898 6253.43945
6486.0 0.0001542 5540.04443 6258.06494
6526.0 0.0001532 5537.89600 6258.92041
6542.0 0.0001529 5535.76270 6246.26563
6532.0 0.0001531 5533.64453 6215.96045
6496.0 0.0001539 5531.54150 6170.43213
6438.0 0.0001553 5529.45264 6115.72900
6361.0 0.0001572 5527.37939 6058.60742
6273.0 0.0001594 5525.32031 6004.32813
6186.0 0.0001617 5523.27490 5956.39697
6106.0 0.0001638 5521.24414 5916.77295
6040.0 0.0001656 5519.22754 5886.14404
5988.0 0.0001670 5517.22412 5864.27246
5956.0 0.0001679 5515.23486 5850.34912
5937.0 0.0001684 5513.25928 5843.31885
5925.0 0.0001688 5511.29736 5842.17285
5925.0 0.0001688 5509.34814 5846.13916
5923.0 0.0001688 5507.41211 5854.83154
5931.0 0.0001686 5505.48877 5868.35840
5944.0 0.0001682 5503.57861 5887.49121
5967.0 0.0001676 5501.68066 5913.90576
6008.0 0.0001664 5499.79492 5950.61865
6060.0 0.0001650 5497.92188 6002.49854
6141.0 0.0001628 5496.06104 6076.96826
6253.0 0.0001599 5494.21191 6184.52490
6393.0 0.0001564 5492.37451 6338.92334
6581.0 0.0001520 5490.54834 6556.58789
6831.0 0.0001464 5488.73438 6854.20898
7144.0 0.0001400 5486.93115 7247.82080
7530.0 0.0001328 5485.13965 7745.60303
7992.0 0.0001251 5483.35840 8344.69922
8566.0 0.0001167 5481.58838 9026.43262
9170.0 0.0001091 5479.82910 9751.41211
9761.0 0.0001024 5478.08008 10455.43750
10325.0 0.0000969 5476.34082 11048.47266
10757.0 0.0000930 5474.61279 11426.23047
10973.0 0.0000911 5472.89404 11508.87598
10969.0 0.0000912 5471.18555 11278.33789
10714.0 0.0000933 5469.48633 10800.66602
10253.0 0.0000975 5467.79688 10181.78027
9680.0 0.0001033 5466.11670 9526.15332
9057.0 0.0001104 5464.44580 8916.36230
8454.0 0.0001183 5462.78320 8410.46191
7975.0 0.0001254 5461.13037 8045.10449
7685.0 0.0001301 5459.48535 7832.80762
7557.0 0.0001323 5457.85010 7785.13867
7608.0 0.0001314 5456.22168 7884.09424
7805.0 0.0001281 5454.60254 8104.33252
8084.0 0.0001237 5452.99121 8409.05371
8421.0 0.0001188 5451.38818 8749.77734
8743.0 0.0001144 5449.79199 9066.06641
8986.0 0.0001113 5448.20410 9290.29883
9114.0 0.0001097 5446.62354 9368.80566
9113.0 0.0001097 5445.04980 9273.01367
8977.0 0.0001114 5443.48340 9035.14551
8729.0 0.0001146 5441.92383 8716.73145
8407.0 0.0001189 5440.37109 8385.86719
8077.0 0.0001238 5438.82520 8102.04297
7808.0 0.0001281 5437.28564 7912.48486
7661.0 0.0001305 5435.75195 7852.37402
7675.0 0.0001303 5434.22510 7944.69531
7862.0 0.0001272 5432.70410 8198.43555
8218.0 0.0001217 5431.18896 8609.04004
8702.0 0.0001149 5429.67920 9152.77051
9294.0 0.0001076 5428.17529 9786.96777
9904.0 0.0001010 5426.67676 10446.36719
10435.0 0.0000958 5425.18359 11041.16504
10828.0 0.0000924 5423.69482 11470.38477
11028.0 0.0000907 5422.21143 11620.49512
10983.0 0.0000910 5420.73340 11453.65137
10696.0 0.0000935 5419.25928 11005.15723
10194.0 0.0000981 5417.78955 10367.06445
9528.0 0.0001050 5416.32422 9642.47070
8808.0 0.0001135 5414.86328 8915.35449
8091.0 0.0001236 5413.40674 8243.69434
7425.0 0.0001347 5411.95410 7661.79297
6868.0 0.0001456 5410.50439 7184.52148
6457.0 0.0001549 5409.05859 6812.12598
6169.0 0.0001621 5407.61670 6526.86084
5973.0 0.0001674 5406.17773 6328.44971
5852.0 0.0001709 5404.74219 6192.10107
5789.0 0.0001727 5403.30957 6101.86279
5754.0 0.0001738 5401.87988 6049.95117
5740.0 0.0001742 5400.45313 6016.14063
5750.0 0.0001739 5399.02881 5999.60156
5768.0 0.0001734 5397.60645 5997.91650
5806.0 0.0001722 5396.18750 6012.25635
5871.0 0.0001703 5394.76953 6047.19727
5957.0 0.0001679 5393.35449 6110.39551
6079.0 0.0001645 5391.94141 6212.26221
6242.0 0.0001602 5390.53027 6365.29980
6454.0 0.0001549 5389.12061 6582.69727
6719.0 0.0001488 5387.71240 6876.11377
7042.0 0.0001420 5386.30566 7252.35254
7454.0 0.0001342 5384.90039 7710.10303
7913.0 0.0001264 5383.49609 8236.14746
8398.0 0.0001191 5382.09277 8802.05664
8901.0 0.0001123 5380.69043 9360.83789
9348.0 0.0001070 5379.28906 9844.50488
9672.0 0.0001034 5377.88818 10172.44629
9832.0 0.0001017 5376.48828 10274.21289
9810.0 0.0001019 5375.08838 10125.29980
9598.0 0.0001042 5373.68896 9762.94141
9237.0 0.0001083 5372.28955 9263.94922
8755.0 0.0001142 5370.89063 8709.69238
8208.0 0.0001218 5369.49121 8166.16650
7687.0 0.0001301 5368.09180 7679.10547
7244.0 0.0001380 5366.69238 7276.32031
6896.0 0.0001450 5365.29248 6970.46582
6670.0 0.0001499 5363.89160 6761.84717
6568.0 0.0001523 5362.49072 6641.43408
6557.0 0.0001525 5361.08887 6593.42432
6619.0 0.0001511 5359.68652 6595.68262
6710.0 0.0001490 5358.28271 6629.06738
6801.0 0.0001470 5356.87842 6666.40479
6865.0 0.0001457 5355.47266 6683.04297
6888.0 0.0001452 5354.06543 6660.53125
6858.0 0.0001458 5352.65771 6593.20068
6773.0 0.0001476 5351.24805 6489.05566
6639.0 0.0001506 5349.83691 6363.39063
6474.0 0.0001545 5348.42383 6231.61230
6299.0 0.0001588 5347.00928 6105.70996
6127.0 0.0001632 5345.59326 5993.76611
5970.0 0.0001675 5344.17480 5900.31104
5840.0 0.0001712 5342.75488 5826.97754
5748.0 0.0001740 5341.33252 5773.13477
5683.0 0.0001760 5339.90820 5736.51953
5644.0 0.0001772 5338.48145 5713.88574
5628.0 0.0001777 5337.05225 5701.15869
5617.0 0.0001780 5335.62061 5694.94482
5612.0 0.0001782 5334.18652 5691.05176
5612.0 0.0001782 5332.75000 5686.05566
5608.0 0.0001783 5331.31104 5677.75244
5605.0 0.0001784 5329.86865 5665.72510
5602.0 0.0001785 5328.42383 5651.05420
5598.0 0.0001786 5326.97607 5635.44336
5598.0 0.0001786 5325.52539 5620.45361
5595.0 0.0001787 5324.07129 5607.25977
5595.0 0.0001787 5322.61426 5596.62451
5597.0 0.0001787 5321.15430 5588.95703
5597.0 0.0001787 5319.69092 5584.39941
5599.0 0.0001786 5318.22412 5582.91016
5606.0 0.0001784 5316.75391 5584.36377
5610.0 0.0001783 5315.28027 5588.64307
5616.0 0.0001781 5313.80322 5595.74658
5619.0 0.0001780 5312.32227 5605.89404
5643.0 0.0001772 5310.83789 5619.65430
5661.0 0.0001766 5309.34961 5638.10352
5680.0 0.0001761 5307.85791 5663.03223
5715.0 0.0001750 5306.36230 5697.19238
5756.0 0.0001737 5304.86279 5744.46973
5825.0 0.0001717 5303.35889 5810.01611
5933.0 0.0001685 5301.85107 5900.01611
6089.0 0.0001642 5300.33984 6021.22656
6287.0 0.0001591 5298.82422 6179.96826
6532.0 0.0001531 5297.30420 6380.62061
6829.0 0.0001464 5295.78027 6628.18701
7184.0 0.0001392 5294.25244 6910.16211
7552.0 0.0001324 5292.71973 7219.23340
7916.0 0.0001263 5291.18311 7535.54590
8272.0 0.0001209 5289.64209 7829.33350
8554.0 0.0001169 5288.09668 8058.63330
8735.0 0.0001145 5286.54639 8194.57715
8800.0 0.0001136 5284.99219 8213.37109
8749.0 0.0001143 5283.43311 8126.95654
8601.0 0.0001163 5281.86963 7974.90723
8399.0 0.0001191 5280.30176 7807.83887
8189.0 0.0001221 5278.72949 7673.52295
8027.0 0.0001246 5277.15186 7611.33447
7970.0 0.0001255 5275.57031 7650.70459
8059.0 0.0001241 5273.98389 7810.25342
8313.0 0.0001203 5272.39258 8100.78320
8732.0 0.0001145 5270.79688 8505.63574
9268.0 0.0001079 5269.19629 9005.87598
9878.0 0.0001012 5267.59131 9560.88965
10518.0 0.0000951 5265.98096 10111.17383
11071.0 0.0000903 5264.36572 10579.69629
11458.0 0.0000873 5262.74609 10883.81250
11663.0 0.0000857 5261.12158 10963.11230
11645.0 0.0000859 5259.49219 10821.67188
11431.0 0.0000875 5257.85791 10518.32910
11080.0 0.0000903 5256.21875 10148.03320
10659.0 0.0000938 5254.57520 9807.18457
10267.0 0.0000974 5252.92627 9577.19238
10011.0 0.0000999 5251.27246 9519.96875
9976.0 0.0001002 5249.61377 9677.64355
10212.0 0.0000979 5247.95068 10065.43359
10736.0 0.0000931 5246.28174 10676.53125
11520.0 0.0000868 5244.60889 11474.22656
12490.0 0.0000801 5242.93115 12391.20215
13537.0 0.0000739 5241.24805 13326.36621
14498.0 0.0000690 5239.56006 14145.19824
15220.0 0.0000657 5237.86719 14695.52441
15635.0 0.0000640 5236.16943 14852.82520
15662.0 0.0000638 5234.46777 14577.15820
15292.0 0.0000654 5232.76025 13952.04199
14571.0 0.0000686 5231.04736 13117.59277
13618.0 0.0000734 5229.33105 12228.21582
12574.0 0.0000795 5227.60938 11412.11328
11616.0 0.0000861 5225.88232 10762.78027
10848.0 0.0000922 5224.15137 10341.33789
10379.0 0.0000963 5222.41504 10172.12012
10249.0 0.0000976 5220.67432 10253.62793
10443.0 0.0000958 5218.92920 10553.81250
10890.0 0.0000918 5217.17822 11013.48438
11459.0 0.0000873 5215.42383 11546.85254
12027.0 0.0000831 5213.66406 12043.75000
12469.0 0.0000802 5211.89990 12380.03027
12696.0 0.0000788 5210.13135 12448.42188
12645.0 0.0000791 5208.35693 12202.68457
12313.0 0.0000812 5206.57910 11678.54980
11705.0 0.0000854 5204.79688 10967.80273
10894.0 0.0000918 5203.00977 10173.03613
9991.0 0.0001001 5201.21826 9379.69043
9067.0 0.0001103 5199.42285 8648.20996
8193.0 0.0001221 5197.62207 8013.94482
7465.0 0.0001340 5195.81787 7494.68359
6916.0 0.0001446 5194.00830 7091.99170
6537.0 0.0001530 5192.19482 6796.17188
6299.0 0.0001588 5190.37793 6589.92041
6166.0 0.0001622 5188.55615 6452.20117
6098.0 0.0001640 5186.72998 6360.95557
6063.0 0.0001649 5184.89990 6295.48828
6035.0 0.0001657 5183.06592 6239.11035
6009.0 0.0001664 5181.22754 6182.13037
5977.0 0.0001673 5179.38574 6122.94287
5939.0 0.0001684 5177.53906 6062.44531
5905.0 0.0001693 5175.68945 6014.64502
5876.0 0.0001702 5173.83545 5983.25830
5862.0 0.0001706 5171.97803 5973.60693
5877.0 0.0001702 5170.11670 5990.12061
5914.0 0.0001691 5168.25098 6034.66943
5982.0 0.0001672 5166.38232 6106.29785
6072.0 0.0001647 5164.51025 6200.70020
6178.0 0.0001619 5162.63379 6309.75928
6285.0 0.0001591 5160.75488 6420.97754
6376.0 0.0001568 5158.87207 6517.49170
6449.0 0.0001551 5156.98535 6579.77197
6485.0 0.0001542 5155.09619 6591.06787
6478.0 0.0001544 5153.20313 6545.11279
6423.0 0.0001557 5151.30664 6449.39795
6329.0 0.0001580 5149.40771 6319.78564
6205.0 0.0001612 5147.50537 6177.97900
6066.0 0.0001649 5145.60010 6033.85596
5920.0 0.0001689 5143.69189 5899.82422
5788.0 0.0001728 5141.78076 5782.17871
5678.0 0.0001761 5139.86670 5683.86621
5592.0 0.0001788 5137.94971 5605.28906
5536.0 0.0001806 5136.02979 5544.94141
5498.0 0.0001819 5134.10791 5500.22949
5476.0 0.0001826 5132.18311 5468.09375
5466.0 0.0001829 5130.25586 5445.52295
5463.0 0.0001830 5128.32617 5429.88672
5461.0 0.0001831 5126.39404 5419.10400
5455.0 0.0001833 5124.45947 5411.72461
5452.0 0.0001834 5122.52295 5406.88135
5444.0 0.0001837 5120.58398 5404.12549
5432.0 0.0001841 5118.64355 5403.18945
5420.0 0.0001845 5116.70068 5404.21777
5404.0 0.0001850 5114.75586 5407.18066
5390.0 0.0001855 5112.80908 5412.20410
5385.0 0.0001857 5110.86035 5419.48389
5377.0 0.0001860 5108.91016 5429.31836
5379.0 0.0001859 5106.95801 5442.15820
5382.0 0.0001858 5105.00439 5458.72705
5388.0 0.0001856 5103.04980 5480.18066
5405.0 0.0001850 5101.09375 5508.36182
5428.0 0.0001842 5099.13525 5546.12744
5469.0 0.0001828 5097.17676 5597.72461
5525.0 0.0001810 5095.21631 5669.20996
5611.0 0.0001782 5093.25488 5768.90283
5733.0 0.0001744 5091.29248 5906.53906
5891.0 0.0001698 5089.32910 6093.83301
6100.0 0.0001639 5087.36523 6342.56006
6369.0 0.0001570 5085.40039 6662.69287
6690.0 0.0001495 5083.43457 7059.86426
7071.0 0.0001414 5081.46826 7532.58057
7517.0 0.0001330 5079.50146 8069.03760
8003.0 0.0001250 5077.53369 8644.76465
8496.0 0.0001177 5075.56592 9219.68164
8945.0 0.0001118 5073.59814 9736.22656
9336.0 0.0001071 5071.62939 10124.58301
9599.0 0.0001042 5069.66162 10320.61816
9707.0 0.0001030 5067.69287 10296.08008
9673.0 0.0001034 5065.72412 10078.78516
9506.0 0.0001052 5063.75586 9738.23926
9254.0 0.0001081 5061.78760 9360.32129
8982.0 0.0001113 5059.81982 9020.96484
8742.0 0.0001144 5057.85205 8776.13965
8606.0 0.0001162 5055.88477 8667.61523
8621.0 0.0001160 5053.91895 8711.42090
8802.0 0.0001136 5051.95264 8905.47559
9145.0 0.0001093 5049.98730 9227.53906
9594.0 0.0001042 5048.02246 9634.87695
10075.0 0.0000993 5046.05859 10064.48926
10517.0 0.0000951 5044.09619 10435.25391
10841.0 0.0000922 5042.13428 10659.68262
10977.0 0.0000911 5040.17334 10670.59277
10898.0 0.0000918 5038.21436 10457.23047
10609.0 0.0000943 5036.25635 10049.78516
10139.0 0.0000986 5034.29932 9527.96973
9547.0 0.0001047 5032.34424 8968.22266
8887.0 0.0001125 5030.39014 8432.41992
8223.0 0.0001216 5028.43799 7959.46436
7622.0 0.0001312 5026.48730 7582.81689
7162.0 0.0001396 5024.53857 7308.83984
6851.0 0.0001460 5022.59229 7134.60156
6685.0 0.0001496 5020.64746 7046.35059
6646.0 0.0001505 5018.70459 7021.65039
6678.0 0.0001497 5016.76367 7031.57129
6740.0 0.0001484 5014.82520 7043.96484
6797.0 0.0001471 5012.88916 7029.89844
6829.0 0.0001464 5010.95508 6973.61523
6816.0 0.0001467 5009.02344 6875.11328
6760.0 0.0001479 5007.09521 6751.74219
6669.0 0.0001499 5005.16895 6625.96289
6558.0 0.0001525 5003.24561 6518.78906
6445.0 0.0001552 5001.32471 6446.50146
6353.0 0.0001574 4999.40674 6412.55176
6305.0 0.0001586 4997.49170 6436.02734
6313.0 0.0001584 4995.58057 6507.92627
6376.0 0.0001568 4993.67139 6620.02393
6490.0 0.0001541 4991.76611 6757.28955
6629.0 0.0001509 4989.86426 6897.88477
6765.0 0.0001478 4987.96533 7014.14014
6877.0 0.0001454 4986.06982 7077.21680
6940.0 0.0001441 4984.17773 7066.74414
6939.0 0.0001441 4982.28955 6980.46289
6879.0 0.0001454 4980.40527 6834.88965
6765.0 0.0001478 4978.52393 6656.27979
6615.0 0.0001512 4976.64746 6470.70654
6440.0 0.0001553 4974.77441 6298.75439
6271.0 0.0001595 4972.90527 6154.53516
6130.0 0.0001631 4971.04004 6046.07617
6031.0 0.0001658 4969.17920 5970.56738
5983.0 0.0001671 4967.32275 5936.34814
5982.0 0.0001672 4965.47070 5931.30371
6014.0 0.0001663 4963.62207 5945.02783
6060.0 0.0001650 4961.77881 5964.20654
6105.0 0.0001638 4959.94043 5974.39453
6129.0 0.0001632 4958.10596 5963.59863
6123.0 0.0001633 4956.27588 5926.65088
6080.0 0.0001645 4954.45117 5866.79492
6013.0 0.0001663 4952.63135 5792.97900
5924.0 0.0001688 4950.81641 5715.43457
5822.0 0.0001718 4949.00586 5642.88135
5719.0 0.0001749 4947.20068 5581.61133
5624.0 0.0001778 4945.40088 5535.53125
5550.0 0.0001802 4943.60596 5506.29297
5502.0 0.0001818 4941.81641 5493.21875
5482.0 0.0001824 4940.03223 5494.97559
5483.0 0.0001824 4938.25293 5507.73926
5503.0 0.0001817 4936.47949 5526.99414
5527.0 0.0001809 4934.71191 5549.28271
5555.0 0.0001800 4932.94873 5568.50537
5583.0 0.0001791 4931.19287 5585.76270
5606.0 0.0001784 4929.44189 5605.35791
5637.0 0.0001774 4927.69629 5635.21533
5689.0 0.0001758 4925.95752 5684.72266
5766.0 0.0001734 4924.22314 5762.76953
5873.0 0.0001703 4922.49609 5876.30225
6026.0 0.0001659 4920.77490 6029.24170
6215.0 0.0001609 4919.05908 6221.36963
6429.0 0.0001555 4917.35010 6447.07617
6668.0 0.0001500 4915.64697 6693.46191
6907.0 0.0001448 4913.95020 6942.97314
7117.0 0.0001405 4912.25977 7166.91650
7272.0 0.0001375 4910.57568 7331.35986
7357.0 0.0001359 4908.89795 7403.85547
7353.0 0.0001360 4907.22754 7366.81055
7255.0 0.0001378 4905.56299 7226.62109
7077.0 0.0001413 4903.90479 7009.77539
6841.0 0.0001462 4902.25342 6750.05908
6564.0 0.0001523 4900.60840 6477.59131
6274.0 0.0001594 4898.97070 6214.81787
5989.0 0.0001670 4897.33984 5977.85059
5730.0 0.0001745 4895.71533 5772.24072
5519.0 0.0001812 4894.09863 5602.47803
5360.0 0.0001866 4892.48828 5467.68408
5247.0 0.0001906 4890.88477 5364.41064
5176.0 0.0001932 4889.28857 5288.46680
5132.0 0.0001949 4887.69922 5233.33154
5105.0 0.0001959 4886.11719 5194.82617
5092.0 0.0001964 4884.54248 5168.95898
5083.0 0.0001967 4882.97461 5152.74512
5085.0 0.0001967 4881.41455 5144.17822
5090.0 0.0001965 4879.86133 5142.04346
5102.0 0.0001960 4878.31592 5145.70654
5121.0 0.0001953 4876.77734 5157.67236
5139.0 0.0001946 4875.24658 5172.11621
5167.0 0.0001935 4873.72314 5191.49609
5198.0 0.0001924 4872.20752 5215.20508
5233.0 0.0001911 4870.69873 5242.21631
5267.0 0.0001899 4869.19824 5273.79199
5304.0 0.0001885 4867.70508 5302.19482
5338.0 0.0001873 4866.21924 5327.71387
5367.0 0.0001863 4864.74170 5348.24072
5391.0 0.0001855 4863.27100 5363.30615
5410.0 0.0001848 4861.80859 5375.00049
5426.0 0.0001843 4860.35449 5387.61328
5440.0 0.0001838 4858.90723 5406.35156
5465.0 0.0001830 4857.46826 5438.51953
5502.0 0.0001818 4856.03711 5483.16846
5555.0 0.0001800 4854.61377 5545.10010
5629.0 0.0001777 4853.19824 5625.02881
5719.0 0.0001749 4851.79053 5721.69434
5826.0 0.0001716 4850.39063 5831.74512
5942.0 0.0001683 4848.99951 5949.58838
6064.0 0.0001649 4847.61572 6063.46143
6181.0 0.0001618 4846.23975 6173.20898
6282.0 0.0001592 4844.87256 6268.82373
6372.0 0.0001569 4843.51270 6352.24023
6463.0 0.0001547 4842.16113 6436.26318
6561.0 0.0001524 4840.81738 6542.51660
6692.0 0.0001494 4839.48193 6697.89697
6881.0 0.0001453 4838.15527 6921.16602
7131.0 0.0001402 4836.83594 7231.08545
7471.0 0.0001339 4835.52441 7635.87549
7901.0 0.0001266 4834.22168 8132.34180
8419.0 0.0001188 4832.92725 8703.84570
8993.0 0.0001112 4831.64063 9317.45117
9570.0 0.0001045 4830.36182 9921.60352
10102.0 0.0000990 4829.09131 10440.84570
10516.0 0.0000951 4827.82959 10802.10645
10758.0 0.0000930 4826.57568 10929.83887
10780.0 0.0000928 4825.33008 10795.54199
10597.0 0.0000944 4824.09277 10428.62598
10221.0 0.0000978 4822.86279 9900.75586
9682.0 0.0001033 4821.64160 9293.81250
9041.0 0.0001106 4820.42871 8678.12305
8357.0 0.0001197 4819.22412 8105.05615
7697.0 0.0001299 4818.02734 7606.95068
7119.0 0.0001405 4816.83936 7200.07129
6643.0 0.0001505 4815.65869 6887.07568
6304.0 0.0001586 4814.48682 6659.48926
6078.0 0.0001645 4813.32275 6500.35693
5941.0 0.0001683 4812.16748 6386.87305
5864.0 0.0001705 4811.01953 6293.15771
5815.0 0.0001720 4809.87988 6200.69287
5767.0 0.0001734 4808.74902 6096.01953
5708.0 0.0001752 4807.62598 5977.31299
5638.0 0.0001774 4806.51123 5849.79785
5553.0 0.0001801 4805.40381 5720.93457
5463.0 0.0001830 4804.30518 5597.47314
5370.0 0.0001862 4803.21436 5484.27734
5282.0 0.0001893 4802.13184 5384.37451
5204.0 0.0001922 4801.05713 5299.13916
5136.0 0.0001947 4799.99072 5228.62988
5088.0 0.0001965 4798.93213 5171.82031
5054.0 0.0001979 4797.88184 5127.04102
5032.0 0.0001987 4796.83887 5092.30664
5018.0 0.0001993 4795.80420 5064.04639
5011.0 0.0001996 4794.77734 5043.63867
5004.0 0.0001998 4793.75879 5028.87988
4997.0 0.0002001 4792.74805 5016.82861
4998.0 0.0002001 4791.74463 5007.53027
5000.0 0.0002000 4790.75000 5000.40820
5003.0 0.0001999 4789.76270 4995.10156
5009.0 0.0001996 4788.78271 4991.41211
5016.0 0.0001994 4787.81104 4989.29248
5022.0 0.0001991 4786.84668 4988.82910
5028.0 0.0001989 4785.89014 4990.27051
5037.0 0.0001985 4784.94141 4994.07520
5046.0 0.0001982 4784.00049 5000.97314
5057.0 0.0001977 4783.06689 5012.05469
5072.0 0.0001972 4782.14111 5028.19629
5094.0 0.0001963 4781.22266 5054.20654
5125.0 0.0001951 4780.31201 5088.85938
5169.0 0.0001935 4779.40820 5136.35352
5230.0 0.0001912 4778.51221 5199.40723
5310.0 0.0001883 4777.62354 5280.29736
5404.0 0.0001850 4776.74219 5380.25732
5515.0 0.0001813 4775.86865 5498.95264
5642.0 0.0001772 4775.00195 5633.79150
5775.0 0.0001732 4774.14209 5779.31738
5912.0 0.0001691 4773.29004 5926.53320
6040.0 0.0001656 4772.44482 6062.41211
6146.0 0.0001627 4771.60693 6170.20850
6217.0 0.0001608 4770.77637 6232.55566
6240.0 0.0001603 4769.95215 6238.52881
6221.0 0.0001607 4769.13477 6184.88184
6157.0 0.0001624 4768.32520 6084.21094
6054.0 0.0001652 4767.52197 5953.36963
5918.0 0.0001690 4766.72607 5809.41406
5767.0 0.0001734 4765.93652 5665.93750
5613.0 0.0001782 4765.15332 5532.54053
5464.0 0.0001830 4764.37744 5415.16162
5334.0 0.0001875 4763.60791 5316.83936
5235.0 0.0001910 4762.84521 5238.42236
5162.0 0.0001937 4762.08887 5179.10596
5116.0 0.0001955 4761.33936 5137.17627
5094.0 0.0001963 4760.59570 5111.49512
5091.0 0.0001964 4759.85889 5098.36182
5107.0 0.0001958 4759.12793 5097.25146
5138.0 0.0001946 4758.40332 5105.23145
5187.0 0.0001928 4757.68506 5126.39697
5256.0 0.0001903 4756.97314 5158.76514
5338.0 0.0001873 4756.26709 5202.66553
5442.0 0.0001838 4755.56738 5258.24609
5564.0 0.0001797 4754.87305 5325.12109
5702.0 0.0001754 4754.18555 5402.10010
5854.0 0.0001708 4753.50293 5486.92529
6014.0 0.0001663 4752.82666 5576.01367
6168.0 0.0001621 4752.15576 5664.43701
6302.0 0.0001587 4751.49072 5746.86035
6415.0 0.0001559 4750.83154 5817.42822
6489.0 0.0001541 4750.17773 5875.65820
6532.0 0.0001531 4749.52930 5927.04395
6547.0 0.0001527 4748.88672 5982.98340
6550.0 0.0001527 4748.24902 6057.45898
6554.0 0.0001526 4747.61670 6163.27637
6571.0 0.0001522 4746.99023 6309.69043
6614.0 0.0001512 4746.36816 6500.98340
6694.0 0.0001494 4745.75146 6735.38818
6816.0 0.0001467 4745.13965 7004.35645
6972.0 0.0001434 4744.53320 7291.50830
7156.0 0.0001397 4743.93115 7571.86768
7335.0 0.0001363 4743.33398 7812.96729
7485.0 0.0001336 4742.74170 7978.84863
7583.0 0.0001319 4742.15479 8043.70898
7619.0 0.0001313 4741.57129 8003.52734
7592.0 0.0001317 4740.99316 7879.84814
7517.0 0.0001330 4740.41943 7709.79004
7417.0 0.0001348 4739.85010 7533.00732
7305.0 0.0001369 4739.28516 7381.42627
7204.0 0.0001388 4738.72412 7277.02441
7138.0 0.0001401 4738.16748 7231.40918
7120.0 0.0001404 4737.61523 7246.35400
7168.0 0.0001395 4737.06689 7314.22461
7270.0 0.0001376 4736.52246 7419.23730
7406.0 0.0001350 4735.98193 7536.03174
7550.0 0.0001325 4735.44531 7637.63770
7674.0 0.0001303 4734.91211 7701.13965
7765.0 0.0001288 4734.38330 7718.84521
7819.0 0.0001279 4733.85742 7703.38330
7852.0 0.0001274 4733.33545 7682.49512
7885.0 0.0001268 4732.81689 7687.30078
7928.0 0.0001261 4732.30176 7746.69873
8008.0 0.0001249 4731.79004 7877.88623
8139.0 0.0001229 4731.28174 8087.89990
8323.0 0.0001201 4730.77637 8371.77441
8586.0 0.0001165 4730.27393 8711.61621
8901.0 0.0001123 4729.77441 9075.68164
9227.0 0.0001084 4729.27832 9418.33594
9535.0 0.0001049 4728.78467 9685.21289
9762.0 0.0001024 4728.29395 9826.66699
9874.0 0.0001013 4727.80615 9818.29883
9865.0 0.0001014 4727.32080 9674.54297
9752.0 0.0001025 4726.83838 9442.26172
9552.0 0.0001047 4726.35791 9180.62500
9299.0 0.0001075 4725.87988 8937.62500
9036.0 0.0001107 4725.40430 8763.49512
8801.0 0.0001136 4724.93115 8675.49316
8638.0 0.0001158 4724.45996 8680.16211
8574.0 0.0001166 4723.99121 8768.30176
8606.0 0.0001162 4723.52393 8915.16211
8717.0 0.0001147 4723.05908 9081.58203
8858.0 0.0001129 4722.59619 9218.29199
8983.0 0.0001113 4722.13477 9277.29883
9042.0 0.0001106 4721.67480 9229.46777
9022.0 0.0001108 4721.21680 9077.85254
8927.0 0.0001120 4720.76074 8854.90137
8753.0 0.0001142 4720.30566 8606.46582
8544.0 0.0001170 4719.85205 8375.24902
8313.0 0.0001203 4719.39941 8195.47461
8082.0 0.0001237 4718.94873 8085.63086
7901.0 0.0001266 4718.49902 8052.87012
7794.0 0.0001283 4718.04980 8087.61084
7761.0 0.0001288 4717.60205 8170.71191
7793.0 0.0001283 4717.15527 8269.39453
7854.0 0.0001273 4716.70947 8341.61328
7900.0 0.0001266 4716.26416 8344.75000
7890.0 0.0001267 4715.81982 8249.82129
7810.0 0.0001280 4715.37549 8052.91309
7649.0 0.0001307 4714.93262 7774.29785
7417.0 0.0001348 4714.48975 7446.48291
7121.0 0.0001404 4714.04736 7101.70410
6794.0 0.0001472 4713.60498 6765.78662
6461.0 0.0001548 4713.16309 6456.51367
6134.0 0.0001630 4712.72168 6185.90576
5847.0 0.0001710 4712.27979 5956.35645
5624.0 0.0001778 4711.83838 5769.12305
5454.0 0.0001834 4711.39697 5620.55518
5338.0 0.0001873 4710.95508 5504.57861
5267.0 0.0001899 4710.51318 5414.05518
5220.0 0.0001916 4710.07080 5342.26270
5188.0 0.0001928 4709.62793 5283.88379
5160.0 0.0001938 4709.18506 5235.37109
5132.0 0.0001949 4708.74121 5194.61572
5106.0 0.0001958 4708.29736 5160.38379
5071.0 0.0001972 4707.85254 5131.96631
5041.0 0.0001984 4707.40674 5109.56299
5015.0 0.0001994 4706.96045 5091.96533
4989.0 0.0002004 4706.51367 5079.85107
4974.0 0.0002010 4706.06543 5073.57227
4969.0 0.0002012 4705.61621 5073.77832
4974.0 0.0002010 4705.16553 5081.46436
4991.0 0.0002004 4704.71436 5098.03711
5026.0 0.0001990 4704.26172 5125.32275
5076.0 0.0001970 4703.80811 5165.46631
5140.0 0.0001946 4703.35254 5220.76514
5227.0 0.0001913 4702.89600 5293.35303
5334.0 0.0001875 4702.43750 5384.73486
5460.0 0.0001832 4701.97754 5495.51221
5610.0 0.0001783 4701.51611 5623.07764
5780.0 0.0001730 4701.05322 5767.05371
5960.0 0.0001678 4700.58838 5920.55664
6151.0 0.0001626 4700.12109 6075.06689
6338.0 0.0001578 4699.65234 6219.00049
6511.0 0.0001536 4699.18213 6338.93652
6649.0 0.0001504 4698.70898 6423.24268
6749.0 0.0001482 4698.23438 6467.79834
6815.0 0.0001467 4697.75732 6479.57129
6848.0 0.0001460 4697.27783 6474.74512
6864.0 0.0001457 4696.79639 6472.74072
6873.0 0.0001455 4696.31250 6491.57373
6902.0 0.0001449 4695.82617 6541.05225
6962.0 0.0001436 4695.33691 6627.40576
7068.0 0.0001415 4694.84521 6749.11963
7233.0 0.0001383 4694.35156 6897.66846
7436.0 0.0001345 4693.85449 7057.22168
7663.0 0.0001305 4693.35498 7205.01270
7884.0 0.0001268 4692.85254 7314.57764
8064.0 0.0001240 4692.34766 7362.98438
8170.0 0.0001224 4691.83936 7340.54492
8196.0 0.0001220 4691.32861 7255.90186
8142.0 0.0001228 4690.81445 7131.79492
8016.0 0.0001248 4690.29736 6995.52490
7841.0 0.0001275 4689.77686 6871.19775
7634.0 0.0001310 4689.25342 6775.10400
7439.0 0.0001344 4688.72656 6716.73828
7286.0 0.0001372 4688.19678 6697.80518
7193.0 0.0001390 4687.66309 6712.82764
7161.0 0.0001396 4687.12598 6749.46631
7185.0 0.0001392 4686.58594 6789.61963
7229.0 0.0001383 4686.04199 6812.71875
7265.0 0.0001376 4685.49414 6802.08350
7274.0 0.0001375 4684.94336 6751.76953
7236.0 0.0001382 4684.38818 6668.96875
7152.0 0.0001398 4683.83008 6569.70166
7025.0 0.0001423 4683.26758 6471.89111
6870.0 0.0001456 4682.70166 6390.37598
6706.0 0.0001491 4682.13135 6334.85205
6552.0 0.0001526 4681.55762 6309.51514
6426.0 0.0001556 4680.97949 6313.04004
6361.0 0.0001572 4680.39795 6338.69141
6331.0 0.0001580 4679.81201 6374.48145
6321.0 0.0001582 4679.22168 6404.40820
6330.0 0.0001580 4678.62793 6411.75781
6322.0 0.0001582 4678.02930 6384.69043
6301.0 0.0001587 4677.42676 6321.18896
6273.0 0.0001594 4676.81982 6229.30078
6221.0 0.0001607 4676.20850 6123.59912
6151.0 0.0001626 4675.59326 6016.31787
6068.0 0.0001648 4674.97314 5919.31250
5982.0 0.0001672 4674.34863 5839.74609
5906.0 0.0001693 4673.71973 5780.86816
5843.0 0.0001711 4673.08691 5742.28955
5801.0 0.0001724 4672.44873 5720.20947
5783.0 0.0001729 4671.80615 5707.79883
5771.0 0.0001733 4671.15918 5696.29883
5763.0 0.0001735 4670.50781 5677.26904
5749.0 0.0001739 4669.85107 5645.58936
5716.0 0.0001749 4669.19043 5601.36719
5671.0 0.0001763 4668.52441 5551.57910
5611.0 0.0001782 4667.85400 5497.86230
5544.0 0.0001804 4667.17822 5448.62256
5479.0 0.0001825 4666.49805 5408.27539
5411.0 0.0001848 4665.81299 5379.38623
5365.0 0.0001864 4665.12305 5362.67578
5338.0 0.0001873 4664.42822 5357.13770
5327.0 0.0001877 4663.72852 5360.13281
5340.0 0.0001873 4663.02344 5367.73584
5359.0 0.0001866 4662.31396 5375.60645
5382.0 0.0001858 4661.59912 5380.55713
5403.0 0.0001851 4660.87939 5382.14307
5422.0 0.0001844 4660.15430 5383.53076
5435.0 0.0001840 4659.42432 5388.36377
5447.0 0.0001836 4658.68945 5401.80029
5465.0 0.0001830 4657.94873 5427.24512
5489.0 0.0001822 4657.20361 5466.10645
5522.0 0.0001811 4656.45313 5517.50977
5568.0 0.0001796 4655.69775 5578.04639
5625.0 0.0001778 4654.93701 5641.55078
5688.0 0.0001758 4654.17041 5699.08350
5742.0 0.0001742 4653.39941 5739.73584
5781.0 0.0001730 4652.62305 5753.13037
5794.0 0.0001726 4651.84082 5734.84814
5770.0 0.0001733 4651.05371 5682.19189
5716.0 0.0001749 4650.26172 5602.21924
5631.0 0.0001776 4649.46387 5508.15771
5523.0 0.0001811 4648.66113 5407.86377
5396.0 0.0001853 4647.85254 5308.90332
5256.0 0.0001903 4647.03906 5216.66455
5123.0 0.0001952 4646.22021 5134.49316
5006.0 0.0001998 4645.39600 5064.13867
4902.0 0.0002040 4644.56641 5006.09375
4822.0 0.0002074 4643.73145 4959.85156
4763.0 0.0002100 4642.89111 4924.26855
4723.0 0.0002117 4642.04590 4897.86865
4698.0 0.0002129 4641.19482 4879.07861
4685.0 0.0002134 4640.33838 4866.44141
4682.0 0.0002136 4639.47656 4854.57324
4676.0 0.0002139 4638.60938 4850.95117
4678.0 0.0002138 4637.73730 4850.79004
4681.0 0.0002136 4636.85938 4853.87305
4684.0 0.0002135 4635.97607 4860.36328
4694.0 0.0002130 4635.08789 4870.81738
4711.0 0.0002123 4634.19434 4886.23096
4738.0 0.0002111 4633.29443 4908.06787
4771.0 0.0002096 4632.39014 4938.26904
4814.0 0.0002077 4631.48047 4980.08691
4867.0 0.0002055 4630.56543 5034.56982
4929.0 0.0002029 4629.64453 5105.36963
5010.0 0.0001996 4628.71875 5195.09229
5105.0 0.0001959 4627.78760 5303.22998
5221.0 0.0001915 4626.85156 5435.41113
5356.0 0.0001867 4625.90918 5588.26611
5511.0 0.0001815 4624.96240 5758.60889
5684.0 0.0001759 4624.01025 5940.60059
5862.0 0.0001706 4623.05273 6125.13721
6047.0 0.0001654 4622.08984 6299.40381
6219.0 0.0001608 4621.12207 6447.85547
6355.0 0.0001574 4620.14893 6555.30957
6460.0 0.0001548 4619.17090 6612.48779
6528.0 0.0001532 4618.18701 6621.53027
6555.0 0.0001526 4617.19824 6595.85791
6552.0 0.0001526 4616.20459 6554.93555
6520.0 0.0001534 4615.20557 6515.67334
6475.0 0.0001544 4614.20117 6496.33691
6424.0 0.0001557 4613.19238 6502.88037
6377.0 0.0001568 4612.17822 6536.77295
6353.0 0.0001574 4611.15918 6592.97852
6350.0 0.0001575 4610.13477 6660.04053
6368.0 0.0001570 4609.10547 6720.91504
6389.0 0.0001565 4608.07129 6755.89893
6400.0 0.0001562 4607.03223 6748.58496
6392.0 0.0001564 4605.98779 6692.49854
6350.0 0.0001575 4604.93896 6593.79297
6284.0 0.0001591 4603.88525 6467.62402
6197.0 0.0001614 4602.82666 6331.61572
6093.0 0.0001641 4601.76318 6200.79395
5980.0 0.0001672 4600.69482 6085.84521
5872.0 0.0001703 4599.62207 5992.40771
5781.0 0.0001730 4598.54395 5921.55225
5707.0 0.0001752 4597.46191 5870.10498
5659.0 0.0001767 4596.37451 5832.17920
5635.0 0.0001775 4595.28320 5796.37451
5615.0 0.0001781 4594.18701 5754.33643
5599.0 0.0001786 4593.08594 5700.00684
5569.0 0.0001796 4591.98096 5632.63818
5524.0 0.0001810 4590.87061 5556.14258
5468.0 0.0001829 4589.75635 5476.62207
5391.0 0.0001855 4588.63770 5399.99170
5311.0 0.0001883 4587.51465 5330.88135
5230.0 0.0001912 4586.38721 5272.48047
5146.0 0.0001943 4585.25586 5226.60205
5082.0 0.0001968 4584.11963 5193.93066
5031.0 0.0001988 4582.97949 5175.50244
4997.0 0.0002001 4581.83496 5167.94141
4985.0 0.0002006 4580.68652 5171.63379
4990.0 0.0002004 4579.53369 5186.35156
5016.0 0.0001994 4578.37695 5212.99951
5055.0 0.0001978 4577.21631 5253.36377
5111.0 0.0001957 4576.05176 5309.35986
5179.0 0.0001931 4574.88330 5382.09814
5257.0 0.0001902 4573.71045 5471.19824
5350.0 0.0001869 4572.53418 5573.42432
5447.0 0.0001836 4571.35400 5685.80957
5551.0 0.0001801 4570.16992 5800.60400
5654.0 0.0001769 4568.98242 5905.83838
5749.0 0.0001739 4567.79150 5989.22070
5818.0 0.0001719 4566.59619 6037.98779
5859.0 0.0001707 4565.39795 6043.83154
5874.0 0.0001702 4564.19629 6006.74219
5857.0 0.0001707 4562.99072 5935.08740
5813.0 0.0001720 4561.78174 5841.88037
5745.0 0.0001741 4560.56934 5740.33496
5661.0 0.0001766 4559.35400 5641.05273
5570.0 0.0001795 4558.13525 5551.20654
5477.0 0.0001826 4556.91309 5473.18066
5388.0 0.0001856 4555.68848 5413.05322
5317.0 0.0001881 4554.45996 5363.16992
5260.0 0.0001901 4553.22852 5321.78076
5213.0 0.0001918 4551.99414 5283.93555
5177.0 0.0001932 4550.75684 5245.23730
5141.0 0.0001945 4549.51660 5203.32373
5101.0 0.0001960 4548.27344 5158.34717
5059.0 0.0001977 4547.02783 5112.24756
5016.0 0.0001994 4545.77979 5067.53174
4970.0 0.0002012 4544.52832 5026.54590
4924.0 0.0002031 4543.27441 4991.21875
4882.0 0.0002048 4542.01807 4964.28760
4851.0 0.0002061 4540.75928 4943.65332
4831.0 0.0002070 4539.49756 4933.87500
4822.0 0.0002074 4538.23389 4935.00098
4837.0 0.0002067 4536.96777 4948.23193
4865.0 0.0002055 4535.69971 4974.81641
4912.0 0.0002036 4534.42920 5016.01318
4983.0 0.0002007 4533.15625 5072.97314
5060.0 0.0001976 4531.88184 5146.55029
5164.0 0.0001936 4530.60498 5237.10645
5285.0 0.0001892 4529.32568 5344.17676
5421.0 0.0001845 4528.04541 5466.35303
5573.0 0.0001794 4526.76270 5600.99707
5738.0 0.0001743 4525.47803 5742.87354
5910.0 0.0001692 4524.19189 5887.94922
6072.0 0.0001647 4522.90479 6027.98047
6227.0 0.0001606 4521.61475 6156.17236
6370.0 0.0001570 4520.32422 6268.94043
6496.0 0.0001539 4519.03174 6369.59570
6621.0 0.0001510 4517.73730 6467.99023
6743.0 0.0001483 4516.44287 6577.40430
6871.0 0.0001455 4515.14600 6710.13965
6999.0 0.0001429 4513.84814 6873.49170
7130.0 0.0001403 4512.54883 7068.79590
7274.0 0.0001375 4511.24951 7289.12158
7411.0 0.0001349 4509.94824 7520.36865
7553.0 0.0001324 4508.64600 7738.93115
7678.0 0.0001302 4507.34277 7915.95410
7766.0 0.0001288 4506.03857 8019.66211
7796.0 0.0001283 4504.73486 8027.13574
7747.0 0.0001291 4503.42920 7933.75488
7630.0 0.0001311 4502.12305 7755.31836
7455.0 0.0001341 4500.81641 7520.21387
7231.0 0.0001383 4499.50928 7259.82910
6972.0 0.0001434 4498.20166 7000.25391
6711.0 0.0001490 4496.89355 6761.03711
6463.0 0.0001547 4495.58496 6554.33691
6242.0 0.0001602 4494.27588 6386.16211
6066.0 0.0001649 4492.96777 6257.48779
5955.0 0.0001679 4491.65820 6164.65332
5901.0 0.0001695 4490.35010 6103.05664
5904.0 0.0001694 4489.04053 6067.57959
5952.0 0.0001680 4487.73193 6056.37939
6039.0 0.0001656 4486.42236 6070.82715
6156.0 0.0001624 4485.11328 6113.95117
6290.0 0.0001590 4483.80566 6187.95996
6439.0 0.0001553 4482.49707 6294.19336
6590.0 0.0001517 4481.18945 6425.32813
6756.0 0.0001480 4479.88184 6574.64893
6922.0 0.0001445 4478.57568 6728.42822
7070.0 0.0001414 4477.26904 6868.01221
7195.0 0.0001390 4475.96338 6969.79395
7276.0 0.0001374 4474.65869 7012.86621
7289.0 0.0001372 4473.35400 6981.99854
7229.0 0.0001383 4472.05176 6876.49023
7100.0 0.0001408 4470.74854 6709.18701
6909.0 0.0001447 4469.44775 6501.05957
6679.0 0.0001497 4468.14697 6274.13477
6404.0 0.0001562 4466.84863 6045.35693
6120.0 0.0001634 4465.55029 5828.77637
5840.0 0.0001712 4464.25342 5634.06494
5580.0 0.0001792 4462.95801 5467.16846
5350.0 0.0001869 4461.66357 5331.36426
5175.0 0.0001932 4460.37109 5228.02344
5061.0 0.0001976 4459.07959 5156.75195
4992.0 0.0002003 4457.79053 5116.37109
4975.0 0.0002010 4456.50195 5104.90918
4988.0 0.0002005 4455.21631 5120.03564
5033.0 0.0001987 4453.93115 5161.38037
5103.0 0.0001960 4452.64795 5221.02344
5188.0 0.0001928 4451.36768 5297.25635
5294.0 0.0001889 4450.08838 5385.16553
5409.0 0.0001849 4448.81201 5478.13623
5537.0 0.0001806 4447.53662 5567.94873
5654.0 0.0001769 4446.26465 5644.28125
5755.0 0.0001738 4444.99365 5696.20654
5832.0 0.0001715 4443.72559 5714.43115
5869.0 0.0001704 4442.45996 5694.90576
5870.0 0.0001704 4441.19580 5640.44336
5832.0 0.0001715 4439.93506 5560.40039
5761.0 0.0001736 4438.67627 5463.48535
5665.0 0.0001765 4437.42090 5360.55176
5544.0 0.0001804 4436.16699 5259.16064
5405.0 0.0001850 4434.91650 5164.78809
5270.0 0.0001898 4433.66846 5080.52490
5139.0 0.0001946 4432.42334 5007.90527
5022.0 0.0001991 4431.18115 4946.89941
4930.0 0.0002028 4429.94141 4896.48633
4861.0 0.0002057 4428.70557 4853.99365
4807.0 0.0002080 4427.47168 4820.29639
4765.0 0.0002099 4426.24219 4793.07666
4737.0 0.0002111 4425.01514 4771.60889
4713.0 0.0002122 4423.79150 4755.45557
4697.0 0.0002129 4422.57080 4744.52832
4685.0 0.0002134 4421.35303 4738.99219
4676.0 0.0002139 4420.13965 4739.29834
4674.0 0.0002139 4418.92920 4746.23535
4679.0 0.0002137 4417.72314 4760.90088
4696.0 0.0002129 4416.51953 4784.72559
4722.0 0.0002118 4415.32031 4819.31201
4764.0 0.0002099 4414.12402 4866.42383
4817.0 0.0002076 4412.93164 4926.35742
4886.0 0.0002047 4411.74365 5003.16846
4968.0 0.0002013 4410.55859 5095.85400
5065.0 0.0001974 4409.37842 5204.25049
5173.0 0.0001933 4408.20117 5327.06299
5285.0 0.0001892 4407.02930 5461.17822
5412.0 0.0001848 4405.86035 5601.99170
5541.0 0.0001805 4404.69580 5742.39404
5667.0 0.0001765 4403.53516 5873.56006
5794.0 0.0001726 4402.37939 5985.39063
5905.0 0.0001693 4401.22754 6069.82715
5995.0 0.0001668 4400.07959 6124.20459
6061.0 0.0001650 4398.93652 6152.65771
6111.0 0.0001636 4397.79736 6166.77148
6156.0 0.0001624 4396.66357 6178.25732
6188.0 0.0001616 4395.53369 6197.44385
6217.0 0.0001608 4394.40869 6230.59375
6246.0 0.0001601 4393.28760 6279.26611
6276.0 0.0001593 4392.17139 6340.01660
6312.0 0.0001584 4391.06006 6404.52441
6350.0 0.0001575 4389.95313 6460.65381
6390.0 0.0001565 4388.85205 6494.77783
6411.0 0.0001560 4387.75488 6496.59424
6414.0 0.0001559 4386.66309 6463.50732
6399.0 0.0001563 4385.57568 6401.76074
6358.0 0.0001573 4384.49365 6324.07422
6304.0 0.0001586 4383.41602 6244.03857
6243.0 0.0001602 4382.34375 6173.23779
6182.0 0.0001618 4381.27686 6119.77539
6136.0 0.0001630 4380.21436 6087.88672
6100.0 0.0001639 4379.15820 6078.40967
6098.0 0.0001640 4378.10645 6089.03369
6126.0 0.0001632 4377.06055 6115.33398
6179.0 0.0001618 4376.01953 6152.81299
6257.0 0.0001598 4374.98389 6201.57275
6350.0 0.0001575 4373.95313 6259.37451
6454.0 0.0001549 4372.92822 6332.99756
6566.0 0.0001523 4371.90918 6430.58984
6689.0 0.0001495 4370.89502 6555.50049
6812.0 0.0001468 4369.88672 6707.74072
6953.0 0.0001438 4368.88330 6882.64258
7112.0 0.0001406 4367.88623 7069.42480
7271.0 0.0001375 4366.89453 7251.82568
7433.0 0.0001345 4365.90820 7408.13965
7579.0 0.0001319 4364.92773 7515.38428
7689.0 0.0001301 4363.95313 7556.83643
7754.0 0.0001290 4362.98438 7527.09814
7764.0 0.0001288 4362.02100 7437.11572
7728.0 0.0001294 4361.06396 7307.77148
7649.0 0.0001307 4360.11230 7161.66553
7529.0 0.0001328 4359.16699 7018.64746
7386.0 0.0001354 4358.22705 6890.86719
7234.0 0.0001382 4357.29248 6783.54639
7084.0 0.0001412 4356.36523 6695.12109
6945.0 0.0001440 4355.44336 6617.61523
6824.0 0.0001465 4354.52734 6538.93359
6725.0 0.0001487 4353.61719 6446.81006
6621.0 0.0001510 4352.71387 6330.72705
6508.0 0.0001537 4351.81592 6189.71436
6387.0 0.0001566 4350.92432 6029.38721
6240.0 0.0001603 4350.03857 5858.99316
6072.0 0.0001647 4349.15869 5688.01904
5886.0 0.0001699 4348.28613 5524.42871
5692.0 0.0001757 4347.41895 5373.53564
5490.0 0.0001821 4346.55811 5239.01123
5298.0 0.0001888 4345.70313 5122.43311
5137.0 0.0001947 4344.85498 5024.32617
5000.0 0.0002000 4344.01270 4945.70654
4896.0 0.0002042 4343.17676 4881.58984
4823.0 0.0002073 4342.34717 4832.07129
4777.0 0.0002093 4341.52393 4795.23145
4749.0 0.0002106 4340.70703 4769.30127
4736.0 0.0002111 4339.89648 4752.49707
4731.0 0.0002114 4339.09229 4742.31396
4728.0 0.0002115 4338.29443 4738.79736
4730.0 0.0002114 4337.50293 4739.45166
4730.0 0.0002114 4336.71777 4742.57129
4735.0 0.0002112 4335.93896 4746.38037
4738.0 0.0002111 4335.16699 4749.13916
4739.0 0.0002110 4334.40088 4749.49072
4739.0 0.0002110 4333.64160 4746.83057
4731.0 0.0002114 4332.88818 4741.58691
4725.0 0.0002116 4332.14209 4735.07568
4719.0 0.0002119 4331.40186 4729.12207
4712.0 0.0002122 4330.66797 4725.74414
4706.0 0.0002125 4329.94092 4724.61182
4701.0 0.0002127 4329.22021 4732.70508
4707.0 0.0002124 4328.50635 4749.83057
4719.0 0.0002119 4327.79834 4779.13525
4755.0 0.0002103 4327.09766 4821.72412
4809.0 0.0002079 4326.40234 4880.90967
4887.0 0.0002046 4325.71436 4958.99268
5001.0 0.0002000 4325.03271 5057.99512
5133.0 0.0001948 4324.35693 5178.98730
5292.0 0.0001890 4323.68848 5321.79199
5472.0 0.0001827 4323.02637 5484.96289
5668.0 0.0001764 4322.37061 5664.13574
5872.0 0.0001703 4321.72119 5854.41699
6071.0 0.0001647 4321.07861 6045.95898
6278.0 0.0001593 4320.44238 6226.96973
6447.0 0.0001551 4319.81250 6381.60889
6577.0 0.0001520 4319.18896 6495.12500
6661.0 0.0001501 4318.57178 6556.90479
6689.0 0.0001495 4317.96191 6565.34912
6671.0 0.0001499 4317.35791 6529.12646
6607.0 0.0001514 4316.76074 6463.81250
6507.0 0.0001537 4316.16943 6386.46826
6396.0 0.0001563 4315.58496 6312.02930
6274.0 0.0001594 4315.00684 6249.40088
6153.0 0.0001625 4314.43506 6208.63281
6051.0 0.0001653 4313.87012 6190.29932
5977.0 0.0001673 4313.31055 6193.34570
5938.0 0.0001684 4312.75830 6214.51367
5944.0 0.0001682 4312.21191 6250.56396
6000.0 0.0001667 4311.67285 6300.54150
6095.0 0.0001641 4311.13916 6367.02295
6237.0 0.0001603 4310.61230 6454.62207
6397.0 0.0001563 4310.09131 6567.73975
6576.0 0.0001521 4309.57666 6707.70459
6771.0 0.0001477 4309.06836 6871.29932
6978.0 0.0001433 4308.56641 7050.46143
7187.0 0.0001391 4308.07080 7230.38379
7379.0 0.0001355 4307.58154 7391.64063
7556.0 0.0001323 4307.09863 7511.02100
7682.0 0.0001302 4306.62109 7567.99072
7744.0 0.0001291 4306.15039 7551.42188
7742.0 0.0001292 4305.68604 7464.70264
7676.0 0.0001303 4305.22705 7323.85400
7558.0 0.0001323 4304.77490 7151.10742
7397.0 0.0001352 4304.32861 6967.28760
7198.0 0.0001389 4303.88867 6788.61426
6992.0 0.0001430 4303.45459 6625.61914
6772.0 0.0001477 4303.02637 6478.63330
6550.0 0.0001527 4302.60400 6348.10010
6357.0 0.0001573 4302.18799 6226.83105
6184.0 0.0001617 4301.77783 6106.52881
6037.0 0.0001656 4301.37354 5980.39600
5905.0 0.0001693 4300.97510 5846.01660
5787.0 0.0001728 4300.58252 5705.26611
5669.0 0.0001764 4300.19629 5563.25439
5543.0 0.0001804 4299.81543 5425.24512
5414.0 0.0001847 4299.44043 5295.95898
5277.0 0.0001895 4299.07080 5179.84668
5142.0 0.0001945 4298.70703 5075.99463
5012.0 0.0001995 4298.34961 4986.66895
4901.0 0.0002040 4297.99756 4911.86572
4811.0 0.0002079 4297.65137 4850.99609
4740.0 0.0002110 4297.31006 4802.96289
4699.0 0.0002128 4296.97510 4766.65137
4679.0 0.0002137 4296.64502 4740.79541
4677.0 0.0002138 4296.32080 4724.18457
4687.0 0.0002134 4296.00244 4715.49170
4706.0 0.0002125 4295.68848 4715.09814
4727.0 0.0002116 4295.38086 4717.74805
4760.0 0.0002101 4295.07813 4723.41162
4792.0 0.0002087 4294.78125 4729.97998
4820.0 0.0002075 4294.48926 4735.18311
4849.0 0.0002062 4294.20264 4736.84277
4864.0 0.0002056 4293.92090 4733.40771
4866.0 0.0002055 4293.64502 4724.44043
4859.0 0.0002058 4293.37354 4710.69385
4843.0 0.0002065 4293.10791 4693.74414
4824.0 0.0002073 4292.84717 4675.40430
4796.0 0.0002085 4292.59131 4657.24316
4760.0 0.0002101 4292.34033 4640.48730
4722.0 0.0002118 4292.09424 4625.90723
4681.0 0.0002136 4291.85352 4613.96143
4648.0 0.0002151 4291.61768 4603.78271
4622.0 0.0002164 4291.38623 4597.42578
4604.0 0.0002172 4291.15967 4593.85645
4589.0 0.0002179 4290.93799 4593.22559
4583.0 0.0002182 4290.72119 4595.95068
4587.0 0.0002180 4290.50879 4602.77783
4592.0 0.0002178 4290.30127 4614.77148
4610.0 0.0002169 4290.09814 4633.51514
4634.0 0.0002158 4289.89941 4660.57959
4665.0 0.0002144 4289.70508 4698.36035
4711.0 0.0002123 4289.51563 4749.54346
4770.0 0.0002096 4289.33057 4817.03906
4844.0 0.0002064 4289.14941 4902.75049
4934.0 0.0002027 4288.97314 5011.97314
5052.0 0.0001979 4288.80078 5145.86084
5186.0 0.0001928 4288.63281 5305.46973
5342.0 0.0001872 4288.46875 5490.70996
5526.0 0.0001810 4288.30908 5699.18799
5729.0 0.0001746 4288.15332 5925.80908
5954.0 0.0001680 4288.00195 6162.68994
6192.0 0.0001615 4287.85400 6397.71436
6441.0 0.0001553 4287.71045 6615.21533
6667.0 0.0001500 4287.57080 6795.56738
6850.0 0.0001460 4287.43457 6918.68115
6990.0 0.0001431 4287.30273 6971.42773
7062.0 0.0001416 4287.17383 6949.53662
7063.0 0.0001416 4287.04932 6861.83154
7006.0 0.0001427 4286.92822 6726.24365
6890.0 0.0001451 4286.81055 6563.23682
6735.0 0.0001485 4286.69678 6391.57031
6547.0 0.0001527 4286.58643 6225.20508
6332.0 0.0001579 4286.47949 6073.77881
6123.0 0.0001633 4286.37549 5942.19141
5924.0 0.0001688 4286.27539 5832.12061
5753.0 0.0001738 4286.17822 5742.73535
5622.0 0.0001779 4286.08447 5669.86621
5541.0 0.0001805 4285.99414 5616.83984
5495.0 0.0001820 4285.90674 5581.43506
5481.0 0.0001824 4285.82227 5564.93457
5493.0 0.0001820 4285.74121 5567.52441
5523.0 0.0001811 4285.66260 5589.49170
5572.0 0.0001795 4285.58740 5629.53906
5631.0 0.0001776 4285.51514 5684.84424
5700.0 0.0001754 4285.44531 5751.11572
5779.0 0.0001730 4285.37842 5822.93604
5866.0 0.0001705 4285.31445 5896.96338
5955.0 0.0001679 4285.25293 5963.97217
6043.0 0.0001655 4285.19434 6028.23145
6134.0 0.0001630 4285.13770 6092.22900
6214.0 0.0001609 4285.08398 6160.36914
6285.0 0.0001591 4285.03271 6237.28027
6348.0 0.0001575 4284.98389 6324.28613
6395.0 0.0001564 4284.93750 6418.60938
6430.0 0.0001555 4284.89307 6513.05713
6449.0 0.0001551 4284.85107 6595.67188
6455.0 0.0001549 4284.81152 6651.88184
6443.0 0.0001552 4284.77393 6665.37549
6397.0 0.0001563 4284.73828 6626.05127
6325.0 0.0001581 4284.70508 6532.20166
6220.0 0.0001608 4284.67334 6393.03857
6088.0 0.0001643 4284.64404 6220.05420
5936.0 0.0001685 4284.61621 6030.50830
5767.0 0.0001734 4284.59033 5838.27588
5601.0 0.0001785 4284.56641 5654.77588
5424.0 0.0001844 4284.54395 5487.93115
5258.0 0.0001902 4284.52295 5343.74219
5115.0 0.0001955 4284.50391 5225.10449
4996.0 0.0002002 4284.48633 5133.99512
4914.0 0.0002035 4284.47070 5070.55762
4867.0 0.0002055 4284.45557 5033.59814
4855.0 0.0002060 4284.44287 5021.36426
4871.0 0.0002053 4284.43066 5030.83496
4913.0 0.0002035 4284.42041 5058.43652
4972.0 0.0002011 4284.41113 5099.96436
5041.0 0.0001984 4284.40283 5150.38281
5125.0 0.0001951 4284.39600 5203.93506
5206.0 0.0001921 4284.39014 5253.96729
5281.0 0.0001894 4284.38525 5293.58350
5346.0 0.0001871 4284.38135 5316.98682
5392.0 0.0001855 4284.37842 5320.99219
5415.0 0.0001847 4284.37646 5306.20166
5414.0 0.0001847 4284.37549 5276.53125
5398.0 0.0001853 4284.37500 5237.45020
5360.0 0.0001866 4284.37549 5194.34033
5308.0 0.0001884 4284.37598 5151.23584
5245.0 0.0001907 4284.37793 5110.46387
5175.0 0.0001932 4284.37988 5072.84131
5105.0 0.0001959 4284.38281 5037.20801
5031.0 0.0001988 4284.38574 5001.95361
4965.0 0.0002014 4284.38916 4965.09912
4906.0 0.0002038 4284.39355 4925.53369
4854.0 0.0002060 4284.39795 4883.34668
4809.0 0.0002079 4284.40234 4838.28076
4768.0 0.0002097 4284.40723 4795.39014
4731.0 0.0002114 4284.41211 4754.82275
4693.0 0.0002131 4284.41699 4718.10400
4662.0 0.0002145 4284.42236 4686.36572
4630.0 0.0002160 4284.42725 4660.19189
4600.0 0.0002174 4284.43262 4640.14795
4579.0 0.0002184 4284.43750 4626.57031
4563.0 0.0002192 4284.44287 4619.61279
4557.0 0.0002194 4284.44775 4619.35303
4561.0 0.0002193 4284.45215 4625.80029
4571.0 0.0002188 4284.45654 4638.22510
4589.0 0.0002179 4284.46045 4658.16455
4615.0 0.0002167 4284.46436 4684.99023
4649.0 0.0002151 4284.46777 4719.69238
4691.0 0.0002132 4284.47021 4760.75000
4739.0 0.0002110 4284.47266 4809.16504
4794.0 0.0002086 4284.47461 4865.09521
4857.0 0.0002059 4284.47607 4928.82520
4927.0 0.0002030 4284.47656 5000.83691
5009.0 0.0001996 4284.47656 5082.16992
5101.0 0.0001960 4284.47607 5173.86914
5198.0 0.0001924 4284.47461 5274.56250
5308.0 0.0001884 4284.47266 5388.91992
5430.0 0.0001842 4284.46924 5514.91309
5560.0 0.0001799 4284.46582 5646.34668
5695.0 0.0001756 4284.46094 5779.61377
5837.0 0.0001713 4284.45508 5907.98633
5972.0 0.0001674 4284.44824 6023.50000
6089.0 0.0001642 4284.44043 6119.72754
6196.0 0.0001614 4284.43164 6193.82813
6276.0 0.0001593 4284.42139 6248.53027
6331.0 0.0001580 4284.41016 6290.84766
6371.0 0.0001570 4284.39795 6328.74561
6399.0 0.0001563 4284.38428 6371.63281
6421.0 0.0001557 4284.36963 6423.12109
6437.0 0.0001554 4284.35352 6483.93164
6456.0 0.0001549 4284.33594 6550.63770
6475.0 0.0001544 4284.31689 6616.61426
6499.0 0.0001539 4284.29688 6673.56250
6530.0 0.0001531 4284.27490 6714.93652
6564.0 0.0001523 4284.25146 6738.71289
6601.0 0.0001515 4284.22705 6748.59082
6642.0 0.0001506 4284.20068 6751.98779
6687.0 0.0001495 4284.17285 6757.23730
6729.0 0.0001486 4284.14307 6767.87549
6763.0 0.0001479 4284.11182 6784.89111
6789.0 0.0001473 4284.07910 6803.53857
6803.0 0.0001470 4284.04443 6814.21094
6797.0 0.0001471 4284.00830 6804.03760
6766.0 0.0001478 4283.97021 6760.01318
6706.0 0.0001491 4283.93018 6673.52295
6614.0 0.0001512 4283.88818 6543.54980
6491.0 0.0001541 4283.84473 6377.34912
6345.0 0.0001576 4283.79932 6186.74902
6175.0 0.0001619 4283.75195 5985.26904
5981.0 0.0001672 4283.70215 5783.54590
5773.0 0.0001732 4283.65088 5591.17480
5554.0 0.0001801 4283.59766 5413.82178
5342.0 0.0001872 4283.54199 5255.50098
5135.0 0.0001947 4283.48486 5118.34766
4957.0 0.0002017 4283.42480 5002.73926
4811.0 0.0002079 4283.36328 4908.23242
4700.0 0.0002128 4283.29932 4833.21143
4629.0 0.0002160 4283.23340 4775.69336
4581.0 0.0002183 4283.16553 4733.16846
4559.0 0.0002193 4283.09521 4703.11377
4548.0 0.0002199 4283.02246 4682.91650
4549.0 0.0002198 4282.94775 4670.14746
4559.0 0.0002193 4282.87061 4662.42822
4569.0 0.0002189 4282.79102 4657.58936
4582.0 0.0002182 4282.70947 4653.80225
4590.0 0.0002179 4282.62500 4649.77148
4597.0 0.0002175 4282.53906 4644.90381
4605.0 0.0002172 4282.45020 4639.26709
4611.0 0.0002169 4282.35938 4633.48535
4616.0 0.0002166 4282.26563 4627.83545
4620.0 0.0002165 4282.16992 4622.84570
4621.0 0.0002164 4282.07129 4618.60400
4619.0 0.0002165 4281.97070 4614.84180
4618.0 0.0002165 4281.86768 4611.00244
4615.0 0.0002167 4281.76172 4606.34180
4609.0 0.0002170 4281.65381 4600.20654
4600.0 0.0002174 4281.54297 4592.28564
4592.0 0.0002178 4281.43018 4583.12744
4586.0 0.0002181 4281.31445 4572.79150
4581.0 0.0002183 4281.19629 4562.54395
4583.0 0.0002182 4281.07520 4553.39795
4582.0 0.0002182 4280.95215 4546.26611
4577.0 0.0002185 4280.82617 4539.77539
4569.0 0.0002189 4280.69775 4538.99268
4559.0 0.0002193 4280.56689 4542.27832
4552.0 0.0002197 4280.43359 4550.08252
4546.0 0.0002200 4280.29736 4562.70801
4549.0 0.0002198 4280.15869 4580.53564
4557.0 0.0002194 4280.01758 4603.05957
4570.0 0.0002188 4279.87354 4630.22461
4593.0 0.0002177 4279.72705 4661.54102
4620.0 0.0002165 4279.57813 4696.13428
4650.0 0.0002151 4279.42627 4732.84912
4682.0 0.0002136 4279.27197 4769.64111
4715.0 0.0002121 4279.11523 4805.40723
4750.0 0.0002105 4278.95557 4837.77197
4782.0 0.0002091 4278.79346 4865.18896
4817.0 0.0002076 4278.62891 4888.36914
4844.0 0.0002064 4278.46191 4906.24707
4864.0 0.0002056 4278.29150 4922.10010
4883.0 0.0002048 4278.11914 4938.63672
4902.0 0.0002040 4277.94385 4958.48828
4921.0 0.0002032 4277.76611 4983.69531
4945.0 0.0002022 4277.58594 5015.56006
4972.0 0.0002011 4277.40283 5053.84375
5003.0 0.0001999 4277.21777 5100.05371
5044.0 0.0001983 4277.02979 5153.03320
5092.0 0.0001964 4276.83887 5212.84424
5146.0 0.0001943 4276.64600 5279.16455
5202.0 0.0001922 4276.45020 5352.92090
5262.0 0.0001900 4276.25195 5434.52881
5323.0 0.0001879 4276.05078 5523.38330
5382.0 0.0001858 4275.84766 5617.07861
5444.0 0.0001837 4275.64160 5711.35449
5501.0 0.0001818 4275.43359 5797.70459
5551.0 0.0001801 4275.22266 5871.73926
5592.0 0.0001788 4275.00928 5923.08887
5616.0 0.0001781 4274.79346 5945.88818
5625.0 0.0001778 4274.57520 5938.26904
5612.0 0.0001782 4274.35449 5904.86523
5594.0 0.0001788 4274.13135 5854.59326
5566.0 0.0001797 4273.90576 5798.60107
5534.0 0.0001807 4273.67822 5747.81055
5515.0 0.0001813 4273.44775 5711.98145
5511.0 0.0001815 4273.21484 5699.04688
5530.0 0.0001808 4272.97998 5715.27490
5587.0 0.0001790 4272.74268 5765.30371
5681.0 0.0001760 4272.50342 5852.48877
5814.0 0.0001720 4272.26123 5977.77441
5998.0 0.0001667 4272.01709 6141.63770
6221.0 0.0001607 4271.77051 6341.93066
6470.0 0.0001546 4271.52197 6574.44482
6744.0 0.0001483 4271.27148 6831.09180
7038.0 0.0001421 4271.01807 7100.43408
7341.0 0.0001362 4270.76270 7365.82031
7631.0 0.0001310 4270.50586 7606.43066
7899.0 0.0001266 4270.24609 7797.84961
8109.0 0.0001233 4269.98486 7919.00391
8242.0 0.0001213 4269.72119 7954.67920
8283.0 0.0001207 4269.45557 7903.00586
8236.0 0.0001214 4269.18750 7775.45215
8114.0 0.0001232 4268.91846 7592.45459
7929.0 0.0001261 4268.64648 7376.20313
7698.0 0.0001299 4268.37305 7146.39502
7437.0 0.0001345 4268.09766 6917.54932
7146.0 0.0001399 4267.82031 6698.13184
6837.0 0.0001463 4267.54150 6492.36279
6534.0 0.0001530 4267.26025 6300.12012
6250.0 0.0001600 4266.97754 6121.15723
6002.0 0.0001666 4266.69336 5953.98291
5799.0 0.0001724 4266.40674 5799.06885
5643.0 0.0001772 4266.11914 5657.43066
5525.0 0.0001810 4265.82959 5530.48584
5439.0 0.0001839 4265.53857 5418.86035
5373.0 0.0001861 4265.24561 5321.85107
5316.0 0.0001881 4264.95117 5237.96094
5262.0 0.0001900 4264.65527 5164.92090
5210.0 0.0001919 4264.35840 5099.40186
5152.0 0.0001941 4264.05957 5038.93896
5095.0 0.0001963 4263.75928 4981.68604
5038.0 0.0001985 4263.45752 4926.81641
4982.0 0.0002007 4263.15479 4874.51953
4929.0 0.0002029 4262.85059 4825.63232
4878.0 0.0002050 4262.54492 4781.02930
4831.0 0.0002070 4262.23828 4741.56787
4786.0 0.0002089 4261.93018 4707.76465
4743.0 0.0002108 4261.62109 4680.77930
4705.0 0.0002125 4261.31055 4659.27441
4674.0 0.0002139 4260.99951 4643.89746
4647.0 0.0002152 4260.68701 4634.85010
4633.0 0.0002158 4260.37354 4631.71680
4627.0 0.0002161 4260.05957 4634.11719
4629.0 0.0002160 4259.74414 4641.51416
4641.0 0.0002155 4259.42822 4653.20459
4659.0 0.0002146 4259.11133 4668.35303
4682.0 0.0002136 4258.79346 4685.88623
4710.0 0.0002123 4258.47510 4704.68262
4744.0 0.0002108 4258.15576 4723.32275
4778.0 0.0002093 4257.83594 4740.74951
4806.0 0.0002081 4257.51514 4755.22363
4831.0 0.0002070 4257.19434 4769.41406
4854.0 0.0002060 4256.87256 4783.29395
4876.0 0.0002051 4256.55078 4798.64258
4902.0 0.0002040 4256.22803 4817.52295
4932.0 0.0002028 4255.90527 4841.89697
4964.0 0.0002015 4255.58203 4873.47461
4999.0 0.0002000 4255.25830 4913.64453
5043.0 0.0001983 4254.93408 4963.37891
5088.0 0.0001965 4254.61035 5023.54004
5143.0 0.0001944 4254.28613 5094.77051
5211.0 0.0001919 4253.96143 5176.51367
5290.0 0.0001890 4253.63721 5272.45117
5387.0 0.0001856 4253.31250 5381.86279
5499.0 0.0001819 4252.98828 5504.63672
5624.0 0.0001778 4252.66357 5639.47754
5763.0 0.0001735 4252.33936 5783.92090
5914.0 0.0001691 4252.01514 5933.09326
6074.0 0.0001646 4251.69141 6081.23926
6231.0 0.0001605 4251.36768 6221.58008
6386.0 0.0001566 4251.04443 6349.02441
6529.0 0.0001532 4250.72119 6459.46533
6656.0 0.0001502 4250.39844 6558.53271
6775.0 0.0001476 4250.07617 6648.56641
6885.0 0.0001452 4249.75488 6733.80029
6990.0 0.0001431 4249.43359 6816.20850
7090.0 0.0001410 4249.11328 6893.62598
7182.0 0.0001392 4248.79346 6959.16748
7255.0 0.0001378 4248.47412 7002.17041
7297.0 0.0001370 4248.15576 7010.18115
7304.0 0.0001369 4247.83789 6972.56006
7266.0 0.0001376 4247.52100 6884.68652
7190.0 0.0001391 4247.20508 6750.11572
7075.0 0.0001413 4246.89063 6579.74414
6927.0 0.0001444 4246.57617 6387.75635
6747.0 0.0001482 4246.26367 6188.93750
6532.0 0.0001531 4245.95166 5995.49512
6299.0 0.0001588 4245.64111 5817.38037
6057.0 0.0001651 4245.33154 5661.37646
5815.0 0.0001720 4245.02344 5532.28271
5593.0 0.0001788 4244.71680 5432.78418
5405.0 0.0001850 4244.41113 5363.55713
5260.0 0.0001901 4244.10742 5323.88623
5165.0 0.0001936 4243.80469 5311.30615
5120.0 0.0001953 4243.50342 5322.46045
5115.0 0.0001955 4243.20410 5353.11914
5144.0 0.0001944 4242.90625 5395.62158
5199.0 0.0001923 4242.60986 5443.47852
5265.0 0.0001899 4242.31494 5488.44189
5330.0 0.0001876 4242.02246 5522.10889
5389.0 0.0001856 4241.73145 5537.41064
5432.0 0.0001841 4241.44238 5530.19922
5455.0 0.0001833 4241.15527 5500.36523
5459.0 0.0001832 4240.87012 5451.35205
5448.0 0.0001836 4240.58691 5389.61377
5420.0 0.0001845 4240.30566 5319.50195
5381.0 0.0001858 4240.02686 5246.53076
5333.0 0.0001875 4239.74951 5174.00684
5271.0 0.0001897 4239.47510 5103.86035
5198.0 0.0001924 4239.20264 5036.65771
5120.0 0.0001953 4238.93262 4972.50586
5044.0 0.0001983 4238.66504 4911.23438
4971.0 0.0002012 4238.39990 4853.15674
4907.0 0.0002038 4238.13721 4798.85938
4852.0 0.0002061 4237.87695 4749.97217
4799.0 0.0002084 4237.61914 4705.93066
4751.0 0.0002105 4237.36426 4667.98389
4712.0 0.0002122 4237.11182 4636.53467
4675.0 0.0002139 4236.86230 4611.69727
4642.0 0.0002154 4236.61523 4593.50928
4614.0 0.0002167 4236.37109 4581.85986
4588.0 0.0002180 4236.12988 4576.60449
4571.0 0.0002188 4235.89160 4577.49805
4565.0 0.0002191 4235.65625 4584.25879
4570.0 0.0002188 4235.42383 4596.41357
4582.0 0.0002182 4235.19434 4613.48242
4603.0 0.0002172 4234.96826 4634.78076
4633.0 0.0002158 4234.74512 4659.47217
4665.0 0.0002144 4234.52490 4686.49219
4703.0 0.0002126 4234.30811 4714.76172
4744.0 0.0002108 4234.09521 4743.27002
4781.0 0.0002092 4233.88477 4771.50049
4819.0 0.0002075 4233.67773 4799.51025
4856.0 0.0002059 4233.47461 4828.20898
4886.0 0.0002047 4233.27490 4857.54053
4916.0 0.0002034 4233.07861 4888.25146
4941.0 0.0002024 4232.88574 4920.21045
4965.0 0.0002014 4232.69678 4952.44287
4984.0 0.0002006 4232.51074 4983.38037
4998.0 0.0002001 4232.32910 5011.01807
5010.0 0.0001996 4232.15088 5033.66846
5014.0 0.0001994 4231.97656 5050.74463
5015.0 0.0001994 4231.80566 5063.56738
5010.0 0.0001996 4231.63867 5073.73145
5003.0 0.0001999 4231.47607 5084.77051
5001.0 0.0002000 4231.31689 5099.84717
5007.0 0.0001997 4231.16162 5121.47754
5027.0 0.0001989 4231.01074 5151.34766
5055.0 0.0001978 4230.86377 5190.15332
5096.0 0.0001962 4230.72070 5237.82666
5148.0 0.0001943 4230.58203 5294.02344
5211.0 0.0001919 4230.44727 5358.32617
5285.0 0.0001892 4230.31641 5430.89209
5370.0 0.0001862 4230.19043 5511.30371
5464.0 0.0001830 4230.06836 5599.14551
5566.0 0.0001797 4229.95068 5692.33301
5670.0 0.0001764 4229.83691 5787.01270
5773.0 0.0001732 4229.72803 5877.18799
5869.0 0.0001704 4229.62354 5954.92383
5952.0 0.0001680 4229.52295 6011.83008
6017.0 0.0001662 4229.42725 6040.76172
6052.0 0.0001652 4229.33594 6038.40283
6063.0 0.0001649 4229.24951 6006.36621
6047.0 0.0001654 4229.16699 5950.46289
6009.0 0.0001664 4229.08936 5878.65430
5958.0 0.0001678 4229.01660 5798.73584
5900.0 0.0001695 4228.94775 5716.60303
5835.0 0.0001714 4228.88428 5636.08008
5761.0 0.0001736 4228.82520 5558.65234
5681.0 0.0001760 4228.77100 5484.48096
5597.0 0.0001787 4228.72168 5412.97119
5509.0 0.0001815 4228.67676 5344.69873
5433.0 0.0001841 4228.63672 5279.10352
5363.0 0.0001865 4228.60156 5218.32568
5300.0 0.0001887 4228.57178 5164.01953
5248.0 0.0001905 4228.54639 5117.24561
5205.0 0.0001921 4228.52588 5078.35156
5164.0 0.0001936 4228.51025 5046.65527
5124.0 0.0001952 4228.50000 5020.83740
5084.0 0.0001967 4228.49414 4999.12305
5044.0 0.0001983 4228.49365 4980.34912
5007.0 0.0001997 4228.49805 4962.71240
4975.0 0.0002010 4228.50732 4946.39697
4949.0 0.0002021 4228.52148 4931.73096
4926.0 0.0002030 4228.54150 4919.06152
4911.0 0.0002036 4228.56592 4908.34229
4899.0 0.0002041 4228.59570 4898.82471
4888.0 0.0002046 4228.63037 4889.04785
4874.0 0.0002052 4228.67041 4876.99561
4851.0 0.0002061 4228.71533 4860.95996
4824.0 0.0002073 4228.76563 4838.42529
4791.0 0.0002087 4228.82129 4809.79004
4759.0 0.0002101 4228.88184 4775.62646
4724.0 0.0002117 4228.94727 4737.57227
4687.0 0.0002134 4229.01855 4697.74170
4653.0 0.0002149 4229.09473 4658.02441
4615.0 0.0002167 4229.17627 4620.04688
4578.0 0.0002184 4229.26270 4584.94775
4540.0 0.0002203 4229.35449 4553.58350
4504.0 0.0002220 4229.45166 4526.73193
4469.0 0.0002238 4229.55420 4501.91553
4440.0 0.0002252 4229.66162 4484.35400
4421.0 0.0002262 4229.77441 4471.72070
4406.0 0.0002270 4229.89258 4464.08789
4401.0 0.0002272 4230.01611 4461.48828
4404.0 0.0002271 4230.14502 4463.99072
4409.0 0.0002268 4230.27881 4471.68652
4426.0 0.0002259 4230.41797 4484.73926
4447.0 0.0002249 4230.56250 4503.49805
4477.0 0.0002234 4230.71240 4527.82031
4513.0 0.0002216 4230.86719 4558.04980
4554.0 0.0002196 4231.02734 4593.24951
4599.0 0.0002174 4231.19287 4635.66650
4650.0 0.0002151 4231.36377 4684.09180
4705.0 0.0002125 4231.54004 4738.12061
4764.0 0.0002099 4231.72119 4796.95947
4830.0 0.0002070 4231.90771 4859.48486
4897.0 0.0002042 4232.09961 4924.15625
4967.0 0.0002013 4232.29639 4988.89209
5036.0 0.0001986 4232.49854 5052.17236
5100.0 0.0001961 4232.70605 5113.18652
5159.0 0.0001938 4232.91846 5171.61133
5212.0 0.0001919 4233.13623 5228.35254
5266.0 0.0001899 4233.35938 5283.44092
5322.0 0.0001879 4233.58691 5336.15820
5377.0 0.0001860 4233.82031 5384.45703
5426.0 0.0001843 4234.05859 5424.58887
5469.0 0.0001828 4234.30225 5452.15186
5498.0 0.0001819 4234.55078 5461.34229
5508.0 0.0001816 4234.80420 5448.95166
5497.0 0.0001819 4235.06299 5414.12549
5469.0 0.0001828 4235.32666 5359.19238
5425.0 0.0001843 4235.59521 5288.84229
5367.0 0.0001863 4235.86914 5208.82520
5300.0 0.0001887 4236.14795 5124.35547
5216.0 0.0001917 4236.43115 5039.84717
5124.0 0.0001952 4236.71973 4958.24365
5025.0 0.0001990 4237.01318 4881.62842
4922.0 0.0002032 4237.31152 4811.05713
4818.0 0.0002076 4237.61475 4747.18994
4723.0 0.0002117 4237.92285 4690.37646
4642.0 0.0002154 4238.23584 4640.53369
4574.0 0.0002186 4238.55322 4598.00244
4525.0 0.0002210 4238.87549 4562.40820
4489.0 0.0002228 4239.20215 4533.47803
4479.0 0.0002233 4239.53418 4511.55566
4463.0 0.0002241 4239.87012 4494.53076
4449.0 0.0002248 4240.21143 4482.66602
4434.0 0.0002255 4240.55713 4475.46875
4416.0 0.0002264 4240.90674 4472.46143
4415.0 0.0002265 4241.26172 4473.18262
4417.0 0.0002264 4241.62012 4477.08740
4426.0 0.0002259 4241.98389 4483.93408
4439.0 0.0002253 4242.35156 4493.11035
4455.0 0.0002245 4242.72412 4504.83252
4475.0 0.0002235 4243.10010 4516.89063
4493.0 0.0002226 4243.48145 4529.33447
4514.0 0.0002215 4243.86621 4541.46680
4535.0 0.0002205 4244.25537 4552.74414
4554.0 0.0002196 4244.64893 4562.94043
4571.0 0.0002188 4245.04639 4572.13330
4585.0 0.0002181 4245.44775 4580.64893
4595.0 0.0002176 4245.85352 4587.93115
4607.0 0.0002171 4246.26318 4595.95996
4612.0 0.0002168 4246.67676 4603.86914
4616.0 0.0002166 4247.09424 4611.27783
4618.0 0.0002165 4247.51514 4617.88135
4615.0 0.0002167 4247.93994 4623.38525
4610.0 0.0002169 4248.36865 4627.87891
4603.0 0.0002172 4248.80127 4632.00928
4591.0 0.0002178 4249.23730 4636.99316
4579.0 0.0002184 4249.67676 4644.46875
4571.0 0.0002188 4250.11963 4654.71484
4571.0 0.0002188 4250.56641 4673.15869
4573.0 0.0002187 4251.01660 4698.76074
4584.0 0.0002182 4251.47021 4733.48291
4606.0 0.0002171 4251.92627 4778.37207
4633.0 0.0002158 4252.38672 4834.22949
4675.0 0.0002139 4252.84961 4901.27783
4726.0 0.0002116 4253.31592 4979.40479
4785.0 0.0002090 4253.78516 5067.71094
4856.0 0.0002059 4254.25781 5164.62500
4938.0 0.0002025 4254.73291 5267.96680
5028.0 0.0001989 4255.21094 5373.58203
5128.0 0.0001950 4255.69238 5477.32031
5236.0 0.0001910 4256.17578 5573.87744
5338.0 0.0001873 4256.66260 5658.51318
5439.0 0.0001839 4257.15137 5727.84961
5532.0 0.0001808 4257.64355 5781.34912
5613.0 0.0001782 4258.13770 5821.09326
5681.0 0.0001760 4258.63428 5850.92432
5749.0 0.0001739 4259.13379 5875.21094
5810.0 0.0001721 4259.63477 5895.63867
5872.0 0.0001703 4260.13867 5914.94775
5934.0 0.0001685 4260.64453 5931.48535
5986.0 0.0001671 4261.15234 5943.02734
6024.0 0.0001660 4261.66211 5947.13135
6047.0 0.0001654 4262.17432 5942.49854
6054.0 0.0001652 4262.68799 5929.68896
6037.0 0.0001656 4263.20410 5910.90039
6024.0 0.0001660 4263.72168 5888.84912
6006.0 0.0001665 4264.24072 5865.39600
5990.0 0.0001669 4264.76172 5840.68311
5972.0 0.0001674 4265.28369 5813.50000
5940.0 0.0001684 4265.80713 5780.55322
5899.0 0.0001695 4266.33252 5738.33643
5837.0 0.0001713 4266.85938 5684.22168
5763.0 0.0001735 4267.38672 5617.74072
5685.0 0.0001759 4267.91553 5541.07422
5598.0 0.0001786 4268.44580 5458.17383
5511.0 0.0001815 4268.97656 5373.98535
5429.0 0.0001842 4269.50879 5292.97510
5349.0 0.0001870 4270.04102 5218.96973
5267.0 0.0001899 4270.57471 5154.56396
5186.0 0.0001928 4271.10938 5101.57373
5107.0 0.0001958 4271.64404 5061.01611
5028.0 0.0001989 4272.17969 5033.22412
4963.0 0.0002015 4272.71484 5018.12451
4915.0 0.0002035 4273.25146 5015.34766
4884.0 0.0002048 4273.78760 5023.37354
4875.0 0.0002051 4274.32471 5040.77783
4889.0 0.0002045 4274.86133 5065.25488
4910.0 0.0002037 4275.39844 5093.81055
4944.0 0.0002023 4275.93555 5123.46338
4979.0 0.0002008 4276.47217 5150.87012
5014.0 0.0001994 4277.00879 5173.61572
5049.0 0.0001981 4277.54492 5190.48682
5076.0 0.0001970 4278.08105 5201.89795
5098.0 0.0001962 4278.61621 5208.60107
5113.0 0.0001956 4279.15137 5212.11035
5127.0 0.0001950 4279.68555 5213.23438
5133.0 0.0001948 4280.21924 5211.89355
5135.0 0.0001947 4280.75244 5206.74902
5128.0 0.0001950 4281.28418 5196.88623
5116.0 0.0001955 4281.81543 5180.42334
5093.0 0.0001963 4282.34521 5156.65332
5069.0 0.0001973 4282.87402 5126.43701
5044.0 0.0001983 4283.40137 5090.65186
5014.0 0.0001994 4283.92773 5051.85059
4984.0 0.0002006 4284.45264 5012.22607
4957.0 0.0002017 4284.97559 4973.45752
4929.0 0.0002029 4285.49756 4936.50684
4901.0 0.0002040 4286.01758 4901.62988
4872.0 0.0002053 4286.53613 4869.39893
4836.0 0.0002068 4287.05225 4839.78223
4799.0 0.0002084 4287.56689 4814.26367
4768.0 0.0002097 4288.07959 4791.54980
4737.0 0.0002111 4288.59033 4773.81006
4712.0 0.0002122 4289.09863 4762.29688
4693.0 0.0002131 4289.60449 4758.16357
4684.0 0.0002135 4290.10791 4762.36377
4683.0 0.0002135 4290.60938 4775.63281
4692.0 0.0002131 4291.10791 4797.37402
4707.0 0.0002124 4291.60400 4829.83398
4731.0 0.0002114 4292.09717 4871.80566
4766.0 0.0002098 4292.58740 4922.67285
4811.0 0.0002079 4293.07520 4981.39551
4871.0 0.0002053 4293.55957 5046.37207
4949.0 0.0002021 4294.04102 5115.23193
5041.0 0.0001984 4294.51953 5185.00977
5137.0 0.0001947 4294.99414 5251.87402
5241.0 0.0001908 4295.46631 5311.83887
5334.0 0.0001875 4295.93408 5360.82031
5415.0 0.0001847 4296.39893 5397.42920
5486.0 0.0001823 4296.86035 5420.71924
5541.0 0.0001805 4297.31738 5432.53711
5584.0 0.0001791 4297.77148 5435.80859
5616.0 0.0001781 4298.22070 5433.59424
5643.0 0.0001772 4298.66650 5428.23047
5657.0 0.0001768 4299.10791 5420.88477
5663.0 0.0001766 4299.54590 5411.58789
5661.0 0.0001766 4299.97900 5399.70215
5642.0 0.0001772 4300.40820 5384.49707
5614.0 0.0001781 4300.83301 5366.10059
5580.0 0.0001792 4301.25293 5345.36621
5542.0 0.0001804 4301.66846 5323.79248
5505.0 0.0001817 4302.07959 5302.94727
5472.0 0.0001827 4302.48584 5283.75146
5447.0 0.0001836 4302.88672 5266.25830
5421.0 0.0001845 4303.28320 5249.55713
5393.0 0.0001854 4303.67480 5232.17676
5363.0 0.0001865 4304.06104 5212.33545
5319.0 0.0001880 4304.44238 5189.71729
5264.0 0.0001900 4304.81836 5164.19531
5211.0 0.0001919 4305.18848 5136.80615
5161.0 0.0001938 4305.55371 5109.10889
5122.0 0.0001952 4305.91309 5082.49170
5092.0 0.0001964 4306.26709 5057.91309
5069.0 0.0001973 4306.61572 5035.61133
5048.0 0.0001981 4306.95801 5015.31201
5031.0 0.0001988 4307.29492 4996.52881
5013.0 0.0001995 4307.62598 4978.71289
4991.0 0.0002004 4307.95068 4961.86572
4971.0 0.0002012 4308.26904 4946.32568
4958.0 0.0002017 4308.58203 4932.73340
4948.0 0.0002021 4308.88818 4921.62451
4945.0 0.0002022 4309.18799 4913.24805
4946.0 0.0002022 4309.48193 4907.41260
4943.0 0.0002023 4309.76904 4903.55029
4941.0 0.0002024 4310.04980 4901.31445
4936.0 0.0002026 4310.32373 4899.35400
4924.0 0.0002031 4310.59082 4897.84863
4912.0 0.0002036 4310.85156 4897.11768
4900.0 0.0002041 4311.10547 4897.84570
4892.0 0.0002044 4311.35205 4900.80420
4885.0 0.0002047 4311.59180 4906.55176
4884.0 0.0002048 4311.82471 4915.24902
4883.0 0.0002048 4312.05029 4926.62598
4887.0 0.0002046 4312.26855 4940.54297
4895.0 0.0002043 4312.47949 4955.42822
4900.0 0.0002041 4312.68311 4971.19092
4907.0 0.0002038 4312.87988 4987.29932
4912.0 0.0002036 4313.06836 5004.28027
4921.0 0.0002032 4313.24951 5021.74072
4930.0 0.0002028 4313.42334 5039.19727
4943.0 0.0002023 4313.58936 5055.63330
4956.0 0.0002018 4313.74756 5069.53076
4967.0 0.0002013 4313.89746 5080.02734
4975.0 0.0002010 4314.04004 5083.76855
4974.0 0.0002010 4314.17480 5081.05664
4968.0 0.0002013 4314.30127 5071.85449
4958.0 0.0002017 4314.41943 5059.77148
4952.0 0.0002019 4314.52979 5047.02002
4948.0 0.0002021 4314.63184 5036.94287
4948.0 0.0002021 4314.72559 5032.69775
4950.0 0.0002020 4314.81104 5036.96582
4959.0 0.0002017 4314.88818 5051.86426
4975.0 0.0002010 4314.95703 5078.86084
5001.0 0.0002000 4315.01709 5118.76318
5040.0 0.0001984 4315.06885 5171.79150
5095.0 0.0001963 4315.11182 5237.25391
5171.0 0.0001934 4315.14600 5313.89307
5257.0 0.0001902 4315.17188 5399.33301
5364.0 0.0001864 4315.18848 5490.08398
5476.0 0.0001826 4315.19678 5582.22559
5599.0 0.0001786 4315.19580 5669.69482
5722.0 0.0001748 4315.18652 5747.76270
5817.0 0.0001719 4315.16748 5812.13428
5909.0 0.0001692 4315.14014 5860.75537
5979.0 0.0001673 4315.10352 5893.79004
6040.0 0.0001656 4315.05762 5913.23340
6078.0 0.0001645 4315.00293 5921.66650
6094.0 0.0001641 4314.93848 5920.93994
6092.0 0.0001641 4314.86523 5911.65381
6073.0 0.0001647 4314.78271 5892.56934
6033.0 0.0001658 4314.69092 5861.92871
5972.0 0.0001674 4314.58984 5818.17236
5895.0 0.0001696 4314.47900 5761.06934
5800.0 0.0001724 4314.35889 5692.58203
5701.0 0.0001754 4314.22949 5616.49854
5605.0 0.0001784 4314.09033 5537.72217
5515.0 0.0001813 4313.94189 5461.06152
5439.0 0.0001839 4313.78369 5390.47412
5373.0 0.0001861 4313.61621 5329.05420
5321.0 0.0001879 4313.43896 5278.67773
5273.0 0.0001896 4313.25195 5240.46631
5234.0 0.0001911 4313.05518 5214.74219
5205.0 0.0001921 4312.84863 5201.24463
5188.0 0.0001928 4312.63281 5199.16650
5191.0 0.0001926 4312.40674 5206.91943
5209.0 0.0001920 4312.17139 5222.58594
5243.0 0.0001907 4311.92578 5243.42188
5291.0 0.0001890 4311.67041 5265.32520
5345.0 0.0001871 4311.40527 5284.76074
5395.0 0.0001854 4311.13037 5298.22656
5425.0 0.0001843 4310.84570 5303.36230
5438.0 0.0001839 4310.55078 5299.44336
5434.0 0.0001840 4310.24561 5287.38672
5416.0 0.0001846 4309.93115 5269.15381
5393.0 0.0001854 4309.60645 5247.27148
5356.0 0.0001867 4309.27197 5223.05811
5314.0 0.0001882 4308.92725 5197.93750
5265.0 0.0001899 4308.57275 5172.27832
5210.0 0.0001919 4308.20801 5146.06787
5154.0 0.0001940 4307.83350 5119.24951
5088.0 0.0001965 4307.44873 5091.97559
5024.0 0.0001990 4307.05420 5064.83984
4961.0 0.0002016 4306.64941 5038.51904
4909.0 0.0002037 4306.23486 5013.31006
4867.0 0.0002055 4305.81006 4989.88525
4838.0 0.0002067 4305.37500 4967.51025
4815.0 0.0002077 4304.93018 4945.26221
4793.0 0.0002086 4304.47510 4922.03027
4771.0 0.0002096 4304.01074 4896.95117
4740.0 0.0002110 4303.53564 4869.62256
4709.0 0.0002124 4303.05029 4840.35791
4680.0 0.0002137 4302.55518 4809.91602
4652.0 0.0002150 4302.05078 4779.62793
4629.0 0.0002160 4301.53564 4749.08496
4605.0 0.0002172 4301.01025 4720.71777
4582.0 0.0002182 4300.47510 4694.27002
4560.0 0.0002193 4299.93018 4669.95947
4542.0 0.0002202 4299.37549 4647.98340
4523.0 0.0002211 4298.81006 4628.50830
4505.0 0.0002220 4298.23535 4611.82080
4493.0 0.0002226 4297.65039 4598.23975
4487.0 0.0002229 4297.05615 4588.47070
4487.0 0.0002229 4296.45117 4581.42871
4495.0 0.0002225 4295.83643 4579.11719
4506.0 0.0002219 4295.21240 4580.96045
4525.0 0.0002210 4294.57813 4587.00000
4549.0 0.0002198 4293.93408 4597.16113
4575.0 0.0002186 4293.28027 4611.29785
4606.0 0.0002171 4292.61719 4629.10254
4639.0 0.0002156 4291.94336 4650.27100
4675.0 0.0002139 4291.26074 4673.96924
4715.0 0.0002121 4290.56787 4699.50586
4760.0 0.0002101 4289.86523 4725.85400
4808.0 0.0002080 4289.15381 4751.93604
4856.0 0.0002059 4288.43213 4776.65576
4896.0 0.0002042 4287.70166 4799.20410
4932.0 0.0002028 4286.96094 4819.36377
4958.0 0.0002017 4286.21094 4837.52148
4984.0 0.0002006 4285.45117 4854.64502
5011.0 0.0001996 4284.68213 4871.86621
5036.0 0.0001986 4283.90430 4890.29199
5065.0 0.0001974 4283.11670 4910.35254
5098.0 0.0001962 4282.31982 4933.32861
5128.0 0.0001950 4281.51367 4959.11182
5157.0 0.0001939 4280.69873 4987.92920
5182.0 0.0001930 4279.87402 5020.25781
5209.0 0.0001920 4279.04053 5056.74463
5245.0 0.0001907 4278.19775 5098.25342
5288.0 0.0001891 4277.34570 5145.42041
5344.0 0.0001871 4276.48535 5198.39551
5409.0 0.0001849 4275.61572 5256.75879
5484.0 0.0001823 4274.73779 5318.82129
5564.0 0.0001797 4273.85010 5383.79248
5643.0 0.0001772 4272.95459 5449.36914
5719.0 0.0001749 4272.04932 5514.12842
5792.0 0.0001727 4271.13623 5576.92969
5867.0 0.0001704 4270.21436 5636.90039
5943.0 0.0001683 4269.28320 5692.79199
6025.0 0.0001660 4268.34473 5742.32324
6105.0 0.0001638 4267.39697 5782.05518
6179.0 0.0001618 4266.44141 5807.23389
6237.0 0.0001603 4265.47705 5813.29980
6268.0 0.0001595 4264.50488 5796.26904
6271.0 0.0001595 4263.52393 5754.65479
6236.0 0.0001604 4262.53467 5690.20947
6170.0 0.0001621 4261.53857 5606.91309
6072.0 0.0001647 4260.53320 5510.69043
5963.0 0.0001677 4259.52100 5407.82080
5836.0 0.0001714 4258.50000 5303.67676
5699.0 0.0001755 4257.47217 5202.84180
5550.0 0.0001802 4256.43555 5108.50586
5393.0 0.0001854 4255.39209 5023.10059
5238.0 0.0001909 4254.34033 4948.42090
5080.0 0.0001969 4253.28125 4884.23682
4951.0 0.0002020 4252.21484 4831.10400
4844.0 0.0002064 4251.14063 4788.46143
4771.0 0.0002096 4250.06006 4755.39551
4723.0 0.0002117 4248.97168 4730.53613
4698.0 0.0002129 4247.87598 4712.32471
4686.0 0.0002134 4246.77344 4698.45703
4682.0 0.0002136 4245.66357 4688.60889
4684.0 0.0002135 4244.54736 4681.28906
4686.0 0.0002134 4243.42383 4674.83496
4686.0 0.0002134 4242.29346 4669.08203
4682.0 0.0002136 4241.15625 4663.64600
4679.0 0.0002137 4240.01318 4658.22705
4673.0 0.0002140 4238.86279 4652.19189
4668.0 0.0002142 4237.70654 4645.01660
4653.0 0.0002149 4236.54297 4636.05469
4634.0 0.0002158 4235.37354 4624.45313
4607.0 0.0002171 4234.19873 4610.97607
4576.0 0.0002185 4233.01660 4595.42725
4549.0 0.0002198 4231.82959 4578.56299
4519.0 0.0002213 4230.63574 4561.27783
4489.0 0.0002228 4229.43652 4544.98145
4463.0 0.0002241 4228.23047 4529.62793
4441.0 0.0002252 4227.02002 4516.43262
4424.0 0.0002260 4225.80322 4505.97070
4409.0 0.0002268 4224.58057 4498.67383
4397.0 0.0002274 4223.35303 4495.12744
4389.0 0.0002278 4222.11963 4495.58545
4383.0 0.0002282 4220.88184 4500.32178
4386.0 0.0002280 4219.63770 4509.67627
4401.0 0.0002272 4218.38965 4523.56787
4426.0 0.0002259 4217.13525 4542.19727
4455.0 0.0002245 4215.87695 4565.57080
4487.0 0.0002229 4214.61328 4593.63330
4524.0 0.0002210 4213.34473 4626.31201
4560.0 0.0002193 4212.07227 4663.39648
4601.0 0.0002173 4210.79395 4704.72949
4644.0 0.0002153 4209.51270 4749.89697
4692.0 0.0002131 4208.22607 4798.73340
4739.0 0.0002110 4206.93555 4849.53760
4793.0 0.0002086 4205.64063 4901.53467
4846.0 0.0002064 4204.34082 4953.27979
4900.0 0.0002041 4203.03809 5003.42041
4946.0 0.0002022 4201.73096 5051.15430
4982.0 0.0002007 4200.42041 5096.13916
5014.0 0.0001994 4199.10547 5139.47314
5041.0 0.0001984 4197.78760 5182.05811
5073.0 0.0001971 4196.46533 5225.05273
5106.0 0.0001958 4195.14063 5268.99512
5144.0 0.0001944 4193.81152 5313.79004
5177.0 0.0001932 4192.47900 5358.53955
5208.0 0.0001920 4191.14404 5401.95996
5237.0 0.0001909 4189.80518 5442.94043
5261.0 0.0001901 4188.46436 5480.50830
5282.0 0.0001893 4187.11963 5514.75537
5305.0 0.0001885 4185.77295 5545.22461
5332.0 0.0001875 4184.42285 5571.19580
5363.0 0.0001865 4183.06982 5590.96289
5399.0 0.0001852 4181.71484 5601.83057
5429.0 0.0001842 4180.35693 5600.50635
5451.0 0.0001835 4178.99756 5584.01416
5452.0 0.0001834 4177.63477 5550.72363
5430.0 0.0001842 4176.27051 5500.82910
5393.0 0.0001854 4174.90332 5437.86865
5341.0 0.0001872 4173.53516 5365.70947
5282.0 0.0001893 4172.16455 5289.14160
5218.0 0.0001916 4170.79150 5212.74707
5148.0 0.0001943 4169.41748 5140.30029
5073.0 0.0001971 4168.04102 5074.47998
4999.0 0.0002000 4166.66455 5017.22559
4922.0 0.0002032 4165.28516 4969.48633
4850.0 0.0002062 4163.90479 4931.63818
4780.0 0.0002092 4162.52295 4903.27148
4730.0 0.0002114 4161.14111 4883.43896
4696.0 0.0002129 4159.75635 4870.51904
4677.0 0.0002138 4158.37061 4862.37939
4675.0 0.0002139 4156.98535 4856.50977
4681.0 0.0002136 4155.59814 4850.30127
4693.0 0.0002131 4154.21094 4841.50879
4700.0 0.0002128 4152.82178 4828.65674
4708.0 0.0002124 4151.43359 4811.38135
4708.0 0.0002124 4150.04395 4789.02588
4707.0 0.0002124 4148.65381 4764.33789
4699.0 0.0002128 4147.26318 4737.61230
4689.0 0.0002133 4145.87207 4709.80713
4672.0 0.0002140 4144.48193 4681.68262
4650.0 0.0002151 4143.09033 4653.69922
4620.0 0.0002165 4141.69971 4626.34131
4592.0 0.0002178 4140.30811 4600.21973
4564.0 0.0002191 4138.91797 4575.78857
4538.0 0.0002204 4137.52686 4553.16016
4517.0 0.0002214 4136.13574 4534.74268
4496.0 0.0002224 4134.74561 4520.49756
4484.0 0.0002230 4133.35547 4510.97705
4469.0 0.0002238 4131.96729 4506.56787
4468.0 0.0002238 4130.57813 4507.44580
4468.0 0.0002238 4129.19043 4513.61035
4481.0 0.0002232 4127.80273 4524.92725
4497.0 0.0002224 4126.41650 4540.91309
4524.0 0.0002210 4125.03027 4561.01025
4552.0 0.0002197 4123.64551 4584.52246
4589.0 0.0002179 4122.26221 4610.34863
4629.0 0.0002160 4120.87891 4637.31641
4667.0 0.0002143 4119.49756 4664.11377
4705.0 0.0002125 4118.11670 4689.66650
4738.0 0.0002111 4116.73828 4713.29443
4773.0 0.0002095 4115.35986 4734.81104
4810.0 0.0002079 4113.98340 4754.68018
4848.0 0.0002063 4112.60840 4773.09131
4877.0 0.0002050 4111.23486 4791.88818
4906.0 0.0002038 4109.86328 4810.95361
4929.0 0.0002029 4108.49268 4830.38867
4950.0 0.0002020 4107.12500 4849.92627
4965.0 0.0002014 4105.75732 4869.90332
4973.0 0.0002011 4104.39258 4888.74365
4975.0 0.0002010 4103.02930 4907.15088
4976.0 0.0002010 4101.66748 4925.29199
4982.0 0.0002007 4100.30908 4943.01514
4991.0 0.0002004 4098.95117 4960.63086
4999.0 0.0002000 4097.59668 4977.07764
5003.0 0.0001999 4096.24316 4991.12695
5006.0 0.0001998 4094.89282 5001.39453
5008.0 0.0001997 4093.54370 5006.60449
5002.0 0.0001999 4092.19751 5006.36279
4986.0 0.0002006 4090.85327 5001.10889
4965.0 0.0002014 4089.51123 4991.98438
4940.0 0.0002024 4088.17236 4980.15137
4916.0 0.0002034 4086.83496 4967.27734
4890.0 0.0002045 4085.50098 4953.81445
4867.0 0.0002055 4084.16870 4939.89502
4843.0 0.0002065 4082.84009 4925.40088
4818.0 0.0002076 4081.51294 4909.94287
4787.0 0.0002089 4080.18872 4893.57764
4755.0 0.0002103 4078.86768 4876.57031
4726.0 0.0002116 4077.54858 4859.30615
4704.0 0.0002126 4076.23267 4842.06006
4697.0 0.0002129 4074.91919 4824.62109
4686.0 0.0002134 4073.60938 4806.52295
4685.0 0.0002134 4072.30151 4786.77197
4677.0 0.0002138 4070.99683 4764.42725
4671.0 0.0002141 4069.69458 4738.83789
4662.0 0.0002145 4068.39502 4709.96826
4646.0 0.0002152 4067.09961 4678.36475
4622.0 0.0002164 4065.80615 4644.89453
4601.0 0.0002173 4064.51611 4610.56055
4580.0 0.0002183 4063.22852 4576.10352
4558.0 0.0002194 4061.94482 4542.32764
4533.0 0.0002206 4060.66333 4508.90967
4499.0 0.0002223 4059.38501 4476.26074
4464.0 0.0002240 4058.10962 4444.45508
4427.0 0.0002259 4056.83691 4413.71729
4394.0 0.0002276 4055.56860 4384.37793
4362.0 0.0002293 4054.30225 4356.71875
4333.0 0.0002308 4053.03979 4331.07617
4309.0 0.0002321 4051.77930 4307.37549
4287.0 0.0002333 4050.52295 4286.24756
4270.0 0.0002342 4049.26880 4267.29248
4251.0 0.0002352 4048.01782 4250.53223
4232.0 0.0002363 4046.77051 4235.86768
4213.0 0.0002374 4045.52563 4223.20557
4198.0 0.0002382 4044.28467 4212.47559
4189.0 0.0002387 4043.04565 4203.60498
4183.0 0.0002391 4041.81104 4196.56006
4172.0 0.0002397 4040.57837 4191.36279
4171.0 0.0002398 4039.34961 4187.90771
4168.0 0.0002399 4038.12305 4186.26709
4172.0 0.0002397 4036.89917 4186.50879
4171.0 0.0002398 4035.67993 4188.71582
4176.0 0.0002395 4034.46240 4193.02197
4182.0 0.0002391 4033.24878 4199.57373
4190.0 0.0002387 4032.03711 4208.56641
4193.0 0.0002385 4030.82935 4220.38330
4197.0 0.0002383 4029.62378 4234.44775
4208.0 0.0002376 4028.42163 4251.94531
4222.0 0.0002369 4027.22192 4272.67188
4244.0 0.0002356 4026.02490 4296.75049
4265.0 0.0002345 4024.83130 4324.22461
4297.0 0.0002327 4023.64014 4355.08887
4327.0 0.0002311 4022.45215 4389.09473
4366.0 0.0002290 4021.26636 4426.12061
4398.0 0.0002274 4020.08398 4465.18799
4437.0 0.0002254 4018.90356 4504.76953
4476.0 0.0002234 4017.72632 4546.31396
4522.0 0.0002211 4016.55151 4588.11426
4567.0 0.0002190 4015.37891 4629.77295
4615.0 0.0002167 4014.20947 4670.93164
4668.0 0.0002142 4013.04199 4711.33643
4720.0 0.0002119 4011.87769 4750.47998
4782.0 0.0002091 4010.71509 4787.18604
4834.0 0.0002069 4009.55591 4820.14453
4890.0 0.0002045 4008.39795 4847.81348
4934.0 0.0002027 4007.24219 4868.76758
4974.0 0.0002010 4006.08911 4882.20557
5000.0 0.0002000 4004.93799 4888.15283
5025.0 0.0001990 4003.78979 4887.31201
5041.0 0.0001984 4002.64282 4880.73828
5057.0 0.0001977 4001.49829 4869.68994
5064.0 0.0001975 4000.35522 4854.05713
5068.0 0.0001973 3999.21509 4834.26953
5063.0 0.0001975 3998.07593 4810.05713
5047.0 0.0001981 3996.93823 4781.71973
5016.0 0.0001994 3995.80322 4749.66162
4972.0 0.0002011 3994.66919 4714.95947
4923.0 0.0002031 3993.53809 4679.24609
4869.0 0.0002054 3992.40698 4644.23242
4825.0 0.0002073 3991.27832 4611.59082
4780.0 0.0002092 3990.15063 4582.55225
4743.0 0.0002108 3989.02466 4558.04004
4704.0 0.0002126 3987.89966 4538.37744
4662.0 0.0002145 3986.77588 4524.06836
4617.0 0.0002166 3985.65405 4514.88281
4576.0 0.0002185 3984.53247 4510.47266
4541.0 0.0002202 3983.41211 4510.31104
4518.0 0.0002213 3982.29248 4513.35986
4506.0 0.0002219 3981.17480 4518.48828
4498.0 0.0002223 3980.05688 4524.31152
4499.0 0.0002223 3978.93970 4529.41992
4499.0 0.0002223 3977.82349 4532.60791
4501.0 0.0002222 3976.70752 4533.13232
4502.0 0.0002221 3975.59302 4530.73633
4499.0 0.0002223 3974.47803 4525.63281
4495.0 0.0002225 3973.36377 4517.99512
4496.0 0.0002224 3972.24927 4508.14355
4494.0 0.0002225 3971.13550 4496.17334
4488.0 0.0002228 3970.02173 4482.01611
4474.0 0.0002235 3968.90771 4465.58936
4457.0 0.0002244 3967.79419 4447.01611
4444.0 0.0002250 3966.67969 4426.80615
4422.0 0.0002261 3965.56592 4405.88916
4399.0 0.0002273 3964.45093 4385.13330
4373.0 0.0002287 3963.33643 4365.84717
4350.0 0.0002299 3962.22046 4349.12256
4331.0 0.0002309 3961.10425 4335.96289
4312.0 0.0002319 3959.98755 4327.15527
4297.0 0.0002327 3958.86987 4322.95947
4288.0 0.0002332 3957.75171 4324.59619
4283.0 0.0002335 3956.63208 4332.34570
4290.0 0.0002331 3955.51221 4345.65820
4297.0 0.0002327 3954.39014 4364.86084
4315.0 0.0002317 3953.26807 4389.69727
4335.0 0.0002307 3952.14355 4419.77930
4369.0 0.0002289 3951.01782 4454.50342
4413.0 0.0002266 3949.89111 4493.10645
4465.0 0.0002240 3948.76245 4534.38135
4518.0 0.0002213 3947.63257 4578.60400
4576.0 0.0002185 3946.50024 4623.75049
4633.0 0.0002158 3945.36694 4668.82568
4698.0 0.0002129 3944.23047 4712.29102
4757.0 0.0002102 3943.09253 4752.14648
4817.0 0.0002076 3941.95239 4786.22461
4875.0 0.0002051 3940.80981 4812.49805
4921.0 0.0002032 3939.66553 4829.52246
4961.0 0.0002016 3938.51782 4836.18506
4980.0 0.0002008 3937.36865 4834.95508
4988.0 0.0002005 3936.21582 4826.87207
4986.0 0.0002006 3935.06104 4814.26318
4981.0 0.0002008 3933.90283 4799.39209
4968.0 0.0002013 3932.74194 4784.11670
4942.0 0.0002023 3931.57788 4769.72705
4911.0 0.0002036 3930.41040 4756.98682
4873.0 0.0002052 3929.24048 4746.31250
4836.0 0.0002068 3928.06641 4737.62598
4801.0 0.0002083 3926.88965 4730.76758
4761.0 0.0002100 3925.70874 4725.05518
4724.0 0.0002117 3924.52490 4719.38477
4691.0 0.0002132 3923.33667 4712.13086
4667.0 0.0002143 3922.14453 4701.35645
4647.0 0.0002152 3920.94946 4685.15283
4627.0 0.0002161 3919.74927 4662.06250
4604.0 0.0002172 3918.54541 4631.55615
4574.0 0.0002186 3917.33716 4593.69629
4537.0 0.0002204 3916.12549 4550.64307
4500.0 0.0002222 3914.90845 4503.80859
4458.0 0.0002243 3913.68701 4455.19287
4418.0 0.0002263 3912.46118 4406.55518
4372.0 0.0002287 3911.23022 4359.34473
4324.0 0.0002313 3909.99561 4314.74609
4273.0 0.0002340 3908.75513 4273.47705
4226.0 0.0002366 3907.51025 4236.16113
4182.0 0.0002391 3906.25977 4202.93359
4141.0 0.0002415 3905.00513 4174.22119
4112.0 0.0002432 3903.74414 4149.83789
4086.0 0.0002447 3902.47827 4129.65576
4068.0 0.0002458 3901.20728 4113.40381
4053.0 0.0002467 3899.93018 4100.92090
4043.0 0.0002473 3898.64819 4091.49585
4040.0 0.0002475 3897.35986 4084.85864
4042.0 0.0002474 3896.06665 4080.58350
4049.0 0.0002470 3894.76660 4078.20801
4052.0 0.0002468 3893.46143 4077.28418
4057.0 0.0002465 3892.14941 4077.36279
4066.0 0.0002459 3890.83105 4078.02539
4074.0 0.0002455 3889.50806 4078.92700
4083.0 0.0002449 3888.17749 4079.80884
4089.0 0.0002446 3886.84155 4080.60425
4087.0 0.0002447 3885.49805 4081.41724
4086.0 0.0002447 3884.14941 4082.23071
4087.0 0.0002447 3882.79297 4083.93799
4093.0 0.0002443 3881.43042 4086.64111
4096.0 0.0002441 3880.06079 4090.68628
4097.0 0.0002441 3878.68433 4096.68359
4096.0 0.0002441 3877.30200 4104.16748
4100.0 0.0002439 3875.91162 4113.55615
4104.0 0.0002437 3874.51514 4124.81543
4107.0 0.0002435 3873.11060 4137.80908
4115.0 0.0002430 3871.69971 4151.96240
4123.0 0.0002425 3870.28076 4167.36523
4139.0 0.0002416 3868.85498 4183.14355
4154.0 0.0002407 3867.42212 4198.63037
4173.0 0.0002396 3865.98120 4213.14355
4188.0 0.0002388 3864.53345 4226.12158
4202.0 0.0002380 3863.07739 4237.24023
4218.0 0.0002371 3861.61475 4246.39697
4234.0 0.0002362 3860.14355 4253.68945
4251.0 0.0002352 3858.66553 4258.77979
4266.0 0.0002344 3857.17871 4262.68652
4273.0 0.0002340 3855.68408 4264.90430
4272.0 0.0002341 3854.18262 4265.31348
4271.0 0.0002341 3852.67236 4263.87500
4267.0 0.0002344 3851.15479 4260.74658
4262.0 0.0002346 3849.62842 4256.35596
4255.0 0.0002350 3848.09497 4251.41064
4241.0 0.0002358 3846.55249 4246.47217
4231.0 0.0002364 3845.00220 4243.06299
4224.0 0.0002367 3843.44409 4241.86182
4220.0 0.0002370 3841.87671 4243.36279
4217.0 0.0002371 3840.30225 4248.37695
4219.0 0.0002370 3838.71851 4257.53760
4222.0 0.0002369 3837.12769 4271.45068
4232.0 0.0002363 3835.52710 4290.69971
4249.0 0.0002353 3833.91919 4315.74658
4275.0 0.0002339 3832.30200 4346.59668
4307.0 0.0002322 3830.67725 4383.96582
4352.0 0.0002298 3829.04346 4427.29443
4397.0 0.0002274 3827.40063 4476.06689
4448.0 0.0002248 3825.75049 4529.38086
4496.0 0.0002224 3824.09058 4586.12695
4545.0 0.0002200 3822.42383 4644.68213
4599.0 0.0002174 3820.74658 4703.10693
4661.0 0.0002145 3819.06274 4758.76416
4722.0 0.0002118 3817.36865 4808.56738
4784.0 0.0002090 3815.66602 4849.12012
4839.0 0.0002067 3813.95557 4876.96631
4882.0 0.0002048 3812.23560 4889.48389
4909.0 0.0002037 3810.50854 4885.37305
4915.0 0.0002035 3808.77148 4865.04639
4899.0 0.0002041 3807.02661 4830.52148
4874.0 0.0002052 3805.27222 4784.76270
4832.0 0.0002070 3803.50977 4731.17627
4785.0 0.0002090 3801.73926 4672.87891
4725.0 0.0002116 3799.95923 4612.51318
4656.0 0.0002148 3798.17114 4552.23828
4583.0 0.0002182 3796.37402 4493.61035
4502.0 0.0002221 3794.56958 4437.96387
4422.0 0.0002261 3792.75537 4386.19922
4339.0 0.0002305 3790.93311 4339.08008
4265.0 0.0002345 3789.10181 4297.31201
4199.0 0.0002382 3787.26294 4260.42383
4150.0 0.0002410 3785.41528 4228.66699
4110.0 0.0002433 3783.55859 4201.82178
4081.0 0.0002450 3781.69482 4179.66357
4059.0 0.0002464 3779.82129 4161.96289
4046.0 0.0002472 3777.94067 4148.64160
4036.0 0.0002478 3776.05078 4139.66699
4031.0 0.0002481 3774.15381 4135.16211
4032.0 0.0002480 3772.24731 4134.97266
4038.0 0.0002476 3770.33276 4139.13428
4051.0 0.0002469 3768.41113 4147.47852
4068.0 0.0002458 3766.48022 4159.73877
4083.0 0.0002449 3764.54297 4175.47705
4106.0 0.0002435 3762.59619 4194.12451
4127.0 0.0002423 3760.64258 4214.86377
4148.0 0.0002411 3758.67993 4236.85645
4169.0 0.0002399 3756.71045 4258.62842
4194.0 0.0002384 3754.73315 4278.80225
4223.0 0.0002368 3752.74731 4296.47070
4252.0 0.0002352 3750.75513 4310.42090
4272.0 0.0002341 3748.75415 4320.15918
4288.0 0.0002332 3746.74756 4325.78564
4296.0 0.0002328 3744.73169 4328.04297
4304.0 0.0002323 3742.71021 4328.23047
4307.0 0.0002322 3740.67993 4327.13721
4304.0 0.0002323 3738.64307 4326.07422
4300.0 0.0002326 3736.59912 4325.42041
4296.0 0.0002328 3734.54761 4326.78418
4298.0 0.0002327 3732.49072 4330.07764
4292.0 0.0002330 3730.42529 4335.54688
4287.0 0.0002333 3728.35449 4343.24316
4285.0 0.0002334 3726.27588 4353.11621
4297.0 0.0002327 3724.19189 4364.51758
4314.0 0.0002318 3722.10034 4376.83691
4336.0 0.0002306 3720.00220 4388.73242
4363.0 0.0002292 3717.89893 4400.01465
4394.0 0.0002276 3715.78857 4409.51758
4425.0 0.0002260 3713.67334 4416.81445
4456.0 0.0002244 3711.55078 4421.91602
4478.0 0.0002233 3709.42407 4425.10205
4504.0 0.0002220 3707.28979 4426.74023
4529.0 0.0002208 3705.15039 4427.07178
4551.0 0.0002197 3703.00562 4426.12939
4564.0 0.0002191 3700.85474 4423.79004
4574.0 0.0002186 3698.70044 4419.94043
4580.0 0.0002183 3696.53906 4414.62109
4586.0 0.0002181 3694.37378 4408.52197
4582.0 0.0002182 3692.20239 4401.28662
4580.0 0.0002183 3690.02808 4393.78125
4573.0 0.0002187 3687.84717 4386.32910
4576.0 0.0002185 3685.66211 4379.02881
4575.0 0.0002186 3683.47290 4371.80127
4574.0 0.0002186 3681.27881 4364.53809
4572.0 0.0002187 3679.08228 4357.26074
4566.0 0.0002190 3676.87988 4350.59570
4557.0 0.0002194 3674.67456 4344.20752
4545.0 0.0002200 3672.46436 4338.95313
4534.0 0.0002206 3670.25244 4335.19092
4524.0 0.0002210 3668.03540 4333.03076
4523.0 0.0002211 3665.81445 4332.34033
4519.0 0.0002213 3663.59253 4332.78809
4516.0 0.0002214 3661.36548 4333.94678
4515.0 0.0002215 3659.13696 4335.40088
4510.0 0.0002217 3656.90405 4336.57422
4511.0 0.0002217 3654.67065 4336.88623
4511.0 0.0002217 3652.43311 4335.51465
4512.0 0.0002216 3650.19360 4331.41064
4515.0 0.0002215 3647.95166 4323.43213
4509.0 0.0002218 3645.70728 4310.57861
4499.0 0.0002223 3643.46313 4292.30029
4478.0 0.0002233 3641.21509 4269.21973
4451.0 0.0002247 3638.96655 4241.03711
4415.0 0.0002265 3636.71582 4209.55566
4369.0 0.0002289 3634.46558 4176.35254
4320.0 0.0002315 3632.21216 4142.89990
4266.0 0.0002344 3629.95874 4110.56152
4219.0 0.0002370 3627.70410 4080.37842
4167.0 0.0002400 3625.44873 4053.17700
4119.0 0.0002428 3623.19458 4029.37964
4069.0 0.0002458 3620.93823 4009.26978
4027.0 0.0002483 3618.68359 3992.92773
3988.0 0.0002508 3616.42725 3980.19238
3955.0 0.0002528 3614.17261 3970.78467
3933.0 0.0002543 3611.91675 3964.29956
3920.0 0.0002551 3609.66162 3960.30811
3917.0 0.0002553 3607.40894 3958.42847
3920.0 0.0002551 3605.15527 3958.34985
3927.0 0.0002546 3602.90405 3959.92749
3939.0 0.0002539 3600.65283 3963.11182
3948.0 0.0002533 3598.40479 3967.89819
3957.0 0.0002527 3596.15649 3974.29370
3968.0 0.0002520 3593.91064 3982.27197
3979.0 0.0002513 3591.66650 3991.81274
3988.0 0.0002508 3589.42407 4002.98853
3993.0 0.0002504 3587.18555 4015.83374
3999.0 0.0002501 3584.94775 4030.61401
4006.0 0.0002496 3582.71436 4047.57373
4010.0 0.0002494 3580.48169 4066.96533
4026.0 0.0002484 3578.25366 4088.88721
4037.0 0.0002477 3576.02734 4113.33545
4057.0 0.0002465 3573.80493 4140.11523
4074.0 0.0002455 3571.58667 4168.96680
4092.0 0.0002444 3569.37036 4199.55371
4108.0 0.0002434 3567.15967 4231.45850
4131.0 0.0002421 3564.95166 4264.21094
4157.0 0.0002406 3562.74951 4297.02637
4183.0 0.0002391 3560.54980 4328.95215
4211.0 0.0002375 3558.35596 4358.69287
4238.0 0.0002360 3556.16553 4385.03564
4268.0 0.0002343 3553.98022 4406.55420
4290.0 0.0002331 3551.80127 4422.54883
4311.0 0.0002320 3549.62598 4432.78369
4330.0 0.0002309 3547.45728 4437.42334
4346.0 0.0002301 3545.29297 4436.83691
4349.0 0.0002299 3543.13599 4431.32031
4341.0 0.0002304 3540.98315 4420.84961
4327.0 0.0002311 3538.83691 4405.74170
4308.0 0.0002321 3536.69775 4385.23096
4288.0 0.0002332 3534.56348 4359.66699
4265.0 0.0002345 3532.43701 4329.56494
4236.0 0.0002361 3530.31616 4295.74219
4202.0 0.0002380 3528.20386 4259.31104
4162.0 0.0002403 3526.09692 4221.24561
4122.0 0.0002426 3523.99805 4182.43066
4087.0 0.0002447 3521.90576 4143.05615
4051.0 0.0002469 3519.82202 4104.20605
4017.0 0.0002489 3517.74536 4065.83130
3979.0 0.0002513 3515.67603 4028.21753
3942.0 0.0002537 3513.61548 3991.75732
3900.0 0.0002564 3511.56226 3956.75977
3859.0 0.0002591 3509.51904 3923.57202
3822.0 0.0002616 3507.48267 3892.34448
3799.0 0.0002632 3505.45557 3863.34692
3773.0 0.0002650 3503.43652 3836.26416
3745.0 0.0002670 3501.42627 3811.24121
3713.0 0.0002693 3499.42700 3788.30347
3688.0 0.0002711 3497.43481 3767.48462
3673.0 0.0002723 3495.45361 3748.92017
3659.0 0.0002733 3493.48047 3732.70728
3646.0 0.0002743 3491.51807 3719.14160
3632.0 0.0002753 3489.56445 3707.98389
3629.0 0.0002756 3487.62085 3699.08911
3628.0 0.0002756 3485.68799 3693.23242
3628.0 0.0002756 3483.76440 3690.02148
3619.0 0.0002763 3481.85205 3689.41748
3619.0 0.0002763 3479.94873 3691.34277
3622.0 0.0002761 3478.05811 3695.66553
3629.0 0.0002756 3476.17627 3702.33154
3643.0 0.0002745 3474.30640 3710.92798
3652.0 0.0002738 3472.44653 3721.32373
3661.0 0.0002731 3470.59839 3733.23169
3672.0 0.0002723 3468.76099 3746.34106
3686.0 0.0002713 3466.93457 3760.28662
3715.0 0.0002692 3465.12061 3774.61768
3738.0 0.0002675 3463.31714 3788.84521
3764.0 0.0002657 3461.52612 3802.38843
3780.0 0.0002646 3459.74561 3814.71606
3805.0 0.0002628 3457.97852 3825.41138
3820.0 0.0002618 3456.22192 3834.32129
3838.0 0.0002606 3454.47729 3841.60522
3847.0 0.0002599 3452.74585 3847.72485
3860.0 0.0002591 3451.02563 3853.36914
3866.0 0.0002587 3449.31909 3859.25537
3870.0 0.0002584 3447.62354 3866.03955
3869.0 0.0002585 3445.94141 3874.16699
3865.0 0.0002587 3444.27100 3883.86304
3862.0 0.0002589 3442.61401 3895.02637
3859.0 0.0002591 3440.96924 3907.43677
3859.0 0.0002591 3439.33691 3920.44287
3857.0 0.0002593 3437.71851 3933.13086
3864.0 0.0002588 3436.11206 3944.35522
3869.0 0.0002585 3434.51978 3952.71777
3876.0 0.0002580 3432.93945 3956.84839
3876.0 0.0002580 3431.37354 3955.56689
3874.0 0.0002581 3429.81958 3948.17529
3875.0 0.0002581 3428.27905 3934.64600
3868.0 0.0002585 3426.75220 3915.60327
3854.0 0.0002595 3425.23804 3892.19043
3834.0 0.0002608 3423.73877 3865.84595
3816.0 0.0002621 3422.25171 3837.97339
3801.0 0.0002631 3420.77856 3809.93457
3783.0 0.0002643 3419.31860 3782.80225
3757.0 0.0002662 3417.87329 3757.49341
3730.0 0.0002681 3416.44043 3734.51855
3704.0 0.0002700 3415.02124 3714.60303
3679.0 0.0002718 3413.61646 3698.29102
3661.0 0.0002731 3412.22461 3684.94385
3650.0 0.0002740 3410.84790 3674.93188
3651.0 0.0002739 3409.48340 3668.07910
3653.0 0.0002737 3408.13354 3664.13135
3647.0 0.0002742 3406.79688 3662.72412
3639.0 0.0002748 3405.47461 3663.27856
3641.0 0.0002746 3404.16577 3665.52222
3650.0 0.0002740 3402.87061 3668.74536
3666.0 0.0002728 3401.59009 3672.22192
3682.0 0.0002716 3400.32251 3675.27124
3695.0 0.0002706 3399.06909 3677.22339
3708.0 0.0002697 3397.82910 3677.54541
3710.0 0.0002695 3396.60400 3675.93115
3712.0 0.0002694 3395.39136 3672.32007
3708.0 0.0002697 3394.19312 3667.07422
3702.0 0.0002701 3393.00830 3660.63281
3697.0 0.0002705 3391.83716 3653.57031
3691.0 0.0002709 3390.68066 3646.49194
3685.0 0.0002714 3389.53687 3639.92871
3677.0 0.0002720 3388.40698 3634.33667
3671.0 0.0002724 3387.29053 3630.06250
3668.0 0.0002726 3386.18848 3627.37305
3662.0 0.0002731 3385.09888 3626.53076
3658.0 0.0002734 3384.02295 3627.42871
3658.0 0.0002734 3382.96118 3630.18286
3667.0 0.0002727 3381.91211 3634.76147
3686.0 0.0002713 3380.87695 3641.11499
3693.0 0.0002708 3379.85449 3649.21924
3711.0 0.0002695 3378.84546 3659.08862
3725.0 0.0002685 3377.84937 3670.84058
3754.0 0.0002664 3376.86694 3683.99829
3779.0 0.0002646 3375.89771 3699.96655
3808.0 0.0002626 3374.94043 3718.24194
3819.0 0.0002618 3373.99707 3738.83716
3837.0 0.0002606 3373.06592 3761.67993
3843.0 0.0002602 3372.14795 3786.49878
3864.0 0.0002588 3371.24219 3812.93799
3882.0 0.0002576 3370.34912 3840.39624
3906.0 0.0002560 3369.46851 3868.08521
3924.0 0.0002548 3368.60083 3895.13257
3951.0 0.0002531 3367.74536 3920.32056
3970.0 0.0002519 3366.90161 3942.38281
3993.0 0.0002504 3366.07056 3960.10303
4012.0 0.0002493 3365.25098 3972.61377
4031.0 0.0002481 3364.44409 3979.51563
4038.0 0.0002476 3363.64819 3981.18530
4046.0 0.0002472 3362.86499 3978.07910
4043.0 0.0002473 3362.09277 3971.35815
4046.0 0.0002472 3361.33203 3962.33228
4038.0 0.0002476 3360.58276 3952.03735
4033.0 0.0002480 3359.84473 3941.38330
4015.0 0.0002491 3359.11816 3931.11646
4000.0 0.0002500 3358.40234 3922.05273
3971.0 0.0002518 3357.69775 3914.22095
3960.0 0.0002525 3357.00342 3908.16846
3941.0 0.0002537 3356.32031 3904.07739
3938.0 0.0002539 3355.64795 3901.92065
3925.0 0.0002548 3354.98560 3901.48950
3927.0 0.0002546 3354.33350 3902.43579
3925.0 0.0002548 3353.69141 3904.37329
3936.0 0.0002541 3353.06006 3906.95972
3938.0 0.0002539 3352.43774 3909.79688
3948.0 0.0002533 3351.82617 3912.61182
3950.0 0.0002532 3351.22339 3914.78711
3964.0 0.0002523 3350.63013 3916.41919
3971.0 0.0002518 3350.04663 3916.75415
3985.0 0.0002509 3349.47192 3915.33911
3986.0 0.0002509 3348.90625 3912.26318
3989.0 0.0002507 3348.34937 3906.77124
3978.0 0.0002514 3347.80151 3899.55566
3971.0 0.0002518 3347.26196 3891.16138
3956.0 0.0002528 3346.73120 3882.22485
3950.0 0.0002532 3346.20850 3873.57031
3932.0 0.0002543 3345.69385 3865.79614
3926.0 0.0002547 3345.18726 3859.50562
3904.0 0.0002561 3344.68823 3855.67163
3898.0 0.0002565 3344.19702 3854.17993
3881.0 0.0002577 3343.71313 3856.07373
3877.0 0.0002579 3343.23682 3862.02246
3868.0 0.0002585 3342.76733 3872.64502
3876.0 0.0002580 3342.30493 3888.15576
3883.0 0.0002575 3341.84961 3909.31104
3902.0 0.0002563 3341.40063 3936.06201
3925.0 0.0002548 3340.95825 3967.79077
3955.0 0.0002528 3340.52222 4004.13550
3980.0 0.0002513 3340.09229 4044.14551
4015.0 0.0002491 3339.66821 4086.62256
4051.0 0.0002469 3339.25024 4129.95020
4097.0 0.0002441 3338.83765 4172.20947
4132.0 0.0002420 3338.43042 4211.95898
4172.0 0.0002397 3338.02905 4247.62939
4209.0 0.0002376 3337.63232 4277.72266
4246.0 0.0002355 3337.24072 4301.85645
4272.0 0.0002341 3336.85376 4320.02490
4294.0 0.0002329 3336.47168 4332.46973
4312.0 0.0002319 3336.09375 4339.54004
4330.0 0.0002309 3335.72046 4341.31396
4333.0 0.0002308 3335.35107 4338.42285
4340.0 0.0002304 3334.98560 4331.03076
4334.0 0.0002307 3334.62402 4319.84912
4334.0 0.0002307 3334.26587 4305.95215
4319.0 0.0002315 3333.91113 4290.80811
4311.0 0.0002320 3333.55981 4275.96875
4292.0 0.0002330 3333.21191 4262.92725
4288.0 0.0002332 3332.86646 4252.67627
4269.0 0.0002342 3332.52368 4246.20068
4260.0 0.0002347 3332.18359 4243.53857
4243.0 0.0002357 3331.84595 4244.41992
4244.0 0.0002356 3331.51074 4248.07959
4241.0 0.0002358 3331.17725 4253.26758
4248.0 0.0002354 3330.84595 4258.27686
4243.0 0.0002357 3330.51611 4261.08740
4251.0 0.0002352 3330.18848 4259.33545
4246.0 0.0002355 3329.86182 4251.49854
4249.0 0.0002353 3329.53662 4236.01465
4238.0 0.0002360 3329.21216 4212.37305
4226.0 0.0002366 3328.88892 4180.99072
4197.0 0.0002383 3328.56641 4143.05273
4164.0 0.0002402 3328.24463 4100.11816
4124.0 0.0002425 3327.92334 4053.94385
4081.0 0.0002450 3327.60229 4006.18018
4036.0 0.0002478 3327.28174 3957.98315
3985.0 0.0002509 3326.96069 3910.53735
3931.0 0.0002544 3326.63940 3864.78979
3863.0 0.0002589 3326.31836 3821.51196
3789.0 0.0002639 3325.99658 3781.22168
3728.0 0.0002682 3325.67456 3744.39478
3677.0 0.0002720 3325.35156 3711.39624
3643.0 0.0002745 3325.02808 3682.08154
3606.0 0.0002773 3324.70313 3656.47705
3580.0 0.0002793 3324.37720 3634.64404
3555.0 0.0002813 3324.05005 3616.31323
3541.0 0.0002824 3323.72144 3601.24463
3520.0 0.0002841 3323.39136 3589.18677
3518.0 0.0002843 3323.05957 3579.84790
3503.0 0.0002855 3322.72632 3573.03784
3510.0 0.0002849 3322.39087 3568.36890
3506.0 0.0002852 3322.05347 3565.66504
3525.0 0.0002837 3321.71387 3564.97949
3531.0 0.0002832 3321.37183 3566.23804
3544.0 0.0002822 3321.02759 3569.51636
3538.0 0.0002826 3320.68066 3574.94873
3540.0 0.0002825 3320.33130 3582.69580
3544.0 0.0002822 3319.97925 3592.92554
3560.0 0.0002809 3319.62451 3605.76489
3576.0 0.0002796 3319.26636 3621.22827
3594.0 0.0002782 3318.90576 3639.52686
3605.0 0.0002774 3318.54150 3660.53931
3632.0 0.0002753 3318.17407 3684.12622
3654.0 0.0002737 3317.80347 3710.09741
3701.0 0.0002702 3317.42920 3738.06616
3725.0 0.0002685 3317.05200 3767.68286
3766.0 0.0002655 3316.67065 3798.60376
3789.0 0.0002639 3316.28589 3830.08179
3834.0 0.0002608 3315.89722 3862.55298
3868.0 0.0002585 3315.50464 3895.33325
3923.0 0.0002549 3315.10840 3928.10742
3961.0 0.0002525 3314.70801 3960.46655
4012.0 0.0002493 3314.30347 3991.85840
4044.0 0.0002473 3313.89478 4021.77808
4086.0 0.0002447 3313.48242 4049.70264
4114.0 0.0002431 3313.06519 4075.06445
4152.0 0.0002408 3312.64380 4098.39941
4173.0 0.0002396 3312.21802 4119.54102
4201.0 0.0002380 3311.78760 4138.67285
4221.0 0.0002369 3311.35327 4155.84082
4249.0 0.0002353 3310.91382 4171.01123
4264.0 0.0002345 3310.47021 4183.97900
4282.0 0.0002335 3310.02173 4194.52588
4291.0 0.0002330 3309.56909 4202.33301
4302.0 0.0002325 3309.11108 4207.56494
4299.0 0.0002326 3308.64893 4210.03271
4306.0 0.0002322 3308.18164 4209.64746
4298.0 0.0002327 3307.70947 4205.99316
4298.0 0.0002327 3307.23291 4198.71436
4278.0 0.0002338 3306.75098 4187.36328
4267.0 0.0002344 3306.26514 4171.68799
4250.0 0.0002353 3305.77368 4151.68701
4241.0 0.0002358 3305.27759 4127.89160
4216.0 0.0002372 3304.77637 4101.06348
4142.0 0.0002414 3304.27051 4071.59766
4051.0 0.0002469 3303.75977 4040.33887
4008.0 0.0002495 3303.24414 4007.80518
3990.0 0.0002506 3302.72363 3974.41919
3994.0 0.0002504 3302.19800 3940.47095
3943.0 0.0002536 3301.66797 3906.33179
3900.0 0.0002564 3301.13281 3872.53931
3854.0 0.0002595 3300.59277 3838.96509
3809.0 0.0002625 3300.04785 3806.05371
3757.0 0.0002662 3299.49829 3773.98560
3712.0 0.0002694 3298.94360 3742.81128
3664.0 0.0002729 3298.38428 3712.53760
3628.0 0.0002756 3297.82031 3683.24048
3594.0 0.0002782 3297.25146 3654.96484
3563.0 0.0002807 3296.67871 3628.08813
3534.0 0.0002830 3296.10059 3602.48242
3511.0 0.0002848 3295.51807 3578.51831
3489.0 0.0002866 3294.93066 3556.33325
3473.0 0.0002879 3294.33887 3536.05811
3457.0 0.0002893 3293.74292 3517.76978
3441.0 0.0002906 3293.14233 3501.47144
3426.0 0.0002919 3292.53784 3487.40918
3404.0 0.0002938 3291.92847 3475.08789
3393.0 0.0002947 3291.31519 3464.72021
3387.0 0.0002952 3290.69751 3456.25659
3386.0 0.0002953 3290.07568 3449.68140
3384.0 0.0002955 3289.44971 3444.97510
3373.0 0.0002965 3288.81958 3442.13232
3372.0 0.0002966 3288.18604 3441.30469
3375.0 0.0002963 3287.54834 3442.23853
3388.0 0.0002952 3286.90723 3445.13159
3396.0 0.0002945 3286.26196 3450.03540
3404.0 0.0002938 3285.61328 3457.01538
3411.0 0.0002932 3284.96094 3466.14844
3422.0 0.0002922 3284.30518 3477.49731
3435.0 0.0002911 3283.64575 3491.13135
3447.0 0.0002901 3282.98315 3507.08374
3482.0 0.0002872 3282.31812 3525.00415
3509.0 0.0002850 3281.64917 3545.51123
3544.0 0.0002822 3280.97754 3568.09668
3555.0 0.0002813 3280.30249 3592.53369
3575.0 0.0002797 3279.62549 3618.41699
3593.0 0.0002783 3278.94482 3645.26196
3618.0 0.0002764 3278.26172 3672.50366
3638.0 0.0002749 3277.57642 3698.99976
3662.0 0.0002731 3276.88843 3723.86621
3685.0 0.0002714 3276.19897 3745.87695
3717.0 0.0002690 3275.50635 3763.80127
3742.0 0.0002672 3274.81226 3776.45776
3767.0 0.0002655 3274.11572 3782.99585
3769.0 0.0002653 3273.41748 3783.13184
3773.0 0.0002650 3272.71729 3776.84204
3766.0 0.0002655 3272.01563 3764.94995
3754.0 0.0002664 3271.31299 3748.55762
3737.0 0.0002676 3270.60840 3728.93530
3723.0 0.0002686 3269.90283 3707.38647
3703.0 0.0002701 3269.19556 3685.03711
3675.0 0.0002721 3268.48804 3662.92798
3642.0 0.0002746 3267.77905 3642.02783
3615.0 0.0002766 3267.06958 3622.69556
3591.0 0.0002785 3266.35913 3605.61646
3572.0 0.0002800 3265.64819 3591.02271
3543.0 0.0002822 3264.93799 3579.43872
3532.0 0.0002831 3264.22632 3570.79663
3518.0 0.0002843 3263.51514 3565.05469
3520.0 0.0002841 3262.80371 3562.18091
3512.0 0.0002847 3262.09277 3561.52319
3515.0 0.0002845 3261.38184 3562.79663
3519.0 0.0002842 3260.67114 3565.44482
3549.0 0.0002818 3259.96143 3568.83301
3567.0 0.0002803 3259.25220 3572.29834
3587.0 0.0002788 3258.54468 3575.22510
3590.0 0.0002786 3257.83716 3577.13232
3606.0 0.0002773 3257.13159 3577.72412
3609.0 0.0002771 3256.42676 3576.94189
3617.0 0.0002765 3255.72388 3574.92285
3611.0 0.0002769 3255.02222 3571.93652
3605.0 0.0002774 3254.32227 3568.26685
3599.0 0.0002779 3253.62500 3564.39917
3607.0 0.0002772 3252.92896 3560.79785
3607.0 0.0002772 3252.23560 3557.48975
3608.0 0.0002772 3251.54419 3555.01831
3588.0 0.0002787 3250.85596 3553.77051
3581.0 0.0002793 3250.16968 3554.13135
3560.0 0.0002809 3249.48706 3556.45190
3555.0 0.0002813 3248.80688 3560.99536
3550.0 0.0002817 3248.12964 3568.00732
3553.0 0.0002815 3247.45679 3577.65454
3561.0 0.0002808 3246.78662 3590.13281
3570.0 0.0002801 3246.12036 3604.52588
3595.0 0.0002782 3245.45752 3620.98413
3621.0 0.0002762 3244.79932 3639.06885
3651.0 0.0002739 3244.14478 3658.29150
3671.0 0.0002724 3243.49463 3677.73169
3691.0 0.0002709 3242.84961 3697.50635
3713.0 0.0002693 3242.20850 3716.82031
3737.0 0.0002676 3241.57275 3735.32593
3759.0 0.0002660 3240.94141 3752.78687
3775.0 0.0002649 3240.31567 3769.07495
3785.0 0.0002642 3239.69482 3784.12891
3798.0 0.0002633 3239.08008 3797.85547
3810.0 0.0002625 3238.47070 3810.25903
3833.0 0.0002609 3237.86719 3821.35327
3850.0 0.0002597 3237.27002 3831.44482
3875.0 0.0002581 3236.67871 3840.97510
3903.0 0.0002562 3236.09424 3850.64575
3923.0 0.0002549 3235.51587 3861.26514
3928.0 0.0002546 3234.94434 3873.59302
3938.0 0.0002539 3234.37988 3888.37744
3942.0 0.0002537 3233.82275 3905.77368
3954.0 0.0002529 3233.27295 3926.31299
3966.0 0.0002521 3232.72998 3949.80054
4004.0 0.0002498 3232.19531 3975.84595
4040.0 0.0002475 3231.66846 4003.82959
4071.0 0.0002456 3231.14966 4032.77832
4085.0 0.0002448 3230.63892 4061.59058
4125.0 0.0002424 3230.13672 4089.31445
4150.0 0.0002410 3229.64307 4114.08252
4187.0 0.0002388 3229.15820 4135.53711
4206.0 0.0002378 3228.68286 4152.94727
4251.0 0.0002352 3228.21606 4166.02783
4274.0 0.0002340 3227.75928 4174.62451
4296.0 0.0002328 3227.31177 4178.66357
4289.0 0.0002332 3226.87427 4178.40527
4296.0 0.0002328 3226.44629 4172.97998
4289.0 0.0002332 3226.02905 4162.75781
4281.0 0.0002336 3225.62183 4147.99268
4250.0 0.0002353 3225.22534 4129.20801
4217.0 0.0002371 3224.84009 4107.13184
4174.0 0.0002396 3224.46533 4082.54272
4132.0 0.0002420 3224.10205 4056.18481
4104.0 0.0002437 3223.75000 4028.73877
4078.0 0.0002452 3223.40991 4000.38965
4054.0 0.0002467 3223.08105 3971.54688
4011.0 0.0002493 3222.76465 3942.47803
3974.0 0.0002516 3222.46045 3913.35352
3927.0 0.0002546 3222.16870 3884.27417
3902.0 0.0002563 3221.88940 3855.28149
3861.0 0.0002590 3221.62305 3826.27124
3836.0 0.0002607 3221.36987 3797.31104
3786.0 0.0002641 3221.12988 3767.64819
3763.0 0.0002657 3220.90356 3738.36426
3721.0 0.0002687 3220.69067 3709.27905
3706.0 0.0002698 3220.49170 3680.84692
3665.0 0.0002729 3220.30737 3653.60962
3636.0 0.0002750 3220.13672 3628.05762
3588.0 0.0002787 3219.98071 3604.72339
3574.0 0.0002798 3219.83960 3583.95264
3554.0 0.0002814 3219.71338 3565.68359
3561.0 0.0002808 3219.60205 3550.85034
3535.0 0.0002829 3219.50610 3539.16626
3526.0 0.0002836 3219.42603 3530.63184
3494.0 0.0002862 3219.36157 3525.17578
3476.0 0.0002877 3219.31299 3522.73315
3459.0 0.0002891 3219.28027 3522.98730
3457.0 0.0002893 3219.26392 3525.77100
3462.0 0.0002889 3219.26416 3530.79419
3465.0 0.0002886 3219.28125 3537.82324
3472.0 0.0002880 3219.31494 3546.48389
3489.0 0.0002866 3219.36572 3556.38232
3517.0 0.0002843 3219.43384 3567.14160
3535.0 0.0002829 3219.51929 3578.25757
3555.0 0.0002813 3219.62231 3589.36353
3577.0 0.0002796 3219.74292 3600.16284
3610.0 0.0002770 3219.88159 3609.85352
3631.0 0.0002754 3220.03833 3619.39233
3641.0 0.0002746 3220.21289 3628.07715
3628.0 0.0002756 3220.40625 3635.77930
3642.0 0.0002746 3220.61792 3642.33643
3634.0 0.0002752 3220.84814 3647.57373
3664.0 0.0002729 3221.09717 3651.34937
3656.0 0.0002735 3221.36450 3653.51978
3684.0 0.0002714 3221.65137 3654.16162
3672.0 0.0002723 3221.95703 3653.22681
3677.0 0.0002720 3222.28198 3650.70068
3648.0 0.0002741 3222.62573 3646.55469
3649.0 0.0002740 3222.98877 3640.74048
3637.0 0.0002750 3223.37134 3633.22021
3636.0 0.0002750 3223.77319 3624.05566
3614.0 0.0002767 3224.19458 3613.36060
3599.0 0.0002779 3224.63501 3601.42554
3581.0 0.0002793 3225.09521 3588.68774
3574.0 0.0002798 3225.57471 3575.10181
3569.0 0.0002802 3226.07373 3561.09839
3544.0 0.0002822 3226.59180 3546.92871
3538.0 0.0002826 3227.12891 3532.80249
3504.0 0.0002854 3227.68579 3518.93481
3508.0 0.0002851 3228.26172 3505.52417
3478.0 0.0002875 3228.85669 3492.93042
3479.0 0.0002874 3229.47021 3481.18726
3443.0 0.0002904 3230.10303 3470.52368
3435.0 0.0002911 3230.75391 3461.06079
3414.0 0.0002929 3231.42383 3452.84009
3423.0 0.0002921 3232.11157 3445.85156
3397.0 0.0002944 3232.81738 3440.04395
3386.0 0.0002953 3233.54126 3435.32642
3353.0 0.0002982 3234.28223 3431.47729
3361.0 0.0002975 3235.04102 3428.36230
3349.0 0.0002986 3235.81567 3425.81152
3368.0 0.0002969 3236.60767 3423.67822
3367.0 0.0002970 3237.41528 3421.87891
3367.0 0.0002970 3238.23853 3420.39673
3361.0 0.0002975 3239.07739 3419.20801
3355.0 0.0002981 3239.93066 3418.59937
3367.0 0.0002970 3240.79883 3418.63599
3355.0 0.0002981 3241.68018 3419.49316
3360.0 0.0002976 3242.57520 3421.32471
3345.0 0.0002990 3243.48169 3424.28027
3372.0 0.0002966 3244.40112 3428.49121
3361.0 0.0002975 3245.33179 3434.14307
3378.0 0.0002960 3246.27222 3440.87378
3357.0 0.0002979 3247.22339 3449.36841
3379.0 0.0002959 3248.18262 3459.38672
3385.0 0.0002954 3249.15063 3470.96606
3410.0 0.0002933 3250.12549 3484.10400
3412.0 0.0002931 3251.10693 3498.83179
3428.0 0.0002917 3252.09277 3515.20166
3437.0 0.0002910 3253.08398 3533.08496
3474.0 0.0002879 3254.07837 3552.23755
3503.0 0.0002855 3255.07446 3573.09375
3543.0 0.0002822 3256.07178 3595.30371
3577.0 0.0002796 3257.06860 3618.69629
3610.0 0.0002770 3258.06421 3643.13037
3651.0 0.0002739 3259.05615 3668.38159
3685.0 0.0002714 3260.04468 3694.26465
3733.0 0.0002679 3261.02759 3720.11377
3751.0 0.0002666 3262.00293 3746.35400
3795.0 0.0002635 3262.96997 3772.25537
3819.0 0.0002618 3263.92627 3797.42139
3862.0 0.0002589 3264.87134 3821.57593
3876.0 0.0002580 3265.80225 3844.46582
3919.0 0.0002552 3266.71802 3866.08203
3952.0 0.0002530 3267.61548 3886.20581
4005.0 0.0002497 3268.49512 3904.76636
4040.0 0.0002475 3269.35352 3922.02710
4083.0 0.0002449 3270.18823 3937.78784
4090.0 0.0002445 3270.99829 3952.03711
4121.0 0.0002427 3271.78027 3964.82983
4120.0 0.0002427 3272.53345 3976.40430
4122.0 0.0002426 3273.25415 3986.97559
4099.0 0.0002440 3273.94116 3996.90405
4112.0 0.0002432 3274.59082 4006.34180
4129.0 0.0002422 3275.20190 4015.65210
4131.0 0.0002421 3275.77173 4024.72119
4115.0 0.0002430 3276.29688 4033.40332
4103.0 0.0002437 3276.77515 4041.50122
4114.0 0.0002431 3277.20410 4048.46875
4106.0 0.0002435 3277.58057 4053.84937
4108.0 0.0002434 3277.90137 4056.97119
4088.0 0.0002446 3278.16431 4057.10938
4097.0 0.0002441 3278.36621 4053.55688
4079.0 0.0002452 3278.50391 4045.78687
4077.0 0.0002453 3278.57422 4033.57788
4042.0 0.0002474 3278.57397 4017.08154
4038.0 0.0002476 3278.50000 3996.74365
3991.0 0.0002506 3278.34912 3973.27148
3986.0 0.0002509 3278.11792 3947.39209
3948.0 0.0002533 3277.80347 3919.89526
3942.0 0.0002537 3277.40137 3891.46094
3862.0 0.0002589 3276.90894 3862.79517
3835.0 0.0002608 3276.32275 3834.55786
3796.0 0.0002634 3275.63843 3807.39160
3786.0 0.0002641 3274.85327 3781.95825
3739.0 0.0002675 3273.96289 3758.77856
3698.0 0.0002704 3272.96533 3738.33252
3682.0 0.0002716 3271.85449 3720.91187
3655.0 0.0002736 3270.62817 3706.69702
3650.0 0.0002740 3269.28174 3695.67139
3635.0 0.0002751 3267.81226 3687.69922
3639.0 0.0002748 3266.21631 3682.50635
3634.0 0.0002752 3264.48926 3679.70752
3649.0 0.0002740 3262.62817 3678.84399
3657.0 0.0002734 3260.62842 3679.46851
3656.0 0.0002735 3258.48926 3681.14941
3656.0 0.0002735 3256.20239 3683.54248
3654.0 0.0002737 3253.76636 3686.40576
3691.0 0.0002709 3251.17920 3689.56787
3695.0 0.0002706 3248.43457 3692.90161
3717.0 0.0002690 3245.53223 3696.29370
3694.0 0.0002707 3242.46558 3699.23267
3728.0 0.0002682 3239.23633 3702.32935
3736.0 0.0002677 3235.83447 3705.06274
3759.0 0.0002660 3232.26270 3707.30200
3748.0 0.0002668 3228.51367 3708.90674
3756.0 0.0002662 3224.58643 3709.72607
3737.0 0.0002676 3220.48145 3709.58057
3705.0 0.0002699 3216.19116 3708.24316
3680.0 0.0002717 3211.71802 3705.49048
3663.0 0.0002730 3207.05566 3701.20410
3663.0 0.0002730 3202.20923 3695.29419
3640.0 0.0002747 3197.16699 3687.75220
3650.0 0.0002740 3191.93604 3678.65601
3614.0 0.0002767 3186.50879 3668.08398
3617.0 0.0002765 3180.88818 3656.14111
3595.0 0.0002782 3175.07666 3642.94360
3603.0 0.0002775 3169.06763 3628.64355
3578.0 0.0002795 3162.86816 3613.50977
3559.0 0.0002810 3156.47217 3597.88086
3564.0 0.0002806 3149.89087 3582.21289
3557.0 0.0002811 3143.11255 3566.93408
3571.0 0.0002800 3136.14551 3552.49048
3522.0 0.0002839 3128.99634 3539.20972
3529.0 0.0002834 3121.66064 3527.14307
3476.0 0.0002877 3114.15015 3516.65186
3505.0 0.0002853 3106.46069 3507.48438
3468.0 0.0002884 3098.60962 3499.40991
3500.0 0.0002857 3090.58618 3492.04761
3471.0 0.0002881 3082.40942 3484.96704
3471.0 0.0002881 3074.07764 3477.68335
3460.0 0.0002890 3065.60718 3469.71997
3463.0 0.0002888 3056.99829 3460.84668
3479.0 0.0002874 3048.26538 3450.83179
3440.0 0.0002907 3039.42334 3439.63867
3453.0 0.0002896 3030.47461 3427.32056
3408.0 0.0002934 3021.44580 3414.03735
3445.0 0.0002903 3012.33203 3399.93896
3409.0 0.0002933 3003.16260 3385.25293
3438.0 0.0002909 2993.94385 3370.21313
3361.0 0.0002975 2984.69800 3355.13525
3354.0 0.0002982 2975.44849 3340.39697
3320.0 0.0003012 2966.20630 3326.39551
3350.0 0.0002985 2957.00757 3313.58374
3311.0 0.0003020 2947.85571 3302.33838
3272.0 0.0003056 2938.79004 3293.03345
3236.0 0.0003090 2929.82813 3285.93677
3256.0 0.0003071 2921.00269 3281.10327
3285.0 0.0003044 2912.34839 3278.94385
3254.0 0.0003073 2903.88818 3279.33838
3258.0 0.0003069 2895.66528 3282.25464
3280.0 0.0003049 2887.70703 3287.62500
3365.0 0.0002972 2880.06494 3295.36304
3341.0 0.0002993 2872.76221 3305.44165
3334.0 0.0002999 2865.85522 3317.63159
3275.0 0.0003053 2859.38184 3332.50903
3370.0 . . .
3402.0 . . .
3494.0 . . .
3537.0 . . .
3574.0 . . .
3647.0 . . .
3584.0 . . .
3629.0 . . .
3551.0 . . .
3624.0 . . .
3618.0 . . .
3792.0 . . .
3784.0 . . .
3836.0 . . .
3808.0 . . .
3888.0 . . .
3915.0 . . .
3894.0 . . .
3866.0 . . .
3806.0 . . .
3734.0 . . .
3733.0 . . .
3778.0 . . .
3811.0 . . .
3809.0 . . .
3731.0 . . .
3541.0 . . .
3542.0 . . .
0.0 . . .
0.0 . . .
0.0 . . .
0.0 . . .
0.0 . . .
0.0 . . .
0.0 . . .
0.0 . . .
0.0 . . .
-331.0 . . .
-331.0 . . .
-128.0 . . .
11.0 . . .
-71.0 . . .
-117.0 . . .
-26.0 . . .
208.0 . . .
208.0 . . .
0.0 . . .
0.0 . . .
0.0 . . .
0.0 . . .
0.0 . . .
0.0 . . .
0.0 . . .
0.0 . . .
0.0 . . .
0.0 . . .
0.0 . . .
0.0 . . .
0.0 . . .
0.0 . . .
0.0 . . .
0.0 . . .
0.0 . . .
0.0 . . .
0.0 . . .
0.0 . . .
0.0 . . .
0.0 . . .
0.0 . . .
loop_
_gsas_i100_meas
100.00
91.22
87.56
3.61
0.03
2.63
10.08
5.93
10.95
3.73
2.31
3.36
0.06
1.15
0.76
0.00
6.31
3.85
3.52
2.68
0.12
0.92
0.40
1.76
0.01
0.00
0.08
0.08
0.11
3.85
0.08
0.65
0.09
2.87
1.21
0.19
0.80
2.66
0.27
0.46
1.33
0.16
0.44
0.25
0.53
0.01
1.27
0.01
0.00
1.59
0.02
0.07
0.33
0.11
2.84
0.19
0.11
3.00
0.31
0.67
1.31
0.02
1.48
0.58
0.58
0.23
0.14
0.12
0.30
1.70
0.15
0.20
1.41
1.29
0.28
0.87
0.01
0.12
1.37
0.00
0.36
0.44
0.37
0.97
0.01
0.01
1.11
0.00
0.23
0.05
0.03
0.13
0.62
1.36
0.08
1.48
0.01
1.04
1.76
0.05
0.10
0.15
0.14
0.00
1.17
0.42
0.28
0.01
0.71
0.02
0.34
0.01
0.47
0.22
0.01
0.07
0.55
0.00
0.10
0.06
0.01
0.13
0.04
0.07
0.39
0.20
1.02
0.21
0.00
0.03
0.37
0.17
0.10
0.33
0.25
0.01
1.02
0.25
0.78
0.02
0.05
1.00
0.01
0.41
0.27
0.15
0.00
0.03
0.32
0.11
0.23
0.59
0.18
0.40
0.29
0.13
0.15
0.06
0.11
0.01
0.27
0.00
0.00
0.09
0.01
0.32
0.12
0.12
0.23
0.21
0.03
0.01
0.00
0.23
0.11
0.10
0.00
0.34
0.01
0.93
0.01
0.01
0.02
0.16
0.14
0.62
0.00
0.06
0.05
0.25
0.00
0.02
0.01
0.37
0.28
0.01
0.12
0.08
0.22
0.07
0.06
0.52
0.33
0.13
0.39
0.01
0.01
0.00
0.04
0.00
0.52
0.09
0.02
0.22
0.04
0.84
0.10
0.06
0.31
0.01
0.04
0.04
0.01
0.40
0.42
0.04
0.01
0.11
0.00
0.09
0.03
0.17
0.00
0.07
0.57
0.00
0.12
0.01
0.06
0.07
0.04
0.00
0.07
0.04
0.01
0.07
0.03
0.31
0.00
0.00
0.19
0.32
0.34
0.32
0.00
0.04
0.03
0.01
0.05
0.10
0.17
0.20
0.85
0.02
0.03
0.03
0.01
0.14
0.13
0.00
0.01
0.33
0.05
0.00
0.02
0.09
0.08
0.00
0.05
0.01
0.00
0.15
0.10
0.22
0.40
0.00
0.03
0.45
0.00
0.18
0.11
0.00
0.07
0.07
0.01
0.01
0.07
0.16
0.00
0.07
0.04
0.00
0.02
0.51
0.00
0.17
0.02
0.09
0.02
0.00
0.09
0.00
0.04
0.00
0.04
0.00
0.00
0.03
0.07
0.04
0.15
0.19
0.01
0.02
0.02
0.00
0.00
0.01
0.05
0.31
0.25
0.09
0.04
0.01
0.02
0.04
0.20
0.05
0.01
0.01
0.17
0.00
0.02
0.06
0.10
0.00
0.01
0.03
0.01
0.06
0.22
0.00
0.07
0.00
0.10
0.04
0.01
0.18
0.02
0.08
0.01
0.08
0.01
0.05
0.02
0.03
0.00
0.00
0.10
0.02
0.38
0.02
0.13
0.01
0.10
0.12
0.00
0.03
0.00
0.15
0.11
0.09
0.03
0.02
0.07
0.00
0.02
0.00
0.11
0.00
0.09
0.01
0.02
0.08
0.11
0.62
0.00
0.00
0.01
0.00
0.05
0.00
0.00
0.00
0.01
0.06
0.01
0.00
0.01
0.00
0.13
0.01
0.09
0.08
0.01
0.02
0.29
0.07
0.01
0.00
0.04
0.04
0.07
0.00
0.01
0.01
0.02
0.01
0.12
0.01
0.08
0.03
0.00
0.13
0.00
0.02
0.04
0.01
0.12
0.12
0.01
0.00
0.04
0.00
0.00
0.00
0.00
0.00
0.00
0.07
0.03
0.09
0.04
0.06
0.06
0.02
0.11
0.00
0.01
0.03
0.02
0.00
0.16
0.06
0.04
0.01
0.00
0.01
0.08
0.04
0.00
0.01
0.03
0.03
0.03
0.03
0.02
0.02
0.07
0.09
0.07
0.00
0.00
0.02
0.00
0.00
0.00
0.07
0.00
0.02
0.00
0.02
0.02
0.01
0.00
0.02
0.02
0.01
0.11
0.11
0.16
0.01
0.01
0.00
0.01
0.01
0.01
0.02
0.01
0.13
0.01
0.01
0.01
0.02
0.01
0.01
0.02
0.06
0.05
0.07
0.06
0.14
0.01
0.00
0.00
0.01
0.06
0.01
0.13
0.03
0.06
0.01
0.04
0.00
0.03
0.02
0.00
0.04
0.01
0.00
0.00
0.00
0.17
0.16
0.01
0.01
0.05
0.01
0.00
0.01
0.00
0.01
0.03
0.01
0.01
0.00
0.01
0.03
0.01
0.00
0.01
0.17
0.00
0.00
0.00
0.00
0.00
0.00
0.08
0.00
0.04
0.00
0.01
0.00
0.00
0.00
0.01
0.00
0.09
0.01
0.09
0.03
0.00
0.02
0.02
0.05
0.05
0.03
0.00
0.04
0.01
0.00
0.01
0.04
0.00
0.04
0.14
0.05
0.00
0.07
0.00
0.13
0.00
0.00
0.02
0.01
0.02
0.18
0.00
0.11
0.02
0.01
0.00
0.01
0.00
0.00
0.01
0.06
0.04
0.00
0.00
0.02
0.08
0.01
0.00
0.05
0.01
0.03
0.03
0.01
0.06
0.15
0.02
0.07
0.01
0.02
0.02
0.00
0.00
0.00
0.00
0.00
0.00
0.06
0.00
0.03
0.01
0.03
0.03
0.03
0.01
0.01
0.00
0.05
0.03
0.00
0.02
0.01
0.00
0.08
0.00
0.02
0.05
0.00
0.01
0.03
0.01
0.01
0.05
0.00
0.16
0.02
0.13
0.00
0.07
0.01
0.00
0.02
0.03
0.04
0.06
0.01
0.00
0.01
0.01
0.02
0.00
0.01
0.00
0.00
0.04
0.01
0.00
0.00
0.05
0.01
0.06
0.01
0.03
0.01
0.00
0.00
0.00
0.00
0.00
0.01
0.01
0.00
0.03
0.00
0.01
0.03
0.00
0.03
0.02
0.00
0.07
0.04
0.02
0.07
0.00
0.03
0.04
0.08
0.00
0.00
0.02
0.03
0.00
0.03
0.00
0.02
0.01
0.00
0.04
0.00
0.02
0.00
0.05
0.00
0.00
0.08
0.00
0.01
0.07
0.02
0.01
0.00
0.06
0.00
0.00
0.02
0.03
0.00
0.06
