#------------------------------------------------------------------------------
#$Date: 2019-11-14 09:28:08 +0200 (Thu, 14 Nov 2019) $
#$Revision: 227760 $
#$URL: file:///home/coder/svn-repositories/cod/cif/1/55/28/1552897.cif $
#------------------------------------------------------------------------------
#
# This file is available in the Crystallography Open Database (COD),
# http://www.crystallography.net/
#
# All data on this site have been placed in the public domain by the
# contributors.
#
data_1552897
loop_
_publ_author_name
'Asgari, Mehrdad'
'Jawahery, Sudi'
'Bloch, Eric D.'
'Hudson, Matthew R.'
'Flacau, Roxana'
'Vlaisavljevich, Bess'
'Long, Jeffrey R.'
'Brown, Craig M.'
'Queen, Wendy L.'
_publ_section_title
;
 An experimental and computational study of CO<sub>2</sub> adsorption in
 the sodalite-type M-BTT (M = Cr, Mn, Fe, Cu) metal-organic frameworks
 featuring open metal sites.
;
_journal_issue                   20
_journal_name_full               'Chemical science'
_journal_page_first              4579
_journal_page_last               4588
_journal_paper_doi               10.1039/c8sc00971f
_journal_volume                  9
_journal_year                    2018
_chemical_formula_sum            'C29.23 H15.77 Cl Fe4.36 N32 O7.88'
_chemical_formula_weight         1220.15
_space_group_IT_number           221
_space_group_name_Hall           '-P 4 2 3'
_space_group_name_H-M_alt        'P m -3 m'
_symmetry_cell_setting           cubic
_symmetry_space_group_name_Hall  '-P 4 2 3'
_symmetry_space_group_name_H-M   'P m -3 m'
_audit_creation_date             2016-06-08T15:27
_audit_creation_method           'from EXP file using GSAS2CIF'
_audit_update_record
;
2017-10-25 deposited with the CCDC.
2018-04-23 downloaded from the CCDC.
;
_cell_angle_alpha                90.0
_cell_angle_beta                 90.0
_cell_angle_gamma                90.0
_cell_formula_units_Z            3
_cell_length_a                   18.90048(32)
_cell_length_b                   18.90048
_cell_length_c                   18.90048
_cell_measurement_reflns_used    666
_cell_measurement_temperature    10
_cell_measurement_theta_max      160
_cell_measurement_theta_min      4
_cell_volume                     6751.78(11)
_computing_structure_refinement  GSAS
_diffrn_ambient_temperature      10
_diffrn_measurement_device_type  BT1
_diffrn_radiation_probe          neutron
_diffrn_radiation_wavelength     2.0775
_exptl_absorpt_correction_T_max  1.00000
_exptl_absorpt_correction_T_min  1.00000
_exptl_absorpt_process_details
;   GSAS Absorption/surface roughness correction: function number 0
 No correction is applied.
;
_pd_block_id                     2016-06-08T15:27|0P5_CH3O_FINAL|WENDY|BT1
_pd_calc_method                  'Rietveld Refinement'
_pd_instr_location               ' ?'
_pd_meas_2theta_range_inc        0.05
_pd_meas_2theta_range_max        166.25
_pd_meas_2theta_range_min        1.5
_pd_meas_number_of_points        3296
_pd_phase_name
'from Z:/queen/Desktop/FeBTT/FeBTT_CO2 _September2013_new/bare/BARE'
_pd_proc_2theta_range_inc        0.05
_pd_proc_2theta_range_max        166.4217
_pd_proc_2theta_range_min        1.6717
_pd_proc_info_datetime           2016-06-08T15:27:16
_pd_proc_info_excluded_regions   ' ?'
_pd_proc_ls_background_function
;   GSAS Background function number 1 with 10 terms.
 Shifted Chebyshev function of 1st kind
      1:    1557.91     2:   -414.969     3:    325.380     4:   -22.4670    
      5:    176.528     6:   -46.2753     7:    104.427     8:   -21.3932    
      9:    54.3467    10:   -3.99837    
;
_pd_proc_ls_peak_cutoff          0.00050
_pd_proc_ls_profile_function
;
 CW Profile function number 3 with  19 terms
 Pseudovoigt profile coefficients as parameterized in
 P. Thompson, D.E. Cox & J.B. Hastings (1987). J. Appl. Cryst.,20,79-83.
 Asymmetry correction of L.W. Finger, D.E. Cox & A. P. Jephcoat (1994).
 J. Appl. Cryst.,27,892-900.
 #1(GU)   =  532.082 #2(GV)   = -269.462 #3(GW)   =  125.486
 #4(GP)   =    0.636 #5(LX)   =    0.000 #6(LY)   =   20.328
 #7(S/L)  =   0.0433 #8(H/L)  =   0.0360
 #9(trns) =     0.00 #10(shft)=   0.0000
 #11(stec)=     0.00 #12(ptec)=     0.00 #13(sfec)=     0.00
 #14(L11) =    0.000 #15(L22) =    0.000 #16(L33) =    0.000
 #17(L12) =    0.000 #18(L13) =    0.000 #19(L23) =    0.000
 Peak tails are ignored  where the intensity is below 0.0005 times the peak
   Aniso. broadening axis   0.0   0.0   1.0
;
_pd_proc_ls_prof_R_factor        0.0235
_pd_proc_ls_prof_wR_expected     0.0245
_pd_proc_ls_prof_wR_factor       0.0272
_pd_proc_number_of_points        3296
_pd_spec_mounting                ' ?'
_refine_ls_goodness_of_fit_all   1.12
_refine_ls_matrix_type           full
_refine_ls_number_parameters     47
_refine_ls_number_restraints     21
_refine_ls_R_Fsqd_factor         0.05084
_refine_ls_shift/su_max          0.07
_refine_ls_shift/su_mean         0.01
_reflns_d_resolution_high        1.055
_reflns_d_resolution_low         18.900
_reflns_limit_h_max              18
_reflns_limit_h_min              1
_reflns_limit_k_max              12
_reflns_limit_k_min              0
_reflns_limit_l_max              10
_reflns_limit_l_min              0
_reflns_number_total             666
_cod_data_source_file            c8sc00971f3.cif
_cod_data_source_block           0P5_CH3O_FINAL_publ
_cod_depositor_comments
;
The following automatic conversions were performed:

'_geom_bond_publ_flag' value 'N' changed to 'n' according to
/home/data/users/saulius/crontab/automatic-downloads/current/RSC/lib/dictionaries/cif_core.dic
dictionary named 'cif_core.dic' version 2.4.2 from 2011-04-26 (203
times).

'_geom_angle_publ_flag' value 'N' changed to 'n' according to
/home/data/users/saulius/crontab/automatic-downloads/current/RSC/lib/dictionaries/cif_core.dic
dictionary named 'cif_core.dic' version 2.4.2 from 2011-04-26 (171
time).

Automatic conversion script
Id: cif_fix_values 5376 2017-05-30 11:51:03Z andrius 
;
_cod_original_cell_volume        6751.78(34)
_cod_database_code               1552897
_gsas_exptl_extinct_corr_t_min   1.00000
_gsas_exptl_extinct_corr_t_max   1.00000
loop_
_symmetry_equiv_pos_site_id
_symmetry_equiv_pos_as_xyz
1 +x,+y,+z
2 +z,+x,+y
3 +y,+z,+x
4 +x,+y,-z
5 -z,+x,+y
6 +y,-z,+x
7 -z,+x,-y
8 -y,-z,+x
9 +y,-z,-x
10 -x,+y,-z
11 -z,-x,+y
12 +x,-y,-z
13 +y,+x,+z
14 +z,+y,+x
15 +x,+z,+y
16 +y,+x,-z
17 -z,+y,+x
18 +x,-z,+y
19 -z,+y,-x
20 -x,-z,+y
21 +x,-z,-y
22 -y,+x,-z
23 -z,-y,+x
24 +y,-x,-z
-1 -x,-y,-z
-2 -z,-x,-y
-3 -y,-z,-x
-4 -x,-y,+z
-5 +z,-x,-y
-6 -y,+z,-x
-7 +z,-x,+y
-8 +y,+z,-x
-9 -y,+z,+x
-10 +x,-y,+z
-11 +z,+x,-y
-12 -x,+y,+z
-13 -y,-x,-z
-14 -z,-y,-x
-15 -x,-z,-y
-16 -y,-x,+z
-17 +z,-y,-x
-18 -x,+z,-y
-19 +z,-y,+x
-20 +x,+z,-y
-21 -x,+z,+y
-22 +y,-x,+z
-23 +z,+y,-x
-24 -y,+x,+z
loop_
_atom_site_type_symbol
_atom_site_label
_atom_site_fract_x
_atom_site_fract_y
_atom_site_fract_z
_atom_site_occupancy
_atom_site_thermal_displace_type
_atom_site_U_iso_or_equiv
_atom_site_symmetry_multiplicity
Fe Fe1 0.1331(4) 0.5 0.0 1.0 Uiso 0.002(1) 12
C C1 0.15171(32) 0.3369(4) -0.15171(32) 1.0 Uiso 0.0169(10) 24
C C2 0.18118(30) 0.2724(4) -0.18118(30) 1.0 Uiso 0.0169(10) 24
C C3 0.24214(27) 0.24214(27) -0.1470(4) 1.0 Uiso 0.0169(10) 24
Cl Cl1 0.0 0.5 0.0 1.0 Uiso 0.006(4) 3
N N1 0.13058(21) 0.42070(19) -0.08111(22) 1.0 Uiso 0.0148(5) 48
N N2 0.17655(22) 0.36792(21) -0.09175(21) 1.0 Uiso 0.0148(5) 48
H H1 0.2633(5) 0.2633(5) -0.1073(6) 1.0 Uiso 0.025(4) 24
Fe Fe2 0.2678(27) 0.0 0.0 0.1793 Uiso 0.10322 6
O Os 0.2482(6) 0.5 0.0 0.6471 Uiso 0.03508 12
C Cs 0.3013(10) 0.5 0.0538(10) 0.3236 Uiso 0.03508 24
O O1a 0.2582(15) 0.5 0.0 0.358(11) Uiso 0.09(1) 12
O O1b 0.3078(32) 0.3881(17) 0.0 0.179(5) Uiso 0.10(2) 24
C C1a 0.2849(20) 0.4448(12) 0.0 0.179(5) Uiso 0.10(2) 24
H Hsa 0.2772(19) 0.5 0.1009(9) 0.3236 Uiso 0.10908 24
H Hsb 0.3296(14) 0.4532(8) 0.0489(17) 0.3236 Uiso 0.10908 48
C C2a 0.0 0.2854(17) 0.0404(19) 0.074(4) Uiso 0.09(3) 24
O O2b 0.0 0.240(5) 0.081(6) 0.074(4) Uiso 0.09(3) 24
O O2a 0.0 0.3308(4) 0.0 0.295(15) Uiso 0.07(4) 6
C C3a 0.135(4) 0.135(4) 0.0 0.156(7) Uiso 0.07(2) 12
O O3a 0.076(5) 0.118(5) 0.0 0.078(4) Uiso 0.07(2) 24
O O3b 0.194(5) 0.153(5) 0.0 0.078(4) Uiso 0.07(2) 24
loop_
_atom_type_symbol
_atom_type_number_in_cell
_atom_type_scat_length_neutron
_atom_type_scat_source
Fe 13.076 0.9450 International_Tables_Vol_C
C 87.698 0.6646 International_Tables_Vol_C
Cl 3.0 0.9577 International_Tables_Vol_C
N 96.0 0.9360 International_Tables_Vol_C
H 47.299 -0.3739 International_Tables_Vol_C
O 23.635 0.5803 International_Tables_Vol_C
loop_
_geom_angle_atom_site_label_1
_geom_angle_atom_site_label_2
_geom_angle_atom_site_label_3
_geom_angle
_geom_angle_site_symmetry_1
_geom_angle_site_symmetry_3
_geom_angle_publ_flag
Cl1 Fe1 N1 88.71(24) 1_555 1_555 n
Cl1 Fe1 N1 88.71(24) 1_555 4_555 n
Cl1 Fe1 N1 88.71(24) 1_555 12_565 n
Cl1 Fe1 N1 88.71(24) 1_555 -10_565 n
N1 Fe1 N1 91.26(24) 1_555 4_555 n
N1 Fe1 N1 177.4(5) 1_555 12_565 n
N1 Fe1 N1 88.68(24) 1_555 -10_565 n
N1 Fe1 N1 88.68(24) 4_555 12_565 n
N1 Fe1 N1 177.4(5) 4_555 -10_565 n
N1 Fe1 N1 91.26(24) 12_565 -10_565 n
C2 C1 N2 123.3(4) 1_555 1_555 n
C2 C1 N2 123.3(4) 1_555 19_555 n
N2 C1 N2 112.9(7) 1_555 19_555 n
C1 C2 C3 118.0(4) 1_555 1_555 n
C1 C2 C3 118.0(4) 1_555 7_555 n
C3 C2 C3 124.1(7) 1_555 7_555 n
C2 C3 C2 115.8(7) 1_555 9_555 n
C2 C3 H1 122.0(4) 1_555 1_555 n
C2 C3 H1 122.0(4) 9_555 1_555 n
Fe1 Cl1 Fe1 180.0 1_555 10_555 n
Fe1 Cl1 Fe1 90.0 1_555 14_555 n
Fe1 Cl1 Fe1 90.0 1_555 19_555 n
Fe1 Cl1 Fe1 90.0 10_555 14_555 n
Fe1 Cl1 Fe1 90.0 10_555 19_555 n
Fe1 Cl1 Fe1 180.0 14_555 19_555 n
Fe1 N1 N1 121.43(21) 1_555 19_555 n
Fe1 N1 N2 127.9(4) 1_555 1_555 n
N1 N1 N2 110.66(26) 19_555 1_555 n
C1 N2 N1 102.9(4) 1_555 1_555 n
C2a Fe2 C2a 133(7) 3_555 6_555 n
C2a Fe2 C2a 80.8(26) 3_555 13_555 n
C2a Fe2 C2a 80.8(26) 3_555 16_555 n
C2a Fe2 O2b 43(4) 3_555 3_555 n
C2a Fe2 O2b 175(8) 3_555 6_555 n
C2a Fe2 O2b 97.5(14) 3_555 13_555 n
C2a Fe2 O2b 97.5(14) 3_555 16_555 n
C2a Fe2 O2a 66(4) 3_555 3_555 n
C2a Fe2 C2a 80.8(26) 6_555 13_555 n
C2a Fe2 C2a 80.8(26) 6_555 16_555 n
C2a Fe2 O2b 175(8) 6_555 3_555 n
C2a Fe2 O2b 43(4) 6_555 6_555 n
C2a Fe2 O2b 97.5(14) 6_555 13_555 n
C2a Fe2 O2b 97.5(14) 6_555 16_555 n
C2a Fe2 O2a 66(4) 6_555 3_555 n
C2a Fe2 C2a 133(7) 13_555 16_555 n
C2a Fe2 O2b 97.5(14) 13_555 3_555 n
C2a Fe2 O2b 97.5(14) 13_555 6_555 n
C2a Fe2 O2b 43(4) 13_555 13_555 n
C2a Fe2 O2b 175(8) 13_555 16_555 n
C2a Fe2 O2a 66(4) 13_555 3_555 n
C2a Fe2 O2b 97.5(14) 16_555 3_555 n
C2a Fe2 O2b 97.5(14) 16_555 6_555 n
C2a Fe2 O2b 175(8) 16_555 13_555 n
C2a Fe2 O2b 43(4) 16_555 16_555 n
C2a Fe2 O2a 66(4) 16_555 3_555 n
O2b Fe2 O2b 142(10) 3_555 6_555 n
O2b Fe2 O2b 83.9(31) 3_555 13_555 n
O2b Fe2 O2b 83.9(31) 3_555 16_555 n
O2b Fe2 O2a 109(5) 3_555 3_555 n
O2b Fe2 O2b 83.9(31) 6_555 13_555 n
O2b Fe2 O2b 83.9(31) 6_555 16_555 n
O2b Fe2 O2a 109(5) 6_555 3_555 n
O2b Fe2 O2b 142(10) 13_555 16_555 n
O2b Fe2 O2a 109(5) 13_555 3_555 n
O2b Fe2 O2a 109(5) 16_555 3_555 n
Cs Os Cs 90.8(20) 1_555 4_555 n
Cs Os O1a 45.4(10) 1_555 1_555 n
Cs Os C1a 67.1(14) 1_555 1_555 n
Cs Os C1a 67.1(14) 1_555 12_565 n
Cs Os O1a 45.4(10) 4_555 1_555 n
Cs Os C1a 67.1(14) 4_555 1_555 n
Cs Os C1a 67.1(14) 4_555 12_565 n
O1a Os C1a 56.4(20) 1_555 1_555 n
O1a Os C1a 56.4(20) 1_555 12_565 n
C1a Os C1a 113(4) 1_555 12_565 n
Os Cs O1a 5.9(11) 1_555 1_555 n
Os Cs C1a 50.8(10) 1_555 1_555 n
Os Cs C1a 50.8(10) 1_555 12_565 n
Os Cs Hsa 108.2(11) 1_555 1_555 n
Os Cs Hsb 107.4(10) 1_555 1_555 n
Os Cs Hsb 107.4(10) 1_555 -10_565 n
O1a Cs C1a 48.5(8) 1_555 1_555 n
O1a Cs C1a 48.5(8) 1_555 12_565 n
O1a Cs Hsa 114.2(15) 1_555 1_555 n
O1a Cs Hsb 104.7(11) 1_555 1_555 n
O1a Cs Hsb 104.7(11) 1_555 -10_565 n
C1a Cs C1a 89.0(13) 1_555 12_565 n
C1a Cs Hsa 120.8(15) 1_555 1_555 n
C1a Cs Hsb 56.6(15) 1_555 1_555 n
C1a Cs Hsb 130.1(16) 1_555 -10_565 n
C1a Cs Hsa 120.8(15) 12_565 1_555 n
C1a Cs Hsb 130.1(16) 12_565 1_555 n
C1a Cs Hsb 56.6(15) 12_565 -10_565 n
Hsa Cs Hsb 108.3(10) 1_555 1_555 n
Hsa Cs Hsb 108.3(10) 1_555 -10_565 n
Hsb Cs Hsb 116.9(27) 1_555 -10_565 n
Os O1a Cs 128.7(14) 1_555 1_555 n
Os O1a Cs 128.7(14) 1_555 4_555 n
Os O1a C1a 115.8(24) 1_555 1_555 n
Os O1a C1a 115.8(24) 1_555 12_565 n
Cs O1a Cs 102.6(28) 1_555 4_555 n
Cs O1a C1a 74.2(16) 1_555 1_555 n
Cs O1a C1a 74.2(16) 1_555 12_565 n
Cs O1a C1a 74.2(16) 4_555 1_555 n
Cs O1a C1a 74.2(16) 4_555 12_565 n
C1a O1a C1a 128(5) 1_555 12_565 n
C1a O1b Hsb 51.8(17) 1_555 1_555 n
C1a O1b Hsb 51.8(17) 1_555 4_555 n
Hsb O1b Hsb 70.9(27) 1_555 4_555 n
Os C1a Cs 62.1(9) 1_555 1_555 n
Os C1a Cs 62.1(9) 1_555 4_555 n
Os C1a O1a 7.8(13) 1_555 1_555 n
Os C1a O1b 168(4) 1_555 1_555 n
Os C1a Hsb 105.3(17) 1_555 1_555 n
Os C1a Hsb 105.3(17) 1_555 4_555 n
Cs C1a Cs 86.1(20) 1_555 4_555 n
Cs C1a O1a 57.3(14) 1_555 1_555 n
Cs C1a O1b 124.8(21) 1_555 1_555 n
Cs C1a Hsb 43.3(10) 1_555 1_555 n
Cs C1a Hsb 105.7(31) 1_555 4_555 n
Cs C1a O1a 57.3(14) 4_555 1_555 n
Cs C1a O1b 124.8(21) 4_555 1_555 n
Cs C1a Hsb 105.7(31) 4_555 1_555 n
Cs C1a Hsb 43.3(10) 4_555 4_555 n
O1a C1a O1b 176(4) 1_555 1_555 n
O1a C1a Hsb 100.2(22) 1_555 1_555 n
O1a C1a Hsb 100.2(22) 1_555 4_555 n
O1b C1a Hsb 82.3(24) 1_555 1_555 n
O1b C1a Hsb 82.3(24) 1_555 4_555 n
Hsb C1a Hsb 94(4) 1_555 4_555 n
Cs Hsb O1b 125.2(21) 1_555 1_555 n
Cs Hsb C1a 80.1(13) 1_555 1_555 n
O1b Hsb C1a 45.9(14) 1_555 1_555 n
Fe2 C2a C2a 24(4) 2_555 4_555 n
Fe2 C2a C2a 49.6(13) 2_555 14_555 n
Fe2 C2a C2a 49.6(13) 2_555 17_555 n
Fe2 C2a O2b 108(5) 2_555 1_555 n
Fe2 C2a O2a 71.9(34) 2_555 1_555 n
C2a C2a C2a 45.0000(7) 4_555 14_555 n
C2a C2a C2a 45.0000(7) 4_555 17_555 n
C2a C2a O2b 132(5) 4_555 1_555 n
C2a C2a O2a 48.3(23) 4_555 1_555 n
C2a C2a C2a 90.0000(14) 14_555 17_555 n
C2a C2a O2b 117.9(30) 14_555 1_555 n
C2a C2a O2a 61.9(14) 14_555 1_555 n
C2a C2a O2b 117.9(30) 17_555 1_555 n
C2a C2a O2a 61.9(14) 17_555 1_555 n
O2b C2a O2a 180.000(10) 1_555 1_555 n
Fe2 O2b C2a 29.4(19) 2_555 1_555 n
Fe2 O2b O3b 166(11) 2_555 2_555 n
C2a O2b O3b 164(11) 1_555 2_555 n
Fe2 O2a C2a 41.7(23) 2_555 1_555 n
Fe2 O2a C2a 41.7(23) 2_555 4_555 n
Fe2 O2a C2a 41.7(23) 2_555 14_555 n
Fe2 O2a C2a 41.7(23) 2_555 17_555 n
C2a O2a C2a 83(5) 1_555 4_555 n
C2a O2a C2a 56.1(27) 1_555 14_555 n
C2a O2a C2a 56.1(27) 1_555 17_555 n
C2a O2a C2a 56.1(27) 4_555 14_555 n
C2a O2a C2a 56.1(27) 4_555 17_555 n
C2a O2a C2a 83(5) 14_555 17_555 n
O3a C3a O3a 58(9) 1_555 13_555 n
O3a C3a O3b 180.00(4) 1_555 1_555 n
O3a C3a O3b 123(9) 1_555 13_555 n
O3a C3a O3b 123(9) 13_555 1_555 n
O3a C3a O3b 180.00(4) 13_555 13_555 n
O3b C3a O3b 57(9) 1_555 13_555 n
C3a O3a O3a 61(5) 1_555 13_555 n
O2b O3b C3a 106(8) 3_555 1_555 n
O2b O3b O3b 168(7) 3_555 13_555 n
C3a O3b O3b 62(5) 1_555 13_555 n
loop_
_geom_bond_atom_site_label_1
_geom_bond_atom_site_label_2
_geom_bond_distance
_geom_bond_site_symmetry_2
_geom_bond_publ_flag
Fe1 Fe1 3.559(10) 14_555 n
Fe1 Fe1 3.559(10) 19_555 n
Fe1 Cl1 2.516(7) 1_555 n
Fe1 N1 2.1445(34) 1_555 n
Fe1 N1 2.1445(34) 4_555 n
Fe1 N1 2.1445(34) 12_565 n
Fe1 N1 3.050(5) 17_555 n
Fe1 N1 3.050(5) 19_555 n
Fe1 N1 3.050(5) 23_565 n
Fe1 N1 2.1445(34) -10_565 n
Fe1 N1 3.050(5) -14_565 n
Fe1 N2 3.148(4) 1_555 n
Fe1 N2 3.148(4) 4_555 n
Fe1 N2 3.148(4) 12_565 n
Fe1 N2 3.148(4) -10_565 n
Fe1 Os 2.175(10) 1_555 n
Fe1 Cs 3.338(16) 1_555 n
Fe1 Cs 3.338(16) 4_555 n
Fe1 O1a 2.364(29) 1_555 n
Fe1 O1b 3.92(4) 1_555 n
Fe1 O1b 3.92(4) 12_565 n
Fe1 C1a 3.053(32) 1_555 n
Fe1 C1a 3.053(32) 12_565 n
Fe1 Hsa 3.324(29) 1_555 n
Fe1 Hsa 3.324(29) 4_555 n
C1 C2 1.451(11) 1_555 n
C1 N1 2.109(8) 1_555 n
C1 N1 2.109(8) 19_555 n
C1 N2 1.360(6) 1_555 n
C1 N2 1.360(6) 19_555 n
C2 C1 1.451(11) 1_555 n
C2 C3 1.439(5) 1_555 n
C2 C3 1.439(5) 7_555 n
C3 C2 1.439(5) 1_555 n
C3 C2 1.439(5) 9_555 n
C3 H1 0.940(10) 1_555 n
Cl1 Fe1 2.516(7) 1_555 n
Cl1 Fe1 2.516(7) 10_555 n
Cl1 Fe1 2.516(7) 14_555 n
Cl1 Fe1 2.516(7) 19_555 n
Cl1 N1 3.269(4) 1_555 n
Cl1 N1 3.269(4) 4_555 n
Cl1 N1 3.269(4) 10_555 n
Cl1 N1 3.269(4) 12_565 n
Cl1 N1 3.269(4) 14_555 n
Cl1 N1 3.269(4) 17_555 n
Cl1 N1 3.269(4) 19_555 n
Cl1 N1 3.269(4) 23_565 n
Cl1 N1 3.269(4) -1_565 n
Cl1 N1 3.269(4) -4_565 n
Cl1 N1 3.269(4) -10_565 n
Cl1 N1 3.269(4) -12_555 n
Cl1 N1 3.269(4) -14_565 n
Cl1 N1 3.269(4) -17_565 n
Cl1 N1 3.269(4) -19_565 n
Cl1 N1 3.269(4) -23_555 n
Cl1 Fe2 4.39(5) 2_555 n
Cl1 Fe2 4.39(5) 11_565 n
Cl1 O2a 3.198(8) 1_555 n
Cl1 O2a 3.198(8) 12_565 n
N1 Fe1 2.1445(34) 1_555 n
N1 Fe1 3.050(5) 19_555 n
N1 C1 2.109(8) 1_555 n
N1 Cl1 3.269(4) 1_555 n
N1 N1 1.322(9) 19_555 n
N1 N2 1.338(5) 1_555 n
N2 Fe1 3.148(4) 1_555 n
N2 C1 1.360(6) 1_555 n
N2 N1 1.338(5) 1_555 n
H1 C3 0.940(10) 1_555 n
Fe2 Cl1 4.39(5) 3_555 n
Fe2 C2a 0.83(5) 3_555 n
Fe2 C2a 0.83(5) 6_555 n
Fe2 C2a 0.83(5) 13_555 n
Fe2 C2a 0.83(5) 16_555 n
Fe2 O2b 1.61(7) 3_555 n
Fe2 O2b 1.61(7) 6_555 n
Fe2 O2b 1.61(7) 13_555 n
Fe2 O2b 1.61(7) 16_555 n
Fe2 O2a 1.19(5) 3_555 n
Fe2 C3a 3.58(4) 1_555 n
Fe2 C3a 3.58(4) 3_555 n
Fe2 C3a 3.58(4) 9_555 n
Fe2 C3a 3.58(4) 12_555 n
Fe2 O3a 3.17(9) 3_555 n
Fe2 O3a 3.17(9) 9_555 n
Fe2 O3a 3.17(9) 13_555 n
Fe2 O3a 3.17(9) 24_555 n
Fe2 O3b 3.21(9) 1_555 n
Fe2 O3b 3.21(9) 12_555 n
Fe2 O3b 3.21(9) 15_555 n
Fe2 O3b 3.21(9) 21_555 n
Os Fe1 2.175(10) 1_555 n
Os Cs 1.429(11) 1_555 n
Os Cs 1.429(11) 4_555 n
Os O1a 0.189(32) 1_555 n
Os O1b 2.396(21) 1_555 n
Os O1b 2.396(21) 12_565 n
Os C1a 1.253(19) 1_555 n
Os C1a 1.253(19) 12_565 n
Cs Fe1 3.338(16) 1_555 n
Cs Os 1.429(11) 1_555 n
Cs Cs 2.03(4) 4_555 n
Cs O1a 1.303(23) 1_555 n
Cs O1b 2.350(29) 1_555 n
Cs O1b 2.350(29) 12_565 n
Cs C1a 1.490(25) 1_555 n
Cs C1a 1.490(25) 12_565 n
Cs Hsa 1.000(11) 1_555 n
Cs Hsb 1.037(11) 1_555 n
Cs Hsb 1.037(11) -10_565 n
O1a Fe1 2.364(29) 1_555 n
O1a Os 0.189(32) 1_555 n
O1a Cs 1.303(23) 1_555 n
O1a Cs 1.303(23) 4_555 n
O1a O1b 2.313(16) 1_555 n
O1a O1b 2.313(16) 12_565 n
O1a C1a 1.160(11) 1_555 n
O1a C1a 1.160(11) 12_565 n
O1b Fe1 3.92(4) 1_555 n
O1b Os 2.396(21) 1_555 n
O1b Cs 2.350(29) 1_555 n
O1b Cs 2.350(29) 4_555 n
O1b O1a 2.313(16) 1_555 n
O1b O1b 2.15(6) 13_555 n
O1b C1a 1.155(11) 1_555 n
C1a Fe1 3.053(32) 1_555 n
C1a Os 1.253(19) 1_555 n
C1a Cs 1.490(25) 1_555 n
C1a Cs 1.490(25) 4_555 n
C1a O1a 1.160(11) 1_555 n
C1a O1b 1.155(11) 1_555 n
C1a C1a 2.09(5) 12_565 n
C1a Hsb 1.26(4) 1_555 n
C1a Hsb 1.26(4) 4_555 n
Hsa Fe1 3.324(29) 1_555 n
Hsa Cs 1.000(11) 1_555 n
Hsa Hsb 1.652(16) 1_555 n
Hsa Hsb 1.652(16) -10_565 n
Hsb Cs 1.037(11) 1_555 n
Hsb C1a 1.26(4) 1_555 n
Hsb Hsa 1.652(16) 1_555 n
Hsb Hsb 1.85(6) 4_555 n
Hsb Hsb 1.768(32) -10_565 n
C2a Fe2 0.83(5) 2_555 n
C2a C2a 1.53(7) 4_555 n
C2a C2a 1.08(5) 14_555 n
C2a C2a 1.08(5) 17_555 n
C2a O2b 1.149(11) 1_555 n
C2a O2b 2.45(11) 4_555 n
C2a O2b 1.91(7) 14_555 n
C2a O2b 1.91(7) 17_555 n
C2a O2a 1.148(11) 1_555 n
O2b Fe2 1.61(7) 2_555 n
O2b C2a 1.149(11) 1_555 n
O2b C2a 2.45(11) 4_555 n
O2b C2a 1.91(7) 14_555 n
O2b C2a 1.91(7) 17_555 n
O2b O2b 2.16(15) 14_555 n
O2b O2b 2.16(15) 17_555 n
O2b O2a 2.298(16) 1_555 n
O2b C3a 2.23(5) 2_555 n
O2b O3a 2.30(13) 14_555 n
O2b O3b 1.62(10) 2_555 n
O2b O3b 2.70(8) 14_555 n
O2a Cl1 3.198(8) 1_555 n
O2a Fe2 1.19(5) 2_555 n
O2a C2a 1.148(11) 1_555 n
O2a C2a 1.148(11) 4_555 n
O2a C2a 1.148(11) 14_555 n
O2a C2a 1.148(11) 17_555 n
O2a O2b 2.298(16) 1_555 n
O2a O2b 2.298(16) 4_555 n
O2a O2b 2.298(16) 14_555 n
O2a O2b 2.298(16) 17_555 n
C3a Fe2 3.58(4) 1_555 n
C3a Fe2 3.58(4) 2_555 n
C3a O2b 2.23(5) 3_555 n
C3a O2b 2.23(5) 14_555 n
C3a O3a 1.154(11) 1_555 n
C3a O3a 1.154(11) 13_555 n
C3a O3b 1.154(11) 1_555 n
C3a O3b 1.154(11) 13_555 n
O3a Fe2 3.17(9) 2_555 n
O3a O2b 2.30(13) 14_555 n
O3a C3a 1.154(11) 1_555 n
O3a O3a 2.78(11) 2_555 n
O3a O3a 2.78(11) 3_555 n
O3a O3a 2.78(11) 7_555 n
O3a O3a 2.78(11) 9_555 n
O3a O3a 2.89(18) 10_555 n
O3a O3a 1.12(16) 13_555 n
O3a O3a 2.04(13) 14_555 n
O3a O3a 2.04(13) 19_555 n
O3a O3b 2.308(16) 1_555 n
O3a O3b 2.03(8) 13_555 n
O3b Fe2 3.21(9) 1_555 n
O3b O2b 1.62(10) 3_555 n
O3b O2b 2.70(8) 14_555 n
O3b C3a 1.154(11) 1_555 n
O3b O3a 2.308(16) 1_555 n
O3b O3a 2.03(8) 13_555 n
O3b O3b 1.09(16) 13_555 n
loop_
_pd_meas_intensity_total
_pd_proc_ls_weight
_pd_proc_intensity_bkg_calc
_pd_calc_intensity_total
5900(170) 0.0 3248. .
5340(160) 0.0 3235. .
4890(150) 0.0 3222. .
4680(150) 0.0 3209. .
4390(140) 0.0 3196. .
4350(140) 0.0 3184. .
3860(140) 0.0 3171. .
3980(140) 0.0 3159. .
3620(130) 0.0 3147. .
3770(130) 0.0 3134. .
3570(130) 0.0 3122. .
3660(130) 0.0 3110. .
3680(130) 0.0 3098. .
3580(130) 0.0 3086. .
3680(130) 0.0 3074. .
3780(130) 0.0 3063. .
3520(130) 0.0 3051. .
3770(130) 0.0 3039. .
3820(130) 0.0 3028. .
3620(130) 0.0 3016. .
3420(130) 0.0 3005. .
3650(130) 0.0 2994. .
3720(130) 0.0 2983. .
3550(130) 0.0 2972. .
3660(130) 0.0 2960. .
3770(130) 0.0 2950. .
3580(130) 0.0 2939. .
3620(130) 0.0 2928. .
3490(130) 0.0 2917. .
3720(130) 0.0 2907. .
3670(130) 0.0 2896. .
3430(130) 0.0 2885. .
3110(120) 0.0 2875. .
3250(120) 0.0 2865. .
3260(120) 0.0 2854. .
3140(120) 0.0 2844. .
3340(130) 0.0 2834. .
3160(120) 0.0 2824. .
3380(130) 0.0 2814. .
3100(120) 0.0 2804. .
3200(120) 0.0 2794. .
3270(130) 0.0 2785. .
2880(120) 0.0 2775. .
3020(120) 0.0 2765. .
3130(120) 0.0 2756. .
2910(120) 0.0 2746. .
2980(120) 0.0 2737. .
2900(120) 0.0000718 2728. 2736.
3060(120) 0.0000683 2718. 2728.
3020(120) 0.0000694 2709. 2721.
3160(120) 0.0000661 2700. 2717.
2970(120) 0.0000706 2691. 2719.
3320(130) 0.0000640 2682. 2729.
3190(120) 0.0000661 2673. 2749.
3030(120) 0.0000694 2664. 2781.
3260(120) 0.0000650 2655. 2823.
3180(120) 0.0000661 2647. 2873.
3430(130) 0.0000610 2638. 2929.
3290(130) 0.0000640 2630. 2990.
3230(120) 0.0000650 2621. 3054.
3380(130) 0.0000620 2613. 3123.
3400(130) 0.0000620 2604. 3196.
3590(130) 0.0000592 2596. 3273.
3510(130) 0.0000601 2588. 3355.
3470(130) 0.0000610 2579. 3442.
3660(130) 0.0000574 2571. 3535.
3660(130) 0.0000574 2563. 3634.
3840(140) 0.0000549 2555. 3739.
3930(140) 0.0000541 2547. 3853.
3820(130) 0.0000557 2539. 3975.
4200(140) 0.0000503 2531. 4105.
4230(140) 0.0000503 2524. 4247.
4110(140) 0.0000518 2516. 4400.
4620(150) 0.0000463 2508. 4566.
4770(150) 0.0000444 2501. 4746.
4890(150) 0.0000433 2493. 4944.
4900(150) 0.0000433 2485. 5162.
5070(150) 0.0000422 2478. 5403.
5400(160) 0.0000396 2471. 5671.
5740(160) 0.0000372 2463. 5972.
6430(170) 0.0000334 2456. 6313.
6590(180) 0.0000327 2449. 6703.
7140(180) 0.0000302 2442. 7156.
7590(190) 0.0000283 2435. 7692.
8340(200) 0.0000258 2428. 8342.
9580(210) 0.0000225 2421. 9160.
10810(220) 0.0000199 2414. 10239.
12150(240) 0.0000178 2407. 11709.
13750(250) 0.0000157 2400. 13689.
16460(280) 0.0000131 2393. 16105.
18700(290) 0.0000116 2387. 18461.
20140(310) 0.0000107 2380. 19799.
20190(310) 0.0000107 2373. 19150.
17100(280) 0.0000127 2367. 16302.
12860(240) 0.0000168 2360. 12165.
8860(200) 0.0000243 2354. 8152.
6000(170) 0.0000354 2347. 5231.
3610(130) 0.0000583 2341. 3566.
2810(120) 0.0000743 2335. 2808.
2520(110) 0.0000826 2328. 2520.
2346(72) 0.0001929 2322. 2423.
2238(70) 0.0002041 2316. 2387.
2234(70) 0.0002041 2310. 2367.
2143(69) 0.0002100 2304. 2353.
2300(71) 0.0001984 2298. 2341.
2147(69) 0.0002100 2292. 2331.
2114(68) 0.0002163 2286. 2321.
2106(68) 0.0002163 2280. 2312.
2182(69) 0.0002100 2275. 2304.
2042(67) 0.0002228 2269. 2296.
2226(70) 0.0002041 2263. 2289.
2205(70) 0.0002041 2257. 2282.
2144(69) 0.0002100 2252. 2275.
2108(68) 0.0002163 2246. 2269.
2187(69) 0.0002100 2241. 2264.
2241(70) 0.0002041 2235. 2259.
2271(71) 0.0001984 2230. 2255.
2281(71) 0.0001984 2224. 2255.
2283(71) 0.0001984 2219. 2261.
2238(70) 0.0002041 2214. 2276.
2244(70) 0.0002041 2208. 2305.
2487(74) 0.0001826 2203. 2347.
2341(72) 0.0001929 2198. 2402.
2397(73) 0.0001877 2193. 2469.
2329(72) 0.0001929 2188. 2546.
2509(74) 0.0001826 2183. 2624.
2600(76) 0.0001731 2178. 2717.
2644(76) 0.0001731 2173. 2819.
2707(77) 0.0001687 2168. 2932.
2854(79) 0.0001602 2163. 3056.
3161(83) 0.0001452 2158. 3194.
3249(85) 0.0001384 2154. 3348.
3200(84) 0.0001417 2149. 3522.
3503(88) 0.0001291 2144. 3721.
3756(91) 0.0001208 2139. 3950.
4051(94) 0.0001132 2135. 4219.
4382(98) 0.0001041 2130. 4542.
4890(100) 0.0000925 2126. 4943.
5720(110) 0.0000797 2121. 5468.
6220(120) 0.0000731 2117. 6171.
7600(130) 0.0000601 2112. 7134.
8910(140) 0.0000510 2108. 8371.
10150(150) 0.0000450 2104. 9711.
11180(160) 0.0000406 2099. 10717.
11310(160) 0.0000401 2095. 10822.
10300(150) 0.0000444 2091. 9727.
7810(130) 0.0000583 2087. 7740.
5800(110) 0.0000783 2082. 5597.
3877(92) 0.0001181 2078. 3917.
2982(81) 0.0001524 2074. 2900.
2519(74) 0.0001826 2070. 2410.
2227(70) 0.0002041 2066. 2216.
2141(69) 0.0002100 2062. 2148.
1975(66) 0.0002296 2058. 2122.
2068(67) 0.0002228 2054. 2109.
2065(67) 0.0002228 2050. 2101.
2123(68) 0.0002163 2047. 2094.
2015(67) 0.0002228 2043. 2088.
2042(67) 0.0002228 2039. 2083.
2134(69) 0.0002100 2035. 2080.
2111(68) 0.0002163 2032. 2078.
2308(71) 0.0001984 2028. 2078.
2236(70) 0.0002041 2024. 2085.
2466(74) 0.0001826 2021. 2105.
2393(73) 0.0001877 2017. 2146.
2464(74) 0.0001826 2014. 2220.
2623(76) 0.0001731 2010. 2335.
2832(79) 0.0001602 2007. 2491.
2810(79) 0.0001602 2003. 2687.
2887(80) 0.0001562 2000. 2917.
3075(82) 0.0001487 1996. 3180.
3385(86) 0.0001352 1993. 3476.
3715(90) 0.0001235 1990. 3811.
3900(93) 0.0001156 1986. 4191.
4363(98) 0.0001041 1983. 4627.
4790(100) 0.0000943 1980. 5136.
5540(110) 0.0000826 1977. 5743.
6290(120) 0.0000718 1974. 6488.
7030(120) 0.0000650 1970. 7441.
8410(140) 0.0000541 1967. 8718.
10530(150) 0.0000433 1964. 10470.
12980(170) 0.0000350 1961. 12776.
15420(180) 0.0000295 1958. 15412.
17650(200) 0.0000258 1955. 17636.
18130(200) 0.0000250 1952. 18357.
16380(190) 0.0000277 1949. 16799.
12810(170) 0.0000354 1946. 13301.
8940(140) 0.0000510 1943. 9218.
5680(110) 0.0000797 1941. 5853.
3890(92) 0.0001181 1938. 3734.
2596(76) 0.0001731 1935. 2679.
2172(69) 0.0002100 1932. 2250.
2081(68) 0.0002163 1930. 2097.
1926(65) 0.0002367 1927. 2041.
1951(66) 0.0002296 1924. 2014.
2037(67) 0.0002228 1921. 1997.
1918(88) 0.0001291 1919. 1983.
1911(88) 0.0001291 1916. 1971.
1844(86) 0.0001352 1914. 1962.
1846(86) 0.0001352 1911. 1953.
1870(63) 0.0002520 1909. 1946.
1910(64) 0.0002441 1906. 1940.
1916(64) 0.0002441 1904. 1934.
1867(63) 0.0002520 1901. 1928.
1922(64) 0.0002441 1899. 1924.
1858(63) 0.0002520 1896. 1919.
1839(63) 0.0002520 1894. 1915.
1890(64) 0.0002441 1892. 1911.
1912(64) 0.0002441 1889. 1907.
1919(64) 0.0002441 1887. 1904.
1873(63) 0.0002520 1885. 1900.
1917(64) 0.0002441 1882. 1897.
1895(64) 0.0002441 1880. 1894.
1929(64) 0.0002441 1878. 1891.
1938(64) 0.0002441 1876. 1889.
2002(65) 0.0002367 1873. 1887.
1847(63) 0.0002520 1871. 1884.
1864(63) 0.0002520 1869. 1882.
1934(64) 0.0002441 1867. 1880.
1922(64) 0.0002441 1865. 1877.
1881(63) 0.0002520 1863. 1873.
1889(63) 0.0002520 1861. 1870.
1827(62) 0.0002601 1859. 1867.
1797(62) 0.0002601 1857. 1857.
1942(64) 0.0002441 1855. 1855.
1890(64) 0.0002441 1853. 1853.
1841(63) 0.0002520 1851. 1851.
1934(64) 0.0002441 1849. 1849.
1828(62) 0.0002601 1847. 1847.
1801(62) 0.0002601 1845. 1845.
1894(64) 0.0002441 1843. 1844.
1834(62) 0.0002601 1842. 1842.
1761(61) 0.0002687 1840. 1840.
1908(64) 0.0002441 1838. 1838.
1932(64) 0.0002441 1836. 1836.
1831(62) 0.0002601 1834. 1835.
1892(64) 0.0002441 1833. 1833.
1771(61) 0.0002687 1831. 1831.
1829(62) 0.0002601 1829. 1830.
1822(62) 0.0002601 1828. 1828.
1785(62) 0.0002601 1826. 1827.
1797(62) 0.0002601 1824. 1825.
1837(63) 0.0002520 1823. 1824.
1824(62) 0.0002601 1821. 1823.
1852(63) 0.0002520 1819. 1822.
1797(62) 0.0002601 1818. 1821.
1865(63) 0.0002520 1816. 1820.
1769(61) 0.0002687 1815. 1819.
1834(62) 0.0002601 1813. 1818.
1765(61) 0.0002687 1812. 1816.
1811(62) 0.0002601 1810. 1813.
1827(62) 0.0002601 1809. 1811.
1774(61) 0.0002687 1807. 1809.
1801(62) 0.0002601 1806. 1807.
1722(61) 0.0002687 1804. 1805.
1762(61) 0.0002687 1803. 1804.
1782(62) 0.0002601 1802. 1802.
1812(62) 0.0002601 1800. 1801.
1762(61) 0.0002687 1799. 1800.
1792(62) 0.0002601 1798. 1799.
1886(63) 0.0002520 1796. 1798.
1788(62) 0.0002601 1795. 1798.
1710(60) 0.0002778 1794. 1798.
1751(61) 0.0002687 1792. 1800.
1859(63) 0.0002520 1791. 1803.
1840(63) 0.0002520 1790. 1808.
1820(62) 0.0002601 1789. 1814.
1836(63) 0.0002520 1787. 1822.
1848(63) 0.0002520 1786. 1832.
1881(63) 0.0002520 1785. 1845.
1827(62) 0.0002601 1784. 1863.
1800(62) 0.0002601 1783. 1888.
1959(65) 0.0002367 1781. 1922.
1975(65) 0.0002367 1780. 1961.
1811(62) 0.0002601 1779. 1995.
1774(61) 0.0002687 1778. 2008.
1891(64) 0.0002441 1777. 1986.
1892(64) 0.0002441 1776. 1936.
1868(63) 0.0002520 1775. 1877.
1866(63) 0.0002520 1774. 1829.
1860(63) 0.0002520 1773. 1799.
1761(61) 0.0002687 1772. 1784.
1729(61) 0.0002687 1771. 1777.
1750(61) 0.0002687 1770. 1774.
1903(64) 0.0002441 1769. 1772.
1746(61) 0.0002687 1768. 1771.
1849(63) 0.0002520 1767. 1769.
1771(61) 0.0002687 1766. 1768.
1747(61) 0.0002687 1765. 1767.
1812(62) 0.0002601 1764. 1766.
1755(61) 0.0002687 1763. 1765.
1780(62) 0.0002601 1762. 1764.
1854(63) 0.0002520 1761. 1765.
1866(63) 0.0002520 1760. 1764.
1776(61) 0.0002687 1759. 1763.
1738(61) 0.0002687 1759. 1763.
1638(86) 0.0001352 1758. 1762.
1661(59) 0.0002873 1757. 1761.
1647(58) 0.0002973 1756. 1761.
1719(60) 0.0002778 1755. 1760.
1712(60) 0.0002778 1754. 1760.
1733(60) 0.0002778 1754. 1759.
1745(60) 0.0002778 1753. 1759.
1814(61) 0.0002687 1752. 1759.
1767(60) 0.0002778 1751. 1759.
1810(61) 0.0002687 1750. 1759.
1894(63) 0.0002520 1750. 1759.
1896(63) 0.0002520 1749. 1759.
1804(61) 0.0002687 1748. 1760.
1767(60) 0.0002778 1747. 1762.
1840(62) 0.0002601 1747. 1766.
1913(63) 0.0002520 1746. 1775.
1834(62) 0.0002601 1745. 1791.
1896(63) 0.0002520 1745. 1818.
1947(64) 0.0002441 1744. 1859.
1961(64) 0.0002441 1743. 1916.
2054(65) 0.0002367 1743. 1991.
2120(66) 0.0002296 1742. 2090.
2213(68) 0.0002163 1741. 2221.
2426(71) 0.0001984 1741. 2402.
2657(74) 0.0001826 1740. 2646.
3171(81) 0.0001524 1740. 2943.
3503(86) 0.0001352 1739. 3230.
3550(86) 0.0001352 1738. 3391.
3423(85) 0.0001384 1738. 3317.
2944(78) 0.0001644 1737. 3004.
2486(72) 0.0001929 1737. 2586.
2282(69) 0.0002100 1736. 2219.
1999(64) 0.0002441 1735. 1977.
1880(62) 0.0002601 1735. 1852.
1836(62) 0.0002601 1734. 1801.
1834(62) 0.0002601 1734. 1784.
1797(61) 0.0002687 1733. 1784.
1929(63) 0.0002520 1733. 1796.
1966(64) 0.0002441 1732. 1822.
1919(63) 0.0002520 1732. 1872.
1934(63) 0.0002520 1731. 1953.
2185(67) 0.0002228 1731. 2073.
2286(69) 0.0002100 1730. 2239.
2504(72) 0.0001929 1730. 2463.
2716(75) 0.0001778 1729. 2767.
3216(82) 0.0001487 1729. 3186.
3594(87) 0.0001321 1728. 3750.
4264(94) 0.0001132 1728. 4424.
4980(100) 0.0000961 1728. 5056.
5230(110) 0.0000907 1727. 5379.
4890(100) 0.0000980 1727. 5159.
4168(93) 0.0001156 1726. 4424.
3461(85) 0.0001384 1726. 3495.
2620(74) 0.0001826 1725. 2704.
2143(67) 0.0002228 1725. 2196.
1906(63) 0.0002520 1725. 1938.
1878(62) 0.0002601 1724. 1830.
1797(61) 0.0002687 1724. 1789.
1749(60) 0.0002778 1723. 1772.
1727(60) 0.0002778 1723. 1763.
1678(59) 0.0002873 1723. 1757.
1699(59) 0.0002873 1722. 1753.
1726(60) 0.0002778 1722. 1749.
1778(61) 0.0002687 1722. 1747.
1862(62) 0.0002601 1721. 1745.
1835(62) 0.0002601 1721. 1743.
1780(61) 0.0002687 1721. 1742.
1822(61) 0.0002687 1720. 1741.
1721(60) 0.0002778 1720. 1740.
1782(61) 0.0002687 1720. 1740.
1781(61) 0.0002687 1719. 1740.
1644(58) 0.0002973 1719. 1740.
1714(60) 0.0002778 1719. 1741.
1703(59) 0.0002873 1718. 1741.
1721(60) 0.0002778 1718. 1742.
1743(60) 0.0002778 1718. 1744.
1798(61) 0.0002687 1718. 1747.
1886(63) 0.0002520 1717. 1753.
1965(64) 0.0002441 1717. 1764.
1825(61) 0.0002687 1717. 1786.
1967(64) 0.0002441 1716. 1828.
1978(64) 0.0002441 1716. 1901.
2093(66) 0.0002296 1716. 2015.
2244(68) 0.0002163 1716. 2184.
2489(72) 0.0001929 1715. 2422.
2718(75) 0.0001778 1715. 2757.
3176(81) 0.0001524 1715. 3220.
3970(91) 0.0001208 1715. 3816.
4580(98) 0.0001041 1714. 4464.
5130(100) 0.0000925 1714. 4959.
5200(100) 0.0000925 1714. 5043.
4575(98) 0.0001041 1714. 4589.
3602(87) 0.0001321 1713. 3781.
2885(77) 0.0001687 1713. 2962.
2328(70) 0.0002041 1713. 2361.
2065(65) 0.0002367 1713. 2018.
1935(63) 0.0002520 1713. 1862.
1828(62) 0.0002601 1712. 1802.
1908(63) 0.0002520 1712. 1785.
1744(60) 0.0002778 1712. 1787.
1729(57) 0.0003078 1712. 1804.
1913(60) 0.0002778 1712. 1839.
1955(60) 0.0002778 1711. 1894.
1868(59) 0.0002873 1711. 1980.
1966(60) 0.0002778 1711. 2103.
2260(65) 0.0002367 1711. 2276.
2433(67) 0.0002228 1711. 2498.
2626(70) 0.0002041 1710. 2735.
2757(72) 0.0001929 1710. 2908.
2784(72) 0.0001929 1710. 2924.
2497(68) 0.0002163 1710. 2743.
2419(67) 0.0002228 1710. 2443.
2117(63) 0.0002520 1710. 2148.
1856(59) 0.0002873 1709. 1936.
1820(58) 0.0002973 1709. 1818.
1815(58) 0.0002973 1709. 1763.
1786(58) 0.0002973 1709. 1742.
1744(57) 0.0003078 1709. 1734.
1805(58) 0.0002973 1709. 1731.
1745(57) 0.0003078 1708. 1729.
1709(56) 0.0003189 1708. 1730.
1766(57) 0.0003078 1708. 1732.
1754(57) 0.0003078 1708. 1737.
1809(58) 0.0002973 1708. 1744.
1826(58) 0.0002973 1708. 1754.
1879(59) 0.0002873 1708. 1765.
1881(59) 0.0002873 1707. 1775.
1786(58) 0.0002973 1707. 1777.
1707(56) 0.0003189 1707. 1769.
1714(56) 0.0003189 1707. 1754.
1746(57) 0.0003078 1707. 1738.
1731(57) 0.0003078 1707. 1726.
1710(56) 0.0003189 1707. 1720.
1684(56) 0.0003189 1706. 1717.
1689(56) 0.0003189 1706. 1716.
1632(55) 0.0003306 1706. 1717.
1652(55) 0.0003306 1706. 1719.
1841(59) 0.0002873 1706. 1722.
1832(58) 0.0002973 1706. 1729.
1834(58) 0.0002973 1706. 1738.
1708(56) 0.0003189 1706. 1753.
1782(58) 0.0002973 1705. 1772.
1785(58) 0.0002973 1705. 1796.
1778(58) 0.0002973 1705. 1818.
1812(58) 0.0002973 1705. 1832.
1801(58) 0.0002973 1705. 1828.
1772(57) 0.0003078 1705. 1805.
1789(58) 0.0002973 1705. 1773.
1803(58) 0.0002973 1705. 1747.
1680(56) 0.0003189 1705. 1729.
1728(57) 0.0003078 1704. 1720.
1725(57) 0.0003078 1704. 1716.
1739(57) 0.0003078 1704. 1715.
1773(57) 0.0003078 1704. 1714.
1691(56) 0.0003189 1704. 1715.
1714(56) 0.0003189 1704. 1715.
1796(58) 0.0002973 1704. 1715.
1728(57) 0.0003078 1704. 1716.
1695(56) 0.0003189 1704. 1716.
1665(56) 0.0003189 1703. 1717.
1748(57) 0.0003078 1703. 1719.
1673(56) 0.0003189 1703. 1720.
1696(56) 0.0003189 1703. 1721.
1681(56) 0.0003189 1703. 1723.
1755(57) 0.0003078 1703. 1727.
1753(57) 0.0003078 1703. 1730.
1741(57) 0.0003078 1703. 1735.
1756(57) 0.0003078 1703. 1744.
1754(57) 0.0003078 1703. 1760.
1798(58) 0.0002973 1702. 1791.
1886(59) 0.0002873 1702. 1849.
2070(62) 0.0002601 1702. 1950.
2242(65) 0.0002367 1702. 2114.
2392(67) 0.0002228 1702. 2364.
2747(72) 0.0001929 1702. 2723.
3233(78) 0.0001644 1702. 3185.
3798(84) 0.0001417 1702. 3677.
4137(88) 0.0001291 1702. 4039.
4142(88) 0.0001291 1702. 4082.
3900(86) 0.0001352 1701. 3732.
3319(79) 0.0001602 1701. 3148.
2639(70) 0.0002041 1701. 2577.
2204(64) 0.0002441 1701. 2171.
2005(61) 0.0002687 1701. 1947.
1817(58) 0.0002973 1701. 1854.
1776(57) 0.0003078 1701. 1837.
1877(59) 0.0002873 1701. 1870.
1923(60) 0.0002778 1701. 1952.
2107(63) 0.0002520 1701. 2096.
2318(66) 0.0002296 1701. 2323.
2483(68) 0.0002163 1700. 2652.
3111(76) 0.0001731 1700. 3073.
3641(83) 0.0001452 1700. 3513.
3902(86) 0.0001352 1700. 3821.
3765(84) 0.0001417 1700. 3829.
3439(80) 0.0001562 1700. 3489.
3062(76) 0.0001731 1700. 2958.
2489(68) 0.0002163 1700. 2456.
2116(63) 0.0002520 1700. 2106.
1927(60) 0.0002778 1699. 1917.
1849(59) 0.0002873 1699. 1842.
1850(58) 0.0002973 1699. 1833.
1913(59) 0.0002873 1699. 1869.
2024(60) 0.0002778 1699. 1953.
2150(62) 0.0002601 1699. 2096.
2290(64) 0.0002441 1699. 2316.
2563(68) 0.0002163 1699. 2621.
2884(72) 0.0001929 1699. 2976.
3210(77) 0.0001687 1699. 3291.
3390(79) 0.0001602 1698. 3426.
3273(77) 0.0001687 1698. 3283.
2980(74) 0.0001826 1698. 2912.
2556(68) 0.0002163 1698. 2487.
2246(64) 0.0002441 1698. 2148.
2046(61) 0.0002687 1698. 1943.
1878(58) 0.0002973 1698. 1852.
1874(58) 0.0002973 1698. 1835.
1961(59) 0.0002873 1698. 1871.
1975(60) 0.0002778 1697. 1962.
2159(62) 0.0002601 1697. 2122.
2337(65) 0.0002367 1697. 2375.
2546(68) 0.0002163 1697. 2728.
2921(73) 0.0001877 1697. 3148.
3381(79) 0.0001602 1697. 3529.
3601(81) 0.0001524 1697. 3711.
3316(78) 0.0001644 1697. 3567.
3061(75) 0.0001778 1696. 3143.
2523(68) 0.0002163 1696. 2637.
2136(62) 0.0002601 1696. 2223.
1924(59) 0.0002873 1696. 1962.
1808(57) 0.0003078 1696. 1828.
1764(56) 0.0003189 1696. 1769.
1735(56) 0.0003189 1696. 1745.
1767(56) 0.0003189 1696. 1734.
1794(57) 0.0003078 1695. 1727.
1739(56) 0.0003189 1695. 1723.
1779(56) 0.0003189 1695. 1720.
1862(58) 0.0002973 1695. 1718.
1770(56) 0.0003189 1695. 1716.
1768(56) 0.0003189 1695. 1714.
1756(56) 0.0003189 1695. 1712.
1683(55) 0.0003306 1694. 1710.
1776(56) 0.0003189 1694. 1707.
1747(56) 0.0003189 1694. 1706.
1705(55) 0.0003306 1694. 1705.
1712(55) 0.0003306 1694. 1704.
1766(56) 0.0003189 1694. 1703.
1685(55) 0.0003306 1694. 1703.
1834(57) 0.0003078 1693. 1703.
1797(57) 0.0003078 1693. 1705.
1728(56) 0.0003189 1693. 1708.
1857(58) 0.0002973 1693. 1712.
1805(57) 0.0003078 1693. 1715.
1689(55) 0.0003306 1693. 1717.
1744(56) 0.0003189 1693. 1715.
1780(56) 0.0003189 1692. 1711.
1787(57) 0.0003078 1692. 1706.
1713(55) 0.0003306 1692. 1701.
1760(56) 0.0003189 1692. 1699.
1683(55) 0.0003306 1692. 1697.
1717(55) 0.0003306 1692. 1697.
1720(55) 0.0003306 1691. 1698.
1798(57) 0.0003078 1691. 1699.
1635(54) 0.0003429 1691. 1701.
1695(55) 0.0003306 1691. 1705.
1752(56) 0.0003189 1691. 1710.
1773(56) 0.0003189 1691. 1715.
1767(56) 0.0003189 1690. 1717.
1707(55) 0.0003306 1690. 1716.
1722(55) 0.0003306 1690. 1711.
1740(56) 0.0003189 1690. 1704.
1731(56) 0.0003189 1690. 1699.
1732(56) 0.0003189 1689. 1695.
1641(54) 0.0003429 1689. 1694.
1637(54) 0.0003429 1689. 1693.
1725(55) 0.0003306 1689. 1693.
1744(56) 0.0003189 1689. 1692.
1733(56) 0.0003189 1689. 1692.
1664(54) 0.0003429 1688. 1692.
1707(55) 0.0003306 1688. 1692.
1704(55) 0.0003306 1688. 1692.
1665(54) 0.0003429 1688. 1692.
1648(54) 0.0003429 1688. 1692.
1621(54) 0.0003429 1687. 1692.
1713(55) 0.0003306 1687. 1692.
1703(55) 0.0003306 1687. 1691.
1696(55) 0.0003306 1687. 1692.
1762(56) 0.0003189 1687. 1693.
1691(55) 0.0003306 1686. 1695.
1677(55) 0.0003306 1686. 1698.
1678(55) 0.0003306 1686. 1705.
1735(56) 0.0003189 1686. 1715.
1780(56) 0.0003189 1686. 1727.
1721(55) 0.0003306 1685. 1740.
1658(54) 0.0003429 1685. 1749.
1717(55) 0.0003306 1685. 1749.
1649(54) 0.0003429 1685. 1740.
1777(56) 0.0003189 1685. 1726.
1638(54) 0.0003429 1684. 1714.
1664(54) 0.0003429 1684. 1707.
1738(54) 0.0003429 1684. 1705.
1798(55) 0.0003306 1684. 1711.
1792(55) 0.0003306 1683. 1725.
1805(55) 0.0003306 1683. 1751.
1758(54) 0.0003429 1683. 1792.
1856(56) 0.0003189 1683. 1847.
1931(57) 0.0003078 1682. 1907.
1959(57) 0.0003078 1682. 1954.
1970(57) 0.0003078 1682. 1966.
1951(57) 0.0003078 1682. 1931.
1845(55) 0.0003306 1682. 1868.
1788(55) 0.0003306 1681. 1805.
1718(53) 0.000356 1681. 1761.
1700(53) 0.000356 1681. 1742.
1785(55) 0.0003306 1681. 1744.
1750(54) 0.0003429 1680. 1770.
1825(55) 0.0003306 1680. 1824.
1850(56) 0.0003189 1680. 1910.
2017(58) 0.0002973 1680. 2028.
2071(59) 0.0002873 1679. 2157.
2169(60) 0.0002778 1679. 2256.
2208(61) 0.0002687 1679. 2279.
2138(60) 0.0002778 1679. 2205.
2013(58) 0.0002973 1678. 2073.
1882(56) 0.0003189 1678. 1943.
1873(56) 0.0003189 1678. 1857.
1917(57) 0.0003078 1678. 1829.
1874(56) 0.0003189 1677. 1862.
2026(58) 0.0002973 1677. 1968.
2193(61) 0.0002687 1677. 2170.
2426(64) 0.0002441 1677. 2485.
2850(70) 0.0002041 1676. 2895.
3443(77) 0.0001687 1676. 3315.
3675(79) 0.0001602 1676. 3595.
3597(78) 0.0001644 1675. 3585.
3340(76) 0.0001731 1675. 3262.
2854(70) 0.0002041 1675. 2785.
2373(63) 0.0002520 1675. 2344.
2078(59) 0.0002873 1674. 2035.
1869(56) 0.0003189 1674. 1860.
1787(55) 0.0003306 1674. 1777.
1725(54) 0.0003429 1674. 1741.
1696(53) 0.000356 1673. 1725.
1663(53) 0.000356 1673. 1717.
1605(52) 0.000370 1673. 1712.
1634(52) 0.000370 1672. 1708.
1703(53) 0.000356 1672. 1706.
1695(53) 0.000356 1672. 1705.
1634(52) 0.000370 1671. 1705.
1696(53) 0.000356 1671. 1708.
1712(53) 0.000356 1671. 1714.
1741(54) 0.0003429 1671. 1727.
1761(54) 0.0003429 1670. 1755.
1792(55) 0.0003306 1670. 1811.
1888(56) 0.0003189 1670. 1908.
2029(58) 0.0002973 1669. 2055.
2189(61) 0.0002687 1669. 2243.
2357(63) 0.0002520 1669. 2429.
2507(65) 0.0002367 1668. 2543.
2386(63) 0.0002520 1668. 2523.
2235(61) 0.0002687 1668. 2368.
2061(59) 0.0002873 1668. 2156.
1926(57) 0.0003078 1667. 1967.
1759(54) 0.0003429 1667. 1840.
1706(53) 0.000356 1667. 1776.
1723(53) 0.000356 1666. 1760.
1717(53) 0.000356 1666. 1777.
1790(55) 0.0003306 1666. 1822.
1833(55) 0.0003306 1665. 1885.
1809(55) 0.0003306 1665. 1952.
1804(55) 0.0003306 1665. 1999.
1906(56) 0.0003189 1664. 1999.
1792(55) 0.0003306 1664. 1948.
1744(54) 0.0003429 1664. 1871.
1755(54) 0.0003429 1663. 1798.
1720(53) 0.000356 1663. 1747.
1645(52) 0.000370 1663. 1717.
1665(53) 0.000356 1662. 1704.
1761(54) 0.0003429 1662. 1698.
1748(54) 0.0003429 1662. 1697.
1665(53) 0.000356 1661. 1698.
1631(52) 0.000370 1661. 1700.
1637(52) 0.000370 1661. 1703.
1717(53) 0.000356 1660. 1708.
1677(53) 0.000356 1660. 1715.
1703(53) 0.000356 1660. 1727.
1726(54) 0.0003429 1659. 1749.
1754(54) 0.0003429 1659. 1793.
1888(56) 0.0003189 1659. 1882.
2103(59) 0.0002873 1658. 2055.
2389(63) 0.0002520 1658. 2357.
2837(69) 0.0002100 1658. 2816.
3447(77) 0.0001687 1657. 3393.
4032(83) 0.0001452 1657. 3956.
4302(86) 0.0001352 1657. 4288.
4261(86) 0.0001352 1656. 4204.
3791(81) 0.0001524 1656. 3722.
3019(72) 0.0001929 1655. 3081.
2427(64) 0.0002441 1655. 2516.
2084(59) 0.0002873 1655. 2133.
1872(44) 0.000517 1654. 1928.
1850(52) 0.000370 1654. 1849.
1772(51) 0.000384 1654. 1845.
1848(52) 0.000370 1653. 1884.
1958(53) 0.000356 1653. 1942.
1925(53) 0.000356 1653. 1993.
1936(53) 0.000356 1652. 2011.
1988(54) 0.0003429 1652. 1980.
1893(52) 0.000370 1651. 1914.
1793(51) 0.000384 1651. 1845.
1854(52) 0.000370 1651. 1799.
1797(51) 0.000384 1650. 1791.
1803(51) 0.000384 1650. 1831.
1908(53) 0.000356 1650. 1931.
2134(56) 0.0003189 1649. 2095.
2304(58) 0.0002973 1649. 2312.
2418(59) 0.0002873 1648. 2531.
2497(60) 0.0002778 1648. 2672.
2565(61) 0.0002687 1648. 2659.
2394(59) 0.0002873 1647. 2488.
2168(56) 0.0003189 1647. 2246.
1976(54) 0.0003429 1647. 2027.
1824(52) 0.000370 1646. 1880.
1796(51) 0.000384 1646. 1812.
1807(51) 0.000384 1645. 1811.
1910(53) 0.000356 1645. 1865.
1972(54) 0.0003429 1645. 1958.
2102(55) 0.0003306 1644. 2066.
2169(56) 0.0003189 1644. 2151.
2187(57) 0.0003078 1643. 2171.
2150(56) 0.0003189 1643. 2107.
2070(55) 0.0003306 1643. 1991.
1905(53) 0.000356 1642. 1872.
1771(51) 0.000384 1642. 1782.
1660(49) 0.000416 1641. 1731.
1666(49) 0.000416 1641. 1712.
1736(50) 0.000400 1641. 1717.
1719(50) 0.000400 1640. 1738.
1767(51) 0.000384 1640. 1766.
1840(52) 0.000370 1639. 1791.
1843(52) 0.000370 1639. 1800.
1821(51) 0.000384 1639. 1785.
1734(50) 0.000400 1638. 1753.
1768(51) 0.000384 1638. 1717.
1703(50) 0.000400 1637. 1688.
1667(49) 0.000416 1637. 1669.
1644(49) 0.000416 1637. 1658.
1661(49) 0.000416 1636. 1653.
1632(49) 0.000416 1636. 1651.
1592(48) 0.000434 1635. 1650.
1637(49) 0.000416 1635. 1649.
1602(48) 0.000434 1634. 1648.
1653(49) 0.000416 1634. 1648.
1628(49) 0.000416 1634. 1649.
1617(48) 0.000434 1633. 1651.
1711(50) 0.000400 1633. 1656.
1707(50) 0.000400 1632. 1666.
1710(50) 0.000400 1632. 1688.
1676(49) 0.000416 1632. 1724.
1832(52) 0.000370 1631. 1776.
1869(52) 0.000370 1631. 1836.
1846(52) 0.000370 1630. 1888.
2003(54) 0.0003429 1630. 1907.
1915(53) 0.000356 1629. 1881.
1751(50) 0.000400 1629. 1824.
1706(50) 0.000400 1629. 1759.
1697(50) 0.000400 1628. 1707.
1716(50) 0.000400 1628. 1673.
1681(49) 0.000416 1627. 1654.
1721(50) 0.000400 1627. 1645.
1672(49) 0.000416 1626. 1641.
1625(49) 0.000416 1626. 1638.
1616(48) 0.000434 1626. 1637.
1634(49) 0.000416 1625. 1636.
1631(49) 0.000416 1625. 1636.
1640(49) 0.000416 1624. 1635.
1613(48) 0.000434 1624. 1636.
1565(48) 0.000434 1623. 1637.
1556(47) 0.000453 1623. 1641.
1608(48) 0.000434 1623. 1646.
1689(50) 0.000400 1622. 1656.
1587(48) 0.000434 1622. 1668.
1558(48) 0.000434 1621. 1680.
1645(49) 0.000416 1621. 1689.
1675(49) 0.000416 1620. 1690.
1688(49) 0.000416 1620. 1685.
1620(48) 0.000434 1620. 1679.
1623(48) 0.000434 1619. 1681.
1712(50) 0.000400 1619. 1700.
1735(50) 0.000400 1618. 1748.
1862(52) 0.000370 1618. 1833.
1975(54) 0.0003429 1617. 1958.
2143(56) 0.0003189 1617. 2104.
2266(58) 0.0002973 1616. 2231.
2342(59) 0.0002873 1616. 2284.
2273(58) 0.0002973 1616. 2231.
2063(55) 0.0003306 1615. 2098.
1987(54) 0.0003429 1615. 1947.
1811(51) 0.000384 1614. 1828.
1745(50) 0.000400 1614. 1761.
1716(47) 0.000453 1613. 1744.
1797(48) 0.000434 1613. 1768.
1823(48) 0.000434 1612. 1819.
1835(49) 0.000416 1612. 1876.
1842(49) 0.000416 1612. 1913.
1880(49) 0.000416 1611. 1909.
1863(49) 0.000416 1611. 1863.
1777(48) 0.000434 1610. 1796.
1707(47) 0.000453 1610. 1735.
1700(47) 0.000453 1609. 1693.
1663(46) 0.000473 1609. 1675.
1661(46) 0.000473 1608. 1676.
1672(46) 0.000473 1608. 1693.
1733(47) 0.000453 1607. 1715.
1778(48) 0.000434 1607. 1734.
1729(47) 0.000453 1607. 1738.
1688(47) 0.000453 1606. 1724.
1641(46) 0.000473 1606. 1698.
1651(46) 0.000473 1605. 1670.
1611(45) 0.000494 1605. 1649.
1650(46) 0.000473 1604. 1635.
1639(46) 0.000473 1604. 1627.
1651(46) 0.000473 1603. 1625.
1643(46) 0.000473 1603. 1624.
1608(45) 0.000494 1602. 1625.
1661(46) 0.000473 1602. 1626.
1634(46) 0.000473 1602. 1629.
1655(46) 0.000473 1601. 1633.
1661(46) 0.000473 1601. 1642.
1766(48) 0.000434 1600. 1663.
1696(47) 0.000453 1600. 1704.
1807(48) 0.000434 1599. 1775.
1940(50) 0.000400 1599. 1882.
2023(51) 0.000384 1598. 2013.
2243(54) 0.0003429 1598. 2135.
2236(54) 0.0003429 1597. 2201.
2178(53) 0.000356 1597. 2175.
2057(52) 0.000370 1597. 2067.
1874(49) 0.000416 1596. 1928.
1799(48) 0.000434 1596. 1805.
1771(48) 0.000434 1595. 1718.
1681(46) 0.000473 1595. 1668.
1715(47) 0.000453 1594. 1643.
1682(46) 0.000473 1594. 1633.
1582(45) 0.000494 1593. 1629.
1583(45) 0.000494 1593. 1626.
1540(44) 0.000517 1592. 1624.
1578(45) 0.000494 1592. 1620.
1591(45) 0.000494 1592. 1615.
1597(45) 0.000494 1591. 1612.
1605(45) 0.000494 1591. 1609.
1631(46) 0.000473 1590. 1608.
1612(45) 0.000494 1590. 1607.
1561(45) 0.000494 1589. 1607.
1581(45) 0.000494 1589. 1607.
1650(46) 0.000473 1588. 1608.
1644(46) 0.000473 1588. 1610.
1628(46) 0.000473 1587. 1614.
1628(46) 0.000473 1587. 1622.
1590(45) 0.000494 1586. 1637.
1659(46) 0.000473 1586. 1666.
1720(47) 0.000453 1586. 1714.
1784(48) 0.000434 1585. 1783.
1836(49) 0.000416 1585. 1865.
1937(50) 0.000400 1584. 1938.
1938(50) 0.000400 1584. 1973.
1944(50) 0.000400 1583. 1952.
1861(49) 0.000416 1583. 1887.
1833(49) 0.000416 1582. 1809.
1745(47) 0.000453 1582. 1749.
1752(47) 0.000453 1581. 1721.
1735(47) 0.000453 1581. 1728.
1751(47) 0.000453 1580. 1763.
1763(48) 0.000434 1580. 1813.
1779(48) 0.000434 1580. 1858.
1899(50) 0.000400 1579. 1879.
1814(48) 0.000434 1579. 1866.
1777(48) 0.000434 1578. 1836.
1784(48) 0.000434 1578. 1822.
1827(49) 0.000416 1577. 1857.
1872(49) 0.000416 1577. 1969.
2172(53) 0.000356 1576. 2173.
2442(56) 0.0003189 1576. 2454.
2725(60) 0.0002778 1575. 2753.
2914(62) 0.0002601 1575. 2968.
2986(62) 0.0002601 1575. 2996.
2876(61) 0.0002687 1574. 2816.
2406(56) 0.0003189 1574. 2521.
2155(53) 0.000356 1573. 2234.
2001(51) 0.000384 1573. 2031.
1861(49) 0.000416 1572. 1937.
1851(49) 0.000416 1572. 1941.
1967(50) 0.000400 1571. 2007.
2041(51) 0.000384 1571. 2090.
2108(52) 0.000370 1570. 2137.
2087(52) 0.000370 1570. 2114.
1988(51) 0.000384 1569. 2030.
1881(49) 0.000416 1569. 1927.
1846(49) 0.000416 1569. 1850.
1829(49) 0.000416 1568. 1826.
1914(47) 0.000453 1568. 1863.
2080(49) 0.000416 1567. 1951.
2185(50) 0.000400 1567. 2064.
2272(51) 0.000384 1566. 2156.
2251(51) 0.000384 1566. 2181.
2221(50) 0.000400 1565. 2120.
2138(50) 0.000400 1565. 2004.
1955(47) 0.000453 1564. 1883.
1834(46) 0.000473 1564. 1795.
1752(45) 0.000494 1564. 1753.
1768(45) 0.000494 1563. 1757.
1782(45) 0.000494 1563. 1790.
1783(45) 0.000494 1562. 1832.
1849(46) 0.000473 1562. 1857.
1832(46) 0.000473 1561. 1846.
1780(45) 0.000494 1561. 1802.
1653(43) 0.000541 1560. 1747.
1692(44) 0.000517 1560. 1702.
1668(44) 0.000517 1560. 1679.
1613(43) 0.000541 1559. 1682.
1631(43) 0.000541 1559. 1706.
1713(44) 0.000517 1558. 1739.
1786(45) 0.000494 1558. 1765.
1823(46) 0.000473 1557. 1768.
1773(45) 0.000494 1557. 1744.
1732(44) 0.000517 1556. 1703.
1677(44) 0.000517 1556. 1660.
1634(43) 0.000541 1556. 1625.
1595(43) 0.000541 1555. 1601.
1562(42) 0.000567 1555. 1587.
1536(42) 0.000567 1554. 1580.
1536(42) 0.000567 1554. 1577.
1519(42) 0.000567 1553. 1575.
1576(42) 0.000567 1553. 1575.
1553(42) 0.000567 1552. 1576.
1562(42) 0.000567 1552. 1579.
1625(43) 0.000541 1552. 1587.
1620(43) 0.000541 1551. 1599.
1712(44) 0.000517 1551. 1617.
1632(43) 0.000541 1550. 1640.
1674(44) 0.000517 1550. 1662.
1633(43) 0.000541 1549. 1676.
1628(43) 0.000541 1549. 1678.
1616(43) 0.000541 1548. 1670.
1646(43) 0.000541 1548. 1665.
1685(44) 0.000517 1548. 1676.
1723(44) 0.000517 1547. 1716.
1811(45) 0.000494 1547. 1788.
1929(47) 0.000453 1546. 1887.
2065(49) 0.000416 1546. 1989.
2102(49) 0.000416 1545. 2058.
1986(48) 0.000434 1545. 2060.
1875(46) 0.000473 1544. 1992.
1848(46) 0.000473 1544. 1887.
1768(45) 0.000494 1544. 1781.
1689(44) 0.000517 1543. 1699.
1690(44) 0.000517 1543. 1647.
1662(44) 0.000517 1542. 1620.
1624(43) 0.000541 1542. 1609.
1578(42) 0.000567 1541. 1606.
1614(43) 0.000541 1541. 1608.
1580(42) 0.000567 1541. 1614.
1641(43) 0.000541 1540. 1630.
1666(44) 0.000517 1540. 1665.
1741(45) 0.000494 1539. 1731.
1814(46) 0.000473 1539. 1834.
1968(47) 0.000453 1538. 1967.
2097(49) 0.000416 1538. 2106.
2124(49) 0.000416 1538. 2206.
2125(49) 0.000416 1537. 2223.
2147(50) 0.000400 1537. 2144.
1957(47) 0.000453 1536. 2007.
1896(47) 0.000453 1536. 1864.
1784(45) 0.000494 1535. 1747.
1671(44) 0.000517 1535. 1667.
1578(42) 0.000567 1535. 1621.
1577(42) 0.000567 1534. 1597.
1582(42) 0.000567 1534. 1587.
1561(42) 0.000567 1533. 1585.
1564(42) 0.000567 1533. 1591.
1657(43) 0.000541 1533. 1608.
1659(43) 0.000541 1532. 1643.
1746(45) 0.000494 1532. 1705.
1817(46) 0.000473 1531. 1797.
1942(47) 0.000453 1531. 1916.
2035(48) 0.000434 1530. 2037.
2188(50) 0.000400 1530. 2124.
2212(50) 0.000400 1530. 2139.
2067(49) 0.000416 1529. 2073.
1963(47) 0.000453 1529. 1959.
1830(46) 0.000473 1528. 1844.
1790(45) 0.000494 1528. 1759.
1783(45) 0.000494 1528. 1714.
1751(45) 0.000494 1527. 1704.
1712(44) 0.000517 1527. 1714.
1767(45) 0.000494 1526. 1724.
1802(45) 0.000494 1526. 1719.
1740(45) 0.000494 1525. 1694.
1740(45) 0.000494 1525. 1658.
1664(44) 0.000517 1525. 1621.
1572(40) 0.000625 1524. 1591.
1640(41) 0.000595 1524. 1571.
1622(41) 0.000595 1523. 1559.
1585(40) 0.000625 1523. 1552.
1549(40) 0.000625 1523. 1550.
1588(40) 0.000625 1522. 1549.
1561(40) 0.000625 1522. 1550.
1625(41) 0.000595 1521. 1554.
1624(41) 0.000595 1521. 1561.
1604(40) 0.000625 1521. 1573.
1701(42) 0.000567 1520. 1591.
1617(41) 0.000595 1520. 1612.
1603(40) 0.000625 1519. 1631.
1648(41) 0.000595 1519. 1644.
1606(41) 0.000595 1519. 1647.
1641(41) 0.000595 1518. 1644.
1690(42) 0.000567 1518. 1648.
1682(41) 0.000595 1517. 1669.
1652(41) 0.000595 1517. 1715.
1777(43) 0.000541 1517. 1785.
1860(44) 0.000517 1516. 1868.
1997(45) 0.000494 1516. 1938.
2008(45) 0.000494 1516. 1970.
1930(44) 0.000517 1515. 1950.
1971(45) 0.000494 1515. 1898.
1879(44) 0.000517 1514. 1850.
1864(44) 0.000517 1514. 1838.
1864(44) 0.000517 1514. 1876.
1995(45) 0.000494 1513. 1959.
2049(46) 0.000473 1513. 2059.
2053(46) 0.000473 1512. 2135.
2103(46) 0.000473 1512. 2144.
2040(46) 0.000473 1512. 2074.
1980(45) 0.000494 1511. 1956.
1753(42) 0.000567 1511. 1831.
1668(41) 0.000595 1510. 1728.
1654(41) 0.000595 1510. 1656.
1569(40) 0.000625 1510. 1615.
1573(40) 0.000625 1509. 1594.
1503(39) 0.000657 1509. 1585.
1555(40) 0.000625 1509. 1580.
1608(41) 0.000595 1508. 1579.
1556(40) 0.000625 1508. 1585.
1521(39) 0.000657 1507. 1601.
1546(40) 0.000625 1507. 1631.
1632(41) 0.000595 1507. 1674.
1667(41) 0.000595 1506. 1721.
1688(42) 0.000567 1506. 1759.
1726(42) 0.000567 1506. 1772.
1701(42) 0.000567 1505. 1754.
1641(41) 0.000595 1505. 1714.
1646(41) 0.000595 1504. 1669.
1609(41) 0.000595 1504. 1634.
1552(40) 0.000625 1504. 1615.
1542(40) 0.000625 1503. 1612.
1611(41) 0.000595 1503. 1616.
1618(41) 0.000595 1503. 1621.
1580(40) 0.000625 1502. 1617.
1588(40) 0.000625 1502. 1604.
1566(40) 0.000625 1502. 1587.
1573(40) 0.000625 1501. 1572.
1542(40) 0.000625 1501. 1562.
1576(40) 0.000625 1500. 1559.
1534(40) 0.000625 1500. 1561.
1586(40) 0.000625 1500. 1565.
1581(40) 0.000625 1499. 1565.
1537(40) 0.000625 1499. 1561.
1599(40) 0.000625 1499. 1552.
1588(40) 0.000625 1498. 1543.
1538(40) 0.000625 1498. 1534.
1568(40) 0.000625 1498. 1528.
1498(39) 0.000657 1497. 1524.
1525(39) 0.000657 1497. 1522.
1531(40) 0.000625 1497. 1521.
1571(40) 0.000625 1496. 1522.
1507(39) 0.000657 1496. 1523.
1511(39) 0.000657 1495. 1526.
1534(40) 0.000625 1495. 1531.
1563(40) 0.000625 1495. 1537.
1614(41) 0.000595 1494. 1546.
1615(41) 0.000595 1494. 1555.
1574(40) 0.000625 1494. 1567.
1573(40) 0.000625 1493. 1580.
1586(40) 0.000625 1493. 1601.
1611(41) 0.000595 1493. 1636.
1697(42) 0.000567 1492. 1696.
1816(43) 0.000541 1492. 1791.
1962(45) 0.000494 1492. 1919.
2174(47) 0.000453 1491. 2066.
2256(48) 0.000434 1491. 2201.
2327(49) 0.000416 1491. 2281.
2326(49) 0.000416 1490. 2282.
2249(48) 0.000434 1490. 2222.
2209(48) 0.000434 1490. 2159.
2141(47) 0.000453 1489. 2145.
2188(47) 0.000453 1489. 2207.
2310(49) 0.000416 1489. 2337.
2507(51) 0.000384 1488. 2492.
2545(51) 0.000384 1488. 2602.
2505(51) 0.000384 1488. 2603.
2354(48) 0.000434 1487. 2485.
2256(47) 0.000453 1487. 2300.
2112(45) 0.000494 1487. 2114.
1985(44) 0.000517 1486. 1972.
1959(43) 0.000541 1486. 1888.
1909(43) 0.000541 1486. 1854.
1913(43) 0.000541 1485. 1844.
1877(42) 0.000567 1485. 1829.
1809(42) 0.000567 1485. 1793.
1746(41) 0.000595 1484. 1739.
1679(40) 0.000625 1484. 1681.
1663(40) 0.000625 1484. 1632.
1596(39) 0.000657 1483. 1595.
1592(39) 0.000657 1483. 1572.
1640(40) 0.000625 1483. 1560.
1551(38) 0.000693 1482. 1554.
1587(39) 0.000657 1482. 1553.
1580(39) 0.000657 1482. 1555.
1577(39) 0.000657 1481. 1565.
1574(39) 0.000657 1481. 1584.
1636(39) 0.000657 1481. 1613.
1618(39) 0.000657 1480. 1647.
1664(40) 0.000625 1480. 1679.
1655(40) 0.000625 1480. 1698.
1636(39) 0.000657 1480. 1695.
1658(40) 0.000625 1479. 1672.
1576(39) 0.000657 1479. 1639.
1691(40) 0.000625 1479. 1609.
1639(40) 0.000625 1478. 1589.
1592(39) 0.000657 1478. 1579.
1694(40) 0.000625 1478. 1576.
1725(41) 0.000595 1477. 1576.
1637(40) 0.000625 1477. 1572.
1707(40) 0.000625 1477. 1563.
1716(40) 0.000625 1476. 1550.
1646(40) 0.000625 1476. 1537.
1570(39) 0.000657 1476. 1527.
1565(39) 0.000657 1476. 1520.
1606(39) 0.000657 1475. 1518.
1575(39) 0.000657 1475. 1520.
1542(38) 0.000693 1475. 1528.
1561(39) 0.000657 1474. 1545.
1585(39) 0.000657 1474. 1575.
1612(39) 0.000657 1474. 1619.
1684(40) 0.000625 1473. 1679.
1737(41) 0.000595 1473. 1748.
1833(42) 0.000567 1473. 1815.
1761(41) 0.000595 1473. 1861.
1840(42) 0.000567 1472. 1875.
1808(42) 0.000567 1472. 1866.
1863(42) 0.000567 1472. 1859.
1873(42) 0.000567 1471. 1880.
1985(44) 0.000517 1471. 1941.
2028(44) 0.000517 1471. 2035.
2173(46) 0.000473 1470. 2135.
2244(46) 0.000473 1470. 2200.
2222(46) 0.000473 1470. 2190.
2187(46) 0.000473 1470. 2105.
2038(44) 0.000517 1469. 1979.
1865(42) 0.000567 1469. 1851.
1858(42) 0.000567 1469. 1745.
1690(40) 0.000625 1468. 1670.
1639(40) 0.000625 1468. 1624.
1584(39) 0.000657 1468. 1597.
1587(39) 0.000657 1468. 1578.
1600(39) 0.000657 1467. 1562.
1605(39) 0.000657 1467. 1546.
1594(39) 0.000657 1467. 1532.
1555(38) 0.000693 1466. 1521.
1478(37) 0.000730 1466. 1514.
1485(38) 0.000693 1466. 1510.
1511(38) 0.000693 1466. 1509.
1518(38) 0.000693 1465. 1512.
1470(37) 0.000730 1465. 1519.
1641(40) 0.000625 1465. 1532.
1584(39) 0.000657 1464. 1553.
1594(39) 0.000657 1464. 1582.
1635(39) 0.000657 1464. 1617.
1710(40) 0.000625 1464. 1650.
1759(41) 0.000595 1463. 1673.
1732(41) 0.000595 1463. 1677.
1667(40) 0.000625 1463. 1664.
1741(41) 0.000595 1463. 1642.
1660(40) 0.000625 1462. 1624.
1622(39) 0.000657 1462. 1616.
1561(39) 0.000657 1462. 1619.
1606(39) 0.000657 1461. 1629.
1671(40) 0.000625 1461. 1642.
1636(40) 0.000625 1461. 1650.
1646(40) 0.000625 1461. 1658.
1646(40) 0.000625 1460. 1675.
1716(40) 0.000625 1460. 1709.
1803(42) 0.000567 1460. 1765.
1886(43) 0.000541 1460. 1834.
1913(43) 0.000541 1459. 1902.
1946(43) 0.000541 1459. 1941.
1924(43) 0.000541 1459. 1932.
1883(42) 0.000567 1458. 1876.
1844(42) 0.000567 1458. 1794.
1751(41) 0.000595 1458. 1709.
1668(39) 0.000657 1458. 1637.
1630(38) 0.000693 1457. 1583.
1556(37) 0.000730 1457. 1549.
1493(36) 0.000772 1457. 1532.
1478(36) 0.000772 1457. 1528.
1518(37) 0.000730 1456. 1536.
1504(37) 0.000730 1456. 1557.
1617(38) 0.000693 1456. 1588.
1582(37) 0.000730 1456. 1629.
1650(38) 0.000693 1455. 1674.
1722(39) 0.000657 1455. 1713.
1692(39) 0.000657 1455. 1735.
1772(40) 0.000625 1455. 1734.
1736(39) 0.000657 1454. 1714.
1657(38) 0.000693 1454. 1691.
1674(39) 0.000657 1454. 1676.
1686(39) 0.000657 1454. 1674.
1696(39) 0.000657 1453. 1686.
1706(39) 0.000657 1453. 1705.
1705(39) 0.000657 1453. 1726.
1741(39) 0.000657 1453. 1747.
1773(40) 0.000625 1452. 1779.
1810(40) 0.000625 1452. 1836.
1945(42) 0.000567 1452. 1925.
2149(44) 0.000517 1452. 2040.
2122(44) 0.000517 1451. 2162.
2282(45) 0.000494 1451. 2253.
2302(45) 0.000494 1451. 2276.
2225(45) 0.000494 1451. 2217.
2118(44) 0.000517 1450. 2103.
2074(43) 0.000541 1450. 1974.
1892(41) 0.000595 1450. 1860.
1778(40) 0.000625 1450. 1775.
1698(39) 0.000657 1449. 1719.
1601(38) 0.000693 1449. 1683.
1684(39) 0.000657 1449. 1653.
1672(39) 0.000657 1449. 1622.
1582(37) 0.000730 1448. 1589.
1567(37) 0.000730 1448. 1558.
1529(37) 0.000730 1448. 1532.
1548(37) 0.000730 1448. 1511.
1463(36) 0.000772 1447. 1496.
1431(36) 0.000772 1447. 1487.
1516(37) 0.000730 1447. 1481.
1486(36) 0.000772 1447. 1477.
1493(36) 0.000772 1446. 1475.
1506(37) 0.000730 1446. 1475.
1500(36) 0.000772 1446. 1475.
1458(36) 0.000772 1446. 1476.
1490(36) 0.000772 1445. 1479.
1476(36) 0.000772 1445. 1484.
1493(36) 0.000772 1445. 1491.
1511(37) 0.000730 1445. 1504.
1514(37) 0.000730 1444. 1522.
1572(37) 0.000730 1444. 1547.
1582(37) 0.000730 1444. 1575.
1647(38) 0.000693 1444. 1603.
1705(39) 0.000657 1444. 1623.
1685(39) 0.000657 1443. 1628.
1629(38) 0.000693 1443. 1614.
1645(38) 0.000693 1443. 1589.
1575(37) 0.000730 1443. 1559.
1557(37) 0.000730 1442. 1531.
1544(37) 0.000730 1442. 1509.
1495(36) 0.000772 1442. 1494.
1449(36) 0.000772 1442. 1485.
1464(36) 0.000772 1441. 1482.
1453(36) 0.000772 1441. 1484.
1488(36) 0.000772 1441. 1489.
1532(37) 0.000730 1441. 1499.
1567(37) 0.000730 1440. 1512.
1637(38) 0.000693 1440. 1528.
1599(38) 0.000693 1440. 1546.
1537(37) 0.000730 1440. 1566.
1643(38) 0.000693 1440. 1591.
1599(38) 0.000693 1439. 1625.
1669(39) 0.000657 1439. 1675.
1732(39) 0.000657 1439. 1742.
1810(40) 0.000625 1439. 1820.
1814(40) 0.000625 1438. 1897.
1920(41) 0.000595 1438. 1952.
1942(42) 0.000567 1438. 1964.
1870(41) 0.000595 1438. 1930.
1841(41) 0.000595 1438. 1864.
1805(40) 0.000625 1437. 1791.
1772(40) 0.000625 1437. 1726.
1762(40) 0.000625 1437. 1677.
1696(39) 0.000657 1437. 1644.
1633(38) 0.000693 1436. 1622.
1683(39) 0.000657 1436. 1604.
1618(38) 0.000693 1436. 1589.
1597(38) 0.000693 1436. 1576.
1569(37) 0.000730 1435. 1569.
1622(38) 0.000693 1435. 1568.
1626(38) 0.000693 1435. 1571.
1655(38) 0.000693 1435. 1576.
1563(37) 0.000730 1435. 1577.
1594(38) 0.000693 1434. 1575.
1596(38) 0.000693 1434. 1569.
1643(38) 0.000693 1434. 1566.
1575(52) 0.000370 1434. 1568.
1568(36) 0.000772 1433. 1575.
1601(36) 0.000772 1433. 1585.
1648(37) 0.000730 1433. 1596.
1573(36) 0.000772 1433. 1606.
1597(36) 0.000772 1433. 1615.
1626(37) 0.000730 1432. 1628.
1674(37) 0.000730 1432. 1651.
1729(38) 0.000693 1432. 1682.
1744(38) 0.000693 1432. 1716.
1766(38) 0.000693 1431. 1743.
1786(39) 0.000657 1431. 1751.
1731(38) 0.000693 1431. 1732.
1751(38) 0.000693 1431. 1692.
1708(38) 0.000693 1431. 1643.
1622(37) 0.000730 1430. 1594.
1579(36) 0.000772 1430. 1552.
1558(36) 0.000772 1430. 1520.
1514(35) 0.000816 1429.7 1497.4
1467(35) 0.000816 1429.5 1482.4
1486(35) 0.000816 1429.3 1472.6
1420(34) 0.000865 1429.1 1466.2
1412(34) 0.000865 1428.9 1462.2
1440(35) 0.000816 1428.7 1460.1
1439(35) 0.000816 1428.4 1459.7
1422(34) 0.000865 1428.2 1461.6
1422(34) 0.000865 1428.0 1466.3
1488(35) 0.000816 1427.8 1474.9
1450(35) 0.000816 1427.6 1488.1
1482(35) 0.000816 1427.4 1506.3
1488(35) 0.000816 1427.1 1529.1
1473(35) 0.000816 1426.9 1554.8
1522(36) 0.000772 1427. 1580.
1591(36) 0.000772 1426. 1600.
1593(36) 0.000772 1426. 1612.
1638(37) 0.000730 1426. 1619.
1619(37) 0.000730 1426. 1626.
1584(36) 0.000772 1426. 1637.
1650(37) 0.000730 1425. 1655.
1702(38) 0.000693 1425. 1676.
1678(37) 0.000730 1425. 1693.
1747(38) 0.000693 1425. 1699.
1763(38) 0.000693 1425. 1688.
1659(37) 0.000730 1424. 1665.
1634(37) 0.000730 1424. 1639.
1608(37) 0.000730 1424. 1616.
1611(37) 0.000730 1424. 1600.
1571(36) 0.000772 1423. 1590.
1590(36) 0.000772 1423. 1586.
1561(36) 0.000772 1423. 1582.
1550(36) 0.000772 1423. 1581.
1572(36) 0.000772 1423. 1583.
1606(37) 0.000730 1422. 1590.
1613(37) 0.000730 1422. 1603.
1596(36) 0.000772 1422. 1619.
1578(36) 0.000772 1422. 1633.
1595(36) 0.000772 1422. 1640.
1637(37) 0.000730 1421. 1638.
1688(37) 0.000730 1421. 1632.
1653(37) 0.000730 1421. 1628.
1610(37) 0.000730 1421. 1628.
1614(37) 0.000730 1420. 1633.
1654(37) 0.000730 1420. 1638.
1648(37) 0.000730 1420. 1637.
1634(37) 0.000730 1420. 1626.
1635(37) 0.000730 1420. 1605.
1552(36) 0.000772 1419. 1580.
1526(36) 0.000772 1419. 1555.
1474(35) 0.000816 1419.0 1534.6
1463(35) 0.000816 1418.8 1520.2
1499(35) 0.000816 1418.5 1511.8
1482(35) 0.000816 1418.3 1508.9
1513(35) 0.000816 1418.1 1511.0
1498(35) 0.000816 1417.9 1518.4
1535(36) 0.000772 1418. 1531.
1554(36) 0.000772 1417. 1547.
1578(36) 0.000772 1417. 1563.
1607(37) 0.000730 1417. 1575.
1572(36) 0.000772 1417. 1578.
1577(36) 0.000772 1417. 1569.
1572(36) 0.000772 1416. 1551.
1487(35) 0.000816 1416.2 1528.2
1531(36) 0.000772 1416. 1505.
1487(35) 0.000816 1415.7 1484.7
1473(35) 0.000816 1415.5 1468.6
1446(35) 0.000816 1415.3 1457.0
1460(35) 0.000816 1415.1 1449.5
1401(34) 0.000865 1414.9 1445.2
1378(34) 0.000865 1414.7 1443.4
1383(34) 0.000865 1414.5 1443.6
1422(34) 0.000865 1414.2 1445.9
1476(35) 0.000816 1414.0 1450.9
1432(35) 0.000816 1413.8 1459.7
1434(35) 0.000816 1413.6 1473.5
1518(36) 0.000772 1413. 1494.
1574(36) 0.000772 1413. 1521.
1618(37) 0.000730 1413. 1556.
1606(37) 0.000730 1413. 1594.
1660(37) 0.000730 1413. 1634.
1674(37) 0.000730 1412. 1668.
1706(38) 0.000693 1412. 1690.
1730(38) 0.000693 1412. 1699.
1673(37) 0.000730 1412. 1700.
1689(38) 0.000693 1411. 1698.
1669(37) 0.000730 1411. 1701.
1644(37) 0.000730 1411. 1707.
1660(37) 0.000730 1411. 1713.
1710(38) 0.000693 1411. 1711.
1632(37) 0.000730 1410. 1695.
1589(36) 0.000772 1410. 1666.
1611(37) 0.000730 1410. 1630.
1591(37) 0.000730 1410. 1593.
1559(36) 0.000772 1409. 1560.
1507(36) 0.000772 1409. 1533.
1518(36) 0.000772 1409. 1513.
1517(36) 0.000772 1409. 1496.
1523(36) 0.000772 1409. 1483.
1448(35) 0.000816 1408.4 1473.2
1448(35) 0.000816 1408.2 1465.4
1442(35) 0.000816 1407.9 1459.8
1437(35) 0.000816 1407.7 1456.2
1420(34) 0.000865 1407.5 1454.2
1412(34) 0.000865 1407.3 1453.5
1460(35) 0.000816 1407.1 1454.0
1447(35) 0.000816 1406.8 1455.8
1494(35) 0.000816 1406.6 1459.1
1474(35) 0.000816 1406.4 1463.9
1449(35) 0.000816 1406.2 1469.8
1490(35) 0.000816 1405.9 1476.2
1456(35) 0.000816 1405.7 1482.6
1471(35) 0.000816 1405.5 1488.7
1488(35) 0.000816 1405.3 1495.1
1523(36) 0.000772 1405. 1503.
1486(35) 0.000816 1404.8 1512.6
1526(36) 0.000772 1405. 1523.
1534(36) 0.000772 1404. 1531.
1547(36) 0.000772 1404. 1535.
1518(36) 0.000772 1404. 1532.
1491(35) 0.000816 1403.7 1521.7
1508(36) 0.000772 1403. 1507.
1492(35) 0.000816 1403.3 1492.3
1464(35) 0.000816 1403.0 1478.3
1435(35) 0.000816 1402.8 1467.0
1438(35) 0.000816 1402.6 1459.1
1448(35) 0.000816 1402.4 1454.9
1400(34) 0.000865 1402.1 1454.3
1394(34) 0.000865 1401.9 1457.6
1413(34) 0.000865 1401.7 1465.7
1473(35) 0.000816 1401.5 1480.3
1440(35) 0.000816 1401.2 1504.5
1479(35) 0.000816 1401.0 1542.5
1555(36) 0.000772 1401. 1599.
1614(37) 0.000730 1401. 1678.
1752(38) 0.000693 1400. 1779.
1854(39) 0.000657 1400. 1901.
2001(41) 0.000595 1400. 2033.
2164(43) 0.000541 1400. 2159.
2154(42) 0.000567 1399. 2255.
2225(43) 0.000541 1399. 2298.
2200(43) 0.000541 1399. 2276.
2151(42) 0.000567 1399. 2203.
2093(42) 0.000567 1398. 2103.
1974(41) 0.000595 1398. 1998.
1885(40) 0.000625 1398. 1903.
1757(38) 0.000693 1398. 1826.
1722(38) 0.000693 1398. 1766.
1688(38) 0.000693 1397. 1722.
1615(37) 0.000730 1397. 1690.
1637(37) 0.000730 1397. 1670.
1633(37) 0.000730 1397. 1659.
1652(37) 0.000730 1396. 1655.
1656(37) 0.000730 1396. 1653.
1658(37) 0.000730 1396. 1646.
1589(36) 0.000772 1396. 1631.
1622(37) 0.000730 1395. 1607.
1555(36) 0.000772 1395. 1577.
1537(36) 0.000772 1395. 1547.
1504(35) 0.000816 1394.8 1520.6
1497(35) 0.000816 1394.5 1499.8
1461(35) 0.000816 1394.3 1486.6
1441(35) 0.000816 1394.1 1481.7
1502(35) 0.000816 1393.8 1484.9
1478(35) 0.000816 1393.6 1495.2
1557(36) 0.000772 1393. 1510.
1555(36) 0.000772 1393. 1528.
1557(36) 0.000772 1393. 1545.
1635(37) 0.000730 1393. 1556.
1576(36) 0.000772 1392. 1559.
1587(36) 0.000772 1392. 1552.
1565(36) 0.000772 1392. 1539.
1532(36) 0.000772 1392. 1523.
1532(36) 0.000772 1391. 1506.
1531(36) 0.000772 1391. 1491.
1479(35) 0.000816 1390.9 1477.9
1471(35) 0.000816 1390.7 1466.4
1470(35) 0.000816 1390.5 1456.0
1396(34) 0.000865 1390.2 1446.5
1450(35) 0.000816 1390.0 1438.1
1415(34) 0.000865 1389.7 1430.9
1388(34) 0.000865 1389.5 1425.1
1408(28) 0.001276 1389.2 1420.8
1378(34) 0.000865 1389.0 1417.7
1384(34) 0.000865 1388.8 1416.1
1366(34) 0.000865 1388.5 1415.8
1355(34) 0.000865 1388.3 1416.8
1427(35) 0.000816 1388.0 1419.4
1405(34) 0.000865 1387.8 1423.9
1473(35) 0.000816 1387.5 1431.1
1416(34) 0.000865 1387.3 1441.4
1362(34) 0.000865 1387.0 1455.6
1466(35) 0.000816 1386.8 1473.7
1490(35) 0.000816 1386.5 1495.4
1499(35) 0.000816 1386.3 1519.5
1598(37) 0.000730 1386. 1544.
1556(36) 0.000772 1386. 1565.
1562(36) 0.000772 1386. 1580.
1507(36) 0.000772 1385. 1587.
1561(36) 0.000772 1385. 1587.
1563(36) 0.000772 1385. 1584.
1582(36) 0.000772 1385. 1581.
1538(36) 0.000772 1384. 1579.
1599(37) 0.000730 1384. 1579.
1541(36) 0.000772 1384. 1580.
1532(36) 0.000772 1384. 1580.
1539(36) 0.000772 1383. 1580.
1571(36) 0.000772 1383. 1582.
1663(37) 0.000730 1383. 1586.
1651(37) 0.000730 1382. 1591.
1586(36) 0.000772 1382. 1595.
1595(37) 0.000730 1382. 1595.
1565(36) 0.000772 1382. 1588.
1534(36) 0.000772 1381. 1575.
1620(37) 0.000730 1381. 1558.
1564(36) 0.000772 1381. 1539.
1553(36) 0.000772 1381. 1522.
1554(36) 0.000772 1380. 1507.
1524(36) 0.000772 1380. 1493.
1492(35) 0.000816 1379.9 1480.8
1512(36) 0.000772 1380. 1469.
1453(35) 0.000816 1379.4 1458.8
1461(35) 0.000816 1379.1 1449.9
1450(35) 0.000816 1378.9 1442.7
1383(34) 0.000865 1378.6 1437.1
1417(34) 0.000865 1378.3 1433.1
1436(35) 0.000816 1378.1 1430.3
1420(35) 0.000816 1377.8 1428.5
1405(34) 0.000865 1377.5 1427.7
1438(35) 0.000816 1377.3 1427.8
1447(35) 0.000816 1377.0 1428.5
1451(35) 0.000816 1376.7 1429.3
1408(34) 0.000865 1376.5 1429.6
1463(35) 0.000816 1376.2 1429.0
1412(34) 0.000865 1375.9 1427.5
1410(34) 0.000865 1375.7 1425.5
1415(34) 0.000865 1375.4 1424.0
1438(35) 0.000816 1375.1 1423.7
1426(35) 0.000816 1374.9 1425.5
1436(35) 0.000816 1374.6 1430.2
1437(35) 0.000816 1374.3 1438.2
1467(35) 0.000816 1374.1 1450.0
1465(35) 0.000816 1373.8 1465.6
1429(35) 0.000816 1373.5 1484.7
1484(35) 0.000816 1373.2 1506.6
1516(36) 0.000772 1373. 1530.
1503(35) 0.000816 1372.7 1553.5
1533(36) 0.000772 1372. 1576.
1520(36) 0.000772 1372. 1598.
1566(36) 0.000772 1372. 1621.
1596(37) 0.000730 1372. 1647.
1639(37) 0.000730 1371. 1677.
1625(37) 0.000730 1371. 1711.
1629(37) 0.000730 1371. 1746.
1651(37) 0.000730 1370. 1779.
1714(38) 0.000693 1370. 1811.
1797(39) 0.000657 1370. 1843.
1852(39) 0.000657 1370. 1876.
1850(39) 0.000657 1369. 1909.
1872(40) 0.000625 1369. 1936.
1907(40) 0.000625 1369. 1949.
1925(40) 0.000625 1369. 1937.
1908(40) 0.000625 1368. 1900.
1852(39) 0.000657 1368. 1842.
1767(38) 0.000693 1368. 1773.
1687(38) 0.000693 1367. 1701.
1615(37) 0.000730 1367. 1635.
1546(36) 0.000772 1367. 1578.
1508(36) 0.000772 1367. 1531.
1469(35) 0.000816 1366.3 1494.2
1448(35) 0.000816 1366.0 1466.9
1450(35) 0.000816 1365.7 1447.5
1440(35) 0.000816 1365.4 1434.1
1445(35) 0.000816 1365.1 1425.2
1450(35) 0.000816 1364.8 1419.7
1419(35) 0.000816 1364.5 1416.8
1439(35) 0.000816 1364.3 1416.0
1385(34) 0.000865 1364.0 1417.3
1380(34) 0.000865 1363.7 1420.4
1415(34) 0.000865 1363.4 1425.8
1429(35) 0.000816 1363.1 1433.6
1376(34) 0.000865 1362.8 1444.2
1467(49) 0.000416 1363. 1458.
1486(34) 0.000865 1362.2 1473.9
1478(34) 0.000865 1361.9 1493.0
1522(34) 0.000865 1361.6 1513.9
1551(35) 0.000816 1361.3 1535.1
1532(35) 0.000816 1361.1 1554.0
1517(34) 0.000865 1360.8 1567.5
1556(35) 0.000816 1360.5 1572.8
1561(35) 0.000816 1360.2 1569.5
1516(34) 0.000865 1359.9 1560.4
1546(35) 0.000816 1359.6 1549.6
1516(34) 0.000865 1359.3 1542.2
1466(34) 0.000865 1359.0 1542.6
1514(34) 0.000865 1358.7 1554.4
1517(34) 0.000865 1358.4 1579.7
1568(35) 0.000816 1358.1 1619.3
1640(36) 0.000772 1358. 1672.
1753(37) 0.000730 1357. 1733.
1889(38) 0.000693 1357. 1797.
1812(38) 0.000693 1357. 1855.
1917(39) 0.000657 1357. 1897.
1960(39) 0.000657 1356. 1913.
1959(39) 0.000657 1356. 1902.
1877(38) 0.000693 1356. 1867.
1911(39) 0.000657 1355. 1819.
1839(38) 0.000693 1355. 1768.
1796(37) 0.000730 1355. 1719.
1604(35) 0.000816 1354.5 1679.2
1638(36) 0.000772 1354. 1649.
1568(35) 0.000816 1353.8 1630.3
1634(36) 0.000772 1354. 1623.
1666(36) 0.000772 1353. 1625.
1689(36) 0.000772 1353. 1636.
1638(36) 0.000772 1353. 1653.
1684(36) 0.000772 1352. 1673.
1656(36) 0.000772 1352. 1691.
1738(37) 0.000730 1352. 1708.
1804(38) 0.000693 1351. 1723.
1745(37) 0.000730 1351. 1738.
1776(37) 0.000730 1351. 1751.
1735(37) 0.000730 1350. 1760.
1693(36) 0.000772 1350. 1762.
1695(36) 0.000772 1350. 1751.
1667(36) 0.000772 1349. 1728.
1680(36) 0.000772 1349. 1694.
1694(36) 0.000772 1349. 1655.
1631(36) 0.000772 1349. 1615.
1526(35) 0.000816 1348.2 1578.5
1518(34) 0.000865 1347.9 1546.5
1524(35) 0.000816 1347.6 1520.2
1512(34) 0.000865 1347.3 1499.7
1464(34) 0.000865 1347.0 1484.7
1507(34) 0.000865 1346.7 1474.6
1413(33) 0.000918 1346.3 1468.4
1432(33) 0.000918 1346.0 1464.7
1407(33) 0.000918 1345.7 1462.0
1488(34) 0.000865 1345.4 1459.1
1476(34) 0.000865 1345.1 1455.2
1441(34) 0.000865 1344.7 1450.6
1447(34) 0.000865 1344.4 1445.8
1434(33) 0.000918 1344.1 1440.9
1430(33) 0.000918 1343.8 1436.0
1457(34) 0.000865 1343.4 1430.9
1401(33) 0.000918 1343.1 1425.2
1441(34) 0.000865 1342.8 1419.0
1410(33) 0.000918 1342.5 1412.4
1415(33) 0.000918 1342.2 1406.1
1447(34) 0.000865 1341.8 1400.5
1421(33) 0.000918 1341.5 1396.0
1417(33) 0.000918 1341.2 1393.1
1409(33) 0.000918 1340.9 1391.9
1384(33) 0.000918 1340.5 1392.7
1430(33) 0.000918 1340.2 1395.9
1391(33) 0.000918 1339.9 1401.7
1438(34) 0.000865 1339.5 1410.8
1433(33) 0.000918 1339.2 1423.5
1458(34) 0.000865 1338.9 1440.3
1447(34) 0.000865 1338.6 1461.6
1492(34) 0.000865 1338.2 1487.9
1572(35) 0.000816 1337.9 1519.0
1580(35) 0.000816 1337.6 1554.6
1663(36) 0.000772 1337. 1594.
1659(36) 0.000772 1337. 1635.
1734(37) 0.000730 1337. 1675.
1720(37) 0.000730 1336. 1712.
1773(37) 0.000730 1336. 1747.
1867(38) 0.000693 1336. 1779.
1894(38) 0.000693 1335. 1810.
1842(38) 0.000693 1335. 1838.
1850(38) 0.000693 1335. 1859.
1810(38) 0.000693 1334. 1871.
1818(38) 0.000693 1334. 1868.
1785(37) 0.000730 1334. 1850.
1816(38) 0.000693 1333. 1822.
1769(37) 0.000730 1333. 1788.
1727(37) 0.000730 1333. 1752.
1704(36) 0.000772 1332. 1715.
1717(37) 0.000730 1332. 1678.
1657(36) 0.000772 1332. 1640.
1593(35) 0.000816 1331.2 1602.4
1565(35) 0.000816 1330.9 1566.1
1527(34) 0.000865 1330.5 1533.3
1505(34) 0.000865 1330.2 1505.8
1530(34) 0.000865 1329.8 1484.5
1446(33) 0.000918 1329.5 1469.9
1450(34) 0.000865 1329.1 1462.2
1505(34) 0.000865 1328.8 1460.5
1465(34) 0.000865 1328.5 1463.8
1496(34) 0.000865 1328.1 1470.3
1488(34) 0.000865 1327.8 1478.0
1511(34) 0.000865 1327.4 1484.3
1491(34) 0.000865 1327.1 1486.7
1459(34) 0.000865 1326.7 1483.8
1514(34) 0.000865 1326.4 1475.6
1497(34) 0.000865 1326.1 1463.2
1442(33) 0.000918 1325.7 1448.6
1485(34) 0.000865 1325.4 1433.6
1445(33) 0.000918 1325.0 1419.5
1394(33) 0.000918 1324.7 1407.5
1432(33) 0.000918 1324.3 1398.3
1432(33) 0.000918 1324.0 1392.3
1385(33) 0.000918 1323.6 1389.9
1391(33) 0.000918 1323.3 1391.3
1396(33) 0.000918 1322.9 1396.7
1415(33) 0.000918 1322.6 1406.4
1408(33) 0.000918 1322.2 1420.3
1374(33) 0.000918 1321.9 1438.4
1417(33) 0.000918 1321.5 1460.1
1510(34) 0.000865 1321.2 1484.6
1538(35) 0.000816 1320.8 1510.4
1575(35) 0.000816 1320.5 1535.7
1546(35) 0.000816 1320.1 1557.9
1652(36) 0.000772 1320. 1575.
1641(36) 0.000772 1319. 1586.
1604(35) 0.000816 1319.1 1591.6
1671(36) 0.000772 1319. 1594.
1600(35) 0.000816 1318.4 1597.2
1650(36) 0.000772 1318. 1602.
1583(35) 0.000816 1317.7 1609.3
1645(36) 0.000772 1317. 1620.
1677(36) 0.000772 1317. 1634.
1681(36) 0.000772 1317. 1650.
1702(36) 0.000772 1316. 1669.
1715(37) 0.000730 1316. 1688.
1661(36) 0.000772 1316. 1704.
1595(35) 0.000816 1315.2 1714.5
1677(36) 0.000772 1315. 1715.
1627(36) 0.000772 1314. 1706.
1667(36) 0.000772 1314. 1688.
1617(35) 0.000816 1313.7 1665.8
1564(35) 0.000816 1313.4 1645.3
1570(35) 0.000816 1313.0 1631.0
1640(36) 0.000772 1313. 1626.
1667(36) 0.000772 1312. 1633.
1612(35) 0.000816 1312.0 1651.4
1655(36) 0.000772 1312. 1680.
1766(37) 0.000730 1311. 1717.
1790(37) 0.000730 1311. 1757.
1755(37) 0.000730 1311. 1793.
1858(38) 0.000693 1310. 1819.
1826(38) 0.000693 1310. 1829.
1826(38) 0.000693 1309. 1821.
1904(39) 0.000657 1309. 1795.
1766(37) 0.000730 1309. 1759.
1716(37) 0.000730 1308. 1716.
1742(37) 0.000730 1308. 1672.
1637(36) 0.000772 1308. 1629.
1574(35) 0.000816 1307.3 1589.4
1532(34) 0.000865 1306.9 1554.2
1506(34) 0.000865 1306.5 1524.0
1515(34) 0.000865 1306.2 1498.9
1461(34) 0.000865 1305.8 1478.6
1443(33) 0.000918 1305.5 1462.4
1445(33) 0.000918 1305.1 1449.0
1453(34) 0.000865 1304.7 1437.5
1407(33) 0.000918 1304.4 1427.5
1444(33) 0.000918 1304.0 1418.9
1445(33) 0.000918 1303.6 1412.2
1378(33) 0.000918 1303.3 1408.1
1407(33) 0.000918 1302.9 1407.1
1416(33) 0.000918 1302.5 1409.4
1387(33) 0.000918 1302.2 1415.1
1421(33) 0.000918 1301.8 1424.1
1460(34) 0.000865 1301.4 1435.5
1436(33) 0.000918 1301.1 1448.6
1466(34) 0.000865 1300.7 1461.8
1491(34) 0.000865 1300.3 1473.5
1464(34) 0.000865 1300.0 1482.1
1484(34) 0.000865 1299.6 1486.4
1516(34) 0.000865 1299.2 1486.5
1509(34) 0.000865 1298.9 1483.8
1535(35) 0.000816 1298.5 1480.2
1507(34) 0.000865 1298.1 1477.9
1436(33) 0.000918 1297.8 1479.0
1470(34) 0.000865 1297.4 1484.7
1526(34) 0.000865 1297.0 1496.1
1510(34) 0.000865 1296.7 1514.0
1493(34) 0.000865 1296.3 1538.5
1561(35) 0.000816 1295.9 1569.2
1562(35) 0.000816 1295.6 1605.1
1683(36) 0.000772 1295. 1645.
1775(39) 0.000657 1295. 1685.
1732(38) 0.000693 1294. 1725.
1729(38) 0.000693 1294. 1764.
1803(39) 0.000657 1294. 1799.
1851(39) 0.000657 1293. 1830.
1910(40) 0.000625 1293. 1856.
1881(40) 0.000625 1293. 1872.
1950(40) 0.000625 1292. 1875.
1886(40) 0.000625 1292. 1863.
1886(40) 0.000625 1291. 1836.
1760(38) 0.000693 1291. 1798.
1813(39) 0.000657 1291. 1756.
1723(38) 0.000693 1290. 1713.
1664(37) 0.000730 1290. 1675.
1624(37) 0.000730 1290. 1644.
1580(36) 0.000772 1289. 1620.
1587(36) 0.000772 1289. 1604.
1603(37) 0.000730 1289. 1596.
1572(36) 0.000772 1288. 1593.
1530(36) 0.000772 1288. 1594.
1582(36) 0.000772 1287. 1594.
1544(36) 0.000772 1287. 1591.
1612(37) 0.000730 1287. 1583.
1542(36) 0.000772 1286. 1568.
1584(36) 0.000772 1286. 1549.
1542(36) 0.000772 1286. 1526.
1555(36) 0.000772 1285. 1503.
1491(35) 0.000816 1284.8 1478.9
1493(35) 0.000816 1284.5 1456.2
1498(35) 0.000816 1284.1 1435.1
1443(35) 0.000816 1283.7 1416.1
1437(35) 0.000816 1283.3 1399.8
1412(34) 0.000865 1283.0 1386.4
1376(34) 0.000865 1282.6 1376.3
1407(34) 0.000865 1282.2 1369.4
1426(35) 0.000816 1281.9 1365.8
1339(33) 0.000918 1281.5 1364.9
1380(34) 0.000865 1281.1 1366.7
1330(33) 0.000918 1280.7 1370.9
1310(33) 0.000918 1280.4 1376.9
1412(34) 0.000865 1280.0 1384.4
1386(34) 0.000865 1279.6 1392.6
1382(34) 0.000865 1279.3 1401.2
1418(34) 0.000865 1278.9 1409.5
1409(34) 0.000865 1278.5 1417.6
1382(34) 0.000865 1278.1 1425.4
1450(35) 0.000816 1277.8 1432.9
1411(34) 0.000865 1277.4 1439.9
1419(34) 0.000865 1277.0 1446.1
1415(34) 0.000865 1276.7 1451.0
1456(35) 0.000816 1276.3 1454.6
1447(35) 0.000816 1275.9 1457.5
1476(35) 0.000816 1275.5 1460.5
1489(35) 0.000816 1275.2 1464.5
1502(35) 0.000816 1274.8 1470.2
1455(35) 0.000816 1274.4 1477.8
1462(35) 0.000816 1274.1 1487.2
1522(36) 0.000772 1274. 1498.
1546(36) 0.000772 1273. 1511.
1513(36) 0.000772 1273. 1525.
1613(37) 0.000730 1273. 1539.
1476(35) 0.000816 1272.2 1552.4
1514(36) 0.000772 1272. 1563.
1576(36) 0.000772 1271. 1570.
1567(36) 0.000772 1271. 1573.
1612(37) 0.000730 1271. 1571.
1525(36) 0.000772 1270. 1567.
1500(35) 0.000816 1270.0 1561.7
1543(36) 0.000772 1270. 1556.
1610(37) 0.000730 1269. 1551.
1541(36) 0.000772 1269. 1545.
1531(36) 0.000772 1269. 1541.
1528(36) 0.000772 1268. 1537.
1495(35) 0.000816 1267.8 1533.5
1586(36) 0.000772 1267. 1531.
1563(36) 0.000772 1267. 1529.
1562(36) 0.000772 1267. 1526.
1515(36) 0.000772 1266. 1521.
1552(36) 0.000772 1266. 1514.
1527(36) 0.000772 1266. 1504.
1496(35) 0.000816 1265.2 1492.9
1434(35) 0.000816 1264.8 1480.5
1483(35) 0.000816 1264.5 1467.3
1536(36) 0.000772 1264. 1453.
1448(35) 0.000816 1263.7 1438.0
1469(35) 0.000816 1263.4 1422.0
1478(35) 0.000816 1263.0 1405.6
1454(35) 0.000816 1262.6 1389.3
1427(35) 0.000816 1262.3 1374.0
1388(34) 0.000865 1261.9 1360.2
1390(34) 0.000865 1261.5 1348.2
1398(34) 0.000865 1261.2 1338.4
1386(34) 0.000865 1260.8 1331.0
1378(34) 0.000865 1260.4 1325.9
1329(33) 0.000918 1260.1 1323.2
1281(33) 0.000918 1259.7 1322.9
1335(33) 0.000918 1259.3 1325.1
1322(33) 0.000918 1259.0 1329.7
1359(34) 0.000865 1258.6 1336.7
1327(34) 0.000865 1258.2 1346.1
1338(34) 0.000865 1257.9 1357.9
1325(34) 0.000865 1257.5 1371.8
1332(34) 0.000865 1257.2 1387.7
1430(35) 0.000816 1256.8 1405.2
1366(34) 0.000865 1256.4 1423.7
1408(35) 0.000816 1256.1 1442.6
1429(35) 0.000816 1255.7 1461.5
1544(36) 0.000772 1255. 1480.
1506(36) 0.000772 1255. 1498.
1549(36) 0.000772 1255. 1513.
1547(36) 0.000772 1254. 1526.
1546(36) 0.000772 1254. 1535.
1518(36) 0.000772 1254. 1539.
1554(36) 0.000772 1253. 1536.
1577(37) 0.000730 1253. 1529.
1584(37) 0.000730 1252. 1518.
1563(37) 0.000730 1252. 1505.
1523(36) 0.000772 1252. 1489.
1474(36) 0.000772 1251. 1473.
1490(36) 0.000772 1251. 1456.
1461(35) 0.000816 1250.7 1438.0
1447(35) 0.000816 1250.3 1421.1
1419(35) 0.000816 1250.0 1405.7
1403(35) 0.000816 1249.6 1392.6
1426(35) 0.000816 1249.2 1382.3
1377(34) 0.000865 1248.9 1375.2
1332(34) 0.000865 1248.5 1371.4
1393(35) 0.000816 1248.2 1370.7
1452(35) 0.000816 1247.8 1372.6
1386(34) 0.000865 1247.5 1376.8
1416(35) 0.000816 1247.1 1382.2
1384(34) 0.000865 1246.8 1388.0
1441(35) 0.000816 1246.4 1393.3
1429(35) 0.000816 1246.1 1397.2
1447(35) 0.000816 1245.7 1399.4
1460(35) 0.000816 1245.4 1399.9
1424(35) 0.000816 1245.0 1399.0
1328(34) 0.000865 1244.6 1397.0
1387(34) 0.000865 1244.3 1394.3
1385(34) 0.000865 1243.9 1391.2
1376(34) 0.000865 1243.6 1388.0
1419(35) 0.000816 1243.2 1385.2
1415(35) 0.000816 1242.9 1383.5
1355(34) 0.000865 1242.5 1383.9
1388(34) 0.000865 1242.2 1387.4
1377(34) 0.000865 1241.9 1394.4
1389(34) 0.000865 1241.5 1405.8
1358(34) 0.000865 1241.2 1421.9
1373(34) 0.000865 1240.8 1442.8
1387(34) 0.000865 1240.5 1468.4
1417(35) 0.000816 1240.1 1498.2
1477(36) 0.000772 1240. 1531.
1445(35) 0.000816 1239.4 1566.6
1549(36) 0.000772 1239. 1603.
1549(36) 0.000772 1239. 1638.
1644(38) 0.000693 1238. 1671.
1656(38) 0.000693 1238. 1703.
1683(38) 0.000693 1238. 1731.
1686(38) 0.000693 1237. 1756.
1773(39) 0.000657 1237. 1776.
1788(39) 0.000657 1237. 1789.
1742(39) 0.000657 1236. 1795.
1761(39) 0.000657 1236. 1792.
1861(40) 0.000625 1236. 1781.
1793(39) 0.000657 1235. 1765.
1801(39) 0.000657 1235. 1744.
1807(39) 0.000657 1235. 1720.
1762(39) 0.000657 1234. 1693.
1717(38) 0.000693 1234. 1665.
1681(38) 0.000693 1234. 1635.
1643(38) 0.000693 1233. 1605.
1580(37) 0.000730 1233. 1576.
1561(37) 0.000730 1233. 1549.
1633(37) 0.000730 1232. 1525.
1588(37) 0.000730 1232. 1505.
1491(36) 0.000772 1232. 1488.
1475(36) 0.000772 1231. 1475.
1441(35) 0.000816 1231.0 1464.9
1493(36) 0.000772 1231. 1458.
1505(36) 0.000772 1230. 1453.
1455(35) 0.000816 1230.0 1450.9
1446(35) 0.000816 1229.7 1449.2
1421(35) 0.000816 1229.3 1447.8
1466(35) 0.000816 1229.0 1446.1
1423(35) 0.000816 1228.7 1443.9
1436(35) 0.000816 1228.3 1441.2
1418(35) 0.000816 1228.0 1438.2
1430(35) 0.000816 1227.7 1434.7
1394(35) 0.000816 1227.4 1430.7
1404(35) 0.000816 1227.0 1425.8
1417(35) 0.000816 1226.7 1420.0
1419(35) 0.000816 1226.4 1413.4
1433(35) 0.000816 1226.1 1406.3
1402(35) 0.000816 1225.8 1398.9
1416(35) 0.000816 1225.4 1391.4
1419(35) 0.000816 1225.1 1383.7
1354(34) 0.000865 1224.8 1375.9
1342(34) 0.000865 1224.5 1368.1
1408(35) 0.000816 1224.2 1360.6
1350(34) 0.000865 1223.8 1354.0
1413(33) 0.000918 1223.5 1348.6
1366(33) 0.000918 1223.2 1345.0
1398(33) 0.000918 1222.9 1343.4
1416(33) 0.000918 1222.6 1344.0
1372(33) 0.000918 1222.3 1346.8
1329(32) 0.000977 1221.9 1351.6
1358(33) 0.000918 1221.6 1358.2
1382(33) 0.000918 1221.3 1366.1
1393(33) 0.000918 1221.0 1374.7
1410(33) 0.000918 1220.7 1383.4
1496(34) 0.000865 1220.4 1391.6
1455(34) 0.000865 1220.1 1399.0
1460(34) 0.000865 1219.8 1405.6
1448(34) 0.000865 1219.5 1411.7
1528(35) 0.000816 1219.1 1417.5
1575(35) 0.000816 1218.8 1423.3
1469(34) 0.000865 1218.5 1429.4
1488(34) 0.000865 1218.2 1435.8
1521(35) 0.000816 1217.9 1442.4
1507(34) 0.000865 1217.6 1449.4
1509(34) 0.000865 1217.3 1456.7
1540(35) 0.000816 1217.0 1464.3
1510(34) 0.000865 1216.7 1471.9
1505(34) 0.000865 1216.4 1479.0
1511(34) 0.000865 1216.1 1485.1
1551(35) 0.000816 1215.8 1489.8
1506(34) 0.000865 1215.5 1493.1
1504(34) 0.000865 1215.2 1495.0
1538(35) 0.000816 1214.9 1495.9
1561(35) 0.000816 1214.6 1495.9
1505(34) 0.000865 1214.3 1495.1
1511(34) 0.000865 1214.0 1493.4
1508(34) 0.000865 1213.7 1490.7
1522(35) 0.000816 1213.4 1487.2
1518(35) 0.000816 1213.1 1483.4
1492(34) 0.000865 1212.9 1479.6
1461(34) 0.000865 1212.6 1476.3
1536(35) 0.000816 1212.3 1473.6
1483(34) 0.000865 1212.0 1471.4
1426(33) 0.000918 1211.7 1469.9
1464(34) 0.000865 1211.4 1468.8
1454(34) 0.000865 1211.1 1468.5
1536(35) 0.000816 1210.8 1468.8
1509(34) 0.000865 1210.5 1469.8
1462(34) 0.000865 1210.3 1471.2
1514(34) 0.000865 1210.0 1472.7
1507(34) 0.000865 1209.7 1473.8
1514(34) 0.000865 1209.4 1474.3
1482(34) 0.000865 1209.1 1474.1
1492(34) 0.000865 1208.8 1473.2
1446(34) 0.000865 1208.6 1471.8
1471(34) 0.000865 1208.3 1469.8
1489(34) 0.000865 1208.0 1467.1
1432(34) 0.000865 1207.7 1463.9
1434(34) 0.000865 1207.5 1460.4
1446(34) 0.000865 1207.2 1457.5
1433(34) 0.000865 1206.9 1456.1
1476(34) 0.000865 1206.6 1457.3
1497(34) 0.000865 1206.4 1461.8
1474(34) 0.000865 1206.1 1470.5
1460(34) 0.000865 1205.8 1483.5
1461(34) 0.000865 1205.5 1500.8
1476(34) 0.000865 1205.3 1521.9
1540(35) 0.000816 1205.0 1546.0
1556(35) 0.000816 1204.7 1571.7
1616(36) 0.000772 1204. 1597.
1565(35) 0.000816 1204.2 1621.0
1647(36) 0.000772 1204. 1641.
1609(36) 0.000772 1204. 1657.
1617(36) 0.000772 1203. 1667.
1592(35) 0.000816 1203.1 1672.2
1636(36) 0.000772 1203. 1673.
1652(36) 0.000772 1203. 1670.
1660(36) 0.000772 1202. 1662.
1607(36) 0.000772 1202. 1651.
1543(35) 0.000816 1201.8 1636.8
1560(35) 0.000816 1201.6 1619.6
1487(34) 0.000865 1201.3 1600.4
1516(35) 0.000816 1201.1 1580.4
1512(34) 0.000865 1200.8 1560.3
1514(34) 0.000865 1200.6 1541.0
1527(35) 0.000816 1200.3 1522.6
1514(34) 0.000865 1200.1 1505.4
1456(34) 0.000865 1199.8 1489.6
1408(33) 0.000918 1199.6 1475.4
1398(33) 0.000918 1199.3 1462.9
1455(34) 0.000865 1199.1 1452.1
1390(33) 0.000918 1198.8 1443.0
1420(33) 0.000918 1198.6 1435.1
1414(33) 0.000918 1198.3 1428.2
1484(34) 0.000865 1198.1 1421.8
1487(34) 0.000865 1197.8 1415.8
1388(33) 0.000918 1197.6 1409.9
1380(33) 0.000918 1197.4 1403.8
1373(33) 0.000918 1197.1 1397.4
1373(33) 0.000918 1196.9 1390.3
1392(33) 0.000918 1196.6 1382.0
1401(33) 0.000918 1196.4 1372.7
1367(33) 0.000918 1196.2 1362.5
1333(44) 0.000517 1196. 1352.
1307(32) 0.000977 1195.7 1340.7
1285(31) 0.001041 1195.5 1330.0
1334(32) 0.000977 1195.2 1320.1
1342(32) 0.000977 1195.0 1311.1
1303(32) 0.000977 1194.8 1303.2
1321(32) 0.000977 1194.5 1296.4
1297(32) 0.000977 1194.3 1290.9
1326(32) 0.000977 1194.1 1286.4
1307(32) 0.000977 1193.8 1282.8
1292(32) 0.000977 1193.6 1280.1
1301(32) 0.000977 1193.4 1277.9
1202(30) 0.001111 1193.2 1276.3
1233(31) 0.001041 1192.9 1275.1
1282(31) 0.001041 1192.7 1274.5
1239(31) 0.001041 1192.5 1274.5
1249(31) 0.001041 1192.3 1275.3
1273(31) 0.001041 1192.1 1277.2
1270(31) 0.001041 1191.8 1280.2
1252(31) 0.001041 1191.6 1284.5
1270(31) 0.001041 1191.4 1290.2
1293(32) 0.000977 1191.2 1297.4
1297(32) 0.000977 1191.0 1305.8
1304(32) 0.000977 1190.8 1315.6
1322(32) 0.000977 1190.6 1326.6
1308(32) 0.000977 1190.3 1338.5
1379(33) 0.000918 1190.1 1351.2
1375(33) 0.000918 1189.9 1364.5
1347(32) 0.000977 1189.7 1378.3
1343(32) 0.000977 1189.5 1392.6
1409(33) 0.000918 1189.3 1407.3
1411(33) 0.000918 1189.1 1422.2
1420(33) 0.000918 1188.9 1437.3
1389(33) 0.000918 1188.7 1452.2
1455(34) 0.000865 1188.5 1467.1
1510(34) 0.000865 1188.3 1482.0
1466(34) 0.000865 1188.1 1497.3
1484(34) 0.000865 1187.9 1513.0
1540(35) 0.000816 1187.7 1529.4
1544(35) 0.000816 1187.5 1546.2
1545(35) 0.000816 1187.3 1563.2
1637(36) 0.000772 1187. 1580.
1608(35) 0.000816 1186.9 1595.8
1617(35) 0.000816 1186.7 1610.3
1648(36) 0.000772 1187. 1623.
1583(35) 0.000816 1186.3 1632.0
1591(35) 0.000816 1186.1 1637.4
1616(35) 0.000816 1186.0 1637.8
1621(35) 0.000816 1185.8 1632.6
1620(35) 0.000816 1185.6 1621.8
1591(35) 0.000816 1185.4 1606.1
1649(36) 0.000772 1185. 1587.
1635(36) 0.000772 1185. 1565.
1605(35) 0.000816 1184.8 1543.0
1551(35) 0.000816 1184.7 1521.5
1518(34) 0.000865 1184.5 1501.6
1449(33) 0.000918 1184.3 1484.1
1443(33) 0.000918 1184.1 1469.0
1438(33) 0.000918 1183.9 1456.5
1444(33) 0.000918 1183.8 1446.0
1407(33) 0.000918 1183.6 1436.9
1402(33) 0.000918 1183.4 1428.5
1381(33) 0.000918 1183.2 1419.8
1364(32) 0.000977 1183.1 1410.3
1374(33) 0.000918 1182.9 1399.6
1385(33) 0.000918 1182.7 1387.7
1409(33) 0.000918 1182.6 1374.7
1383(33) 0.000918 1182.4 1361.0
1368(32) 0.000977 1182.2 1347.1
1342(32) 0.000977 1182.1 1333.3
1338(32) 0.000977 1181.9 1320.1
1273(31) 0.001041 1181.7 1307.7
1270(31) 0.001041 1181.6 1296.4
1280(31) 0.001041 1181.4 1286.6
1277(31) 0.001041 1181.2 1278.3
1241(31) 0.001041 1181.1 1271.9
1235(31) 0.001041 1180.9 1267.4
1275(31) 0.001041 1180.8 1265.0
1286(31) 0.001041 1180.6 1264.7
1266(31) 0.001041 1180.5 1266.5
1295(32) 0.000977 1180.3 1270.5
1282(31) 0.001041 1180.2 1276.6
1305(32) 0.000977 1180.0 1284.7
1293(32) 0.000977 1179.8 1294.8
1289(31) 0.001041 1179.7 1306.8
1321(32) 0.000977 1179.5 1320.3
1294(32) 0.000977 1179.4 1335.3
1359(32) 0.000977 1179.3 1351.1
1429(33) 0.000918 1179.1 1367.5
1442(33) 0.000918 1179.0 1383.8
1419(33) 0.000918 1178.8 1399.6
1389(33) 0.000918 1178.7 1414.0
1404(33) 0.000918 1178.5 1426.7
1422(33) 0.000918 1178.4 1437.2
1470(34) 0.000865 1178.3 1445.4
1495(34) 0.000865 1178.1 1451.5
1467(34) 0.000865 1178.0 1455.6
1412(33) 0.000918 1177.8 1457.9
1434(33) 0.000918 1177.7 1458.5
1441(33) 0.000918 1177.6 1457.6
1444(33) 0.000918 1177.4 1455.4
1435(33) 0.000918 1177.3 1452.0
1410(33) 0.000918 1177.2 1448.0
1435(33) 0.000918 1177.0 1443.6
1441(33) 0.000918 1176.9 1439.2
1436(33) 0.000918 1176.8 1435.1
1429(33) 0.000918 1176.7 1431.4
1394(33) 0.000918 1176.5 1428.3
1390(33) 0.000918 1176.4 1425.8
1441(33) 0.000918 1176.3 1424.1
1414(33) 0.000918 1176.2 1423.1
1373(32) 0.000977 1176.0 1422.8
1387(33) 0.000918 1175.9 1423.3
1430(33) 0.000918 1175.8 1424.1
1386(33) 0.000918 1175.7 1425.2
1343(32) 0.000977 1175.6 1426.2
1398(33) 0.000918 1175.5 1426.9
1458(33) 0.000918 1175.3 1427.0
1395(33) 0.000918 1175.2 1426.3
1355(32) 0.000977 1175.1 1424.5
1351(32) 0.000977 1175.0 1421.4
1395(33) 0.000918 1174.9 1416.6
1369(32) 0.000977 1174.8 1409.9
1375(32) 0.000977 1174.7 1401.2
1363(32) 0.000977 1174.6 1390.7
1347(32) 0.000977 1174.5 1378.7
1361(32) 0.000977 1174.3 1365.6
1347(32) 0.000977 1174.2 1351.9
1347(32) 0.000977 1174.1 1338.0
1292(31) 0.001041 1174.0 1324.3
1291(31) 0.001041 1173.9 1311.2
1289(31) 0.001041 1173.8 1298.7
1273(31) 0.001041 1173.7 1287.3
1242(31) 0.001041 1173.6 1277.1
1217(30) 0.001111 1173.5 1268.2
1259(31) 0.001041 1173.4 1260.9
1226(31) 0.001041 1173.3 1255.1
1205(30) 0.001111 1173.3 1250.9
1222(31) 0.001041 1173.2 1248.4
1274(31) 0.001041 1173.1 1247.6
1206(30) 0.001111 1173.0 1248.3
1195(30) 0.001111 1172.9 1250.6
1224(31) 0.001041 1172.8 1254.4
1282(31) 0.001041 1172.7 1259.6
1260(31) 0.001041 1172.6 1266.0
1269(31) 0.001041 1172.5 1273.7
1276(31) 0.001041 1172.4 1282.3
1266(31) 0.001041 1172.4 1291.6
1320(32) 0.000977 1172.3 1301.5
1344(32) 0.000977 1172.2 1311.5
1340(32) 0.000977 1172.1 1321.3
1316(32) 0.000977 1172.0 1330.6
1362(32) 0.000977 1172.0 1339.1
1392(33) 0.000918 1171.9 1346.6
1377(32) 0.000977 1171.8 1352.8
1388(33) 0.000918 1171.7 1357.9
1386(33) 0.000918 1171.6 1361.7
1401(33) 0.000918 1171.6 1364.3
1385(33) 0.000918 1171.5 1365.7
1347(32) 0.000977 1171.4 1365.9
1358(32) 0.000977 1171.4 1364.9
1369(32) 0.000977 1171.3 1362.9
1383(33) 0.000918 1171.2 1360.1
1391(33) 0.000918 1171.1 1356.6
1349(32) 0.000977 1171.1 1352.7
1327(32) 0.000977 1171.0 1348.8
1358(32) 0.000977 1170.9 1344.9
1356(32) 0.000977 1170.9 1341.2
1381(33) 0.000918 1170.8 1337.7
1382(33) 0.000918 1170.8 1334.7
1364(32) 0.000977 1170.7 1332.1
1339(32) 0.000977 1170.6 1330.0
1337(32) 0.000977 1170.6 1328.4
1335(32) 0.000977 1170.5 1327.3
1329(32) 0.000977 1170.5 1326.4
1294(31) 0.001041 1170.4 1325.8
1284(31) 0.001041 1170.3 1325.2
1292(31) 0.001041 1170.3 1324.5
1316(32) 0.000977 1170.2 1323.6
1290(31) 0.001041 1170.2 1322.4
1274(31) 0.001041 1170.1 1320.6
1248(31) 0.001041 1170.1 1318.2
1290(31) 0.001041 1170.0 1315.1
1290(31) 0.001041 1170.0 1311.0
1282(31) 0.001041 1169.9 1306.1
1240(31) 0.001041 1169.9 1300.5
1237(31) 0.001041 1169.8 1294.1
1261(31) 0.001041 1169.8 1287.4
1264(31) 0.001041 1169.7 1280.5
1227(31) 0.001041 1169.7 1273.6
1214(30) 0.001111 1169.7 1266.9
1197(30) 0.001111 1169.6 1260.5
1226(31) 0.001041 1169.6 1254.8
1254(31) 0.001041 1169.5 1249.7
1227(31) 0.001041 1169.5 1245.4
1257(31) 0.001041 1169.4 1242.0
1256(31) 0.001041 1169.4 1239.6
1227(31) 0.001041 1169.4 1238.4
1212(30) 0.001111 1169.3 1238.3
1211(30) 0.001111 1169.3 1239.5
1220(31) 0.001041 1169.3 1242.0
1258(32) 0.000977 1169.2 1246.0
1236(32) 0.000977 1169.2 1251.4
1201(31) 0.001041 1169.2 1258.4
1212(31) 0.001041 1169.1 1266.9
1270(32) 0.000977 1169.1 1277.2
1301(32) 0.000977 1169.1 1289.2
1282(32) 0.000977 1169.1 1302.8
1328(33) 0.000918 1169.0 1318.1
1376(33) 0.000918 1169.0 1334.9
1372(33) 0.000918 1169.0 1353.2
1383(33) 0.000918 1168.9 1372.7
1355(33) 0.000918 1168.9 1393.2
1434(34) 0.000865 1168.9 1414.4
1473(35) 0.000816 1168.9 1435.9
1495(35) 0.000816 1168.9 1457.7
1475(35) 0.000816 1168.8 1479.1
1494(35) 0.000816 1168.8 1500.0
1526(35) 0.000816 1168.8 1519.9
1534(35) 0.000816 1168.8 1538.3
1582(36) 0.000772 1169. 1555.
1550(35) 0.000816 1168.7 1569.3
1597(36) 0.000772 1169. 1581.
1600(36) 0.000772 1169. 1590.
1633(36) 0.000772 1169. 1597.
1640(37) 0.000730 1169. 1601.
1627(36) 0.000772 1169. 1604.
1671(37) 0.000730 1169. 1604.
1609(36) 0.000772 1169. 1603.
1645(37) 0.000730 1169. 1600.
1646(37) 0.000730 1169. 1596.
1619(36) 0.000772 1169. 1591.
1605(36) 0.000772 1169. 1584.
1613(36) 0.000772 1169. 1577.
1649(37) 0.000730 1169. 1569.
1564(36) 0.000772 1169. 1560.
1590(36) 0.000772 1169. 1550.
1629(36) 0.000772 1169. 1540.
1610(36) 0.000772 1169. 1528.
1558(36) 0.000772 1169. 1516.
1514(35) 0.000816 1168.6 1504.0
1505(35) 0.000816 1168.6 1491.2
1480(35) 0.000816 1168.6 1478.2
1480(35) 0.000816 1168.6 1465.4
1458(34) 0.000865 1168.6 1452.6
1454(34) 0.000865 1168.6 1440.1
1429(34) 0.000865 1168.6 1427.9
1424(34) 0.000865 1168.6 1416.1
1456(34) 0.000865 1168.6 1404.8
1421(34) 0.000865 1168.6 1394.0
1392(34) 0.000865 1168.6 1383.9
1389(34) 0.000865 1168.6 1374.3
1349(33) 0.000918 1168.6 1365.4
1323(33) 0.000918 1168.6 1357.2
1347(33) 0.000918 1168.6 1349.8
1321(33) 0.000918 1168.6 1343.4
1332(33) 0.000918 1168.6 1338.0
1319(33) 0.000918 1168.6 1333.9
1357(33) 0.000918 1168.7 1331.2
1352(33) 0.000918 1168.7 1330.1
1312(33) 0.000918 1168.7 1330.7
1307(33) 0.000918 1168.7 1333.1
1311(33) 0.000918 1168.7 1337.4
1307(33) 0.000918 1168.7 1343.6
1329(33) 0.000918 1168.7 1351.6
1353(33) 0.000918 1168.7 1361.1
1361(33) 0.000918 1168.8 1372.1
1387(34) 0.000865 1168.8 1384.2
1382(33) 0.000918 1168.8 1397.0
1394(34) 0.000865 1168.8 1410.3
1368(33) 0.000918 1168.8 1423.6
1426(34) 0.000865 1168.8 1436.5
1494(35) 0.000816 1168.9 1448.5
1495(35) 0.000816 1168.9 1459.0
1506(35) 0.000816 1168.9 1467.7
1478(35) 0.000816 1168.9 1473.9
1486(35) 0.000816 1168.9 1477.2
1464(34) 0.000865 1169.0 1477.4
1487(35) 0.000816 1169.0 1474.3
1465(34) 0.000865 1169.0 1468.2
1464(34) 0.000865 1169.0 1459.3
1465(34) 0.000865 1169.0 1448.0
1438(34) 0.000865 1169.1 1435.0
1431(34) 0.000865 1169.1 1420.8
1471(35) 0.000816 1169.1 1405.8
1408(34) 0.000865 1169.1 1390.7
1348(33) 0.000918 1169.2 1375.6
1408(34) 0.000865 1169.2 1360.9
1320(33) 0.000918 1169.2 1347.0
1347(33) 0.000918 1169.3 1334.0
1339(33) 0.000918 1169.3 1322.2
1337(33) 0.000918 1169.3 1311.5
1343(33) 0.000918 1169.3 1302.1
1307(33) 0.000918 1169.4 1294.0
1278(32) 0.000977 1169.4 1287.2
1278(32) 0.000977 1169.4 1281.6
1316(33) 0.000918 1169.5 1277.4
1254(32) 0.000977 1169.5 1274.4
1342(33) 0.000918 1169.5 1272.5
1248(32) 0.000977 1169.6 1271.9
1305(27) 0.001372 1169.6 1272.3
1367(34) 0.000865 1169.6 1273.8
1296(33) 0.000918 1169.7 1276.3
1370(34) 0.000865 1169.7 1279.6
1318(34) 0.000865 1169.7 1283.6
1292(33) 0.000918 1169.8 1288.2
1275(33) 0.000918 1169.8 1293.3
1319(34) 0.000865 1169.8 1298.6
1387(34) 0.000865 1169.9 1304.0
1443(35) 0.000816 1169.9 1309.2
1393(34) 0.000865 1169.9 1314.1
1362(34) 0.000865 1170.0 1318.7
1344(34) 0.000865 1170.0 1322.6
1361(34) 0.000865 1170.1 1325.9
1346(34) 0.000865 1170.1 1328.3
1383(34) 0.000865 1170.1 1329.9
1428(35) 0.000816 1170.2 1330.5
1351(34) 0.000865 1170.2 1330.1
1420(35) 0.000816 1170.2 1328.6
1393(34) 0.000865 1170.3 1326.3
1404(35) 0.000816 1170.3 1323.2
1380(34) 0.000865 1170.4 1319.4
1386(34) 0.000865 1170.4 1315.4
1346(34) 0.000865 1170.4 1311.2
1403(35) 0.000816 1170.5 1307.1
1325(34) 0.000865 1170.5 1303.3
1339(34) 0.000865 1170.6 1300.1
1330(34) 0.000865 1170.6 1297.4
1293(33) 0.000918 1170.7 1295.4
1281(33) 0.000918 1170.7 1294.2
1258(33) 0.000918 1170.7 1293.8
1278(33) 0.000918 1170.8 1294.2
1311(33) 0.000918 1170.8 1295.3
1288(33) 0.000918 1170.9 1297.0
1296(33) 0.000918 1170.9 1299.4
1279(33) 0.000918 1171.0 1302.3
1240(33) 0.000918 1171.0 1305.7
1259(33) 0.000918 1171.0 1309.4
1300(33) 0.000918 1171.1 1313.4
1313(33) 0.000918 1171.1 1317.6
1289(33) 0.000918 1171.2 1321.9
1283(33) 0.000918 1171.2 1326.2
1282(33) 0.000918 1171.3 1330.5
1334(34) 0.000865 1171.3 1334.7
1348(34) 0.000865 1171.4 1338.8
1374(34) 0.000865 1171.4 1342.9
1363(34) 0.000865 1171.5 1347.0
1384(34) 0.000865 1171.5 1351.2
1377(34) 0.000865 1171.6 1355.4
1363(34) 0.000865 1171.6 1359.8
1360(34) 0.000865 1171.6 1364.4
1350(34) 0.000865 1171.7 1369.1
1367(34) 0.000865 1171.7 1373.9
1329(34) 0.000865 1171.8 1378.9
1447(35) 0.000816 1171.8 1383.8
1451(35) 0.000816 1171.9 1388.7
1432(35) 0.000816 1171.9 1393.5
1377(34) 0.000865 1172.0 1397.9
1377(34) 0.000865 1172.0 1402.0
1455(35) 0.000816 1172.1 1405.5
1447(35) 0.000816 1172.1 1408.6
1453(35) 0.000816 1172.2 1411.0
1436(35) 0.000816 1172.2 1413.0
1426(35) 0.000816 1172.3 1414.4
1488(36) 0.000772 1172. 1415.
1428(35) 0.000816 1172.4 1415.8
1452(35) 0.000816 1172.4 1416.0
1421(35) 0.000816 1172.5 1415.7
1406(35) 0.000816 1172.5 1415.0
1450(35) 0.000816 1172.6 1413.9
1421(35) 0.000816 1172.6 1412.4
1378(34) 0.000865 1172.6 1410.4
1381(34) 0.000865 1172.7 1407.9
1436(35) 0.000816 1172.7 1404.8
1420(35) 0.000816 1172.8 1401.2
1384(34) 0.000865 1172.8 1396.8
1395(35) 0.000816 1172.9 1391.8
1386(34) 0.000865 1172.9 1386.1
1383(34) 0.000865 1173.0 1379.8
1326(34) 0.000865 1173.0 1372.9
1331(34) 0.000865 1173.1 1365.7
1325(34) 0.000865 1173.1 1358.3
1330(34) 0.000865 1173.2 1350.8
1372(34) 0.000865 1173.2 1343.4
1318(34) 0.000865 1173.3 1336.2
1379(34) 0.000865 1173.3 1329.3
1305(33) 0.000918 1173.4 1322.9
1261(33) 0.000918 1173.4 1317.1
1296(33) 0.000918 1173.5 1311.9
1257(33) 0.000918 1173.5 1307.5
1345(34) 0.000865 1173.6 1303.9
1297(33) 0.000918 1173.6 1301.1
1295(33) 0.000918 1173.7 1299.1
1273(33) 0.000918 1173.7 1298.0
1278(33) 0.000918 1173.7 1297.8
1296(33) 0.000918 1173.8 1298.2
1293(33) 0.000918 1173.8 1299.3
1289(33) 0.000918 1173.9 1301.1
1292(33) 0.000918 1173.9 1303.3
1328(34) 0.000865 1174.0 1305.8
1306(33) 0.000918 1174.0 1308.6
1363(33) 0.000918 1174.1 1311.5
1309(33) 0.000918 1174.1 1314.5
1293(32) 0.000977 1174.2 1317.5
1297(32) 0.000977 1174.2 1320.4
1318(33) 0.000918 1174.3 1323.2
1353(33) 0.000918 1174.3 1325.9
1360(33) 0.000918 1174.3 1328.4
1359(33) 0.000918 1174.4 1330.9
1367(33) 0.000918 1174.4 1333.2
1358(33) 0.000918 1174.5 1335.4
1384(33) 0.000918 1174.5 1337.5
1404(34) 0.000865 1174.6 1339.5
1384(33) 0.000918 1174.6 1341.3
1322(33) 0.000918 1174.7 1343.0
1381(33) 0.000918 1174.7 1344.6
1420(34) 0.000865 1174.7 1346.0
1296(32) 0.000977 1174.8 1347.4
1309(33) 0.000918 1174.8 1348.7
1333(33) 0.000918 1174.9 1349.9
1361(33) 0.000918 1174.9 1351.2
1380(33) 0.000918 1174.9 1352.5
1372(33) 0.000918 1175.0 1354.1
1326(33) 0.000918 1175.0 1356.0
1326(33) 0.000918 1175.1 1358.3
1394(34) 0.000865 1175.1 1361.2
1404(34) 0.000865 1175.1 1364.7
1302(32) 0.000977 1175.2 1369.0
1368(33) 0.000918 1175.2 1374.0
1396(34) 0.000865 1175.3 1380.0
1375(33) 0.000918 1175.3 1386.7
1381(33) 0.000918 1175.3 1394.2
1407(34) 0.000865 1175.4 1402.5
1475(35) 0.000816 1175.4 1411.5
1416(34) 0.000865 1175.5 1421.0
1447(34) 0.000865 1175.5 1430.9
1439(34) 0.000865 1175.5 1441.0
1507(35) 0.000816 1175.6 1451.3
1486(35) 0.000816 1175.6 1461.6
1534(35) 0.000816 1175.6 1471.7
1515(35) 0.000816 1175.7 1481.6
1549(35) 0.000816 1175.7 1491.0
1532(35) 0.000816 1175.7 1499.8
1498(35) 0.000816 1175.8 1507.8
1505(35) 0.000816 1175.8 1515.0
1582(36) 0.000772 1176. 1521.
1528(35) 0.000816 1175.9 1526.0
1560(36) 0.000772 1176. 1530.
1524(35) 0.000816 1175.9 1532.0
1509(35) 0.000816 1176.0 1533.0
1605(36) 0.000772 1176. 1533.
1594(36) 0.000772 1176. 1531.
1514(35) 0.000816 1176.1 1527.4
1521(35) 0.000816 1176.1 1522.7
1541(35) 0.000816 1176.1 1516.7
1562(36) 0.000772 1176. 1509.
1518(35) 0.000816 1176.2 1501.2
1507(35) 0.000816 1176.2 1491.9
1450(34) 0.000865 1176.2 1482.0
1468(34) 0.000865 1176.2 1471.7
1552(35) 0.000816 1176.3 1461.3
1442(34) 0.000865 1176.3 1450.9
1455(34) 0.000865 1176.3 1440.8
1466(34) 0.000865 1176.3 1431.2
1465(34) 0.000865 1176.4 1422.2
1400(34) 0.000865 1176.4 1413.9
1450(34) 0.000865 1176.4 1406.3
1352(33) 0.000918 1176.4 1399.5
1402(34) 0.000865 1176.5 1393.5
1390(34) 0.000865 1176.5 1388.1
1378(33) 0.000918 1176.5 1383.4
1334(33) 0.000918 1176.5 1379.3
1361(33) 0.000918 1176.5 1375.7
1352(33) 0.000918 1176.6 1372.5
1395(34) 0.000865 1176.6 1369.7
1373(33) 0.000918 1176.6 1367.3
1316(33) 0.000918 1176.6 1365.3
1336(33) 0.000918 1176.6 1363.6
1325(33) 0.000918 1176.7 1362.2
1329(33) 0.000918 1176.7 1361.1
1292(32) 0.000977 1176.7 1360.4
1340(33) 0.000918 1176.7 1360.1
1289(32) 0.000977 1176.7 1360.0
1341(33) 0.000918 1176.7 1360.3
1329(33) 0.000918 1176.7 1361.0
1332(33) 0.000918 1176.8 1361.9
1296(32) 0.000977 1176.8 1363.1
1314(33) 0.000918 1176.8 1364.7
1329(33) 0.000918 1176.8 1366.4
1327(33) 0.000918 1176.8 1368.5
1359(33) 0.000918 1176.8 1370.7
1346(33) 0.000918 1176.8 1373.2
1321(33) 0.000918 1176.8 1375.9
1364(33) 0.000918 1176.8 1378.8
1381(33) 0.000918 1176.8 1382.0
1297(32) 0.000977 1176.9 1385.4
1336(33) 0.000918 1176.9 1389.1
1370(33) 0.000918 1176.9 1393.0
1403(34) 0.000865 1176.9 1397.1
1372(33) 0.000918 1176.9 1401.4
1390(47) 0.000453 1177. 1406.
1393(33) 0.000918 1176.9 1410.1
1365(33) 0.000918 1176.9 1414.3
1371(33) 0.000918 1176.9 1418.3
1441(33) 0.000918 1176.9 1421.9
1434(33) 0.000918 1176.9 1424.9
1408(33) 0.000918 1176.9 1427.2
1353(32) 0.000977 1176.9 1428.6
1408(33) 0.000918 1176.9 1429.0
1389(33) 0.000918 1176.9 1428.3
1373(33) 0.000918 1176.9 1426.4
1422(33) 0.000918 1176.9 1423.3
1356(32) 0.000977 1176.9 1419.2
1364(33) 0.000918 1176.9 1414.0
1383(33) 0.000918 1176.9 1407.9
1323(32) 0.000977 1176.9 1401.0
1386(33) 0.000918 1176.8 1393.4
1364(32) 0.000977 1176.8 1385.4
1344(32) 0.000977 1176.8 1377.0
1400(33) 0.000918 1176.8 1368.4
1360(32) 0.000977 1176.8 1359.6
1318(32) 0.000977 1176.8 1350.8
1294(32) 0.000977 1176.8 1342.1
1368(33) 0.000918 1176.8 1333.6
1356(32) 0.000977 1176.8 1325.4
1257(31) 0.001041 1176.8 1317.6
1254(31) 0.001041 1176.7 1310.1
1292(32) 0.000977 1176.7 1303.1
1286(32) 0.000977 1176.7 1296.6
1293(32) 0.000977 1176.7 1290.7
1267(31) 0.001041 1176.7 1285.3
1275(31) 0.001041 1176.7 1280.6
1278(31) 0.001041 1176.6 1276.4
1263(31) 0.001041 1176.6 1272.9
1256(31) 0.001041 1176.6 1270.1
1259(31) 0.001041 1176.6 1267.9
1237(31) 0.001041 1176.6 1266.4
1273(31) 0.001041 1176.6 1265.6
1228(31) 0.001041 1176.5 1265.4
1257(31) 0.001041 1176.5 1265.9
1272(31) 0.001041 1176.5 1267.0
1285(32) 0.000977 1176.5 1268.7
1262(31) 0.001041 1176.4 1271.0
1277(31) 0.001041 1176.4 1273.9
1303(32) 0.000977 1176.4 1277.2
1297(32) 0.000977 1176.4 1281.1
1313(32) 0.000977 1176.3 1285.4
1282(31) 0.001041 1176.3 1290.0
1315(32) 0.000977 1176.3 1295.0
1351(32) 0.000977 1176.3 1300.3
1258(31) 0.001041 1176.2 1305.7
1309(32) 0.000977 1176.2 1311.3
1336(32) 0.000977 1176.2 1316.9
1318(32) 0.000977 1176.1 1322.4
1330(32) 0.000977 1176.1 1327.8
1334(32) 0.000977 1176.1 1333.1
1372(33) 0.000918 1176.0 1338.1
1326(32) 0.000977 1176.0 1342.7
1358(32) 0.000977 1176.0 1347.1
1393(33) 0.000918 1175.9 1351.1
1384(33) 0.000918 1175.9 1354.8
1395(33) 0.000918 1175.9 1358.1
1418(33) 0.000918 1175.8 1361.1
1363(32) 0.000977 1175.8 1363.7
1396(33) 0.000918 1175.7 1366.1
1352(32) 0.000977 1175.7 1368.1
1356(32) 0.000977 1175.7 1369.9
1395(33) 0.000918 1175.6 1371.3
1404(33) 0.000918 1175.6 1372.5
1401(33) 0.000918 1175.5 1373.3
1421(33) 0.000918 1175.5 1373.7
1367(33) 0.000918 1175.4 1373.8
1315(32) 0.000977 1175.4 1373.5
1396(33) 0.000918 1175.4 1372.8
1381(33) 0.000918 1175.3 1371.7
1351(32) 0.000977 1175.3 1370.2
1382(33) 0.000918 1175.2 1368.2
1353(32) 0.000977 1175.2 1365.8
1367(33) 0.000918 1175.1 1363.0
1354(32) 0.000977 1175.1 1359.9
1369(33) 0.000918 1175.0 1356.6
1376(33) 0.000918 1175.0 1353.1
1349(32) 0.000977 1174.9 1349.5
1351(32) 0.000977 1174.9 1345.9
1315(32) 0.000977 1174.8 1342.4
1380(33) 0.000918 1174.8 1339.1
1329(32) 0.000977 1174.7 1336.0
1329(32) 0.000977 1174.7 1333.2
1308(32) 0.000977 1174.6 1330.6
1269(31) 0.001041 1174.6 1328.4
1324(32) 0.000977 1174.5 1326.5
1301(32) 0.000977 1174.5 1324.9
1297(32) 0.000977 1174.4 1323.6
1341(32) 0.000977 1174.4 1322.6
1301(32) 0.000977 1174.3 1321.8
1347(32) 0.000977 1174.2 1321.2
1308(32) 0.000977 1174.2 1320.8
1337(32) 0.000977 1174.1 1320.5
1359(32) 0.000977 1174.1 1320.3
1348(32) 0.000977 1174.0 1320.1
1324(26) 0.001479 1173.9 1319.9
1358(32) 0.000977 1173.9 1319.6
1297(32) 0.000977 1173.8 1319.2
1300(32) 0.000977 1173.8 1318.6
1341(32) 0.000977 1173.7 1317.8
1334(32) 0.000977 1173.6 1316.9
1295(32) 0.000977 1173.6 1315.7
1305(32) 0.000977 1173.5 1314.3
1289(32) 0.000977 1173.5 1312.7
1308(32) 0.000977 1173.4 1310.9
1297(32) 0.000977 1173.3 1309.1
1297(32) 0.000977 1173.3 1307.1
1315(32) 0.000977 1173.2 1305.2
1314(32) 0.000977 1173.1 1303.3
1338(32) 0.000977 1173.1 1301.5
1355(32) 0.000977 1173.0 1300.0
1322(32) 0.000977 1172.9 1298.7
1310(32) 0.000977 1172.9 1297.7
1329(32) 0.000977 1172.8 1297.1
1284(31) 0.001041 1172.7 1297.0
1267(31) 0.001041 1172.7 1297.4
1265(31) 0.001041 1172.6 1298.2
1303(32) 0.000977 1172.5 1299.7
1254(31) 0.001041 1172.5 1301.7
1279(31) 0.001041 1172.4 1304.4
1290(32) 0.000977 1172.3 1307.7
1267(31) 0.001041 1172.3 1311.7
1339(32) 0.000977 1172.2 1316.3
1377(33) 0.000918 1172.1 1321.6
1363(32) 0.000977 1172.1 1327.6
1398(33) 0.000918 1172.0 1334.2
1359(32) 0.000977 1171.9 1341.5
1377(33) 0.000918 1171.8 1349.5
1393(33) 0.000918 1171.8 1358.0
1445(33) 0.000918 1171.7 1367.1
1422(33) 0.000918 1171.6 1376.8
1372(33) 0.000918 1171.6 1386.9
1414(33) 0.000918 1171.5 1397.3
1356(32) 0.000977 1171.4 1408.1
1419(33) 0.000918 1171.4 1419.1
1402(33) 0.000918 1171.3 1430.1
1463(34) 0.000865 1171.2 1441.2
1481(34) 0.000865 1171.1 1452.1
1448(33) 0.000918 1171.1 1462.8
1470(34) 0.000865 1171.0 1473.0
1475(34) 0.000865 1170.9 1482.7
1456(34) 0.000865 1170.8 1491.8
1481(34) 0.000865 1170.8 1500.2
1484(34) 0.000865 1170.7 1507.7
1444(33) 0.000918 1170.6 1514.3
1478(34) 0.000865 1170.6 1519.9
1566(35) 0.000816 1170.5 1524.5
1532(34) 0.000865 1170.4 1528.2
1517(34) 0.000865 1170.3 1530.8
1505(34) 0.000865 1170.3 1532.4
1558(35) 0.000816 1170.2 1533.0
1564(35) 0.000816 1170.1 1532.5
1560(35) 0.000816 1170.1 1531.1
1509(34) 0.000865 1170.0 1528.8
1495(34) 0.000865 1169.9 1525.6
1506(34) 0.000865 1169.9 1521.6
1483(34) 0.000865 1169.8 1516.8
1494(34) 0.000865 1169.7 1511.4
1512(34) 0.000865 1169.6 1505.4
1521(34) 0.000865 1169.6 1498.9
1486(34) 0.000865 1169.5 1492.0
1537(34) 0.000865 1169.4 1484.8
1525(34) 0.000865 1169.4 1477.4
1497(34) 0.000865 1169.3 1469.8
1461(34) 0.000865 1169.2 1462.2
1491(34) 0.000865 1169.2 1454.5
1477(34) 0.000865 1169.1 1446.9
1445(33) 0.000918 1169.0 1439.4
1437(33) 0.000918 1169.0 1432.0
1417(33) 0.000918 1168.9 1424.8
1410(33) 0.000918 1168.8 1417.9
1458(34) 0.000865 1168.8 1411.2
1412(33) 0.000918 1168.7 1404.8
1412(33) 0.000918 1168.6 1398.7
1399(33) 0.000918 1168.6 1392.9
1421(33) 0.000918 1168.5 1387.5
1413(33) 0.000918 1168.4 1382.3
1378(33) 0.000918 1168.4 1377.6
1371(33) 0.000918 1168.3 1373.1
1425(33) 0.000918 1168.3 1369.1
1370(32) 0.000977 1168.2 1365.3
1348(32) 0.000977 1168.1 1361.9
1340(32) 0.000977 1168.1 1358.9
1405(33) 0.000918 1168.0 1356.1
1396(33) 0.000918 1168.0 1353.8
1370(32) 0.000977 1167.9 1351.8
1352(32) 0.000977 1167.9 1350.1
1381(33) 0.000918 1167.8 1348.9
1372(33) 0.000918 1167.8 1348.0
1303(32) 0.000977 1167.7 1347.6
1326(32) 0.000977 1167.6 1347.7
1337(32) 0.000977 1167.6 1348.2
1371(33) 0.000918 1167.5 1349.3
1338(32) 0.000977 1167.5 1350.9
1352(32) 0.000977 1167.4 1353.1
1409(33) 0.000918 1167.4 1355.9
1412(33) 0.000918 1167.4 1359.3
1393(33) 0.000918 1167.3 1363.3
1381(33) 0.000918 1167.3 1367.9
1397(33) 0.000918 1167.2 1373.1
1407(33) 0.000918 1167.2 1379.0
1394(33) 0.000918 1167.1 1385.4
1403(33) 0.000918 1167.1 1392.3
1395(33) 0.000918 1167.1 1399.8
1413(33) 0.000918 1167.0 1407.7
1432(34) 0.000865 1167.0 1416.1
1440(34) 0.000865 1167.0 1424.8
1465(34) 0.000865 1166.9 1433.7
1453(34) 0.000865 1166.9 1442.9
1476(34) 0.000865 1166.9 1452.1
1485(34) 0.000865 1166.8 1461.4
1493(34) 0.000865 1166.8 1470.6
1433(34) 0.000865 1166.8 1479.6
1456(34) 0.000865 1166.7 1488.4
1507(35) 0.000816 1166.7 1496.7
1501(34) 0.000865 1166.7 1504.6
1579(35) 0.000816 1166.7 1511.8
1531(35) 0.000816 1166.7 1518.5
1515(35) 0.000816 1166.6 1524.3
1546(35) 0.000816 1166.6 1529.4
1543(35) 0.000816 1166.6 1533.7
1588(35) 0.000816 1166.6 1537.2
1602(36) 0.000772 1167. 1540.
1572(35) 0.000816 1166.6 1541.8
1605(36) 0.000772 1167. 1543.
1545(35) 0.000816 1166.6 1543.6
1526(35) 0.000816 1166.6 1543.6
1524(35) 0.000816 1166.6 1543.1
1565(35) 0.000816 1166.6 1542.2
1541(35) 0.000816 1166.6 1541.0
1509(35) 0.000816 1166.6 1539.4
1521(35) 0.000816 1166.6 1537.5
1524(35) 0.000816 1166.6 1535.4
1538(35) 0.000816 1166.6 1533.1
1522(35) 0.000816 1166.6 1530.6
1525(35) 0.000816 1166.6 1527.8
1499(34) 0.000865 1166.7 1524.9
1484(34) 0.000865 1166.7 1521.8
1504(34) 0.000865 1166.7 1518.5
1489(34) 0.000865 1166.7 1514.9
1447(34) 0.000865 1166.7 1511.0
1494(34) 0.000865 1166.8 1506.8
1475(34) 0.000865 1166.8 1502.3
1488(34) 0.000865 1166.8 1497.5
1494(34) 0.000865 1166.9 1492.5
1460(34) 0.000865 1166.9 1487.1
1404(33) 0.000918 1167.0 1481.4
1436(34) 0.000865 1167.0 1475.5
1424(34) 0.000865 1167.1 1469.3
1449(34) 0.000865 1167.1 1463.0
1455(34) 0.000865 1167.2 1456.5
1442(34) 0.000865 1167.2 1449.8
1411(33) 0.000918 1167.3 1443.1
1446(34) 0.000865 1167.3 1436.3
1386(33) 0.000918 1167.4 1429.5
1398(33) 0.000918 1167.5 1422.7
1403(33) 0.000918 1167.5 1415.9
1404(33) 0.000918 1167.6 1409.2
1372(33) 0.000918 1167.7 1402.5
1342(33) 0.000918 1167.8 1396.0
1374(33) 0.000918 1167.8 1389.5
1362(33) 0.000918 1167.9 1383.2
1379(33) 0.000918 1168.0 1377.1
1339(33) 0.000918 1168.1 1371.1
1368(33) 0.000918 1168.2 1365.4
1311(32) 0.000977 1168.3 1359.8
1380(33) 0.000918 1168.4 1354.4
1354(33) 0.000918 1168.5 1349.3
1285(32) 0.000977 1168.6 1344.4
1336(32) 0.000977 1168.7 1339.7
1294(32) 0.000977 1168.8 1335.3
1289(32) 0.000977 1169.0 1331.1
1328(32) 0.000977 1169.1 1327.2
1301(32) 0.000977 1169.2 1323.6
1288(32) 0.000977 1169.3 1320.3
1327(32) 0.000977 1169.5 1317.3
1337(33) 0.000918 1169.6 1314.5
1301(32) 0.000977 1169.8 1312.1
1323(32) 0.000977 1169.9 1310.0
1355(33) 0.000918 1170.1 1308.2
1351(33) 0.000918 1170.2 1306.7
1308(32) 0.000977 1170.4 1305.6
1301(32) 0.000977 1170.5 1304.9
1327(32) 0.000977 1170.7 1304.5
1274(32) 0.000977 1170.9 1304.4
1286(32) 0.000977 1171.0 1304.8
1309(32) 0.000977 1171.2 1305.6
1298(32) 0.000977 1171.4 1306.7
1309(32) 0.000977 1171.6 1308.3
1346(33) 0.000918 1171.8 1310.3
1367(33) 0.000918 1172.0 1312.8
1358(33) 0.000918 1172.2 1315.6
1360(33) 0.000918 1172.4 1318.9
1309(32) 0.000977 1172.6 1322.7
1311(32) 0.000977 1172.8 1326.9
1321(32) 0.000977 1173.1 1331.5
1330(33) 0.000918 1173.3 1336.5
1363(33) 0.000918 1173.5 1342.0
1374(33) 0.000918 1173.7 1347.9
1365(33) 0.000918 1174.0 1354.2
1367(33) 0.000918 1174.2 1360.8
1369(33) 0.000918 1174.5 1367.8
1362(33) 0.000918 1174.7 1375.2
1390(33) 0.000918 1175.0 1382.9
1409(33) 0.000918 1175.3 1390.8
1432(34) 0.000865 1175.5 1399.0
1487(34) 0.000865 1175.8 1407.5
1469(34) 0.000865 1176.1 1416.1
1444(34) 0.000865 1176.4 1424.9
1427(34) 0.000865 1176.7 1433.7
1476(34) 0.000865 1177.0 1442.7
1479(34) 0.000865 1177.3 1451.7
1461(34) 0.000865 1177.6 1460.6
1448(34) 0.000865 1177.9 1469.5
1474(34) 0.000865 1178.3 1478.3
1470(34) 0.000865 1178.6 1486.9
1515(35) 0.000816 1178.9 1495.4
1506(35) 0.000816 1179.3 1503.7
1553(35) 0.000816 1179.6 1511.7
1555(35) 0.000816 1180.0 1519.4
1529(35) 0.000816 1180.3 1526.9
1522(35) 0.000816 1180.7 1534.0
1550(35) 0.000816 1181.1 1540.8
1569(35) 0.000816 1181.4 1547.3
1520(35) 0.000816 1181.8 1553.3
1558(35) 0.000816 1182.2 1559.0
1543(35) 0.000816 1182.6 1564.3
1580(35) 0.000816 1183.0 1569.1
1578(35) 0.000816 1183.4 1573.6
1589(36) 0.000772 1184. 1578.
1589(36) 0.000772 1184. 1581.
1583(35) 0.000816 1184.7 1584.6
1556(35) 0.000816 1185.2 1587.5
1593(36) 0.000772 1186. 1590.
1662(36) 0.000772 1186. 1592.
1621(36) 0.000772 1187. 1594.
1621(36) 0.000772 1187. 1596.
1620(36) 0.000772 1187. 1597.
1606(36) 0.000772 1188. 1598.
1597(36) 0.000772 1188. 1599.
1593(36) 0.000772 1189. 1600.
1614(36) 0.000772 1189. 1601.
1610(36) 0.000772 1190. 1601.
1594(36) 0.000772 1191. 1601.
1638(36) 0.000772 1191. 1601.
1650(36) 0.000772 1192. 1601.
1649(36) 0.000772 1192. 1600.
1649(36) 0.000772 1193. 1600.
1627(36) 0.000772 1193. 1599.
1580(35) 0.000816 1193.8 1597.4
1578(35) 0.000816 1194.4 1595.7
1583(35) 0.000816 1195.0 1593.8
1601(36) 0.000772 1196. 1591.
1605(36) 0.000772 1196. 1589.
1562(35) 0.000816 1196.8 1585.5
1529(35) 0.000816 1197.5 1581.9
1572(35) 0.000816 1198.1 1577.9
1607(36) 0.000772 1199. 1574.
1564(35) 0.000816 1199.4 1568.7
1523(35) 0.000816 1200.1 1563.4
1536(35) 0.000816 1200.7 1557.8
1584(35) 0.000816 1201.4 1551.8
1588(36) 0.000772 1202. 1546.
1593(36) 0.000772 1203. 1539.
1551(35) 0.000816 1203.5 1532.2
1540(35) 0.000816 1204.2 1525.3
1487(34) 0.000865 1204.9 1518.2
1513(35) 0.000816 1205.7 1511.0
1498(35) 0.000816 1206.4 1503.8
1509(35) 0.000816 1207.2 1496.5
1502(35) 0.000816 1208.0 1489.3
1472(34) 0.000865 1208.7 1482.1
1481(34) 0.000865 1209.5 1475.0
1463(34) 0.000865 1210.3 1468.1
1444(34) 0.000865 1211.1 1461.2
1442(34) 0.000865 1211.9 1454.6
1415(34) 0.000865 1212.8 1448.1
1423(34) 0.000865 1213.6 1441.8
1426(34) 0.000865 1214.5 1435.8
1402(33) 0.000918 1215.3 1430.0
1412(34) 0.000865 1216.2 1424.4
1385(33) 0.000918 1217.1 1419.0
1361(33) 0.000918 1218.0 1414.0
1372(33) 0.000918 1218.9 1409.2
1374(33) 0.000918 1219.8 1404.7
1370(33) 0.000918 1220.7 1400.5
1391(33) 0.000918 1221.7 1396.6
1381(33) 0.000918 1222.6 1393.0
1380(33) 0.000918 1223.6 1389.7
1360(33) 0.000918 1224.6 1386.7
1387(33) 0.000918 1225.6 1384.1
1382(33) 0.000918 1226.6 1381.8
1363(33) 0.000918 1227.6 1379.8
1367(33) 0.000918 1228.6 1378.2
1402(33) 0.000918 1229.6 1377.0
1378(27) 0.001372 1230.7 1376.1
1406(34) 0.000865 1231.7 1375.6
1401(34) 0.000865 1232.8 1375.5
1382(33) 0.000918 1233.9 1375.7
1411(34) 0.000865 1235.0 1376.3
1399(34) 0.000865 1236.1 1377.3
1384(33) 0.000918 1237.2 1378.7
1388(34) 0.000865 1238.4 1380.5
1366(33) 0.000918 1239.5 1382.6
1338(33) 0.000918 1240.7 1385.1
1358(33) 0.000918 1241.9 1388.0
1406(34) 0.000865 1243.1 1391.3
1410(34) 0.000865 1244.3 1394.9
1412(34) 0.000865 1245.5 1398.8
1404(34) 0.000865 1246.7 1403.2
1403(34) 0.000865 1248.0 1407.8
1440(34) 0.000865 1249.2 1412.8
1409(34) 0.000865 1250.5 1418.1
1396(34) 0.000865 1251.8 1423.8
1424(34) 0.000865 1253.1 1429.7
1437(34) 0.000865 1254.4 1435.9
1427(34) 0.000865 1255.7 1442.4
1460(34) 0.000865 1257.1 1449.2
1482(35) 0.000816 1258.4 1456.1
1484(35) 0.000816 1259.8 1463.3
1467(34) 0.000865 1261.2 1470.7
1428(34) 0.000865 1262.6 1478.3
1465(34) 0.000865 1264.0 1486.0
1530(35) 0.000816 1265.5 1493.8
1528(35) 0.000816 1266.9 1501.8
1500(35) 0.000816 1268.4 1509.8
1495(35) 0.000816 1269.9 1517.8
1505(35) 0.000816 1271.4 1525.8
1518(35) 0.000816 1272.9 1533.9
1524(35) 0.000816 1274.4 1541.8
1548(35) 0.000816 1276.0 1549.7
1519(35) 0.000816 1277.5 1557.5
1504(35) 0.000816 1279.1 1565.1
1541(35) 0.000816 1280.7 1572.5
1513(35) 0.000816 1282.3 1579.6
1546(35) 0.000816 1284.0 1586.5
1567(36) 0.000772 1286. 1593.
1496(35) 0.000816 1287.3 1599.3
1535(35) 0.000816 1289.0 1605.2
1581(36) 0.000772 1291. 1611.
1580(36) 0.000772 1292. 1616.
1563(36) 0.000772 1294. 1620.
1544(35) 0.000816 1295.9 1624.3
1570(36) 0.000772 1298. 1628.
1580(36) 0.000772 1299. 1631.
1567(36) 0.000772 1301. 1634.
1572(36) 0.000772 1303. 1636.
1605(36) 0.000772 1305. 1638.
1623(36) 0.000772 1307. 1639.
1622(36) 0.000772 1309. 1640.
1616(36) 0.000772 1311. 1640.
1614(36) 0.000772 1312. 1641.
1605(36) 0.000772 1314. 1640.
1614(36) 0.000772 1316. 1640.
1628(36) 0.000772 1318. 1639.
1653(37) 0.000730 1320. 1638.
1646(36) 0.000772 1322. 1637.
1635(36) 0.000772 1324. 1635.
1659(37) 0.000730 1326. 1634.
1673(37) 0.000730 1329. 1632.
1642(36) 0.000772 1331. 1631.
1659(37) 0.000730 1333. 1629.
1661(37) 0.000730 1335. 1627.
1626(36) 0.000772 1337. 1625.
1609(36) 0.000772 1339. 1624.
1599(36) 0.000772 1341. 1622.
1612(36) 0.000772 1344. 1621.
1565(36) 0.000772 1346. 1619.
1580(36) 0.000772 1348. 1618.
1603(36) 0.000772 1350. 1617.
1610(36) 0.000772 1353. 1616.
1628(36) 0.000772 1355. 1615.
1635(36) 0.000772 1357. 1614.
1615(36) 0.000772 1360. 1614.
1618(36) 0.000772 1362. 1614.
1617(36) 0.000772 1365. 1613.
1620(36) 0.000772 1367. 1613.
1634(36) 0.000772 1369. 1614.
1598(36) 0.000772 1372. 1614.
1581(36) 0.000772 1374. 1614.
1645(36) 0.000772 1377. 1615.
1634(36) 0.000772 1379. 1616.
1617(36) 0.000772 1382. 1616.
1622(36) 0.000772 1385. 1617.
1616(36) 0.000772 1387. 1618.
1631(36) 0.000772 1390. 1619.
1646(36) 0.000772 1393. 1621.
1649(36) 0.000772 1395. 1622.
1604(36) 0.000772 1398. 1623.
1610(36) 0.000772 1401. 1624.
1648(36) 0.000772 1404. 1625.
1617(36) 0.000772 1406. 1627.
1611(36) 0.000772 1409. 1628.
1614(36) 0.000772 1412. 1629.
1627(36) 0.000772 1415. 1630.
1586(36) 0.000772 1418. 1631.
1617(37) 0.000730 1421. 1632.
1656(37) 0.000730 1424. 1633.
1704(38) 0.000693 1427. 1634.
1673(37) 0.000730 1430. 1635.
1682(37) 0.000730 1433. 1636.
1647(37) 0.000730 1436. 1637.
1652(37) 0.000730 1439. 1637.
1694(38) 0.000693 1442. 1638.
1660(37) 0.000730 1445. 1639.
1666(37) 0.000730 1448. 1639.
1667(37) 0.000730 1451. 1640.
1643(37) 0.000730 1454. 1641.
1629(37) 0.000730 1458. 1642.
1646(37) 0.000730 1461. 1642.
1721(38) 0.000693 1464. 1643.
1734(38) 0.000693 1468. 1644.
1701(38) 0.000693 1471. 1645.
1650(37) 0.000730 1474. 1646.
1692(38) 0.000693 1478. 1647.
1690(38) 0.000693 1481. 1648.
1632(37) 0.000730 1485. 1649.
1711(38) 0.000693 1488. 1651.
1637(37) 0.000730 1492. 1652.
1653(37) 0.000730 1495. 1654.
1701(38) 0.000693 1499. 1655.
1656(37) 0.000730 1502. 1657.
1666(37) 0.000730 1506. 1659.
1684(37) 0.000730 1510. 1661.
1672(37) 0.000730 1513. 1664.
1685(38) 0.000693 1517. 1666.
1685(38) 0.000693 1521. 1669.
1711(38) 0.000693 1525. 1672.
1700(38) 0.000693 1528. 1674.
1700(38) 0.000693 1532. 1678.
1642(37) 0.000730 1536. 1681.
1674(37) 0.000730 1540. 1684.
1743(38) 0.000693 1544. 1688.
1738(38) 0.000693 1548. 1692.
1717(38) 0.000693 1552. 1696.
1722(38) 0.000693 1556. 1700.
1722(38) 0.000693 1560. 1705.
1708(38) 0.000693 1564. 1709.
1762(38) 0.000693 1569. 1714.
1775(38) 0.000693 1573. 1719.
1706(38) 0.000693 1577. 1724.
1733(38) 0.000693 1581. 1729.
1682(37) 0.000730 1585. 1734.
1667(37) 0.000730 1590. 1740.
1724(38) 0.000693 1594. 1746.
1706(38) 0.000693 1599. 1752.
1761(38) 0.000693 1603. 1758.
1779(38) 0.000693 1607. 1764.
1792(39) 0.000657 1612. 1770.
1757(38) 0.000693 1616. 1776.
1798(39) 0.000657 1621. 1783.
1793(39) 0.000657 1626. 1789.
1780(38) 0.000693 1630. 1796.
1754(38) 0.000693 1635. 1803.
1762(38) 0.000693 1640. 1810.
1816(39) 0.000657 1644. 1817.
1813(39) 0.000657 1649. 1824.
1818(39) 0.000657 1654. 1831.
1824(39) 0.000657 1659. 1838.
1812(39) 0.000657 1664. 1845.
1828(39) 0.000657 1669. 1852.
1850(39) 0.000657 1674. 1860.
1870(39) 0.000657 1679. 1867.
1861(39) 0.000657 1684. 1875.
1825(39) 0.000657 1689. 1882.
1894(40) 0.000625 1694. 1889.
1933(40) 0.000625 1699. 1897.
1950(40) 0.000625 1704. 1904.
1921(40) 0.000625 1709. 1912.
1880(40) . . .
1927(40) . . .
1916(40) . . .
1915(40) . . .
1940(40) . . .
1963(40) . . .
1976(40) . . .
1978(40) . . .
1957(40) . . .
1992(41) . . .
2024(41) . . .
2005(41) . . .
2017(41) . . .
2055(41) . . .
2049(41) . . .
2073(41) . . .
2067(41) . . .
2061(41) . . .
2093(42) . . .
2049(41) . . .
2087(42) . . .
2100(42) . . .
2102(42) . . .
2086(42) . . .
2130(42) . . .
2145(42) . . .
2180(61) . . .
2211(61) . . .
2259(62) . . .
2127(60) . . .
2243(62) . . .
2281(62) . . .
2222(61) . . .
2288(62) . . .
2256(62) . . .
2237(62) . . .
2211(61) . . .
2241(62) . . .
2202(61) . . .
2224(61) . . .
2269(62) . . .
2348(63) . . .
2312(63) . . .
2287(62) . . .
2264(62) . . .
2249(62) . . .
2262(62) . . .
2364(63) . . .
2362(63) . . .
2580(66) . . .
2461(64) . . .
2364(63) . . .
2442(64) . . .
2433(64) . . .
2453(64) . . .
2398(64) . . .
2382(63) . . .
2418(64) . . .
2572(66) . . .
2514(65) . . .
2540(65) . . .
2459(64) . . .
2552(66) . . .
2609(66) . . .
2453(64) . . .
2488(65) . . .
2553(66) . . .
2588(66) . . .
2564(66) . . .
2501(65) . . .
2518(65) . . .
2512(65) . . .
2592(66) . . .
2527(65) . . .
2590(66) . . .
2581(66) . . .
2639(67) . . .
2605(66) . . .
2572(66) . . .
2675(67) . . .
2718(67) . . .
2610(66) . . .
2648(67) . . .
2679(67) . . .
2689(67) . . .
2579(66) . . .
2612(66) . . .
2663(67) . . .
2666(67) . . .
2553(66) . . .
2617(66) . . .
2646(67) . . .
2602(66) . . .
2677(67) . . .
2543(65) . . .
2566(66) . . .
2799(68) . . .
2695(67) . . .
2705(67) . . .
2629(66) . . .
2621(66) . . .
2733(68) . . .
2716(67) . . .
2746(68) . . .
2743(68) . . .
2701(67) . . .
2677(67) . . .
2657(67) . . .
2659(67) . . .
2735(68) . . .
2755(68) . . .
2687(67) . . .
2738(68) . . .
2665(67) . . .
2783(68) . . .
2710(67) . . .
2746(68) . . .
2696(67) . . .
2739(68) . . .
2762(68) . . .
2732(68) . . .
2737(68) . . .
2853(69) . . .
2708(67) . . .
2702(67) . . .
2745(68) . . .
loop_
_gsas_i100_meas
100.00
41.40
69.09
0.09
0.00
0.61
6.80
4.16
8.65
0.00
12.35
3.84
0.33
0.45
8.67
1.29
6.04
2.73
3.18
6.49
0.04
0.28
0.19
0.12
0.20
0.77
0.75
0.97
4.31
2.31
1.14
1.35
0.61
8.83
0.80
0.14
2.98
0.14
1.80
0.00
0.54
0.00
0.35
0.63
0.03
1.14
0.97
0.19
0.92
0.37
0.02
1.55
0.75
0.01
1.28
0.66
0.13
1.38
0.05
3.41
1.04
0.68
2.47
0.21
0.66
0.62
0.00
0.06
0.37
1.86
0.01
0.07
1.27
1.18
1.60
0.86
0.37
0.47
0.44
0.21
0.49
1.01
1.75
0.44
0.06
0.07
0.19
0.53
0.29
0.01
0.22
0.04
0.09
0.56
1.03
2.75
2.96
0.22
0.02
1.22
0.11
0.00
0.84
0.56
1.45
1.66
0.15
0.23
1.17
0.11
0.18
0.02
0.00
0.97
0.41
0.13
0.15
1.77
0.18
1.01
0.10
0.37
0.27
0.02
0.62
3.19
0.43
0.01
0.03
0.09
0.83
0.34
0.00
2.32
0.49
0.05
0.03
0.22
0.26
0.08
0.53
0.03
0.14
0.01
0.45
0.92
0.00
0.03
0.01
0.53
0.09
0.34
0.69
0.43
0.58
0.20
0.55
0.27
0.01
0.12
0.58
0.11
0.00
0.53
0.00
0.63
0.85
0.01
0.26
0.17
0.04
0.01
0.11
0.03
0.06
0.46
0.03
3.74
0.25
0.14
0.00
0.15
0.14
0.42
0.62
0.30
0.02
0.29
0.03
0.51
0.03
0.00
0.12
0.01
0.30
0.10
0.09
0.27
0.05
0.55
0.00
0.25
0.70
0.10
0.21
0.08
0.15
0.00
0.00
0.00
0.46
0.07
1.05
0.06
0.03
0.01
2.71
0.01
0.08
0.01
0.03
0.05
0.93
1.89
1.29
0.06
0.13
0.23
0.01
0.40
0.17
0.01
0.60
1.55
0.35
0.23
0.08
0.08
0.00
0.19
0.00
0.25
0.01
0.00
0.07
0.04
0.62
0.28
0.30
0.21
1.25
1.40
1.11
0.01
0.91
0.00
0.01
0.01
1.33
0.00
0.09
0.58
0.05
1.80
0.13
0.09
0.00
0.07
0.52
0.01
0.18
2.94
0.07
0.03
0.33
0.01
0.98
0.00
0.10
0.00
0.10
0.73
0.15
0.44
1.85
0.33
1.21
0.00
0.30
0.64
0.71
0.10
0.20
0.08
0.25
0.01
0.35
0.05
0.13
0.27
0.66
0.00
0.63
0.07
0.77
0.07
0.74
0.14
0.03
1.02
0.74
0.00
0.04
0.01
0.30
0.01
0.02
0.08
0.10
0.42
0.00
1.24
0.31
0.47
0.01
0.02
0.62
0.11
0.46
1.30
2.40
0.51
0.55
0.90
0.00
0.00
0.31
0.00
0.04
0.41
0.17
0.68
0.34
0.35
0.04
0.10
0.37
0.11
0.02
0.02
0.37
0.58
0.41
0.09
0.22
0.01
1.17
0.00
1.33
0.02
0.83
0.00
0.70
0.27
0.00
0.16
0.51
0.37
0.00
0.12
2.39
0.26
0.21
0.00
0.68
0.64
0.00
0.75
0.05
0.41
0.25
0.00
0.27
0.00
0.91
0.01
0.02
0.13
0.06
0.21
0.27
0.79
0.04
0.85
0.14
1.77
1.49
0.03
0.19
0.57
0.39
0.32
0.01
0.02
0.04
0.00
0.08
0.02
0.01
0.00
1.33
0.15
0.53
0.03
0.60
0.59
0.05
0.08
0.38
0.39
0.32
0.01
0.97
0.02
0.10
0.01
0.04
0.01
0.00
0.02
0.60
0.33
0.22
0.00
0.03
0.02
0.75
0.00
0.48
0.41
0.04
0.05
0.18
0.48
0.04
0.03
0.37
0.46
1.80
0.09
0.49
0.03
1.15
0.19
0.03
0.61
0.03
0.08
0.94
1.05
0.55
0.00
0.21
0.10
0.00
0.14
0.01
0.60
1.37
0.16
0.35
1.23
0.14
0.00
0.05
0.05
0.09
0.43
0.04
0.10
0.03
0.16
0.76
0.34
0.43
0.33
0.55
0.27
0.21
0.21
0.22
0.04
0.19
0.12
0.11
0.22
1.23
0.34
0.05
0.06
0.73
0.01
0.36
0.32
0.79
0.05
0.78
0.03
0.02
0.33
0.01
0.32
0.00
0.22
0.01
0.04
1.05
0.01
0.01
1.08
0.08
0.03
0.60
0.28
0.07
0.08
0.04
1.45
0.20
0.03
1.14
1.27
0.06
0.03
0.62
0.24
0.55
0.55
0.01
0.03
0.16
0.26
0.10
0.06
2.44
0.40
0.04
0.01
0.08
0.16
0.03
0.02
0.31
0.06
0.39
0.65
0.06
0.03
0.19
1.77
2.15
0.08
0.24
0.68
0.01
1.12
0.40
0.18
0.25
0.09
0.16
0.01
0.30
0.17
0.48
0.73
0.09
0.23
0.01
0.02
0.00
0.07
0.02
0.10
2.91
0.05
0.00
1.37
0.00
1.16
0.64
0.55
0.75
0.01
0.27
0.67
0.29
0.01
0.43
0.01
0.12
0.31
0.03
0.16
0.12
0.11
0.00
0.00
0.00
1.40
4.00
1.89
0.11
3.21
0.02
0.09
0.16
0.02
0.24
0.01
0.94
0.02
0.02
0.53
0.02
0.17
0.02
1.16
0.95
0.60
0.99
0.06
0.28
0.02
0.60
0.15
0.36
0.89
0.09
0.00
0.02
0.42
0.00
2.33
0.34
0.40
1.10
2.30
0.38
0.94
1.44
1.67
0.39
0.00
0.05
0.02
0.21
2.80
0.00
0.32
0.87
0.01
0.30
0.29
1.68
4.98
