#------------------------------------------------------------------------------
#$Date: 2021-02-05 01:22:25 +0200 (Fri, 05 Feb 2021) $
#$Revision: 261709 $
#$URL: file:///home/coder/svn-repositories/cod/cif/1/55/88/1558875.cif $
#------------------------------------------------------------------------------
#
# This file is available in the Crystallography Open Database (COD),
# http://www.crystallography.net/
#
# All data on this site have been placed in the public domain by the
# contributors.
#
data_1558875
loop_
_publ_author_name
'Cadman, Laura K.'
'Mahon, Mary F.'
'Burrows, Andrew D.'
_publ_section_title
;
 Inclusion of viologen cations leads to switchable metal-organic
 frameworks.
;
_journal_name_full               'Faraday discussions'
_journal_page_first              414
_journal_page_last               430
_journal_paper_doi               10.1039/c9fd00137a
_journal_volume                  225
_journal_year                    2021
_chemical_formula_moiety         '0.25(C128 H64 O64 Zn12), C9.6 H11.92 N0.8'
_chemical_formula_sum            'C44.2 H35.32 N2.6 O16.6 Zn3'
_chemical_formula_weight         1064.58
_space_group_crystal_system      monoclinic
_space_group_IT_number           15
_space_group_name_Hall           '-C 2yc'
_space_group_name_H-M_alt        'C 1 2/c 1'
_atom_sites_solution_hydrogens   geom
_atom_sites_solution_primary     iterative
_audit_creation_date             2016-03-22
_audit_creation_method           'CrysAlisPro 1.171.38.41 (Rigaku OD, 2015)'
_audit_update_record
;
2019-12-04 deposited with the CCDC.	2020-08-19 downloaded from the CCDC.
;
_cell_angle_alpha                90
_cell_angle_beta                 96.453(3)
_cell_angle_gamma                90
_cell_formula_units_Z            4
_cell_length_a                   32.7998(10)
_cell_length_b                   9.7204(4)
_cell_length_c                   18.3042(6)
_cell_measurement_reflns_used    4359
_cell_measurement_temperature    150.00(10)
_cell_measurement_theta_max      71.3700
_cell_measurement_theta_min      4.7460
_cell_volume                     5798.9(4)
_computing_cell_refinement       'CrysAlisPro 1.171.38.41 (Rigaku OD, 2015)'
_computing_data_collection       'CrysAlisPro 1.171.38.41 (Rigaku OD, 2015)'
_computing_data_reduction        'CrysAlisPro 1.171.38.41 (Rigaku OD, 2015)'
_computing_molecular_graphics    'Olex2 (Dolomanov et al., 2009)'
_computing_publication_material  'Olex2 (Dolomanov et al., 2009)'
_computing_structure_refinement  'ShelXL (Sheldrick, 2015)'
_computing_structure_solution    'olex2.solve (Bourhis et al., 2015)'
_diffrn_ambient_environment      N~2~
_diffrn_ambient_temperature      150.00(10)
_diffrn_detector                 'CCD plate'
_diffrn_detector_area_resol_mean 8.1150
_diffrn_detector_type            EosS2
_diffrn_measured_fraction_theta_full 0.998
_diffrn_measured_fraction_theta_max 0.975
_diffrn_measurement_device       'four-circle diffractometer'
_diffrn_measurement_device_type  'SuperNova, Dual, Cu at zero, EosS2'
_diffrn_measurement_method       '\w scans'
_diffrn_radiation_monochromator  mirror
_diffrn_radiation_probe          x-ray
_diffrn_radiation_type           'Cu K\a'
_diffrn_radiation_wavelength     1.54184
_diffrn_reflns_av_R_equivalents  0.0366
_diffrn_reflns_av_unetI/netI     0.0656
_diffrn_reflns_Laue_measured_fraction_full 0.998
_diffrn_reflns_Laue_measured_fraction_max 0.975
_diffrn_reflns_limit_h_max       39
_diffrn_reflns_limit_h_min       -40
_diffrn_reflns_limit_k_max       11
_diffrn_reflns_limit_k_min       -7
_diffrn_reflns_limit_l_max       22
_diffrn_reflns_limit_l_min       -18
_diffrn_reflns_number            13781
_diffrn_reflns_point_group_measured_fraction_full 0.998
_diffrn_reflns_point_group_measured_fraction_max 0.975
_diffrn_reflns_theta_full        67.684
_diffrn_reflns_theta_max         72.85
_diffrn_reflns_theta_min         2.71
_diffrn_source                   'micro-focus sealed X-ray tube'
_diffrn_source_type              'SuperNova (Cu) X-ray Source'
_exptl_absorpt_correction_T_max  1.00000
_exptl_absorpt_correction_T_min  0.84472
_exptl_absorpt_correction_type   multi-scan
_exptl_absorpt_process_details
;
CrysAlisPro 1.171.38.41 (Rigaku Oxford Diffraction, 2015)
Empirical absorption correction using spherical harmonics,
 implemented in SCALE3 ABSPACK scaling algorithm.
;
_exptl_crystal_colour            orange-yellow
_exptl_crystal_density_diffrn    1.219
_exptl_crystal_description       block
_exptl_crystal_F_000             2166
_exptl_crystal_size_max          0.104
_exptl_crystal_size_mid          0.073
_exptl_crystal_size_min          0.030
_refine_diff_density_max         1.311
_refine_diff_density_min         -0.689
_refine_diff_density_rms         0.114
_refine_ls_extinction_method     none
_refine_ls_goodness_of_fit_ref   1.055
_refine_ls_hydrogen_treatment    constr
_refine_ls_matrix_type           full
_refine_ls_number_parameters     292
_refine_ls_number_reflns         5632
_refine_ls_number_restraints     77
_refine_ls_restrained_S_all      1.077
_refine_ls_R_factor_all          0.0800
_refine_ls_R_factor_gt           0.0655
_refine_ls_shift/su_max          0.001
_refine_ls_shift/su_mean         0.000
_refine_ls_structure_factor_coef Fsqd
_refine_ls_weighting_details
'w=1/[\s^2^(Fo^2^)+(0.1170P)^2^+8.6579P] where P=(Fo^2^+2Fc^2^)/3'
_refine_ls_weighting_scheme      calc
_refine_ls_wR_factor_gt          0.1912
_refine_ls_wR_factor_ref         0.2023
_reflns_Friedel_coverage         0.000
_reflns_number_gt                4409
_reflns_number_total             5632
_reflns_threshold_expression     'I > 2\s(I)'
_iucr_refine_instructions_details
;
TITL s16lkc21 in C2/c #15
REM reset to C2/c #15
REM s16lkc21 in C2/c #15
REM 283 parameters refined using 94 restraints
REM Highest difference peak 2.125, deepest hole -0.850, 1-sigma level 0.285
CELL 1.54184 32.799793 9.720396 18.304219 90 96.4526 90
ZERR 4 0.000977 0.00036 0.000622 0 0.0033 0
LATT 7
SYMM -X,+Y,0.5-Z
SFAC C H N O Zn
UNIT 176.8 141.28 10.4 66.4 12
SADI 0.005 O1 C1 O2 C1 O7 C13 O8 C13
SADI 0.005 O8 C15 O7 C16 O1 C3 O2 C7
SADI 0.005 O8 C14 O1 C2
SADI 0.005 C16 C13 C15 C13 C7 C1
SADI 0.005 N1 C22A N1 C22
SIMU 0.005 0.003 2 C17 C18 C19 C20 C21 N1 C22 C22A
ISOR 0.01 0.01 C22
 
L.S. 18
PLAN  15
TEMP -123
GRID
BOND $H
CONF
ABIN
fmap 2
acta
MERG 2
OMIT 2 0 2
OMIT 2 2 1
OMIT 4 0 2
OMIT 5 1 2
OMIT -3 1 1
OMIT 0 2 0
OMIT 3 1 1
REM <olex2.extras>
REM <HklSrc "%.\\s16lkc21.hkl">
REM </olex2.extras>
 
WGHT    0.117000    8.657901
FVAR       1.74397
ZN1   5    0.250000    0.750000    0.500000    10.50000    0.01925    0.02309 =
         0.01898    0.00086    0.00706    0.00245
ZN2   5    0.348016    0.702065    0.524850    11.00000    0.02066    0.02922 =
         0.02428   -0.00068    0.00698    0.00705
O1    4    0.341632    0.825763    0.606662    11.00000    0.02777    0.04864 =
         0.02894   -0.01536    0.01008    0.00013
O2    4    0.273166    0.817441    0.601454    11.00000    0.02856    0.03426 =
         0.02025   -0.00466    0.00770    0.00288
O3    4    0.284990    1.118979    0.945662    11.00000    0.03244    0.02704 =
         0.02811   -0.00709    0.01313   -0.00049
O4    4    0.348096    1.193898    0.932120    11.00000    0.02872    0.06490 =
         0.02867   -0.01773    0.00991   -0.00819
O5    4    0.297588    0.592186    0.502732    11.00000    0.02458    0.02130 =
         0.03470    0.00153    0.00693    0.00540
O6    4    0.323181    0.482294    0.604994    11.00000    0.04967    0.03504 =
         0.05844    0.00962   -0.01693   -0.00659
PART 2
O7    4    0.405536    0.652640    0.547828    11.00000    0.03610    0.07362 =
         0.06653    0.01301    0.01453    0.02694
O8    4    0.388303    0.500856    0.459979    11.00000    0.03563    0.13267 =
         0.12194   -0.03566    0.00154    0.01713
PART 0
C1    1    0.307949    0.849529    0.631213    11.00000    0.03347    0.03457 =
         0.02218   -0.00225    0.01012    0.00085
C2    1    0.309575    0.925207    0.703188    11.00000    0.02878    0.05157 =
         0.02724   -0.00868    0.00950   -0.00111
C3    1    0.346674    0.976992    0.736518    11.00000    0.02861    0.10117 =
         0.04260   -0.03470    0.01907   -0.01202
AFIX  43
H3    2    0.370896    0.965619    0.713162    11.00000   -1.20000
AFIX   0
C4    1    0.348616    1.043942    0.802406    11.00000    0.02890    0.11120 =
         0.04775   -0.04381    0.01437   -0.01591
AFIX  43
H4    2    0.373913    1.081494    0.823844    11.00000   -1.20000
AFIX   0
C5    1    0.313359    1.057256    0.838357    11.00000    0.03061    0.04995 =
         0.02626   -0.00996    0.00969    0.00143
C6    1    0.276463    1.004736    0.805184    11.00000    0.02446    0.05365 =
         0.03185   -0.00841    0.01235   -0.00506
AFIX  43
H6    2    0.252280    1.013439    0.828917    11.00000   -1.20000
AFIX   0
C7    1    0.274857    0.940744    0.738674    11.00000    0.02460    0.05226 =
         0.03000   -0.01390    0.00764   -0.00382
AFIX  43
H7    2    0.249373    0.906165    0.716294    11.00000   -1.20000
AFIX   0
C8    1    0.315593    1.128544    0.910447    11.00000    0.02536    0.04012 =
         0.02742   -0.00620    0.00781    0.00244
C9    1    0.299753    0.485838    0.546829    11.00000    0.02979    0.02829 =
         0.04137    0.00316    0.00539    0.00583
C10   1    0.273247    0.365003    0.522813    11.00000    0.02762    0.02222 =
         0.03911    0.00171    0.00851    0.00624
C11   1    0.270764    0.254001    0.570805    11.00000    0.04113    0.03346 =
         0.03392    0.00344   -0.00067    0.00412
AFIX  43
H11   2    0.284924    0.256886    0.618996    11.00000   -1.20000
AFIX   0
C12   1    0.252691    0.361189    0.452630    11.00000    0.04666    0.02179 =
         0.03488    0.00599    0.00808    0.00199
AFIX  43
H12   2    0.254503    0.436864    0.420311    11.00000   -1.20000
AFIX   0
PART 2
C13   1    0.413642    0.563880    0.503134    11.00000    0.03727    0.06857 =
         0.07855   -0.00175    0.00672    0.01722
C14   1    0.458730    0.530418    0.502579    11.00000    0.02908    0.08088 =
         0.07590   -0.00331    0.00889    0.01873
C15   1    0.469517    0.408409    0.470478    11.00000    0.03660    0.07393 =
         0.11637   -0.02310    0.00519    0.00586
AFIX  43
H15   2    0.449116    0.345767    0.450016    11.00000   -1.20000
AFIX   0
C16   1    0.488379    0.620247    0.530989    11.00000    0.04379    0.06834 =
         0.09769   -0.01672    0.01545    0.01908
AFIX  43
H16   2    0.480496    0.703943    0.552230    11.00000   -1.20000
AFIX  66
 
PART 0
N1    3    0.396573    0.438595    0.772298    10.40000    0.17042    0.24861 =
         0.08863    0.04764   -0.01251   -0.05191
PART 2
AFIX  13
H1    2    0.380069    0.362834    0.746559    10.36000   -1.20000
AFIX  65
PART 0
C21   1    0.425895    0.371044    0.820082    10.80000    0.17592    0.25388 =
         0.10240    0.04520   -0.00348   -0.05183
AFIX  43
H21   2    0.417658    0.315995    0.858722    10.80000   -1.20000
AFIX  65
C20   1    0.467269    0.384036    0.811329    10.80000    0.18083    0.26108 =
         0.10405    0.04510   -0.00199   -0.04895
AFIX  43
H20   2    0.487309    0.337867    0.843988    10.80000   -1.20000
AFIX  65
C19   1    0.479321    0.464581    0.754794    10.80000    0.18020    0.26604 =
         0.10539    0.04845   -0.00803   -0.05073
C18   1    0.449999    0.532133    0.707009    10.80000    0.17540    0.27348 =
         0.10514    0.04982   -0.01565   -0.05417
AFIX  43
H18   2    0.458236    0.587182    0.668370    10.80000   -1.20000
AFIX  65
C17   1    0.408625    0.519142    0.715761    10.80000    0.17482    0.26823 =
         0.10250    0.04970   -0.01812   -0.05600
AFIX  43
H17   2    0.388585    0.565311    0.683103    10.80000   -1.20000
AFIX   0
PART 1
C22   1    0.352443    0.445722    0.782331    10.44000    0.16969    0.24309 =
         0.08870    0.04645   -0.01138   -0.05079
AFIX  33
H22A  2    0.337817    0.498518    0.741940    10.44000   -1.50000
H22B  2    0.341115    0.352447    0.782507    10.44000   -1.50000
H22C  2    0.349196    0.490918    0.829185    10.44000   -1.50000
AFIX   0
PART 0
PART 2
C22A  1    0.365554    0.538802    0.791908    10.36000    0.17096    0.24611 =
         0.08714    0.04841   -0.01259   -0.05086
AFIX  33
H22D  2    0.348913    0.569904    0.747135    10.36000   -1.50000
H22E  2    0.347803    0.494862    0.824706    10.36000   -1.50000
H22F  2    0.379427    0.617926    0.816854    10.36000   -1.50000
AFIX   0
HKLF 4
 
REM  s16lkc21 in C2/c #15
REM R1 =  0.0655 for    4409 Fo > 4sig(Fo)  and  0.0800 for all    5632 data
REM    292 parameters refined using     77 restraints
 
END  
     
WGHT      0.1171      8.5877 

REM Highest difference peak  1.311,  deepest hole -0.689,  1-sigma level  0.114
Q1    1   0.3274  0.5917  0.7998  11.00000  0.05    1.31
Q2    1   0.3935  0.6445  0.7483  11.00000  0.05    1.09
Q3    1   0.3955  0.4727  0.7673  11.00000  0.05    1.05
Q4    1   0.4458  0.4556  0.7268  11.00000  0.05    0.93
Q5    1   0.4451  0.4365  0.7022  11.00000  0.05    0.92
Q6    1   0.3848  0.4057  0.7797  11.00000  0.05    0.90
Q7    1   0.4254  0.3697  0.7569  11.00000  0.05    0.87
Q8    1   0.3720  0.5641  0.8066  11.00000  0.05    0.79
Q9    1   0.4362  0.6220  0.7529  11.00000  0.05    0.74
Q10   1   0.4858  0.4761  0.7112  11.00000  0.05    0.62
Q11   1   0.3543  0.6560  0.8239  11.00000  0.05    0.57
Q12   1   0.4918  0.4324  0.7393  11.00000  0.05    0.56
Q13   1   0.4232  0.7629  0.5494  11.00000  0.05    0.56
Q14   1   0.3215  0.6952  0.5088  11.00000  0.05    0.55
Q15   1   0.3784  0.6992  0.5370  11.00000  0.05    0.54

  REM The information below was added by Olex2.
  REM
  REM R1 = 0.0655 for 4409 Fo > 4sig(Fo) and 0.0800 for all 13781 data
  REM n/a parameters refined using n/a restraints
  REM Highest difference peak 1.31, deepest hole -0.69
  REM Mean Shift 0, Max Shift -0.001.

  REM +++ Tabular Listing of Refinement Information +++
  REM R1_all = 0.0800
  REM R1_gt = 0.0655
  REM wR_ref = 0.2023
  REM GOOF = 1.055
  REM Shift_max = -0.001
  REM Shift_mean = 0
  REM Reflections_all = 13781
  REM Reflections_gt = 4409
  REM Parameters = n/a
  REM Hole = -0.69
  REM Peak = 1.31
  REM Flack = n/a

  
;
_cod_data_source_file            c9fd00137a2.cif
_cod_data_source_block           s16lkc21-2-ht
_cod_depositor_comments
'Adding full bibliography for 1558875--1558878.cif.'
_cod_original_cell_volume        5798.9(3)
_cod_original_formula_sum        'C44.20 H35.32 N2.60 O16.60 Zn3'
_cod_database_code               1558875
_shelxl_version_number           2014-3
_shelx_space_group_comment
;
The symmetry employed for this shelxl refinement is uniquely defined
by the following loop, which should always be used as a source of
symmetry information in preference to the above space-group names.
They are only intended as comments.
;
_olex2_refinement_description
;
1. Fixed Uiso
 At 1.2 times of:
  All C(H) groups, All N(H) groups
 At 1.5 times of:
  All C(H,H,H) groups
2. Restrained distances
 O1-C1 \\sim O2-C1 \\sim O7-C13 \\sim O8-C13
 with sigma of 0.005
 O8-C15 \\sim O7-C16 \\sim O1-C3 \\sim O2-C7
 with sigma of 0.005
 O8-C14 \\sim O1-C2
 with sigma of 0.005
 C16-C13 \\sim C15-C13 \\sim C7-C1
 with sigma of 0.005
 N1-C22A \\sim N1-C22
 with sigma of 0.005
3. Uiso/Uaniso restraints and constraints
C17 \\sim C18 \\sim C19 \\sim C20 \\sim C21 \\sim N1 \\sim C22 \\sim C22A:
within 2A with sigma of 0.005 and sigma for terminal atoms of 0.003
Uanis(C22) \\sim Ueq: with sigma of 0.01 and sigma for terminal atoms of 0.01
4. Others
 Fixed Sof: N1(0.4) H1(0.36) C21(0.8) H21(0.8) C20(0.8) H20(0.8) C19(0.8)
 C18(0.8) H18(0.8) C17(0.8) H17(0.8) C22(0.44) H22A(0.44) H22B(0.44) H22C(0.44)
 C22A(0.36) H22D(0.36) H22E(0.36) H22F(0.36)
5.a Ternary CH refined with riding coordinates:
 N1(H1)
5.b Me refined with riding coordinates:
 C22(H22A,H22B,H22C), C22A(H22D,H22E,H22F)
5.c Aromatic/amide H refined with riding coordinates:
 C3(H3), C4(H4), C6(H6), C7(H7), C11(H11), C12(H12), C15(H15), C16(H16),
 C21(H21), C20(H20), C18(H18), C17(H17)
5.d Fitted hexagon refined as free rotating group:
 N1(C21,C20,C19,C18,C17)
;
_shelx_fab_checksum              5584
_shelx_fab_file
;
-40 0 2 -0.6716 0.0000
-40 0 4 1.4222 0.0000
-40 0 6 2.4464 0.0000
-40 2 2 2.5839 0.0000
-40 2 3 0.5326 0.0000
-39 1 1 -1.2893 0.0000
-39 1 2 -0.3111 0.0000
-39 1 3 -0.6035 0.0000
-39 1 4 -1.3279 0.0000
-39 1 5 0.7037 0.0000
-39 1 6 -1.0486 0.0000
-39 1 7 -2.7030 0.0000
-39 3 1 0.5049 0.0000
-39 3 2 -0.8522 0.0000
-39 3 3 -0.4094 0.0000
-39 3 4 0.4039 0.0000
-38 0 2 -0.1112 0.0000
-38 0 4 -1.7028 0.0000
-38 0 6 2.4713 0.0000
-38 0 8 -1.5716 0.0000
-38 2 1 -0.4151 0.0000
-38 2 2 0.4924 0.0000
-38 2 3 1.1289 0.0000
-38 2 4 2.4304 0.0000
-38 2 5 1.2488 0.0000
-38 2 6 -2.9940 0.0000
-38 2 7 3.7559 0.0000
-38 2 8 -1.9397 0.0000
-38 4 1 -0.0232 0.0000
-38 4 2 -3.0786 0.0000
-38 4 3 -0.4680 0.0000
-37 1 1 -0.4593 0.0000
-37 1 2 2.3341 0.0000
-37 1 3 -2.1354 0.0000
-37 1 4 -0.1013 0.0000
-37 1 5 -2.6499 0.0000
-37 1 6 0.4298 0.0000
-37 1 7 -2.0788 0.0000
-37 1 8 1.6967 0.0000
-37 1 9 -0.8710 0.0000
-37 1 10 2.2572 0.0000
-37 3 1 0.1392 0.0000
-37 3 2 0.6962 0.0000
-37 3 3 2.5351 0.0000
-37 3 4 -0.4596 0.0000
-37 3 5 -2.5668 0.0000
-37 3 6 3.2597 0.0000
-37 3 7 -3.9904 0.0000
-36 0 2 -2.4767 0.0000
-36 0 4 -1.6980 0.0000
-36 0 6 1.4105 0.0000
-36 0 8 -1.0415 0.0000
-36 0 10 -2.6433 0.0000
-36 2 1 2.4238 0.0000
-36 2 2 -4.0592 0.0000
-36 2 3 -0.4844 0.0000
-36 2 4 2.1126 0.0000
-36 2 5 2.9198 0.0000
-36 2 6 -2.6920 0.0000
-36 2 7 2.6403 0.0000
-36 2 8 -0.6647 0.0000
-36 2 9 -0.2610 0.0000
-36 2 10 -1.0130 0.0000
-36 4 1 2.2983 0.0000
-36 4 2 2.0868 0.0000
-36 4 3 -0.1549 0.0000
-36 4 4 -0.5093 0.0000
-36 4 5 2.4383 0.0000
-36 4 6 0.5420 0.0000
-35 1 1 0.2768 0.0000
-35 1 2 3.4601 0.0000
-35 1 3 -0.5791 0.0000
-35 1 4 0.9487 0.0000
-35 1 5 -3.0334 0.0000
-35 1 6 0.6663 0.0000
-35 1 7 0.9121 0.0000
-35 1 8 1.4440 0.0000
-35 1 9 0.2035 0.0000
-35 1 10 2.1823 0.0000
-35 1 11 0.5447 0.0000
-35 1 12 0.8095 0.0000
-35 3 1 -4.1156 0.0000
-35 3 2 -0.6044 0.0000
-35 3 3 1.8286 0.0000
-35 3 4 -3.2584 0.0000
-35 3 5 -0.6126 0.0000
-35 3 6 0.1420 0.0000
-35 3 7 -2.9467 0.0000
-35 3 8 -0.9929 0.0000
-35 3 9 1.1630 0.0000
-35 3 10 -2.6640 0.0000
-35 3 11 -0.5894 0.0000
-35 5 1 -1.3523 0.0000
-35 5 2 0.1453 0.0000
-35 5 3 -2.2517 0.0000
-35 5 4 0.3384 0.0000
-35 5 5 -1.5400 0.0000
-34 0 2 -2.1911 0.0000
-34 0 4 -1.5919 0.0000
-34 0 6 -2.2694 0.0000
-34 0 8 -3.8031 0.0000
-34 0 10 0.6064 0.0000
-34 0 12 1.9582 0.0000
-34 2 1 0.8299 0.0000
-34 2 2 -2.6976 0.0000
-34 2 3 -0.2556 0.0000
-34 2 4 2.0520 0.0000
-34 2 5 2.1943 0.0000
-34 2 6 0.4731 0.0000
-34 2 7 0.7301 0.0000
-34 2 8 1.7534 0.0000
-34 2 9 -1.3849 0.0000
-34 2 10 -0.0974 0.0000
-34 2 11 -0.2841 0.0000
-34 2 12 -2.3390 0.0000
-34 2 13 -0.0368 0.0000
-34 4 1 3.6417 0.0000
-34 4 2 4.4877 0.0000
-34 4 3 -0.5356 0.0000
-34 4 4 2.6217 0.0000
-34 4 5 1.7154 0.0000
-34 4 6 2.3804 0.0000
-34 4 7 -0.3109 0.0000
-34 4 8 0.0279 0.0000
-34 4 9 -0.8265 0.0000
-34 4 10 2.8510 0.0000
-34 4 11 0.8514 0.0000
-34 6 1 0.1686 0.0000
-34 6 2 -2.9100 0.0000
-34 6 3 0.5658 0.0000
-34 6 4 -0.8988 0.0000
-33 1 1 -1.1785 0.0000
-33 1 2 3.1110 0.0000
-33 1 3 1.8104 0.0000
-33 1 4 0.1741 0.0000
-33 1 5 -2.5956 0.0000
-33 1 6 1.4515 0.0000
-33 1 7 -1.0167 0.0000
-33 1 8 2.8432 0.0000
-33 1 9 1.1373 0.0000
-33 1 10 0.4270 0.0000
-33 1 11 2.1378 0.0000
-33 1 12 -0.2909 0.0000
-33 1 13 -1.2303 0.0000
-33 1 14 0.6132 0.0000
-33 3 1 -4.2273 0.0000
-33 3 2 -3.5831 0.0000
-33 3 3 0.2896 0.0000
-33 3 4 -4.0233 0.0000
-33 3 5 0.1382 0.0000
-33 3 6 -3.2880 0.0000
-33 3 7 -2.0071 0.0000
-33 3 8 -2.9338 0.0000
-33 3 9 1.6244 0.0000
-33 3 10 -3.7291 0.0000
-33 3 11 -1.0417 0.0000
-33 3 12 3.8921 0.0000
-33 3 13 0.4749 0.0000
-33 5 1 3.6320 0.0000
-33 5 2 0.3292 0.0000
-33 5 3 0.5239 0.0000
-33 5 4 1.3293 0.0000
-33 5 5 -1.5702 0.0000
-33 5 6 -0.8892 0.0000
-33 5 7 4.0128 0.0000
-33 5 8 1.4387 0.0000
-33 5 9 1.2200 0.0000
-33 5 10 -2.5481 0.0000
-33 5 11 -1.7570 0.0000
-33 7 1 -1.0589 0.0000
-32 0 2 -1.8323 0.0000
-32 0 4 -2.7099 0.0000
-32 0 6 -2.3274 0.0000
-32 0 8 -4.8665 0.0000
-32 0 10 1.0981 0.0000
-32 0 12 0.2111 0.0000
-32 0 14 1.1527 0.0000
-32 2 1 1.2818 0.0000
-32 2 2 0.5075 0.0000
-32 2 3 1.2069 0.0000
-32 2 4 1.7278 0.0000
-32 2 5 1.2592 0.0000
-32 2 6 1.4869 0.0000
-32 2 7 4.4494 0.0000
-32 2 8 0.7928 0.0000
-32 2 9 0.5716 0.0000
-32 2 10 1.2037 0.0000
-32 2 11 1.0221 0.0000
-32 2 12 -0.5806 0.0000
-32 2 13 -1.1568 0.0000
-32 2 14 -0.1615 0.0000
-32 2 15 -4.2149 0.0000
-32 4 1 -1.5418 0.0000
-32 4 2 1.6663 0.0000
-32 4 3 -1.2332 0.0000
-32 4 4 2.4991 0.0000
-32 4 5 -0.9192 0.0000
-32 4 6 1.3562 0.0000
-32 4 7 -0.7460 0.0000
-32 4 8 -0.7678 0.0000
-32 4 9 -1.7283 0.0000
-32 4 10 2.9531 0.0000
-32 4 11 0.7928 0.0000
-32 4 12 -2.7518 0.0000
-32 4 13 1.4423 0.0000
-32 6 1 -1.9304 0.0000
-32 6 2 -1.6807 0.0000
-32 6 3 -0.4824 0.0000
-32 6 4 -0.0024 0.0000
-32 6 5 0.3359 0.0000
-32 6 6 0.8482 0.0000
-32 6 7 -1.5255 0.0000
-32 6 8 -0.1064 0.0000
-32 6 9 -3.4360 0.0000
-32 6 10 0.1248 0.0000
-31 1 1 0.6088 0.0000
-31 1 2 -0.6850 0.0000
-31 1 3 -2.2732 0.0000
-31 1 4 0.6502 0.0000
-31 1 5 -1.0268 0.0000
-31 1 6 0.6759 0.0000
-31 1 7 -3.0850 0.0000
-31 1 8 1.7698 0.0000
-31 1 9 -0.7758 0.0000
-31 1 10 -0.7554 0.0000
-31 1 11 0.7593 0.0000
-31 1 12 0.0070 0.0000
-31 1 13 -1.6649 0.0000
-31 1 14 -0.5920 0.0000
-31 1 15 4.1084 0.0000
-31 3 1 1.4883 0.0000
-31 3 2 -0.0525 0.0000
-31 3 3 -1.2518 0.0000
-31 3 4 -1.9611 0.0000
-31 3 5 0.1316 0.0000
-31 3 6 -0.6067 0.0000
-31 3 7 -4.0595 0.0000
-31 3 8 0.4619 0.0000
-31 3 9 0.8117 0.0000
-31 3 10 -1.9487 0.0000
-31 3 11 0.2493 0.0000
-31 3 12 1.1918 0.0000
-31 3 13 1.3009 0.0000
-31 3 14 -1.4423 0.0000
-31 3 15 0.7806 0.0000
-31 5 1 2.8826 0.0000
-31 5 2 0.7964 0.0000
-31 5 3 1.5944 0.0000
-31 5 4 1.4616 0.0000
-31 5 5 -0.7959 0.0000
-31 5 6 -0.3936 0.0000
-31 5 7 1.7495 0.0000
-31 5 8 1.0280 0.0000
-31 5 9 0.7904 0.0000
-31 5 10 -1.0353 0.0000
-31 5 11 -2.1297 0.0000
-31 5 12 0.4317 0.0000
-31 5 13 -0.7644 0.0000
-31 7 1 -0.8669 0.0000
-31 7 2 -1.4980 0.0000
-31 7 3 0.5742 0.0000
-31 7 4 -2.6620 0.0000
-31 7 5 2.8081 0.0000
-31 7 6 -1.1076 0.0000
-31 7 7 -1.9261 0.0000
-31 7 8 -0.6661 0.0000
-30 0 2 2.3840 0.0000
-30 0 4 1.8331 0.0000
-30 0 6 -3.2318 0.0000
-30 0 8 -0.2909 0.0000
-30 0 10 1.9336 0.0000
-30 0 12 -3.2998 0.0000
-30 0 14 1.7359 0.0000
-30 0 16 2.5742 0.0000
-30 2 1 -2.1078 0.0000
-30 2 2 0.4848 0.0000
-30 2 3 1.6671 0.0000
-30 2 4 0.0109 0.0000
-30 2 5 2.4137 0.0000
-30 2 6 2.0720 0.0000
-30 2 7 4.8166 0.0000
-30 2 8 -2.1856 0.0000
-30 2 9 1.9567 0.0000
-30 2 10 -2.0443 0.0000
-30 2 11 2.0004 0.0000
-30 2 12 0.4498 0.0000
-30 2 13 -0.7175 0.0000
-30 2 14 2.6617 0.0000
-30 2 15 -2.2508 0.0000
-30 2 16 1.5148 0.0000
-30 4 1 -0.9725 0.0000
-30 4 2 -0.6987 0.0000
-30 4 3 0.0899 0.0000
-30 4 4 -0.6868 0.0000
-30 4 5 -3.5352 0.0000
-30 4 6 -2.1859 0.0000
-30 4 7 1.3834 0.0000
-30 4 8 -0.2959 0.0000
-30 4 9 -1.0072 0.0000
-30 4 10 4.0443 0.0000
-30 4 11 -0.6765 0.0000
-30 4 12 1.6121 0.0000
-30 4 13 0.0363 0.0000
-30 4 14 -2.7360 0.0000
-30 4 15 -2.1172 0.0000
-30 6 1 -0.5425 0.0000
-30 6 2 1.7368 0.0000
-30 6 3 1.4175 0.0000
-30 6 4 -1.0714 0.0000
-30 6 5 1.1341 0.0000
-30 6 6 0.5957 0.0000
-30 6 7 0.9883 0.0000
-30 6 8 1.3458 0.0000
-30 6 9 -1.6912 0.0000
-30 6 10 0.2806 0.0000
-30 6 11 3.1734 0.0000
-30 6 12 -0.6920 0.0000
-30 8 1 0.5549 0.0000
-30 8 2 2.2059 0.0000
-30 8 3 -0.1559 0.0000
-29 1 1 2.8748 0.0000
-29 1 2 -2.2697 0.0000
-29 1 3 -0.6371 0.0000
-29 1 4 -2.5396 0.0000
-29 1 5 -0.8218 0.0000
-29 1 6 -1.9477 0.0000
-29 1 7 -3.1702 0.0000
-29 1 8 -0.1795 0.0000
-29 1 9 1.4913 0.0000
-29 1 10 -0.9480 0.0000
-29 1 11 -1.5362 0.0000
-29 1 12 1.6844 0.0000
-29 1 13 -4.3098 0.0000
-29 1 14 -0.3998 0.0000
-29 1 15 3.8845 0.0000
-29 1 16 -2.0207 0.0000
-29 1 17 2.2693 0.0000
-29 3 1 2.5163 0.0000
-29 3 2 -3.3381 0.0000
-29 3 3 -1.9264 0.0000
-29 3 4 3.0040 0.0000
-29 3 5 3.4475 0.0000
-29 3 6 5.5832 0.0000
-29 3 7 -3.7615 0.0000
-29 3 8 2.3925 0.0000
-29 3 9 -2.7988 0.0000
-29 3 10 1.9473 0.0000
-29 3 11 -1.2351 0.0000
-29 3 12 -0.8334 0.0000
-29 3 13 3.3524 0.0000
-29 3 14 -2.5427 0.0000
-29 3 15 0.9484 0.0000
-29 3 16 -0.9371 0.0000
-29 5 1 -1.5723 0.0000
-29 5 2 -0.0463 0.0000
-29 5 3 -2.4594 0.0000
-29 5 4 -2.3149 0.0000
-29 5 5 0.8340 0.0000
-29 5 6 -1.6388 0.0000
-29 5 7 0.5251 0.0000
-29 5 8 -2.2374 0.0000
-29 5 9 1.7037 0.0000
-29 5 10 -2.8541 0.0000
-29 5 11 -1.2441 0.0000
-29 5 12 -2.9028 0.0000
-29 5 13 -0.0498 0.0000
-29 5 14 3.6117 0.0000
-29 7 1 0.0190 0.0000
-29 7 2 -0.7628 0.0000
-29 7 3 -0.6190 0.0000
-29 7 4 -1.4698 0.0000
-29 7 5 -1.4596 0.0000
-29 7 6 -0.0859 0.0000
-29 7 7 -2.4052 0.0000
-29 7 8 -0.3561 0.0000
-29 7 9 1.0370 0.0000
-29 7 10 -1.3365 0.0000
-28 0 2 4.1054 0.0000
-28 0 4 2.5068 0.0000
-28 0 6 -0.0732 0.0000
-28 0 8 5.0717 0.0000
-28 0 10 0.3435 0.0000
-28 0 12 -0.8003 0.0000
-28 0 14 -1.2050 0.0000
-28 0 16 -0.4366 0.0000
-28 2 1 -4.3432 0.0000
-28 2 2 5.1966 0.0000
-28 2 3 2.4973 0.0000
-28 2 4 1.4513 0.0000
-28 2 5 -4.0181 0.0000
-28 2 6 -0.4460 0.0000
-28 2 7 -2.3013 0.0000
-28 2 8 -2.1321 0.0000
-28 2 9 1.4966 0.0000
-28 2 10 -2.1919 0.0000
-28 2 11 -0.1355 0.0000
-28 2 12 -1.2175 0.0000
-28 2 13 0.3269 0.0000
-28 2 14 1.5149 0.0000
-28 2 15 -0.8152 0.0000
-28 2 16 3.7637 0.0000
-28 2 17 0.0312 0.0000
-28 4 1 -1.2925 0.0000
-28 4 2 2.4038 0.0000
-28 4 3 2.8482 0.0000
-28 4 4 1.6608 0.0000
-28 4 5 -0.2436 0.0000
-28 4 6 -3.3586 0.0000
-28 4 7 3.9587 0.0000
-28 4 8 -0.7758 0.0000
-28 4 9 -1.5562 0.0000
-28 4 10 2.2976 0.0000
-28 4 11 1.5280 0.0000
-28 4 12 2.5111 0.0000
-28 4 13 -0.5573 0.0000
-28 4 14 -2.9361 0.0000
-28 4 15 -1.8893 0.0000
-28 4 16 -0.2228 0.0000
-28 6 1 1.9741 0.0000
-28 6 2 0.3053 0.0000
-28 6 3 1.2794 0.0000
-28 6 4 0.9562 0.0000
-28 6 5 0.4584 0.0000
-28 6 6 3.4796 0.0000
-28 6 7 -0.7909 0.0000
-28 6 8 3.0488 0.0000
-28 6 9 -1.5900 0.0000
-28 6 10 1.3213 0.0000
-28 6 11 1.8251 0.0000
-28 6 12 1.1598 0.0000
-28 6 13 -0.0673 0.0000
-28 8 1 1.0814 0.0000
-28 8 2 -0.0470 0.0000
-28 8 3 -0.8034 0.0000
-28 8 4 0.0006 0.0000
-28 8 5 0.8978 0.0000
-28 8 6 -0.3020 0.0000
-28 8 7 2.7820 0.0000
-28 8 8 0.0007 0.0000
-27 1 1 4.7217 0.0000
-27 1 2 -3.6881 0.0000
-27 1 3 -1.7121 0.0000
-27 1 4 -5.1855 0.0000
-27 1 5 -3.7147 0.0000
-27 1 6 1.4640 0.0000
-27 1 7 4.0506 0.0000
-27 1 8 -2.1147 0.0000
-27 1 9 3.5454 0.0000
-27 1 10 0.1088 0.0000
-27 1 11 -1.1462 0.0000
-27 1 12 1.8428 0.0000
-27 1 13 -2.7351 0.0000
-27 1 14 1.6659 0.0000
-27 1 15 2.1776 0.0000
-27 1 16 -1.3657 0.0000
-27 1 17 0.8019 0.0000
-27 1 18 1.2599 0.0000
-27 3 1 1.5005 0.0000
-27 3 2 -7.8872 0.0000
-27 3 3 0.2155 0.0000
-27 3 4 -0.5979 0.0000
-27 3 5 5.0535 0.0000
-27 3 6 1.0271 0.0000
-27 3 7 1.2270 0.0000
-27 3 8 1.3330 0.0000
-27 3 9 -2.1110 0.0000
-27 3 10 3.1310 0.0000
-27 3 11 0.2516 0.0000
-27 3 12 -4.2292 0.0000
-27 3 13 4.0156 0.0000
-27 3 14 -1.6046 0.0000
-27 3 15 0.9799 0.0000
-27 3 16 -0.8198 0.0000
-27 3 17 -0.7979 0.0000
-27 5 1 -0.4944 0.0000
-27 5 2 -2.2713 0.0000
-27 5 3 -1.8262 0.0000
-27 5 4 -2.5880 0.0000
-27 5 5 -0.7242 0.0000
-27 5 6 -2.4665 0.0000
-27 5 7 -2.3127 0.0000
-27 5 8 -2.0651 0.0000
-27 5 9 2.5198 0.0000
-27 5 10 -4.6192 0.0000
-27 5 11 -1.1907 0.0000
-27 5 12 0.6547 0.0000
-27 5 13 -1.6206 0.0000
-27 5 14 5.0737 0.0000
-27 5 15 -0.3920 0.0000
-27 7 1 -0.7301 0.0000
-27 7 2 0.6706 0.0000
-27 7 3 -1.3165 0.0000
-27 7 4 0.6606 0.0000
-27 7 5 -0.2086 0.0000
-27 7 6 -0.6310 0.0000
-27 7 7 -0.9411 0.0000
-27 7 8 -1.2761 0.0000
-27 7 9 1.7583 0.0000
-27 7 10 1.4259 0.0000
-27 7 11 0.9226 0.0000
-27 7 12 0.7501 0.0000
-27 9 1 0.4894 0.0000
-27 9 2 1.5435 0.0000
-26 0 2 -1.9600 0.0000
-26 0 4 7.6662 0.0000
-26 0 6 1.0679 0.0000
-26 0 8 0.6904 0.0000
-26 0 10 -0.5823 0.0000
-26 0 12 1.2205 0.0000
-26 0 14 -3.9034 0.0000
-26 0 16 -3.6373 0.0000
-26 0 18 -2.6246 0.0000
-26 2 1 1.0609 0.0000
-26 2 2 7.4321 0.0000
-26 2 3 0.4559 0.0000
-26 2 4 0.0143 0.0000
-26 2 5 -3.4846 0.0000
-26 2 6 -2.4475 0.0000
-26 2 7 -5.4334 0.0000
-26 2 8 2.2501 0.0000
-26 2 9 -1.1760 0.0000
-26 2 10 -1.0427 0.0000
-26 2 11 0.5755 0.0000
-26 2 12 -0.6192 0.0000
-26 2 13 1.1648 0.0000
-26 2 14 1.1215 0.0000
-26 2 15 -0.6110 0.0000
-26 2 16 3.6683 0.0000
-26 2 17 -0.3085 0.0000
-26 2 18 -1.4859 0.0000
-26 4 1 -4.6428 0.0000
-26 4 2 7.1987 0.0000
-26 4 3 -0.2141 0.0000
-26 4 4 5.8308 0.0000
-26 4 5 0.9924 0.0000
-26 4 6 1.3991 0.0000
-26 4 7 3.1327 0.0000
-26 4 8 0.5961 0.0000
-26 4 9 -2.2840 0.0000
-26 4 10 0.6990 0.0000
-26 4 11 -0.6648 0.0000
-26 4 12 2.8643 0.0000
-26 4 13 -4.6812 0.0000
-26 4 14 -2.4026 0.0000
-26 4 15 0.3058 0.0000
-26 4 16 0.8498 0.0000
-26 4 17 0.9800 0.0000
-26 6 1 -0.0322 0.0000
-26 6 2 1.4490 0.0000
-26 6 3 -0.1879 0.0000
-26 6 4 0.6218 0.0000
-26 6 5 -0.0034 0.0000
-26 6 6 1.5228 0.0000
-26 6 7 -0.8519 0.0000
-26 6 8 0.2481 0.0000
-26 6 9 -0.1971 0.0000
-26 6 10 -0.4761 0.0000
-26 6 11 -2.7357 0.0000
-26 6 12 -1.2903 0.0000
-26 6 13 -0.7232 0.0000
-26 6 14 -2.5190 0.0000
-26 8 1 0.6184 0.0000
-26 8 2 -3.0035 0.0000
-26 8 3 -0.2832 0.0000
-26 8 4 -1.2889 0.0000
-26 8 5 0.7999 0.0000
-26 8 6 -1.3835 0.0000
-26 8 7 0.5278 0.0000
-26 8 8 -1.4518 0.0000
-26 8 9 0.1785 0.0000
-26 8 10 0.3893 0.0000
-25 1 1 -3.1341 0.0000
-25 1 2 -1.8082 0.0000
-25 1 3 -3.9173 0.0000
-25 1 4 -1.2540 0.0000
-25 1 5 -1.5525 0.0000
-25 1 6 2.4664 0.0000
-25 1 7 3.0506 0.0000
-25 1 8 -1.4199 0.0000
-25 1 9 -0.8082 0.0000
-25 1 10 0.5430 0.0000
-25 1 11 -0.3841 0.0000
-25 1 12 -2.1495 0.0000
-25 1 13 -3.1650 0.0000
-25 1 14 0.5605 0.0000
-25 1 15 -0.2249 0.0000
-25 1 16 -1.2872 0.0000
-25 1 17 -1.5202 0.0000
-25 1 18 3.1468 0.0000
-25 1 19 -2.4078 0.0000
-25 3 1 2.4941 0.0000
-25 3 2 -5.9120 0.0000
-25 3 3 -1.7800 0.0000
-25 3 4 -6.0031 0.0000
-25 3 5 2.4953 0.0000
-25 3 6 -2.8928 0.0000
-25 3 7 3.8086 0.0000
-25 3 8 -1.2246 0.0000
-25 3 9 1.3625 0.0000
-25 3 10 2.3252 0.0000
-25 3 11 0.8291 0.0000
-25 3 12 -0.1885 0.0000
-25 3 13 3.9607 0.0000
-25 3 14 0.1624 0.0000
-25 3 15 1.8499 0.0000
-25 3 16 -1.1118 0.0000
-25 3 17 -1.3101 0.0000
-25 3 18 -0.7666 0.0000
-25 5 1 3.2497 0.0000
-25 5 2 -2.5351 0.0000
-25 5 3 5.0034 0.0000
-25 5 4 -1.7822 0.0000
-25 5 5 -1.1618 0.0000
-25 5 6 0.1626 0.0000
-25 5 7 -2.4678 0.0000
-25 5 8 0.0190 0.0000
-25 5 9 2.0241 0.0000
-25 5 10 -3.8613 0.0000
-25 5 11 1.1183 0.0000
-25 5 12 3.2347 0.0000
-25 5 13 1.4514 0.0000
-25 5 14 4.3742 0.0000
-25 5 15 -2.5027 0.0000
-25 5 16 -1.4652 0.0000
-25 7 1 -0.4664 0.0000
-25 7 2 -0.8062 0.0000
-25 7 3 1.5763 0.0000
-25 7 4 1.6982 0.0000
-25 7 5 0.0212 0.0000
-25 7 6 0.7723 0.0000
-25 7 7 -0.5369 0.0000
-25 7 8 1.6092 0.0000
-25 7 9 -2.6476 0.0000
-25 7 10 1.9550 0.0000
-25 7 11 1.9025 0.0000
-25 7 12 -1.2889 0.0000
-25 7 13 6.3369 0.0000
-25 9 1 0.6227 0.0000
-25 9 2 1.0263 0.0000
-25 9 3 -0.4889 0.0000
-25 9 4 1.4945 0.0000
-25 9 5 0.1113 0.0000
-25 9 6 0.9394 0.0000
-25 9 7 0.2944 0.0000
-24 0 2 1.4854 0.0000
-24 0 4 6.4832 0.0000
-24 0 6 -0.8174 0.0000
-24 0 8 2.0490 0.0000
-24 0 10 -0.0879 0.0000
-24 0 12 5.2341 0.0000
-24 0 14 1.1168 0.0000
-24 0 16 1.4092 0.0000
-24 0 18 -3.8326 0.0000
-24 2 1 1.1557 0.0000
-24 2 2 0.5875 0.0000
-24 2 3 5.8867 0.0000
-24 2 4 -1.4266 0.0000
-24 2 5 3.8324 0.0000
-24 2 6 -4.1084 0.0000
-24 2 7 -4.5920 0.0000
-24 2 8 1.6267 0.0000
-24 2 9 3.5097 0.0000
-24 2 10 -1.5164 0.0000
-24 2 11 0.6346 0.0000
-24 2 12 -0.8457 0.0000
-24 2 13 -0.4052 0.0000
-24 2 14 -1.4952 0.0000
-24 2 15 -4.5200 0.0000
-24 2 16 1.5426 0.0000
-24 2 17 1.6039 0.0000
-24 2 18 0.9903 0.0000
-24 2 19 2.9394 0.0000
-24 4 1 -2.8625 0.0000
-24 4 2 1.2379 0.0000
-24 4 3 -8.0484 0.0000
-24 4 4 2.0522 0.0000
-24 4 5 -0.9575 0.0000
-24 4 6 5.5929 0.0000
-24 4 7 -0.1881 0.0000
-24 4 8 -1.8794 0.0000
-24 4 9 -2.2590 0.0000
-24 4 10 2.3513 0.0000
-24 4 11 -2.0090 0.0000
-24 4 12 -2.1453 0.0000
-24 4 13 -5.2244 0.0000
-24 4 14 -1.7943 0.0000
-24 4 15 2.4935 0.0000
-24 4 16 1.6551 0.0000
-24 4 17 0.0027 0.0000
-24 4 18 0.1549 0.0000
-24 6 1 -1.1679 0.0000
-24 6 2 4.9308 0.0000
-24 6 3 -1.4052 0.0000
-24 6 4 -1.2798 0.0000
-24 6 5 -1.5732 0.0000
-24 6 6 -1.7140 0.0000
-24 6 7 3.1744 0.0000
-24 6 8 -1.4093 0.0000
-24 6 9 1.5523 0.0000
-24 6 10 -0.5547 0.0000
-24 6 11 1.0392 0.0000
-24 6 12 -0.3511 0.0000
-24 6 13 -0.5898 0.0000
-24 6 14 -2.5269 0.0000
-24 6 15 -0.3050 0.0000
-24 8 1 0.6137 0.0000
-24 8 2 -2.0651 0.0000
-24 8 3 -0.7210 0.0000
-24 8 4 0.6919 0.0000
-24 8 5 -0.7213 0.0000
-24 8 6 -2.8006 0.0000
-24 8 7 -0.3484 0.0000
-24 8 8 -2.8876 0.0000
-24 8 9 2.9000 0.0000
-24 8 10 -1.1743 0.0000
-24 8 11 -0.7301 0.0000
-23 1 1 -5.0612 0.0000
-23 1 2 0.8860 0.0000
-23 1 3 0.2321 0.0000
-23 1 4 -3.0203 0.0000
-23 1 5 -1.4637 0.0000
-23 1 6 2.7698 0.0000
-23 1 7 -0.6606 0.0000
-23 1 8 -2.0086 0.0000
-23 1 9 -3.6945 0.0000
-23 1 10 -3.3717 0.0000
-23 1 11 0.0510 0.0000
-23 1 12 -2.5715 0.0000
-23 1 13 0.6803 0.0000
-23 1 14 0.5767 0.0000
-23 1 15 3.8008 0.0000
-23 1 16 0.5473 0.0000
-23 1 17 -0.0283 0.0000
-23 1 18 -0.3461 0.0000
-23 1 19 -5.4752 0.0000
-23 3 1 1.2276 0.0000
-23 3 2 3.4294 0.0000
-23 3 3 -0.3241 0.0000
-23 3 4 4.6137 0.0000
-23 3 5 -3.4109 0.0000
-23 3 6 -1.9275 0.0000
-23 3 7 4.0746 0.0000
-23 3 8 2.0603 0.0000
-23 3 9 0.7861 0.0000
-23 3 10 5.3623 0.0000
-23 3 11 -3.7753 0.0000
-23 3 12 4.7598 0.0000
-23 3 13 2.2671 0.0000
-23 3 14 2.2934 0.0000
-23 3 15 1.2636 0.0000
-23 3 16 -3.3781 0.0000
-23 3 17 -1.3305 0.0000
-23 3 18 -0.2090 0.0000
-23 3 19 -0.1169 0.0000
-23 5 1 -0.3296 0.0000
-23 5 2 -4.4177 0.0000
-23 5 3 5.1769 0.0000
-23 5 4 1.2206 0.0000
-23 5 5 3.1368 0.0000
-23 5 6 1.4457 0.0000
-23 5 7 -2.0536 0.0000
-23 5 8 0.4049 0.0000
-23 5 9 -0.6049 0.0000
-23 5 10 -3.9174 0.0000
-23 5 11 2.5104 0.0000
-23 5 12 -1.6254 0.0000
-23 5 13 -1.4677 0.0000
-23 5 14 1.7328 0.0000
-23 5 15 -1.4736 0.0000
-23 5 16 0.3716 0.0000
-23 5 17 3.4803 0.0000
-23 7 1 2.7852 0.0000
-23 7 2 -2.5391 0.0000
-23 7 3 0.1317 0.0000
-23 7 4 -1.0220 0.0000
-23 7 5 0.1939 0.0000
-23 7 6 2.4671 0.0000
-23 7 7 -1.1899 0.0000
-23 7 8 3.0361 0.0000
-23 7 9 -6.5992 0.0000
-23 7 10 -1.0023 0.0000
-23 7 11 -1.4459 0.0000
-23 7 12 2.1474 0.0000
-23 7 13 5.9531 0.0000
-23 9 1 1.0275 0.0000
-23 9 2 5.3143 0.0000
-23 9 3 2.1891 0.0000
-23 9 4 -0.6518 0.0000
-23 9 5 -1.0874 0.0000
-23 9 6 -2.2879 0.0000
-23 9 7 -0.4953 0.0000
-23 9 8 3.6768 0.0000
-22 0 2 1.0437 0.0000
-22 0 4 1.2280 0.0000
-22 0 6 4.1088 0.0000
-22 0 8 3.4959 0.0000
-22 0 10 3.7218 0.0000
-22 0 12 4.5607 0.0000
-22 0 14 -1.0795 0.0000
-22 0 16 -2.4400 0.0000
-22 0 18 -0.0980 0.0000
-22 0 20 2.6815 0.0000
-22 2 1 0.3952 0.0000
-22 2 2 -3.1590 0.0000
-22 2 3 1.9504 0.0000
-22 2 4 -1.7126 0.0000
-22 2 5 0.7702 0.0000
-22 2 6 -5.6662 0.0000
-22 2 7 0.4406 0.0000
-22 2 8 -2.1336 0.0000
-22 2 9 -0.6974 0.0000
-22 2 10 2.1809 0.0000
-22 2 11 -2.0124 0.0000
-22 2 12 -1.0519 0.0000
-22 2 13 -1.3080 0.0000
-22 2 14 -2.3286 0.0000
-22 2 15 -4.2226 0.0000
-22 2 16 0.2213 0.0000
-22 2 17 2.1665 0.0000
-22 2 18 1.3604 0.0000
-22 2 19 -0.0899 0.0000
-22 4 1 0.7023 0.0000
-22 4 2 -5.1012 0.0000
-22 4 3 -3.9625 0.0000
-22 4 4 -5.4853 0.0000
-22 4 5 -0.2377 0.0000
-22 4 6 0.3737 0.0000
-22 4 7 -3.2619 0.0000
-22 4 8 -0.9876 0.0000
-22 4 9 3.0634 0.0000
-22 4 10 -2.7802 0.0000
-22 4 11 4.9416 0.0000
-22 4 12 -5.1206 0.0000
-22 4 13 1.7530 0.0000
-22 4 14 -1.3109 0.0000
-22 4 15 2.3726 0.0000
-22 4 16 0.6125 0.0000
-22 4 17 -2.7429 0.0000
-22 4 18 -1.7392 0.0000
-22 6 1 0.8409 0.0000
-22 6 2 3.7120 0.0000
-22 6 3 -0.9762 0.0000
-22 6 4 1.5514 0.0000
-22 6 5 -0.3764 0.0000
-22 6 6 0.4858 0.0000
-22 6 7 2.0818 0.0000
-22 6 8 -0.0114 0.0000
-22 6 9 3.1613 0.0000
-22 6 10 3.2892 0.0000
-22 6 11 2.1060 0.0000
-22 6 12 1.1552 0.0000
-22 6 13 -1.2468 0.0000
-22 6 14 -1.1535 0.0000
-22 6 15 -1.1354 0.0000
-22 6 16 0.8602 0.0000
-22 8 1 -1.1070 0.0000
-22 8 2 -3.2871 0.0000
-22 8 3 -3.6400 0.0000
-22 8 4 -0.2415 0.0000
-22 8 5 1.9410 0.0000
-22 8 6 2.1602 0.0000
-22 8 7 1.6420 0.0000
-22 8 8 -4.7212 0.0000
-22 8 9 2.1485 0.0000
-22 8 10 1.9220 0.0000
-22 8 11 -0.1731 0.0000
-22 8 12 -1.2146 0.0000
-22 10 1 -0.0845 0.0000
-22 10 2 0.8232 0.0000
-22 10 3 3.9099 0.0000
-22 10 4 0.0905 0.0000
-21 1 1 4.3473 0.0000
-21 1 2 0.3392 0.0000
-21 1 3 0.6856 0.0000
-21 1 4 -0.8116 0.0000
-21 1 5 3.5928 0.0000
-21 1 6 2.0771 0.0000
-21 1 7 2.5894 0.0000
-21 1 8 -2.9386 0.0000
-21 1 9 -3.3173 0.0000
-21 1 10 -1.9926 0.0000
-21 1 11 4.8388 0.0000
-21 1 12 -0.3347 0.0000
-21 1 13 3.3066 0.0000
-21 1 14 2.5992 0.0000
-21 1 15 0.3289 0.0000
-21 1 16 2.7839 0.0000
-21 1 17 -0.3306 0.0000
-21 1 18 -0.2142 0.0000
-21 1 19 -0.7486 0.0000
-21 1 20 2.3624 0.0000
-21 3 1 0.4893 0.0000
-21 3 2 9.9426 0.0000
-21 3 3 4.1836 0.0000
-21 3 4 6.0640 0.0000
-21 3 5 -4.6508 0.0000
-21 3 6 -0.5810 0.0000
-21 3 7 2.7128 0.0000
-21 3 8 5.4826 0.0000
-21 3 9 1.7494 0.0000
-21 3 10 -5.1148 0.0000
-21 3 11 -1.3145 0.0000
-21 3 12 0.9656 0.0000
-21 3 13 -2.3199 0.0000
-21 3 14 2.5622 0.0000
-21 3 15 2.3312 0.0000
-21 3 16 -0.6158 0.0000
-21 3 17 -1.1187 0.0000
-21 3 18 0.7276 0.0000
-21 3 19 0.9229 0.0000
-21 5 1 -3.7854 0.0000
-21 5 2 -1.5935 0.0000
-21 5 3 -1.8204 0.0000
-21 5 4 4.7390 0.0000
-21 5 5 -0.2522 0.0000
-21 5 6 0.2758 0.0000
-21 5 7 -3.2820 0.0000
-21 5 8 -1.9425 0.0000
-21 5 9 -0.3979 0.0000
-21 5 10 1.9500 0.0000
-21 5 11 -3.5632 0.0000
-21 5 12 0.6966 0.0000
-21 5 13 -1.8072 0.0000
-21 5 14 1.1827 0.0000
-21 5 15 0.3302 0.0000
-21 5 16 2.5624 0.0000
-21 5 17 4.7253 0.0000
-21 7 1 -0.3112 0.0000
-21 7 2 -0.4094 0.0000
-21 7 3 2.5137 0.0000
-21 7 4 -2.7456 0.0000
-21 7 5 2.6250 0.0000
-21 7 6 -3.4552 0.0000
-21 7 7 0.5042 0.0000
-21 7 8 2.1507 0.0000
-21 7 9 -3.0893 0.0000
-21 7 10 -1.6428 0.0000
-21 7 11 -3.3057 0.0000
-21 7 12 2.8910 0.0000
-21 7 13 0.1309 0.0000
-21 7 14 -4.1718 0.0000
-21 7 15 -0.1844 0.0000
-21 9 1 -1.9982 0.0000
-21 9 2 3.4755 0.0000
-21 9 3 -1.6969 0.0000
-21 9 4 -0.2547 0.0000
-21 9 5 -1.0164 0.0000
-21 9 6 0.0368 0.0000
-21 9 7 0.3811 0.0000
-21 9 8 1.9926 0.0000
-21 9 9 -0.7869 0.0000
-20 0 2 -7.3821 0.0000
-20 0 4 -2.3439 0.0000
-20 0 6 -2.9589 0.0000
-20 0 8 3.4375 0.0000
-20 0 10 0.0197 0.0000
-20 0 12 -5.0781 0.0000
-20 0 14 -1.1990 0.0000
-20 0 16 -1.7718 0.0000
-20 0 18 1.3497 0.0000
-20 0 20 -4.2321 0.0000
-20 2 1 -4.0166 0.0000
-20 2 2 -5.1002 0.0000
-20 2 3 -10.1616 0.0000
-20 2 4 0.9606 0.0000
-20 2 5 3.2496 0.0000
-20 2 6 1.2548 0.0000
-20 2 7 -1.5625 0.0000
-20 2 8 -4.3139 0.0000
-20 2 9 -4.7856 0.0000
-20 2 10 6.8880 0.0000
-20 2 11 1.2901 0.0000
-20 2 12 4.4229 0.0000
-20 2 13 0.0232 0.0000
-20 2 14 -3.6735 0.0000
-20 2 15 -0.3254 0.0000
-20 2 16 -4.0894 0.0000
-20 2 17 0.5679 0.0000
-20 2 18 0.0431 0.0000
-20 2 19 -0.5793 0.0000
-20 2 20 -1.0856 0.0000
-20 4 1 6.2839 0.0000
-20 4 2 -0.2898 0.0000
-20 4 3 2.0494 0.0000
-20 4 4 -8.9711 0.0000
-20 4 5 -1.2577 0.0000
-20 4 6 2.2484 0.0000
-20 4 7 -0.3773 0.0000
-20 4 8 3.2144 0.0000
-20 4 9 2.2938 0.0000
-20 4 10 -2.0830 0.0000
-20 4 11 -2.4414 0.0000
-20 4 12 -0.3508 0.0000
-20 4 13 3.1044 0.0000
-20 4 14 -2.6792 0.0000
-20 4 15 -2.0084 0.0000
-20 4 16 0.0292 0.0000
-20 4 17 -3.8869 0.0000
-20 4 18 -4.7349 0.0000
-20 6 1 0.6333 0.0000
-20 6 2 -1.2561 0.0000
-20 6 3 4.6188 0.0000
-20 6 4 -1.9427 0.0000
-20 6 5 0.5783 0.0000
-20 6 6 -1.3678 0.0000
-20 6 7 0.7364 0.0000
-20 6 8 -0.5445 0.0000
-20 6 9 -4.5139 0.0000
-20 6 10 1.9569 0.0000
-20 6 11 2.1743 0.0000
-20 6 12 -3.5967 0.0000
-20 6 13 0.0610 0.0000
-20 6 14 3.7995 0.0000
-20 6 15 -0.2658 0.0000
-20 6 16 0.8622 0.0000
-20 6 17 -0.4580 0.0000
-20 8 1 -0.1465 0.0000
-20 8 2 -2.8110 0.0000
-20 8 3 -2.9967 0.0000
-20 8 4 3.1140 0.0000
-20 8 5 -0.1370 0.0000
-20 8 6 5.1849 0.0000
-20 8 7 -1.5771 0.0000
-20 8 8 -2.1204 0.0000
-20 8 9 2.6068 0.0000
-20 8 10 2.4131 0.0000
-20 8 11 1.9742 0.0000
-20 8 12 -1.9255 0.0000
-20 8 13 0.9854 0.0000
-20 10 1 5.4025 0.0000
-20 10 2 -1.0159 0.0000
-20 10 3 4.5232 0.0000
-20 10 4 -1.7064 0.0000
-20 10 5 -0.0666 0.0000
-20 10 6 -2.6634 0.0000
-19 1 1 5.3666 0.0000
-19 1 2 10.1931 0.0000
-19 1 3 1.5847 0.0000
-19 1 4 4.2897 0.0000
-19 1 5 -1.4538 0.0000
-19 1 6 -2.2008 0.0000
-19 1 7 1.9002 0.0000
-19 1 8 3.4023 0.0000
-19 1 9 3.1060 0.0000
-19 1 10 0.1332 0.0000
-19 1 11 -1.2768 0.0000
-19 1 12 -0.3524 0.0000
-19 1 13 1.8443 0.0000
-19 1 14 0.8824 0.0000
-19 1 15 -2.6117 0.0000
-19 1 16 2.6060 0.0000
-19 1 17 2.9180 0.0000
-19 1 18 0.3633 0.0000
-19 1 19 3.4389 0.0000
-19 1 20 4.9272 0.0000
-19 1 21 -2.1946 0.0000
-19 3 1 -6.5148 0.0000
-19 3 2 -2.0850 0.0000
-19 3 3 6.5437 0.0000
-19 3 4 1.5371 0.0000
-19 3 5 0.5736 0.0000
-19 3 6 -0.2802 0.0000
-19 3 7 -4.7912 0.0000
-19 3 8 -3.8188 0.0000
-19 3 9 2.0330 0.0000
-19 3 10 -8.0404 0.0000
-19 3 11 4.8105 0.0000
-19 3 12 -2.8611 0.0000
-19 3 13 -2.1887 0.0000
-19 3 14 3.7098 0.0000
-19 3 15 1.3060 0.0000
-19 3 16 2.9550 0.0000
-19 3 17 0.9559 0.0000
-19 3 18 1.1153 0.0000
-19 3 19 0.4167 0.0000
-19 3 20 -1.6744 0.0000
-19 5 1 1.7250 0.0000
-19 5 2 0.9605 0.0000
-19 5 3 -5.8935 0.0000
-19 5 4 3.6175 0.0000
-19 5 5 -1.3751 0.0000
-19 5 6 1.4865 0.0000
-19 5 7 4.8347 0.0000
-19 5 8 -0.9577 0.0000
-19 5 9 5.2437 0.0000
-19 5 10 6.1015 0.0000
-19 5 11 0.2944 0.0000
-19 5 12 1.6698 0.0000
-19 5 13 1.1878 0.0000
-19 5 14 0.3263 0.0000
-19 5 15 0.6241 0.0000
-19 5 16 -3.4992 0.0000
-19 5 17 2.0913 0.0000
-19 5 18 1.7839 0.0000
-19 7 1 -4.7052 0.0000
-19 7 2 4.6104 0.0000
-19 7 3 0.0022 0.0000
-19 7 4 0.4489 0.0000
-19 7 5 -0.9236 0.0000
-19 7 6 -4.8476 0.0000
-19 7 7 0.5008 0.0000
-19 7 8 4.0414 0.0000
-19 7 9 0.3378 0.0000
-19 7 10 -5.6204 0.0000
-19 7 11 -3.6345 0.0000
-19 7 12 1.4668 0.0000
-19 7 13 -3.2628 0.0000
-19 7 14 -2.4641 0.0000
-19 7 15 3.8098 0.0000
-19 7 16 1.4201 0.0000
-19 9 1 -5.2845 0.0000
-19 9 2 -3.4439 0.0000
-19 9 3 -3.1372 0.0000
-19 9 4 0.8681 0.0000
-19 9 5 1.7465 0.0000
-19 9 6 -0.0633 0.0000
-19 9 7 0.8939 0.0000
-19 9 8 -1.3478 0.0000
-19 9 9 0.9720 0.0000
-19 9 10 -0.2915 0.0000
-18 0 2 -13.4107 0.0000
-18 0 4 -8.6132 0.0000
-18 0 6 -1.0254 0.0000
-18 0 8 -4.0731 0.0000
-18 0 10 -8.8967 0.0000
-18 0 12 -3.3504 0.0000
-18 0 14 1.6800 0.0000
-18 0 16 1.9164 0.0000
-18 0 18 -4.9648 0.0000
-18 0 20 -5.9204 0.0000
-18 2 1 0.7506 0.0000
-18 2 2 -0.7930 0.0000
-18 2 3 -2.9998 0.0000
-18 2 4 -1.7964 0.0000
-18 2 5 3.6667 0.0000
-18 2 6 5.7656 0.0000
-18 2 7 3.2801 0.0000
-18 2 8 -0.1764 0.0000
-18 2 9 1.2231 0.0000
-18 2 10 5.3164 0.0000
-18 2 11 2.6535 0.0000
-18 2 12 2.8346 0.0000
-18 2 13 -0.5067 0.0000
-18 2 14 -2.2341 0.0000
-18 2 15 -0.6093 0.0000
-18 2 16 -3.7269 0.0000
-18 2 17 -1.2514 0.0000
-18 2 18 2.7652 0.0000
-18 2 19 -0.3487 0.0000
-18 2 20 0.3825 0.0000
-18 4 1 4.9811 0.0000
-18 4 2 0.6580 0.0000
-18 4 3 1.6954 0.0000
-18 4 4 -0.8910 0.0000
-18 4 5 -2.0896 0.0000
-18 4 6 -1.8941 0.0000
-18 4 7 -2.4922 0.0000
-18 4 8 1.5297 0.0000
-18 4 9 -4.9065 0.0000
-18 4 10 1.1363 0.0000
-18 4 11 -7.2304 0.0000
-18 4 12 4.6714 0.0000
-18 4 13 -1.8853 0.0000
-18 4 14 -2.6616 0.0000
-18 4 15 1.5381 0.0000
-18 4 16 1.4751 0.0000
-18 4 17 0.0294 0.0000
-18 4 18 -0.9226 0.0000
-18 4 19 0.2253 0.0000
-18 6 1 1.6402 0.0000
-18 6 2 -1.3050 0.0000
-18 6 3 2.2104 0.0000
-18 6 4 -5.5519 0.0000
-18 6 5 3.1396 0.0000
-18 6 6 -0.5428 0.0000
-18 6 7 -2.0905 0.0000
-18 6 8 -2.0435 0.0000
-18 6 9 -10.7160 0.0000
-18 6 10 1.5180 0.0000
-18 6 11 4.1558 0.0000
-18 6 12 -2.9088 0.0000
-18 6 13 4.1049 0.0000
-18 6 14 1.5016 0.0000
-18 6 15 -4.0793 0.0000
-18 6 16 0.4168 0.0000
-18 6 17 -3.5480 0.0000
-18 8 1 6.8045 0.0000
-18 8 2 3.1888 0.0000
-18 8 3 4.0583 0.0000
-18 8 4 0.9157 0.0000
-18 8 5 -1.9414 0.0000
-18 8 6 3.0712 0.0000
-18 8 7 1.9513 0.0000
-18 8 8 -0.3741 0.0000
-18 8 9 4.8013 0.0000
-18 8 10 -0.4563 0.0000
-18 8 11 3.8495 0.0000
-18 8 12 5.1651 0.0000
-18 8 13 1.2394 0.0000
-18 8 14 2.0318 0.0000
-18 10 1 0.7674 0.0000
-18 10 2 0.1132 0.0000
-18 10 3 3.1360 0.0000
-18 10 4 0.8938 0.0000
-18 10 5 0.4203 0.0000
-18 10 6 -2.7465 0.0000
-18 10 7 -0.0353 0.0000
-17 1 1 -5.1427 0.0000
-17 1 2 7.1671 0.0000
-17 1 3 -2.5843 0.0000
-17 1 4 4.6518 0.0000
-17 1 5 -12.0736 0.0000
-17 1 6 -4.8789 0.0000
-17 1 7 0.0754 0.0000
-17 1 8 2.5955 0.0000
-17 1 9 0.7742 0.0000
-17 1 10 2.6321 0.0000
-17 1 11 -7.6702 0.0000
-17 1 12 -0.8959 0.0000
-17 1 13 2.9260 0.0000
-17 1 14 1.4221 0.0000
-17 1 15 -1.5550 0.0000
-17 1 16 -0.1880 0.0000
-17 1 17 1.2130 0.0000
-17 1 18 -0.2637 0.0000
-17 1 19 0.2012 0.0000
-17 1 20 2.6298 0.0000
-17 1 21 -2.9138 0.0000
-17 3 1 -7.8146 0.0000
-17 3 2 -7.6438 0.0000
-17 3 3 4.4463 0.0000
-17 3 4 3.5300 0.0000
-17 3 5 2.4163 0.0000
-17 3 6 0.7027 0.0000
-17 3 7 -5.0260 0.0000
-17 3 8 0.1951 0.0000
-17 3 9 -4.2914 0.0000
-17 3 10 -1.1940 0.0000
-17 3 11 0.6672 0.0000
-17 3 12 -2.7667 0.0000
-17 3 13 -1.9519 0.0000
-17 3 14 -1.1089 0.0000
-17 3 15 1.6060 0.0000
-17 3 16 -1.9013 0.0000
-17 3 17 2.2354 0.0000
-17 3 18 -0.1512 0.0000
-17 3 19 -0.4435 0.0000
-17 3 20 -2.4364 0.0000
-17 5 1 -0.3026 0.0000
-17 5 2 -3.1743 0.0000
-17 5 3 -3.1418 0.0000
-17 5 4 2.6713 0.0000
-17 5 5 2.7930 0.0000
-17 5 6 0.6323 0.0000
-17 5 7 6.1756 0.0000
-17 5 8 2.9041 0.0000
-17 5 9 13.8591 0.0000
-17 5 10 2.0635 0.0000
-17 5 11 -0.0093 0.0000
-17 5 12 -4.1316 0.0000
-17 5 13 0.9145 0.0000
-17 5 14 0.7482 0.0000
-17 5 15 -1.8057 0.0000
-17 5 16 2.2532 0.0000
-17 5 17 0.2554 0.0000
-17 5 18 -0.2606 0.0000
-17 7 1 -4.0780 0.0000
-17 7 2 0.9558 0.0000
-17 7 3 -9.9797 0.0000
-17 7 4 0.3158 0.0000
-17 7 5 -3.9229 0.0000
-17 7 6 -0.6882 0.0000
-17 7 7 -2.5577 0.0000
-17 7 8 -1.7001 0.0000
-17 7 9 -0.2299 0.0000
-17 7 10 -4.3255 0.0000
-17 7 11 -1.7570 0.0000
-17 7 12 -3.0958 0.0000
-17 7 13 -6.2705 0.0000
-17 7 14 1.0118 0.0000
-17 7 15 0.5588 0.0000
-17 7 16 -1.4926 0.0000
-17 9 1 -3.7382 0.0000
-17 9 2 -3.6480 0.0000
-17 9 3 -1.9506 0.0000
-17 9 4 -3.3359 0.0000
-17 9 5 -0.9164 0.0000
-17 9 6 0.2074 0.0000
-17 9 7 -1.2760 0.0000
-17 9 8 -2.4799 0.0000
-17 9 9 -3.7701 0.0000
-17 9 10 -0.7201 0.0000
-17 9 11 -9.8462 0.0000
-17 9 12 -7.4347 0.0000
-16 0 2 5.9557 0.0000
-16 0 4 3.9341 0.0000
-16 0 6 13.9550 0.0000
-16 0 8 -9.0606 0.0000
-16 0 10 -3.8257 0.0000
-16 0 12 2.7204 0.0000
-16 0 14 -1.9665 0.0000
-16 0 16 3.5612 0.0000
-16 0 18 -3.3201 0.0000
-16 0 20 0.1695 0.0000
-16 2 1 11.8627 0.0000
-16 2 2 2.8863 0.0000
-16 2 3 -0.4273 0.0000
-16 2 4 -12.4735 0.0000
-16 2 5 0.8578 0.0000
-16 2 6 1.8241 0.0000
-16 2 7 6.2496 0.0000
-16 2 8 4.8351 0.0000
-16 2 9 1.0827 0.0000
-16 2 10 0.1377 0.0000
-16 2 11 4.5085 0.0000
-16 2 12 1.7878 0.0000
-16 2 13 1.6313 0.0000
-16 2 14 1.0200 0.0000
-16 2 15 3.2370 0.0000
-16 2 16 -1.5633 0.0000
-16 2 17 -3.6370 0.0000
-16 2 18 2.4560 0.0000
-16 2 19 0.3284 0.0000
-16 2 20 0.6747 0.0000
-16 2 21 3.2512 0.0000
-16 4 1 2.0183 0.0000
-16 4 2 9.0940 0.0000
-16 4 3 4.4563 0.0000
-16 4 4 1.4051 0.0000
-16 4 5 -2.8077 0.0000
-16 4 6 -7.5749 0.0000
-16 4 7 -3.8359 0.0000
-16 4 8 -7.3275 0.0000
-16 4 9 -1.5898 0.0000
-16 4 10 -5.5798 0.0000
-16 4 11 4.8268 0.0000
-16 4 12 6.7225 0.0000
-16 4 13 -0.9296 0.0000
-16 4 14 1.7223 0.0000
-16 4 15 -0.6816 0.0000
-16 4 16 3.3913 0.0000
-16 4 17 -0.5860 0.0000
-16 4 18 -1.1999 0.0000
-16 4 19 1.4880 0.0000
-16 4 20 -1.3779 0.0000
-16 6 1 -1.5254 0.0000
-16 6 2 3.1145 0.0000
-16 6 3 1.9725 0.0000
-16 6 4 5.2519 0.0000
-16 6 5 4.6245 0.0000
-16 6 6 3.5607 0.0000
-16 6 7 -0.4564 0.0000
-16 6 8 1.4727 0.0000
-16 6 9 -6.6355 0.0000
-16 6 10 5.1814 0.0000
-16 6 11 -0.2049 0.0000
-16 6 12 -1.5372 0.0000
-16 6 13 5.5331 0.0000
-16 6 14 -3.0962 0.0000
-16 6 15 1.0974 0.0000
-16 6 16 -2.8687 0.0000
-16 6 17 -2.6187 0.0000
-16 8 1 6.1671 0.0000
-16 8 2 2.1473 0.0000
-16 8 3 8.3556 0.0000
-16 8 4 -3.2529 0.0000
-16 8 5 4.4488 0.0000
-16 8 6 1.1777 0.0000
-16 8 7 3.3612 0.0000
-16 8 8 0.5273 0.0000
-16 8 9 1.7709 0.0000
-16 8 10 -0.7967 0.0000
-16 8 11 10.1744 0.0000
-16 8 12 18.5846 0.0000
-16 8 13 1.7670 0.0000
-16 8 14 2.0511 0.0000
-16 8 15 2.3537 0.0000
-16 10 1 -0.6320 0.0000
-16 10 2 1.7545 0.0000
-16 10 3 -0.6950 0.0000
-16 10 4 2.4370 0.0000
-16 10 5 -4.7417 0.0000
-16 10 6 -1.5536 0.0000
-16 10 7 1.5213 0.0000
-16 10 8 4.0379 0.0000
-15 1 1 -5.6228 0.0000
-15 1 2 -18.2497 0.0000
-15 1 3 9.5017 0.0000
-15 1 4 5.8697 0.0000
-15 1 5 3.8920 0.0000
-15 1 6 -13.1856 0.0000
-15 1 7 -3.1611 0.0000
-15 1 8 -1.9075 0.0000
-15 1 9 -2.1776 0.0000
-15 1 10 2.5289 0.0000
-15 1 11 -3.2688 0.0000
-15 1 12 -4.4863 0.0000
-15 1 13 -1.5066 0.0000
-15 1 14 0.5149 0.0000
-15 1 15 -2.2156 0.0000
-15 1 16 -1.3387 0.0000
-15 1 17 0.8614 0.0000
-15 1 18 0.7068 0.0000
-15 1 19 0.3626 0.0000
-15 1 20 -2.2077 0.0000
-15 1 21 0.7409 0.0000
-15 3 1 -1.6566 0.0000
-15 3 2 -7.9643 0.0000
-15 3 3 -10.2828 0.0000
-15 3 4 -0.2788 0.0000
-15 3 5 5.6776 0.0000
-15 3 6 10.1002 0.0000
-15 3 7 2.6765 0.0000
-15 3 8 6.1850 0.0000
-15 3 9 -2.2642 0.0000
-15 3 10 -0.1919 0.0000
-15 3 11 -6.4946 0.0000
-15 3 12 -2.7546 0.0000
-15 3 13 -1.8899 0.0000
-15 3 14 -3.4761 0.0000
-15 3 15 -1.2847 0.0000
-15 3 16 -2.3636 0.0000
-15 3 17 4.3864 0.0000
-15 3 18 -0.0988 0.0000
-15 3 19 1.8572 0.0000
-15 3 20 1.4676 0.0000
-15 3 21 -1.0766 0.0000
-15 5 1 -3.3860 0.0000
-15 5 2 -3.5267 0.0000
-15 5 3 2.5779 0.0000
-15 5 4 -3.8512 0.0000
-15 5 5 -8.3944 0.0000
-15 5 6 -5.1308 0.0000
-15 5 7 -1.1012 0.0000
-15 5 8 3.2430 0.0000
-15 5 9 5.4327 0.0000
-15 5 10 3.2184 0.0000
-15 5 11 -6.4364 0.0000
-15 5 12 -1.3468 0.0000
-15 5 13 1.4758 0.0000
-15 5 14 1.5263 0.0000
-15 5 15 -2.4430 0.0000
-15 5 16 5.1673 0.0000
-15 5 17 0.3062 0.0000
-15 5 18 2.4954 0.0000
-15 5 19 -4.1041 0.0000
-15 7 1 -0.0520 0.0000
-15 7 2 -6.5191 0.0000
-15 7 3 -6.1326 0.0000
-15 7 4 -1.1214 0.0000
-15 7 5 -0.1367 0.0000
-15 7 6 -2.6032 0.0000
-15 7 7 -2.2142 0.0000
-15 7 8 -2.9313 0.0000
-15 7 9 1.8479 0.0000
-15 7 10 0.0836 0.0000
-15 7 11 -1.2698 0.0000
-15 7 12 -14.9054 0.0000
-15 7 13 -9.7806 0.0000
-15 7 14 1.9102 0.0000
-15 7 15 -3.0734 0.0000
-15 7 16 -0.0986 0.0000
-15 7 17 3.6908 0.0000
-15 9 1 1.5627 0.0000
-15 9 2 -0.2444 0.0000
-15 9 3 -1.8219 0.0000
-15 9 4 1.2277 0.0000
-15 9 5 -2.0240 0.0000
-15 9 6 5.7482 0.0000
-15 9 7 -1.3456 0.0000
-15 9 8 -3.6188 0.0000
-15 9 9 -1.5038 0.0000
-15 9 10 -1.6585 0.0000
-15 9 11 -9.3598 0.0000
-15 9 12 -2.6008 0.0000
-15 9 13 11.4414 0.0000
-15 11 1 -0.0074 0.0000
-15 11 2 -3.4613 0.0000
-15 11 3 -1.0297 0.0000
-15 11 4 -1.4483 0.0000
-14 0 2 32.0438 0.0000
-14 0 4 -1.6326 0.0000
-14 0 6 20.7310 0.0000
-14 0 8 4.4398 0.0000
-14 0 10 2.6843 0.0000
-14 0 12 7.9240 0.0000
-14 0 14 0.6694 0.0000
-14 0 16 2.0774 0.0000
-14 0 18 -3.6039 0.0000
-14 0 20 2.4362 0.0000
-14 0 22 3.4380 0.0000
-14 2 1 1.6199 0.0000
-14 2 2 17.8224 0.0000
-14 2 3 -4.1418 0.0000
-14 2 4 -3.9596 0.0000
-14 2 5 -11.0098 0.0000
-14 2 6 -2.1837 0.0000
-14 2 7 -10.3837 0.0000
-14 2 8 0.3035 0.0000
-14 2 9 -1.0550 0.0000
-14 2 10 -0.0151 0.0000
-14 2 11 2.9733 0.0000
-14 2 12 2.3873 0.0000
-14 2 13 2.3435 0.0000
-14 2 14 -0.2552 0.0000
-14 2 15 4.5484 0.0000
-14 2 16 -0.3448 0.0000
-14 2 17 -4.5637 0.0000
-14 2 18 -0.8171 0.0000
-14 2 19 -2.9726 0.0000
-14 2 20 0.6009 0.0000
-14 2 21 1.4077 0.0000
-14 4 1 -0.4994 0.0000
-14 4 2 9.3236 0.0000
-14 4 3 2.7168 0.0000
-14 4 4 2.9095 0.0000
-14 4 5 4.6079 0.0000
-14 4 6 4.5043 0.0000
-14 4 7 6.7226 0.0000
-14 4 8 -9.8644 0.0000
-14 4 9 -1.3631 0.0000
-14 4 10 -6.0442 0.0000
-14 4 11 10.4783 0.0000
-14 4 12 2.0531 0.0000
-14 4 13 -2.5897 0.0000
-14 4 14 3.9786 0.0000
-14 4 15 -4.2163 0.0000
-14 4 16 0.4302 0.0000
-14 4 17 -4.0929 0.0000
-14 4 18 -0.8551 0.0000
-14 4 19 1.8161 0.0000
-14 4 20 -0.8734 0.0000
-14 6 1 0.0750 0.0000
-14 6 2 5.9374 0.0000
-14 6 3 1.6284 0.0000
-14 6 4 6.1688 0.0000
-14 6 5 1.1306 0.0000
-14 6 6 0.3846 0.0000
-14 6 7 4.2318 0.0000
-14 6 8 5.1908 0.0000
-14 6 9 -0.0768 0.0000
-14 6 10 0.3931 0.0000
-14 6 11 -2.5326 0.0000
-14 6 12 2.8499 0.0000
-14 6 13 5.8003 0.0000
-14 6 14 -2.6308 0.0000
-14 6 15 9.7246 0.0000
-14 6 16 -3.3050 0.0000
-14 6 17 0.5338 0.0000
-14 6 18 -1.9946 0.0000
-14 8 1 -5.9706 0.0000
-14 8 2 -0.9256 0.0000
-14 8 3 2.6111 0.0000
-14 8 4 -1.9437 0.0000
-14 8 5 1.8918 0.0000
-14 8 6 -1.4470 0.0000
-14 8 7 -4.2714 0.0000
-14 8 8 -0.2732 0.0000
-14 8 9 -2.3618 0.0000
-14 8 10 -3.4370 0.0000
-14 8 11 9.4431 0.0000
-14 8 12 16.3977 0.0000
-14 8 13 -7.4349 0.0000
-14 8 14 -2.2920 0.0000
-14 8 15 -0.3383 0.0000
-14 10 1 -0.1410 0.0000
-14 10 2 0.8584 0.0000
-14 10 3 -0.6097 0.0000
-14 10 4 0.1607 0.0000
-14 10 5 -3.8111 0.0000
-14 10 6 -3.2295 0.0000
-14 10 7 1.2594 0.0000
-14 10 8 3.0514 0.0000
-14 10 9 -0.1157 0.0000
-13 1 1 1.6458 0.0000
-13 1 2 -32.7818 0.0000
-13 1 3 20.9322 0.0000
-13 1 4 8.0299 0.0000
-13 1 5 21.9463 0.0000
-13 1 6 -10.1268 0.0000
-13 1 7 5.2370 0.0000
-13 1 8 -0.7696 0.0000
-13 1 9 4.7201 0.0000
-13 1 10 -1.9826 0.0000
-13 1 11 2.9287 0.0000
-13 1 12 -6.0476 0.0000
-13 1 13 -0.2963 0.0000
-13 1 14 -0.7213 0.0000
-13 1 15 1.3761 0.0000
-13 1 16 -0.1665 0.0000
-13 1 17 1.7382 0.0000
-13 1 18 3.1226 0.0000
-13 1 19 0.0585 0.0000
-13 1 20 -2.6488 0.0000
-13 1 21 3.2098 0.0000
-13 1 22 -2.8979 0.0000
-13 3 1 -1.4571 0.0000
-13 3 2 -15.7695 0.0000
-13 3 3 -11.1397 0.0000
-13 3 4 -6.3908 0.0000
-13 3 5 5.2884 0.0000
-13 3 6 -3.7280 0.0000
-13 3 7 6.3344 0.0000
-13 3 8 0.0027 0.0000
-13 3 9 6.3857 0.0000
-13 3 10 2.0486 0.0000
-13 3 11 -2.4818 0.0000
-13 3 12 -0.3144 0.0000
-13 3 13 -1.1197 0.0000
-13 3 14 1.6521 0.0000
-13 3 15 -2.9999 0.0000
-13 3 16 1.3246 0.0000
-13 3 17 4.5814 0.0000
-13 3 18 0.6414 0.0000
-13 3 19 2.9165 0.0000
-13 3 20 0.8185 0.0000
-13 3 21 -2.1775 0.0000
-13 5 1 6.3374 0.0000
-13 5 2 -7.0375 0.0000
-13 5 3 2.7505 0.0000
-13 5 4 -6.0709 0.0000
-13 5 5 -7.8975 0.0000
-13 5 6 -3.7781 0.0000
-13 5 7 -9.3730 0.0000
-13 5 8 -0.6490 0.0000
-13 5 9 -7.6655 0.0000
-13 5 10 2.3400 0.0000
-13 5 11 -5.0642 0.0000
-13 5 12 6.1458 0.0000
-13 5 13 5.4139 0.0000
-13 5 14 -4.8879 0.0000
-13 5 15 -2.0602 0.0000
-13 5 16 -1.4781 0.0000
-13 5 17 -0.0514 0.0000
-13 5 18 2.1409 0.0000
-13 5 19 -2.9772 0.0000
-13 7 1 8.1463 0.0000
-13 7 2 1.7326 0.0000
-13 7 3 1.8405 0.0000
-13 7 4 -0.8911 0.0000
-13 7 5 1.5750 0.0000
-13 7 6 2.0454 0.0000
-13 7 7 2.9720 0.0000
-13 7 8 2.3348 0.0000
-13 7 9 4.4246 0.0000
-13 7 10 2.4219 0.0000
-13 7 11 -1.5244 0.0000
-13 7 12 -21.0541 0.0000
-13 7 13 0.3407 0.0000
-13 7 14 7.0958 0.0000
-13 7 15 0.0584 0.0000
-13 7 16 4.0380 0.0000
-13 7 17 0.3778 0.0000
-13 9 1 0.8119 0.0000
-13 9 2 1.3214 0.0000
-13 9 3 2.0894 0.0000
-13 9 4 3.8172 0.0000
-13 9 5 -0.7038 0.0000
-13 9 6 5.6607 0.0000
-13 9 7 -0.0937 0.0000
-13 9 8 -1.6056 0.0000
-13 9 9 2.1407 0.0000
-13 9 10 2.7405 0.0000
-13 9 11 -3.0539 0.0000
-13 9 12 9.3714 0.0000
-13 9 13 10.0514 0.0000
-13 11 1 -0.8151 0.0000
-13 11 2 -4.3980 0.0000
-13 11 3 -3.7806 0.0000
-13 11 4 0.2278 0.0000
-13 11 5 5.0584 0.0000
-13 11 6 -4.2857 0.0000
-12 0 2 27.6582 0.0000
-12 0 4 -39.4841 0.0000
-12 0 6 8.2975 0.0000
-12 0 8 5.1048 0.0000
-12 0 10 -1.2874 0.0000
-12 0 12 3.4820 0.0000
-12 0 14 -1.4845 0.0000
-12 0 16 -3.9990 0.0000
-12 0 18 -3.7884 0.0000
-12 0 20 1.7329 0.0000
-12 0 22 1.1876 0.0000
-12 2 1 1.7273 0.0000
-12 2 2 39.1101 0.0000
-12 2 3 3.7239 0.0000
-12 2 4 14.8198 0.0000
-12 2 5 -20.1734 0.0000
-12 2 6 1.6075 0.0000
-12 2 7 -13.8832 0.0000
-12 2 8 -2.6543 0.0000
-12 2 9 -4.1839 0.0000
-12 2 10 -0.0490 0.0000
-12 2 11 -5.6602 0.0000
-12 2 12 1.9902 0.0000
-12 2 13 -2.6828 0.0000
-12 2 14 1.7400 0.0000
-12 2 15 -0.1683 0.0000
-12 2 16 2.1215 0.0000
-12 2 17 -2.2202 0.0000
-12 2 18 -1.8436 0.0000
-12 2 19 -2.3726 0.0000
-12 2 20 0.3511 0.0000
-12 2 21 0.9135 0.0000
-12 4 1 -14.0548 0.0000
-12 4 2 -3.6969 0.0000
-12 4 3 1.6621 0.0000
-12 4 4 9.3108 0.0000
-12 4 5 5.8356 0.0000
-12 4 6 16.8180 0.0000
-12 4 7 5.9392 0.0000
-12 4 8 4.3057 0.0000
-12 4 9 -1.3244 0.0000
-12 4 10 3.6859 0.0000
-12 4 11 2.3310 0.0000
-12 4 12 -7.2896 0.0000
-12 4 13 -5.3278 0.0000
-12 4 14 -3.5269 0.0000
-12 4 15 1.1962 0.0000
-12 4 16 0.0480 0.0000
-12 4 17 -2.8512 0.0000
-12 4 18 1.0886 0.0000
-12 4 19 1.4490 0.0000
-12 4 20 0.8378 0.0000
-12 6 1 -1.6827 0.0000
-12 6 2 0.4503 0.0000
-12 6 3 -9.5713 0.0000
-12 6 4 -1.2652 0.0000
-12 6 5 -0.3957 0.0000
-12 6 6 -6.2798 0.0000
-12 6 8 -0.0429 0.0000
-12 6 9 3.6142 0.0000
-12 6 10 -2.9661 0.0000
-12 6 11 3.9352 0.0000
-12 6 12 7.1903 0.0000
-12 6 13 0.3797 0.0000
-12 6 14 -0.9242 0.0000
-12 6 15 -0.3635 0.0000
-12 6 16 -3.4109 0.0000
-12 6 17 0.9999 0.0000
-12 6 18 -0.7255 0.0000
-12 8 1 -5.7108 0.0000
-12 8 2 2.4699 0.0000
-12 8 3 -3.7048 0.0000
-12 8 4 -3.6658 0.0000
-12 8 5 -0.7553 0.0000
-12 8 6 -1.1422 0.0000
-12 8 7 -5.0354 0.0000
-12 8 8 -2.5675 0.0000
-12 8 9 -3.8124 0.0000
-12 8 10 -6.5695 0.0000
-12 8 11 -2.3367 0.0000
-12 8 12 6.6635 0.0000
-12 8 13 -15.0581 0.0000
-12 8 14 4.3676 0.0000
-12 8 15 1.8999 0.0000
-12 8 16 -0.8433 0.0000
-12 10 1 1.0764 0.0000
-12 10 2 1.4251 0.0000
-12 10 3 7.6738 0.0000
-12 10 4 -0.0998 0.0000
-12 10 5 -0.1591 0.0000
-12 10 6 -2.8060 0.0000
-12 10 7 6.6362 0.0000
-12 10 8 1.5639 0.0000
-12 10 9 1.3234 0.0000
-12 10 10 5.9599 0.0000
-11 1 1 -10.1138 0.0000
-11 1 2 -37.8211 0.0000
-11 1 3 -21.2294 0.0000
-11 1 4 16.1050 0.0000
-11 1 5 7.5372 0.0000
-11 1 6 7.3099 0.0000
-11 1 7 12.9047 0.0000
-11 1 8 3.0010 0.0000
-11 1 9 3.1417 0.0000
-11 1 10 -0.3992 0.0000
-11 1 11 2.8064 0.0000
-11 1 12 1.0410 0.0000
-11 1 13 -1.2105 0.0000
-11 1 14 1.3072 0.0000
-11 1 15 -0.1015 0.0000
-11 1 16 0.5644 0.0000
-11 1 17 -1.9655 0.0000
-11 1 18 0.8891 0.0000
-11 1 19 -2.6501 0.0000
-11 1 20 -1.1597 0.0000
-11 1 21 0.3742 0.0000
-11 1 22 -4.8692 0.0000
-11 3 1 14.4516 0.0000
-11 3 2 -1.9512 0.0000
-11 3 3 2.3973 0.0000
-11 3 4 -16.1635 0.0000
-11 3 5 -2.1500 0.0000
-11 3 6 -24.8707 0.0000
-11 3 7 1.5280 0.0000
-11 3 8 -5.5134 0.0000
-11 3 9 4.6169 0.0000
-11 3 10 0.8556 0.0000
-11 3 11 3.4343 0.0000
-11 3 12 2.7114 0.0000
-11 3 13 8.1271 0.0000
-11 3 14 3.2278 0.0000
-11 3 15 1.8983 0.0000
-11 3 16 1.0863 0.0000
-11 3 17 -0.2232 0.0000
-11 3 18 0.6830 0.0000
-11 3 19 -0.6334 0.0000
-11 3 20 -0.1434 0.0000
-11 3 21 -0.4852 0.0000
-11 5 1 5.1281 0.0000
-11 5 2 -1.4384 0.0000
-11 5 3 8.1741 0.0000
-11 5 4 4.0471 0.0000
-11 5 5 7.5962 0.0000
-11 5 6 -2.2996 0.0000
-11 5 7 -3.7098 0.0000
-11 5 8 -4.4211 0.0000
-11 5 9 -6.2945 0.0000
-11 5 10 -6.3864 0.0000
-11 5 11 -0.3517 0.0000
-11 5 12 2.8132 0.0000
-11 5 13 3.4127 0.0000
-11 5 14 -0.6440 0.0000
-11 5 15 -0.2081 0.0000
-11 5 16 -2.0596 0.0000
-11 5 17 4.4973 0.0000
-11 5 18 0.6045 0.0000
-11 5 19 -0.1932 0.0000
-11 5 20 0.3639 0.0000
-11 7 1 7.0457 0.0000
-11 7 2 1.1170 0.0000
-11 7 3 2.1628 0.0000
-11 7 4 0.5422 0.0000
-11 7 5 0.7661 0.0000
-11 7 6 6.9931 0.0000
-11 7 7 0.8003 0.0000
-11 7 8 3.4048 0.0000
-11 7 9 4.9579 0.0000
-11 7 10 5.4073 0.0000
-11 7 11 -1.8925 0.0000
-11 7 12 -8.4586 0.0000
-11 7 13 7.3184 0.0000
-11 7 14 0.6930 0.0000
-11 7 15 1.4042 0.0000
-11 7 16 2.5258 0.0000
-11 7 17 -0.9954 0.0000
-11 9 1 -3.6279 0.0000
-11 9 2 -4.1344 0.0000
-11 9 3 0.9369 0.0000
-11 9 4 -3.7099 0.0000
-11 9 5 -3.8022 0.0000
-11 9 6 1.1385 0.0000
-11 9 7 -1.9393 0.0000
-11 9 8 0.2404 0.0000
-11 9 9 -3.5034 0.0000
-11 9 10 0.2829 0.0000
-11 9 11 -5.1905 0.0000
-11 9 12 0.2589 0.0000
-11 9 13 1.2302 0.0000
-11 9 14 -8.1778 0.0000
-11 11 1 1.7542 0.0000
-11 11 2 0.3241 0.0000
-11 11 3 -6.8614 0.0000
-11 11 4 4.5148 0.0000
-11 11 5 0.4563 0.0000
-11 11 6 -3.3314 0.0000
-11 11 7 -3.6119 0.0000
-10 0 2 43.8698 0.0000
-10 0 4 -25.2831 0.0000
-10 0 6 -16.1923 0.0000
-10 0 8 -8.1055 0.0000
-10 0 10 -2.3949 0.0000
-10 0 12 -4.5892 0.0000
-10 0 14 -0.5522 0.0000
-10 0 16 -0.1102 0.0000
-10 0 18 5.0721 0.0000
-10 0 20 3.0373 0.0000
-10 0 22 1.6840 0.0000
-10 2 1 2.9862 0.0000
-10 2 2 8.2897 0.0000
-10 2 3 16.1287 0.0000
-10 2 4 5.4154 0.0000
-10 2 5 13.4597 0.0000
-10 2 6 10.2690 0.0000
-10 2 7 4.6341 0.0000
-10 2 8 -1.6989 0.0000
-10 2 9 -2.9985 0.0000
-10 2 10 -1.0738 0.0000
-10 2 11 -5.0763 0.0000
-10 2 12 -0.4633 0.0000
-10 2 13 -2.3017 0.0000
-10 2 14 -2.8789 0.0000
-10 2 15 -2.5634 0.0000
-10 2 16 1.5718 0.0000
-10 2 17 1.1755 0.0000
-10 2 18 -1.0849 0.0000
-10 2 19 1.5423 0.0000
-10 2 20 -1.5515 0.0000
-10 2 21 0.8389 0.0000
-10 4 1 -13.8717 0.0000
-10 4 2 -7.5355 0.0000
-10 4 3 -4.8892 0.0000
-10 4 4 -2.6669 0.0000
-10 4 5 -12.9393 0.0000
-10 4 6 13.3841 0.0000
-10 4 7 -4.5548 0.0000
-10 4 8 11.7561 0.0000
-10 4 9 1.5002 0.0000
-10 4 10 7.2909 0.0000
-10 4 11 -1.4312 0.0000
-10 4 12 -8.0524 0.0000
-10 4 13 -5.9908 0.0000
-10 4 14 -5.2813 0.0000
-10 4 15 1.1970 0.0000
-10 4 16 -2.2601 0.0000
-10 4 17 -0.1079 0.0000
-10 4 18 -3.1939 0.0000
-10 4 19 -0.1201 0.0000
-10 4 20 0.3553 0.0000
-10 4 21 -0.5324 0.0000
-10 6 1 -9.5966 0.0000
-10 6 2 -0.8811 0.0000
-10 6 3 -6.1911 0.0000
-10 6 4 0.2397 0.0000
-10 6 5 -4.2618 0.0000
-10 6 6 -4.8884 0.0000
-10 6 7 -2.4240 0.0000
-10 6 8 -1.9332 0.0000
-10 6 9 1.5174 0.0000
-10 6 10 -0.2383 0.0000
-10 6 11 1.2952 0.0000
-10 6 12 8.0233 0.0000
-10 6 13 -4.1054 0.0000
-10 6 14 0.6275 0.0000
-10 6 15 -4.8510 0.0000
-10 6 16 -0.0568 0.0000
-10 6 17 -2.6976 0.0000
-10 6 18 1.6385 0.0000
-10 8 1 3.1455 0.0000
-10 8 2 4.1482 0.0000
-10 8 3 -2.0558 0.0000
-10 8 4 1.0556 0.0000
-10 8 5 3.9413 0.0000
-10 8 6 0.5363 0.0000
-10 8 7 0.6549 0.0000
-10 8 8 -2.1288 0.0000
-10 8 9 -3.7729 0.0000
-10 8 10 -1.0861 0.0000
-10 8 11 0.0563 0.0000
-10 8 12 2.3301 0.0000
-10 8 13 -3.0195 0.0000
-10 8 14 13.0591 0.0000
-10 8 15 1.1972 0.0000
-10 8 16 -0.5792 0.0000
-10 10 1 2.2494 0.0000
-10 10 2 -0.2798 0.0000
-10 10 3 4.3879 0.0000
-10 10 4 1.0837 0.0000
-10 10 5 1.3886 0.0000
-10 10 6 -2.6728 0.0000
-10 10 7 7.8308 0.0000
-10 10 8 -0.8373 0.0000
-10 10 9 7.8158 0.0000
-10 10 10 3.9899 0.0000
-10 10 11 10.2388 0.0000
-9 1 1 9.8027 0.0000
-9 1 2 -28.9483 0.0000
-9 1 3 -41.2141 0.0000
-9 1 4 6.4781 0.0000
-9 1 5 -19.5694 0.0000
-9 1 6 2.1616 0.0000
-9 1 7 -4.7244 0.0000
-9 1 8 6.3691 0.0000
-9 1 9 -4.0911 0.0000
-9 1 10 3.8265 0.0000
-9 1 11 -2.5713 0.0000
-9 1 12 2.6160 0.0000
-9 1 13 -4.5346 0.0000
-9 1 14 1.6631 0.0000
-9 1 15 2.8491 0.0000
-9 1 16 -2.1950 0.0000
-9 1 17 0.6106 0.0000
-9 1 18 -3.9778 0.0000
-9 1 19 -0.4844 0.0000
-9 1 20 -0.4763 0.0000
-9 1 21 -2.1260 0.0000
-9 1 22 -2.3379 0.0000
-9 3 1 15.3416 0.0000
-9 3 2 26.5806 0.0000
-9 3 3 7.5445 0.0000
-9 3 4 6.2999 0.0000
-9 3 5 -5.7924 0.0000
-9 3 6 -3.7324 0.0000
-9 3 7 -5.3391 0.0000
-9 3 8 -3.3770 0.0000
-9 3 9 -1.9320 0.0000
-9 3 10 -3.0911 0.0000
-9 3 11 6.1236 0.0000
-9 3 12 3.4191 0.0000
-9 3 13 9.1588 0.0000
-9 3 14 4.6863 0.0000
-9 3 15 4.2320 0.0000
-9 3 16 -0.0239 0.0000
-9 3 17 -2.8947 0.0000
-9 3 18 3.5963 0.0000
-9 3 19 -2.2340 0.0000
-9 3 20 2.1166 0.0000
-9 3 21 -0.8425 0.0000
-9 5 1 4.3139 0.0000
-9 5 2 9.3542 0.0000
-9 5 3 4.5847 0.0000
-9 5 4 5.9358 0.0000
-9 5 5 15.4659 0.0000
-9 5 6 -3.5369 0.0000
-9 5 7 10.3321 0.0000
-9 5 8 -3.1447 0.0000
-9 5 9 1.2381 0.0000
-9 5 10 -7.3143 0.0000
-9 5 11 0.0230 0.0000
-9 5 12 -0.7998 0.0000
-9 5 13 -1.4177 0.0000
-9 5 14 0.9217 0.0000
-9 5 15 0.1810 0.0000
-9 5 16 2.5988 0.0000
-9 5 17 3.9293 0.0000
-9 5 18 -0.0397 0.0000
-9 5 19 -0.5617 0.0000
-9 5 20 0.6344 0.0000
-9 7 1 0.2573 0.0000
-9 7 2 -6.8201 0.0000
-9 7 3 4.3164 0.0000
-9 7 4 -1.9197 0.0000
-9 7 5 -1.0401 0.0000
-9 7 6 -0.6756 0.0000
-9 7 7 -0.1844 0.0000
-9 7 8 1.7902 0.0000
-9 7 9 3.1834 0.0000
-9 7 10 4.5665 0.0000
-9 7 11 -0.7544 0.0000
-9 7 12 -1.8380 0.0000
-9 7 13 1.7446 0.0000
-9 7 14 -7.3920 0.0000
-9 7 15 -2.5693 0.0000
-9 7 16 -1.3807 0.0000
-9 7 17 1.5856 0.0000
-9 9 1 -0.2870 0.0000
-9 9 2 -4.8284 0.0000
-9 9 3 -0.5326 0.0000
-9 9 4 -3.3838 0.0000
-9 9 5 -1.1825 0.0000
-9 9 6 -0.9454 0.0000
-9 9 7 -1.0694 0.0000
-9 9 8 0.8324 0.0000
-9 9 9 -3.5594 0.0000
-9 9 10 -7.8503 0.0000
-9 9 11 -4.0804 0.0000
-9 9 12 -5.0037 0.0000
-9 9 13 -3.2412 0.0000
-9 9 14 -9.0513 0.0000
-9 11 1 -0.3330 0.0000
-9 11 2 3.9653 0.0000
-9 11 3 -5.7385 0.0000
-9 11 4 3.5324 0.0000
-9 11 5 -0.1453 0.0000
-9 11 6 2.3780 0.0000
-9 11 7 -4.3151 0.0000
-8 0 2 54.5924 0.0000
-8 0 4 30.1494 0.0000
-8 0 6 -10.8189 0.0000
-8 0 8 -1.1210 0.0000
-8 0 10 -1.3583 0.0000
-8 0 12 -1.2658 0.0000
-8 0 14 2.2233 0.0000
-8 0 16 2.4952 0.0000
-8 0 18 6.9589 0.0000
-8 0 20 3.5387 0.0000
-8 0 22 2.5052 0.0000
-8 2 1 -43.6756 0.0000
-8 2 2 -43.5856 0.0000
-8 2 3 5.9153 0.0000
-8 2 4 -23.7592 0.0000
-8 2 5 29.5600 0.0000
-8 2 6 9.0929 0.0000
-8 2 7 9.5594 0.0000
-8 2 8 -6.7866 0.0000
-8 2 9 6.2026 0.0000
-8 2 10 -3.7613 0.0000
-8 2 11 -0.5219 0.0000
-8 2 12 -3.5934 0.0000
-8 2 13 -1.0652 0.0000
-8 2 14 -6.2082 0.0000
-8 2 15 -3.5909 0.0000
-8 2 16 3.4393 0.0000
-8 2 17 -0.8172 0.0000
-8 2 18 1.4584 0.0000
-8 2 19 -0.5334 0.0000
-8 2 20 -3.7552 0.0000
-8 2 21 2.3027 0.0000
-8 2 22 0.9307 0.0000
-8 4 1 5.5464 0.0000
-8 4 2 -15.7228 0.0000
-8 4 3 -8.2792 0.0000
-8 4 4 -20.2692 0.0000
-8 4 5 -14.5664 0.0000
-8 4 6 -10.8063 0.0000
-8 4 7 -4.6835 0.0000
-8 4 8 -0.3095 0.0000
-8 4 9 -0.9445 0.0000
-8 4 10 5.2074 0.0000
-8 4 11 -1.5318 0.0000
-8 4 12 1.8511 0.0000
-8 4 13 0.1177 0.0000
-8 4 14 0.2630 0.0000
-8 4 15 -0.7882 0.0000
-8 4 16 -3.5679 0.0000
-8 4 17 -0.5137 0.0000
-8 4 18 -6.0420 0.0000
-8 4 19 3.5672 0.0000
-8 4 20 -0.1116 0.0000
-8 4 21 -1.1545 0.0000
-8 6 1 -0.2995 0.0000
-8 6 2 0.6911 0.0000
-8 6 3 2.9996 0.0000
-8 6 4 1.5582 0.0000
-8 6 5 -5.1004 0.0000
-8 6 6 6.5932 0.0000
-8 6 7 -5.7943 0.0000
-8 6 8 0.9652 0.0000
-8 6 9 -4.3618 0.0000
-8 6 10 1.6236 0.0000
-8 6 11 -5.2238 0.0000
-8 6 12 1.8788 0.0000
-8 6 13 -2.8990 0.0000
-8 6 14 5.4205 0.0000
-8 6 15 0.5576 0.0000
-8 6 16 2.4630 0.0000
-8 6 17 -1.2651 0.0000
-8 6 18 0.1204 0.0000
-8 8 1 0.2879 0.0000
-8 8 2 6.4913 0.0000
-8 8 3 -2.3313 0.0000
-8 8 4 4.5311 0.0000
-8 8 5 -0.1931 0.0000
-8 8 6 0.1113 0.0000
-8 8 7 -0.1354 0.0000
-8 8 8 -1.7085 0.0000
-8 8 9 -0.6156 0.0000
-8 8 10 1.1507 0.0000
-8 8 11 7.8637 0.0000
-8 8 12 -0.2890 0.0000
-8 8 13 5.1741 0.0000
-8 8 14 5.4600 0.0000
-8 8 15 1.6175 0.0000
-8 8 16 0.3545 0.0000
-8 10 1 -4.4487 0.0000
-8 10 2 -0.9565 0.0000
-8 10 3 -1.2755 0.0000
-8 10 4 -1.3231 0.0000
-8 10 5 -2.7416 0.0000
-8 10 6 -1.2278 0.0000
-8 10 7 -1.4220 0.0000
-8 10 8 -1.8311 0.0000
-8 10 9 -0.2439 0.0000
-8 10 10 -1.8166 0.0000
-8 10 11 -5.9664 0.0000
-8 10 12 2.3792 0.0000
-7 1 1 75.0589 0.0000
-7 1 2 24.3510 0.0000
-7 1 3 29.0782 0.0000
-7 1 4 -13.5885 0.0000
-7 1 5 -24.9000 0.0000
-7 1 6 -12.5810 0.0000
-7 1 7 -12.6451 0.0000
-7 1 8 5.6912 0.0000
-7 1 9 3.6173 0.0000
-7 1 10 3.3953 0.0000
-7 1 11 -3.6242 0.0000
-7 1 12 2.1918 0.0000
-7 1 13 0.0258 0.0000
-7 1 14 0.8431 0.0000
-7 1 15 6.2081 0.0000
-7 1 16 -4.1860 0.0000
-7 1 17 3.6198 0.0000
-7 1 18 -2.9454 0.0000
-7 1 19 3.3384 0.0000
-7 1 20 0.8778 0.0000
-7 1 21 -0.9043 0.0000
-7 1 22 -1.6835 0.0000
-7 3 1 -1.3879 0.0000
-7 3 2 26.8814 0.0000
-7 3 3 7.5641 0.0000
-7 3 4 45.8929 0.0000
-7 3 5 5.9702 0.0000
-7 3 6 23.0112 0.0000
-7 3 7 -0.2673 0.0000
-7 3 8 3.3452 0.0000
-7 3 9 -5.4333 0.0000
-7 3 10 0.7483 0.0000
-7 3 11 0.6331 0.0000
-7 3 12 -3.3674 0.0000
-7 3 13 -2.1455 0.0000
-7 3 14 1.7180 0.0000
-7 3 15 1.7469 0.0000
-7 3 16 -0.4530 0.0000
-7 3 17 2.9089 0.0000
-7 3 18 2.1430 0.0000
-7 3 19 -2.2315 0.0000
-7 3 20 0.5672 0.0000
-7 3 21 -2.0887 0.0000
-7 5 1 -4.0328 0.0000
-7 5 2 6.1930 0.0000
-7 5 3 -10.6387 0.0000
-7 5 4 4.3695 0.0000
-7 5 5 2.2407 0.0000
-7 5 6 0.8554 0.0000
-7 5 7 5.0200 0.0000
-7 5 8 4.3955 0.0000
-7 5 9 2.2551 0.0000
-7 5 10 -1.3995 0.0000
-7 5 11 4.0567 0.0000
-7 5 12 1.2746 0.0000
-7 5 13 -0.3329 0.0000
-7 5 14 -2.5852 0.0000
-7 5 15 -3.7910 0.0000
-7 5 16 -0.7922 0.0000
-7 5 17 -0.6033 0.0000
-7 5 18 0.0949 0.0000
-7 5 19 -1.4537 0.0000
-7 5 20 0.6846 0.0000
-7 7 1 0.7067 0.0000
-7 7 2 -3.5650 0.0000
-7 7 3 -0.7883 0.0000
-7 7 4 -4.0255 0.0000
-7 7 5 3.3237 0.0000
-7 7 6 -6.1139 0.0000
-7 7 7 3.5348 0.0000
-7 7 8 -0.5741 0.0000
-7 7 9 4.4858 0.0000
-7 7 10 -2.9849 0.0000
-7 7 11 0.5308 0.0000
-7 7 12 -2.4094 0.0000
-7 7 13 -1.1175 0.0000
-7 7 14 -2.3717 0.0000
-7 7 15 0.5766 0.0000
-7 7 16 -0.6342 0.0000
-7 7 17 -1.0539 0.0000
-7 9 1 5.9354 0.0000
-7 9 2 2.6953 0.0000
-7 9 3 5.3604 0.0000
-7 9 4 0.7761 0.0000
-7 9 5 3.5654 0.0000
-7 9 6 3.1913 0.0000
-7 9 7 2.1249 0.0000
-7 9 8 0.7666 0.0000
-7 9 9 1.1519 0.0000
-7 9 10 3.8058 0.0000
-7 9 11 1.7397 0.0000
-7 9 12 1.2671 0.0000
-7 9 13 -4.6947 0.0000
-7 9 14 -6.7881 0.0000
-7 11 1 -1.9636 0.0000
-7 11 2 -0.6796 0.0000
-7 11 3 -0.1600 0.0000
-7 11 4 0.6539 0.0000
-7 11 5 -1.1834 0.0000
-7 11 6 -1.0628 0.0000
-7 11 7 3.4428 0.0000
-6 0 2 -79.3169 0.0000
-6 0 4 22.0487 0.0000
-6 0 6 27.5627 0.0000
-6 0 8 -2.7240 0.0000
-6 0 10 -8.8295 0.0000
-6 0 12 -0.9987 0.0000
-6 0 14 -4.2667 0.0000
-6 0 16 0.2904 0.0000
-6 0 18 -1.3898 0.0000
-6 0 20 0.8625 0.0000
-6 0 22 1.5134 0.0000
-6 2 1 -54.6672 0.0000
-6 2 2 -26.0557 0.0000
-6 2 3 -34.6955 0.0000
-6 2 4 -35.5756 0.0000
-6 2 5 -14.7116 0.0000
-6 2 6 -10.8454 0.0000
-6 2 7 0.7812 0.0000
-6 2 8 -3.7304 0.0000
-6 2 9 5.7338 0.0000
-6 2 10 -0.6578 0.0000
-6 2 11 0.8482 0.0000
-6 2 12 0.8685 0.0000
-6 2 13 2.9101 0.0000
-6 2 14 0.0969 0.0000
-6 2 15 -3.9020 0.0000
-6 2 16 4.7343 0.0000
-6 2 17 -3.8609 0.0000
-6 2 18 0.2098 0.0000
-6 2 19 -2.1936 0.0000
-6 2 20 -0.6193 0.0000
-6 2 21 3.4215 0.0000
-6 2 22 -0.7006 0.0000
-6 4 1 16.9483 0.0000
-6 4 2 -6.7920 0.0000
-6 4 3 9.4273 0.0000
-6 4 4 -12.3129 0.0000
-6 4 5 6.8027 0.0000
-6 4 6 -21.1318 0.0000
-6 4 7 -0.2565 0.0000
-6 4 8 -8.2032 0.0000
-6 4 9 -2.0006 0.0000
-6 4 10 1.2200 0.0000
-6 4 11 -0.1229 0.0000
-6 4 12 2.9538 0.0000
-6 4 13 2.3052 0.0000
-6 4 14 3.7102 0.0000
-6 4 15 1.4185 0.0000
-6 4 16 2.7042 0.0000
-6 4 17 0.1574 0.0000
-6 4 18 0.3091 0.0000
-6 4 19 3.2173 0.0000
-6 4 20 -0.9787 0.0000
-6 4 21 -0.0113 0.0000
-6 6 1 3.3141 0.0000
-6 6 2 -3.6089 0.0000
-6 6 3 9.2180 0.0000
-6 6 4 -1.8984 0.0000
-6 6 5 4.5662 0.0000
-6 6 6 6.9647 0.0000
-6 6 7 -1.6068 0.0000
-6 6 8 -1.3084 0.0000
-6 6 9 -0.6145 0.0000
-6 6 10 -1.5587 0.0000
-6 6 11 -4.5099 0.0000
-6 6 12 0.1857 0.0000
-6 6 13 -1.6213 0.0000
-6 6 14 0.7659 0.0000
-6 6 15 0.4344 0.0000
-6 6 16 -1.0590 0.0000
-6 6 17 -0.5714 0.0000
-6 6 18 1.7241 0.0000
-6 6 19 1.6066 0.0000
-6 8 1 -2.7122 0.0000
-6 8 2 -1.5262 0.0000
-6 8 3 -3.8856 0.0000
-6 8 4 -1.0220 0.0000
-6 8 5 -8.3050 0.0000
-6 8 6 0.7059 0.0000
-6 8 7 -3.0061 0.0000
-6 8 8 -0.5757 0.0000
-6 8 9 -0.6739 0.0000
-6 8 10 0.4654 0.0000
-6 8 11 -0.9543 0.0000
-6 8 12 -4.5048 0.0000
-6 8 13 7.7216 0.0000
-6 8 14 -0.3726 0.0000
-6 8 15 5.3473 0.0000
-6 8 16 2.0127 0.0000
-6 10 1 -1.6369 0.0000
-6 10 2 0.3612 0.0000
-6 10 3 -2.2413 0.0000
-6 10 4 -2.3238 0.0000
-6 10 5 -0.8052 0.0000
-6 10 6 -0.7325 0.0000
-6 10 7 -5.1928 0.0000
-6 10 8 -1.5198 0.0000
-6 10 9 -4.1901 0.0000
-6 10 10 -0.7298 0.0000
-6 10 11 -0.1178 0.0000
-6 10 12 5.6352 0.0000
-5 1 1 44.3057 0.0000
-5 1 2 91.3970 0.0000
-5 1 3 42.8707 0.0000
-5 1 4 17.3228 0.0000
-5 1 5 8.4238 0.0000
-5 1 6 -5.8620 0.0000
-5 1 7 8.3171 0.0000
-5 1 8 -0.9685 0.0000
-5 1 9 -0.0218 0.0000
-5 1 10 4.2928 0.0000
-5 1 11 -3.7619 0.0000
-5 1 12 2.0935 0.0000
-5 1 13 -2.9835 0.0000
-5 1 14 2.4776 0.0000
-5 1 15 1.5016 0.0000
-5 1 16 -3.4980 0.0000
-5 1 17 -0.5011 0.0000
-5 1 18 3.7153 0.0000
-5 1 19 3.3529 0.0000
-5 1 20 0.3154 0.0000
-5 1 21 -0.7843 0.0000
-5 1 22 -0.6597 0.0000
-5 3 1 -2.6508 0.0000
-5 3 2 -14.4093 0.0000
-5 3 3 0.2789 0.0000
-5 3 4 15.9017 0.0000
-5 3 5 12.0060 0.0000
-5 3 6 14.7191 0.0000
-5 3 7 5.9160 0.0000
-5 3 8 8.4760 0.0000
-5 3 9 -3.8466 0.0000
-5 3 10 -0.2578 0.0000
-5 3 11 -2.3254 0.0000
-5 3 12 -6.2944 0.0000
-5 3 13 -6.4448 0.0000
-5 3 14 -1.6774 0.0000
-5 3 15 0.7341 0.0000
-5 3 16 -1.7895 0.0000
-5 3 17 2.8701 0.0000
-5 3 18 -3.0314 0.0000
-5 3 19 -1.9634 0.0000
-5 3 20 -0.0651 0.0000
-5 3 21 -0.1055 0.0000
-5 5 1 -10.4035 0.0000
-5 5 2 4.1299 0.0000
-5 5 3 -13.0783 0.0000
-5 5 4 1.2996 0.0000
-5 5 5 -15.2974 0.0000
-5 5 6 4.2544 0.0000
-5 5 7 -8.3755 0.0000
-5 5 8 5.6974 0.0000
-5 5 9 0.9061 0.0000
-5 5 10 0.9322 0.0000
-5 5 11 4.7968 0.0000
-5 5 12 5.0611 0.0000
-5 5 13 2.7304 0.0000
-5 5 14 -4.0061 0.0000
-5 5 15 -1.1849 0.0000
-5 5 16 -1.4975 0.0000
-5 5 17 0.5737 0.0000
-5 5 18 -0.8082 0.0000
-5 5 19 -1.6746 0.0000
-5 5 20 -1.6313 0.0000
-5 7 1 -1.8708 0.0000
-5 7 2 2.7511 0.0000
-5 7 3 -2.4575 0.0000
-5 7 4 5.2349 0.0000
-5 7 5 1.5300 0.0000
-5 7 6 -0.4377 0.0000
-5 7 7 5.3837 0.0000
-5 7 8 -1.1520 0.0000
-5 7 9 -1.4621 0.0000
-5 7 10 -1.2029 0.0000
-5 7 11 0.2102 0.0000
-5 7 12 -4.0234 0.0000
-5 7 13 0.7391 0.0000
-5 7 14 3.6976 0.0000
-5 7 15 -4.2770 0.0000
-5 7 16 -0.7148 0.0000
-5 7 17 -2.0024 0.0000
-5 9 1 2.1328 0.0000
-5 9 2 4.5002 0.0000
-5 9 3 2.3036 0.0000
-5 9 4 4.9007 0.0000
-5 9 5 4.7114 0.0000
-5 9 6 0.3876 0.0000
-5 9 7 0.8912 0.0000
-5 9 8 4.3041 0.0000
-5 9 9 3.7289 0.0000
-5 9 10 5.2784 0.0000
-5 9 11 -0.2528 0.0000
-5 9 12 0.0922 0.0000
-5 9 13 -9.0422 0.0000
-5 9 14 1.6003 0.0000
-5 9 15 -0.9772 0.0000
-5 11 1 1.1071 0.0000
-5 11 2 0.0805 0.0000
-5 11 3 0.2400 0.0000
-5 11 4 -3.1617 0.0000
-5 11 5 -2.7754 0.0000
-5 11 6 -3.0288 0.0000
-5 11 7 1.4702 0.0000
-5 11 8 -6.7918 0.0000
-4 0 2 -194.4050 0.0000
-4 0 4 -17.6205 0.0000
-4 0 6 15.8146 0.0000
-4 0 8 -12.3244 0.0000
-4 0 10 -1.9862 0.0000
-4 0 12 1.1947 0.0000
-4 0 14 -2.8292 0.0000
-4 0 16 2.0601 0.0000
-4 0 18 -4.2453 0.0000
-4 0 20 -3.0491 0.0000
-4 0 22 -0.3336 0.0000
-4 2 1 25.4907 0.0000
-4 2 2 15.2544 0.0000
-4 2 3 -13.1010 0.0000
-4 2 4 -27.8638 0.0000
-4 2 5 -21.1802 0.0000
-4 2 6 -15.1649 0.0000
-4 2 7 -11.1388 0.0000
-4 2 8 6.8351 0.0000
-4 2 9 -1.2275 0.0000
-4 2 10 0.5620 0.0000
-4 2 11 3.8858 0.0000
-4 2 12 0.1216 0.0000
-4 2 13 5.9109 0.0000
-4 2 14 0.3320 0.0000
-4 2 15 -1.8172 0.0000
-4 2 16 -0.2318 0.0000
-4 2 17 -1.0459 0.0000
-4 2 18 -2.0177 0.0000
-4 2 19 2.0435 0.0000
-4 2 20 1.3846 0.0000
-4 2 21 -0.2340 0.0000
-4 2 22 -3.5648 0.0000
-4 4 1 1.3570 0.0000
-4 4 2 13.1050 0.0000
-4 4 3 12.7770 0.0000
-4 4 4 16.0618 0.0000
-4 4 5 13.0470 0.0000
-4 4 6 -1.1346 0.0000
-4 4 7 2.1808 0.0000
-4 4 8 -7.4566 0.0000
-4 4 9 2.4577 0.0000
-4 4 10 -1.7239 0.0000
-4 4 11 -1.0761 0.0000
-4 4 12 -2.9899 0.0000
-4 4 13 -1.6376 0.0000
-4 4 14 1.0641 0.0000
-4 4 15 2.9531 0.0000
-4 4 16 6.5868 0.0000
-4 4 17 -1.7381 0.0000
-4 4 18 2.0865 0.0000
-4 4 19 0.5066 0.0000
-4 4 20 1.0380 0.0000
-4 4 21 2.0314 0.0000
-4 6 1 -2.4887 0.0000
-4 6 2 -6.4592 0.0000
-4 6 3 6.9775 0.0000
-4 6 4 -8.8039 0.0000
-4 6 5 5.9785 0.0000
-4 6 6 -2.2733 0.0000
-4 6 7 4.4467 0.0000
-4 6 8 -5.6272 0.0000
-4 6 9 2.9380 0.0000
-4 6 10 0.6008 0.0000
-4 6 11 1.6073 0.0000
-4 6 12 2.4720 0.0000
-4 6 13 0.4445 0.0000
-4 6 14 -2.0955 0.0000
-4 6 15 -3.8043 0.0000
-4 6 16 -1.3279 0.0000
-4 6 17 2.5301 0.0000
-4 6 18 2.5035 0.0000
-4 6 19 0.2793 0.0000
-4 8 1 2.4742 0.0000
-4 8 2 -8.4044 0.0000
-4 8 3 0.4096 0.0000
-4 8 4 -6.0000 0.0000
-4 8 5 -3.1196 0.0000
-4 8 6 -0.1771 0.0000
-4 8 7 -2.8235 0.0000
-4 8 8 3.9074 0.0000
-4 8 9 -3.7254 0.0000
-4 8 10 -6.8049 0.0000
-4 8 11 -3.3317 0.0000
-4 8 12 2.1582 0.0000
-4 8 13 4.3068 0.0000
-4 8 14 -0.4093 0.0000
-4 8 15 10.1398 0.0000
-4 8 16 -0.9504 0.0000
-4 10 1 2.4374 0.0000
-4 10 2 -1.9378 0.0000
-4 10 3 -1.5946 0.0000
-4 10 4 -2.1340 0.0000
-4 10 5 3.6948 0.0000
-4 10 6 -0.9512 0.0000
-4 10 7 -1.1295 0.0000
-4 10 8 -0.1235 0.0000
-4 10 9 4.7954 0.0000
-4 10 10 3.0738 0.0000
-4 10 11 1.0060 0.0000
-4 10 12 1.3211 0.0000
-3 1 2 89.4243 0.0000
-3 1 3 -22.8335 0.0000
-3 1 4 36.4305 0.0000
-3 1 5 35.1052 0.0000
-3 1 6 2.2494 0.0000
-3 1 7 7.1943 0.0000
-3 1 8 2.1412 0.0000
-3 1 9 -7.4585 0.0000
-3 1 10 -1.0290 0.0000
-3 1 11 1.8218 0.0000
-3 1 12 -0.2007 0.0000
-3 1 13 0.3794 0.0000
-3 1 14 1.4997 0.0000
-3 1 15 0.1847 0.0000
-3 1 16 -0.4392 0.0000
-3 1 17 -3.2461 0.0000
-3 1 18 3.8071 0.0000
-3 1 19 -0.7299 0.0000
-3 1 20 -0.6154 0.0000
-3 1 21 -0.3376 0.0000
-3 1 22 3.6375 0.0000
-3 3 1 -5.6100 0.0000
-3 3 2 -35.6642 0.0000
-3 3 3 -23.1723 0.0000
-3 3 4 -27.6219 0.0000
-3 3 5 -14.1837 0.0000
-3 3 6 3.0790 0.0000
-3 3 7 4.8337 0.0000
-3 3 8 0.9033 0.0000
-3 3 9 6.9879 0.0000
-3 3 10 -2.0782 0.0000
-3 3 11 -1.1211 0.0000
-3 3 12 3.5046 0.0000
-3 3 13 -1.8093 0.0000
-3 3 14 0.2955 0.0000
-3 3 15 -1.9647 0.0000
-3 3 16 -2.5461 0.0000
-3 3 17 -2.5924 0.0000
-3 3 18 -1.1655 0.0000
-3 3 19 -1.0414 0.0000
-3 3 20 0.3658 0.0000
-3 3 21 -1.5832 0.0000
-3 5 1 10.6523 0.0000
-3 5 2 3.3922 0.0000
-3 5 3 6.0416 0.0000
-3 5 4 0.1589 0.0000
-3 5 5 -7.0211 0.0000
-3 5 6 -0.3292 0.0000
-3 5 7 -5.5611 0.0000
-3 5 8 2.3749 0.0000
-3 5 9 -3.4360 0.0000
-3 5 10 3.4215 0.0000
-3 5 11 -1.7813 0.0000
-3 5 12 -0.5447 0.0000
-3 5 13 0.3182 0.0000
-3 5 14 0.1224 0.0000
-3 5 15 4.5776 0.0000
-3 5 16 0.0997 0.0000
-3 5 17 2.9525 0.0000
-3 5 18 -1.9245 0.0000
-3 5 19 -0.7362 0.0000
-3 5 20 -0.0232 0.0000
-3 7 1 -0.2512 0.0000
-3 7 2 5.9129 0.0000
-3 7 3 -2.7687 0.0000
-3 7 4 8.6850 0.0000
-3 7 5 -3.3715 0.0000
-3 7 6 3.8484 0.0000
-3 7 7 -0.7983 0.0000
-3 7 8 3.5700 0.0000
-3 7 9 -3.4183 0.0000
-3 7 10 4.1697 0.0000
-3 7 11 4.6399 0.0000
-3 7 12 -3.2756 0.0000
-3 7 13 -2.0821 0.0000
-3 7 14 -0.2335 0.0000
-3 7 15 -6.0774 0.0000
-3 7 16 -3.1581 0.0000
-3 7 17 -1.1385 0.0000
-3 9 1 -6.5240 0.0000
-3 9 2 6.1960 0.0000
-3 9 3 -2.1742 0.0000
-3 9 4 5.3545 0.0000
-3 9 5 1.3972 0.0000
-3 9 6 -0.3914 0.0000
-3 9 7 3.8597 0.0000
-3 9 8 -2.1949 0.0000
-3 9 9 2.2410 0.0000
-3 9 10 -0.2012 0.0000
-3 9 11 -3.3526 0.0000
-3 9 12 2.3542 0.0000
-3 9 13 0.4919 0.0000
-3 9 14 4.0199 0.0000
-3 9 15 -0.8785 0.0000
-3 11 1 0.7298 0.0000
-3 11 2 0.6308 0.0000
-3 11 3 1.6304 0.0000
-3 11 4 -1.5858 0.0000
-3 11 5 -4.9379 0.0000
-3 11 6 0.2324 0.0000
-3 11 7 -0.1989 0.0000
-3 11 8 1.8554 0.0000
-3 11 9 0.6985 0.0000
-2 0 2 -73.5307 0.0000
-2 0 4 -30.9433 0.0000
-2 0 6 -8.9624 0.0000
-2 0 8 -4.4831 0.0000
-2 0 10 8.7232 0.0000
-2 0 12 2.4195 0.0000
-2 0 14 -1.5685 0.0000
-2 0 16 4.4472 0.0000
-2 0 18 0.7058 0.0000
-2 0 20 -1.3622 0.0000
-2 0 22 -6.0314 0.0000
-2 2 1 81.0108 0.0000
-2 2 2 5.0060 0.0000
-2 2 3 65.5364 0.0000
-2 2 4 12.1542 0.0000
-2 2 5 3.8560 0.0000
-2 2 6 0.3602 0.0000
-2 2 7 -11.5692 0.0000
-2 2 8 -0.0430 0.0000
-2 2 9 -0.3188 0.0000
-2 2 10 -3.7031 0.0000
-2 2 11 -4.7182 0.0000
-2 2 12 -3.3336 0.0000
-2 2 13 -0.4928 0.0000
-2 2 14 1.9633 0.0000
-2 2 15 0.1081 0.0000
-2 2 16 -0.9654 0.0000
-2 2 17 6.4237 0.0000
-2 2 18 -2.2166 0.0000
-2 2 19 1.6393 0.0000
-2 2 20 1.8371 0.0000
-2 2 21 0.2062 0.0000
-2 2 22 -3.1799 0.0000
-2 4 1 -18.8949 0.0000
-2 4 2 -7.5763 0.0000
-2 4 3 -8.2333 0.0000
-2 4 4 15.5993 0.0000
-2 4 5 8.5359 0.0000
-2 4 6 5.2843 0.0000
-2 4 7 6.2610 0.0000
-2 4 8 -1.9846 0.0000
-2 4 9 -2.6972 0.0000
-2 4 10 3.4136 0.0000
-2 4 11 0.6444 0.0000
-2 4 12 -4.5417 0.0000
-2 4 13 0.7044 0.0000
-2 4 14 -2.4821 0.0000
-2 4 15 -1.3751 0.0000
-2 4 16 -0.5422 0.0000
-2 4 17 -2.0711 0.0000
-2 4 18 1.0182 0.0000
-2 4 19 -1.8217 0.0000
-2 4 20 -1.9658 0.0000
-2 4 21 1.3068 0.0000
-2 6 1 -5.9153 0.0000
-2 6 2 -1.2381 0.0000
-2 6 3 -5.7933 0.0000
-2 6 4 -5.4160 0.0000
-2 6 5 1.2177 0.0000
-2 6 6 -4.5101 0.0000
-2 6 7 -0.4357 0.0000
-2 6 8 -0.9433 0.0000
-2 6 9 3.1023 0.0000
-2 6 10 -4.7055 0.0000
-2 6 11 2.8062 0.0000
-2 6 12 3.1663 0.0000
-2 6 13 0.5344 0.0000
-2 6 14 2.2461 0.0000
-2 6 15 -1.0378 0.0000
-2 6 16 2.0676 0.0000
-2 6 17 0.7512 0.0000
-2 6 18 0.1830 0.0000
-2 6 19 0.1809 0.0000
-2 8 1 5.4336 0.0000
-2 8 2 -1.6020 0.0000
-2 8 3 5.2256 0.0000
-2 8 4 -7.9206 0.0000
-2 8 5 5.8701 0.0000
-2 8 6 -0.4884 0.0000
-2 8 7 -0.9249 0.0000
-2 8 8 -2.6392 0.0000
-2 8 9 1.0943 0.0000
-2 8 10 -2.4943 0.0000
-2 8 11 -5.7193 0.0000
-2 8 12 2.3374 0.0000
-2 8 13 -5.1540 0.0000
-2 8 14 -3.4652 0.0000
-2 8 15 4.3319 0.0000
-2 8 16 1.2369 0.0000
-2 10 1 1.5686 0.0000
-2 10 2 -4.3013 0.0000
-2 10 3 0.6833 0.0000
-2 10 4 0.2508 0.0000
-2 10 5 0.6437 0.0000
-2 10 6 1.3447 0.0000
-2 10 7 0.0797 0.0000
-2 10 8 -0.5455 0.0000
-2 10 9 -6.4269 0.0000
-2 10 10 -2.9786 0.0000
-2 10 11 -0.6985 0.0000
-2 10 12 -3.2001 0.0000
-1 1 1 -75.9588 0.0000
-1 1 2 -2.0625 0.0000
-1 1 3 -49.0437 0.0000
-1 1 4 -13.7255 0.0000
-1 1 5 10.2709 0.0000
-1 1 6 2.6543 0.0000
-1 1 7 1.6838 0.0000
-1 1 8 4.5940 0.0000
-1 1 9 -3.2074 0.0000
-1 1 10 -3.0566 0.0000
-1 1 11 12.1832 0.0000
-1 1 12 1.2852 0.0000
-1 1 13 6.2197 0.0000
-1 1 14 -2.6019 0.0000
-1 1 15 0.7339 0.0000
-1 1 16 -1.7335 0.0000
-1 1 17 -4.3341 0.0000
-1 1 18 -1.7437 0.0000
-1 1 19 -2.2105 0.0000
-1 1 20 -0.3571 0.0000
-1 1 21 -2.4744 0.0000
-1 1 22 4.2434 0.0000
-1 3 1 -6.8846 0.0000
-1 3 2 16.7190 0.0000
-1 3 3 -24.4138 0.0000
-1 3 4 -16.0474 0.0000
-1 3 5 -25.5672 0.0000
-1 3 6 -6.8555 0.0000
-1 3 7 1.0794 0.0000
-1 3 8 -0.9705 0.0000
-1 3 9 6.6500 0.0000
-1 3 10 -1.1900 0.0000
-1 3 11 0.1480 0.0000
-1 3 12 5.5052 0.0000
-1 3 13 2.9025 0.0000
-1 3 14 -1.2728 0.0000
-1 3 15 1.6218 0.0000
-1 3 16 1.8501 0.0000
-1 3 17 -4.7113 0.0000
-1 3 18 0.6763 0.0000
-1 3 19 -0.1017 0.0000
-1 3 20 1.5529 0.0000
-1 3 21 -0.0428 0.0000
-1 5 1 16.1850 0.0000
-1 5 2 4.3067 0.0000
-1 5 3 13.2123 0.0000
-1 5 4 2.5996 0.0000
-1 5 5 7.2715 0.0000
-1 5 6 0.3923 0.0000
-1 5 7 -1.7466 0.0000
-1 5 8 -0.4533 0.0000
-1 5 9 -4.0251 0.0000
-1 5 10 0.8099 0.0000
-1 5 11 -2.9215 0.0000
-1 5 12 -1.6759 0.0000
-1 5 13 -5.1739 0.0000
-1 5 14 1.6509 0.0000
-1 5 15 1.2594 0.0000
-1 5 16 -1.3665 0.0000
-1 5 17 2.5212 0.0000
-1 5 18 -0.8433 0.0000
-1 5 19 2.2296 0.0000
-1 5 20 -0.2488 0.0000
-1 7 1 -2.9203 0.0000
-1 7 2 -2.1041 0.0000
-1 7 3 -2.3217 0.0000
-1 7 4 -2.4874 0.0000
-1 7 5 -7.4782 0.0000
-1 7 6 0.3772 0.0000
-1 7 7 -1.7591 0.0000
-1 7 8 3.6173 0.0000
-1 7 9 2.9187 0.0000
-1 7 10 4.6987 0.0000
-1 7 11 1.5974 0.0000
-1 7 12 -0.2413 0.0000
-1 7 13 5.8916 0.0000
-1 7 14 -2.6632 0.0000
-1 7 15 -0.7013 0.0000
-1 7 16 -4.6392 0.0000
-1 7 17 -1.7209 0.0000
-1 9 1 -4.9674 0.0000
-1 9 2 2.8463 0.0000
-1 9 3 -5.6470 0.0000
-1 9 4 6.6653 0.0000
-1 9 5 -2.6343 0.0000
-1 9 6 -1.1028 0.0000
-1 9 7 2.1777 0.0000
-1 9 8 -2.1246 0.0000
-1 9 9 -0.3662 0.0000
-1 9 10 5.1349 0.0000
-1 9 11 6.1890 0.0000
-1 9 12 -2.5078 0.0000
-1 9 13 2.5130 0.0000
-1 9 14 0.5742 0.0000
-1 9 15 0.6876 0.0000
-1 11 1 2.3876 0.0000
-1 11 2 0.9293 0.0000
-1 11 3 2.5794 0.0000
-1 11 4 -3.5004 0.0000
-1 11 5 -0.6092 0.0000
-1 11 6 4.5079 0.0000
-1 11 7 2.5228 0.0000
-1 11 8 4.8903 0.0000
-1 11 9 2.9736 0.0000
0 0 2 36.7693 0.0000
0 0 4 9.4631 0.0000
0 0 6 8.3633 0.0000
0 0 8 -3.3929 0.0000
0 0 10 3.9017 0.0000
0 0 12 -7.2787 0.0000
0 0 14 0.4207 0.0000
0 0 16 1.0408 0.0000
0 0 18 8.5954 0.0000
0 0 20 1.2586 0.0000
0 0 22 -5.1882 0.0000
0 2 1 9.8042 0.0000
0 2 2 6.3235 0.0000
0 2 3 39.7987 0.0000
0 2 4 47.8123 0.0000
0 2 5 6.1444 0.0000
0 2 6 5.1381 0.0000
0 2 7 2.1728 0.0000
0 2 8 -5.1505 0.0000
0 2 9 -0.0404 0.0000
0 2 10 -0.9055 0.0000
0 2 11 -9.1313 0.0000
0 2 12 -1.9972 0.0000
0 2 13 -8.0025 0.0000
0 2 14 7.3601 0.0000
0 2 15 0.8936 0.0000
0 2 16 0.7799 0.0000
0 2 17 5.6128 0.0000
0 2 18 0.5725 0.0000
0 2 19 2.4272 0.0000
0 2 20 -0.5862 0.0000
0 2 21 0.8674 0.0000
0 2 22 -1.1519 0.0000
0 4 0 -10.2731 0.0000
0 4 1 -8.5381 0.0000
0 4 2 -34.3235 0.0000
0 4 3 -7.0067 0.0000
0 4 4 -6.6815 0.0000
0 4 5 3.6131 0.0000
0 4 6 -0.6379 0.0000
0 4 7 3.0499 0.0000
0 4 8 5.8456 0.0000
0 4 9 -4.1101 0.0000
0 4 10 5.8049 0.0000
0 4 11 2.2059 0.0000
0 4 12 1.6111 0.0000
0 4 13 3.0276 0.0000
0 4 14 -0.2581 0.0000
0 4 15 -2.8331 0.0000
0 4 16 -0.9628 0.0000
0 4 17 1.8146 0.0000
0 4 18 -2.0077 0.0000
0 4 19 -3.2521 0.0000
0 4 20 -3.2573 0.0000
0 4 21 0.6386 0.0000
0 6 0 12.8481 0.0000
0 6 1 0.2200 0.0000
0 6 2 11.3505 0.0000
0 6 3 -2.8139 0.0000
0 6 4 5.5744 0.0000
0 6 5 3.3399 0.0000
0 6 6 2.9645 0.0000
0 6 7 -2.1097 0.0000
0 6 8 -1.2601 0.0000
0 6 9 1.0997 0.0000
0 6 10 -7.4374 0.0000
0 6 11 3.1762 0.0000
0 6 12 -0.3578 0.0000
0 6 13 3.3387 0.0000
0 6 14 -0.1463 0.0000
0 6 15 -0.7436 0.0000
0 6 16 4.5072 0.0000
0 6 17 -0.2191 0.0000
0 6 18 2.4062 0.0000
0 8 0 5.3229 0.0000
0 8 1 -0.0504 0.0000
0 8 2 2.2558 0.0000
0 8 3 4.2414 0.0000
0 8 4 -1.0764 0.0000
0 8 5 4.2294 0.0000
0 8 6 -2.0703 0.0000
0 8 7 4.6299 0.0000
0 8 8 1.3919 0.0000
0 8 9 1.0309 0.0000
0 8 10 1.5519 0.0000
0 8 11 -7.3476 0.0000
0 8 12 -0.5489 0.0000
0 8 13 -7.8964 0.0000
0 8 14 4.9093 0.0000
0 8 15 -3.3138 0.0000
0 8 16 0.9166 0.0000
0 10 0 -2.6319 0.0000
0 10 1 4.0254 0.0000
0 10 2 -3.5906 0.0000
0 10 3 3.0377 0.0000
0 10 4 0.3773 0.0000
0 10 5 2.7392 0.0000
0 10 6 0.5787 0.0000
0 10 7 -7.1926 0.0000
0 10 8 -3.3733 0.0000
0 10 9 -0.2748 0.0000
0 10 10 -1.5315 0.0000
0 10 11 1.5909 0.0000
0 10 12 2.3803 0.0000
1 1 0 -216.4339 0.0000
1 1 1 75.6648 0.0000
1 1 2 -41.4272 0.0000
1 1 3 -45.2219 0.0000
1 1 4 -40.5711 0.0000
1 1 5 3.8721 0.0000
1 1 6 -9.9377 0.0000
1 1 7 3.2517 0.0000
1 1 8 0.7411 0.0000
1 1 9 -4.0261 0.0000
1 1 10 1.0525 0.0000
1 1 11 6.9432 0.0000
1 1 12 6.5328 0.0000
1 1 13 3.9076 0.0000
1 1 14 -5.5791 0.0000
1 1 15 -1.7868 0.0000
1 1 16 -2.2117 0.0000
1 1 17 -4.5000 0.0000
1 1 18 -3.4088 0.0000
1 1 19 0.4034 0.0000
1 1 20 -0.5947 0.0000
1 1 21 -4.8112 0.0000
1 1 22 3.4333 0.0000
1 3 0 38.7212 0.0000
1 3 1 12.1763 0.0000
1 3 2 35.0411 0.0000
1 3 3 19.4167 0.0000
1 3 4 -22.4497 0.0000
1 3 5 -3.5912 0.0000
1 3 6 -4.3454 0.0000
1 3 7 -6.6854 0.0000
1 3 8 2.4829 0.0000
1 3 9 0.3604 0.0000
1 3 10 -4.0689 0.0000
1 3 11 0.2278 0.0000
1 3 12 -2.6602 0.0000
1 3 13 3.5679 0.0000
1 3 14 -5.0577 0.0000
1 3 15 5.1968 0.0000
1 3 16 3.3484 0.0000
1 3 17 -4.1781 0.0000
1 3 18 -2.7367 0.0000
1 3 19 2.0071 0.0000
1 3 20 4.6139 0.0000
1 3 21 0.1294 0.0000
1 5 0 -9.5355 0.0000
1 5 1 -8.6851 0.0000
1 5 2 1.3496 0.0000
1 5 3 -7.2518 0.0000
1 5 4 0.0833 0.0000
1 5 5 2.3238 0.0000
1 5 6 -0.1782 0.0000
1 5 7 1.0951 0.0000
1 5 8 -6.7528 0.0000
1 5 9 1.5333 0.0000
1 5 10 -0.9332 0.0000
1 5 11 0.4779 0.0000
1 5 12 -3.0150 0.0000
1 5 13 -6.0328 0.0000
1 5 14 1.2007 0.0000
1 5 15 -2.5022 0.0000
1 5 16 -1.5101 0.0000
1 5 17 -0.2089 0.0000
1 5 18 -1.4269 0.0000
1 5 19 -0.3722 0.0000
1 5 20 -1.4832 0.0000
1 7 0 -9.8483 0.0000
1 7 1 -3.6196 0.0000
1 7 2 -7.9661 0.0000
1 7 3 1.7706 0.0000
1 7 4 -7.7737 0.0000
1 7 5 -4.9874 0.0000
1 7 6 -3.5419 0.0000
1 7 7 -1.1373 0.0000
1 7 8 -0.3093 0.0000
1 7 9 -2.6522 0.0000
1 7 10 1.8413 0.0000
1 7 11 -1.7508 0.0000
1 7 12 6.8139 0.0000
1 7 13 1.9499 0.0000
1 7 14 -2.4814 0.0000
1 7 15 2.7026 0.0000
1 7 16 -6.4194 0.0000
1 7 17 -0.1782 0.0000
1 9 0 2.6826 0.0000
1 9 1 1.2850 0.0000
1 9 2 -2.8815 0.0000
1 9 3 -5.4966 0.0000
1 9 4 0.8295 0.0000
1 9 5 -4.4966 0.0000
1 9 6 1.3090 0.0000
1 9 7 0.6431 0.0000
1 9 8 3.1501 0.0000
1 9 9 1.1273 0.0000
1 9 10 -3.5881 0.0000
1 9 11 1.5270 0.0000
1 9 12 -6.6867 0.0000
1 9 13 1.0296 0.0000
1 9 14 -6.8726 0.0000
1 11 0 4.8085 0.0000
1 11 1 3.8320 0.0000
1 11 2 4.0633 0.0000
1 11 3 2.0981 0.0000
1 11 4 -0.1483 0.0000
1 11 5 -1.0954 0.0000
1 11 6 0.7902 0.0000
1 11 7 -0.7519 0.0000
1 11 8 -1.2527 0.0000
1 11 9 -0.7151 0.0000
2 0 0 230.6616 0.0000
2 0 4 36.2448 0.0000
2 0 6 13.0079 0.0000
2 0 8 5.6986 0.0000
2 0 10 -6.4517 0.0000
2 0 12 -8.0567 0.0000
2 0 14 0.8463 0.0000
2 0 16 -0.8883 0.0000
2 0 18 4.5721 0.0000
2 0 20 2.5364 0.0000
2 0 22 0.0176 0.0000
2 2 0 36.7031 0.0000
2 2 2 8.9632 0.0000
2 2 3 -12.5406 0.0000
2 2 4 42.3156 0.0000
2 2 5 3.1160 0.0000
2 2 6 6.5011 0.0000
2 2 7 -0.5680 0.0000
2 2 8 -2.0332 0.0000
2 2 9 4.3674 0.0000
2 2 10 3.4483 0.0000
2 2 11 -2.0544 0.0000
2 2 12 -3.5406 0.0000
2 2 13 -4.1762 0.0000
2 2 14 6.0439 0.0000
2 2 15 -3.2234 0.0000
2 2 16 -1.1816 0.0000
2 2 17 3.9899 0.0000
2 2 18 2.6723 0.0000
2 2 19 3.5528 0.0000
2 2 20 -5.2891 0.0000
2 2 21 2.2607 0.0000
2 4 0 9.6737 0.0000
2 4 1 13.0764 0.0000
2 4 2 -7.4990 0.0000
2 4 3 1.1312 0.0000
2 4 4 4.6718 0.0000
2 4 5 -9.3134 0.0000
2 4 6 1.9185 0.0000
2 4 7 3.5637 0.0000
2 4 8 4.0524 0.0000
2 4 9 -1.3691 0.0000
2 4 10 3.5011 0.0000
2 4 11 -0.7869 0.0000
2 4 12 5.5222 0.0000
2 4 13 1.2874 0.0000
2 4 14 6.5503 0.0000
2 4 15 -0.8374 0.0000
2 4 16 -0.3887 0.0000
2 4 17 3.8807 0.0000
2 4 18 1.1967 0.0000
2 4 19 -2.5768 0.0000
2 4 20 -0.1815 0.0000
2 4 21 0.8679 0.0000
2 6 0 4.5547 0.0000
2 6 1 11.4500 0.0000
2 6 2 6.1483 0.0000
2 6 3 3.7972 0.0000
2 6 4 9.3234 0.0000
2 6 5 4.1074 0.0000
2 6 6 2.9775 0.0000
2 6 7 -2.0708 0.0000
2 6 8 2.0934 0.0000
2 6 9 -1.1568 0.0000
2 6 10 -0.5621 0.0000
2 6 11 3.0931 0.0000
2 6 12 -1.9648 0.0000
2 6 13 3.6192 0.0000
2 6 14 -4.6006 0.0000
2 6 15 3.4244 0.0000
2 6 16 2.7612 0.0000
2 6 17 -0.9689 0.0000
2 6 18 4.5641 0.0000
2 8 0 -1.0056 0.0000
2 8 1 -6.6722 0.0000
2 8 2 4.2127 0.0000
2 8 3 -1.3339 0.0000
2 8 4 4.4847 0.0000
2 8 5 -0.0206 0.0000
2 8 6 2.7956 0.0000
2 8 7 0.7329 0.0000
2 8 8 -0.9547 0.0000
2 8 9 1.2281 0.0000
2 8 10 1.3693 0.0000
2 8 11 1.1940 0.0000
2 8 12 0.8333 0.0000
2 8 13 2.4473 0.0000
2 8 14 5.1011 0.0000
2 8 15 -6.2811 0.0000
2 8 16 2.0197 0.0000
2 10 0 -2.3136 0.0000
2 10 1 -1.7546 0.0000
2 10 2 -3.0184 0.0000
2 10 3 0.9475 0.0000
2 10 4 -2.7187 0.0000
2 10 5 0.6676 0.0000
2 10 6 -2.6624 0.0000
2 10 7 1.5003 0.0000
2 10 8 1.3299 0.0000
2 10 9 4.2530 0.0000
2 10 10 2.3493 0.0000
2 10 11 -1.0603 0.0000
2 10 12 0.9926 0.0000
3 1 0 -91.5177 0.0000
3 1 2 29.7564 0.0000
3 1 3 -34.9068 0.0000
3 1 4 -29.3285 0.0000
3 1 5 3.2018 0.0000
3 1 6 -11.7434 0.0000
3 1 7 6.9247 0.0000
3 1 8 -3.3091 0.0000
3 1 9 -6.4850 0.0000
3 1 10 2.5938 0.0000
3 1 11 -4.0020 0.0000
3 1 12 9.8234 0.0000
3 1 13 1.6345 0.0000
3 1 14 -1.8345 0.0000
3 1 15 -2.6196 0.0000
3 1 16 2.4606 0.0000
3 1 17 -1.4472 0.0000
3 1 18 -2.3284 0.0000
3 1 19 0.4182 0.0000
3 1 20 1.0699 0.0000
3 1 21 -0.4375 0.0000
3 1 22 0.0275 0.0000
3 3 0 -25.7631 0.0000
3 3 1 24.3082 0.0000
3 3 2 -21.6761 0.0000
3 3 3 36.5429 0.0000
3 3 4 -31.9192 0.0000
3 3 5 7.6179 0.0000
3 3 6 2.8970 0.0000
3 3 7 -8.3104 0.0000
3 3 8 0.7719 0.0000
3 3 9 1.2835 0.0000
3 3 10 -3.8727 0.0000
3 3 11 -1.3318 0.0000
3 3 12 -5.4823 0.0000
3 3 13 -0.9411 0.0000
3 3 14 -4.3449 0.0000
3 3 15 2.6031 0.0000
3 3 16 1.5721 0.0000
3 3 17 -0.4413 0.0000
3 3 18 -3.2371 0.0000
3 3 19 -1.2501 0.0000
3 3 20 5.6476 0.0000
3 3 21 -1.2742 0.0000
3 5 0 -6.4750 0.0000
3 5 1 -8.5907 0.0000
3 5 2 -3.5479 0.0000
3 5 3 -15.5376 0.0000
3 5 4 -3.9077 0.0000
3 5 5 1.7912 0.0000
3 5 6 -4.9277 0.0000
3 5 7 6.4111 0.0000
3 5 8 -5.8700 0.0000
3 5 9 3.3317 0.0000
3 5 10 -0.9155 0.0000
3 5 11 2.5405 0.0000
3 5 12 -3.5495 0.0000
3 5 13 0.5893 0.0000
3 5 14 -0.4628 0.0000
3 5 15 1.4696 0.0000
3 5 16 0.6070 0.0000
3 5 17 -3.5778 0.0000
3 5 18 -0.1049 0.0000
3 5 19 0.9199 0.0000
3 5 20 -2.7126 0.0000
3 7 0 5.3153 0.0000
3 7 1 0.0199 0.0000
3 7 2 2.4352 0.0000
3 7 3 3.1412 0.0000
3 7 4 -4.5251 0.0000
3 7 5 2.7210 0.0000
3 7 6 -2.2642 0.0000
3 7 7 -3.5995 0.0000
3 7 8 -1.0571 0.0000
3 7 9 0.3537 0.0000
3 7 10 0.7539 0.0000
3 7 11 -3.5257 0.0000
3 7 12 6.7579 0.0000
3 7 13 -7.0803 0.0000
3 7 14 1.6123 0.0000
3 7 15 -0.0303 0.0000
3 7 16 -0.3702 0.0000
3 7 17 2.0251 0.0000
3 9 0 -1.7294 0.0000
3 9 1 7.8283 0.0000
3 9 2 -3.6115 0.0000
3 9 3 2.6289 0.0000
3 9 4 -3.4563 0.0000
3 9 5 2.3374 0.0000
3 9 6 3.1062 0.0000
3 9 7 3.9542 0.0000
3 9 8 -2.4233 0.0000
3 9 9 -5.4207 0.0000
3 9 10 -2.4235 0.0000
3 9 11 0.8803 0.0000
3 9 12 -1.1341 0.0000
3 9 13 -0.4509 0.0000
3 9 14 -3.8652 0.0000
3 11 0 3.6068 0.0000
3 11 1 0.6805 0.0000
3 11 2 1.6033 0.0000
3 11 3 0.9235 0.0000
3 11 4 2.7861 0.0000
3 11 5 -4.4700 0.0000
3 11 6 1.4821 0.0000
3 11 7 0.2721 0.0000
3 11 8 5.1008 0.0000
4 0 0 -5.1067 0.0000
4 0 4 21.3289 0.0000
4 0 6 5.8645 0.0000
4 0 8 10.2862 0.0000
4 0 10 -6.9049 0.0000
4 0 12 -7.1222 0.0000
4 0 14 1.2711 0.0000
4 0 16 -3.6767 0.0000
4 0 18 -2.4582 0.0000
4 0 20 -0.7334 0.0000
4 2 0 63.6983 0.0000
4 2 1 -63.0183 0.0000
4 2 2 -24.0320 0.0000
4 2 3 16.4710 0.0000
4 2 4 18.3018 0.0000
4 2 5 0.9740 0.0000
4 2 6 5.6827 0.0000
4 2 7 -2.6271 0.0000
4 2 8 -1.5001 0.0000
4 2 9 2.9683 0.0000
4 2 10 2.7668 0.0000
4 2 11 8.3504 0.0000
4 2 12 -2.8328 0.0000
4 2 13 2.8229 0.0000
4 2 14 -1.7218 0.0000
4 2 15 -2.4729 0.0000
4 2 16 -3.5238 0.0000
4 2 17 -1.9523 0.0000
4 2 18 2.8515 0.0000
4 2 19 4.2870 0.0000
4 2 20 -3.8921 0.0000
4 2 21 1.3468 0.0000
4 4 0 15.1329 0.0000
4 4 1 -0.7946 0.0000
4 4 2 27.5954 0.0000
4 4 3 -12.4429 0.0000
4 4 4 24.3035 0.0000
4 4 5 -13.8891 0.0000
4 4 6 -4.0134 0.0000
4 4 7 7.0101 0.0000
4 4 8 0.1829 0.0000
4 4 9 -2.8199 0.0000
4 4 10 -1.7984 0.0000
4 4 11 -5.5830 0.0000
4 4 12 2.1671 0.0000
4 4 13 -2.0323 0.0000
4 4 14 1.8748 0.0000
4 4 15 -2.0466 0.0000
4 4 16 -1.0152 0.0000
4 4 17 0.7943 0.0000
4 4 18 4.0359 0.0000
4 4 19 -3.5253 0.0000
4 4 20 0.3305 0.0000
4 6 0 -6.7666 0.0000
4 6 1 2.4738 0.0000
4 6 2 -7.1266 0.0000
4 6 3 1.0897 0.0000
4 6 4 -2.0400 0.0000
4 6 5 -1.1032 0.0000
4 6 6 1.1949 0.0000
4 6 7 -5.0991 0.0000
4 6 8 7.7000 0.0000
4 6 9 -3.7408 0.0000
4 6 10 2.1759 0.0000
4 6 11 -2.9178 0.0000
4 6 12 0.5689 0.0000
4 6 13 1.8226 0.0000
4 6 14 -0.6283 0.0000
4 6 15 1.0051 0.0000
4 6 16 -1.2031 0.0000
4 6 17 0.4999 0.0000
4 6 18 1.2048 0.0000
4 8 0 -6.6059 0.0000
4 8 1 -3.6017 0.0000
4 8 2 -1.3434 0.0000
4 8 3 -1.4066 0.0000
4 8 4 4.6658 0.0000
4 8 5 -5.1967 0.0000
4 8 6 -0.3167 0.0000
4 8 7 -4.6149 0.0000
4 8 8 -2.8144 0.0000
4 8 9 3.0342 0.0000
4 8 10 1.7882 0.0000
4 8 11 4.3389 0.0000
4 8 12 -6.4456 0.0000
4 8 13 7.9565 0.0000
4 8 14 0.3509 0.0000
4 8 15 -0.1769 0.0000
4 8 16 -0.3968 0.0000
4 10 0 2.7520 0.0000
4 10 1 -7.0796 0.0000
4 10 2 2.9190 0.0000
4 10 3 -4.5091 0.0000
4 10 4 -0.2908 0.0000
4 10 5 0.9246 0.0000
4 10 6 -0.8659 0.0000
4 10 7 1.1784 0.0000
4 10 8 0.2111 0.0000
4 10 9 -1.6412 0.0000
4 10 10 -1.2639 0.0000
4 10 11 0.2770 0.0000
5 1 0 14.6333 0.0000
5 1 1 21.7067 0.0000
5 1 3 -33.9663 0.0000
5 1 4 -17.8715 0.0000
5 1 5 -6.6559 0.0000
5 1 6 -3.4322 0.0000
5 1 7 10.2327 0.0000
5 1 8 -5.8338 0.0000
5 1 9 -3.7516 0.0000
5 1 10 1.9500 0.0000
5 1 11 -9.9223 0.0000
5 1 12 3.9452 0.0000
5 1 13 -0.4027 0.0000
5 1 14 2.2589 0.0000
5 1 15 2.0370 0.0000
5 1 16 3.2703 0.0000
5 1 17 -0.0312 0.0000
5 1 18 0.6854 0.0000
5 1 19 -2.5096 0.0000
5 1 20 -1.5558 0.0000
5 1 21 1.8449 0.0000
5 3 0 -40.7878 0.0000
5 3 1 14.8248 0.0000
5 3 2 -15.5001 0.0000
5 3 3 -1.8049 0.0000
5 3 4 -7.7507 0.0000
5 3 5 5.3173 0.0000
5 3 6 4.6765 0.0000
5 3 7 -5.0178 0.0000
5 3 8 0.8892 0.0000
5 3 9 1.7528 0.0000
5 3 10 2.2883 0.0000
5 3 11 1.5958 0.0000
5 3 12 0.8561 0.0000
5 3 13 -2.7536 0.0000
5 3 14 2.6580 0.0000
5 3 15 0.8339 0.0000
5 3 16 2.6726 0.0000
5 3 17 2.9721 0.0000
5 3 18 -3.4736 0.0000
5 3 19 -0.4512 0.0000
5 3 20 5.9443 0.0000
5 3 21 -2.0306 0.0000
5 5 0 -0.8028 0.0000
5 5 1 10.3091 0.0000
5 5 2 0.2488 0.0000
5 5 3 6.8181 0.0000
5 5 4 -6.4914 0.0000
5 5 5 11.6422 0.0000
5 5 6 1.1853 0.0000
5 5 7 -0.3861 0.0000
5 5 8 0.1072 0.0000
5 5 9 -0.3768 0.0000
5 5 10 -0.3794 0.0000
5 5 11 3.0125 0.0000
5 5 12 -1.3746 0.0000
5 5 13 3.5969 0.0000
5 5 14 -3.1002 0.0000
5 5 15 2.7663 0.0000
5 5 16 1.1595 0.0000
5 5 17 1.1853 0.0000
5 5 18 -2.2416 0.0000
5 5 19 5.9634 0.0000
5 7 0 14.8519 0.0000
5 7 1 -2.3809 0.0000
5 7 2 6.2364 0.0000
5 7 3 -1.4467 0.0000
5 7 4 1.1107 0.0000
5 7 5 1.9998 0.0000
5 7 6 2.1380 0.0000
5 7 7 5.1036 0.0000
5 7 8 -3.5169 0.0000
5 7 9 5.6815 0.0000
5 7 10 -4.7395 0.0000
5 7 11 1.6797 0.0000
5 7 12 1.0598 0.0000
5 7 13 -5.9076 0.0000
5 7 14 1.2886 0.0000
5 7 15 -2.9864 0.0000
5 7 16 1.0518 0.0000
5 7 17 1.3990 0.0000
5 9 0 -0.1721 0.0000
5 9 1 5.2711 0.0000
5 9 2 0.9996 0.0000
5 9 3 4.1223 0.0000
5 9 4 -3.0295 0.0000
5 9 5 4.3908 0.0000
5 9 6 -2.2211 0.0000
5 9 7 0.4400 0.0000
5 9 8 -0.6220 0.0000
5 9 9 -1.0959 0.0000
5 9 10 1.9864 0.0000
5 9 11 -0.5623 0.0000
5 9 12 4.8648 0.0000
5 9 13 -2.6427 0.0000
5 9 14 2.6664 0.0000
5 11 0 -5.1615 0.0000
5 11 1 -0.5575 0.0000
5 11 2 -6.7185 0.0000
5 11 3 -0.1111 0.0000
5 11 4 0.1601 0.0000
5 11 5 -2.3182 0.0000
5 11 6 5.6988 0.0000
5 11 7 -0.4496 0.0000
5 11 8 -0.3087 0.0000
6 0 0 -48.0984 0.0000
6 0 2 -64.5984 0.0000
6 0 4 29.1380 0.0000
6 0 6 -6.5225 0.0000
6 0 8 7.5602 0.0000
6 0 10 -0.0781 0.0000
6 0 12 1.5465 0.0000
6 0 14 0.0859 0.0000
6 0 16 -1.6340 0.0000
6 0 18 0.5321 0.0000
6 0 20 0.6694 0.0000
6 2 0 12.9971 0.0000
6 2 1 15.5644 0.0000
6 2 2 -53.8642 0.0000
6 2 3 32.5156 0.0000
6 2 4 -3.9241 0.0000
6 2 5 0.2347 0.0000
6 2 6 3.3847 0.0000
6 2 7 -4.1005 0.0000
6 2 8 0.5048 0.0000
6 2 9 -2.0726 0.0000
6 2 10 0.0444 0.0000
6 2 11 7.5317 0.0000
6 2 12 -2.1537 0.0000
6 2 13 4.9054 0.0000
6 2 14 -5.0698 0.0000
6 2 15 -2.7877 0.0000
6 2 16 -1.9909 0.0000
6 2 17 -6.0478 0.0000
6 2 18 0.4234 0.0000
6 2 19 2.8072 0.0000
6 2 20 -0.0955 0.0000
6 2 21 -2.8450 0.0000
6 4 0 -8.1228 0.0000
6 4 1 -22.3032 0.0000
6 4 2 15.3678 0.0000
6 4 3 -12.0418 0.0000
6 4 4 2.4788 0.0000
6 4 5 -8.5741 0.0000
6 4 6 -10.0515 0.0000
6 4 7 7.1226 0.0000
6 4 8 -1.4350 0.0000
6 4 9 0.6776 0.0000
6 4 10 -3.6420 0.0000
6 4 11 -3.0930 0.0000
6 4 12 -2.3385 0.0000
6 4 13 -2.2501 0.0000
6 4 14 -1.5452 0.0000
6 4 15 -0.2316 0.0000
6 4 16 -1.6731 0.0000
6 4 17 -1.3566 0.0000
6 4 18 2.4893 0.0000
6 4 19 -5.5832 0.0000
6 4 20 -0.9379 0.0000
6 6 0 -2.7497 0.0000
6 6 1 -9.1223 0.0000
6 6 2 -7.7075 0.0000
6 6 3 2.7786 0.0000
6 6 4 -1.9414 0.0000
6 6 5 -8.1480 0.0000
6 6 6 -1.1031 0.0000
6 6 7 -2.3823 0.0000
6 6 8 1.3741 0.0000
6 6 9 -0.5748 0.0000
6 6 10 0.4946 0.0000
6 6 11 -3.1143 0.0000
6 6 12 4.0133 0.0000
6 6 13 -1.1698 0.0000
6 6 14 6.1762 0.0000
6 6 15 0.0042 0.0000
6 6 16 0.4249 0.0000
6 6 17 -0.7371 0.0000
6 6 18 3.2440 0.0000
6 8 0 -6.3145 0.0000
6 8 1 5.2897 0.0000
6 8 2 -6.4250 0.0000
6 8 3 -0.9790 0.0000
6 8 4 -1.2978 0.0000
6 8 5 -0.3394 0.0000
6 8 6 0.4100 0.0000
6 8 7 -5.2820 0.0000
6 8 8 5.7171 0.0000
6 8 9 -3.5685 0.0000
6 8 10 3.7133 0.0000
6 8 11 -0.2407 0.0000
6 8 12 -1.5996 0.0000
6 8 13 6.3986 0.0000
6 8 14 -1.6052 0.0000
6 8 15 4.8562 0.0000
6 10 0 4.7217 0.0000
6 10 1 -1.2110 0.0000
6 10 2 4.9011 0.0000
6 10 3 2.1768 0.0000
6 10 4 4.8424 0.0000
6 10 5 -2.4867 0.0000
6 10 6 -2.4623 0.0000
6 10 7 1.2341 0.0000
6 10 8 -0.3372 0.0000
6 10 9 0.2218 0.0000
6 10 10 1.4561 0.0000
6 10 11 -1.8424 0.0000
7 1 0 21.6409 0.0000
7 1 1 -12.4957 0.0000
7 1 2 55.7480 0.0000
7 1 3 -8.2647 0.0000
7 1 4 -13.1395 0.0000
7 1 5 0.6995 0.0000
7 1 6 1.8233 0.0000
7 1 7 5.0092 0.0000
7 1 8 -1.0760 0.0000
7 1 9 3.0227 0.0000
7 1 10 -3.4705 0.0000
7 1 11 -6.7424 0.0000
7 1 12 -4.4049 0.0000
7 1 13 2.4727 0.0000
7 1 14 0.4043 0.0000
7 1 15 1.1736 0.0000
7 1 16 1.6606 0.0000
7 1 17 2.4482 0.0000
7 1 18 -0.3506 0.0000
7 1 19 -2.4564 0.0000
7 1 20 -3.4885 0.0000
7 1 21 0.1417 0.0000
7 3 0 18.7723 0.0000
7 3 1 0.6925 0.0000
7 3 2 32.2067 0.0000
7 3 3 -26.6938 0.0000
7 3 4 17.2202 0.0000
7 3 5 10.3761 0.0000
7 3 6 4.2383 0.0000
7 3 7 -1.9204 0.0000
7 3 8 -2.7948 0.0000
7 3 9 4.1177 0.0000
7 3 10 5.5284 0.0000
7 3 11 1.6922 0.0000
7 3 12 3.5054 0.0000
7 3 13 -3.6032 0.0000
7 3 14 6.7532 0.0000
7 3 15 -0.1900 0.0000
7 3 16 -1.4788 0.0000
7 3 17 4.2357 0.0000
7 3 18 -0.6086 0.0000
7 3 19 1.0145 0.0000
7 3 20 3.0256 0.0000
7 3 21 0.8461 0.0000
7 5 0 4.6113 0.0000
7 5 1 12.6470 0.0000
7 5 2 -0.7228 0.0000
7 5 3 15.9624 0.0000
7 5 4 -3.8289 0.0000
7 5 5 7.2004 0.0000
7 5 6 11.6554 0.0000
7 5 7 -7.0632 0.0000
7 5 8 3.5205 0.0000
7 5 9 -6.0067 0.0000
7 5 10 0.2981 0.0000
7 5 11 0.0886 0.0000
7 5 12 0.7681 0.0000
7 5 13 -1.4581 0.0000
7 5 14 -4.9290 0.0000
7 5 15 0.2055 0.0000
7 5 16 -1.0994 0.0000
7 5 17 1.0182 0.0000
7 5 18 -3.2797 0.0000
7 5 19 7.3868 0.0000
7 7 0 2.3980 0.0000
7 7 1 2.3978 0.0000
7 7 2 0.9137 0.0000
7 7 3 -5.1812 0.0000
7 7 4 5.9346 0.0000
7 7 5 2.7882 0.0000
7 7 6 -0.5123 0.0000
7 7 7 5.5910 0.0000
7 7 8 -3.8325 0.0000
7 7 9 1.9980 0.0000
7 7 10 -4.7015 0.0000
7 7 11 0.8554 0.0000
7 7 12 -5.8590 0.0000
7 7 13 -1.2112 0.0000
7 7 14 -6.9435 0.0000
7 7 15 -3.9169 0.0000
7 7 16 -1.1690 0.0000
7 9 0 2.2013 0.0000
7 9 1 -4.0170 0.0000
7 9 2 3.0620 0.0000
7 9 3 -2.3624 0.0000
7 9 4 -5.4091 0.0000
7 9 5 -2.1636 0.0000
7 9 6 0.3870 0.0000
7 9 7 5.1230 0.0000
7 9 8 -4.8382 0.0000
7 9 9 3.4404 0.0000
7 9 10 -2.3389 0.0000
7 9 11 1.4484 0.0000
7 9 12 2.9157 0.0000
7 9 13 0.5839 0.0000
7 9 14 3.8196 0.0000
7 11 0 -2.9650 0.0000
7 11 1 1.0417 0.0000
7 11 2 -1.8921 0.0000
7 11 3 -1.4482 0.0000
7 11 4 -0.1553 0.0000
7 11 5 -1.1669 0.0000
7 11 6 0.0664 0.0000
7 11 7 -4.8006 0.0000
8 0 0 -15.4145 0.0000
8 0 2 -40.6490 0.0000
8 0 4 18.5664 0.0000
8 0 6 -16.6193 0.0000
8 0 8 -3.2755 0.0000
8 0 10 8.0525 0.0000
8 0 12 6.2562 0.0000
8 0 14 -1.7266 0.0000
8 0 16 4.9309 0.0000
8 0 18 4.6712 0.0000
8 0 20 4.9479 0.0000
8 2 0 -32.5941 0.0000
8 2 1 3.9830 0.0000
8 2 2 -45.6137 0.0000
8 2 3 8.7401 0.0000
8 2 4 -8.4686 0.0000
8 2 5 -15.7161 0.0000
8 2 6 1.1981 0.0000
8 2 7 -3.2473 0.0000
8 2 8 2.3534 0.0000
8 2 9 -7.0989 0.0000
8 2 10 -4.3662 0.0000
8 2 11 -2.5900 0.0000
8 2 12 3.7034 0.0000
8 2 13 0.9977 0.0000
8 2 14 -1.2287 0.0000
8 2 15 -0.5392 0.0000
8 2 16 -2.4183 0.0000
8 2 17 -1.7171 0.0000
8 2 18 -2.9430 0.0000
8 2 19 -1.4022 0.0000
8 2 20 0.7931 0.0000
8 2 21 -2.2657 0.0000
8 4 0 -11.9601 0.0000
8 4 1 -6.2268 0.0000
8 4 2 -19.2625 0.0000
8 4 3 10.1272 0.0000
8 4 4 -16.0061 0.0000
8 4 5 -4.8370 0.0000
8 4 6 -6.8460 0.0000
8 4 7 1.0809 0.0000
8 4 8 1.6672 0.0000
8 4 9 6.1437 0.0000
8 4 10 1.3290 0.0000
8 4 11 1.7495 0.0000
8 4 12 -4.0322 0.0000
8 4 13 2.0842 0.0000
8 4 14 -0.6764 0.0000
8 4 15 2.3490 0.0000
8 4 16 1.3673 0.0000
8 4 17 -1.0951 0.0000
8 4 18 -0.9524 0.0000
8 4 19 -3.8768 0.0000
8 4 20 -3.1349 0.0000
8 6 0 0.2744 0.0000
8 6 1 -3.6027 0.0000
8 6 2 1.4245 0.0000
8 6 3 -2.2932 0.0000
8 6 4 4.6536 0.0000
8 6 5 -7.3906 0.0000
8 6 6 -7.9036 0.0000
8 6 7 5.1637 0.0000
8 6 8 -6.8369 0.0000
8 6 9 3.2935 0.0000
8 6 10 -0.9425 0.0000
8 6 11 1.3348 0.0000
8 6 12 3.3443 0.0000
8 6 13 3.2311 0.0000
8 6 14 6.0893 0.0000
8 6 15 1.7865 0.0000
8 6 16 3.3254 0.0000
8 6 17 -1.3779 0.0000
8 8 0 -0.6668 0.0000
8 8 1 0.6028 0.0000
8 8 2 0.2262 0.0000
8 8 3 0.8858 0.0000
8 8 4 -1.5644 0.0000
8 8 5 6.2194 0.0000
8 8 6 2.3139 0.0000
8 8 7 -8.2767 0.0000
8 8 8 4.8403 0.0000
8 8 9 -4.8538 0.0000
8 8 10 5.8995 0.0000
8 8 11 -1.3087 0.0000
8 8 12 0.1035 0.0000
8 8 13 -2.4048 0.0000
8 8 14 1.3617 0.0000
8 8 15 2.2211 0.0000
8 10 0 -3.5417 0.0000
8 10 1 -0.1794 0.0000
8 10 2 -3.2232 0.0000
8 10 3 2.5010 0.0000
8 10 4 2.7663 0.0000
8 10 5 -2.3441 0.0000
8 10 6 -0.9628 0.0000
8 10 7 3.6579 0.0000
8 10 8 3.9181 0.0000
8 10 9 -5.8929 0.0000
8 10 10 0.0478 0.0000
8 10 11 -4.4756 0.0000
9 1 0 14.9139 0.0000
9 1 1 9.3441 0.0000
9 1 2 37.0050 0.0000
9 1 3 16.7067 0.0000
9 1 4 -3.5572 0.0000
9 1 5 7.0079 0.0000
9 1 6 15.4670 0.0000
9 1 7 -2.6820 0.0000
9 1 8 5.6103 0.0000
9 1 9 6.4426 0.0000
9 1 10 -1.3515 0.0000
9 1 11 4.1034 0.0000
9 1 12 -5.1854 0.0000
9 1 13 -1.0388 0.0000
9 1 14 -0.3679 0.0000
9 1 15 -0.1703 0.0000
9 1 16 -1.7249 0.0000
9 1 17 5.1028 0.0000
9 1 18 0.1543 0.0000
9 1 19 4.0676 0.0000
9 1 20 -1.3942 0.0000
9 3 0 33.5926 0.0000
9 3 1 -3.2126 0.0000
9 3 2 26.5208 0.0000
9 3 3 -11.0911 0.0000
9 3 4 13.0375 0.0000
9 3 5 13.0773 0.0000
9 3 6 -2.9567 0.0000
9 3 7 5.2802 0.0000
9 3 8 -6.9812 0.0000
9 3 9 0.9376 0.0000
9 3 10 -1.3119 0.0000
9 3 11 0.3177 0.0000
9 3 12 -0.0942 0.0000
9 3 13 -0.5615 0.0000
9 3 14 1.6288 0.0000
9 3 15 -2.0589 0.0000
9 3 16 0.6837 0.0000
9 3 17 -1.3239 0.0000
9 3 18 3.8122 0.0000
9 3 19 2.6484 0.0000
9 3 20 1.3541 0.0000
9 5 0 -0.7309 0.0000
9 5 1 1.1544 0.0000
9 5 2 3.5975 0.0000
9 5 3 -8.5720 0.0000
9 5 4 7.0487 0.0000
9 5 5 1.1974 0.0000
9 5 6 7.3722 0.0000
9 5 7 -1.6344 0.0000
9 5 8 6.1275 0.0000
9 5 9 -2.9228 0.0000
9 5 10 1.9890 0.0000
9 5 11 -1.6043 0.0000
9 5 12 0.7757 0.0000
9 5 13 -3.0936 0.0000
9 5 14 -1.9791 0.0000
9 5 15 -1.1649 0.0000
9 5 16 -1.2511 0.0000
9 5 17 -1.1131 0.0000
9 5 18 -1.3343 0.0000
9 5 19 0.5775 0.0000
9 7 0 -3.3099 0.0000
9 7 1 3.9773 0.0000
9 7 2 0.2101 0.0000
9 7 3 1.6450 0.0000
9 7 4 -1.9845 0.0000
9 7 5 2.3739 0.0000
9 7 6 0.6427 0.0000
9 7 7 -1.9600 0.0000
9 7 8 5.0210 0.0000
9 7 9 -3.9187 0.0000
9 7 10 -1.4737 0.0000
9 7 11 -1.6055 0.0000
9 7 12 -1.4801 0.0000
9 7 13 1.4650 0.0000
9 7 14 -1.6734 0.0000
9 7 15 -2.1295 0.0000
9 7 16 -2.0458 0.0000
9 9 0 2.9027 0.0000
9 9 1 0.6862 0.0000
9 9 2 0.8204 0.0000
9 9 3 -0.7847 0.0000
9 9 4 -1.1589 0.0000
9 9 5 -3.1899 0.0000
9 9 6 0.8478 0.0000
9 9 7 3.7873 0.0000
9 9 8 -6.1217 0.0000
9 9 9 7.0163 0.0000
9 9 10 0.0055 0.0000
9 9 11 6.4347 0.0000
9 9 12 2.2820 0.0000
9 9 13 2.4596 0.0000
9 11 0 2.1088 0.0000
9 11 1 2.1938 0.0000
9 11 2 5.9773 0.0000
9 11 3 -2.5696 0.0000
9 11 4 -1.0523 0.0000
9 11 5 2.2426 0.0000
9 11 6 3.2717 0.0000
10 0 0 -10.1767 0.0000
10 0 2 -40.3886 0.0000
10 0 4 1.4456 0.0000
10 0 6 -23.3037 0.0000
10 0 8 -13.8988 0.0000
10 0 10 3.3774 0.0000
10 0 12 2.7818 0.0000
10 0 14 -1.0568 0.0000
10 0 16 3.1692 0.0000
10 0 18 -1.6384 0.0000
10 0 20 0.2536 0.0000
10 2 0 -19.3837 0.0000
10 2 1 -14.7733 0.0000
10 2 2 -10.1877 0.0000
10 2 3 -9.9743 0.0000
10 2 4 -4.4522 0.0000
10 2 5 -13.3766 0.0000
10 2 6 -3.8154 0.0000
10 2 7 7.1310 0.0000
10 2 8 -0.9927 0.0000
10 2 9 -3.7478 0.0000
10 2 10 -1.2255 0.0000
10 2 11 -4.3260 0.0000
10 2 12 4.4424 0.0000
10 2 13 0.7789 0.0000
10 2 14 2.1318 0.0000
10 2 15 1.2310 0.0000
10 2 16 -2.3138 0.0000
10 2 17 0.7178 0.0000
10 2 18 -2.8377 0.0000
10 2 19 -3.2325 0.0000
10 2 20 -1.4725 0.0000
10 4 0 -9.4314 0.0000
10 4 1 14.2927 0.0000
10 4 2 -14.6664 0.0000
10 4 3 16.0983 0.0000
10 4 4 -5.1027 0.0000
10 4 5 -5.0074 0.0000
10 4 6 0.4645 0.0000
10 4 7 -7.5684 0.0000
10 4 8 4.6925 0.0000
10 4 9 -1.1858 0.0000
10 4 10 2.0045 0.0000
10 4 11 1.3572 0.0000
10 4 12 -2.5681 0.0000
10 4 13 -0.2033 0.0000
10 4 14 -1.7112 0.0000
10 4 15 -0.4928 0.0000
10 4 16 1.7039 0.0000
10 4 17 0.9609 0.0000
10 4 18 -3.1154 0.0000
10 4 19 -1.0231 0.0000
10 6 0 0.8031 0.0000
10 6 1 -3.7793 0.0000
10 6 2 -0.2885 0.0000
10 6 3 1.0096 0.0000
10 6 4 -5.3049 0.0000
10 6 5 2.8409 0.0000
10 6 6 -3.8790 0.0000
10 6 7 2.5952 0.0000
10 6 8 -4.5593 0.0000
10 6 9 3.5580 0.0000
10 6 10 -1.4764 0.0000
10 6 11 1.5880 0.0000
10 6 12 -0.4455 0.0000
10 6 13 1.0371 0.0000
10 6 14 -0.0598 0.0000
10 6 15 0.8350 0.0000
10 6 16 -0.1003 0.0000
10 6 17 -0.9042 0.0000
10 8 0 2.3798 0.0000
10 8 1 -2.6208 0.0000
10 8 2 2.6177 0.0000
10 8 3 1.2797 0.0000
10 8 4 3.8113 0.0000
10 8 5 0.5623 0.0000
10 8 6 -1.8563 0.0000
10 8 7 -0.4408 0.0000
10 8 8 -4.9391 0.0000
10 8 9 0.4111 0.0000
10 8 10 -1.7658 0.0000
10 8 11 -4.1470 0.0000
10 8 12 -3.7357 0.0000
10 8 13 -3.8256 0.0000
10 8 14 -1.1852 0.0000
10 8 15 0.0009 0.0000
10 10 0 -4.1894 0.0000
10 10 1 -3.6703 0.0000
10 10 2 -6.8360 0.0000
10 10 3 -0.1553 0.0000
10 10 4 1.7614 0.0000
10 10 5 1.0586 0.0000
10 10 6 -1.0148 0.0000
10 10 7 -1.6305 0.0000
10 10 8 1.9779 0.0000
10 10 9 -4.5820 0.0000
10 10 10 0.9050 0.0000
11 1 0 14.4687 0.0000
11 1 1 16.3355 0.0000
11 1 2 15.7437 0.0000
11 1 3 4.3602 0.0000
11 1 4 3.3763 0.0000
11 1 5 2.4202 0.0000
11 1 6 14.3797 0.0000
11 1 7 -13.3771 0.0000
11 1 8 7.3261 0.0000
11 1 9 2.2620 0.0000
11 1 10 1.5835 0.0000
11 1 11 4.1578 0.0000
11 1 12 -1.6929 0.0000
11 1 13 -4.2203 0.0000
11 1 14 -1.0343 0.0000
11 1 15 -1.2747 0.0000
11 1 16 -1.3348 0.0000
11 1 17 3.5297 0.0000
11 1 18 1.5685 0.0000
11 1 19 4.8379 0.0000
11 1 20 2.4327 0.0000
11 3 0 -2.4109 0.0000
11 3 1 0.4648 0.0000
11 3 2 -4.9618 0.0000
11 3 3 0.0264 0.0000
11 3 4 -3.2617 0.0000
11 3 5 7.2179 0.0000
11 3 6 -0.0632 0.0000
11 3 7 -0.2609 0.0000
11 3 8 -2.1297 0.0000
11 3 9 -2.9813 0.0000
11 3 10 -2.9179 0.0000
11 3 11 2.4021 0.0000
11 3 12 -1.2621 0.0000
11 3 13 3.0801 0.0000
11 3 14 0.1568 0.0000
11 3 15 -0.5982 0.0000
11 3 16 3.1969 0.0000
11 3 17 -4.4578 0.0000
11 3 18 4.9740 0.0000
11 3 19 3.0286 0.0000
11 3 20 0.5917 0.0000
11 5 0 0.3700 0.0000
11 5 1 -10.7122 0.0000
11 5 2 11.2375 0.0000
11 5 3 -14.1777 0.0000
11 5 4 4.6324 0.0000
11 5 5 0.0681 0.0000
11 5 6 -3.8003 0.0000
11 5 7 4.7688 0.0000
11 5 8 1.4001 0.0000
11 5 9 3.1331 0.0000
11 5 10 -0.9902 0.0000
11 5 11 -0.3219 0.0000
11 5 12 0.1648 0.0000
11 5 13 -0.6577 0.0000
11 5 14 0.7017 0.0000
11 5 15 3.1098 0.0000
11 5 16 -1.9796 0.0000
11 5 17 1.5199 0.0000
11 5 18 1.2131 0.0000
11 7 0 2.5250 0.0000
11 7 1 0.2118 0.0000
11 7 2 -2.6918 0.0000
11 7 3 0.5706 0.0000
11 7 4 -1.1808 0.0000
11 7 5 -4.1408 0.0000
11 7 6 5.1683 0.0000
11 7 7 -0.4343 0.0000
11 7 8 3.9829 0.0000
11 7 9 -2.6862 0.0000
11 7 10 1.7773 0.0000
11 7 11 0.3511 0.0000
11 7 12 5.3343 0.0000
11 7 13 3.0263 0.0000
11 7 14 3.3921 0.0000
11 7 15 1.4864 0.0000
11 9 0 2.3813 0.0000
11 9 1 3.6089 0.0000
11 9 2 2.2232 0.0000
11 9 3 0.9309 0.0000
11 9 4 -0.8631 0.0000
11 9 5 -4.0663 0.0000
11 9 6 -0.4107 0.0000
11 9 7 -3.0674 0.0000
11 9 8 3.1469 0.0000
11 9 9 0.3396 0.0000
11 9 10 1.8529 0.0000
11 9 11 3.2307 0.0000
11 9 12 1.8854 0.0000
11 11 0 0.1207 0.0000
11 11 1 2.9592 0.0000
11 11 2 3.8278 0.0000
11 11 3 -4.4826 0.0000
11 11 4 -0.8918 0.0000
11 11 5 2.7480 0.0000
12 0 0 -7.3312 0.0000
12 0 2 -21.8389 0.0000
12 0 4 10.3668 0.0000
12 0 6 -7.6638 0.0000
12 0 8 -4.7047 0.0000
12 0 10 -3.2268 0.0000
12 0 12 3.5374 0.0000
12 0 14 0.1078 0.0000
12 0 16 -1.2686 0.0000
12 0 18 -6.6215 0.0000
12 2 0 3.1749 0.0000
12 2 1 -3.5584 0.0000
12 2 2 14.5877 0.0000
12 2 3 -3.0153 0.0000
12 2 4 -2.9926 0.0000
12 2 5 2.7611 0.0000
12 2 6 -8.9866 0.0000
12 2 7 12.2621 0.0000
12 2 8 0.2122 0.0000
12 2 9 5.3145 0.0000
12 2 10 0.5987 0.0000
12 2 11 -1.0028 0.0000
12 2 12 -2.5424 0.0000
12 2 13 2.7574 0.0000
12 2 14 3.7155 0.0000
12 2 15 -1.4806 0.0000
12 2 16 1.0126 0.0000
12 2 17 -0.3743 0.0000
12 2 18 0.3892 0.0000
12 2 19 -3.0837 0.0000
12 2 20 -1.8471 0.0000
12 4 0 2.8352 0.0000
12 4 1 4.4312 0.0000
12 4 2 5.1363 0.0000
12 4 3 6.9083 0.0000
12 4 4 5.7703 0.0000
12 4 5 -1.6898 0.0000
12 4 6 4.7626 0.0000
12 4 7 -6.3077 0.0000
12 4 8 -3.4637 0.0000
12 4 9 -2.5073 0.0000
12 4 10 2.8389 0.0000
12 4 11 0.7699 0.0000
12 4 12 2.9433 0.0000
12 4 13 -2.7758 0.0000
12 4 14 -2.9907 0.0000
12 4 15 -1.4539 0.0000
12 4 16 -0.3110 0.0000
12 4 17 1.5443 0.0000
12 4 18 -1.1087 0.0000
12 4 19 -1.3414 0.0000
12 6 0 2.9179 0.0000
12 6 1 2.4773 0.0000
12 6 2 -6.9198 0.0000
12 6 3 7.2384 0.0000
12 6 4 -5.8602 0.0000
12 6 5 4.1870 0.0000
12 6 6 4.3987 0.0000
12 6 7 -1.9985 0.0000
12 6 8 1.6249 0.0000
12 6 9 1.0950 0.0000
12 6 10 0.1734 0.0000
12 6 11 -3.4444 0.0000
12 6 12 -2.2162 0.0000
12 6 13 -2.7123 0.0000
12 6 14 -2.1029 0.0000
12 6 15 -2.7082 0.0000
12 6 16 0.5190 0.0000
12 8 0 -5.8559 0.0000
12 8 1 4.0962 0.0000
12 8 2 0.9108 0.0000
12 8 3 -0.2994 0.0000
12 8 4 4.4380 0.0000
12 8 5 1.0649 0.0000
12 8 6 -2.9301 0.0000
12 8 7 6.1583 0.0000
12 8 8 -5.4766 0.0000
12 8 9 1.2128 0.0000
12 8 10 -1.3777 0.0000
12 8 11 -1.4994 0.0000
12 8 12 -3.3764 0.0000
12 8 13 0.5426 0.0000
12 8 14 -0.2954 0.0000
12 10 0 0.3319 0.0000
12 10 1 -1.2723 0.0000
12 10 2 -3.2751 0.0000
12 10 3 4.3809 0.0000
12 10 4 1.5724 0.0000
12 10 5 3.2080 0.0000
12 10 6 -2.7663 0.0000
12 10 7 -0.4031 0.0000
12 10 8 -1.4875 0.0000
12 10 9 0.8273 0.0000
13 1 0 -5.4684 0.0000
13 1 1 2.2362 0.0000
13 1 2 -4.4168 0.0000
13 1 3 -7.4698 0.0000
13 1 4 -8.2458 0.0000
13 1 5 2.8996 0.0000
13 1 6 0.7430 0.0000
13 1 7 -9.3006 0.0000
13 1 8 -2.4433 0.0000
13 1 9 -4.4298 0.0000
13 1 10 0.0540 0.0000
13 1 11 2.5445 0.0000
13 1 12 -0.2644 0.0000
13 1 13 -2.2616 0.0000
13 1 14 -2.0946 0.0000
13 1 15 -3.8372 0.0000
13 1 16 0.8442 0.0000
13 1 17 -1.2754 0.0000
13 1 18 0.6965 0.0000
13 1 19 0.6605 0.0000
13 1 20 2.2040 0.0000
13 3 0 -9.7758 0.0000
13 3 1 -4.3426 0.0000
13 3 2 -15.7147 0.0000
13 3 3 3.2697 0.0000
13 3 4 -4.7686 0.0000
13 3 5 -6.6622 0.0000
13 3 6 8.0472 0.0000
13 3 7 -4.7393 0.0000
13 3 8 5.8357 0.0000
13 3 9 -1.9075 0.0000
13 3 10 -1.2489 0.0000
13 3 11 -3.8390 0.0000
13 3 12 1.0741 0.0000
13 3 13 2.3368 0.0000
13 3 14 -0.2334 0.0000
13 3 15 3.5185 0.0000
13 3 16 -1.4923 0.0000
13 3 17 -2.3470 0.0000
13 3 18 0.2839 0.0000
13 3 19 1.8299 0.0000
13 5 0 2.2139 0.0000
13 5 1 -1.4091 0.0000
13 5 2 -1.2613 0.0000
13 5 3 -3.8583 0.0000
13 5 4 0.5815 0.0000
13 5 5 -0.4023 0.0000
13 5 6 -11.3412 0.0000
13 5 7 1.9168 0.0000
13 5 8 -2.2523 0.0000
13 5 9 0.3974 0.0000
13 5 10 1.2469 0.0000
13 5 11 2.8616 0.0000
13 5 12 -0.8353 0.0000
13 5 13 0.1559 0.0000
13 5 14 0.3069 0.0000
13 5 15 2.1294 0.0000
13 5 16 -2.4589 0.0000
13 5 17 4.8189 0.0000
13 5 18 0.6790 0.0000
13 7 0 -3.1458 0.0000
13 7 1 -2.5620 0.0000
13 7 2 -0.0115 0.0000
13 7 3 -6.1792 0.0000
13 7 4 1.2154 0.0000
13 7 5 -2.7797 0.0000
13 7 6 1.8864 0.0000
13 7 7 4.7119 0.0000
13 7 8 -0.7439 0.0000
13 7 9 -1.3593 0.0000
13 7 10 -0.4233 0.0000
13 7 11 0.6861 0.0000
13 7 12 -0.1465 0.0000
13 7 13 1.2386 0.0000
13 7 14 1.1123 0.0000
13 7 15 1.4041 0.0000
13 9 0 4.2333 0.0000
13 9 1 -4.9763 0.0000
13 9 2 1.9845 0.0000
13 9 3 -1.3434 0.0000
13 9 4 -4.6141 0.0000
13 9 5 -1.8894 0.0000
13 9 6 1.0507 0.0000
13 9 7 -5.7974 0.0000
13 9 8 5.4876 0.0000
13 9 9 -2.9989 0.0000
13 9 10 -0.8956 0.0000
13 9 11 0.6711 0.0000
13 9 12 1.1496 0.0000
13 11 0 0.8664 0.0000
13 11 1 2.3887 0.0000
13 11 2 3.1281 0.0000
13 11 3 -5.1935 0.0000
13 11 4 -2.1397 0.0000
14 0 0 15.7375 0.0000
14 0 2 7.0895 0.0000
14 0 4 21.1444 0.0000
14 0 6 8.2145 0.0000
14 0 8 6.7507 0.0000
14 0 10 -4.3943 0.0000
14 0 12 0.7945 0.0000
14 0 14 3.8680 0.0000
14 0 16 0.0615 0.0000
14 0 18 -2.7669 0.0000
14 2 0 5.0645 0.0000
14 2 1 2.8582 0.0000
14 2 2 16.2205 0.0000
14 2 3 3.2009 0.0000
14 2 4 -0.1925 0.0000
14 2 5 -0.0473 0.0000
14 2 6 -2.4614 0.0000
14 2 7 4.9097 0.0000
14 2 8 0.2504 0.0000
14 2 9 2.7663 0.0000
14 2 10 2.3394 0.0000
14 2 11 -0.1115 0.0000
14 2 12 -3.1145 0.0000
14 2 13 1.0977 0.0000
14 2 14 0.1248 0.0000
14 2 15 -0.3464 0.0000
14 2 16 2.0932 0.0000
14 2 17 -1.1027 0.0000
14 2 18 2.8536 0.0000
14 2 19 -2.1733 0.0000
14 4 0 6.5583 0.0000
14 4 1 -3.9788 0.0000
14 4 2 7.7835 0.0000
14 4 3 -0.1891 0.0000
14 4 4 5.9746 0.0000
14 4 5 3.5773 0.0000
14 4 6 -1.8360 0.0000
14 4 7 5.4090 0.0000
14 4 8 -4.3312 0.0000
14 4 9 0.8883 0.0000
14 4 10 -1.3066 0.0000
14 4 11 2.3855 0.0000
14 4 12 2.0965 0.0000
14 4 13 1.1906 0.0000
14 4 14 -0.8555 0.0000
14 4 15 -0.1111 0.0000
14 4 16 -1.0055 0.0000
14 4 17 0.1804 0.0000
14 4 18 -0.7673 0.0000
14 6 0 3.2494 0.0000
14 6 1 4.7066 0.0000
14 6 2 1.7774 0.0000
14 6 3 0.8866 0.0000
14 6 4 1.4140 0.0000
14 6 5 2.4793 0.0000
14 6 6 4.7253 0.0000
14 6 7 -7.3010 0.0000
14 6 8 0.7266 0.0000
14 6 9 2.8851 0.0000
14 6 10 -0.3859 0.0000
14 6 11 -1.3257 0.0000
14 6 12 -0.1999 0.0000
14 6 13 -2.5462 0.0000
14 6 14 -0.1581 0.0000
14 6 15 -2.2080 0.0000
14 6 16 4.3612 0.0000
14 8 0 -5.2683 0.0000
14 8 1 4.9751 0.0000
14 8 2 0.8122 0.0000
14 8 3 2.7158 0.0000
14 8 4 1.1384 0.0000
14 8 5 0.0687 0.0000
14 8 6 0.7900 0.0000
14 8 7 1.1873 0.0000
14 8 8 1.1875 0.0000
14 8 9 0.3152 0.0000
14 8 10 0.2705 0.0000
14 8 11 -0.8061 0.0000
14 8 12 1.3805 0.0000
14 8 13 1.1455 0.0000
14 10 0 -0.8322 0.0000
14 10 1 -0.1966 0.0000
14 10 2 -2.5783 0.0000
14 10 3 4.0445 0.0000
14 10 4 2.9895 0.0000
14 10 5 4.1869 0.0000
14 10 6 -0.2665 0.0000
14 10 7 -1.3383 0.0000
14 10 8 -6.0859 0.0000
15 1 0 -11.4861 0.0000
15 1 1 3.0751 0.0000
15 1 2 -13.3513 0.0000
15 1 3 -5.4889 0.0000
15 1 4 -12.0158 0.0000
15 1 5 9.8634 0.0000
15 1 6 -5.5583 0.0000
15 1 7 1.2087 0.0000
15 1 8 -6.4436 0.0000
15 1 9 -4.6633 0.0000
15 1 10 3.4032 0.0000
15 1 11 0.2678 0.0000
15 1 12 1.2545 0.0000
15 1 13 2.6535 0.0000
15 1 14 -1.8721 0.0000
15 1 15 -2.0605 0.0000
15 1 16 1.1255 0.0000
15 1 17 -1.3819 0.0000
15 1 18 1.6623 0.0000
15 1 19 -1.2358 0.0000
15 3 0 -0.1077 0.0000
15 3 1 -1.7468 0.0000
15 3 2 -8.5098 0.0000
15 3 3 1.1361 0.0000
15 3 4 -2.9441 0.0000
15 3 5 -5.6476 0.0000
15 3 6 5.0067 0.0000
15 3 7 -0.9142 0.0000
15 3 8 3.7607 0.0000
15 3 9 -1.4573 0.0000
15 3 10 -2.7891 0.0000
15 3 11 -3.2137 0.0000
15 3 12 -0.9882 0.0000
15 3 13 -1.3794 0.0000
15 3 14 2.0763 0.0000
15 3 15 3.4028 0.0000
15 3 16 -3.4238 0.0000
15 3 17 1.3380 0.0000
15 3 18 -3.2367 0.0000
15 3 19 1.3791 0.0000
15 5 0 -6.3815 0.0000
15 5 1 4.0418 0.0000
15 5 2 -7.2124 0.0000
15 5 3 1.2401 0.0000
15 5 4 -1.8487 0.0000
15 5 5 -2.9337 0.0000
15 5 6 -5.7689 0.0000
15 5 7 -3.1199 0.0000
15 5 8 3.9132 0.0000
15 5 9 -2.4728 0.0000
15 5 10 4.4724 0.0000
15 5 11 1.6281 0.0000
15 5 12 4.6974 0.0000
15 5 13 -1.4624 0.0000
15 5 14 1.5847 0.0000
15 5 15 -1.9305 0.0000
15 5 16 -0.9298 0.0000
15 5 17 0.6376 0.0000
15 7 0 -2.0493 0.0000
15 7 1 -3.3631 0.0000
15 7 2 -2.0463 0.0000
15 7 3 -1.7551 0.0000
15 7 4 -1.2151 0.0000
15 7 5 1.3235 0.0000
15 7 6 -0.7458 0.0000
15 7 7 4.9705 0.0000
15 7 8 -2.1968 0.0000
15 7 9 -1.7837 0.0000
15 7 10 1.3108 0.0000
15 7 11 -1.5753 0.0000
15 7 12 -4.5155 0.0000
15 7 13 0.6807 0.0000
15 7 14 -2.3584 0.0000
15 9 0 6.2356 0.0000
15 9 1 -3.5475 0.0000
15 9 2 2.3014 0.0000
15 9 3 0.9368 0.0000
15 9 4 -3.1736 0.0000
15 9 5 0.3530 0.0000
15 9 6 0.1551 0.0000
15 9 7 1.1749 0.0000
15 9 8 2.2841 0.0000
15 9 9 2.4589 0.0000
15 9 10 -1.6609 0.0000
15 9 11 -0.3593 0.0000
15 11 0 -0.6403 0.0000
15 11 1 1.6638 0.0000
15 11 2 1.7124 0.0000
16 0 0 9.8433 0.0000
16 0 2 11.2831 0.0000
16 0 4 14.5799 0.0000
16 0 6 0.7710 0.0000
16 0 8 6.6816 0.0000
16 0 10 -4.3572 0.0000
16 0 12 -4.4352 0.0000
16 0 14 2.1458 0.0000
16 0 16 1.4519 0.0000
16 0 18 -2.2885 0.0000
16 2 0 3.0269 0.0000
16 2 1 1.0919 0.0000
16 2 2 6.3940 0.0000
16 2 3 1.2189 0.0000
16 2 4 6.3596 0.0000
16 2 5 -5.2135 0.0000
16 2 6 4.1892 0.0000
16 2 7 -3.8363 0.0000
16 2 8 0.7204 0.0000
16 2 9 1.2580 0.0000
16 2 10 1.1551 0.0000
16 2 11 1.1584 0.0000
16 2 12 1.3086 0.0000
16 2 13 -2.0140 0.0000
16 2 14 -2.9303 0.0000
16 2 15 0.2543 0.0000
16 2 16 -0.2929 0.0000
16 2 17 0.0926 0.0000
16 2 18 1.0885 0.0000
16 2 19 -0.4275 0.0000
16 4 0 -3.1283 0.0000
16 4 1 -2.4878 0.0000
16 4 2 8.4029 0.0000
16 4 3 -3.9330 0.0000
16 4 4 -0.4781 0.0000
16 4 5 6.9473 0.0000
16 4 6 0.4745 0.0000
16 4 7 5.4644 0.0000
16 4 8 -0.9660 0.0000
16 4 9 0.8345 0.0000
16 4 10 -4.4510 0.0000
16 4 11 -1.8395 0.0000
16 4 12 -1.5685 0.0000
16 4 13 1.9200 0.0000
16 4 14 -1.4146 0.0000
16 4 15 1.6366 0.0000
16 4 16 -0.9725 0.0000
16 4 17 -1.0387 0.0000
16 4 18 -0.7900 0.0000
16 6 0 5.9215 0.0000
16 6 1 -2.5931 0.0000
16 6 2 4.5856 0.0000
16 6 3 0.9441 0.0000
16 6 4 2.2041 0.0000
16 6 5 -1.2388 0.0000
16 6 6 1.8188 0.0000
16 6 7 -1.8651 0.0000
16 6 8 -4.8351 0.0000
16 6 9 6.3540 0.0000
16 6 10 -2.0351 0.0000
16 6 11 3.8035 0.0000
16 6 12 -0.1777 0.0000
16 6 13 0.4403 0.0000
16 6 14 -0.0959 0.0000
16 6 15 -1.2006 0.0000
16 8 0 -3.1834 0.0000
16 8 1 0.5647 0.0000
16 8 2 -2.7475 0.0000
16 8 3 -1.5021 0.0000
16 8 4 -0.8852 0.0000
16 8 5 -2.8622 0.0000
16 8 6 0.4745 0.0000
16 8 7 -4.2518 0.0000
16 8 8 2.5770 0.0000
16 8 9 -0.7727 0.0000
16 8 10 -0.4497 0.0000
16 8 11 1.4494 0.0000
16 8 12 3.4265 0.0000
16 8 13 -0.8375 0.0000
16 10 0 -1.6040 0.0000
16 10 1 0.7125 0.0000
16 10 2 -0.7330 0.0000
16 10 3 -0.2095 0.0000
16 10 4 3.1801 0.0000
16 10 5 1.7877 0.0000
16 10 6 1.3930 0.0000
17 1 0 -0.0750 0.0000
17 1 1 4.0443 0.0000
17 1 2 -7.2469 0.0000
17 1 3 -3.0280 0.0000
17 1 4 -6.7328 0.0000
17 1 5 6.4549 0.0000
17 1 6 -3.0670 0.0000
17 1 7 2.2573 0.0000
17 1 8 -2.3697 0.0000
17 1 9 -2.3344 0.0000
17 1 10 4.0200 0.0000
17 1 11 -2.0291 0.0000
17 1 12 2.0715 0.0000
17 1 13 3.4284 0.0000
17 1 14 -0.5486 0.0000
17 1 15 1.3246 0.0000
17 1 16 -0.5061 0.0000
17 1 17 1.1129 0.0000
17 1 18 3.8309 0.0000
17 3 0 2.5985 0.0000
17 3 1 -0.3961 0.0000
17 3 2 0.7293 0.0000
17 3 3 -0.1430 0.0000
17 3 4 -4.7997 0.0000
17 3 5 1.5846 0.0000
17 3 6 -3.8392 0.0000
17 3 7 -1.5963 0.0000
17 3 8 -2.1027 0.0000
17 3 9 1.1610 0.0000
17 3 10 -2.9627 0.0000
17 3 11 0.5365 0.0000
17 3 12 -4.1399 0.0000
17 3 13 -1.4922 0.0000
17 3 14 3.1679 0.0000
17 3 15 1.2320 0.0000
17 3 16 0.2188 0.0000
17 3 17 1.4891 0.0000
17 3 18 -2.4751 0.0000
17 5 0 -2.7990 0.0000
17 5 1 1.9972 0.0000
17 5 2 -7.5417 0.0000
17 5 3 4.9482 0.0000
17 5 4 -0.4365 0.0000
17 5 5 -5.1854 0.0000
17 5 6 1.0360 0.0000
17 5 7 -1.6538 0.0000
17 5 8 1.2245 0.0000
17 5 9 -5.8440 0.0000
17 5 10 3.0558 0.0000
17 5 11 -1.0293 0.0000
17 5 12 5.2843 0.0000
17 5 13 -1.3460 0.0000
17 5 14 4.0320 0.0000
17 5 15 -3.1868 0.0000
17 5 16 2.3381 0.0000
17 7 0 4.1085 0.0000
17 7 1 3.4231 0.0000
17 7 2 -0.4522 0.0000
17 7 3 0.0276 0.0000
17 7 4 2.8086 0.0000
17 7 5 2.4651 0.0000
17 7 6 -1.5218 0.0000
17 7 7 2.1696 0.0000
17 7 8 3.5328 0.0000
17 7 9 -3.3276 0.0000
17 7 10 3.2621 0.0000
17 7 11 -3.8809 0.0000
17 7 12 -5.0491 0.0000
17 7 13 3.0184 0.0000
17 7 14 -2.9737 0.0000
17 9 0 1.3588 0.0000
17 9 1 -0.3696 0.0000
17 9 2 4.3415 0.0000
17 9 3 2.7507 0.0000
17 9 4 -0.6067 0.0000
17 9 5 1.7433 0.0000
17 9 6 0.6256 0.0000
17 9 7 3.1075 0.0000
17 9 8 -3.7176 0.0000
17 9 9 1.1824 0.0000
17 9 10 -2.8391 0.0000
18 0 0 -9.1202 0.0000
18 0 2 1.6206 0.0000
18 0 4 5.1503 0.0000
18 0 6 -4.9136 0.0000
18 0 8 2.5258 0.0000
18 0 10 0.1190 0.0000
18 0 12 -2.9182 0.0000
18 0 14 -1.4471 0.0000
18 0 16 2.2294 0.0000
18 0 18 -5.4988 0.0000
18 2 0 -3.0950 0.0000
18 2 1 -1.5971 0.0000
18 2 2 1.5938 0.0000
18 2 3 2.4091 0.0000
18 2 4 4.2425 0.0000
18 2 5 -4.8634 0.0000
18 2 6 7.0163 0.0000
18 2 7 -2.2070 0.0000
18 2 8 2.1064 0.0000
18 2 9 3.5651 0.0000
18 2 10 -1.2016 0.0000
18 2 11 4.1185 0.0000
18 2 12 5.7388 0.0000
18 2 13 -0.1846 0.0000
18 2 14 -1.6199 0.0000
18 2 15 -2.7513 0.0000
18 2 16 -0.3485 0.0000
18 2 17 1.4284 0.0000
18 2 18 -0.4577 0.0000
18 4 0 -0.7230 0.0000
18 4 1 1.2464 0.0000
18 4 2 0.5006 0.0000
18 4 3 -1.9954 0.0000
18 4 4 -0.6746 0.0000
18 4 5 1.5164 0.0000
18 4 6 2.6748 0.0000
18 4 7 1.4259 0.0000
18 4 8 4.3178 0.0000
18 4 9 0.9742 0.0000
18 4 10 2.8042 0.0000
18 4 11 -5.0482 0.0000
18 4 12 -2.7055 0.0000
18 4 13 -0.5965 0.0000
18 4 14 0.1433 0.0000
18 4 15 1.1393 0.0000
18 4 16 -1.7877 0.0000
18 4 17 -1.0362 0.0000
18 6 0 -1.7708 0.0000
18 6 1 -4.4353 0.0000
18 6 2 1.5338 0.0000
18 6 3 -3.7928 0.0000
18 6 4 -0.0062 0.0000
18 6 5 -0.2433 0.0000
18 6 6 -0.0182 0.0000
18 6 7 2.7689 0.0000
18 6 8 -7.0721 0.0000
18 6 9 3.7065 0.0000
18 6 10 -3.8778 0.0000
18 6 11 7.1870 0.0000
18 6 12 1.4322 0.0000
18 6 13 1.0882 0.0000
18 6 14 -1.7581 0.0000
18 8 0 -4.3010 0.0000
18 8 1 -3.5106 0.0000
18 8 2 -5.1777 0.0000
18 8 3 -3.8695 0.0000
18 8 4 -5.7224 0.0000
18 8 5 -2.1894 0.0000
18 8 6 -1.4008 0.0000
18 8 7 -3.9923 0.0000
18 8 8 3.1908 0.0000
18 8 9 4.7920 0.0000
18 8 10 1.6939 0.0000
18 8 11 3.6692 0.0000
18 8 12 4.1022 0.0000
18 10 0 -0.7582 0.0000
18 10 1 2.7528 0.0000
18 10 2 0.8473 0.0000
18 10 3 -0.7725 0.0000
18 10 4 0.8853 0.0000
19 1 0 5.8848 0.0000
19 1 1 -2.6503 0.0000
19 1 2 0.9611 0.0000
19 1 3 -3.9951 0.0000
19 1 4 -0.6324 0.0000
19 1 5 3.3715 0.0000
19 1 6 2.5753 0.0000
19 1 7 -0.5216 0.0000
19 1 8 -2.5165 0.0000
19 1 9 -0.9747 0.0000
19 1 10 -1.1101 0.0000
19 1 11 -2.2157 0.0000
19 1 12 -3.0239 0.0000
19 1 13 0.3955 0.0000
19 1 14 0.3645 0.0000
19 1 15 1.2507 0.0000
19 1 16 -2.8408 0.0000
19 1 17 0.4628 0.0000
19 1 18 2.7383 0.0000
19 3 0 6.6767 0.0000
19 3 1 -0.6840 0.0000
19 3 2 2.4654 0.0000
19 3 3 1.7854 0.0000
19 3 4 -3.7202 0.0000
19 3 5 1.0350 0.0000
19 3 6 -6.5153 0.0000
19 3 7 0.5154 0.0000
19 3 8 -2.9879 0.0000
19 3 9 -1.4106 0.0000
19 3 10 -0.5940 0.0000
19 3 11 0.6184 0.0000
19 3 12 -2.1036 0.0000
19 3 13 -3.8533 0.0000
19 3 14 0.5695 0.0000
19 3 15 0.6331 0.0000
19 3 16 0.8168 0.0000
19 3 17 -0.0840 0.0000
19 5 0 1.5049 0.0000
19 5 1 1.1681 0.0000
19 5 2 0.1132 0.0000
19 5 3 4.9788 0.0000
19 5 4 6.4860 0.0000
19 5 5 -0.2537 0.0000
19 5 6 -3.1586 0.0000
19 5 7 0.9502 0.0000
19 5 8 -1.0519 0.0000
19 5 9 -0.9119 0.0000
19 5 10 -2.5896 0.0000
19 5 11 -1.1296 0.0000
19 5 12 -0.5458 0.0000
19 5 13 -0.2378 0.0000
19 5 14 0.9998 0.0000
19 5 15 0.0638 0.0000
19 5 16 4.1244 0.0000
19 7 0 7.5056 0.0000
19 7 1 7.4182 0.0000
19 7 2 2.7566 0.0000
19 7 3 2.2661 0.0000
19 7 4 3.1522 0.0000
19 7 5 3.0487 0.0000
19 7 6 2.6521 0.0000
19 7 7 -2.6277 0.0000
19 7 8 4.3900 0.0000
19 7 9 -5.8333 0.0000
19 7 10 0.7428 0.0000
19 7 11 -5.2336 0.0000
19 7 12 -1.8154 0.0000
19 7 13 5.6361 0.0000
19 9 0 -1.9940 0.0000
19 9 1 -2.2474 0.0000
19 9 2 2.0542 0.0000
19 9 3 0.5982 0.0000
19 9 4 1.0257 0.0000
19 9 5 1.9800 0.0000
19 9 6 1.9247 0.0000
19 9 7 2.7653 0.0000
19 9 8 -3.5434 0.0000
19 9 9 -1.4715 0.0000
20 0 0 -4.7914 0.0000
20 0 2 -2.5075 0.0000
20 0 4 -0.5442 0.0000
20 0 6 -10.7723 0.0000
20 0 8 -0.3983 0.0000
20 0 10 5.9780 0.0000
20 0 12 4.1916 0.0000
20 0 14 -2.6631 0.0000
20 0 16 4.3161 0.0000
20 2 0 -8.6923 0.0000
20 2 1 -1.6516 0.0000
20 2 2 -2.6983 0.0000
20 2 3 3.3762 0.0000
20 2 4 -1.0355 0.0000
20 2 5 0.3559 0.0000
20 2 6 4.3339 0.0000
20 2 7 -0.5644 0.0000
20 2 8 2.4755 0.0000
20 2 9 0.3313 0.0000
20 2 10 -2.5878 0.0000
20 2 11 3.4638 0.0000
20 2 12 5.2922 0.0000
20 2 13 3.4097 0.0000
20 2 14 3.2472 0.0000
20 2 15 -2.8548 0.0000
20 2 16 -0.1901 0.0000
20 2 17 1.1719 0.0000
20 4 0 -1.8476 0.0000
20 4 1 5.7552 0.0000
20 4 2 -4.5523 0.0000
20 4 3 -5.1119 0.0000
20 4 4 -5.3142 0.0000
20 4 5 -4.2827 0.0000
20 4 6 1.3533 0.0000
20 4 7 -0.4663 0.0000
20 4 8 4.1345 0.0000
20 4 9 0.9288 0.0000
20 4 10 4.4693 0.0000
20 4 11 -0.7867 0.0000
20 4 12 -2.7661 0.0000
20 4 13 1.9148 0.0000
20 4 14 -0.0578 0.0000
20 4 15 0.1563 0.0000
20 4 16 -1.1944 0.0000
20 6 0 -9.1865 0.0000
20 6 1 -6.2637 0.0000
20 6 2 -0.6215 0.0000
20 6 3 -2.7222 0.0000
20 6 4 -2.3145 0.0000
20 6 5 -1.4663 0.0000
20 6 6 2.0004 0.0000
20 6 7 -1.3800 0.0000
20 6 8 -3.8173 0.0000
20 6 9 1.0740 0.0000
20 6 10 -0.8709 0.0000
20 6 11 1.8361 0.0000
20 6 12 1.1327 0.0000
20 6 13 -1.8276 0.0000
20 8 0 0.8303 0.0000
20 8 1 -2.5264 0.0000
20 8 2 -2.6004 0.0000
20 8 3 -1.9940 0.0000
20 8 4 -3.8311 0.0000
20 8 5 -1.3080 0.0000
20 8 6 -3.8409 0.0000
20 8 7 -0.5624 0.0000
20 8 8 -0.3894 0.0000
20 8 9 4.0028 0.0000
20 8 10 2.4637 0.0000
20 8 11 3.3859 0.0000
20 10 0 -0.9611 0.0000
20 10 1 2.1331 0.0000
20 10 2 -1.3769 0.0000
20 10 3 -0.7692 0.0000
21 1 0 4.9880 0.0000
21 1 1 -0.4120 0.0000
21 1 2 2.3754 0.0000
21 1 3 -3.3206 0.0000
21 1 4 3.9921 0.0000
21 1 5 1.9312 0.0000
21 1 6 7.5654 0.0000
21 1 7 -5.1080 0.0000
21 1 8 -1.4869 0.0000
21 1 9 -1.2860 0.0000
21 1 10 -2.8320 0.0000
21 1 11 2.7978 0.0000
21 1 12 -6.0479 0.0000
21 1 13 -0.3459 0.0000
21 1 14 0.0700 0.0000
21 1 15 -1.1012 0.0000
21 1 16 -2.3144 0.0000
21 1 17 -2.4013 0.0000
21 3 0 6.7859 0.0000
21 3 1 -0.7912 0.0000
21 3 2 2.4325 0.0000
21 3 3 2.6611 0.0000
21 3 4 3.3515 0.0000
21 3 5 2.1653 0.0000
21 3 6 -1.1186 0.0000
21 3 7 2.3267 0.0000
21 3 8 -0.4002 0.0000
21 3 9 0.1125 0.0000
21 3 10 1.9224 0.0000
21 3 11 -2.4175 0.0000
21 3 12 3.5771 0.0000
21 3 13 -6.3798 0.0000
21 3 14 -2.8116 0.0000
21 3 15 1.0910 0.0000
21 3 16 0.6378 0.0000
21 3 17 -0.7589 0.0000
21 5 0 4.4281 0.0000
21 5 1 -1.6747 0.0000
21 5 2 7.6307 0.0000
21 5 3 0.6012 0.0000
21 5 4 7.1336 0.0000
21 5 5 0.0392 0.0000
21 5 6 -4.3496 0.0000
21 5 7 3.4842 0.0000
21 5 8 -1.0309 0.0000
21 5 9 2.7081 0.0000
21 5 10 -1.6619 0.0000
21 5 11 -0.8829 0.0000
21 5 12 -0.7025 0.0000
21 5 13 2.0296 0.0000
21 5 14 -0.9660 0.0000
21 5 15 -0.8667 0.0000
21 7 0 3.6770 0.0000
21 7 1 3.8693 0.0000
21 7 2 -0.1331 0.0000
21 7 3 4.1749 0.0000
21 7 4 -0.3856 0.0000
21 7 5 1.1341 0.0000
21 7 6 1.2229 0.0000
21 7 7 -2.1038 0.0000
21 7 8 3.2900 0.0000
21 7 9 -3.7272 0.0000
21 7 10 -0.5930 0.0000
21 7 11 -0.3673 0.0000
21 7 12 0.1059 0.0000
21 9 0 0.1290 0.0000
21 9 1 -1.3361 0.0000
21 9 2 -0.7611 0.0000
21 9 3 -1.3452 0.0000
21 9 4 0.2774 0.0000
21 9 5 2.8310 0.0000
21 9 6 2.5364 0.0000
21 9 7 2.9465 0.0000
22 0 0 3.0578 0.0000
22 0 2 -3.1155 0.0000
22 0 4 -2.4882 0.0000
22 0 8 5.5714 0.0000
22 0 10 3.8822 0.0000
22 0 12 2.1167 0.0000
22 0 14 -5.0906 0.0000
22 0 16 7.9933 0.0000
22 2 0 -8.6305 0.0000
22 2 1 -1.8183 0.0000
22 2 2 -1.7280 0.0000
22 2 3 0.1182 0.0000
22 2 4 -6.5768 0.0000
22 2 5 5.2895 0.0000
22 2 6 -2.9148 0.0000
22 2 7 -0.1004 0.0000
22 2 8 -1.9132 0.0000
22 2 9 -3.6146 0.0000
22 2 10 -4.0397 0.0000
22 2 11 -1.7820 0.0000
22 2 12 3.8315 0.0000
22 2 13 4.8529 0.0000
22 2 14 7.5163 0.0000
22 2 15 -0.4755 0.0000
22 2 16 -3.0081 0.0000
22 2 17 2.8512 0.0000
22 4 0 -4.7076 0.0000
22 4 1 3.2435 0.0000
22 4 2 -4.0475 0.0000
22 4 3 -2.6835 0.0000
22 4 4 -4.0702 0.0000
22 4 5 -3.9521 0.0000
22 4 6 2.6436 0.0000
22 4 7 1.7358 0.0000
22 4 8 -1.8301 0.0000
22 4 9 1.0127 0.0000
22 4 10 2.0778 0.0000
22 4 11 4.4862 0.0000
22 4 12 -7.0895 0.0000
22 4 13 4.8702 0.0000
22 4 14 -1.6304 0.0000
22 4 15 0.5625 0.0000
22 6 0 -4.5830 0.0000
22 6 1 1.0046 0.0000
22 6 2 -2.9490 0.0000
22 6 3 2.8269 0.0000
22 6 4 -3.7294 0.0000
22 6 5 2.1132 0.0000
22 6 6 3.5507 0.0000
22 6 7 -3.8704 0.0000
22 6 8 2.4239 0.0000
22 6 9 -1.5546 0.0000
22 6 10 -1.4562 0.0000
22 6 11 -2.7684 0.0000
22 6 12 0.3280 0.0000
22 6 13 -5.3334 0.0000
22 8 0 2.7306 0.0000
22 8 1 -0.9758 0.0000
22 8 2 2.5129 0.0000
22 8 3 -0.3353 0.0000
22 8 4 0.5968 0.0000
22 8 5 -2.1502 0.0000
22 8 6 -5.1201 0.0000
22 8 7 -0.3121 0.0000
22 8 8 -4.2345 0.0000
22 8 9 1.7273 0.0000
22 8 10 2.4121 0.0000
22 10 0 -1.3685 0.0000
23 1 0 0.6084 0.0000
23 1 1 4.9037 0.0000
23 1 2 1.7782 0.0000
23 1 3 -0.5395 0.0000
23 1 4 3.3238 0.0000
23 1 5 0.2986 0.0000
23 1 6 7.3449 0.0000
23 1 7 -6.8035 0.0000
23 1 8 -1.6933 0.0000
23 1 9 1.2475 0.0000
23 1 10 2.3092 0.0000
23 1 11 3.8198 0.0000
23 1 12 -3.1981 0.0000
23 1 13 -3.6615 0.0000
23 1 14 -2.1559 0.0000
23 1 15 -3.0171 0.0000
23 1 16 -1.4759 0.0000
23 3 0 6.7686 0.0000
23 3 1 -2.8768 0.0000
23 3 2 0.6313 0.0000
23 3 3 1.7732 0.0000
23 3 4 6.0096 0.0000
23 3 5 -3.3825 0.0000
23 3 6 3.4042 0.0000
23 3 7 0.4389 0.0000
23 3 8 -0.2531 0.0000
23 3 9 0.4428 0.0000
23 3 10 -0.0626 0.0000
23 3 11 -2.6329 0.0000
23 3 12 3.9324 0.0000
23 3 13 -2.5126 0.0000
23 3 14 -2.6683 0.0000
23 3 15 1.1362 0.0000
23 3 16 0.6608 0.0000
23 5 0 2.0792 0.0000
23 5 1 -3.8876 0.0000
23 5 2 2.4067 0.0000
23 5 3 -3.8550 0.0000
23 5 4 3.5532 0.0000
23 5 5 -0.6403 0.0000
23 5 6 -5.2478 0.0000
23 5 7 -1.3104 0.0000
23 5 8 1.8459 0.0000
23 5 9 -1.1248 0.0000
23 5 10 2.6679 0.0000
23 5 11 -0.2445 0.0000
23 5 12 4.9634 0.0000
23 5 13 -0.5958 0.0000
23 5 14 0.1147 0.0000
23 7 0 -0.2914 0.0000
23 7 1 -0.5635 0.0000
23 7 2 0.7675 0.0000
23 7 3 -0.0811 0.0000
23 7 4 -1.2824 0.0000
23 7 5 -0.9327 0.0000
23 7 6 2.1148 0.0000
23 7 7 2.3208 0.0000
23 7 8 0.4577 0.0000
23 7 9 1.0702 0.0000
23 7 10 -1.9199 0.0000
23 7 11 1.2501 0.0000
23 9 0 -0.9061 0.0000
23 9 1 0.9294 0.0000
23 9 2 0.4499 0.0000
23 9 3 -0.5463 0.0000
23 9 4 -0.1826 0.0000
23 9 5 -0.0264 0.0000
24 0 0 -3.0629 0.0000
24 0 2 -2.9076 0.0000
24 0 4 -1.6586 0.0000
24 0 6 -5.8429 0.0000
24 0 8 13.2331 0.0000
24 0 10 -4.8952 0.0000
24 0 12 -2.2554 0.0000
24 0 14 0.0201 0.0000
24 2 0 0.5702 0.0000
24 2 1 -4.7741 0.0000
24 2 2 1.6110 0.0000
24 2 3 -2.4407 0.0000
24 2 4 -6.3572 0.0000
24 2 5 4.5818 0.0000
24 2 6 -6.0005 0.0000
24 2 7 2.8022 0.0000
24 2 8 -2.8868 0.0000
24 2 9 -1.3668 0.0000
24 2 10 -1.6287 0.0000
24 2 11 -0.5603 0.0000
24 2 12 0.5410 0.0000
24 2 13 2.7638 0.0000
24 2 14 6.5027 0.0000
24 2 15 0.8753 0.0000
24 2 16 -3.3613 0.0000
24 4 0 -3.3394 0.0000
24 4 1 5.1354 0.0000
24 4 2 -0.1310 0.0000
24 4 3 3.9696 0.0000
24 4 4 1.2760 0.0000
24 4 5 0.7802 0.0000
24 4 6 3.4343 0.0000
24 4 7 4.4444 0.0000
24 4 8 -0.9520 0.0000
24 4 9 1.6635 0.0000
24 4 10 -0.7885 0.0000
24 4 11 2.0739 0.0000
24 4 12 -5.2801 0.0000
24 4 13 1.6116 0.0000
24 4 14 -1.0038 0.0000
24 6 0 1.7594 0.0000
24 6 1 2.9691 0.0000
24 6 2 -3.2806 0.0000
24 6 3 2.9597 0.0000
24 6 4 -2.2279 0.0000
24 6 5 4.6237 0.0000
24 6 6 -0.0588 0.0000
24 6 7 -3.5228 0.0000
24 6 8 -1.3918 0.0000
24 6 9 0.9795 0.0000
24 6 10 -2.1578 0.0000
24 6 11 -0.6972 0.0000
24 6 12 1.2032 0.0000
24 8 0 0.2074 0.0000
24 8 1 0.8148 0.0000
24 8 2 1.3788 0.0000
24 8 3 -0.6744 0.0000
24 8 4 -0.0899 0.0000
24 8 5 -1.2458 0.0000
24 8 6 -2.0414 0.0000
24 8 7 1.7426 0.0000
24 8 8 -1.1955 0.0000
25 1 0 -0.3031 0.0000
25 1 1 0.0187 0.0000
25 1 2 3.1935 0.0000
25 1 3 1.5849 0.0000
25 1 4 1.5581 0.0000
25 1 5 1.5431 0.0000
25 1 6 2.8269 0.0000
25 1 7 -0.7066 0.0000
25 1 8 -4.6563 0.0000
25 1 9 0.0297 0.0000
25 1 10 6.0056 0.0000
25 1 11 -2.1382 0.0000
25 1 12 0.0656 0.0000
25 1 13 -5.1401 0.0000
25 1 14 -4.9511 0.0000
25 1 15 -0.6438 0.0000
25 3 0 0.7179 0.0000
25 3 1 0.3179 0.0000
25 3 2 -6.6176 0.0000
25 3 3 -3.2345 0.0000
25 3 4 1.9233 0.0000
25 3 5 -8.3743 0.0000
25 3 6 3.3697 0.0000
25 3 7 -3.5879 0.0000
25 3 8 -1.5038 0.0000
25 3 9 0.0299 0.0000
25 3 10 -2.3099 0.0000
25 3 11 -1.6111 0.0000
25 3 12 4.5529 0.0000
25 3 13 1.2408 0.0000
25 3 14 -2.4486 0.0000
25 3 15 0.0574 0.0000
25 5 0 -4.4596 0.0000
25 5 1 -4.5352 0.0000
25 5 2 1.9669 0.0000
25 5 3 -1.1757 0.0000
25 5 4 -0.3344 0.0000
25 5 5 1.1030 0.0000
25 5 6 -2.0330 0.0000
25 5 7 -0.8822 0.0000
25 5 8 3.7483 0.0000
25 5 9 -2.2075 0.0000
25 5 10 4.2540 0.0000
25 5 11 -2.0730 0.0000
25 5 12 1.4772 0.0000
25 7 0 1.1326 0.0000
25 7 1 -1.5847 0.0000
25 7 2 1.6938 0.0000
25 7 3 -0.6238 0.0000
25 7 4 2.6049 0.0000
25 7 5 -0.2592 0.0000
25 7 6 1.8869 0.0000
25 7 7 0.3145 0.0000
25 7 8 -1.0252 0.0000
25 7 9 -1.5904 0.0000
25 7 10 -0.4307 0.0000
25 9 0 -0.6663 0.0000
25 9 1 0.5869 0.0000
25 9 2 1.6792 0.0000
26 0 0 -1.8541 0.0000
26 0 2 -0.0719 0.0000
26 0 4 -0.7349 0.0000
26 0 6 -2.3321 0.0000
26 0 8 9.8478 0.0000
26 0 10 -6.4006 0.0000
26 0 12 -0.4262 0.0000
26 0 14 5.0817 0.0000
26 2 0 4.5738 0.0000
26 2 1 1.6634 0.0000
26 2 2 0.7469 0.0000
26 2 3 1.9195 0.0000
26 2 4 -0.2948 0.0000
26 2 5 0.2987 0.0000
26 2 6 -0.7333 0.0000
26 2 7 3.1700 0.0000
26 2 8 -0.6311 0.0000
26 2 9 3.3778 0.0000
26 2 10 -2.3888 0.0000
26 2 11 1.8676 0.0000
26 2 12 -2.6343 0.0000
26 2 13 -0.7655 0.0000
26 2 14 2.6303 0.0000
26 2 15 -0.1421 0.0000
26 4 0 3.4186 0.0000
26 4 1 2.9179 0.0000
26 4 2 2.4775 0.0000
26 4 3 1.0070 0.0000
26 4 4 -2.0991 0.0000
26 4 5 3.1376 0.0000
26 4 6 -1.0010 0.0000
26 4 7 1.8819 0.0000
26 4 8 1.2887 0.0000
26 4 9 -1.2356 0.0000
26 4 10 -0.9515 0.0000
26 4 11 -0.4324 0.0000
26 4 12 -1.7441 0.0000
26 4 13 0.9026 0.0000
26 6 0 0.5521 0.0000
26 6 1 -1.0875 0.0000
26 6 2 -2.1579 0.0000
26 6 3 -0.1257 0.0000
26 6 4 1.5952 0.0000
26 6 5 0.4449 0.0000
26 6 6 -2.5016 0.0000
26 6 7 0.7830 0.0000
26 6 8 -1.7224 0.0000
26 6 9 2.4473 0.0000
26 6 10 -1.7336 0.0000
26 8 0 -1.4550 0.0000
26 8 1 1.7293 0.0000
26 8 2 0.2830 0.0000
26 8 3 0.6555 0.0000
26 8 4 -0.5026 0.0000
26 8 5 0.4346 0.0000
26 8 6 1.2631 0.0000
26 8 7 -0.7514 0.0000
27 1 0 -0.6415 0.0000
27 1 1 -2.9510 0.0000
27 1 2 -1.3233 0.0000
27 1 3 -0.3866 0.0000
27 1 4 0.6270 0.0000
27 1 5 2.6406 0.0000
27 1 6 -0.6369 0.0000
27 1 7 0.5646 0.0000
27 1 8 -4.0504 0.0000
27 1 9 -1.2589 0.0000
27 1 10 6.5402 0.0000
27 1 11 -2.8594 0.0000
27 1 12 2.0115 0.0000
27 1 13 -0.5789 0.0000
27 1 14 -4.3982 0.0000
27 3 0 -6.9483 0.0000
27 3 1 0.0577 0.0000
27 3 2 -2.1470 0.0000
27 3 3 -3.6887 0.0000
27 3 4 -0.1602 0.0000
27 3 5 -1.7132 0.0000
27 3 6 1.3078 0.0000
27 3 7 -2.4016 0.0000
27 3 8 -0.7634 0.0000
27 3 9 -1.7713 0.0000
27 3 10 0.4552 0.0000
27 3 11 0.0033 0.0000
27 3 12 1.5708 0.0000
27 3 13 0.1179 0.0000
27 3 14 -1.3525 0.0000
27 5 0 -2.9605 0.0000
27 5 1 -0.0451 0.0000
27 5 2 2.3286 0.0000
27 5 3 -0.1566 0.0000
27 5 4 -1.8420 0.0000
27 5 5 -1.3531 0.0000
27 5 6 1.7207 0.0000
27 5 7 1.7738 0.0000
27 5 8 -0.0356 0.0000
27 5 9 -0.2343 0.0000
27 5 10 0.3118 0.0000
27 5 11 -1.3775 0.0000
27 7 0 1.5564 0.0000
27 7 1 -1.5876 0.0000
27 7 2 -1.0584 0.0000
27 7 3 0.7293 0.0000
27 7 4 0.0263 0.0000
27 7 5 1.4977 0.0000
27 7 6 0.5340 0.0000
27 7 7 -3.3199 0.0000
27 7 8 1.0434 0.0000
28 0 0 2.2088 0.0000
28 0 2 6.2042 0.0000
28 0 4 1.7167 0.0000
28 0 6 -3.1568 0.0000
28 0 8 1.9426 0.0000
28 0 10 -4.1321 0.0000
28 0 12 -1.3364 0.0000
28 2 0 2.4102 0.0000
28 2 1 4.7437 0.0000
28 2 2 -0.2784 0.0000
28 2 3 3.9673 0.0000
28 2 4 1.8886 0.0000
28 2 5 -2.6742 0.0000
28 2 6 3.4314 0.0000
28 2 7 0.8628 0.0000
28 2 8 1.3701 0.0000
28 2 9 4.6480 0.0000
28 2 10 -3.4038 0.0000
28 2 11 1.6580 0.0000
28 2 12 -0.9699 0.0000
28 2 13 -2.1061 0.0000
28 2 14 2.2652 0.0000
28 4 0 6.4417 0.0000
28 4 1 -2.9134 0.0000
28 4 2 0.2149 0.0000
28 4 3 -1.5613 0.0000
28 4 4 -1.8100 0.0000
28 4 5 2.4143 0.0000
28 4 6 -1.9103 0.0000
28 4 7 -1.1145 0.0000
28 4 8 2.1967 0.0000
28 4 9 -0.2087 0.0000
28 4 10 -0.2157 0.0000
28 4 11 -0.1422 0.0000
28 4 12 -0.2877 0.0000
28 6 0 0.5270 0.0000
28 6 1 -0.3382 0.0000
28 6 2 -1.9351 0.0000
28 6 3 0.5598 0.0000
28 6 4 2.5911 0.0000
28 6 5 -0.2246 0.0000
28 6 6 0.8400 0.0000
28 6 7 2.5183 0.0000
28 6 8 1.6552 0.0000
28 6 9 -1.3069 0.0000
28 8 0 -1.0436 0.0000
28 8 1 2.7870 0.0000
28 8 2 2.0708 0.0000
28 8 3 1.1241 0.0000
28 8 4 1.9014 0.0000
29 1 0 -3.8234 0.0000
29 1 1 -1.7114 0.0000
29 1 2 -5.3951 0.0000
29 1 3 0.5425 0.0000
29 1 4 -2.2566 0.0000
29 1 5 1.5970 0.0000
29 1 6 -2.0575 0.0000
29 1 7 -3.2268 0.0000
29 1 8 -0.9140 0.0000
29 1 9 -1.0936 0.0000
29 1 10 3.3922 0.0000
29 1 11 1.0146 0.0000
29 1 12 1.8108 0.0000
29 1 13 0.1847 0.0000
29 3 0 -2.9635 0.0000
29 3 1 -1.9660 0.0000
29 3 2 4.3336 0.0000
29 3 3 0.2492 0.0000
29 3 4 -0.6563 0.0000
29 3 5 2.9698 0.0000
29 3 6 -2.3593 0.0000
29 3 7 -0.7016 0.0000
29 3 8 -1.5927 0.0000
29 3 9 -2.2628 0.0000
29 3 10 -0.5373 0.0000
29 3 11 0.9794 0.0000
29 3 12 -1.1308 0.0000
29 5 0 -0.7087 0.0000
29 5 1 3.2563 0.0000
29 5 2 -0.8896 0.0000
29 5 3 -0.7812 0.0000
29 5 4 -2.5099 0.0000
29 5 5 -4.6511 0.0000
29 5 6 0.8850 0.0000
29 5 7 -0.0371 0.0000
29 5 8 -2.9479 0.0000
29 5 9 2.2556 0.0000
29 7 0 -0.6765 0.0000
29 7 1 -2.9587 0.0000
29 7 2 -2.7152 0.0000
29 7 3 -1.7136 0.0000
29 7 4 -1.1790 0.0000
29 7 5 2.2751 0.0000
29 7 6 -0.5308 0.0000
30 0 0 3.7876 0.0000
30 0 2 6.9594 0.0000
30 0 4 -0.0424 0.0000
30 0 6 1.1920 0.0000
30 0 8 -1.5039 0.0000
30 0 10 -2.8821 0.0000
30 0 12 -1.9930 0.0000
30 2 0 3.3535 0.0000
30 2 1 -1.0889 0.0000
30 2 2 0.9524 0.0000
30 2 3 2.3120 0.0000
30 2 4 2.4069 0.0000
30 2 5 -3.5390 0.0000
30 2 6 5.1301 0.0000
30 2 7 1.5692 0.0000
30 2 8 2.1192 0.0000
30 2 9 3.9907 0.0000
30 2 10 -0.7238 0.0000
30 2 11 0.5428 0.0000
30 2 12 2.1781 0.0000
30 4 0 -0.0557 0.0000
30 4 1 0.0253 0.0000
30 4 2 -1.1208 0.0000
30 4 3 -1.4229 0.0000
30 4 4 4.1730 0.0000
30 4 5 -0.3491 0.0000
30 4 6 -0.1573 0.0000
30 4 7 -0.4148 0.0000
30 4 8 1.1875 0.0000
30 4 9 -0.4584 0.0000
30 4 10 1.0886 0.0000
30 6 0 1.1276 0.0000
30 6 1 2.5390 0.0000
30 6 2 -0.0557 0.0000
30 6 3 0.0481 0.0000
30 6 4 -0.0533 0.0000
30 6 5 -0.0313 0.0000
30 6 6 0.4129 0.0000
30 6 7 1.2593 0.0000
30 6 8 1.5473 0.0000
30 8 0 -0.0590 0.0000
31 1 0 -2.4722 0.0000
31 1 1 2.1430 0.0000
31 1 2 -5.9601 0.0000
31 1 3 -3.2397 0.0000
31 1 4 -2.1464 0.0000
31 1 5 -0.2384 0.0000
31 1 6 -1.9159 0.0000
31 1 7 -4.1606 0.0000
31 1 8 -0.4073 0.0000
31 1 9 -0.8453 0.0000
31 1 10 -0.4592 0.0000
31 1 11 1.4673 0.0000
31 3 0 -3.9397 0.0000
31 3 1 1.1793 0.0000
31 3 2 2.5028 0.0000
31 3 3 1.0170 0.0000
31 3 4 -1.0434 0.0000
31 3 5 2.1630 0.0000
31 3 6 -3.1034 0.0000
31 3 7 1.7650 0.0000
31 3 8 -1.7130 0.0000
31 3 9 -1.9164 0.0000
31 3 10 0.2299 0.0000
31 3 11 2.2690 0.0000
31 5 0 2.1251 0.0000
31 5 1 -0.5954 0.0000
31 5 2 -1.2526 0.0000
31 5 3 3.1300 0.0000
31 5 4 -2.1906 0.0000
31 5 5 0.2754 0.0000
31 5 6 -1.4426 0.0000
31 5 7 -1.2925 0.0000
31 5 8 1.5593 0.0000
31 7 0 0.4694 0.0000
31 7 1 -1.8761 0.0000
31 7 2 1.0251 0.0000
31 7 3 -1.3866 0.0000
31 7 4 -1.5727 0.0000
32 0 0 3.3021 0.0000
32 0 2 3.2275 0.0000
32 0 4 1.8017 0.0000
32 0 6 0.7158 0.0000
32 0 8 -0.6889 0.0000
32 0 10 -1.3982 0.0000
32 2 0 4.9398 0.0000
32 2 1 -2.6767 0.0000
32 2 2 2.2112 0.0000
32 2 3 -0.2460 0.0000
32 2 4 1.3458 0.0000
32 2 5 0.0835 0.0000
32 2 6 2.8713 0.0000
32 2 7 1.0307 0.0000
32 2 8 -0.3868 0.0000
32 2 9 0.9927 0.0000
32 2 10 1.8747 0.0000
32 4 0 -2.7950 0.0000
32 4 1 -0.1667 0.0000
32 4 2 1.1550 0.0000
32 4 3 -2.1613 0.0000
32 4 4 1.2258 0.0000
32 4 5 -1.9539 0.0000
32 4 6 0.3648 0.0000
32 4 7 -0.5852 0.0000
32 4 8 -0.2962 0.0000
32 6 0 -1.0559 0.0000
32 6 1 2.3827 0.0000
32 6 2 0.1055 0.0000
32 6 3 -2.7193 0.0000
32 6 4 -0.2645 0.0000
32 6 5 -1.2705 0.0000
32 6 6 1.5980 0.0000
33 1 0 -2.6476 0.0000
33 1 1 2.8515 0.0000
33 1 2 -2.7412 0.0000
33 1 3 -6.4420 0.0000
33 1 4 0.1678 0.0000
33 1 5 -1.7605 0.0000
33 1 6 -0.4941 0.0000
33 1 7 -1.4565 0.0000
33 1 8 1.4837 0.0000
33 1 9 0.5192 0.0000
33 1 10 -1.5822 0.0000
33 3 0 -4.0059 0.0000
33 3 1 3.0040 0.0000
33 3 2 -0.5971 0.0000
33 3 3 2.6789 0.0000
33 3 4 -0.2600 0.0000
33 3 5 2.7578 0.0000
33 3 6 -0.0085 0.0000
33 3 7 -0.4406 0.0000
33 3 8 1.0637 0.0000
33 5 0 3.8088 0.0000
33 5 1 -2.6654 0.0000
33 5 2 -2.2932 0.0000
33 5 3 5.5517 0.0000
33 5 4 -0.3088 0.0000
33 5 5 1.5095 0.0000
33 5 6 -2.5210 0.0000
34 0 0 -2.1037 0.0000
34 0 2 2.4574 0.0000
34 0 4 3.8217 0.0000
34 0 6 -2.8011 0.0000
34 0 8 -1.6389 0.0000
34 2 0 3.6446 0.0000
34 2 1 -4.5796 0.0000
34 2 2 0.1984 0.0000
34 2 3 1.0154 0.0000
34 2 4 -4.9842 0.0000
34 2 5 1.7105 0.0000
34 2 6 0.3353 0.0000
34 2 7 -0.2152 0.0000
34 2 8 -0.4410 0.0000
34 4 0 0.6984 0.0000
34 4 1 -0.9225 0.0000
34 4 2 1.4787 0.0000
34 4 3 -1.9021 0.0000
34 4 4 0.6221 0.0000
34 4 5 -1.5486 0.0000
34 4 6 1.0244 0.0000
34 6 0 -4.2294 0.0000
34 6 1 0.6022 0.0000
34 6 2 0.5881 0.0000
35 1 0 0.4784 0.0000
35 1 1 1.7129 0.0000
35 1 2 2.1850 0.0000
35 1 3 -0.8110 0.0000
35 1 4 1.0051 0.0000
35 1 5 -0.9273 0.0000
35 1 6 2.1728 0.0000
35 1 7 -1.0459 0.0000
35 1 8 1.6058 0.0000
35 3 0 -0.0685 0.0000
35 3 1 2.7772 0.0000
35 3 2 -2.2867 0.0000
35 3 3 1.4661 0.0000
35 3 4 2.2049 0.0000
35 3 5 -1.5034 0.0000
35 3 6 0.2940 0.0000
35 3 7 -0.5544 0.0000
35 5 0 1.3873 0.0000
35 5 1 -0.3575 0.0000
35 5 2 -1.9537 0.0000
35 5 3 2.1747 0.0000
35 5 4 0.9457 0.0000
36 0 0 -2.0388 0.0000
36 0 2 -4.5451 0.0000
36 0 4 1.3070 0.0000
36 0 6 -2.6449 0.0000
36 0 8 -1.2418 0.0000
36 2 0 -1.3529 0.0000
36 2 1 -1.1959 0.0000
36 2 2 -1.0715 0.0000
36 2 3 0.4121 0.0000
36 2 4 -5.1203 0.0000
36 2 5 1.5095 0.0000
36 2 6 -0.2708 0.0000
36 2 7 0.1406 0.0000
36 4 0 -0.6138 0.0000
36 4 1 0.1350 0.0000
36 4 2 1.8472 0.0000
36 4 3 -1.6627 0.0000
36 4 4 0.2674 0.0000
37 1 0 2.3460 0.0000
37 1 1 0.1059 0.0000
37 1 2 2.7471 0.0000
37 1 3 0.6581 0.0000
37 1 4 2.0839 0.0000
37 1 5 1.1687 0.0000
37 1 6 1.0791 0.0000
37 3 0 1.1246 0.0000
37 3 1 0.7514 0.0000
37 3 2 -0.1359 0.0000
37 3 3 -0.7520 0.0000
37 3 4 1.9093 0.0000
37 3 5 -1.6938 0.0000
38 0 0 -0.3000 0.0000
38 0 2 -3.7671 0.0000
38 0 4 -0.7726 0.0000
38 2 0 -1.9179 0.0000
38 2 1 0.1781 0.0000
38 2 2 -0.1063 0.0000
38 2 3 -0.8212 0.0000
38 2 4 -1.7370 0.0000
38 4 0 -1.3211 0.0000
39 1 0 -0.4066 0.0000
39 1 1 -0.4877 0.0000
39 1 2 1.2956 0.0000
39 1 3 0.3355 0.0000
39 3 0 1.3021 0.0000
;
loop_
_space_group_symop_operation_xyz
'x, y, z'
'-x, y, -z+1/2'
'x+1/2, y+1/2, z'
'-x+1/2, y+1/2, -z+1/2'
'-x, -y, -z'
'x, -y, z-1/2'
'-x+1/2, -y+1/2, -z'
'x+1/2, -y+1/2, z-1/2'
loop_
_atom_site_label
_atom_site_type_symbol
_atom_site_fract_x
_atom_site_fract_y
_atom_site_fract_z
_atom_site_U_iso_or_equiv
_atom_site_adp_type
_atom_site_occupancy
_atom_site_site_symmetry_order
_atom_site_calc_flag
_atom_site_refinement_flags_posn
_atom_site_refinement_flags_adp
_atom_site_refinement_flags_occupancy
_atom_site_disorder_assembly
_atom_site_disorder_group
Zn1 Zn 0.2500 0.7500 0.5000 0.0201(2) Uani 1 2 d S T P . .
Zn2 Zn 0.34802(2) 0.70206(6) 0.52485(3) 0.0244(2) Uani 1 1 d . . . . .
O1 O 0.34163(9) 0.8258(4) 0.60666(16) 0.0346(8) Uani 1 1 d D . . . .
O2 O 0.27317(9) 0.8174(3) 0.60145(15) 0.0273(7) Uani 1 1 d D . . . .
O3 O 0.28499(9) 1.1190(3) 0.94566(16) 0.0285(7) Uani 1 1 d . . . . .
O4 O 0.34810(10) 1.1939(4) 0.93212(18) 0.0403(9) Uani 1 1 d . . . . .
O5 O 0.29759(8) 0.5922(3) 0.50273(17) 0.0266(7) Uani 1 1 d . . . . .
O6 O 0.32318(12) 0.4823(4) 0.6050(2) 0.0495(10) Uani 1 1 d . . . . .
O7 O 0.40554(10) 0.6526(5) 0.5478(2) 0.0581(12) Uani 1 1 d D . . A 2
O8 O 0.38830(11) 0.5009(7) 0.4600(3) 0.097(2) Uani 1 1 d D . . A 2
C1 C 0.30795(9) 0.8495(5) 0.6312(2) 0.0295(10) Uani 1 1 d D . . . .
C2 C 0.30958(14) 0.9252(6) 0.7032(2) 0.0354(11) Uani 1 1 d D . . . .
C3 C 0.34667(16) 0.9770(7) 0.7365(3) 0.0563(19) Uani 1 1 d D . . . .
H3 H 0.3709 0.9656 0.7132 0.068 Uiso 1 1 calc R . . . .
C4 C 0.34862(16) 1.0439(8) 0.8024(3) 0.062(2) Uani 1 1 d . . . . .
H4 H 0.3739 1.0815 0.8238 0.074 Uiso 1 1 calc R . . . .
C5 C 0.31336(14) 1.0573(6) 0.8384(3) 0.0351(11) Uani 1 1 d . . . . .
C6 C 0.27646(14) 1.0047(6) 0.8052(3) 0.0360(12) Uani 1 1 d . . . . .
H6 H 0.2523 1.0134 0.8289 0.043 Uiso 1 1 calc R . . . .
C7 C 0.27486(13) 0.9407(5) 0.7387(2) 0.0353(11) Uani 1 1 d D . . . .
H7 H 0.2494 0.9062 0.7163 0.042 Uiso 1 1 calc R . . . .
C8 C 0.31559(13) 1.1285(5) 0.9104(2) 0.0306(10) Uani 1 1 d . . . . .
C9 C 0.29975(14) 0.4858(5) 0.5468(3) 0.0330(10) Uani 1 1 d . . . . .
C10 C 0.27325(13) 0.3650(5) 0.5228(3) 0.0293(10) Uani 1 1 d . . . . .
C11 C 0.27076(16) 0.2540(5) 0.5708(3) 0.0365(11) Uani 1 1 d . . . . .
H11 H 0.2849 0.2569 0.6190 0.044 Uiso 1 1 calc R . . . .
C12 C 0.25269(15) 0.3612(5) 0.4526(3) 0.0342(11) Uani 1 1 d . . . . .
H12 H 0.2545 0.4369 0.4203 0.041 Uiso 1 1 calc R . . . .
C13 C 0.41364(15) 0.5639(6) 0.5031(3) 0.0614(18) Uani 1 1 d D . . A 2
C14 C 0.45873(15) 0.5304(8) 0.5026(4) 0.0617(19) Uani 1 1 d D . . A 2
C15 C 0.46952(15) 0.4084(8) 0.4705(5) 0.076(2) Uani 1 1 d D . . A 2
H15 H 0.4491 0.3458 0.4500 0.091 Uiso 1 1 calc R . . A 2
C16 C 0.48838(12) 0.6202(8) 0.5310(4) 0.069(2) Uani 1 1 d D . . A 2
H16 H 0.4805 0.7039 0.5522 0.083 Uiso 1 1 calc R . . A 2
N1 N 0.3966(3) 0.4386(18) 0.7723(8) 0.171(4) Uani 0.4 1 d D U . . .
H1 H 0.3801 0.3628 0.7466 0.206 Uiso 0.36 1 calc R . . B 2
C21 C 0.4259(4) 0.3710(15) 0.8201(6) 0.179(4) Uani 0.8 1 d G U . C .
H21 H 0.4177 0.3160 0.8587 0.215 Uiso 0.8 1 calc R . . . .
C20 C 0.4673(4) 0.3840(14) 0.8113(6) 0.183(4) Uani 0.8 1 d G U . C .
H20 H 0.4873 0.3379 0.8440 0.220 Uiso 0.8 1 calc R . . . .
C19 C 0.4793(3) 0.4646(16) 0.7548(7) 0.186(4) Uani 0.8 1 d G U . C .
C18 C 0.4500(4) 0.5321(14) 0.7070(6) 0.187(4) Uani 0.8 1 d G U . C .
H18 H 0.4582 0.5872 0.6684 0.224 Uiso 0.8 1 calc R . . . .
C17 C 0.4086(4) 0.5191(15) 0.7158(6) 0.184(4) Uani 0.8 1 d G U . C .
H17 H 0.3886 0.5653 0.6831 0.221 Uiso 0.8 1 calc R . . . .
C22 C 0.3524(7) 0.446(4) 0.7823(15) 0.169(4) Uani 0.44 1 d D U . C 1
H22A H 0.3378 0.4985 0.7419 0.254 Uiso 0.44 1 calc R . . C 1
H22B H 0.3411 0.3524 0.7825 0.254 Uiso 0.44 1 calc R . . C 1
H22C H 0.3492 0.4909 0.8292 0.254 Uiso 0.44 1 calc R . . C 1
C22A C 0.3656(10) 0.539(4) 0.7919(18) 0.170(4) Uani 0.36 1 d D U . C 2
H22D H 0.3489 0.5699 0.7471 0.255 Uiso 0.36 1 calc R . . C 2
H22E H 0.3478 0.4949 0.8247 0.255 Uiso 0.36 1 calc R . . C 2
H22F H 0.3794 0.6179 0.8169 0.255 Uiso 0.36 1 calc R . . C 2
loop_
_atom_site_aniso_label
_atom_site_aniso_U_11
_atom_site_aniso_U_22
_atom_site_aniso_U_33
_atom_site_aniso_U_23
_atom_site_aniso_U_13
_atom_site_aniso_U_12
Zn1 0.0193(4) 0.0231(4) 0.0190(4) 0.0009(3) 0.0071(3) 0.0025(3)
Zn2 0.0207(3) 0.0292(4) 0.0243(3) -0.0007(2) 0.0070(2) 0.0071(2)
O1 0.0278(15) 0.049(2) 0.0289(16) -0.0154(16) 0.0101(13) 0.0001(15)
O2 0.0286(15) 0.0343(18) 0.0203(14) -0.0047(13) 0.0077(12) 0.0029(13)
O3 0.0324(16) 0.0270(17) 0.0281(16) -0.0071(14) 0.0131(13) -0.0005(13)
O4 0.0287(17) 0.065(3) 0.0287(17) -0.0177(17) 0.0099(14) -0.0082(16)
O5 0.0246(14) 0.0213(16) 0.0347(17) 0.0015(13) 0.0069(12) 0.0054(12)
O6 0.050(2) 0.035(2) 0.058(2) 0.0096(19) -0.0169(19) -0.0066(17)
O7 0.036(2) 0.074(3) 0.067(3) 0.013(2) 0.0145(19) 0.027(2)
O8 0.036(2) 0.133(5) 0.122(5) -0.036(4) 0.002(3) 0.017(3)
C1 0.033(2) 0.035(3) 0.022(2) -0.002(2) 0.0101(17) 0.001(2)
C2 0.029(2) 0.052(3) 0.027(2) -0.009(2) 0.0095(18) -0.001(2)
C3 0.029(2) 0.101(5) 0.043(3) -0.035(3) 0.019(2) -0.012(3)
C4 0.029(3) 0.111(6) 0.048(3) -0.044(4) 0.014(2) -0.016(3)
C5 0.031(2) 0.050(3) 0.026(2) -0.010(2) 0.0097(18) 0.001(2)
C6 0.024(2) 0.054(3) 0.032(2) -0.008(2) 0.0123(18) -0.005(2)
C7 0.025(2) 0.052(3) 0.030(2) -0.014(2) 0.0076(18) -0.004(2)
C8 0.025(2) 0.040(3) 0.027(2) -0.006(2) 0.0078(17) 0.0024(19)
C9 0.030(2) 0.028(3) 0.041(3) 0.003(2) 0.005(2) 0.0058(19)
C10 0.028(2) 0.022(2) 0.039(3) 0.0017(19) 0.0085(18) 0.0062(17)
C11 0.041(3) 0.033(3) 0.034(3) 0.003(2) -0.001(2) 0.004(2)
C12 0.047(3) 0.022(2) 0.035(3) 0.006(2) 0.008(2) 0.002(2)
C13 0.037(3) 0.069(5) 0.079(5) -0.002(4) 0.007(3) 0.017(3)
C14 0.029(3) 0.081(5) 0.076(4) -0.003(4) 0.009(3) 0.019(3)
C15 0.037(3) 0.074(5) 0.116(7) -0.023(5) 0.005(4) 0.006(3)
C16 0.044(3) 0.068(5) 0.098(6) -0.017(4) 0.015(3) 0.019(3)
N1 0.170(7) 0.249(8) 0.089(5) 0.048(6) -0.013(5) -0.052(7)
C21 0.176(7) 0.254(8) 0.102(5) 0.045(6) -0.003(6) -0.052(7)
C20 0.181(7) 0.261(9) 0.104(6) 0.045(6) -0.002(6) -0.049(7)
C19 0.180(8) 0.266(9) 0.105(6) 0.048(6) -0.008(6) -0.051(7)
C18 0.175(8) 0.273(9) 0.105(6) 0.050(6) -0.016(6) -0.054(7)
C17 0.175(7) 0.268(8) 0.102(5) 0.050(6) -0.018(6) -0.056(7)
C22 0.170(7) 0.243(8) 0.089(5) 0.046(6) -0.011(5) -0.051(7)
C22A 0.171(7) 0.246(8) 0.087(5) 0.048(6) -0.013(6) -0.051(7)
loop_
_atom_type_symbol
_atom_type_description
_atom_type_scat_dispersion_real
_atom_type_scat_dispersion_imag
_atom_type_scat_source
C C 0.0181 0.0091 'International Tables Vol C Tables 4.2.6.8 and 6.1.1.4'
H H 0.0000 0.0000 'International Tables Vol C Tables 4.2.6.8 and 6.1.1.4'
N N 0.0311 0.0180 'International Tables Vol C Tables 4.2.6.8 and 6.1.1.4'
O O 0.0492 0.0322 'International Tables Vol C Tables 4.2.6.8 and 6.1.1.4'
Zn Zn -1.5491 0.6778 'International Tables Vol C Tables 4.2.6.8 and 6.1.1.4'
loop_
_geom_angle_atom_site_label_1
_geom_angle_atom_site_label_2
_geom_angle_atom_site_label_3
_geom_angle
_geom_angle_site_symmetry_1
_geom_angle_site_symmetry_3
_geom_angle_publ_flag
O2 Zn1 O2 180.0 7_566 . ?
O2 Zn1 O3 85.94(13) . 4_546 ?
O2 Zn1 O3 94.06(13) 7_566 4_546 ?
O2 Zn1 O3 94.06(13) . 6_575 ?
O2 Zn1 O3 85.94(13) 7_566 6_575 ?
O2 Zn1 O5 90.73(12) . . ?
O2 Zn1 O5 89.27(12) 7_566 . ?
O2 Zn1 O5 90.73(12) 7_566 7_566 ?
O2 Zn1 O5 89.27(12) . 7_566 ?
O3 Zn1 O3 180.00(19) 6_575 4_546 ?
O3 Zn1 O5 90.57(12) 6_575 . ?
O3 Zn1 O5 90.56(12) 4_546 7_566 ?
O3 Zn1 O5 89.43(12) 4_546 . ?
O3 Zn1 O5 89.44(12) 6_575 7_566 ?
O5 Zn1 O5 180.0 . 7_566 ?
O1 Zn2 O4 110.77(16) . 6_575 ?
O1 Zn2 O5 109.37(12) . . ?
O5 Zn2 O4 100.54(14) . 6_575 ?
O7 Zn2 O1 99.87(17) . . ?
O7 Zn2 O4 102.54(16) . 6_575 ?
O7 Zn2 O5 132.91(17) . . ?
C1 O1 Zn2 124.1(3) . . ?
C1 O2 Zn1 135.1(2) . . ?
C8 O3 Zn1 136.7(3) . 4_556 ?
C8 O4 Zn2 116.3(3) . 6_576 ?
Zn2 O5 Zn1 101.83(13) . . ?
C9 O5 Zn1 123.9(3) . . ?
C9 O5 Zn2 108.4(3) . . ?
C13 O7 Zn2 107.7(3) . . ?
O1 C1 C2 117.1(3) . . ?
O2 C1 O1 126.4(4) . . ?
O2 C1 C2 116.4(3) . . ?
C3 C2 C1 120.2(3) . . ?
C7 C2 C1 121.0(4) . . ?
C7 C2 C3 118.7(4) . . ?
C2 C3 H3 119.6 . . ?
C4 C3 C2 120.7(4) . . ?
C4 C3 H3 119.6 . . ?
C3 C4 H4 120.0 . . ?
C3 C4 C5 120.0(5) . . ?
C5 C4 H4 120.0 . . ?
C4 C5 C8 120.0(4) . . ?
C6 C5 C4 119.1(4) . . ?
C6 C5 C8 120.9(4) . . ?
C5 C6 H6 119.9 . . ?
C7 C6 C5 120.2(4) . . ?
C7 C6 H6 119.9 . . ?
C2 C7 H7 119.4 . . ?
C6 C7 C2 121.3(4) . . ?
C6 C7 H7 119.4 . . ?
O3 C8 O4 124.7(4) . . ?
O3 C8 C5 117.3(4) . . ?
O4 C8 C5 117.9(4) . . ?
O5 C9 C10 116.7(4) . . ?
O6 C9 O5 122.4(5) . . ?
O6 C9 C10 120.9(5) . . ?
C11 C10 C9 119.6(4) . . ?
C12 C10 C9 120.0(4) . . ?
C12 C10 C11 120.4(5) . . ?
C10 C11 H11 120.2 . . ?
C12 C11 C10 119.6(5) 7_556 . ?
C12 C11 H11 120.2 7_556 . ?
C10 C12 C11 120.0(5) . 7_556 ?
C10 C12 H12 120.0 . . ?
C11 C12 H12 120.0 7_556 . ?
O7 C13 O8 125.9(5) . . ?
O7 C13 C14 115.9(4) . . ?
O8 C13 C14 118.3(4) . . ?
C15 C14 C13 118.8(5) . . ?
C16 C14 C13 120.9(6) . . ?
C16 C14 C15 120.2(5) . . ?
C14 C15 H15 120.9 . . ?
C14 C15 C16 118.3(6) . 5_666 ?
C16 C15 H15 120.9 5_666 . ?
C14 C16 C15 121.5(6) . 5_666 ?
C14 C16 H16 119.2 . . ?
C15 C16 H16 119.2 5_666 . ?
C21 N1 H1 104.4 . . ?
C21 N1 C17 120.0 . . ?
C21 N1 C22 124.1(15) . . ?
C21 N1 C22A 127.1(16) . . ?
C17 N1 H1 104.4 . . ?
C17 N1 C22 115.4(16) . . ?
C17 N1 C22A 94.0(18) . . ?
C22A N1 H1 104.4 . . ?
N1 C21 H21 120.0 . . ?
C20 C21 N1 120.0 . . ?
C20 C21 H21 120.0 . . ?
C21 C20 H20 120.0 . . ?
C21 C20 C19 120.0 . . ?
C19 C20 H20 120.0 . . ?
C19 C19 C20 117.3(15) 2_656 . ?
C19 C19 C18 122.5(16) 2_656 . ?
C18 C19 C20 120.0 . . ?
C19 C18 H18 120.0 . . ?
C19 C18 C17 120.0 . . ?
C17 C18 H18 120.0 . . ?
N1 C17 H17 120.0 . . ?
C18 C17 N1 120.0 . . ?
C18 C17 H17 120.0 . . ?
N1 C22 H22A 109.5 . . ?
N1 C22 H22B 109.5 . . ?
N1 C22 H22C 109.5 . . ?
H22A C22 H22B 109.5 . . ?
H22A C22 H22C 109.5 . . ?
H22B C22 H22C 109.5 . . ?
N1 C22A H22D 109.5 . . ?
N1 C22A H22E 109.5 . . ?
N1 C22A H22F 109.5 . . ?
H22D C22A H22E 109.5 . . ?
H22D C22A H22F 109.5 . . ?
H22E C22A H22F 109.5 . . ?
loop_
_geom_bond_atom_site_label_1
_geom_bond_atom_site_label_2
_geom_bond_distance
_geom_bond_site_symmetry_2
_geom_bond_publ_flag
Zn1 O2 2.034(3) 7_566 ?
Zn1 O2 2.034(3) . ?
Zn1 O3 2.046(3) 4_546 ?
Zn1 O3 2.046(3) 6_575 ?
Zn1 O5 2.185(3) 7_566 ?
Zn1 O5 2.185(3) . ?
Zn2 O1 1.950(3) . ?
Zn2 O4 1.976(3) 6_575 ?
Zn2 O5 1.972(3) . ?
Zn2 O7 1.946(3) . ?
O1 C1 1.260(3) . ?
O2 C1 1.247(3) . ?
O3 Zn1 2.046(3) 4_556 ?
O3 C8 1.256(5) . ?
O4 Zn2 1.976(3) 6_576 ?
O4 C8 1.266(6) . ?
O5 C9 1.309(6) . ?
O6 C9 1.241(6) . ?
O7 C13 1.238(4) . ?
O8 C13 1.242(4) . ?
C1 C2 1.505(6) . ?
C2 C3 1.393(7) . ?
C2 C7 1.381(5) . ?
C3 H3 0.9500 . ?
C3 C4 1.366(7) . ?
C4 H4 0.9500 . ?
C4 C5 1.399(6) . ?
C5 C6 1.389(6) . ?
C5 C8 1.485(6) . ?
C6 H6 0.9500 . ?
C6 C7 1.363(6) . ?
C7 H7 0.9500 . ?
C9 C10 1.498(7) . ?
C10 C11 1.400(7) . ?
C10 C12 1.383(7) . ?
C11 H11 0.9500 . ?
C11 C12 1.398(7) 7_556 ?
C12 C11 1.398(7) 7_556 ?
C12 H12 0.9500 . ?
C13 C14 1.515(6) . ?
C14 C15 1.387(9) . ?
C14 C16 1.366(8) . ?
C15 H15 0.9500 . ?
C15 C16 1.412(7) 5_666 ?
C16 C15 1.412(7) 5_666 ?
C16 H16 0.9500 . ?
N1 H1 1.0000 . ?
N1 C21 1.3900 . ?
N1 C17 1.3900 . ?
N1 C22 1.48(2) . ?
N1 C22A 1.48(2) . ?
C21 H21 0.9500 . ?
C21 C20 1.3900 . ?
C20 H20 0.9500 . ?
C20 C19 1.3900 . ?
C19 C19 1.387(18) 2_656 ?
C19 C18 1.3900 . ?
C18 H18 0.9500 . ?
C18 C17 1.3900 . ?
C17 H17 0.9500 . ?
C22 H22A 0.9800 . ?
C22 H22B 0.9800 . ?
C22 H22C 0.9800 . ?
C22A H22D 0.9800 . ?
C22A H22E 0.9800 . ?
C22A H22F 0.9800 . ?
loop_
_geom_torsion_atom_site_label_1
_geom_torsion_atom_site_label_2
_geom_torsion_atom_site_label_3
_geom_torsion_atom_site_label_4
_geom_torsion
_geom_torsion_site_symmetry_1
_geom_torsion_site_symmetry_2
_geom_torsion_site_symmetry_3
_geom_torsion_site_symmetry_4
_geom_torsion_publ_flag
Zn1 O2 C1 O1 -13.0(8) . . . . ?
Zn1 O2 C1 C2 166.4(3) . . . . ?
Zn1 O3 C8 O4 47.5(7) 4_556 . . . ?
Zn1 O3 C8 C5 -132.8(4) 4_556 . . . ?
Zn1 O5 C9 O6 -99.2(5) . . . . ?
Zn1 O5 C9 C10 82.5(5) . . . . ?
Zn2 O1 C1 O2 -12.2(7) . . . . ?
Zn2 O1 C1 C2 168.4(3) . . . . ?
Zn2 O4 C8 O3 -4.6(7) 6_576 . . . ?
Zn2 O4 C8 C5 175.7(4) 6_576 . . . ?
Zn2 O5 C9 O6 19.7(6) . . . . ?
Zn2 O5 C9 C10 -158.6(3) . . . . ?
Zn2 O7 C13 O8 -11.3(10) . . . . ?
Zn2 O7 C13 C14 169.1(5) . . . . ?
O1 C1 C2 C3 5.9(8) . . . . ?
O1 C1 C2 C7 -171.9(5) . . . . ?
O2 C1 C2 C3 -173.6(6) . . . . ?
O2 C1 C2 C7 8.6(8) . . . . ?
O5 C9 C10 C11 -173.2(4) . . . . ?
O5 C9 C10 C12 9.3(6) . . . . ?
O6 C9 C10 C11 8.5(7) . . . . ?
O6 C9 C10 C12 -169.0(5) . . . . ?
O7 C13 C14 C15 161.9(7) . . . . ?
O7 C13 C14 C16 -20.2(11) . . . . ?
O8 C13 C14 C15 -17.7(11) . . . . ?
O8 C13 C14 C16 160.3(8) . . . . ?
C1 C2 C3 C4 -179.0(6) . . . . ?
C1 C2 C7 C6 177.5(5) . . . . ?
C2 C3 C4 C5 2.1(12) . . . . ?
C3 C2 C7 C6 -0.3(9) . . . . ?
C3 C4 C5 C6 -1.6(11) . . . . ?
C3 C4 C5 C8 179.2(6) . . . . ?
C4 C5 C6 C7 0.3(9) . . . . ?
C4 C5 C8 O3 -169.1(6) . . . . ?
C4 C5 C8 O4 10.7(8) . . . . ?
C5 C6 C7 C2 0.7(9) . . . . ?
C6 C5 C8 O3 11.8(8) . . . . ?
C6 C5 C8 O4 -168.5(5) . . . . ?
C7 C2 C3 C4 -1.1(11) . . . . ?
C8 C5 C6 C7 179.4(5) . . . . ?
C9 C10 C11 C12 -177.5(4) . . . 7_556 ?
C9 C10 C12 C11 177.5(4) . . . 7_556 ?
C11 C10 C12 C11 0.0(8) . . . 7_556 ?
C12 C10 C11 C12 0.0(8) . . . 7_556 ?
C13 C14 C15 C16 178.7(7) . . . 5_666 ?
C13 C14 C16 C15 -178.7(7) . . . 5_666 ?
C15 C14 C16 C15 -0.8(14) . . . 5_666 ?
C16 C14 C15 C16 0.8(14) . . . 5_666 ?
N1 C21 C20 C19 0.0 . . . . ?
C21 N1 C17 C18 0.0 . . . . ?
C21 C20 C19 C19 -174.9(14) . . . 2_656 ?
C21 C20 C19 C18 0.0 . . . . ?
C20 C19 C18 C17 0.0 . . . . ?
C19 C19 C18 C17 174.6(13) 2_656 . . . ?
C19 C18 C17 N1 0.0 . . . . ?
C17 N1 C21 C20 0.0 . . . . ?
C22 N1 C21 C20 -172(2) . . . . ?
C22 N1 C17 C18 173(2) . . . . ?
C22A N1 C21 C20 -123(2) . . . . ?
C22A N1 C17 C18 137.7(18) . . . . ?
loop_
_smtbx_masks_void_nr
_smtbx_masks_void_average_x
_smtbx_masks_void_average_y
_smtbx_masks_void_average_z
_smtbx_masks_void_volume
_smtbx_masks_void_count_electrons
_smtbx_masks_void_content
1 0.000 0.500 -0.513 1006.3 204.7 ?
2 0.500 0.000 -0.292 1006.3 204.7 ?
