#------------------------------------------------------------------------------
#$Date: 2020-09-06 12:11:45 +0300 (Sun, 06 Sep 2020) $
#$Revision: 256051 $
#$URL: file:///home/coder/svn-repositories/cod/cif/1/55/80/1558030.cif $
#------------------------------------------------------------------------------
#
# This file is available in the Crystallography Open Database (COD),
# http://www.crystallography.net/
#
# All data on this site have been placed in the public domain by the
# contributors.
#
data_1558030
loop_
_publ_author_name
'Zee, David Z.'
'Harris, T. David'
_publ_section_title
;
 Enhancing catalytic alkane hydroxylation by tuning the outer coordination
 sphere in a heme-containing metal-organic framework.
;
_journal_issue                   21
_journal_name_full               'Chemical science'
_journal_page_first              5447
_journal_page_last               5452
_journal_paper_doi               10.1039/d0sc01796e
_journal_volume                  11
_journal_year                    2020
_chemical_formula_moiety         'C144 H90 N12 O52 Zr12'
_chemical_formula_sum            'C144 H90 N12 O52 Zr12'
_chemical_formula_weight         3914.91
_chemical_melting_point          ?
_chemical_name_common            PCN-224
_chemical_name_systematic        '[H2TCPP]3[Zr6O4(mu-OH)4(OH)6]2'
_space_group_crystal_system      cubic
_space_group_IT_number           229
_space_group_name_Hall           '-I 4 2 3'
_space_group_name_H-M_alt        'I m -3 m'
_atom_sites_solution_hydrogens   geom
_atom_sites_solution_primary     direct
_audit_creation_date             2020-02-24
_audit_creation_method
;
Olex2 1.3
(compiled 2019.11.21 svn.r41b79517 for OlexSys, GUI svn.r6003)
;
_audit_update_record
;
2020-03-26 deposited with the CCDC.	2020-05-07 downloaded from the CCDC.
;
_cell_angle_alpha                90
_cell_angle_beta                 90
_cell_angle_gamma                90
_cell_formula_units_Z            4
_cell_length_a                   38.8372(12)
_cell_length_b                   38.8372(12)
_cell_length_c                   38.8372(12)
_cell_measurement_reflns_used    9504
_cell_measurement_temperature    100(2)
_cell_measurement_theta_max      28.366
_cell_measurement_theta_min      2.225
_cell_volume                     58579(3)
_computing_cell_refinement       'SAINT V8.34A (Bruker, 2017)'
_computing_data_collection       'APEX2 V2017.3 (Bruker, 2017)'
_computing_data_reduction        'Bruker SAINT'
_computing_molecular_graphics    'Olex2 1.3 (Dolomanov et al., 2009)'
_computing_publication_material  'Olex2 1.3 (Dolomanov et al., 2009)'
_computing_structure_refinement  'SHELXL 2018/3 (Sheldrick, 2015)'
_computing_structure_solution    'SHELXS  (Sheldrick, 2008)'
_diffrn_ambient_temperature      100(2)
_diffrn_detector_area_resol_mean 8
_diffrn_measured_fraction_theta_full 0.999
_diffrn_measured_fraction_theta_max 0.999
_diffrn_measurement_device_type  'Bruker Kappa APEX CCD area detector'
_diffrn_measurement_method       '\w and \f scans'
_diffrn_radiation_monochromator  'MX optics'
_diffrn_radiation_type           MoK\a
_diffrn_radiation_wavelength     0.71073
_diffrn_reflns_av_R_equivalents  0.0698
_diffrn_reflns_av_unetI/netI     0.0157
_diffrn_reflns_Laue_measured_fraction_full 0.999
_diffrn_reflns_Laue_measured_fraction_max 0.999
_diffrn_reflns_limit_h_max       53
_diffrn_reflns_limit_h_min       -52
_diffrn_reflns_limit_k_max       52
_diffrn_reflns_limit_k_min       -52
_diffrn_reflns_limit_l_max       53
_diffrn_reflns_limit_l_min       -53
_diffrn_reflns_number            370650
_diffrn_reflns_point_group_measured_fraction_full 0.999
_diffrn_reflns_point_group_measured_fraction_max 0.999
_diffrn_reflns_theta_full        25.242
_diffrn_reflns_theta_max         29.128
_diffrn_reflns_theta_min         0.741
_diffrn_source                   microsource
_diffrn_source_current           0.99
_diffrn_source_power             0.0495
_diffrn_source_voltage           50.0
_diffrn_standards_number         0
_exptl_absorpt_coefficient_mu    0.227
_exptl_absorpt_correction_T_max  0.7459
_exptl_absorpt_correction_T_min  0.6945
_exptl_absorpt_correction_type   multi-scan
_exptl_absorpt_process_details
;
SADABS-2016/2 (Bruker,2016) was used for absorption correction.
wR2(int) was 0.1177 before and 0.0500 after correction.
The Ratio of minimum to maximum transmission is 0.9311.
The \l/2 correction factor is Not present.
;
_exptl_crystal_colour            'clear dark violet'
_exptl_crystal_colour_lustre     clear
_exptl_crystal_colour_modifier   dark
_exptl_crystal_colour_primary    violet
_exptl_crystal_density_diffrn    0.444
_exptl_crystal_description       cuboctahedral
_exptl_crystal_F_000             7736
_exptl_crystal_recrystallization_method
'See Experimental Section in Supporting Information.'
_exptl_crystal_size_max          0.706
_exptl_crystal_size_mid          0.592
_exptl_crystal_size_min          0.524
_refine_diff_density_max         1.798
_refine_diff_density_min         -1.543
_refine_diff_density_rms         0.071
_refine_ls_extinction_method     none
_refine_ls_goodness_of_fit_ref   1.038
_refine_ls_hydrogen_treatment    constr
_refine_ls_matrix_type           full
_refine_ls_number_parameters     94
_refine_ls_number_reflns         7260
_refine_ls_number_restraints     80
_refine_ls_restrained_S_all      1.036
_refine_ls_R_factor_all          0.0845
_refine_ls_R_factor_gt           0.0696
_refine_ls_shift/su_max          0.002
_refine_ls_shift/su_mean         0.000
_refine_ls_structure_factor_coef Fsqd
_refine_ls_weighting_details
'w=1/[\s^2^(Fo^2^)+(0.1139P)^2^+170.4568P] where P=(Fo^2^+2Fc^2^)/3'
_refine_ls_weighting_scheme      calc
_refine_ls_wR_factor_gt          0.2005
_refine_ls_wR_factor_ref         0.2246
_reflns_Friedel_coverage         0.000
_reflns_number_gt                5613
_reflns_number_total             7260
_reflns_threshold_expression     'I > 2\s(I)'
_cod_data_source_file            d0sc01796e2.cif
_cod_data_source_block           PCN-224
_cod_depositor_comments
;
The following automatic conversions were performed:

data item '_chemical_melting_point' value 'not measured' was changed
to '?' -- the value is undefined or not given.

Automatic conversion script
Id: cif_fix_values 7556 2019-12-06 15:28:31Z antanas 

 Adding full bibliography for 1558028--1558030.cif.

 Adding full bibliography for 1558028--1558030.cif.
;
_cod_original_cell_volume        58579(5)
_cod_database_code               1558030
_shelx_shelxl_version_number     2018/3
_shelx_space_group_comment
;
The symmetry employed for this shelxl refinement is uniquely defined
by the following loop, which should always be used as a source of
symmetry information in preference to the above space-group names.
They are only intended as comments.
;
_shelx_estimated_absorpt_t_max   0.890
_shelx_estimated_absorpt_t_min   0.856
_olex2_refinement_description
;
1. Fixed Uiso
 At 1.2 times of:
  All C(H) groups, All N(H) groups
 At 1.5 times of:
  All O(H) groups
2. Uiso/Uaniso restraints and constraints
O4: within 2A with sigma of 0.04 and sigma for terminal atoms of 0.08 within 2A
Zr1: within 2A with sigma of 0.04 and sigma for terminal atoms of 0.08 within 2A
O2: within 2A with sigma of 0.04 and sigma for terminal atoms of 0.08 within 2A
3. Rigid body (RIGU) restrains
 N1, C7, C8, C6, C5, C4, C3, C2, C1, O3
 with sigma for 1-2 distances of 0.004 and sigma for 1-3 distances of 0.004
 O3, O2, Zr1, O4, O1
 with sigma for 1-2 distances of 0.004 and sigma for 1-3 distances of 0.004
4. Others
 Fixed Sof: H1(0.25) H4A(0.5)
5.a Aromatic/amide H refined with riding coordinates:
 N1(H1), C4(H4), C3(H3), C8(H8)
5.b Idealised tetrahedral OH refined as rotating group:
 O4(H4A)
;
_shelx_res_file
;
TITL dzzii7f_0m in Im-3m
    dzzii7f.res
    created by SHELXL-2018/3 at 12:10:05 on 24-Feb-2020
CELL 0.71073 38.8372 38.8372 38.8372 90 90 90
ZERR 4 0.0012 0.0012 0.0012 0 0 0
LATT 2
SYMM -X,-Y,+Z
SYMM -X,+Y,-Z
SYMM +X,-Y,-Z
SYMM +Z,+X,+Y
SYMM +Z,-X,-Y
SYMM -Z,-X,+Y
SYMM -Z,+X,-Y
SYMM +Y,+Z,+X
SYMM -Y,+Z,-X
SYMM +Y,-Z,-X
SYMM -Y,-Z,+X
SYMM +Y,+X,-Z
SYMM -Y,-X,-Z
SYMM +Y,-X,+Z
SYMM -Y,+X,+Z
SYMM +X,+Z,-Y
SYMM -X,+Z,+Y
SYMM -X,-Z,-Y
SYMM +X,-Z,+Y
SYMM +Z,+Y,-X
SYMM +Z,-Y,+X
SYMM -Z,+Y,+X
SYMM -Z,-Y,-X
SFAC C H N O Zr
UNIT 576 360 48 208 48
EQIV $1 +Y,+X,+Z
SIMU O4
SIMU Zr1
SIMU O2
RIGU N1 C7 C8 C6 C5 C4 C3 C2 C1 O3
RIGU O3 O2 Zr1 O4 O1

L.S. 20
PLAN  34
SIZE 0.706 0.592 0.524
TEMP -173(2)
CONF
FREE Zr1 H4a_$1
FREE Zr1 H4a
BOND
MORE -1
BOND $H
ABIN
fmap 2
acta
REM <olex2.extras>
REM <HklSrc "%./dzzii7f.hkl">
REM </olex2.extras>

WGHT    0.113900  170.456787
FVAR       0.02046
ZR1   5    0.291279    0.291279    0.224376    10.50000    0.04476    0.04476 =
         0.04313    0.02336    0.02336    0.02470
C5    1    0.250000    0.410122    0.089878    10.50000    0.10049    0.02057 =
         0.02057    0.00639    0.00443    0.00443
N1    3    0.249409    0.447356    0.000000    10.50000    0.10846    0.01712 =
         0.01706    0.00000    0.00000    0.00165
AFIX  43
H1    2    0.248558    0.469999   -0.000001    10.25000   -1.20000
AFIX   0
C7    1    0.250199    0.426338    0.028427    11.00000    0.10368    0.01467 =
         0.02489    0.00211    0.00075    0.00147
C6    1    0.250000    0.437390    0.062610    10.50000    0.09990    0.02050 =
         0.02050    0.00392    0.00288    0.00288
C4    1    0.279373    0.403503    0.108416    11.00000    0.09565    0.04746 =
         0.04643    0.02486    0.00675   -0.00514
AFIX  43
H4    2    0.299727    0.416324    0.103980    11.00000   -1.20000
AFIX   0
C2    1    0.250000    0.359629    0.140371    10.50000    0.07228    0.03113 =
         0.03113    0.01522    0.01418    0.01418
C3    1    0.279444    0.377811    0.133952    11.00000    0.08263    0.05364 =
         0.04358    0.02750    0.00548    0.00835
AFIX  43
H3    2    0.299820    0.373130    0.146650    11.00000   -1.20000
AFIX   0
O3    4    0.277172    0.327966    0.183992    11.00000    0.05529    0.05903 =
         0.04865    0.03293    0.02644    0.02770
C1    1    0.250000    0.332476    0.167524    10.50000    0.05980    0.04481 =
         0.04481    0.02768    0.02038    0.02038
C8    1    0.251847    0.391012    0.017292    11.00000    0.11747    0.01541 =
         0.02880    0.00211   -0.00023    0.00156
AFIX  43
H8    2    0.252769    0.371311    0.031760    11.00000   -1.20000
AFIX   0
O2    4    0.256284    0.256284    0.197311    10.50000    0.06050    0.06050 =
         0.04873    0.02436    0.02436    0.04536
O1    4    0.282015    0.282015    0.282015    10.16667    0.11476    0.11476 =
         0.11476    0.02785    0.02785    0.02785
O4    4    0.321935    0.321935    0.247571    10.50000    0.10831    0.10831 =
         0.12762   -0.00734   -0.00734    0.04939
AFIX 147
H4A   2    0.311481    0.331660    0.263817    10.50000   -1.50000
AFIX   0
HKLF 4




REM  dzzii7f_0m in Im-3m
REM wR2 = 0.2246, GooF = S = 1.038, Restrained GooF = 1.036 for all data
REM R1 = 0.0696 for 5613 Fo > 4sig(Fo) and 0.0845 for all 7260 data
REM 94 parameters refined using 80 restraints

END

WGHT      0.1139    170.4602

REM Highest difference peak  1.798,  deepest hole -1.543,  1-sigma level  0.071
Q1    1   0.3036  0.3036  0.2410  10.50000  0.05    1.80
Q2    1   0.2748  0.2748  0.2110  10.50000  0.05    1.36
Q3    1   0.3028  0.3028  0.3028  10.16667  0.05    0.68
Q4    1   0.3415  0.3415  0.2591  10.50000  0.05    0.68
Q5    1   0.3062  0.3130  0.2726  11.00000  0.05    0.65
Q6    1   0.3137  0.3137  0.2778  10.50000  0.05    0.63
Q7    1   0.3016  0.3016  0.2683  10.50000  0.05    0.60
Q8    1   0.2909  0.3273  0.2909  10.50000  0.05    0.57
Q9    1   0.2813  0.3212  0.2813  10.50000  0.05    0.52
Q10   1   0.2500  0.3480  0.1520  10.50000  0.05    0.50
Q11   1   0.2703  0.3284  0.2629  11.00000  0.05    0.49
Q12   1   0.2982  0.3404  0.2493  11.00000  0.05    0.48
Q13   1   0.2684  0.2616  0.1900  11.00000  0.05    0.48
Q14   1   0.2909  0.3318  0.2461  11.00000  0.05    0.47
Q15   1   0.2786  0.2785  0.2270  10.50000  0.05    0.46
Q16   1   0.3091  0.3251  0.2622  11.00000  0.05    0.44
Q17   1   0.3111  0.3323  0.2274  11.00000  0.05    0.43
Q18   1   0.3392  0.3179  0.2385  11.00000  0.05    0.43
Q19   1   0.2537  0.2537  0.1734  10.50000  0.05    0.42
Q20   1   0.2384  0.2384  0.1712  10.50000  0.05    0.39
Q21   1   0.2602  0.2987  0.1966  11.00000  0.05    0.39
Q22   1   0.2445  0.2603  0.1964  11.00000  0.05    0.37
Q23   1   0.2628  0.3673  0.1397  11.00000  0.05    0.37
Q24   1   0.2689  0.2689  0.3029  10.50000  0.05    0.35
Q25   1   0.3089  0.3605  0.1329  11.00000  0.05    0.35
Q26   1   0.2750  0.3228  0.2556  11.00000  0.05    0.35
Q27   1   0.2729  0.3142  0.2799  11.00000  0.05    0.35
Q28   1   0.3084  0.3874  0.1444  11.00000  0.05    0.34
Q29   1   0.2778  0.3485  0.2106  11.00000  0.05    0.34
Q30   1   0.2500  0.4217  0.0782  10.50000  0.05    0.33
Q31   1   0.2666  0.3597  0.1315  11.00000  0.05    0.33
Q32   1   0.2576  0.2576  0.1802  10.50000  0.05    0.33
Q33   1   0.2267  0.4486  0.0000  10.50000  0.05    0.33
Q34   1   0.3305  0.3521  0.2367  11.00000  0.05    0.32
;
_shelx_res_checksum              12168
_shelx_fab_file
;
0 1 1 905.7322 2.9532
0 3 1 25.2648 0.5038
0 3 3 246.7707 0.1575
0 4 2 -201.0480 3.3284
0 4 4 50.2223 -1.6355
0 5 1 -154.7406 -0.6394
0 5 3 -35.5563 0.5110
0 5 5 210.9803 2.6168
0 6 0 149.4666 -2.0515
0 6 2 366.6026 -0.8959
0 6 4 -111.4570 -1.5051
0 6 6 287.2191 -0.1004
0 7 1 161.8105 0.4927
0 7 3 -139.8367 1.3900
0 7 5 77.5816 -2.4918
0 7 7 321.5795 4.0031
0 8 0 -189.3294 1.0286
0 8 2 -136.7660 -0.3539
0 8 4 -305.9104 1.6081
0 8 6 167.8812 -0.9938
0 8 8 746.9469 1.2105
0 9 1 -8.2811 0.6346
0 9 3 38.9318 -2.0346
0 9 5 185.4945 4.4520
0 9 7 44.4639 -3.9194
0 9 9 -92.6072 3.8570
0 10 0 187.5368 0.7043
0 10 2 -234.4726 0.6886
0 10 4 -19.4893 -3.7335
0 10 6 -106.8416 0.9435
0 10 8 -25.6776 -1.0646
0 10 10 -32.7682 -3.0946
0 11 1 28.7348 -1.6767
0 11 3 -61.7741 3.5080
0 11 5 -29.4792 -3.7650
0 11 7 72.7374 4.9465
0 11 9 -56.8606 -3.6774
0 11 11 131.1590 1.4527
0 12 0 206.8516 -0.4636
0 12 2 243.4472 -2.0047
0 12 4 157.6247 3.5915
0 12 6 50.0440 -2.5461
0 12 8 -33.3570 -0.3353
0 12 10 -17.5390 5.9262
0 12 12 129.2461 -8.1196
0 13 1 -23.7253 2.3088
0 13 3 -51.6917 -3.4268
0 13 5 28.5353 4.5790
0 13 7 -41.1980 -3.9425
0 13 9 54.2093 2.2718
0 13 11 -93.3796 -0.0730
0 13 13 61.3770 -3.3451
0 14 0 -69.0280 -1.2338
0 14 2 100.2328 3.0884
0 14 4 -32.6325 -4.5157
0 14 6 132.1318 2.8477
0 14 8 20.9948 0.7665
0 14 10 6.4082 -6.5632
0 14 12 18.8949 10.0228
0 14 14 66.8499 -9.6042
0 15 1 -23.9024 -1.7982
0 15 3 10.9754 3.6205
0 15 5 -70.4517 -3.9991
0 15 7 49.5314 3.3757
0 15 9 30.8128 -0.7668
0 15 11 -47.1009 -2.0363
0 15 13 -31.9323 4.8535
0 15 15 -3.7115 -6.9761
0 16 0 42.2348 1.6186
0 16 2 -98.1422 -2.6194
0 16 4 -71.6391 2.7224
0 16 6 16.1706 -2.6677
0 16 8 -75.6078 -1.2670
0 16 10 -35.0308 5.6230
0 16 12 -32.6670 -8.6814
0 16 14 -63.4549 8.4935
0 16 16 55.5154 -6.4229
0 17 1 -18.0169 1.1346
0 17 3 24.5211 -3.0596
0 17 5 38.4505 3.2247
0 17 7 18.5387 -1.9370
0 17 9 -7.9783 -0.2433
0 17 11 7.7632 3.1280
0 17 13 12.9814 -5.5840
0 17 15 5.2708 7.3432
0 17 17 -0.9360 -7.3207
0 18 0 159.5273 -1.3786
0 18 2 1.6430 1.0164
0 18 4 38.7404 0.1587
0 18 6 -20.2485 1.1987
0 18 8 23.8374 1.0141
0 18 10 10.0059 -3.6277
0 18 12 50.6006 5.6305
0 18 14 0.4462 -5.2743
0 18 16 -3.3194 3.6702
0 18 18 20.6957 -2.2062
0 19 1 -0.1248 -0.4647
0 19 3 45.6783 2.1429
0 19 5 -2.1703 -1.7054
0 19 7 8.8177 0.7781
0 19 9 -12.2954 1.2151
0 19 11 15.8331 -2.9602
0 19 13 -17.6365 4.4831
0 19 15 15.5050 -5.7950
0 19 17 -11.3375 5.9946
0 19 19 33.8033 -4.1400
0 20 0 32.4932 0.8419
0 20 2 -66.5448 0.2927
0 20 4 47.6850 -3.0400
0 20 6 -14.3441 0.3690
0 20 8 3.9890 -1.1815
0 20 10 -2.2235 1.0854
0 20 12 5.3780 -1.9500
0 20 14 27.0844 1.5708
0 20 16 5.6664 -0.6604
0 20 18 -14.8258 -0.5133
0 20 20 5.7345 0.9689
0 21 1 -0.3261 0.1611
0 21 3 7.4481 -0.5317
0 21 5 -10.9424 -0.0387
0 21 7 21.3322 0.2775
0 21 9 3.2568 -1.2076
0 21 11 -5.7928 1.9429
0 21 13 6.6250 -2.3922
0 21 15 9.1926 2.9448
0 21 17 3.9824 -2.7329
0 21 19 -8.5370 2.0732
0 21 21 26.2905 -0.2333
0 22 0 -89.7918 -1.0517
0 22 2 -39.5544 -0.7456
0 22 4 -52.1033 4.2728
0 22 6 21.4606 -1.2314
0 22 8 -33.4204 1.4416
0 22 10 6.8982 0.4255
0 22 12 -31.8301 -0.7482
0 22 14 -16.7108 1.2977
0 22 16 -3.5992 -1.9562
0 22 18 10.4673 2.2298
0 22 20 10.7139 -2.3098
0 22 22 -1.1124 1.7669
0 23 1 10.3848 0.2291
0 23 3 -12.6097 -1.0645
0 23 5 -0.6584 1.5633
0 23 7 5.3559 -1.5114
0 23 9 12.8240 1.1210
0 23 11 -10.1103 -0.7423
0 23 13 -2.5406 0.2041
0 23 15 -2.3977 0.4812
0 23 17 0.5771 -0.8171
0 23 19 -6.8115 1.2361
0 23 21 -0.7307 -1.1399
0 23 23 24.1392 1.3531
0 24 0 -1.0266 1.7032
0 24 2 63.6640 0.2321
0 24 4 -17.9555 -3.6714
0 24 6 38.2802 1.4509
0 24 8 15.1935 -1.2282
0 24 10 29.7620 -1.2426
0 24 12 -5.4291 2.2954
0 24 14 15.7597 -3.3391
0 24 16 3.1610 3.4270
0 24 18 0.2970 -3.6179
0 24 20 -11.4440 2.7813
0 24 22 0.4629 -2.0338
0 24 24 6.9516 1.0821
0 25 1 12.2696 -0.8078
0 25 3 7.1901 2.5314
0 25 5 -6.7923 -3.0980
0 25 7 2.7965 2.5800
0 25 9 -20.4645 -1.4617
0 25 11 0.4944 -0.1251
0 25 13 -5.9027 1.7688
0 25 15 0.3354 -3.1751
0 25 17 3.5918 4.2223
0 25 19 3.1886 -3.9904
0 25 21 -1.5337 2.7595
0 25 23 -12.0724 -0.9811
0 25 25 -8.1163 -0.6690
0 26 0 13.7818 -1.3596
0 26 2 -10.1691 -0.2544
0 26 4 25.7368 2.6248
0 26 6 -6.6409 -1.2666
0 26 8 9.0447 1.0775
0 26 10 -11.6442 1.7077
0 26 12 3.8003 -2.8370
0 26 14 -1.9447 3.8905
0 26 16 -11.0043 -4.1359
0 26 18 -2.3441 4.0680
0 26 20 -3.6686 -2.9672
0 26 22 14.4796 1.6711
0 26 24 -8.8334 -0.3355
0 26 26 14.3455 -0.7357
0 27 1 -7.2719 1.3543
0 27 3 2.4624 -3.2320
0 27 5 3.8244 4.0382
0 27 7 -3.3779 -3.4303
0 27 9 -1.2792 1.5157
0 27 11 -10.8169 0.3973
0 27 13 1.1437 -2.9568
0 27 15 -1.1696 5.2909
0 27 17 -12.9964 -6.4483
0 27 19 -10.8946 5.8025
0 27 21 7.5985 -3.5527
0 27 23 7.8609 0.7449
0 27 25 7.0730 1.8397
0 27 27 -6.2015 -4.2448
0 28 0 -14.2642 0.4027
0 28 2 -24.3971 0.5238
0 28 4 19.0926 -1.7021
0 28 6 -11.4151 0.9157
0 28 8 0.0080 -0.5966
0 28 10 -35.2207 -1.2567
0 28 12 -0.9007 2.5382
0 28 14 -4.8122 -3.5301
0 28 16 6.2061 3.6324
0 28 18 -1.3627 -3.6582
0 28 20 -2.5849 2.6252
0 28 22 -3.8965 -1.3640
0 28 24 -2.7654 -0.2068
0 28 26 -0.2336 1.8562
0 28 28 6.5584 -2.6534
0 29 1 15.6774 -1.5172
0 29 3 2.7898 3.4013
0 29 5 5.4352 -3.9084
0 29 7 -4.1723 3.6063
0 29 9 -5.1537 -1.7376
0 29 11 -4.8843 -0.7305
0 29 13 -3.3488 3.5058
0 29 15 3.5745 -6.0504
0 29 17 -8.6695 7.2695
0 29 19 10.4032 -6.3235
0 29 21 -3.1876 3.6156
0 29 23 -12.8552 -0.3713
0 29 25 0.4944 -2.9011
0 29 27 -9.7481 5.2073
0 29 29 -0.1374 -6.7376
0 30 0 3.2726 0.4638
0 30 2 17.9543 -0.6539
0 30 4 3.5832 0.2276
0 30 6 -8.8466 -0.5618
0 30 8 -15.5327 0.3491
0 30 10 -7.5829 0.6622
0 30 12 -6.9015 -1.4025
0 30 14 3.1270 2.1731
0 30 16 12.5779 -2.4548
0 30 18 -10.2473 2.5250
0 30 20 7.9157 -1.7953
0 30 22 -3.6132 0.8831
0 30 24 9.2952 0.9158
0 30 26 -1.9053 -2.2026
0 30 28 -10.5149 3.2327
0 30 30 40.3959 -3.4408
0 31 1 -2.5063 1.2730
0 31 3 -0.9140 -2.8522
0 31 5 -5.3731 3.4009
0 31 7 -11.8553 -3.1562
0 31 9 13.3813 1.4230
0 31 11 15.9454 0.7323
0 31 13 1.5020 -3.2466
0 31 15 -1.3352 5.6379
0 31 17 9.2516 -6.4196
0 31 19 -12.1759 5.4801
0 31 21 3.6876 -2.9682
0 31 23 -8.7817 -0.2355
0 31 25 0.9148 2.9895
0 31 27 9.8028 -5.1388
0 31 29 -1.6823 6.3750
0 31 31 5.3275 -6.1957
0 32 0 12.8501 -0.9138
0 32 2 20.8158 0.4214
0 32 4 -17.5400 1.1739
0 32 6 6.1591 0.0103
0 32 8 -10.6516 -0.0861
0 32 10 12.0440 0.3112
0 32 12 14.2540 0.0017
0 32 14 3.8382 -0.6774
0 32 16 -29.7357 0.8380
0 32 18 23.9179 -1.1127
0 32 20 -6.9236 0.6811
0 32 22 -13.8654 -0.1479
0 32 24 -7.2895 -1.1972
0 32 26 3.2065 2.1431
0 32 28 4.2808 -2.9824
0 32 30 -25.4560 3.0162
0 32 32 19.8969 -2.5407
0 33 1 8.7794 -0.7954
0 33 3 3.4296 1.9791
0 33 5 -8.2089 -2.3780
0 33 7 -5.9823 2.2795
0 33 9 -8.7818 -1.1754
0 33 11 -9.6766 -0.4106
0 33 13 15.2577 2.2611
0 33 15 -4.9207 -3.7642
0 33 17 -2.5087 4.3732
0 33 19 3.4616 -3.5581
0 33 21 2.3697 1.9357
0 33 23 5.9030 0.4389
0 33 25 -7.4916 -2.3556
0 33 27 6.7006 3.9675
0 33 29 -10.2321 -4.8843
0 33 31 -2.9138 4.7161
0 33 33 18.7868 -3.5602
0 34 0 -14.0535 0.8278
0 34 2 -13.8279 0.1236
0 34 4 7.9948 -2.4587
0 34 6 -5.9662 0.5734
0 34 8 24.3633 -0.1986
0 34 10 8.4862 -0.7580
0 34 12 -18.5113 0.8790
0 34 14 9.1635 -0.7149
0 34 16 45.4997 0.5065
0 34 18 39.5546 -0.5103
0 34 20 -30.8045 0.3841
0 34 22 12.7441 -0.6100
0 34 24 9.1765 1.2558
0 34 26 -8.4930 -1.6696
0 34 28 8.5449 2.1770
0 34 30 -3.9360 -1.9267
0 34 32 5.7836 1.4255
0 34 34 -11.3262 -0.5764
0 35 1 -2.7486 0.3955
0 35 3 -2.4716 -1.0507
0 35 5 1.9497 1.2827
0 35 7 -10.2814 -1.3309
0 35 9 17.3276 0.7797
0 35 11 13.3590 -0.2575
0 35 13 -11.6445 -0.6168
0 35 15 2.8034 1.4392
0 35 17 1.1033 -1.6123
0 35 19 3.4030 1.4840
0 35 21 -4.2904 -0.6624
0 35 23 -7.6917 -0.3239
0 35 25 -3.0393 1.2475
0 35 27 3.8342 -2.1782
0 35 29 6.3882 2.5757
0 35 31 7.2755 -2.4236
0 35 33 -6.0346 1.7510
0 35 35 19.7497 -0.5547
0 36 0 34.7084 -0.8571
0 36 2 -5.6782 -0.3532
0 36 4 13.8001 2.8523
0 36 6 -22.6399 -0.7293
0 36 8 -1.8127 0.5915
0 36 10 -11.8451 0.8986
0 36 12 27.7581 -1.1557
0 36 14 -9.8262 1.3923
0 36 16 14.5463 -1.6242
0 36 18 -2.5667 1.7069
0 36 20 9.4663 -1.5165
0 36 22 -7.7791 1.0824
0 36 24 7.1596 -1.1995
0 36 26 -8.6786 1.0910
0 36 28 3.2418 -1.0342
0 36 30 -7.2374 0.4977
0 36 32 -1.6661 -0.1290
0 36 34 0.0804 -0.5373
0 36 36 -5.9881 1.0465
0 37 1 7.6808 -0.0671
0 37 3 8.9725 0.2921
0 37 5 -2.0470 -0.3492
0 37 7 -1.4099 0.3480
0 37 9 -7.5352 -0.5368
0 37 11 1.7253 0.7731
0 37 13 -4.8108 -0.7720
0 37 15 8.7278 0.7681
0 37 17 -10.1160 -0.7638
0 37 19 -1.4925 0.6253
0 37 21 4.8003 -0.4046
0 37 23 -6.5662 0.4167
0 37 25 6.1128 -0.2101
0 37 27 -4.6810 0.1617
0 37 29 -2.9008 0.0013
0 37 31 -1.0149 -0.0836
0 37 33 5.3667 0.4580
0 37 35 -5.4336 -0.5791
0 37 37 21.4275 0.7723
0 38 0 -19.3899 0.7840
0 38 2 6.2179 0.2255
0 38 4 11.1082 -2.3998
0 38 6 0.6932 0.5873
0 38 8 -20.2799 -0.8288
0 38 10 -7.5835 -0.5169
0 38 12 9.0579 0.7264
0 38 14 -1.8119 -1.2995
0 38 16 9.6496 1.8621
0 38 18 -5.6929 -2.2960
0 38 20 11.3457 2.0003
0 38 22 -5.6246 -1.4893
0 38 24 7.8639 0.9339
0 38 26 13.9770 -0.4520
0 38 28 -0.0244 0.0364
0 38 30 0.6374 0.7561
0 38 32 -1.1524 -1.2780
0 38 34 -6.2374 1.5229
0 38 36 -10.9366 -1.7526
0 39 1 -11.5278 -0.1844
0 39 3 -0.4994 0.3969
0 39 5 1.8349 -0.4482
0 39 7 13.4278 0.4693
0 39 9 5.7683 0.1796
0 39 11 -3.9819 -0.9260
0 39 13 8.5709 1.5261
0 39 15 1.8833 -2.2491
0 39 17 1.0676 2.5488
0 39 19 -0.0095 -2.1811
0 39 21 22.6105 1.3997
0 39 23 9.2538 -0.3802
0 39 25 6.5547 -0.4704
0 39 27 11.3651 1.3231
0 39 29 13.2749 -2.1261
0 39 31 -1.8302 2.3794
0 39 33 1.0022 -2.2904
0 39 35 -1.8514 1.8790
0 40 0 13.5331 -0.7706
0 40 2 -13.6145 0.1750
0 40 4 2.9398 1.2448
0 40 6 2.7354 -0.1484
0 40 8 2.6489 0.9463
0 40 10 -10.4579 -0.1273
0 40 12 -14.8111 0.2161
0 40 14 4.5737 0.6700
0 40 16 -7.9972 -1.4678
0 40 18 0.0399 2.0907
0 40 20 -3.4854 -2.0768
0 40 22 12.5988 1.6160
0 40 24 -9.9647 -1.0097
0 40 26 -5.1809 0.1422
0 40 28 -16.4157 0.6361
0 40 30 7.0975 -1.6956
0 40 32 -8.6728 2.2698
0 40 34 7.7497 -2.6435
0 41 1 2.1833 0.4397
0 41 3 -10.7032 -0.9415
0 41 5 2.2679 1.0671
0 41 7 -3.1233 -1.1802
0 41 9 7.5692 0.2654
0 41 11 0.8675 0.5860
0 41 13 -1.0693 -1.6984
0 41 15 -14.1399 2.8171
0 41 17 17.6268 -3.2719
0 41 19 -2.8658 3.1199
0 41 21 -14.5699 -1.9882
0 41 23 -24.2854 0.6153
0 41 25 8.8239 0.8275
0 41 27 5.7931 -2.0496
0 41 29 -18.8326 3.3641
0 41 31 9.7081 -3.9120
0 41 33 0.6373 3.9463
0 42 0 0.1760 0.3694
0 42 2 -11.8966 -0.3453
0 42 4 15.9265 -0.0637
0 42 6 5.6465 -0.1614
0 42 8 7.2938 -0.8564
0 42 10 -6.9906 0.8942
0 42 12 11.4377 -1.1636
0 42 14 -23.6681 0.3270
0 42 16 -21.9208 0.4990
0 42 18 11.9095 -1.4891
0 42 20 7.9648 1.6096
0 42 22 -5.6154 -1.6067
0 42 24 -4.8764 0.9605
0 42 26 48.5947 -0.1538
0 42 28 3.4700 -1.0434
0 42 30 -4.8656 2.3083
0 42 32 3.4750 -3.1012
0 43 1 -14.8240 -0.5991
0 43 3 -12.2362 1.2206
0 43 5 5.0170 -1.5530
0 43 7 2.5184 1.6027
0 43 9 -18.6226 -0.8868
0 43 11 0.5100 -0.0994
0 43 13 10.3630 1.2958
0 43 15 12.2893 -2.5544
0 43 17 -27.9041 3.2561
0 43 19 4.3261 -3.1616
0 43 21 14.2078 2.2588
0 43 23 7.7951 -0.7416
0 43 25 2.6475 -0.8989
0 43 27 -1.7194 2.4726
0 43 29 11.4045 -3.8490
0 43 31 -7.2405 4.8919
0 44 0 3.3738 0.1199
0 44 2 1.3772 0.3589
0 44 4 6.7539 -0.7529
0 44 6 -11.1784 0.4185
0 44 8 9.1142 0.6945
0 44 10 -15.4678 -1.3370
0 44 12 3.7830 1.9976
0 44 14 11.7324 -1.2726
0 44 16 -18.0544 0.4105
0 44 18 -19.7480 0.6810
0 44 20 -9.3654 -1.1442
0 44 22 7.0474 1.3563
0 44 24 -1.0497 -0.7629
0 44 26 -24.8170 0.1492
0 44 28 -21.5523 0.9384
0 45 1 -15.6516 0.5960
0 45 3 4.1039 -1.2950
0 45 5 -5.0174 1.6048
0 45 7 1.8482 -1.6509
0 45 9 5.2356 1.1459
0 45 11 17.2614 -0.3776
0 45 13 -8.2923 -0.8195
0 45 15 -8.9583 1.9362
0 45 17 9.0802 -2.5859
0 45 19 -10.8964 2.5888
0 45 21 -2.3866 -1.7871
0 45 23 17.2900 0.4278
0 45 25 -10.3660 0.9780
0 45 27 -12.3412 -2.5202
0 46 0 -3.5934 -0.2830
0 46 2 7.4922 -0.3273
0 46 4 3.5066 1.2642
0 46 6 -11.4586 -0.3946
0 46 8 4.7938 -0.5983
0 46 10 4.1461 1.7788
0 46 12 3.5777 -2.4771
0 46 14 -12.7062 1.9437
0 46 16 3.9596 -1.1337
0 46 18 -8.4040 0.0618
0 46 20 -10.3401 0.4683
0 46 22 -8.9577 -1.0126
0 46 24 -7.2991 0.7997
0 46 26 -6.2405 -0.3969
0 47 1 28.8425 -0.4259
0 47 3 -5.6302 1.0585
0 47 5 3.6663 -1.4194
0 47 7 6.3241 1.3741
0 47 9 -9.7723 -1.1393
0 47 11 4.2756 0.6633
0 47 13 -2.4538 0.1854
0 47 15 4.2690 -0.9558
0 47 17 -1.9124 1.4318
0 47 19 0.2920 -1.5641
0 47 21 9.6659 1.3124
0 47 23 -1.9735 -0.5250
0 48 0 38.1424 0.0813
0 48 2 -14.0135 0.3233
0 48 4 6.2661 -1.3796
0 48 6 6.5291 0.4415
0 48 8 -0.1694 0.2923
0 48 10 -3.4688 -1.7363
0 48 12 -13.8365 2.2927
0 48 14 10.9225 -1.9614
0 48 16 -10.7174 1.4097
0 48 18 2.3295 -0.6033
0 48 20 14.9876 0.1089
0 48 22 14.1612 0.5631
0 49 1 33.6197 0.2196
0 49 3 8.1852 -0.8290
0 49 5 -1.8250 1.1369
0 49 7 -1.0237 -1.2051
0 49 9 8.4889 1.0768
0 49 11 -3.5503 -0.8404
0 49 13 -17.2743 0.3423
0 49 15 -15.6571 0.0364
0 49 17 -17.3961 -0.3520
0 49 19 -9.3478 0.7585
0 50 0 -6.6263 0.2502
0 50 2 9.7406 -0.2189
0 50 4 -10.2540 1.1993
0 50 6 -19.9084 -0.3184
0 50 8 -6.2408 0.1673
0 50 10 12.5610 1.3279
0 50 12 0.0981 -1.5735
0 50 14 -11.5083 1.5772
0 50 16 -0.9177 -1.4141
0 50 18 5.3012 0.9181
0 51 1 -20.1682 -0.0699
0 51 3 -1.3381 0.5545
0 51 5 4.7051 -0.9980
0 51 7 0.0412 1.0356
0 51 9 -4.2238 -1.1094
0 51 11 8.5989 0.9498
0 51 13 1.4631 -0.8511
0 51 15 -0.1839 0.7476
0 52 0 -28.2401 -0.2156
0 52 2 13.5023 -0.2189
0 52 4 -14.4614 -0.4063
0 52 6 5.3657 0.0636
0 52 8 -4.0426 -0.4595
0 52 10 -5.9876 -0.6279
0 53 1 23.4433 0.0857
0 53 3 -6.0635 -0.5287
1 2 1 -349.8830 2.4437
1 3 2 -55.3808 -0.8869
1 4 1 418.5151 -2.1135
1 4 3 60.9213 -0.3664
1 5 2 172.0121 2.0110
1 5 4 -107.9626 -0.2022
1 6 1 -308.8985 0.9929
1 6 3 -61.7669 0.6210
1 6 5 -78.1073 -2.1144
1 7 2 105.8034 -2.4104
1 7 4 -63.1775 0.7615
1 7 6 -68.6094 0.8756
1 8 1 29.5947 0.4439
1 8 3 188.7871 -2.5738
1 8 5 152.2586 2.0283
1 8 7 -43.7269 -3.6394
1 9 2 35.3527 1.8981
1 9 4 -52.0881 0.0233
1 9 6 141.2524 -0.2364
1 9 8 -80.0185 1.7339
1 10 1 246.0001 -0.9549
1 10 3 22.2142 3.6004
1 10 5 94.4858 -1.8052
1 10 7 -8.7111 2.0801
1 10 9 5.9192 -2.7924
1 11 2 -8.0246 -2.1753
1 11 4 5.9158 -0.5388
1 11 6 133.9161 -0.8742
1 11 8 49.3747 1.3105
1 11 10 -3.0298 0.1092
1 12 1 -203.1559 0.7063
1 12 3 -93.5015 -2.0640
1 12 5 -28.6868 1.8495
1 12 7 -3.4336 -1.3903
1 12 9 47.4945 0.8096
1 12 11 -39.0423 -3.4372
1 13 2 54.8357 0.7864
1 13 4 20.8145 0.1471
1 13 6 -55.6906 -0.2007
1 13 8 28.4450 -0.5368
1 13 10 43.6181 0.5638
1 13 12 -59.0451 0.4110
1 14 1 1.9066 -0.4018
1 14 3 -46.3656 1.6962
1 14 5 -10.4992 0.8559
1 14 7 -29.4418 -0.8235
1 14 9 -16.2059 0.6503
1 14 11 18.4946 0.3766
1 14 13 -13.1821 -1.9605
1 15 2 -7.9946 -1.3852
1 15 4 38.9740 -0.9909
1 15 6 -24.3939 -0.2277
1 15 8 -9.7054 -0.4042
1 15 10 14.9802 1.1603
1 15 12 9.3394 -1.4491
1 15 14 -21.2165 1.6013
1 16 1 91.0370 0.0503
1 16 3 61.1863 0.2854
1 16 5 26.3424 -0.7932
1 16 7 3.5296 2.5968
1 16 9 9.3517 -1.0135
1 16 11 8.3261 -0.1042
1 16 13 37.3579 1.0419
1 16 15 18.2771 -2.3578
1 17 2 27.7766 1.2522
1 17 4 -3.5170 0.1511
1 17 6 -2.5750 -0.1873
1 17 8 17.9266 -0.5016
1 17 10 1.5461 -1.0515
1 17 12 -17.2447 2.1132
1 17 14 35.7468 -1.3750
1 17 16 -14.2994 0.3948
1 18 1 -105.6505 0.2244
1 18 3 -26.9390 -1.5596
1 18 5 -3.7031 0.8761
1 18 7 11.7454 -1.5969
1 18 9 -8.6520 1.2681
1 18 11 -7.2137 -0.0970
1 18 13 -25.7645 -0.7858
1 18 15 -8.8113 0.7371
1 18 17 -3.8641 -1.5537
1 19 2 -1.2890 -0.5826
1 19 4 0.7135 0.0764
1 19 6 -4.5995 -0.5240
1 19 8 -4.2349 0.2502
1 19 10 16.6609 -0.9948
1 19 12 6.7067 -0.7194
1 19 14 -10.4013 0.7972
1 19 16 18.1599 0.5149
1 19 18 -5.6364 0.0527
1 20 1 30.5998 -0.4190
1 20 3 -6.7255 2.9975
1 20 5 8.6369 -1.6780
1 20 7 -12.0508 2.7313
1 20 9 15.8677 -0.1636
1 20 11 -11.0773 0.9081
1 20 13 2.1336 0.3232
1 20 15 1.3575 -0.1140
1 20 17 4.4446 -0.2735
1 20 19 8.5287 -1.4184
1 21 2 -5.3358 -0.7368
1 21 4 -11.2348 0.5657
1 21 6 14.8724 0.8670
1 21 8 -2.4981 -1.8524
1 21 10 -0.6432 1.0996
1 21 12 5.6891 -1.1372
1 21 14 10.9818 0.1110
1 21 16 4.5374 -0.8556
1 21 18 20.0254 1.6878
1 21 20 -6.4480 0.2721
1 22 1 38.2906 0.4692
1 22 3 31.8469 -4.3269
1 22 5 -14.6285 2.1107
1 22 7 24.5151 -3.2313
1 22 9 -6.2604 1.2763
1 22 11 14.6518 -0.0873
1 22 13 8.2936 0.4135
1 22 15 0.4389 -0.0920
1 22 17 4.0434 0.2617
1 22 19 -6.3012 -0.4384
1 22 21 6.4666 -1.1759
1 23 2 -3.6580 2.0779
1 23 4 -18.5446 -0.7293
1 23 6 3.8051 -0.1185
1 23 8 -2.8856 0.8443
1 23 10 0.2503 -1.1843
1 23 12 -10.4593 -0.0360
1 23 14 9.8247 -0.0843
1 23 16 -6.2431 -0.1184
1 23 18 6.4673 -1.0369
1 23 20 -4.6676 0.8870
1 23 22 -4.8251 1.0674
1 24 1 -33.1277 -0.4552
1 24 3 -17.1289 4.6813
1 24 5 -2.3938 -3.5483
1 24 7 -8.9999 4.0532
1 24 9 1.6348 -1.3104
1 24 11 -12.1911 0.7008
1 24 13 3.9260 -0.1765
1 24 15 10.8651 0.8593
1 24 17 -12.7089 0.5683
1 24 19 10.5215 -0.8998
1 24 21 -3.6538 1.0883
1 24 23 16.7763 -1.4617
1 25 2 4.8122 -2.6711
1 25 4 -12.4243 0.9143
1 25 6 13.8248 -0.3010
1 25 8 -22.1133 0.2671
1 25 10 5.1732 -0.3822
1 25 12 10.9121 0.7311
1 25 14 -12.2435 -1.2174
1 25 16 5.1343 0.4440
1 25 18 -13.5376 0.0882
1 25 20 26.4179 -0.4292
1 25 22 0.3625 -0.2104
1 25 24 -16.9385 1.1213
1 26 1 3.5423 0.3332
1 26 3 2.2495 -3.6944
1 26 5 -1.6681 3.7381
1 26 7 4.1510 -3.6989
1 26 9 -6.8782 0.4324
1 26 11 11.4782 0.4403
1 26 13 -16.6688 0.1227
1 26 15 -11.4803 -0.4247
1 26 17 10.4315 -0.1230
1 26 19 -11.0930 1.2991
1 26 21 5.5279 -1.7145
1 26 23 -15.0759 0.9158
1 26 25 16.6882 -0.6958
1 27 2 -3.1704 2.0485
1 27 4 14.7886 -0.6952
1 27 6 -16.1302 0.1258
1 27 8 -11.0571 -0.4637
1 27 10 12.2840 1.0031
1 27 12 -7.3853 -1.2690
1 27 14 3.8695 0.7068
1 27 16 -0.0238 -0.7477
1 27 18 7.5212 -0.1571
1 27 20 -9.5025 0.3049
1 27 22 8.3109 0.1492
1 27 24 0.4799 -0.6804
1 27 26 -11.0138 0.3106
1 28 1 21.7316 -0.1327
1 28 3 -10.9497 2.1457
1 28 5 7.3592 -1.8709
1 28 7 -7.2239 1.5961
1 28 9 12.4525 0.9119
1 28 11 -7.6430 -1.5369
1 28 13 6.1025 0.7979
1 28 15 -2.2382 0.6911
1 28 17 1.4540 -0.4149
1 28 19 4.7161 0.1927
1 28 21 -20.5310 0.4134
1 28 23 -10.6878 -0.3916
1 28 25 1.6102 0.4830
1 28 27 -1.3894 -0.7227
1 29 2 5.8954 -1.3126
1 29 4 -9.9446 -0.5123
1 29 6 -12.8614 0.1426
1 29 8 5.3906 0.1079
1 29 10 -4.5540 -0.2107
1 29 12 3.9554 0.3229
1 29 14 -2.6410 -0.0442
1 29 16 0.8050 -0.0236
1 29 18 2.6257 -0.0153
1 29 20 1.3360 -0.4003
1 29 22 -20.5669 0.3458
1 29 24 15.3344 0.6161
1 29 26 -9.0238 -0.6113
1 29 28 -13.5778 -0.7395
1 30 1 -11.5346 0.0116
1 30 3 12.5056 -0.1605
1 30 5 1.1683 0.6112
1 30 7 -9.1038 0.2477
1 30 9 3.4571 -1.5472
1 30 11 -8.5001 1.1305
1 30 13 5.8398 -0.4519
1 30 15 5.7931 -0.2402
1 30 17 -8.5461 0.4817
1 30 19 12.4811 -0.3500
1 30 21 12.1985 0.5678
1 30 23 2.8935 -0.9763
1 30 25 6.3850 0.1374
1 30 27 -19.7729 0.5072
1 30 29 38.5879 -1.0494
1 31 2 -1.8113 0.6641
1 31 4 1.2429 0.9899
1 31 6 -0.7602 -0.8116
1 31 8 -2.2535 0.6096
1 31 10 6.5598 -0.2044
1 31 12 -10.8669 0.3398
1 31 14 3.8045 -0.7378
1 31 16 -1.1573 0.4032
1 31 18 -2.5714 -0.2625
1 31 20 -8.6060 -0.0828
1 31 22 7.9231 -0.2587
1 31 24 3.6575 0.0147
1 31 26 -9.5276 0.5417
1 31 28 38.1174 0.0989
1 31 30 33.3935 -0.8692
1 32 1 -1.7229 0.0823
1 32 3 -11.5048 -1.3300
1 32 5 3.5871 0.5112
1 32 7 3.1244 -1.0227
1 32 9 -13.4662 0.7714
1 32 11 23.3959 -0.1815
1 32 13 -18.2953 -0.1666
1 32 15 -10.5505 0.1548
1 32 17 -17.7934 -0.0876
1 32 19 -5.8183 0.2317
1 32 21 6.0196 -0.2206
1 32 23 -8.5411 1.1515
1 32 25 -9.0829 -0.8771
1 32 27 18.3802 0.2957
1 32 29 -35.4531 0.2578
1 32 31 -33.0292 -0.8998
1 33 2 -4.7720 -0.4741
1 33 4 4.1807 -0.6171
1 33 6 8.8415 0.0970
1 33 8 8.7234 -0.3535
1 33 10 -21.6487 0.0879
1 33 12 7.9983 -0.0869
1 33 14 1.6771 0.5376
1 33 16 -1.5150 -0.2065
1 33 18 9.0421 0.1701
1 33 20 5.2719 0.1254
1 33 22 0.6271 -0.4560
1 33 24 -3.8818 -0.0150
1 33 26 6.3608 -0.2639
1 33 28 -21.7002 0.2176
1 33 30 -31.7603 0.5686
1 33 32 33.5456 -0.7682
1 34 1 14.8720 -0.1947
1 34 3 -7.3433 1.9994
1 34 5 3.4427 -0.6860
1 34 7 -7.1982 1.5108
1 34 9 14.0127 -0.1308
1 34 11 -3.7344 -0.5008
1 34 13 10.4749 0.6573
1 34 15 -3.0299 -0.5538
1 34 17 -1.5199 -0.0220
1 34 19 4.6368 0.2253
1 34 21 -6.9513 -0.2316
1 34 23 22.9444 -0.1154
1 34 25 -5.8861 0.5800
1 34 27 4.2963 -0.5600
1 34 29 19.0547 0.3179
1 34 31 27.2361 -0.3140
1 34 33 -22.4881 0.0168
1 35 2 0.0495 0.6205
1 35 4 -0.2964 0.0234
1 35 6 -1.6685 0.4671
1 35 8 12.0903 -0.2798
1 35 10 -5.8737 0.2481
1 35 12 3.5728 -0.3416
1 35 14 -7.8149 0.0537
1 35 16 1.0541 0.1129
1 35 18 0.5013 -0.0265
1 35 20 4.6334 -0.2288
1 35 22 -10.3927 0.5746
1 35 24 22.0576 -0.2146
1 35 26 -15.3683 -0.2357
1 35 28 -2.3250 -0.1571
1 35 30 13.3201 -0.0610
1 35 32 -20.6799 0.3827
1 35 34 11.1474 -0.0896
1 36 1 6.9566 0.2249
1 36 3 5.5452 -2.7102
1 36 5 -3.6046 1.0469
1 36 7 3.1926 -2.0004
1 36 9 -9.6190 0.3730
1 36 11 2.2253 0.3067
1 36 13 -17.4529 -0.5241
1 36 15 -10.0443 0.4859
1 36 17 3.7740 -0.3449
1 36 19 -6.9932 -0.1651
1 36 21 5.7051 0.2962
1 36 23 -10.7823 -0.2999
1 36 25 13.4285 0.1369
1 36 27 -11.2393 0.5789
1 36 29 9.4358 -0.5490
1 36 31 8.8576 0.7333
1 36 33 -7.6192 -0.6505
1 36 35 3.8588 -0.1075
1 37 2 -12.4546 -0.0757
1 37 4 11.4242 0.1394
1 37 6 -8.4173 -0.1998
1 37 8 12.8713 0.0985
1 37 10 -11.3441 -0.1852
1 37 12 15.4830 0.1053
1 37 14 -7.0829 -0.0061
1 37 16 14.7012 0.0415
1 37 18 4.0100 -0.0749
1 37 20 -2.7063 0.2775
1 37 22 0.5004 -0.4591
1 37 24 5.5928 0.1028
1 37 26 -8.6749 0.1703
1 37 28 19.2204 0.3369
1 37 30 -9.0496 -0.7667
1 37 32 15.4416 0.3833
1 37 34 -15.5789 0.2924
1 37 36 13.9221 -0.4513
1 38 1 -28.4006 -0.2418
1 38 3 -8.8865 2.6739
1 38 5 9.8561 -1.8644
1 38 7 -11.3414 2.6548
1 38 9 24.6187 -0.8842
1 38 11 -27.3611 0.5326
1 38 13 0.2657 -0.1685
1 38 15 18.8491 -0.1604
1 38 17 -7.4459 0.6345
1 38 19 9.4440 -0.5004
1 38 21 -21.1890 0.4902
1 38 23 4.2200 -0.1409
1 38 25 8.8827 -0.2573
1 38 27 -9.0941 -0.3164
1 38 29 8.9852 0.3419
1 38 31 -18.0939 -0.0818
1 38 33 14.0395 -0.1382
1 38 35 -10.0713 0.4885
1 38 37 10.3304 -0.0710
1 39 2 12.8757 -0.5087
1 39 4 -15.4600 0.4342
1 39 6 24.9485 -0.3331
1 39 8 -23.0133 0.3989
1 39 10 23.1224 -0.4470
1 39 12 -22.8180 0.6954
1 39 14 3.9491 -0.4168
1 39 16 11.8840 -0.1163
1 39 18 -18.5283 0.3487
1 39 20 13.4629 -0.5367
1 39 22 -8.7032 0.3965
1 39 24 4.2060 0.0837
1 39 26 -2.4640 0.0294
1 39 28 -6.4232 -0.4399
1 39 30 -1.1439 0.9366
1 39 32 -11.4559 -0.9432
1 39 34 -0.7571 -0.4031
1 39 36 5.0447 -0.0896
1 40 1 22.2809 0.1215
1 40 3 4.5206 -2.1255
1 40 5 -11.0255 1.9271
1 40 7 18.1933 -2.5192
1 40 9 -29.4455 0.7489
1 40 11 18.8722 -0.6875
1 40 13 12.4913 0.3516
1 40 15 3.3037 -0.2831
1 40 17 4.3669 -0.2317
1 40 19 -15.3923 0.8278
1 40 21 15.9349 -1.0748
1 40 23 -0.9506 0.5253
1 40 25 6.6556 0.1141
1 40 27 -17.3785 -0.1437
1 40 29 12.0284 0.0178
1 40 31 -8.4852 0.0603
1 40 33 -2.1511 0.8411
1 40 35 3.8393 0.4376
1 41 2 -12.2303 0.6775
1 41 4 21.0276 -0.6232
1 41 6 -21.3909 0.7984
1 41 8 17.7818 -0.8436
1 41 10 -25.2693 0.9187
1 41 12 -1.1997 -1.1501
1 41 14 -14.9718 0.9111
1 41 16 5.1828 -0.1872
1 41 18 -2.0976 -0.6836
1 41 20 -18.7092 0.8235
1 41 22 12.2509 -0.4690
1 41 24 -8.3132 -0.1778
1 41 26 -24.7392 0.2228
1 41 28 -31.0616 -0.0404
1 41 30 24.6517 -0.6382
1 41 32 -6.9970 0.3751
1 42 1 -3.5733 0.0289
1 42 3 -22.5273 1.4090
1 42 5 7.9315 -1.6136
1 42 7 -16.1015 1.4960
1 42 9 14.0069 0.2586
1 42 11 -3.3612 -0.0595
1 42 13 20.7935 -0.1951
1 42 15 -18.0378 0.7291
1 42 17 6.1732 -0.1733
1 42 19 1.1196 -0.7196
1 42 21 -25.3000 1.1822
1 42 23 19.0303 -0.4589
1 42 25 12.9143 -0.2446
1 42 27 -42.4559 0.6146
1 42 29 -33.1299 0.0315
1 42 31 27.7405 -0.1260
1 43 2 -11.1541 -0.7701
1 43 4 10.7456 0.2133
1 43 6 -3.8603 -0.3531
1 43 8 8.3042 0.3951
1 43 10 -8.3143 -0.4470
1 43 12 -15.2597 0.6973
1 43 14 20.3396 -0.7671
1 43 16 -12.5548 0.2737
1 43 18 3.1657 0.5298
1 43 20 15.1319 -0.6033
1 43 22 -27.5905 0.3872
1 43 24 4.7145 0.1699
1 43 26 22.3705 -0.4490
1 43 28 -37.8056 0.3482
1 43 30 38.0379 -0.1861
1 44 1 -16.0309 -0.1150
1 44 3 -0.7777 -0.2551
1 44 5 0.6901 0.8804
1 44 7 16.1531 -0.3819
1 44 9 -14.1664 -1.0436
1 44 11 2.0755 0.7440
1 44 13 -11.3510 -0.0020
1 44 15 24.7444 -0.7361
1 44 17 -11.9958 0.4141
1 44 19 -5.2572 0.3920
1 44 21 11.4463 -1.1235
1 44 23 -9.6588 0.1280
1 44 25 -21.4124 0.4649
1 44 27 -30.5444 -0.7686
1 44 29 22.2319 -0.0930
1 45 2 10.5350 0.6645
1 45 4 -3.1744 0.1643
1 45 6 -4.6867 -0.2334
1 45 8 15.1349 0.4513
1 45 10 -9.1847 -0.5469
1 45 12 -22.1338 0.3404
1 45 14 -27.3843 -0.1531
1 45 16 28.0357 -0.2509
1 45 18 -16.4911 -0.0293
1 45 20 2.0916 0.2223
1 45 22 -4.3756 0.1560
1 45 24 9.2145 -0.2324
1 45 26 15.4653 0.4423
1 45 28 -17.8564 0.0108
1 46 1 20.4316 0.1111
1 46 3 -13.5890 -0.5297
1 46 5 1.1425 -0.3269
1 46 7 17.3140 -0.2220
1 46 9 -18.5844 0.9746
1 46 11 19.3682 -0.8748
1 46 13 11.3884 0.1705
1 46 15 -28.6030 0.7219
1 46 17 29.1984 -0.3425
1 46 19 -4.4197 -0.3023
1 46 21 5.4445 0.6825
1 46 23 -8.0868 0.1373
1 46 25 -6.7839 -0.4904
1 47 2 -21.1020 -0.7363
1 47 4 11.6981 -0.0961
1 47 6 3.4293 0.1901
1 47 8 9.9908 -0.6725
1 47 10 -12.6522 0.9014
1 47 12 -2.0737 -0.7357
1 47 14 11.1420 0.5386
1 47 16 -13.3026 0.0223
1 47 18 13.1310 -0.1572
1 47 20 1.7284 0.2374
1 47 22 4.8287 -0.6693
1 47 24 -12.5014 0.0465
1 48 1 -30.6414 -0.0488
1 48 3 9.5959 0.9425
1 48 5 5.6619 -0.0091
1 48 7 -11.0068 0.5887
1 48 9 19.1124 -0.3575
1 48 11 -16.5176 0.2856
1 48 13 -10.6197 0.1969
1 48 15 20.8147 -0.6173
1 48 17 20.9718 0.0700
1 48 19 13.5559 0.0600
1 48 21 -15.4360 -0.1927
1 49 2 -21.1243 0.8723
1 49 4 20.6230 -0.0975
1 49 6 12.9491 -0.1459
1 49 8 -20.7650 0.3281
1 49 10 18.8929 -0.2324
1 49 12 -3.1474 0.2022
1 49 14 -13.9215 -0.5362
1 49 16 17.8094 0.2691
1 49 18 0.4942 0.4526
1 49 20 13.4950 -0.2776
1 50 1 12.8767 -0.1334
1 50 3 2.0475 -1.1614
1 50 5 -0.0284 0.5163
1 50 7 16.6675 -0.6655
1 50 9 -13.1622 -0.4333
1 50 11 12.0976 0.1471
1 50 13 -4.7391 -0.2145
1 50 15 -5.7663 0.5568
1 50 17 6.8240 -0.3516
1 51 2 17.7664 -0.3649
1 51 4 -10.7567 -0.0984
1 51 6 8.5688 -0.0493
1 51 8 1.3814 0.0986
1 51 10 -3.4465 -0.3333
1 51 12 1.9246 0.4401
1 51 14 -6.7810 -0.3451
1 52 1 4.8878 0.2742
1 52 3 -4.6963 0.4417
1 52 5 16.0557 -0.2228
1 52 7 -16.8416 0.8384
1 52 9 13.5744 0.4814
1 52 11 -10.5682 -0.1703
1 53 2 -18.4493 0.4446
1 53 4 9.7287 0.2731
2 3 3 -164.3673 0.0494
2 4 2 -314.0936 0.2024
2 4 4 208.3779 -1.2641
2 5 3 -17.3976 -1.4113
2 5 5 -130.8176 -1.2495
2 6 2 -55.0064 0.0702
2 6 4 24.8902 2.2082
2 6 6 225.5368 -0.8600
2 7 3 92.6824 0.5121
2 7 5 -19.2615 0.5081
2 7 7 -108.0273 -2.1125
2 8 2 240.1388 0.0925
2 8 4 -8.8188 -0.5754
2 8 6 164.8030 1.3273
2 8 8 -144.7276 0.5947
2 9 3 20.5110 0.1044
2 9 5 -106.4359 -1.7155
2 9 7 -155.5494 -0.6055
2 9 9 161.6265 -2.0536
2 10 2 -237.9390 0.0747
2 10 4 -188.1525 -0.2649
2 10 6 244.0043 0.8938
2 10 8 68.5450 -0.2525
2 10 10 155.0737 0.8954
2 11 3 54.4732 -0.3346
2 11 5 19.2722 0.4498
2 11 7 6.4640 0.2960
2 11 9 7.1869 -0.6753
2 11 11 -66.2587 -0.3565
2 12 2 81.8327 1.7021
2 12 4 -66.7657 -0.9525
2 12 6 145.1861 1.7798
2 12 8 -38.8122 -0.4081
2 12 10 -89.0811 -1.1415
2 12 12 122.7069 5.2501
2 13 3 -46.1993 -0.3532
2 13 5 6.3518 -1.0887
2 13 7 6.1542 0.0334
2 13 9 36.0183 0.3322
2 13 11 34.7782 -0.1553
2 13 13 -10.5043 2.3034
2 14 2 -67.0950 -2.3919
2 14 4 43.1524 2.2178
2 14 6 -71.2333 -2.3986
2 14 8 29.3825 1.8801
2 14 10 -70.0905 -0.5825
2 14 12 4.9776 -1.7724
2 14 14 -0.9484 6.0050
2 15 3 24.0015 -0.0534
2 15 5 11.8161 0.7122
2 15 7 9.0021 -0.0526
2 15 9 -20.7670 -0.7090
2 15 11 50.6533 0.7763
2 15 13 13.4984 -2.1099
2 15 15 11.1520 4.6786
2 16 2 -106.8365 2.3606
2 16 4 17.3695 -1.8460
2 16 6 -6.4543 1.6960
2 16 8 21.9525 -1.7556
2 16 10 28.0596 1.3929
2 16 12 -9.2156 -1.4362
2 16 14 -16.4480 -0.6276
2 16 16 -12.9787 4.5539
2 17 3 -45.7412 -0.2901
2 17 5 -0.7029 -0.4305
2 17 7 -31.8789 0.2325
2 17 9 2.4522 -0.0370
2 17 11 -5.5710 0.1892
2 17 13 -6.1532 -0.2790
2 17 15 -29.5218 -1.6462
2 17 17 19.4521 4.9148
2 18 2 120.6343 -0.4695
2 18 4 -55.9428 1.3673
2 18 6 19.4932 -0.5702
2 18 8 -8.5035 1.0566
2 18 10 4.7495 -0.5060
2 18 12 1.4375 1.9867
2 18 14 16.4513 -1.7013
2 18 16 -7.1678 -0.3053
2 18 18 -7.7032 1.8597
2 19 3 -44.2442 -0.5439
2 19 5 21.4422 0.5924
2 19 7 -2.7744 -0.6132
2 19 9 3.2392 0.3184
2 19 11 -12.1804 -0.8265
2 19 13 20.8319 1.6063
2 19 15 -0.9487 -0.4262
2 19 17 5.2346 -2.1108
2 19 19 -20.1774 3.2018
2 20 2 26.1011 -0.6733
2 20 4 -34.5213 -0.1751
2 20 6 -12.9410 -1.3003
2 20 8 -1.0839 0.6401
2 20 10 9.0028 -0.8946
2 20 12 -18.9870 -0.6847
2 20 14 10.7234 1.0324
2 20 16 -0.3963 -0.5054
2 20 18 1.1996 -0.6624
2 20 20 -2.3914 0.0136
2 21 3 15.5926 0.1889
2 21 5 6.6807 0.3150
2 21 7 -18.8707 -0.2066
2 21 9 -0.4404 0.1336
2 21 11 1.3676 0.4363
2 21 13 -12.2551 -1.5970
2 21 15 -5.4318 1.3364
2 21 17 -5.7315 0.0487
2 21 19 -0.7058 -1.4408
2 21 21 12.4807 0.5804
2 22 2 -43.0118 1.2632
2 22 4 29.3024 -0.4010
2 22 6 1.7170 2.2839
2 22 8 0.8497 -1.5152
2 22 10 -5.8119 1.4857
2 22 12 2.0454 -0.1185
2 22 14 -9.2217 -0.2365
2 22 16 -2.3318 0.5501
2 22 18 4.0026 0.7137
2 22 20 -3.3669 -0.8171
2 22 22 9.1453 -1.2307
2 23 3 2.4520 0.2536
2 23 5 2.0206 -0.6094
2 23 7 -2.2474 0.3183
2 23 9 -5.1360 0.3415
2 23 11 13.5445 -0.4307
2 23 13 -1.2505 0.8538
2 23 15 1.3442 -0.9056
2 23 17 -7.2610 -0.2459
2 23 19 1.4538 1.5913
2 23 21 -1.2051 -1.3519
2 23 23 -4.8132 -0.5237
2 24 2 4.9721 -0.8014
2 24 4 14.0854 0.1805
2 24 6 -17.2682 -2.3090
2 24 8 18.1382 1.2602
2 24 10 -0.7969 -1.3240
2 24 12 26.1185 0.2633
2 24 14 -3.0684 0.2311
2 24 16 7.5459 -0.1371
2 24 18 7.8485 -0.6853
2 24 20 -1.4613 1.2295
2 24 22 -3.4607 -0.9334
2 24 24 0.8392 -0.5209
2 25 3 6.9868 -0.8456
2 25 5 -2.8929 0.9627
2 25 7 5.0606 -0.3076
2 25 9 7.9850 -0.3162
2 25 11 1.8529 0.0545
2 25 13 2.4048 0.1793
2 25 15 2.8472 -0.5128
2 25 17 5.8949 0.1755
2 25 19 -0.8842 -1.1122
2 25 21 -1.6359 1.2555
2 25 23 12.9483 -0.5067
2 25 25 -0.7436 0.5914
2 26 2 9.9646 0.5498
2 26 4 -23.5648 0.0240
2 26 6 0.4322 1.6035
2 26 8 -4.6995 -0.5745
2 26 10 7.5387 0.3865
2 26 12 -4.3163 0.1841
2 26 14 4.3254 -0.3733
2 26 16 -6.2319 0.4747
2 26 18 4.8395 0.6767
2 26 20 2.6683 -0.7847
2 26 22 -5.4263 1.0965
2 26 24 10.9975 -0.9878
2 26 26 11.0987 0.7960
2 27 3 -6.1166 0.6780
2 27 5 -4.7337 -1.3487
2 27 7 -3.0932 0.6334
2 27 9 9.4245 0.2638
2 27 11 2.3823 0.2952
2 27 13 2.7774 -0.4474
2 27 15 -4.7555 0.6005
2 27 17 4.9806 -0.0047
2 27 19 0.8916 -0.1998
2 27 21 3.1794 -0.4510
2 27 23 -4.9566 0.8334
2 27 25 -0.8406 -0.7685
2 27 27 3.3563 2.9362
2 28 2 3.4893 -0.2579
2 28 4 -16.3730 0.2851
2 28 6 23.3299 -0.7500
2 28 8 -8.7501 -0.0394
2 28 10 0.8788 -0.1508
2 28 12 -9.6292 -0.5493
2 28 14 1.1677 0.5253
2 28 16 1.9647 -0.3603
2 28 18 -0.5098 -0.1877
2 28 20 3.4468 0.3693
2 28 22 3.8770 -0.1499
2 28 24 -0.1193 -0.2267
2 28 26 -3.1741 -0.8981
2 28 28 -6.6469 2.1678
2 29 3 -3.0102 -0.3005
2 29 5 3.2006 1.0526
2 29 7 -4.4330 -0.5794
2 29 9 6.2250 -0.2427
2 29 11 8.1152 0.2428
2 29 13 1.0944 -0.0014
2 29 15 0.1571 -0.3449
2 29 17 6.2565 -0.0786
2 29 19 -4.8371 0.0567
2 29 21 3.8119 -0.0726
2 29 23 -0.3479 -0.4505
2 29 25 3.2006 0.4628
2 29 27 4.3816 -0.8642
2 29 29 -3.4671 4.3381
2 30 2 -5.5302 0.1939
2 30 4 7.0607 -0.6422
2 30 6 -2.5881 0.4741
2 30 8 7.3280 -0.0613
2 30 10 0.5289 0.1227
2 30 12 17.9712 0.3903
2 30 14 -1.2842 -0.3949
2 30 16 -7.3495 0.0573
2 30 18 4.7179 0.3146
2 30 20 -1.3912 0.0879
2 30 22 3.2466 -0.1612
2 30 24 -4.6874 0.8365
2 30 26 9.4027 -0.5495
2 30 28 6.9196 -0.9877
2 30 30 -9.8133 2.5339
2 31 3 -0.5767 0.1509
2 31 5 3.4716 -1.2591
2 31 7 8.5274 0.7710
2 31 9 -10.2114 -0.1955
2 31 11 7.4481 -0.0472
2 31 13 -4.4669 0.1642
2 31 15 -0.1249 -0.0522
2 31 17 -8.3215 0.5324
2 31 19 10.9704 -0.4864
2 31 21 -4.0704 0.0976
2 31 23 -7.2782 0.0322
2 31 25 -3.1638 0.2265
2 31 27 0.6390 -0.3277
2 31 29 5.7085 -1.0628
2 31 31 -4.5098 3.9220
2 32 2 -5.4538 0.1468
2 32 4 6.9862 0.5383
2 32 6 0.9565 0.2213
2 32 8 17.2343 0.0949
2 32 10 -2.4699 -0.2669
2 32 12 -5.0843 0.1270
2 32 14 -5.0949 0.0281
2 32 16 25.8781 0.0881
2 32 18 -13.3695 -0.2370
2 32 20 9.6166 0.0167
2 32 22 -0.2112 0.3041
2 32 24 1.3382 -0.6864
2 32 26 -0.7531 0.8171
2 32 28 -5.6911 -0.3759
2 32 30 9.8389 -1.1044
2 32 32 -16.8449 1.8902
2 33 3 -2.5130 -0.1821
2 33 5 3.4785 1.2479
2 33 7 14.4426 -0.5780
2 33 9 5.6336 0.5600
2 33 11 13.9805 -0.4524
2 33 13 -7.8838 -0.0927
2 33 15 7.1476 0.1687
2 33 17 2.2430 -0.6562
2 33 19 -3.8531 0.5026
2 33 21 -9.3409 -0.1396
2 33 23 4.9112 -0.2117
2 33 25 -0.2607 -0.3134
2 33 27 -3.3753 0.7152
2 33 29 -2.4140 -0.5131
2 33 31 5.5460 -0.5660
2 33 33 -10.2539 2.3933
2 34 2 -9.1661 -0.6049
2 34 4 3.2013 -0.2406
2 34 6 -0.7116 -1.0231
2 34 8 2.2165 -0.1200
2 34 10 17.5480 0.1153
2 34 12 -12.1563 -0.2266
2 34 14 -16.3636 0.4461
2 34 16 32.0209 -0.2330
2 34 18 -20.5101 0.0721
2 34 20 16.5394 -0.0103
2 34 22 -7.2049 0.1869
2 34 24 -3.4569 0.1255
2 34 26 3.2934 0.0286
2 34 28 -5.0214 0.2998
2 34 30 8.9983 0.0441
2 34 32 3.4698 -1.0390
2 34 34 0.3046 0.7321
2 35 3 12.6380 0.4417
2 35 5 4.0368 -0.9514
2 35 7 5.2205 0.2822
2 35 9 0.6107 -0.3715
2 35 11 -11.1426 0.6429
2 35 13 -3.0816 -0.4598
2 35 15 -6.0108 0.0950
2 35 17 3.5383 0.2453
2 35 19 -5.5598 -0.2495
2 35 21 -3.0040 -0.0502
2 35 23 6.2900 -0.0145
2 35 25 -5.2587 0.1278
2 35 27 11.6947 -0.6905
2 35 29 -8.7513 1.0117
2 35 31 -3.1160 -0.2821
2 35 33 -3.7455 -0.7108
2 35 35 -2.5911 0.7465
2 36 2 4.2813 0.8381
2 36 4 -4.0949 0.0855
2 36 6 0.0274 1.3089
2 36 8 -10.1511 -0.2962
2 36 10 -13.5568 0.4161
2 36 12 -7.8957 0.0730
2 36 14 -6.2377 -0.4670
2 36 16 -1.5058 0.5731
2 36 18 -5.8665 0.0478
2 36 20 1.2799 -0.0157
2 36 22 -10.6918 -0.2813
2 36 24 3.0216 0.3784
2 36 26 -7.2151 -0.3668
2 36 28 20.7413 -0.0135
2 36 30 -8.2989 0.1778
2 36 32 -1.0978 0.4056
2 36 34 -5.7303 -0.8298
2 36 36 -5.3045 -0.2850
2 37 3 -24.2327 -0.3503
2 37 5 -6.7375 0.5702
2 37 7 -1.6845 0.0045
2 37 9 3.0720 0.4910
2 37 11 1.5954 -0.6615
2 37 13 10.3110 0.6002
2 37 15 -3.3572 -0.4292
2 37 17 4.9295 -0.2391
2 37 19 1.6312 0.2474
2 37 21 3.7948 0.0788
2 37 23 -14.1195 -0.0354
2 37 25 -0.4487 0.0694
2 37 27 -6.3139 -0.0077
2 37 29 17.5911 -0.4427
2 37 31 -4.8179 -0.2281
2 37 33 12.9709 0.8240
2 37 35 13.6445 -0.6448
2 37 37 -1.7401 -0.1621
2 38 2 7.6695 -0.5566
2 38 4 -2.4281 0.0730
2 38 6 -6.6384 -1.3743
2 38 8 2.7792 0.5294
2 38 10 -0.0915 -1.1080
2 38 12 -5.3182 0.1937
2 38 14 1.4826 0.4751
2 38 16 -0.4157 -0.4117
2 38 18 -3.4451 -0.1514
2 38 20 -0.1293 0.1529
2 38 22 -1.2295 0.1501
2 38 24 -2.0602 -0.3235
2 38 26 -2.5495 0.4662
2 38 28 1.0611 -0.0877
2 38 30 -10.1103 0.1273
2 38 32 26.5134 -0.2309
2 38 34 -2.0127 0.4240
2 38 36 -5.1868 -0.0171
2 39 3 -4.2291 -0.1923
2 39 5 1.9700 -0.1251
2 39 7 0.2603 -0.1002
2 39 9 -1.5551 -0.3228
2 39 11 4.9560 0.3309
2 39 13 -3.0270 -0.2993
2 39 15 1.3882 0.2600
2 39 17 -7.2300 -0.0714
2 39 19 1.1840 -0.0359
2 39 21 -12.2762 -0.2946
2 39 23 -14.1173 0.1857
2 39 25 3.4872 -0.4501
2 39 27 -7.7728 0.4654
2 39 29 3.2266 -0.2245
2 39 31 -5.9370 0.1986
2 39 33 1.4129 -0.0539
2 39 35 -0.0385 0.1761
2 40 2 -1.0206 0.1634
2 40 4 6.5795 0.1585
2 40 6 -4.9928 0.7929
2 40 8 -6.5709 -0.2907
2 40 10 13.9596 1.0164
2 40 12 -6.6232 -0.1149
2 40 14 -3.9517 -0.4448
2 40 16 0.6707 0.4074
2 40 18 4.6157 0.3414
2 40 20 4.6392 -0.2157
2 40 22 -14.1354 -0.0443
2 40 24 0.1990 0.5172
2 40 26 2.5369 -0.4507
2 40 28 15.4270 0.1496
2 40 30 2.3463 0.1835
2 40 32 4.6616 -0.4870
2 40 34 1.0461 0.3555
2 41 3 -2.6796 0.2579
2 41 5 -2.1040 -0.0817
2 41 7 13.5567 -0.0009
2 41 9 2.2447 0.3412
2 41 11 -8.4277 0.0653
2 41 13 -5.3113 0.0259
2 41 15 7.8912 -0.1370
2 41 17 -6.2551 0.1372
2 41 19 0.2514 -0.1545
2 41 21 7.6358 0.1303
2 41 23 1.3665 -0.0846
2 41 25 -8.9697 0.2767
2 41 27 -11.4552 -0.4285
2 41 29 5.4864 -0.0102
2 41 31 -1.4302 0.5558
2 41 33 -1.4240 -1.1443
2 42 2 4.1684 0.2095
2 42 4 -2.0625 -0.2224
2 42 6 -15.2736 -0.1766
2 42 8 7.7344 -0.0892
2 42 10 4.1093 -0.7281
2 42 12 -3.9738 -0.2063
2 42 14 -26.1935 0.3876
2 42 16 17.6929 -0.2759
2 42 18 -4.1586 -0.2311
2 42 20 -2.2230 0.3361
2 42 22 4.5814 -0.0094
2 42 24 -1.0140 -0.6003
2 42 26 -18.1369 0.3779
2 42 28 -11.5242 0.3892
2 42 30 9.1706 -0.9315
2 42 32 -10.9784 1.4344
2 43 3 5.2191 -0.2575
2 43 5 -3.9568 0.3935
2 43 7 -4.3899 -0.0197
2 43 9 11.5561 -0.2288
2 43 11 2.8368 -0.1193
2 43 13 -2.7705 0.0924
2 43 15 -6.5079 0.0497
2 43 17 17.4770 -0.2958
2 43 19 -4.4131 0.1277
2 43 21 -6.1110 -0.0363
2 43 23 -19.6748 -0.0404
2 43 25 -4.9027 0.1382
2 43 27 2.8617 -0.5179
2 43 29 -2.1534 0.8943
2 43 31 3.0960 -2.0372
2 44 2 -1.1994 -0.4201
2 44 4 1.0017 0.0978
2 44 6 -1.6160 -0.3387
2 44 8 4.8907 0.4253
2 44 10 -4.3124 0.1816
2 44 12 1.1801 0.3367
2 44 14 -10.0243 -0.2387
2 44 16 12.7605 0.0735
2 44 18 18.0820 0.2913
2 44 20 4.1859 -0.2477
2 44 22 -19.2631 0.0493
2 44 24 -1.6891 0.6027
2 44 26 32.6448 -0.2792
2 44 28 11.3072 -0.2780
2 45 3 -9.3605 0.1353
2 45 5 5.2166 -0.5534
2 45 7 -1.2622 0.0605
2 45 9 -1.8864 0.0450
2 45 11 -16.0669 0.1846
2 45 13 -2.2236 0.0441
2 45 15 -0.1899 -0.0181
2 45 17 -0.9552 0.4683
2 45 19 8.9711 -0.3891
2 45 21 5.3196 0.0502
2 45 23 -3.5737 -0.0373
2 45 25 15.7637 -0.2791
2 45 27 4.9149 0.9919
2 46 2 -13.9220 0.5134
2 46 4 -3.4544 -0.0117
2 46 6 -5.9206 0.5551
2 46 8 9.3180 -0.3774
2 46 10 -6.0985 0.2001
2 46 12 2.7325 -0.3531
2 46 14 4.8781 -0.0898
2 46 16 -10.3496 0.0976
2 46 18 -33.2362 -0.3795
2 46 20 -3.1995 0.2512
2 46 22 9.3865 0.1453
2 46 24 5.3132 -0.8576
2 46 26 15.3070 0.5342
2 47 3 8.4627 -0.1311
2 47 5 -3.3745 0.8079
2 47 7 -0.8137 -0.1301
2 47 9 -0.7521 -0.0072
2 47 11 8.1767 -0.1055
2 47 13 17.4767 -0.1948
2 47 15 -8.3734 0.1509
2 47 17 5.1031 -0.4180
2 47 19 -3.9658 0.4919
2 47 21 -2.1495 -0.3217
2 47 23 -0.4195 0.4451
2 48 2 -0.4515 -0.6421
2 48 4 6.9142 -0.1391
2 48 6 -9.9074 -0.5126
2 48 8 -13.0017 -0.1045
2 48 10 2.8915 -0.0614
2 48 12 4.1376 0.0625
2 48 14 0.1876 0.3658
2 48 16 5.0375 -0.4131
2 48 18 -1.1822 0.5099
2 48 20 -0.2646 -0.2112
2 48 22 -13.0842 -0.3023
2 49 3 -4.1668 0.3080
2 49 5 1.6591 -0.8947
2 49 7 6.0491 0.4255
2 49 9 -14.5114 -0.2133
2 49 11 -0.3413 0.0462
2 49 13 15.2343 0.1202
2 49 15 6.7006 -0.0090
2 49 17 20.7532 0.1550
2 49 19 5.9490 -0.3380
2 50 2 -14.4375 0.5032
2 50 4 0.7749 0.0736
2 50 6 -4.7858 0.2433
2 50 8 11.4704 0.4803
2 50 10 4.6476 0.0072
2 50 12 -0.1284 0.3103
2 50 14 10.9427 -0.5010
2 50 16 -5.5616 0.6997
2 50 18 -8.1230 -0.8041
2 51 3 -8.5808 0.0020
2 51 5 1.3013 0.8830
2 51 7 -5.6481 -0.7469
2 51 9 5.5504 0.7505
2 51 11 1.2181 -0.4175
2 51 13 2.3253 0.2173
2 51 15 -3.6538 -0.4849
2 52 2 -12.9651 -0.0557
2 52 4 6.9288 -0.2044
2 52 6 -6.0026 -0.0493
2 52 8 10.2944 -0.5603
2 52 10 -1.3482 -0.3433
2 53 3 -5.5388 0.2726
3 4 3 -29.3921 1.0007
3 5 4 2.7252 0.0247
3 6 3 34.7330 -0.6966
3 6 5 6.2902 -1.6364
3 7 4 -50.3074 1.2241
3 7 6 4.7499 -1.9322
3 8 3 25.8903 0.3012
3 8 5 -57.4875 1.4565
3 8 7 93.0756 0.6764
3 9 4 31.0820 -1.1051
3 9 6 -13.3531 1.7032
3 9 8 25.6779 0.6418
3 10 3 -22.1524 -0.2883
3 10 5 -94.4619 -1.2742
3 10 7 29.9910 1.0849
3 10 9 -69.7006 1.8980
3 11 4 135.0282 3.2878
3 11 6 -85.3003 -2.0642
3 11 8 33.5101 -1.5569
3 11 10 15.6149 2.6751
3 12 3 83.8319 -0.3189
3 12 5 -67.9825 0.0268
3 12 7 25.5441 -2.0147
3 12 9 -36.7862 1.8237
3 12 11 -34.2119 -0.6375
3 13 4 57.9556 -1.7491
3 13 6 -0.9763 1.7991
3 13 8 -22.3897 0.8651
3 13 10 -20.9525 -2.1271
3 13 12 7.8654 0.8046
3 14 3 9.5797 -0.0654
3 14 5 43.0842 -0.2740
3 14 7 -5.5025 0.9128
3 14 9 57.1839 -1.3508
3 14 11 -7.9996 0.3785
3 14 13 -9.3970 -0.9161
3 15 4 -52.6801 2.2026
3 15 6 28.8096 -0.6279
3 15 8 -29.8472 0.0311
3 15 10 -97.0814 1.0446
3 15 12 -9.3303 0.0134
3 15 14 7.0856 -0.4492
3 16 3 17.9884 1.0197
3 16 5 -54.4327 -1.3380
3 16 7 -20.9463 -0.4276
3 16 9 22.3955 0.6832
3 16 11 20.5104 0.1556
3 16 13 30.3213 0.5615
3 16 15 3.6669 -1.4908
3 17 4 16.8025 -2.2075
3 17 6 -19.5645 1.3603
3 17 8 13.2380 -0.5731
3 17 10 -17.5349 -0.0716
3 17 12 17.0896 0.2519
3 17 14 -6.2553 0.0438
3 17 16 -14.4925 0.5148
3 18 3 13.5139 -1.3979
3 18 5 -9.8397 1.6872
3 18 7 1.3540 -1.3971
3 18 9 33.6014 0.1194
3 18 11 -15.9551 -1.5703
3 18 13 -28.8103 0.7676
3 18 15 10.8616 0.0412
3 18 17 11.0477 -0.6321
3 19 4 -2.5519 1.2886
3 19 6 19.8162 -0.2173
3 19 8 -9.6215 1.0266
3 19 10 6.3703 0.3065
3 19 12 23.5119 -0.5949
3 19 14 -5.8819 0.6984
3 19 16 3.6492 -1.1116
3 19 18 -11.2494 1.3155
3 20 3 -0.0314 1.8163
3 20 5 23.2070 -1.9700
3 20 7 4.9304 1.9590
3 20 9 -20.4545 -1.6586
3 20 11 10.7142 1.3908
3 20 13 -0.1683 -0.6856
3 20 15 -4.5494 -0.3822
3 20 17 -14.0026 1.9342
3 20 19 1.2953 -0.8105
3 21 4 -6.9860 -0.3219
3 21 6 0.0086 -1.0774
3 21 8 1.4789 0.7483
3 21 10 -21.9223 0.3873
3 21 12 -4.9295 0.5200
3 21 14 17.6386 -0.2330
3 21 16 -4.1983 0.9915
3 21 18 -23.2094 -1.1956
3 21 20 -7.5484 0.6312
3 22 3 -20.6301 -1.7896
3 22 5 6.0415 1.3853
3 22 7 -24.0456 -1.1578
3 22 9 -4.3361 -0.4251
3 22 11 10.8039 -0.6480
3 22 13 11.9210 -0.1828
3 22 15 -5.4418 -0.1780
3 22 17 9.4114 -1.4820
3 22 19 -5.4771 1.5835
3 22 21 -1.5792 0.4351
3 23 4 7.6592 -0.7619
3 23 6 -8.4303 1.4365
3 23 8 28.3552 -1.0785
3 23 10 30.8797 0.1668
3 23 12 -6.9632 0.5558
3 23 14 4.0793 -0.2575
3 23 16 -7.5496 0.2616
3 23 18 -0.0586 0.0380
3 23 20 -19.7090 -0.3487
3 23 22 2.6000 0.5858
3 24 3 -15.5187 1.7183
3 24 5 4.5102 -0.2424
3 24 7 5.8907 0.5093
3 24 9 -2.3443 0.4999
3 24 11 -7.2033 -0.0873
3 24 13 -13.8026 -0.1452
3 24 15 -11.2015 -0.0282
3 24 17 6.9144 0.5650
3 24 19 -2.8198 -1.0728
3 24 21 -0.0287 0.8422
3 24 23 4.2805 0.5463
3 25 4 1.1314 1.2331
3 25 6 -5.6603 -1.3431
3 25 8 -24.0675 0.8164
3 25 10 -8.4640 0.7399
3 25 12 -1.2557 -1.0327
3 25 14 -1.4285 1.2891
3 25 16 9.3400 -0.4633
3 25 18 -7.9678 0.9657
3 25 20 2.5779 -0.4864
3 25 22 8.9012 0.0303
3 25 24 -1.2558 0.3109
3 26 3 -3.7905 -1.1449
3 26 5 6.1207 -0.3238
3 26 7 10.4407 -0.3826
3 26 9 -3.1601 0.0023
3 26 11 1.9606 -0.5948
3 26 13 7.5001 0.0614
3 26 15 2.0049 -0.1862
3 26 17 -4.3947 -0.5885
3 26 19 9.9917 0.0696
3 26 21 -0.7747 -0.2837
3 26 23 -5.7377 0.0559
3 26 25 2.8125 0.5513
3 27 4 1.7101 -1.2340
3 27 6 -19.9138 1.1047
3 27 8 4.5964 -0.4752
3 27 10 -7.1975 -1.0810
3 27 12 6.5674 1.3538
3 27 14 -0.4377 -0.8584
3 27 16 -2.8274 0.4748
3 27 18 3.0629 -0.5187
3 27 20 -7.8906 0.6291
3 27 22 6.9761 -0.5946
3 27 24 9.1594 0.1220
3 27 26 -16.2708 0.1920
3 28 3 4.9065 0.3531
3 28 5 -2.8455 0.0545
3 28 7 -4.2859 0.3296
3 28 9 -6.1464 -0.2472
3 28 11 12.5450 0.8473
3 28 13 -7.0190 -0.5766
3 28 15 9.6151 0.0818
3 28 17 -4.0576 0.1725
3 28 19 1.6367 0.1229
3 28 21 -2.0564 -0.0207
3 28 23 5.0461 0.0347
3 28 25 8.5906 0.1718
3 28 27 2.6018 -0.4816
3 29 4 -0.6849 1.8789
3 29 6 -11.1818 -1.0187
3 29 8 -5.3985 0.3408
3 29 10 1.3164 0.6953
3 29 12 1.3022 -0.6569
3 29 14 4.2390 0.5300
3 29 16 -1.1908 -0.0828
3 29 18 -6.2449 0.2967
3 29 20 8.7495 -0.0378
3 29 22 -9.1417 0.1342
3 29 24 -16.6186 0.0629
3 29 26 6.6666 0.2063
3 29 28 -16.7328 -0.5116
3 30 3 -0.2772 0.2572
3 30 5 -6.9067 -0.0732
3 30 7 9.1839 -0.3774
3 30 9 5.1994 0.7638
3 30 11 3.3963 -0.8659
3 30 13 3.5018 0.3134
3 30 15 -12.5149 0.0302
3 30 17 8.3811 -0.4156
3 30 19 -19.6058 0.1206
3 30 21 4.7055 -0.5489
3 30 23 19.8991 0.3685
3 30 25 5.8052 -0.1528
3 30 27 5.8103 0.0680
3 30 29 22.6503 -0.2636
3 31 4 -2.8230 -1.5963
3 31 6 -0.6584 1.3087
3 31 8 -0.4366 -0.6956
3 31 10 1.5098 -0.2634
3 31 12 -4.2628 0.0407
3 31 14 5.7041 0.0981
3 31 16 1.6725 -0.0292
3 31 18 0.8281 -0.2567
3 31 20 -4.9666 0.4203
3 31 22 -16.8165 -0.0902
3 31 24 8.4400 -0.4942
3 31 26 -8.5171 0.1427
3 31 28 -26.0579 0.3256
3 31 30 -23.6232 -0.2839
3 32 3 -3.8690 -0.8773
3 32 5 5.7762 0.1534
3 32 7 10.3190 -0.5260
3 32 9 0.5332 0.2202
3 32 11 -4.1141 -0.1059
3 32 13 0.9213 0.3358
3 32 15 12.9636 -0.3427
3 32 17 23.0400 0.2072
3 32 19 -6.1858 -0.0740
3 32 21 0.2267 0.0058
3 32 23 25.2244 0.0388
3 32 25 -18.2620 -0.0449
3 32 27 -7.1809 0.2445
3 32 29 35.0089 0.1312
3 32 31 25.6165 -0.1262
3 33 4 -8.5967 1.0937
3 33 6 16.6372 -0.9882
3 33 8 -11.3465 0.3556
3 33 10 7.6850 0.2190
3 33 12 5.1750 -0.1863
3 33 14 -8.6473 0.1261
3 33 16 0.3746 -0.1329
3 33 18 -1.5438 0.3175
3 33 20 5.5071 -0.3185
3 33 22 -19.9289 0.2628
3 33 24 13.2577 0.5208
3 33 26 -8.2641 -0.4820
3 33 28 -11.1044 0.2969
3 33 30 17.1622 -0.2010
3 33 32 -15.4514 0.0834
3 34 3 11.3135 1.2246
3 34 5 -0.5038 -0.6577
3 34 7 -5.4088 1.3837
3 34 9 4.1634 -0.8979
3 34 11 -2.2390 0.9546
3 34 13 -1.9073 -0.8386
3 34 15 7.8954 0.4655
3 34 17 1.7063 0.2780
3 34 19 -2.2357 -0.4995
3 34 21 -2.3092 0.5380
3 34 23 -5.3626 -0.7145
3 34 25 7.7610 0.0956
3 34 27 -3.7371 -0.1999
3 34 29 10.0791 -0.1633
3 34 31 -11.6357 0.3582
3 34 33 2.6761 0.1922
3 35 4 8.4657 -0.3831
3 35 6 14.8789 0.4714
3 35 8 4.8251 0.5669
3 35 10 -6.5279 -0.8052
3 35 12 3.8434 0.8002
3 35 14 -1.5059 -0.5087
3 35 16 3.0360 -0.0761
3 35 18 7.9288 0.0101
3 35 20 0.0843 0.0431
3 35 22 4.5046 -0.0441
3 35 24 -10.8885 -0.1013
3 35 26 -0.5923 0.4896
3 35 28 0.8417 -0.3969
3 35 30 13.9773 0.1025
3 35 32 -21.8107 -0.0038
3 35 34 -0.7330 0.6293
3 36 3 -11.7217 -1.1679
3 36 5 -0.6241 0.8002
3 36 7 8.2093 -1.3797
3 36 9 -1.6111 0.2861
3 36 11 -4.9080 -0.7064
3 36 13 7.0802 0.6446
3 36 15 17.2593 -0.4324
3 36 17 -7.4610 -0.1001
3 36 19 -0.3842 0.3960
3 36 21 1.6509 -0.6409
3 36 23 -0.5949 0.9399
3 36 25 -27.0912 -0.5764
3 36 27 12.3724 0.1424
3 36 29 19.2196 0.1563
3 36 31 4.3432 -0.3654
3 36 33 10.9210 0.0689
3 36 35 -7.8547 1.1410
3 37 4 3.8682 -0.4073
3 37 6 -2.3601 -0.0035
3 37 8 3.9285 -1.0504
3 37 10 1.5065 1.0511
3 37 12 -9.9898 -0.8666
3 37 14 8.6164 0.4415
3 37 16 10.8407 0.2094
3 37 18 3.2688 -0.2457
3 37 20 -9.5742 0.1107
3 37 22 5.8286 -0.2652
3 37 24 -3.8720 0.1994
3 37 26 -2.7252 -0.2808
3 37 28 -0.2926 0.2465
3 37 30 5.1375 0.3750
3 37 32 -1.7159 -0.4359
3 37 34 6.4092 -0.1677
3 37 36 -2.5545 0.6240
3 38 3 4.6895 1.1237
3 38 5 4.3518 -0.5068
3 38 7 -8.4927 0.9227
3 38 9 3.3084 0.2963
3 38 11 8.0453 0.1708
3 38 13 -21.5505 0.0138
3 38 15 -11.4833 0.0084
3 38 17 5.9473 0.2325
3 38 19 1.0258 -0.2879
3 38 21 -1.7618 0.4827
3 38 23 -12.9340 -0.7500
3 38 25 2.1194 0.5953
3 38 27 9.7068 0.0069
3 38 29 2.4224 -0.3959
3 38 31 -3.5345 0.4013
3 38 33 -0.1559 -0.1763
3 38 35 3.9877 -0.5371
3 38 37 2.0986 0.2603
3 39 4 3.1917 0.4525
3 39 6 3.8026 -0.1403
3 39 8 -8.1892 0.8703
3 39 10 1.3511 -0.3231
3 39 12 -0.5495 0.1059
3 39 14 -5.3793 0.0198
3 39 16 -5.3279 -0.3174
3 39 18 -4.1011 0.3449
3 39 20 4.4931 -0.1713
3 39 22 3.5151 0.5809
3 39 24 -4.9635 -0.5551
3 39 26 -6.3617 0.2426
3 39 28 3.3998 -0.0164
3 39 30 1.7528 -0.7460
3 39 32 -3.3886 0.9579
3 39 34 3.5385 -0.3904
3 39 36 -1.5175 1.3735
3 40 3 -1.5840 -0.6895
3 40 5 -2.2775 0.3295
3 40 7 2.0845 -0.4477
3 40 9 6.4765 -0.6249
3 40 11 -5.8383 0.0317
3 40 13 1.4340 -0.3779
3 40 15 3.9064 0.5215
3 40 17 -1.3945 -0.6872
3 40 19 -2.6101 0.1695
3 40 21 3.5805 -0.0696
3 40 23 2.1427 0.1595
3 40 25 -6.5303 -0.3342
3 40 27 14.3886 0.1182
3 40 29 -8.9304 0.2903
3 40 31 7.5353 -0.5422
3 40 33 -3.1396 -0.0027
3 41 4 3.6822 -0.6567
3 41 6 -10.3503 0.3027
3 41 8 7.9557 -0.3942
3 41 10 1.9457 -0.4242
3 41 12 -15.0699 0.5364
3 41 14 4.5511 -0.7639
3 41 16 -1.5305 0.6875
3 41 18 0.2614 -0.3258
3 41 20 -0.7363 0.1074
3 41 22 -1.9342 -0.3965
3 41 24 3.7089 0.5275
3 41 26 -5.0489 -0.3360
3 41 28 28.8065 0.0027
3 41 30 -9.4738 0.9164
3 41 32 3.5175 -0.6603
3 42 3 -6.1892 0.3134
3 42 5 5.4439 -0.3360
3 42 7 2.7163 0.3666
3 42 9 -3.0304 0.0825
3 42 11 1.9661 0.4600
3 42 13 -1.6787 0.4627
3 42 15 -3.1181 -0.7859
3 42 17 0.9165 0.8837
3 42 19 2.6562 -0.3302
3 42 21 -4.4299 0.0251
3 42 23 2.3578 0.0126
3 42 25 -10.8103 0.3980
3 42 27 -17.3041 -0.2583
3 42 29 8.1339 -0.6143
3 42 31 -2.8301 0.7482
3 43 4 -0.9692 0.8031
3 43 6 -0.7744 -0.7024
3 43 8 8.6359 0.2689
3 43 10 -6.0342 0.6328
3 43 12 1.0239 -0.5930
3 43 14 -2.8141 0.8173
3 43 16 -0.8021 -0.5534
3 43 18 1.2993 0.3516
3 43 20 -3.2885 -0.1991
3 43 22 5.8438 0.1249
3 43 24 -1.1263 -0.4066
3 43 26 -17.2655 0.4450
3 43 28 -25.9227 -0.0928
3 43 30 7.6341 -0.2822
3 44 3 -9.3127 0.0549
3 44 5 14.2610 0.3988
3 44 7 -11.7100 -0.2801
3 44 9 20.8750 0.3868
3 44 11 8.6333 -0.9110
3 44 13 1.0324 -0.2358
3 44 15 4.2762 0.5805
3 44 17 2.4455 -0.8884
3 44 19 -3.9512 0.5387
3 44 21 -15.8856 -0.0511
3 44 23 16.4551 0.0326
3 44 25 -16.1468 -0.1931
3 44 27 8.5747 -0.0132
3 44 29 5.5769 0.9505
3 45 4 -10.6575 -0.7950
3 45 6 9.2094 1.0414
3 45 8 1.4388 -0.4009
3 45 10 -6.9332 -0.1542
3 45 12 -9.1421 -0.0268
3 45 14 5.1738 -0.2009
3 45 16 -3.7081 0.2681
3 45 18 1.2068 -0.4977
3 45 20 8.0590 0.4398
3 45 22 -21.1538 -0.1553
3 45 24 0.4713 -0.1208
3 45 26 -15.7983 -0.1325
3 45 28 19.1666 -0.4406
3 46 3 -3.3539 -0.3144
3 46 5 16.6098 -0.2600
3 46 7 -17.6918 -0.2025
3 46 9 -0.0267 -0.1874
3 46 11 -3.7792 0.6095
3 46 13 2.2735 0.1552
3 46 15 2.7249 -0.4152
3 46 17 -8.4717 0.5638
3 46 19 -1.4713 -0.2037
3 46 21 -0.9748 -0.2748
3 46 23 14.3699 0.5476
3 46 25 -1.0269 -0.3143
3 47 4 -3.6598 0.4350
3 47 6 -1.2881 -0.8766
3 47 8 -14.2466 0.2693
3 47 10 3.4449 -0.1978
3 47 12 3.9936 0.4209
3 47 14 -4.4094 -0.0872
3 47 16 -1.7361 0.0950
3 47 18 2.4319 0.1919
3 47 20 -0.4659 -0.2434
3 47 22 -21.7015 -0.1744
3 47 24 10.3162 1.1202
3 48 3 5.8761 0.3710
3 48 5 -5.0366 -0.0487
3 48 7 0.3828 0.6234
3 48 9 3.5339 -0.1478
3 48 11 -2.0589 0.2087
3 48 13 1.4029 -0.5452
3 48 15 -7.2371 0.2894
3 48 17 2.9404 -0.0053
3 48 19 -8.1319 -0.2169
3 48 21 13.1472 0.6586
3 49 4 -0.1950 0.1284
3 49 6 14.4924 0.4882
3 49 8 4.5735 0.2727
3 49 10 -2.1983 -0.3918
3 49 12 -7.2589 0.1442
3 49 14 -0.9294 0.1192
3 49 16 -0.4326 -0.4994
3 49 18 9.0796 0.0865
3 49 20 -7.2705 -0.6210
3 50 3 -0.5976 -0.4144
3 50 5 -3.6897 0.1278
3 50 7 7.9067 -0.8285
3 50 9 -8.3463 0.4347
3 50 11 6.8013 -0.7210
3 50 13 3.4075 0.4883
3 50 15 -5.7423 -0.3442
3 50 17 -17.6840 0.0313
3 51 4 -9.9479 -0.2967
3 51 6 8.4053 0.1474
3 51 8 -3.6308 -0.8555
3 51 10 -0.2632 0.9628
3 51 12 0.0839 -0.9706
3 51 14 4.9356 0.6326
3 52 3 28.7693 0.4915
3 52 5 -0.1073 -0.4550
3 52 7 -7.5404 0.4599
3 52 9 1.3962 -0.1907
4 4 4 -44.3255 -2.0687
4 5 5 -0.1577 -0.8583
4 6 4 -41.4084 0.2633
4 6 6 -145.9107 1.8081
4 7 5 -34.9116 2.9016
4 7 7 -136.3471 0.9878
4 8 4 104.1984 -2.2347
4 8 6 26.4738 -1.3374
4 8 8 91.4073 1.8058
4 9 5 -79.1397 -1.7666
4 9 7 75.2545 1.1707
4 9 9 -23.6048 1.6073
4 10 4 437.9037 0.5908
4 10 6 47.0259 -1.3863
4 10 8 41.0140 -0.3084
4 10 10 -126.9798 -2.2154
4 11 5 -94.8188 2.7247
4 11 7 -40.8535 -1.1516
4 11 9 69.6146 0.8462
4 11 11 8.8699 0.1541
4 12 4 -225.3003 -0.0346
4 12 6 -21.3845 1.4683
4 12 8 -29.0043 -0.6457
4 12 10 49.1337 0.6543
4 12 12 -20.5621 -3.6446
4 13 5 18.5581 -1.8532
4 13 7 -37.9854 2.2076
4 13 9 -60.1926 -1.1487
4 13 11 -9.4315 1.0977
4 13 13 -3.3220 -1.8643
4 14 4 -78.7037 -1.9049
4 14 6 20.9102 -0.5396
4 14 8 5.0180 -0.8031
4 14 10 -6.0420 2.1187
4 14 12 -28.0874 -0.3594
4 14 14 -4.6632 -4.5292
4 15 5 5.1694 1.0476
4 15 7 9.9414 -1.8428
4 15 9 43.0204 -0.1945
4 15 11 -12.6579 0.5763
4 15 13 24.4067 0.6347
4 15 15 -23.1372 -3.4921
4 16 4 50.6801 2.5314
4 16 6 60.6640 -0.0097
4 16 8 -1.7313 1.8148
4 16 10 -2.6292 -4.2753
4 16 12 -34.2302 3.9231
4 16 14 1.6056 -1.7230
4 16 16 9.8326 -2.8595
4 17 5 13.2009 -0.1244
4 17 7 20.7066 1.4425
4 17 9 -35.3154 0.5848
4 17 11 8.6154 -1.3700
4 17 13 -11.0348 1.3848
4 17 15 19.5028 0.7403
4 17 17 -9.3369 -3.9983
4 18 4 103.2562 -2.2762
4 18 6 -67.7180 -0.0812
4 18 8 10.5221 -0.8435
4 18 10 -24.4038 3.0628
4 18 12 11.3365 -3.8635
4 18 14 -12.6544 3.7169
4 18 16 16.7830 -0.8965
4 18 18 -8.6596 -1.2106
4 19 5 -19.2379 0.0778
4 19 7 -11.6152 -1.7085
4 19 9 -21.6861 -0.0370
4 19 11 -6.6349 1.8981
4 19 13 -5.2239 -3.3010
4 19 15 -0.9011 2.7785
4 19 17 7.1866 0.2335
4 19 19 14.9941 -2.5367
4 20 4 23.3503 1.3113
4 20 6 -26.1752 0.6286
4 20 8 35.1049 -1.1144
4 20 10 7.2337 -0.1475
4 20 12 -15.3831 0.7150
4 20 14 7.3150 -1.5645
4 20 16 -0.6005 0.3273
4 20 18 14.8274 0.5660
4 20 20 14.2171 -0.2535
4 21 5 2.2611 -0.0255
4 21 7 -11.2061 1.1175
4 21 9 16.1877 -0.2749
4 21 11 10.9776 -1.2873
4 21 13 2.8551 2.6705
4 21 15 4.9892 -2.8544
4 21 17 -11.7610 0.5572
4 21 19 7.8914 1.2871
4 21 21 -0.0637 -0.6272
4 22 4 -44.5803 -0.8486
4 22 6 43.2687 -0.5612
4 22 8 -2.2135 2.2250
4 22 10 24.8127 -1.7613
4 22 12 -20.6643 1.7439
4 22 14 -1.4446 -0.7646
4 22 16 3.1665 0.8857
4 22 18 -3.2727 -0.8350
4 22 20 6.9913 1.1869
4 22 22 -13.5305 0.0538
4 23 5 -3.9174 -0.1858
4 23 7 17.8199 -0.3176
4 23 9 -0.5333 0.5489
4 23 11 -8.1550 0.0542
4 23 13 -0.8007 -0.7126
4 23 15 -13.7050 1.3630
4 23 17 -3.6323 0.2805
4 23 19 -4.4539 -1.3527
4 23 21 24.5835 0.5609
4 23 23 -5.0735 0.3837
4 24 4 -9.0559 0.7181
4 24 6 7.0068 0.1530
4 24 8 -18.1843 -1.8878
4 24 10 -3.4073 1.6307
4 24 12 10.9422 -1.8869
4 24 14 2.1932 1.1599
4 24 16 -8.1947 -1.7690
4 24 18 -7.5851 0.9903
4 24 20 3.3517 -1.3114
4 24 22 0.7454 1.6092
4 24 24 -0.3055 -0.1688
4 25 5 -5.0429 0.5593
4 25 7 -12.6935 -1.1902
4 25 9 -7.0708 0.1998
4 25 11 -8.8718 0.1564
4 25 13 7.9869 -0.8509
4 25 15 -6.6944 1.3101
4 25 17 3.6750 -1.6413
4 25 19 0.6906 2.2271
4 25 21 1.1336 -1.7334
4 25 23 5.8564 0.3407
4 25 25 -4.8525 -0.5523
4 26 4 1.0753 -0.8599
4 26 6 1.9949 0.2737
4 26 8 6.9530 1.0382
4 26 10 -6.4401 -0.5298
4 26 12 -0.7314 0.9701
4 26 14 -2.6914 -0.9086
4 26 16 -0.8816 1.4815
4 26 18 -1.3990 -1.4779
4 26 20 -4.5445 1.1456
4 26 22 2.6621 -1.2191
4 26 24 -9.3466 1.3660
4 26 26 -9.9039 -1.0419
4 27 5 -0.6276 -0.3820
4 27 7 8.1569 1.9989
4 27 9 -15.0556 -1.0299
4 27 11 -9.8968 0.0379
4 27 13 0.8689 1.5083
4 27 15 -1.1984 -2.6973
4 27 17 -4.9216 2.8948
4 27 19 0.3709 -1.8969
4 27 21 -5.7906 1.7980
4 27 23 8.9796 -0.5403
4 27 25 26.2147 -0.1153
4 27 27 -2.7149 -2.2452
4 28 4 11.0119 0.2589
4 28 6 4.9057 -0.2307
4 28 8 8.3774 -0.4137
4 28 10 -27.1974 0.0360
4 28 12 0.8891 -0.0997
4 28 14 -8.1984 0.5051
4 28 16 2.9719 -1.3392
4 28 18 -7.2881 1.2057
4 28 20 1.1487 -1.4683
4 28 22 -8.3654 0.3527
4 28 24 12.6290 0.0293
4 28 26 12.2578 0.9270
4 28 28 -6.8607 -1.7737
4 29 5 4.4402 0.3189
4 29 7 2.9892 -1.3889
4 29 9 -4.6360 0.3996
4 29 11 -10.6579 0.0587
4 29 13 3.1150 -1.6442
4 29 15 2.2311 2.7087
4 29 17 -1.9699 -2.5639
4 29 19 0.6470 1.8006
4 29 21 -0.0976 -0.8520
4 29 23 0.5320 -0.0054
4 29 25 -8.5760 0.2528
4 29 27 -3.1511 0.2109
4 29 29 5.9008 -3.1204
4 30 4 2.1230 0.1703
4 30 6 0.0100 -0.5834
4 30 8 -20.3323 0.6093
4 30 10 -4.3406 -0.2895
4 30 12 -1.7239 0.2412
4 30 14 2.8890 -0.4625
4 30 16 -2.9665 1.2956
4 30 18 3.1742 -1.3126
4 30 20 -5.7148 0.7715
4 30 22 5.6198 0.1001
4 30 24 10.6395 -1.0855
4 30 26 -4.5828 1.1668
4 30 28 -4.5757 0.3567
4 30 30 -1.0123 -1.8248
4 31 5 0.9753 -0.1336
4 31 7 -3.4956 0.8649
4 31 9 -2.2148 -0.1439
4 31 11 -15.3886 -0.0623
4 31 13 -3.2817 1.2583
4 31 15 -2.2987 -2.1630
4 31 17 7.5098 1.8422
4 31 19 -6.4574 -1.3330
4 31 21 -1.7761 1.1726
4 31 23 10.5935 0.3166
4 31 25 10.4238 -0.9550
4 31 27 2.1421 1.4168
4 31 29 -6.8243 -0.5740
4 31 31 3.6197 -2.9068
4 32 4 -9.1539 -0.4409
4 32 6 1.6811 0.9927
4 32 8 -11.0244 -0.3624
4 32 10 8.9051 0.2384
4 32 12 -17.3167 -0.1565
4 32 14 4.6485 0.0781
4 32 16 5.5640 -0.4515
4 32 18 4.2819 0.9368
4 32 20 -13.3272 -0.7562
4 32 22 8.6563 -0.4573
4 32 24 -2.8893 0.9033
4 32 26 2.2963 -1.7257
4 32 28 -4.2888 1.3143
4 32 30 10.1031 0.4306
4 32 32 -10.6984 -1.4523
4 33 5 5.3359 0.3225
4 33 7 1.6118 -0.8760
4 33 9 6.1713 0.1448
4 33 11 -18.0160 0.4513
4 33 13 10.4945 -0.9723
4 33 15 -2.5774 1.4027
4 33 17 -3.3880 -1.2677
4 33 19 -2.0714 0.9284
4 33 21 10.3469 -0.7769
4 33 23 4.2773 0.0016
4 33 25 -4.6651 1.3164
4 33 27 1.2736 -2.3248
4 33 29 5.8395 2.1019
4 33 31 0.2607 -0.4788
4 33 33 -5.7313 -1.8447
4 34 4 1.1808 0.5262
4 34 6 0.4175 -0.5794
4 34 8 2.5995 -0.2091
4 34 10 -3.5276 0.1217
4 34 12 11.3317 -0.3956
4 34 14 2.1651 0.1375
4 34 16 -5.4036 -0.1514
4 34 18 13.0579 -0.2142
4 34 20 -7.3451 0.2588
4 34 22 3.3486 0.2383
4 34 24 8.9772 -0.5395
4 34 26 4.9581 0.8103
4 34 28 -0.4069 -1.1155
4 34 30 -5.2980 0.6615
4 34 32 -2.1050 0.8610
4 34 34 8.5605 -0.9005
4 35 5 -14.5182 -0.6840
4 35 7 8.7821 0.5140
4 35 9 23.9866 -0.3374
4 35 11 5.6453 -0.5767
4 35 13 0.7541 0.8832
4 35 15 6.1492 -0.3442
4 35 17 -11.7525 0.3165
4 35 19 18.1819 -0.2216
4 35 21 1.6972 0.2726
4 35 23 22.9068 -0.0509
4 35 25 10.4140 -0.4573
4 35 27 -15.2684 1.8241
4 35 29 8.4972 -1.8621
4 35 31 -7.0112 0.8258
4 35 33 8.9523 0.0159
4 35 35 -2.4852 -0.8084
4 36 4 -7.8664 -0.6026
4 36 6 4.6297 0.3033
4 36 8 13.1212 1.1131
4 36 10 2.2663 -0.5535
4 36 12 5.9866 0.6940
4 36 14 4.5120 -0.4375
4 36 16 3.5421 0.3485
4 36 18 1.3128 -0.5417
4 36 20 -2.0519 0.6000
4 36 22 14.2467 -0.4303
4 36 24 -5.1646 -0.0583
4 36 26 -8.9815 -0.0683
4 36 28 1.8285 0.0708
4 36 30 21.3194 -0.4158
4 36 32 -17.8905 -0.2184
4 36 34 0.5204 1.1057
4 36 36 6.4660 -0.3000
4 37 5 -0.2465 0.8729
4 37 7 -12.8128 -0.4207
4 37 9 9.4770 0.4397
4 37 11 -1.7177 0.3868
4 37 13 -19.6146 -0.3337
4 37 15 2.0916 -0.1435
4 37 17 -0.0309 0.4900
4 37 19 10.2612 -0.2526
4 37 21 3.4085 -0.1023
4 37 23 -14.6067 0.3164
4 37 25 10.0314 -0.1012
4 37 27 3.2507 -0.4733
4 37 29 10.1025 0.7161
4 37 31 -5.7185 0.0493
4 37 33 -11.2059 -0.6068
4 37 35 -0.7286 0.5485
4 37 37 -1.0326 -0.2177
4 38 4 7.9364 0.6998
4 38 6 -8.5577 0.0169
4 38 8 7.7992 -1.4129
4 38 10 -9.5776 0.8642
4 38 12 -2.7433 -0.8151
4 38 14 -12.1854 0.1025
4 38 16 3.8980 -0.5251
4 38 18 -2.8694 0.6738
4 38 20 8.6676 -0.8001
4 38 22 -7.5577 0.5292
4 38 24 -10.8824 0.0240
4 38 26 19.3208 -0.3333
4 38 28 0.5551 0.2495
4 38 30 6.1505 -0.1973
4 38 32 -17.9002 0.1987
4 38 34 8.6338 -0.4974
4 38 36 5.2888 0.8441
4 39 5 5.1924 -0.5935
4 39 7 -1.2057 -0.2771
4 39 9 11.9334 -0.2237
4 39 11 -5.4500 -0.3680
4 39 13 5.2381 -0.1119
4 39 15 -3.4936 0.8642
4 39 17 2.1835 -0.8755
4 39 19 -1.5009 0.6896
4 39 21 10.5361 -0.2982
4 39 23 4.9034 -0.1903
4 39 25 -14.2791 0.6158
4 39 27 3.9429 -0.6647
4 39 29 -1.8062 0.9816
4 39 31 6.6183 -0.8248
4 39 33 -6.1581 0.5827
4 39 35 2.2605 -0.9463
4 40 4 -7.4218 -1.0044
4 40 6 2.7564 -0.1863
4 40 8 9.8194 1.1598
4 40 10 6.6308 -0.2827
4 40 12 -24.3707 0.2603
4 40 14 -2.5822 0.4665
4 40 16 4.9879 0.0767
4 40 18 -4.7303 -0.6562
4 40 20 -0.4093 0.7836
4 40 22 6.8672 -0.5972
4 40 24 -1.3577 0.1201
4 40 26 -5.8659 0.1346
4 40 28 -2.4525 -0.3183
4 40 30 -5.4917 -0.0112
4 40 32 1.0098 0.3152
4 40 34 7.9000 0.3870
4 41 5 5.1370 0.1792
4 41 7 -5.9810 0.8043
4 41 9 -2.6606 -0.1366
4 41 11 -13.6283 0.1639
4 41 13 1.0412 0.5499
4 41 15 5.2024 -1.0632
4 41 17 -4.0274 1.1467
4 41 19 1.7859 -0.8219
4 41 21 -3.9713 0.6242
4 41 23 0.3254 -0.0904
4 41 25 11.2160 -0.4844
4 41 27 6.2017 1.0479
4 41 29 3.2768 -0.9864
4 41 31 -1.3243 0.3063
4 41 33 0.1950 -0.2789
4 42 4 -1.4717 1.0732
4 42 6 -12.5061 0.2637
4 42 8 -15.1317 -0.5922
4 42 10 3.1857 -0.3407
4 42 12 -2.6219 0.4012
4 42 14 -8.9428 -0.8102
4 42 16 -6.6718 -0.1365
4 42 18 4.4954 0.7183
4 42 20 -4.9379 -0.8860
4 42 22 5.8045 0.4604
4 42 24 -1.2905 0.0297
4 42 26 9.7595 -0.2281
4 42 28 5.5598 -0.1332
4 42 30 0.3230 0.3138
4 42 32 -5.5759 -0.4172
4 43 5 0.0908 0.2260
4 43 7 2.6165 -0.7420
4 43 9 -3.0237 0.2112
4 43 11 -15.9228 -0.0650
4 43 13 2.3916 -0.8070
4 43 15 -5.1427 0.9212
4 43 17 -1.8507 -0.9786
4 43 19 3.7259 0.8584
4 43 21 1.6074 -0.6450
4 43 23 9.9130 0.3202
4 43 25 -2.7129 -0.1201
4 43 27 -1.8757 -0.0569
4 43 29 -0.8262 0.2713
4 43 31 3.7875 0.6999
4 44 4 -8.2540 -0.7790
4 44 6 17.2929 -0.5424
4 44 8 4.4057 0.1070
4 44 10 -3.5645 0.8172
4 44 12 -2.0078 -0.8122
4 44 14 1.1357 1.0969
4 44 16 -5.3912 0.1161
4 44 18 -8.0056 -0.7171
4 44 20 3.9418 0.6501
4 44 22 13.8628 -0.2242
4 44 24 -5.7513 -0.0635
4 44 26 -17.5641 0.0398
4 44 28 -6.1410 -0.0552
4 45 5 16.3206 -0.5034
4 45 7 4.4609 0.5450
4 45 9 12.5249 -0.3208
4 45 11 14.5884 0.1557
4 45 13 -0.1786 0.5242
4 45 15 -1.9600 -0.6210
4 45 17 -3.0389 0.7240
4 45 19 -1.4944 -0.7029
4 45 21 -21.9139 0.6039
4 45 23 -1.5167 -0.2698
4 45 25 -5.0172 0.3156
4 45 27 1.3243 -0.0636
4 46 4 17.9060 0.4922
4 46 6 13.0067 0.6783
4 46 8 -13.0251 0.1678
4 46 10 5.8661 -1.0958
4 46 12 2.0668 1.1698
4 46 14 -4.4444 -1.0478
4 46 16 6.7128 -0.0001
4 46 18 -1.3863 0.7198
4 46 20 -1.1042 -0.5743
4 46 22 -17.7443 -0.1440
4 46 24 -10.9201 0.3128
4 46 26 -4.5372 -0.4114
4 47 5 5.5414 0.3816
4 47 7 -1.7960 -0.1492
4 47 9 4.9440 0.4483
4 47 11 -0.4295 -0.2116
4 47 13 3.1327 -0.2024
4 47 15 8.0068 0.0076
4 47 17 -0.7501 -0.4516
4 47 19 -13.8361 0.3211
4 47 21 7.0649 -0.0221
4 47 23 0.8714 -0.3285
4 48 4 -21.4345 -0.0905
4 48 6 12.9149 -0.6056
4 48 8 1.7267 -0.1291
4 48 10 -0.4377 0.6648
4 48 12 -5.9240 -1.0499
4 48 14 -3.8409 0.7390
4 48 16 5.4621 0.2366
4 48 18 0.4556 -0.6004
4 48 20 6.0089 0.2766
4 48 22 -3.0602 0.7004
4 49 5 2.3275 -0.3314
4 49 7 4.7484 -0.3645
4 49 9 -24.1934 -0.2699
4 49 11 -0.0850 0.2130
4 49 13 1.2198 0.0506
4 49 15 11.8297 0.2484
4 49 17 11.3995 0.2094
4 49 19 2.1751 -0.1550
4 50 4 1.3109 -0.0549
4 50 6 2.8286 0.5762
4 50 8 -10.6355 -0.0523
4 50 10 -2.6855 -0.0667
4 50 12 -8.1035 0.4401
4 50 14 3.0037 -0.3079
4 50 16 -4.0021 -0.5010
4 51 5 2.3720 0.2559
4 51 7 -12.5992 0.6326
4 51 9 13.5238 -0.1069
4 51 11 8.3064 0.1762
4 51 13 -1.9127 0.0434
4 52 4 -2.3329 0.4101
4 52 6 11.2793 -0.4228
4 52 8 0.2499 0.0467
4 52 10 -2.7213 -0.0093
5 6 5 288.0789 1.4596
5 7 6 176.2190 2.1347
5 8 5 -70.9654 -3.0991
5 8 7 -72.2191 1.4532
5 9 6 51.9945 -2.6401
5 9 8 -25.0200 -1.5071
5 10 5 -31.8632 3.9865
5 10 7 -136.8519 -2.0199
5 10 9 17.9108 0.0902
5 11 6 -6.9741 2.0017
5 11 8 -75.3901 1.3702
5 11 10 3.9537 -2.3795
5 12 5 105.3671 -3.8457
5 12 7 109.5697 2.4765
5 12 9 25.6961 -2.1992
5 12 11 17.7086 1.2810
5 13 6 -24.8103 -2.7207
5 13 8 24.5093 -2.0808
5 13 10 -12.6606 1.6304
5 13 12 -17.0880 -1.0834
5 14 5 61.3083 2.5543
5 14 7 -20.7480 -0.2306
5 14 9 -75.2214 1.7622
5 14 11 18.9513 -1.0389
5 14 13 6.8105 2.5205
5 15 6 -1.7008 1.8850
5 15 8 4.8178 2.0506
5 15 10 4.8318 -1.4455
5 15 12 -0.2237 -1.0493
5 15 14 12.2860 1.3736
5 16 5 -33.1008 0.3348
5 16 7 56.3072 -2.3671
5 16 9 -12.1708 1.1016
5 16 11 11.7401 -0.1557
5 16 13 -25.7567 0.4082
5 16 15 -9.8977 1.8628
5 17 6 -30.4778 -2.3151
5 17 8 17.5384 -1.1454
5 17 10 -13.9975 0.4378
5 17 12 6.6786 -0.3240
5 17 14 2.8787 -1.0031
5 17 16 7.4371 -0.3502
5 18 5 69.5163 -3.4401
5 18 7 55.1452 4.3315
5 18 9 50.0553 -2.2413
5 18 11 -32.0938 0.8014
5 18 13 27.9441 -0.6096
5 18 15 -17.9232 0.0599
5 18 17 10.2874 1.2085
5 19 6 29.2479 1.5740
5 19 8 -6.1298 0.0915
5 19 10 -7.4449 0.1951
5 19 12 -3.5179 0.9586
5 19 14 3.9404 -1.4859
5 19 16 -8.8636 0.5643
5 19 18 4.3179 -1.8815
5 20 5 1.4949 5.5251
5 20 7 -10.3736 -4.2903
5 20 9 -12.6764 2.1176
5 20 11 -9.4370 -0.0373
5 20 13 -1.1223 0.5679
5 20 15 2.9451 -0.0075
5 20 17 13.0838 -0.0985
5 20 19 -3.9295 0.8123
5 21 6 8.2820 0.1749
5 21 8 -0.3487 -0.5135
5 21 10 0.4377 -0.7969
5 21 12 4.5392 -0.3032
5 21 14 -14.0477 0.9937
5 21 16 9.2479 -0.6025
5 21 18 -12.3718 0.2261
5 21 20 4.3963 -1.3351
5 22 5 -15.1587 -6.5803
5 22 7 -17.3486 3.7080
5 22 9 -8.9564 -0.4206
5 22 11 -4.1517 -1.4225
5 22 13 -0.9848 0.5650
5 22 15 -1.1146 0.0674
5 22 17 -9.6487 0.4841
5 22 19 2.4556 -1.8605
5 22 21 3.0123 1.3522
5 23 6 -11.5161 -1.8803
5 23 8 6.1248 0.5498
5 23 10 -20.4277 0.1233
5 23 12 -1.6807 -0.2439
5 23 14 6.9290 -0.3901
5 23 16 -10.6594 -0.5019
5 23 18 -1.4902 0.7092
5 23 20 25.2901 -0.4610
5 23 22 10.4741 -0.7212
5 24 5 -8.9714 6.1790
5 24 7 28.9094 -2.5875
5 24 9 5.7493 -0.1949
5 24 11 6.1908 2.3862
5 24 13 -0.7574 -0.9318
5 24 15 6.0390 -0.1235
5 24 17 0.8342 0.9726
5 24 19 2.9741 1.1392
5 24 21 -1.6979 -1.8554
5 24 23 -2.7290 0.0620
5 25 6 5.0479 2.7138
5 25 8 -15.2751 -0.2627
5 25 10 15.9971 -0.1966
5 25 12 0.6935 0.3521
5 25 14 -8.1955 0.0400
5 25 16 2.9687 -0.1236
5 25 18 6.2208 -0.9078
5 25 20 -4.3791 0.9747
5 25 22 5.6386 -0.3076
5 25 24 -8.4297 -0.7175
5 26 5 17.5199 -4.9735
5 26 7 -18.0195 2.1180
5 26 9 11.6432 -0.1445
5 26 11 -6.3196 -1.4064
5 26 13 0.3665 0.6529
5 26 15 -10.0431 0.3720
5 26 17 2.9805 -1.0988
5 26 19 -7.1007 0.0841
5 26 21 -2.9080 1.2756
5 26 23 4.6807 -0.7508
5 26 25 1.5406 -0.4508
5 27 6 5.3905 -2.6528
5 27 8 -12.2593 -0.6129
5 27 10 -22.8914 0.1929
5 27 12 1.7584 -0.4929
5 27 14 -1.0713 -0.2848
5 27 16 6.5450 0.9015
5 27 18 -8.8033 -0.2918
5 27 20 3.4075 -0.6333
5 27 22 0.9161 0.0513
5 27 24 -13.8969 0.0111
5 27 26 -7.0518 -0.1379
5 28 5 -3.4589 2.6948
5 28 7 -11.9252 -1.3960
5 28 9 2.7131 0.8345
5 28 11 -15.2415 0.1983
5 28 13 7.5203 0.2467
5 28 15 5.2095 -0.5034
5 28 17 -7.1830 0.9914
5 28 19 -5.8766 -0.5680
5 28 21 6.7002 0.0974
5 28 23 -3.9059 0.3059
5 28 25 -14.1895 0.0792
5 28 27 4.4395 0.1554
5 29 6 9.6132 2.0988
5 29 8 -2.7891 0.9504
5 29 10 1.7112 0.0603
5 29 12 -5.2819 -0.2853
5 29 14 0.4688 0.6645
5 29 16 0.1175 -1.1969
5 29 18 3.8128 0.8087
5 29 20 -4.6099 -0.1455
5 29 22 -4.2182 0.4397
5 29 24 2.3230 -0.3512
5 29 26 -11.9321 -0.3765
5 29 28 -4.9802 0.9126
5 30 5 16.7389 0.1927
5 30 7 -4.9609 -0.0237
5 30 9 1.9148 -0.4324
5 30 11 2.2637 0.2772
5 30 13 -1.6446 -0.1157
5 30 15 6.2080 0.1178
5 30 17 -11.2522 -0.4855
5 30 19 6.1762 0.6303
5 30 21 -4.1486 -0.5649
5 30 23 -14.4941 0.2304
5 30 25 -12.3782 -0.0856
5 30 27 1.2109 -0.2559
5 30 29 3.6607 1.0462
5 31 6 -1.4943 -1.6154
5 31 8 2.5703 -0.7922
5 31 10 1.2738 0.1044
5 31 12 4.3757 0.1258
5 31 14 -5.6360 -0.5778
5 31 16 3.3147 0.7134
5 31 18 -5.5983 -0.3830
5 31 20 7.0571 -0.0738
5 31 22 0.8383 -0.6157
5 31 24 -14.0302 0.6967
5 31 26 10.2095 -0.4375
5 31 28 -13.0179 -0.5265
5 31 30 -6.9607 1.1780
5 32 5 -6.8366 -2.6625
5 32 7 -1.7127 1.5190
5 32 9 4.3436 -0.6656
5 32 11 -3.8106 -0.3554
5 32 13 -5.5095 0.3523
5 32 15 -10.6948 0.1354
5 32 17 -5.5081 -0.1793
5 32 19 12.9120 0.0130
5 32 21 -7.6454 0.5060
5 32 23 2.9021 -0.4007
5 32 25 4.4819 0.4590
5 32 27 -3.0079 -0.1700
5 32 29 -5.5723 -0.5064
5 32 31 3.1996 0.8012
5 33 6 -14.3417 1.2441
5 33 8 9.5926 0.4614
5 33 10 -1.5455 -0.1294
5 33 12 -0.3872 -0.0833
5 33 14 1.4654 0.2406
5 33 16 -4.1707 -0.1605
5 33 18 2.0414 -0.1618
5 33 20 -0.8783 0.2565
5 33 22 -0.4762 0.2491
5 33 24 -16.6488 -0.4236
5 33 26 9.3956 0.7339
5 33 28 -5.7013 -0.4280
5 33 30 8.4676 -0.2009
5 33 32 5.2240 -0.0999
5 34 5 -15.5207 3.9472
5 34 7 1.1017 -2.2709
5 34 9 -12.4237 1.0347
5 34 11 6.9629 0.4904
5 34 13 12.4047 -0.3025
5 34 15 0.5626 -0.2998
5 34 17 -5.2723 0.7378
5 34 19 -3.2282 -0.4518
5 34 21 2.7452 -0.2324
5 34 23 6.2884 0.3805
5 34 25 -8.7869 -0.4601
5 34 27 -12.1898 0.5538
5 34 29 12.6532 -0.2349
5 34 31 4.3532 -0.1651
5 34 33 -3.4544 -0.2223
5 35 6 -20.9619 -0.8867
5 35 8 -1.6178 -0.2445
5 35 10 -5.7986 0.7514
5 35 12 2.1520 -0.3909
5 35 14 1.8889 0.0725
5 35 16 8.9150 -0.2072
5 35 18 -5.1364 0.2911
5 35 20 -4.9870 -0.2351
5 35 22 3.8443 -0.0055
5 35 24 8.6511 -0.1458
5 35 26 1.1742 -0.5083
5 35 28 -4.1740 0.4887
5 35 30 -5.6854 -0.2671
5 35 32 0.0747 0.2471
5 35 34 -3.0416 -0.6858
5 36 5 13.5960 -4.3536
5 36 7 -4.4076 2.5306
5 36 9 9.7626 -0.9017
5 36 11 -1.7234 -0.9603
5 36 13 -11.7062 0.5506
5 36 15 -7.2129 0.1606
5 36 17 1.1297 -0.7409
5 36 19 1.3278 0.3434
5 36 21 0.8548 0.3876
5 36 23 -0.9743 -0.3835
5 36 25 20.3926 0.2592
5 36 27 9.8756 -0.0032
5 36 29 -2.7542 0.3202
5 36 31 1.6612 -0.2551
5 36 33 -2.2820 0.3217
5 36 35 3.5623 -1.3782
5 37 6 -5.3899 0.0292
5 37 8 -7.4455 0.3596
5 37 10 15.9701 -1.4157
5 37 12 -1.3608 0.7321
5 37 14 0.3303 -0.1985
5 37 16 6.5837 0.1684
5 37 18 -10.7240 -0.0257
5 37 20 6.0580 -0.1047
5 37 22 -5.4014 0.1345
5 37 24 2.5480 0.1928
5 37 26 6.4796 -0.0103
5 37 28 10.0828 -0.1291
5 37 30 -5.3449 0.1539
5 37 32 -2.7585 -0.0325
5 37 34 -2.4363 -0.0468
5 37 36 -6.0404 -0.5164
5 38 5 -3.1812 3.8833
5 38 7 0.4931 -2.2285
5 38 9 -3.7743 0.5205
5 38 11 -1.1818 1.4533
5 38 13 2.3505 -0.8532
5 38 15 9.7236 0.1209
5 38 17 -0.1494 0.6040
5 38 19 -3.3074 -0.2051
5 38 21 9.6930 -0.5246
5 38 23 -8.1818 0.5014
5 38 25 2.3597 -0.0728
5 38 27 -10.6076 -0.3405
5 38 29 0.2573 -0.1981
5 38 31 -6.9036 0.3034
5 38 33 0.3124 -0.1662
5 38 35 0.0183 0.5220
5 39 6 -7.1323 0.8284
5 39 8 9.6817 -0.2751
5 39 10 -15.4206 1.0362
5 39 12 5.7372 -0.1981
5 39 14 -19.2289 0.0023
5 39 16 -1.6582 -0.0602
5 39 18 4.2548 -0.0787
5 39 20 -6.5802 0.1395
5 39 22 4.4829 -0.1775
5 39 24 -5.6723 -0.0588
5 39 26 5.5719 0.1213
5 39 28 9.4574 0.0167
5 39 30 9.8739 -0.0079
5 39 32 -0.5240 -0.2604
5 39 34 1.6267 0.6872
5 40 5 5.2733 -2.8444
5 40 7 -7.2824 1.9450
5 40 9 7.7225 -0.4330
5 40 11 -6.4243 -1.1471
5 40 13 -3.9406 0.4891
5 40 15 -8.1499 -0.3411
5 40 17 -2.9556 -0.1913
5 40 19 3.7660 -0.0307
5 40 21 -6.2557 0.5822
5 40 23 9.9126 -0.4695
5 40 25 -10.8497 0.0946
5 40 27 -12.7774 0.2633
5 40 29 6.8779 0.0098
5 40 31 0.9463 0.0892
5 40 33 -0.1070 -0.1653
5 41 6 0.5334 -1.4521
5 41 8 -8.8555 0.0734
5 41 10 12.9359 -0.5769
5 41 12 0.0435 -0.0230
5 41 14 0.7711 0.0093
5 41 16 2.5365 0.0876
5 41 18 -1.0573 -0.0807
5 41 20 0.5890 0.0052
5 41 22 -3.5384 0.0779
5 41 24 4.4278 -0.3040
5 41 26 1.1857 0.2698
5 41 28 -8.5753 -0.2263
5 41 30 1.1746 -0.1457
5 41 32 -5.1322 0.2909
5 42 5 -6.4592 1.4189
5 42 7 2.4149 -1.5507
5 42 9 2.1111 0.8292
5 42 11 -13.5279 0.1967
5 42 13 -10.4839 0.0519
5 42 15 1.2863 0.2797
5 42 17 1.6376 -0.0081
5 42 19 -0.6416 0.2466
5 42 21 2.0025 -0.5766
5 42 23 -2.6770 0.4991
5 42 25 19.4774 -0.2587
5 42 27 13.1095 -0.1486
5 42 29 -3.8383 0.4312
5 42 31 0.5452 -0.3271
5 43 6 -3.4852 1.6847
5 43 8 4.6067 -0.1270
5 43 10 9.6833 0.0283
5 43 12 2.8050 0.3089
5 43 14 1.5725 0.1342
5 43 16 -3.5913 -0.0160
5 43 18 0.7205 -0.1067
5 43 20 -2.2104 0.1254
5 43 22 2.2222 0.0128
5 43 24 -4.3189 0.4405
5 43 26 12.5284 -0.2351
5 43 28 10.5071 0.1155
5 43 30 4.7064 0.0266
5 44 5 -8.4833 -0.0187
5 44 7 2.8871 0.8112
5 44 9 6.1947 -0.5659
5 44 11 -23.9931 0.4014
5 44 13 9.4689 -0.6510
5 44 15 -3.9421 0.0905
5 44 17 -1.0494 -0.0746
5 44 19 -4.2831 -0.1815
5 44 21 15.1434 0.3620
5 44 23 -23.2549 -0.5068
5 44 25 -5.9087 -0.0650
5 44 27 -0.8653 0.3013
5 44 29 -7.0183 -0.8417
5 45 6 -16.0834 -1.1938
5 45 8 1.1734 -0.0095
5 45 10 3.2035 0.2811
5 45 12 5.5531 -0.2077
5 45 14 -1.8787 -0.5322
5 45 16 2.2553 0.1249
5 45 18 4.5217 0.1284
5 45 20 -10.9723 -0.2924
5 45 22 11.2567 -0.0560
5 45 24 -9.8752 0.1989
5 45 26 -15.4381 -0.1185
5 46 5 -13.2511 -0.9440
5 46 7 10.5043 -0.0398
5 46 9 0.1306 0.1055
5 46 11 2.6638 -0.5524
5 46 13 -11.3536 0.8722
5 46 15 2.0517 -0.2219
5 46 17 -13.5634 -0.0022
5 46 19 -3.4010 0.1653
5 46 21 0.5378 0.1455
5 46 23 -15.5846 -0.2472
5 46 25 12.3591 0.6457
5 47 6 5.6604 0.5064
5 47 8 5.9356 -0.0212
5 47 10 0.3418 -0.2242
5 47 12 -1.2145 -0.1527
5 47 14 0.3658 0.6850
5 47 16 13.9798 -0.1428
5 47 18 0.6330 0.1300
5 47 20 -8.4383 -0.0751
5 47 22 8.8322 0.4894
5 47 24 -14.1632 -1.3118
5 48 5 -10.3400 1.5593
5 48 7 9.4453 -0.6469
5 48 9 -8.6058 0.2899
5 48 11 5.5326 0.2618
5 48 13 2.3613 -0.3047
5 48 15 -7.2056 0.0150
5 48 17 -6.2507 -0.1245
5 48 19 -2.6291 0.2388
5 48 21 6.2015 -0.9958
5 49 6 0.6537 0.0819
5 49 8 1.7378 0.0048
5 49 10 -5.5777 0.6562
5 49 12 3.0260 -0.2460
5 49 14 8.6870 -0.3700
5 49 16 -9.7670 0.1978
5 49 18 2.4343 -0.5509
5 49 20 4.3166 1.3635
5 50 5 8.6910 -1.7004
5 50 7 -9.3864 1.2078
5 50 9 4.1797 -0.8369
5 50 11 -8.3501 0.1774
5 50 13 7.2354 -0.1745
5 50 15 1.3278 0.2739
5 50 17 2.5604 0.1490
5 51 6 13.4453 -0.7130
5 51 8 -8.9790 0.3548
5 51 10 9.4626 -1.2880
5 51 12 -5.7965 1.1081
5 51 14 -2.5287 -0.7870
5 52 5 9.9051 1.6018
5 52 7 -3.2204 -1.0811
5 52 9 -1.3315 1.0829
6 6 6 -762.8424 3.4724
6 7 7 -9.4283 1.3561
6 8 6 -86.9776 -0.6443
6 8 8 -97.3318 -0.4903
6 9 7 65.9351 -2.6622
6 9 9 5.1859 -0.0100
6 10 6 -38.9796 2.4550
6 10 8 -13.7447 -1.4069
6 10 10 14.2507 0.0191
6 11 7 18.8541 0.6333
6 11 9 30.5064 -0.6131
6 11 11 -42.0874 -0.5214
6 12 6 -131.9765 -1.7633
6 12 8 -51.5288 4.5479
6 12 10 15.3749 -2.5425
6 12 12 -14.2053 3.3338
6 13 7 -0.6214 -0.7848
6 13 9 -13.8864 1.1130
6 13 11 11.7626 0.0028
6 13 13 -56.1033 0.9019
6 14 6 -70.4770 1.2538
6 14 8 87.7959 -3.7801
6 14 10 25.4431 0.9268
6 14 12 62.1440 -0.7586
6 14 14 -36.2625 2.1242
6 15 7 -0.5761 0.1763
6 15 9 -19.5156 -1.5627
6 15 11 -3.6307 -0.0908
6 15 13 10.3566 -1.2880
6 15 15 -1.2165 2.2236
6 16 6 64.1961 -0.0511
6 16 8 11.6407 1.4387
6 16 10 6.5986 1.1609
6 16 12 5.7601 -1.2879
6 16 14 5.8541 0.3534
6 16 16 5.2675 1.4681
6 17 7 13.0287 0.6826
6 17 9 47.5511 1.1554
6 17 11 -6.6601 1.0523
6 17 13 6.4816 -0.4345
6 17 15 -9.5916 -1.2853
6 17 17 -3.8456 2.8009
6 18 6 -28.5841 -0.7861
6 18 8 -49.8138 -0.3796
6 18 10 8.1451 -1.0461
6 18 12 -25.0482 1.4688
6 18 14 6.1440 -0.9114
6 18 16 -1.2377 0.4063
6 18 18 -21.7848 0.9567
6 19 7 -22.4814 0.1665
6 19 9 10.7667 -1.8304
6 19 11 -15.6473 -0.8106
6 19 13 10.3325 1.4866
6 19 15 -3.9101 -0.8358
6 19 17 4.5420 -0.9401
6 19 19 -18.2302 2.3629
6 20 6 13.0054 1.6477
6 20 8 6.3867 -0.3424
6 20 10 11.0490 -0.4170
6 20 12 -9.3921 0.3421
6 20 14 -7.6761 -0.2989
6 20 16 4.7010 -0.3700
6 20 18 8.2500 -0.0648
6 20 20 -13.2300 0.9680
6 21 7 -19.1763 -0.8039
6 21 9 9.9116 2.1489
6 21 11 4.4459 -0.1989
6 21 13 -3.0047 -1.2565
6 21 15 -1.9684 1.8511
6 21 17 6.4718 -1.0622
6 21 19 -6.9511 -0.0850
6 21 21 6.1320 0.9931
6 22 6 4.5054 -2.4210
6 22 8 27.3853 1.0154
6 22 10 -13.1378 1.5201
6 22 12 14.8110 -2.0693
6 22 14 -5.4283 1.6829
6 22 16 12.4411 0.0255
6 22 18 2.0224 -0.4239
6 22 20 -9.1407 -0.4511
6 22 22 -3.3909 1.1242
6 23 7 2.8561 0.3079
6 23 9 -1.4577 -1.0930
6 23 11 -2.3299 1.1216
6 23 13 7.5050 -0.1163
6 23 15 12.7982 -0.8922
6 23 17 -8.2459 0.5551
6 23 19 5.9304 -0.1493
6 23 21 21.8641 0.2505
6 23 23 -0.9369 0.3384
6 24 6 -30.1768 2.4823
6 24 8 5.6828 -1.6998
6 24 10 -13.7103 -0.9678
6 24 12 -1.0402 1.6528
6 24 14 0.7831 -1.4635
6 24 16 0.1133 0.2408
6 24 18 -2.4795 0.6608
6 24 20 5.3103 -0.3784
6 24 22 1.3958 -0.8047
6 24 24 2.5328 1.2259
6 25 7 -18.1862 0.4628
6 25 9 -15.1205 -0.9731
6 25 11 0.1489 -0.9527
6 25 13 -6.5302 0.8672
6 25 15 15.5919 -0.3692
6 25 17 -13.8904 -0.0991
6 25 19 7.0861 0.0101
6 25 21 -2.2520 -0.5117
6 25 23 -15.8069 0.5787
6 25 25 8.2593 0.7250
6 26 6 21.2163 -1.8602
6 26 8 -15.5558 1.7456
6 26 10 4.1314 0.3477
6 26 12 1.4503 -0.7211
6 26 14 4.7755 0.8427
6 26 16 7.3699 0.0286
6 26 18 -5.3566 -0.1148
6 26 20 -17.9164 0.5446
6 26 22 11.7349 0.1388
6 26 24 -15.8725 -1.1415
6 26 26 19.2160 1.2358
6 27 7 -18.7746 -0.9263
6 27 9 -10.8046 2.6626
6 27 11 9.2846 0.2177
6 27 13 7.6518 -0.9967
6 27 15 -17.7538 1.2200
6 27 17 14.1048 -1.0799
6 27 19 -6.1797 0.2139
6 27 21 10.2711 0.0134
6 27 23 -10.3117 -0.2902
6 27 25 2.3423 0.0606
6 27 27 8.3185 1.5055
6 28 6 19.8099 0.9874
6 28 8 4.4923 -1.0163
6 28 10 7.6566 -0.3803
6 28 12 5.2143 0.3743
6 28 14 0.1116 -0.6629
6 28 16 -6.8426 0.2348
6 28 18 18.5080 -0.0976
6 28 20 -12.0911 0.3758
6 28 22 11.7751 0.1604
6 28 24 -0.3618 -0.0008
6 28 26 -13.4906 -0.7890
6 28 28 22.9335 1.0950
6 29 7 0.1611 0.4227
6 29 9 8.7906 -2.6506
6 29 11 4.3253 0.2086
6 29 13 -11.8436 0.7575
6 29 15 -0.5049 -1.1296
6 29 17 0.9394 0.9854
6 29 19 4.5237 -0.6425
6 29 21 -7.8654 -0.3570
6 29 23 8.6093 0.0860
6 29 25 7.0047 0.0179
6 29 27 -5.5097 -0.5794
6 29 29 2.1514 1.9036
6 30 6 -14.8119 0.0592
6 30 8 -0.6469 0.0746
6 30 10 -1.1111 0.1338
6 30 12 7.4606 -0.0675
6 30 14 -21.5091 0.2998
6 30 16 7.3448 -0.4461
6 30 18 -12.2739 0.6281
6 30 20 4.8093 -0.3191
6 30 22 -7.7896 0.1882
6 30 24 9.1764 0.6356
6 30 26 11.8045 -0.5076
6 30 28 -4.4754 -0.4479
6 30 30 13.0583 0.8815
6 31 7 6.2877 -0.1316
6 31 9 5.7984 1.8893
6 31 11 14.8425 0.1721
6 31 13 -0.8989 -1.0120
6 31 15 -4.4985 1.3359
6 31 17 8.0122 -0.6571
6 31 19 -1.3454 0.2530
6 31 21 3.7319 -0.1315
6 31 23 -13.5189 -0.0099
6 31 25 -12.8846 0.1878
6 31 27 5.3512 -0.1352
6 31 29 -1.6974 -0.3279
6 31 31 -3.2931 1.8391
6 32 6 5.3555 -1.1387
6 32 8 3.4503 0.8661
6 32 10 -3.4886 -0.1390
6 32 12 16.1048 -0.0157
6 32 14 -23.0568 0.1004
6 32 16 3.1304 0.0508
6 32 18 -10.6116 -0.6643
6 32 20 -4.0176 0.6772
6 32 22 9.3398 -0.1100
6 32 24 4.1490 -0.4427
6 32 26 -4.8502 0.9745
6 32 28 5.8780 -0.5148
6 32 30 -10.1822 -0.6716
6 32 32 4.7094 0.9369
6 33 7 4.1948 0.6980
6 33 9 -9.2523 -1.2721
6 33 11 0.9790 -0.3096
6 33 13 -15.1222 0.8250
6 33 15 -6.4596 -1.0331
6 33 17 -1.3136 0.3846
6 33 19 -0.1560 -0.0225
6 33 21 -1.7146 0.0791
6 33 23 14.9337 -0.5784
6 33 25 -3.7173 -0.5576
6 33 27 -0.5786 0.9673
6 33 29 14.0937 -0.6223
6 33 31 -3.7474 -0.0830
6 33 33 6.3264 1.4430
6 34 6 16.0325 1.5516
6 34 8 0.7960 -1.3550
6 34 10 -2.5382 -0.2775
6 34 12 1.6601 0.6539
6 34 14 10.3966 -0.6127
6 34 16 -1.0786 0.3469
6 34 18 2.6658 0.2071
6 34 20 -4.1982 -0.3893
6 34 22 -11.1857 0.3383
6 34 24 3.4827 0.2872
6 34 26 -3.7438 -0.4141
6 34 28 2.2287 0.5962
6 34 30 -0.1269 -0.0527
6 34 32 -10.7027 -0.9776
6 34 34 4.1665 0.9685
6 35 7 -20.8738 -1.4016
6 35 9 -25.7513 1.1455
6 35 11 0.0177 -0.1537
6 35 13 -5.5950 -0.6180
6 35 15 -20.4436 0.4830
6 35 17 -1.0822 -0.0739
6 35 19 -5.6882 -0.0161
6 35 21 13.4933 -0.2277
6 35 23 -1.6582 0.7839
6 35 25 1.7257 0.1085
6 35 27 -16.3726 -1.2627
6 35 29 13.8208 1.0662
6 35 31 17.3864 -0.3087
6 35 33 -14.4776 -0.3270
6 35 35 -3.2887 1.0159
6 36 6 -1.4701 -1.7927
6 36 8 -11.7001 0.8980
6 36 10 2.7804 0.7737
6 36 12 1.9770 -0.7084
6 36 14 10.9924 0.8084
6 36 16 3.5723 -0.1073
6 36 18 -6.4125 0.1865
6 36 20 -8.4104 -0.3282
6 36 22 -4.4510 -0.0248
6 36 24 -6.1862 0.0840
6 36 26 1.7080 0.0218
6 36 28 1.5706 -0.0929
6 36 30 1.9629 0.2391
6 36 32 18.0678 0.1543
6 36 34 4.5650 -0.9707
6 36 36 -0.3938 0.9788
6 37 7 -10.8342 1.8962
6 37 9 10.7193 -0.6090
6 37 11 17.0099 0.4084
6 37 13 -10.4342 0.0926
6 37 15 -1.6976 -0.1077
6 37 17 3.2085 -0.5658
6 37 19 -9.4894 0.2503
6 37 21 4.0011 0.3261
6 37 23 6.4304 -0.9270
6 37 25 -1.7042 0.2625
6 37 27 2.2564 0.4081
6 37 29 -16.3072 -0.7816
6 37 31 20.2230 0.1294
6 37 33 17.7749 0.5175
6 37 35 0.3248 -0.2941
6 37 37 -3.0479 0.7789
6 38 6 -1.5905 1.6910
6 38 8 10.2821 -0.6360
6 38 10 -4.9291 -0.8271
6 38 12 -4.2549 0.4369
6 38 14 -5.6016 -0.2953
6 38 16 -9.7794 0.0230
6 38 18 0.7683 -0.2859
6 38 20 -6.4918 0.7227
6 38 22 -15.0263 -0.4636
6 38 24 4.5998 0.1809
6 38 26 -9.4047 0.2077
6 38 28 -0.1610 0.1499
6 38 30 -12.2439 -0.0530
6 38 32 -4.7468 0.2544
6 38 34 14.2465 -0.1474
6 38 36 4.0578 -1.0208
6 39 7 1.8433 -1.4232
6 39 9 -2.2077 -0.0642
6 39 11 1.9041 -0.4281
6 39 13 -2.4658 0.1187
6 39 15 6.4173 -0.5686
6 39 17 2.8853 0.7706
6 39 19 3.5159 -0.4060
6 39 21 -11.0069 -0.0973
6 39 23 -7.8641 0.4968
6 39 25 2.0760 -0.5481
6 39 27 -1.5294 0.2091
6 39 29 2.2150 -0.1060
6 39 31 -8.7505 -0.0834
6 39 33 -2.3229 -0.0107
6 39 35 -5.5332 0.8252
6 40 6 -7.3396 -1.1384
6 40 8 22.4333 -0.0028
6 40 10 12.0432 0.7376
6 40 12 -2.9706 -0.2373
6 40 14 -15.7383 0.2521
6 40 16 3.3914 0.2412
6 40 18 7.8115 0.2259
6 40 20 3.6746 -0.5672
6 40 22 0.4729 0.4892
6 40 24 -4.5906 -0.2129
6 40 26 -2.9133 0.0250
6 40 28 -9.6262 -0.2243
6 40 30 1.4234 0.5040
6 40 32 -0.4453 -0.8668
6 40 34 4.6594 -0.3010
6 41 7 1.1612 0.5876
6 41 9 -1.6717 0.7048
6 41 11 9.1423 0.3407
6 41 13 18.7547 -0.2103
6 41 15 -11.6457 0.6580
6 41 17 1.4726 -0.7545
6 41 19 -2.4078 0.3943
6 41 21 6.3675 -0.1972
6 41 23 -4.1668 0.1447
6 41 25 0.3343 0.2033
6 41 27 -3.9077 -0.3693
6 41 29 3.5887 -0.1060
6 41 31 1.0489 0.4488
6 41 33 -0.7622 0.6111
6 42 6 8.8796 0.4886
6 42 8 -0.1438 0.4843
6 42 10 -0.1100 -0.2992
6 42 12 -2.0317 -0.3194
6 42 14 -2.2312 0.0812
6 42 16 3.3282 -0.2262
6 42 18 -7.5449 -0.2322
6 42 20 -0.8136 0.3863
6 42 22 2.3572 -0.3157
6 42 24 9.1405 0.0794
6 42 26 -6.2676 -0.0616
6 42 28 0.8053 0.7004
6 42 30 1.3836 -0.4231
6 42 32 -0.4936 -0.0868
6 43 7 -0.0876 0.1083
6 43 9 -1.2234 -0.9055
6 43 11 -19.1493 -0.1771
6 43 13 -4.2448 0.2401
6 43 15 17.0441 -0.6934
6 43 17 -16.5224 0.5319
6 43 19 4.4402 -0.4198
6 43 21 -3.1989 0.3324
6 43 23 -3.6495 -0.5109
6 43 25 12.3958 0.2588
6 43 27 6.1733 -0.3421
6 43 29 -6.0253 -0.0418
6 44 6 -23.6376 0.1054
6 44 8 -5.2999 -0.6981
6 44 10 11.9426 -0.2090
6 44 12 -10.5147 0.6963
6 44 14 -7.0229 -0.3473
6 44 16 0.8196 0.0293
6 44 18 -2.3727 0.4876
6 44 20 0.8502 -0.2576
6 44 22 -16.3082 0.0870
6 44 24 10.4104 0.1030
6 44 26 2.2711 0.0730
6 44 28 -12.2108 0.2098
6 45 7 -2.2380 -0.4574
6 45 9 1.5541 0.5400
6 45 11 10.5678 0.1788
6 45 13 4.6207 -0.1259
6 45 15 -5.3197 0.6373
6 45 17 19.4902 -0.1324
6 45 19 -7.7171 0.2633
6 45 21 10.8523 -0.2353
6 45 23 5.6268 0.3693
6 45 25 5.1285 -0.1824
6 45 27 7.5394 -0.2958
6 46 6 5.1486 -0.6818
6 46 8 11.4204 1.0076
6 46 10 2.2095 0.4119
6 46 12 0.0361 -0.8956
6 46 14 0.6011 0.4613
6 46 16 21.8453 -0.1562
6 46 18 7.2649 -0.5130
6 46 20 11.3361 0.1257
6 46 22 0.3577 0.2320
6 46 24 -15.0043 -0.3652
6 46 26 -12.6317 0.5483
6 47 7 20.6548 0.8229
6 47 9 6.6089 -0.3534
6 47 11 6.9210 -0.0498
6 47 13 -3.3909 0.0918
6 47 15 7.6009 -0.3370
6 47 17 -26.8080 0.0031
6 47 19 -9.4950 -0.2916
6 47 21 -7.3358 0.1231
6 47 23 3.2885 -0.1133
6 48 6 1.2772 0.7786
6 48 8 -0.8236 -0.9717
6 48 10 15.4435 -0.3355
6 48 12 -1.0363 0.8448
6 48 14 12.3057 -0.5119
6 48 16 8.3432 -0.0516
6 48 18 23.0785 0.5110
6 48 20 0.5936 -0.1846
6 48 22 -5.0893 -0.3487
6 49 7 14.3069 -1.1455
6 49 9 2.5539 0.2752
6 49 11 -7.1074 -0.2413
6 49 13 8.1285 -0.2326
6 49 15 -6.7854 0.2895
6 49 17 -4.6926 -0.0080
6 49 19 -17.9157 0.6451
6 50 6 13.4362 -0.7617
6 50 8 -18.8280 0.7696
6 50 10 3.9075 0.0471
6 50 12 -2.2235 -0.1714
6 50 14 -7.1135 0.3515
6 50 16 3.9725 0.4036
6 51 7 -5.4190 1.2110
6 51 9 12.6527 -0.2212
6 51 11 -0.9967 0.3397
6 51 13 3.0934 0.1140
6 52 6 -3.6263 0.5367
6 52 8 -30.7240 -0.3343
7 8 7 142.4525 -3.6781
7 9 8 -23.3288 -0.7467
7 10 7 -83.4490 6.7831
7 10 9 -80.1420 -1.6467
7 11 8 -13.3968 -0.1469
7 11 10 20.1025 3.5048
7 12 7 87.4295 -6.8388
7 12 9 -0.8646 0.9943
7 12 11 28.8154 -0.5558
7 13 8 2.3391 0.8464
7 13 10 -0.8111 -1.5115
7 13 12 18.4972 0.1912
7 14 7 8.2886 4.4125
7 14 9 27.2007 -0.1897
7 14 11 -43.5801 -1.0192
7 14 13 19.3116 -0.4066
7 15 8 1.0984 -0.6529
7 15 10 26.7567 2.6984
7 15 12 -16.5331 2.9792
7 15 14 -20.2804 -1.4620
7 16 7 6.1041 -0.5392
7 16 9 -21.5694 -1.3047
7 16 11 -16.2441 -0.1439
7 16 13 0.0258 -1.4748
7 16 15 24.3206 -0.6777
7 17 8 -1.6226 -0.3126
7 17 10 -6.2644 -2.0932
7 17 12 27.3588 -1.4061
7 17 14 3.6793 3.1450
7 17 16 -10.8044 -0.6214
7 18 7 45.0281 -3.6061
7 18 9 -7.7311 2.8483
7 18 11 26.5644 -0.2502
7 18 13 -19.3975 0.3503
7 18 15 -4.9386 -1.5383
7 18 17 1.5199 -0.1875
7 19 8 11.2016 1.2937
7 19 10 -9.0068 0.7262
7 19 12 2.9940 -0.1043
7 19 14 4.7847 0.5681
7 19 16 -13.8896 0.8383
7 19 18 8.1237 1.5012
7 20 7 -7.0095 6.5699
7 20 9 2.5841 -1.9284
7 20 11 9.4580 -0.4503
7 20 13 18.6212 0.4075
7 20 15 -0.3302 0.5205
7 20 17 -12.4889 -0.9854
7 20 19 -6.2623 -0.5532
7 21 8 -3.3204 -1.1206
7 21 10 -4.2501 0.1326
7 21 12 -5.8365 0.3181
7 21 14 -1.4144 -1.5080
7 21 16 0.0143 0.6263
7 21 18 -2.4913 0.3075
7 21 20 4.3413 1.3755
7 22 7 -17.3322 -8.0914
7 22 9 -0.8857 0.5674
7 22 11 -10.8469 2.0878
7 22 13 13.9271 -1.0745
7 22 15 -1.5776 -1.0612
7 22 17 10.7892 0.9266
7 22 19 -8.8059 0.5395
7 22 21 -2.7793 -1.4418
7 23 8 -4.7955 0.2071
7 23 10 9.4272 -1.0075
7 23 12 7.2769 -0.4964
7 23 14 -5.7804 1.3080
7 23 16 12.3532 -0.1572
7 23 18 9.9418 -0.5495
7 23 20 7.4529 0.6208
7 23 22 -11.5849 0.8925
7 24 7 -2.6951 8.2753
7 24 9 6.9451 -0.2971
7 24 11 2.6843 -2.4549
7 24 13 2.0959 2.0132
7 24 15 -11.8334 0.5298
7 24 17 2.8795 -1.4212
7 24 19 4.1553 -0.6913
7 24 21 -2.6331 1.9055
7 24 23 6.7285 -0.9494
7 25 8 12.8142 1.1049
7 25 10 -2.2954 1.5952
7 25 12 -6.4401 0.4273
7 25 14 8.6444 -1.2913
7 25 16 -5.6340 0.7423
7 25 18 2.5766 0.6699
7 25 20 6.3927 -0.8963
7 25 22 -9.3841 0.6952
7 25 24 0.5385 0.4297
7 26 7 15.3624 -6.7282
7 26 9 0.6316 0.2025
7 26 11 0.3049 1.5099
7 26 13 3.5709 -1.3904
7 26 15 17.2615 -0.5620
7 26 17 -1.8923 1.5109
7 26 19 -0.1654 -0.5757
7 26 21 3.6861 -1.0967
7 26 23 -1.7968 0.7347
7 26 25 -4.0834 0.4046
7 27 8 -7.6748 -1.0801
7 27 10 3.1640 -2.0874
7 27 12 0.0358 -0.1562
7 27 14 1.6168 0.9666
7 27 16 0.3428 -1.5520
7 27 18 -2.4541 0.4277
7 27 20 0.7639 0.5058
7 27 22 0.2057 -0.2235
7 27 24 5.5111 0.5660
7 27 26 4.5222 -0.1516
7 28 7 -10.9010 3.7798
7 28 9 -4.6042 -0.5307
7 28 11 5.1827 -0.5075
7 28 13 -8.2619 0.5446
7 28 15 -4.5890 0.7028
7 28 17 3.8291 -0.8452
7 28 19 3.6480 0.6429
7 28 21 4.1915 -0.2005
7 28 23 -4.9021 -0.2391
7 28 25 11.8925 -0.5460
7 28 27 -22.9145 0.4781
7 29 8 -0.2393 0.5446
7 29 10 10.5230 2.6129
7 29 12 3.1078 0.2552
7 29 14 -0.5009 -0.8671
7 29 16 2.9200 1.4924
7 29 18 0.6928 -0.9857
7 29 20 -1.7218 0.2920
7 29 22 8.2777 -0.2611
7 29 24 -6.9583 0.4274
7 29 26 10.4979 0.7615
7 29 28 1.7745 -0.7800
7 30 7 1.1800 0.0222
7 30 9 12.6521 -0.0675
7 30 11 -8.2883 -0.3509
7 30 13 3.3027 0.0469
7 30 15 6.4660 -0.5534
7 30 17 -2.5828 0.5989
7 30 19 -5.4686 -0.6130
7 30 21 1.4459 0.7075
7 30 23 5.8330 -0.6188
7 30 25 -6.3022 0.1780
7 30 27 0.8823 0.0632
7 30 29 -13.6741 -0.5686
7 31 8 -8.1363 -0.5700
7 31 10 11.9916 -1.9707
7 31 12 10.0842 -0.0793
7 31 14 -10.8412 0.6607
7 31 16 10.7514 -1.2096
7 31 18 -3.5074 0.5898
7 31 20 3.9062 -0.2711
7 31 22 -5.0667 0.4932
7 31 24 3.6628 -1.0136
7 31 26 -18.8017 0.4004
7 31 28 5.0078 0.6181
7 31 30 21.9160 -0.7455
7 32 7 9.0828 -3.1753
7 32 9 9.2439 1.0250
7 32 11 -15.1231 0.3523
7 32 13 8.5246 -0.6582
7 32 15 -5.5453 0.1784
7 32 17 -0.7068 0.3087
7 32 19 -6.2526 -0.2296
7 32 21 6.3686 -0.2366
7 32 23 -1.1017 0.7259
7 32 25 -8.1003 -0.4443
7 32 27 -13.4544 -0.1704
7 32 29 1.4843 0.6274
7 32 31 5.5608 -0.5818
7 33 8 -7.0324 0.4593
7 33 10 5.9690 1.1047
7 33 12 -1.7862 0.0111
7 33 14 -4.5515 -0.0983
7 33 16 10.3113 0.6563
7 33 18 -8.6388 0.0070
7 33 20 -1.7570 -0.0097
7 33 22 1.6600 -0.2331
7 33 24 0.9355 0.8238
7 33 26 -2.9742 -0.6852
7 33 28 2.3542 0.1870
7 33 30 -0.6752 0.1846
7 33 32 9.1505 0.5417
7 34 7 -5.2557 5.2197
7 34 9 -4.8232 -1.2406
7 34 11 6.5483 -0.5754
7 34 13 -11.5338 1.0630
7 34 15 1.9937 -0.0732
7 34 17 -0.7902 -1.0872
7 34 19 4.1633 0.9416
7 34 21 -3.8164 -0.4102
7 34 23 -4.4793 -0.2340
7 34 25 17.4656 0.3765
7 34 27 12.8306 -0.3035
7 34 29 -1.9554 -0.0751
7 34 31 -3.8255 0.1434
7 34 33 -1.2472 0.3054
7 35 8 -20.6186 -0.3941
7 35 10 -0.4741 -0.4708
7 35 12 1.5141 0.1481
7 35 14 2.8276 0.0179
7 35 16 -3.8216 -0.1386
7 35 18 1.8476 -0.3603
7 35 20 3.5453 0.3617
7 35 22 -8.3029 -0.4025
7 35 24 -19.1547 -0.0807
7 35 26 7.1810 0.2806
7 35 28 6.7736 -0.1159
7 35 30 -2.7685 0.1678
7 35 32 0.6301 -0.2244
7 35 34 6.3539 0.6410
7 36 7 13.0938 -5.8414
7 36 9 -4.3218 1.1539
7 36 11 2.5908 0.9958
7 36 13 3.5973 -1.4755
7 36 15 6.8068 -0.1069
7 36 17 -0.0180 1.2028
7 36 19 -4.4910 -1.0102
7 36 21 4.3035 0.4514
7 36 23 2.1060 -0.0416
7 36 25 -7.1631 0.0422
7 36 27 -21.0308 0.0034
7 36 29 2.5021 -0.2582
7 36 31 0.6477 0.4161
7 36 33 9.1777 -0.3087
7 36 35 -6.2358 0.9227
7 37 8 0.7198 -0.1558
7 37 10 -1.8148 0.1323
7 37 12 -0.6056 -0.4680
7 37 14 -3.2712 0.1088
7 37 16 7.8642 -0.0566
7 37 18 3.5595 0.4775
7 37 20 -6.2224 -0.3909
7 37 22 6.5925 0.6709
7 37 24 -3.9716 -0.5116
7 37 26 -14.2990 0.4036
7 37 28 3.6564 -0.1263
7 37 30 13.9865 -0.2561
7 37 32 -0.7753 -0.0121
7 37 34 -0.6477 0.1743
7 37 36 12.0342 0.1647
7 38 7 -7.5781 5.1758
7 38 9 3.7120 -0.8694
7 38 11 -2.5690 -1.1895
7 38 13 1.3727 1.5076
7 38 15 -5.0638 0.2369
7 38 17 -0.1515 -1.0691
7 38 19 4.1248 0.6263
7 38 21 -3.0767 0.0505
7 38 23 3.3822 -0.2116
7 38 25 -5.8232 -0.3322
7 38 27 5.1391 0.3632
7 38 29 1.0608 0.1238
7 38 31 1.3088 -0.4310
7 38 33 -4.2340 0.1845
7 38 35 -4.7196 -0.2296
7 39 8 -4.7421 0.9343
7 39 10 7.5105 0.0937
7 39 12 -10.2014 0.5994
7 39 14 -2.2819 -0.1008
7 39 16 3.6733 0.0522
7 39 18 -7.4999 -0.2181
7 39 20 11.0289 0.0981
7 39 22 -7.5788 -0.4365
7 39 24 2.1441 0.7300
7 39 26 -1.7555 -0.5449
7 39 28 -17.0624 0.0130
7 39 30 -4.2419 0.2480
7 39 32 -0.2955 0.2126
7 39 34 -1.0827 -0.7687
7 40 7 2.9055 -3.7175
7 40 9 -2.8096 0.6044
7 40 11 1.7071 0.9454
7 40 13 2.6743 -1.0198
7 40 15 4.6777 -0.2837
7 40 17 4.2896 0.6705
7 40 19 -10.3081 -0.1998
7 40 21 9.9968 -0.4648
7 40 23 -7.7553 0.3523
7 40 25 17.3681 0.2109
7 40 27 -16.6140 -0.3747
7 40 29 -1.0295 0.2410
7 40 31 0.7182 0.0435
7 40 33 2.8542 0.1969
7 41 8 6.5219 -0.8881
7 41 10 -11.4065 -0.5630
7 41 12 5.0618 -0.5008
7 41 14 -7.0143 0.0086
7 41 16 -5.1468 -0.2178
7 41 18 1.4683 0.1561
7 41 20 -0.8241 -0.1435
7 41 22 6.1150 0.3419
7 41 24 -6.4956 -0.4364
7 41 26 1.6369 0.0654
7 41 28 -1.8007 0.4297
7 41 30 3.9897 -0.3879
7 41 32 -3.3470 -0.2219
7 42 7 -3.7528 1.6892
7 42 9 -2.7731 -0.6976
7 42 11 4.2347 -0.2245
7 42 13 17.1637 0.2686
7 42 15 -7.8026 0.5973
7 42 17 1.3534 -0.5148
7 42 19 4.5515 0.2388
7 42 21 -3.4502 0.4302
7 42 23 8.3670 -0.4737
7 42 25 -14.7667 0.1831
7 42 27 -19.5436 0.0501
7 42 29 4.1268 -0.2924
7 42 31 -6.9982 0.0148
7 43 8 -0.3271 0.5616
7 43 10 -8.8821 0.9806
7 43 12 -9.1947 0.3123
7 43 14 3.1491 -0.3376
7 43 16 6.3596 0.5679
7 43 18 0.4444 -0.0678
7 43 20 -0.7896 0.0461
7 43 22 -5.3520 0.0015
7 43 24 4.9763 -0.0963
7 43 26 -4.0017 0.2514
7 43 28 0.9606 -0.5854
7 43 30 -7.3173 0.4118
7 44 7 9.5408 0.1136
7 44 9 -12.0861 0.4609
7 44 11 16.7934 -0.3324
7 44 13 -2.0097 0.6205
7 44 15 6.7322 -0.8909
7 44 17 -10.6243 0.4536
7 44 19 11.6977 -0.3732
7 44 21 -5.7827 -0.3516
7 44 23 3.0994 0.5587
7 44 25 -0.5832 -0.0550
7 44 27 -0.3362 0.1522
7 44 29 1.0568 0.3073
7 45 8 -2.0914 0.0045
7 45 10 1.7830 -0.9888
7 45 12 17.4298 -0.2259
7 45 14 -20.2560 0.5601
7 45 16 16.5599 -0.8225
7 45 18 -18.8389 -0.0997
7 45 20 13.9026 0.2195
7 45 22 -26.9315 -0.1063
7 45 24 1.0261 -0.4198
7 45 26 23.5621 -0.0427
7 46 7 -8.1513 -1.5416
7 46 9 -7.0689 -0.0701
7 46 11 1.4136 0.5036
7 46 13 6.2516 -1.0689
7 46 15 -16.5467 0.9268
7 46 17 -1.7178 -0.1900
7 46 19 11.0389 0.2747
7 46 21 -6.1077 -0.2797
7 46 23 3.9957 0.4134
7 46 25 -15.9708 -0.5066
7 47 8 2.2561 -0.5334
7 47 10 -5.6264 0.7962
7 47 12 2.6820 0.0662
7 47 14 -4.9620 -0.5089
7 47 16 -9.0337 0.7999
7 47 18 2.6812 -0.0951
7 47 20 -8.2987 0.5890
7 47 22 -14.1216 -0.6105
7 48 7 -6.9870 2.4258
7 48 9 6.8304 -0.3030
7 48 11 0.9777 -0.3531
7 48 13 -1.5493 0.7802
7 48 15 -3.1701 -0.4607
7 48 17 19.0962 0.1184
7 48 19 3.2709 -0.5781
7 48 21 -8.9356 1.0284
7 49 8 -5.3827 0.4965
7 49 10 6.8301 -0.5515
7 49 12 1.1730 0.4979
7 49 14 -6.7615 0.0563
7 49 16 1.1096 -0.5649
7 49 18 19.7855 0.3236
7 50 7 5.8138 -2.7233
7 50 9 -5.2623 1.0341
7 50 11 1.4493 -0.2940
7 50 13 -3.7056 -0.1607
7 50 15 7.9423 -0.1442
7 51 8 2.3850 -0.6360
7 51 10 -5.1024 0.7881
7 51 12 6.1323 -1.6371
7 52 7 1.2713 2.3440
8 8 8 -130.9826 -4.8933
8 9 9 -11.2790 -2.8207
8 10 8 -11.7786 2.8693
8 10 10 14.6872 -1.5573
8 11 9 -10.9976 1.8459
8 11 11 -16.2308 -0.2098
8 12 8 -69.0107 -3.5794
8 12 10 21.2979 3.1837
8 12 12 -15.1430 0.3277
8 13 9 38.6011 -0.0525
8 13 11 -24.3517 0.7624
8 13 13 14.6884 0.8143
8 14 8 -120.4962 2.9577
8 14 10 14.9395 -3.4774
8 14 12 -39.6943 1.2157
8 14 14 -30.0503 0.3192
8 15 9 -13.9477 -0.8771
8 15 11 31.6348 -1.2813
8 15 13 -10.9265 -0.7149
8 15 15 -9.9187 0.7138
8 16 8 75.9956 -0.9330
8 16 10 10.6948 1.0811
8 16 12 1.6381 -0.2118
8 16 14 -7.6401 -0.1363
8 16 16 -11.1316 1.7875
8 17 9 -28.4823 0.7080
8 17 11 -16.2426 2.0598
8 17 13 10.4981 0.0596
8 17 15 -5.6923 1.1753
8 17 17 7.6017 -0.3072
8 18 8 29.3429 -1.0975
8 18 10 -15.4093 0.5686
8 18 12 -6.0553 0.6809
8 18 14 8.7699 -1.8735
8 18 16 1.1794 0.1419
8 18 18 -2.8782 0.0559
8 19 9 -1.6615 -0.6162
8 19 11 20.8524 -1.5089
8 19 13 -27.3582 -0.3167
8 19 15 16.9076 -0.7372
8 19 17 4.2963 1.0385
8 19 19 4.2886 -1.6488
8 20 8 20.3246 2.9806
8 20 10 -15.4037 -1.8324
8 20 12 -1.4171 -0.8193
8 20 14 -2.1056 2.1892
8 20 16 3.9090 -0.6567
8 20 18 -2.1744 -0.0605
8 20 20 3.4117 -2.2086
8 21 9 -2.2778 -0.5714
8 21 11 -11.7949 1.4351
8 21 13 24.6920 -0.2517
8 21 15 -0.1431 0.2338
8 21 17 -0.6981 0.3498
8 21 19 -5.3615 0.2308
8 21 21 7.4295 -2.2665
8 22 8 -6.1915 -4.4745
8 22 10 17.1589 2.8282
8 22 12 -1.1364 0.9344
8 22 14 15.6793 -1.7310
8 22 16 -3.9174 -0.0657
8 22 18 10.2162 1.0089
8 22 20 -11.3681 0.6087
8 22 22 5.7270 -3.7229
8 23 9 5.1373 1.2058
8 23 11 4.0283 -0.7934
8 23 13 10.2063 0.5255
8 23 15 -11.2460 0.3371
8 23 17 6.0547 -1.4258
8 23 19 2.2887 1.5963
8 23 21 2.5649 -0.3965
8 23 23 -2.7218 -1.9528
8 24 8 -24.6868 4.4939
8 24 10 11.2398 -3.5177
8 24 12 -4.8510 -0.3820
8 24 14 -6.6901 0.7644
8 24 16 5.0187 0.9568
8 24 18 0.1534 -2.3895
8 24 20 1.4018 1.7978
8 24 22 -2.5891 0.6213
8 24 24 4.3062 -2.8569
8 25 9 29.7805 -0.2318
8 25 11 11.3531 -0.5417
8 25 13 -10.9211 -0.7535
8 25 15 6.0276 -0.3601
8 25 17 -3.2529 1.4213
8 25 19 7.2453 -1.9423
8 25 21 0.7210 1.7945
8 25 23 -10.9069 -0.1454
8 25 25 -16.3644 -1.1603
8 26 8 17.5170 -3.7063
8 26 10 -14.1223 3.1261
8 26 12 4.8115 -0.1812
8 26 14 -8.6076 0.2123
8 26 16 14.5241 -1.3014
8 26 18 -4.9604 2.2687
8 26 20 -4.0421 -2.4435
8 26 22 0.0360 0.6545
8 26 24 2.2082 0.8007
8 26 26 -4.0928 -1.0799
8 27 9 -4.7094 -0.3333
8 27 11 -4.3029 2.1342
8 27 13 0.9587 0.1339
8 27 15 -5.7633 0.8590
8 27 17 17.4861 -1.1873
8 27 19 -6.3579 1.9733
8 27 21 -11.9580 -1.7658
8 27 23 5.9006 0.8867
8 27 25 1.5731 0.4127
8 27 27 -4.4162 -0.2203
8 28 8 5.6658 2.2164
8 28 10 -0.3383 -1.6570
8 28 12 -1.8856 -0.3328
8 28 14 -10.3897 -0.1319
8 28 16 -11.6422 0.7886
8 28 18 4.3601 -1.5467
8 28 20 -21.4026 1.2988
8 28 22 9.7802 -0.7389
8 28 24 16.9947 -0.2129
8 28 26 6.5275 0.2285
8 28 28 19.5630 0.5042
8 29 9 -4.9422 0.3532
8 29 11 -6.3261 -2.7128
8 29 13 -3.9308 0.3163
8 29 15 8.8280 -1.0755
8 29 17 -10.0349 0.6330
8 29 19 24.7294 -0.8395
8 29 21 -12.5477 1.2664
8 29 23 -13.6677 -0.4269
8 29 25 0.6827 -0.3118
8 29 27 -13.9179 0.4168
8 29 29 27.8496 0.4970
8 30 8 -11.8106 -0.2819
8 30 10 4.2016 0.3488
8 30 12 2.4978 0.4043
8 30 14 0.6278 0.1470
8 30 16 2.0495 -0.1906
8 30 18 -8.4209 0.4038
8 30 20 9.3143 -0.4664
8 30 22 20.3578 0.0200
8 30 24 -11.8983 0.0963
8 30 26 16.0755 -0.3089
8 30 28 -13.5343 -0.1495
8 30 30 6.6732 0.8988
8 31 9 -8.9191 -0.3064
8 31 11 -6.8262 1.8194
8 31 13 3.6946 0.1697
8 31 15 -6.6299 0.7916
8 31 17 14.9405 -0.6205
8 31 19 -12.1673 1.0681
8 31 21 -2.4464 -0.7172
8 31 23 4.0495 0.0415
8 31 25 -1.9304 0.8889
8 31 27 1.3976 -0.8127
8 31 29 -3.3046 0.3718
8 31 31 9.4780 0.5459
8 32 8 -10.9655 -1.1097
8 32 10 -10.4620 0.7262
8 32 12 3.7540 0.0105
8 32 14 -2.0768 -0.5526
8 32 16 6.9045 0.1354
8 32 18 2.7249 0.2648
8 32 20 -5.3657 -0.5721
8 32 22 3.9672 0.2594
8 32 24 5.4085 -0.2283
8 32 26 -10.3027 0.1401
8 32 28 8.8325 -0.2617
8 32 30 -10.8242 0.2840
8 32 32 2.4801 0.1862
8 33 9 -3.9969 0.5106
8 33 11 5.2142 -0.7914
8 33 13 -2.2755 -0.5939
8 33 15 -1.4261 -0.3177
8 33 17 -7.0608 0.4881
8 33 19 2.5732 -1.1715
8 33 21 -1.7273 0.5878
8 33 23 -3.8785 0.4690
8 33 25 -1.2379 -0.8351
8 33 27 0.2250 0.7089
8 33 29 -2.0113 -0.3940
8 33 31 -10.3792 -0.0128
8 33 33 11.9805 -0.3444
8 34 8 5.0835 2.5927
8 34 10 -2.3859 -1.5857
8 34 12 13.5315 -0.4647
8 34 14 -1.4751 0.8317
8 34 16 -14.8884 -0.3012
8 34 18 -3.5526 -0.2891
8 34 20 1.3887 0.6869
8 34 22 3.2382 -0.3733
8 34 24 -0.3223 -0.0466
8 34 26 8.2192 -0.0481
8 34 28 -3.8584 0.1605
8 34 30 1.7453 -0.4469
8 34 32 -7.4286 0.7559
8 34 34 3.9861 -1.0629
8 35 9 2.0715 -1.4127
8 35 11 -1.0936 0.5475
8 35 13 3.0960 0.4906
8 35 15 -15.9419 0.0765
8 35 17 -0.9084 -0.1668
8 35 19 0.3232 0.8430
8 35 21 13.2788 -0.1101
8 35 23 -0.8888 -0.5574
8 35 25 0.4425 0.6182
8 35 27 -4.3977 0.0302
8 35 29 2.5891 -0.1338
8 35 31 12.6888 -0.1014
8 35 33 5.8741 0.6000
8 35 35 10.3834 -1.4276
8 36 8 12.5900 -2.8081
8 36 10 -12.8605 1.7517
8 36 12 9.9976 0.4766
8 36 14 -28.5259 -0.7901
8 36 16 -18.4026 0.0441
8 36 18 -11.5101 0.1759
8 36 20 -5.2274 -0.3591
8 36 22 4.5547 0.1086
8 36 24 -4.7053 0.0704
8 36 26 0.1653 -0.1124
8 36 28 -2.7394 -0.1203
8 36 30 -11.6944 0.0009
8 36 32 1.2084 -0.3967
8 36 34 -3.8895 1.2437
8 36 36 11.0148 -2.1741
8 37 9 1.0977 1.6907
8 37 11 5.5252 -0.0797
8 37 13 14.1629 0.0868
8 37 15 2.6806 0.0062
8 37 17 -15.8499 0.3281
8 37 19 0.4694 -0.5212
8 37 21 9.8334 -0.3845
8 37 23 11.0185 0.7952
8 37 25 -2.7866 -0.4494
8 37 27 5.4627 -0.1451
8 37 29 1.9219 0.6693
8 37 31 -10.5249 -0.0959
8 37 33 -1.7187 -0.5172
8 37 35 -6.0131 0.7090
8 37 37 6.7148 -1.8853
8 38 8 -4.7760 2.4405
8 38 10 2.3638 -1.6482
8 38 12 2.5004 -0.2916
8 38 14 -10.6372 0.1336
8 38 16 -7.2067 0.2064
8 38 18 8.7791 -0.4034
8 38 20 1.6472 0.1565
8 38 22 -2.3322 0.1672
8 38 24 7.6623 -0.3423
8 38 26 -5.7740 0.1639
8 38 28 2.3284 -0.2660
8 38 30 7.5194 0.3809
8 38 32 5.7688 -0.4049
8 38 34 4.5824 0.2387
8 38 36 -8.9540 1.6656
8 39 9 0.1864 -1.3149
8 39 11 -0.6988 -0.5544
8 39 13 -8.1924 -0.1290
8 39 15 2.4275 0.0165
8 39 17 6.3372 -0.1637
8 39 19 3.3374 0.1091
8 39 21 5.5468 0.5390
8 39 23 -8.5801 -0.4716
8 39 25 16.0418 0.2020
8 39 27 -3.1734 0.4333
8 39 29 -9.5188 -0.7156
8 39 31 -13.5847 0.5308
8 39 33 4.8027 -0.2403
8 39 35 2.0316 -1.2645
8 40 8 9.1039 -1.6963
8 40 10 2.8609 1.1447
8 40 12 -7.4803 0.2619
8 40 14 12.4364 -0.3481
8 40 16 1.7423 -0.0374
8 40 18 -2.0108 0.3944
8 40 20 10.5272 -0.0744
8 40 22 2.5746 -0.2433
8 40 24 -10.2633 0.2662
8 40 26 0.1365 -0.3155
8 40 28 6.1181 0.2629
8 40 30 5.2649 -0.7135
8 40 32 -7.7098 0.7836
8 40 34 0.4549 0.6825
8 41 9 -0.7482 0.8108
8 41 11 -1.7179 0.9264
8 41 13 12.7212 0.2361
8 41 15 -18.1063 0.2242
8 41 17 -1.7590 0.0083
8 41 19 -13.9845 0.2106
8 41 21 0.4956 -0.4270
8 41 23 -8.9308 0.1465
8 41 25 -12.6684 0.1490
8 41 27 1.0768 -0.3318
8 41 29 9.9146 0.7518
8 41 31 2.6420 -0.3544
8 42 8 1.8306 0.6279
8 42 10 -2.2474 -0.4113
8 42 12 10.9684 -0.3018
8 42 14 -9.8059 0.5027
8 42 16 -3.9574 -0.3771
8 42 18 8.6932 -0.4141
8 42 20 -3.2853 0.4249
8 42 22 -0.2594 -0.2390
8 42 24 6.5913 0.1184
8 42 26 -8.0515 0.1540
8 42 28 3.9849 -0.5475
8 42 30 0.6286 0.1199
8 43 9 -2.1596 -0.2782
8 43 11 4.0689 -0.9577
8 43 13 -5.2743 -0.2130
8 43 15 14.4684 -0.2881
8 43 17 -29.5540 0.1588
8 43 19 -2.0978 -0.6189
8 43 21 12.4176 0.3696
8 43 23 2.7347 -0.0963
8 43 25 -2.8263 -0.3084
8 43 27 -10.9287 0.6077
8 43 29 0.8963 0.2927
8 44 8 7.1102 0.3238
8 44 10 -3.2221 -0.1336
8 44 12 4.1233 0.0257
8 44 14 5.6579 -0.3245
8 44 16 12.5934 0.5002
8 44 18 10.4316 0.3632
8 44 20 -12.1188 -0.4601
8 44 22 -11.4262 0.4749
8 44 24 8.7698 -0.1789
8 44 26 11.7575 -0.2135
8 44 28 7.8377 -0.6406
8 45 9 8.8657 -0.1530
8 45 11 -0.5637 0.5933
8 45 13 14.8559 0.1900
8 45 15 -22.1805 0.2063
8 45 17 8.7273 -0.1985
8 45 19 1.3940 0.7248
8 45 21 8.4796 -0.1340
8 45 23 -1.4142 -0.0357
8 45 25 -10.9761 0.3110
8 45 27 -1.8723 0.5206
8 46 8 13.7747 -0.8308
8 46 10 -11.1092 0.4421
8 46 12 13.6467 0.3384
8 46 14 -7.6674 0.1066
8 46 16 12.8541 -0.3447
8 46 18 -4.5556 -0.1465
8 46 20 6.9723 0.1626
8 46 22 -11.9215 -0.3666
8 46 24 -2.0737 0.1295
8 47 9 -0.6135 0.7613
8 47 11 -18.1749 -0.2645
8 47 13 -3.2682 -0.2731
8 47 15 8.5148 -0.0642
8 47 17 -1.3875 -0.1458
8 47 19 4.8806 -0.4083
8 47 21 -14.7254 -0.3293
8 47 23 -2.7454 0.1337
8 48 8 -9.2583 1.1506
8 48 10 -11.7122 -0.7293
8 48 12 8.9267 -0.3391
8 48 14 -0.1552 0.0245
8 48 16 -12.2978 0.1672
8 48 18 -6.2323 0.1481
8 48 20 -6.5840 0.0638
8 49 9 -2.5161 -1.5246
8 49 11 -4.7248 0.2755
8 49 13 -12.3821 0.3111
8 49 15 -3.7585 -0.1538
8 49 17 4.0877 0.5205
8 49 19 -11.7697 -0.3495
8 50 8 -24.3965 -0.9079
8 50 10 -10.1520 0.5879
8 50 12 -4.1747 0.1013
8 50 14 -9.3406 -0.1962
8 50 16 -15.2318 -0.1109
8 51 9 -5.4737 1.9670
8 51 11 5.8185 -0.4736
9 10 9 44.2412 4.9871
9 11 10 -16.3368 -0.6686
9 12 9 -2.4804 -5.3528
9 12 11 16.5181 0.0363
9 13 10 2.0465 -0.3599
9 13 12 -26.1894 -2.0605
9 14 9 16.5302 3.2021
9 14 11 -6.0136 2.0241
9 14 13 -8.7207 -0.6080
9 15 10 -26.8842 0.5380
9 15 12 -3.8041 -2.1881
9 15 14 15.6490 2.1130
9 16 9 17.9117 -0.5048
9 16 11 2.2494 -0.7608
9 16 13 6.4371 2.5211
9 16 15 -0.9854 -1.7151
9 17 10 7.5815 -0.3787
9 17 12 -4.5532 -0.3004
9 17 14 -16.0613 -4.0564
9 17 16 -7.6251 -0.0455
9 18 9 0.4131 -2.0283
9 18 11 -1.5646 -0.9432
9 18 13 0.1344 0.8483
9 18 15 1.2717 2.2219
9 18 17 11.6880 -0.8284
9 19 10 -13.6902 1.6079
9 19 12 19.3918 0.9316
9 19 14 -4.2129 1.2370
9 19 16 -2.2365 -1.3645
9 19 18 -11.1745 -1.0974
9 20 9 17.0896 3.9239
9 20 11 -26.2378 0.6479
9 20 13 6.6463 -1.2794
9 20 15 -4.7469 -0.7849
9 20 17 3.2685 1.5152
9 20 19 8.9974 -0.0034
9 21 10 4.1902 -1.1129
9 21 12 -3.8427 -0.3686
9 21 14 -1.2266 0.5806
9 21 16 5.2014 -0.7832
9 21 18 6.9932 0.0248
9 21 20 0.1543 -1.7153
9 22 9 -17.9927 -5.0599
9 22 11 21.9410 -2.2884
9 22 13 -2.4124 1.3768
9 22 15 11.5020 0.9277
9 22 17 -14.3805 -1.2328
9 22 19 3.0731 0.1127
9 22 21 -2.3403 0.9924
9 23 10 4.9143 0.9210
9 23 12 -2.9907 -0.0762
9 23 14 1.7279 -0.8005
9 23 16 -1.0939 0.3861
9 23 18 -3.8125 0.3023
9 23 20 -4.3834 -0.4635
9 23 22 14.9995 -0.8768
9 24 9 -0.9779 5.4460
9 24 11 -3.7973 2.1256
9 24 13 -15.9453 -1.7291
9 24 15 0.9842 -0.6163
9 24 17 4.2014 1.6652
9 24 19 -2.6595 -0.2068
9 24 21 3.4862 -1.1416
9 24 23 -6.1703 0.9995
9 25 10 2.3106 -0.3572
9 25 12 -1.0348 1.4666
9 25 14 0.1233 0.9254
9 25 16 -5.9311 -0.1410
9 25 18 -2.1526 -0.5504
9 25 20 -2.2040 0.4715
9 25 22 8.6086 -0.6238
9 25 24 7.6035 -0.4778
9 26 9 1.3018 -4.6508
9 26 11 -4.4454 -1.6048
9 26 13 6.6993 1.1588
9 26 15 -16.4900 -0.4135
9 26 17 0.8934 -0.8211
9 26 19 2.6273 0.4758
9 26 21 2.2698 0.9634
9 26 23 -3.0754 -0.5348
9 26 25 3.1457 -0.4279
9 27 10 4.9891 -0.2944
9 27 12 -5.8281 -1.8867
9 27 14 -2.5335 -0.6498
9 27 16 0.2540 0.2299
9 27 18 4.0618 0.1293
9 27 20 -0.2210 -0.4570
9 27 22 -1.4237 0.4328
9 27 24 -2.7070 -1.0555
9 27 26 5.2254 0.0475
9 28 9 -2.7914 2.5110
9 28 11 -3.6584 1.2591
9 28 13 1.7948 -0.4336
9 28 15 -0.3555 -0.0767
9 28 17 -1.7991 0.4882
9 28 19 -4.2344 -0.6711
9 28 21 -7.4652 0.2034
9 28 23 4.3631 0.2938
9 28 25 -0.9063 0.6255
9 28 27 8.7470 -0.6417
9 29 10 4.2868 -0.1028
9 29 12 -2.7605 1.9504
9 29 14 -3.5162 0.6870
9 29 16 15.3312 0.3536
9 29 18 -8.7060 0.2545
9 29 20 2.3248 0.0257
9 29 22 0.7751 -0.1568
9 29 24 -0.3834 0.0069
9 29 26 2.7279 -0.8968
9 29 28 -13.2644 0.3973
9 30 9 -8.7184 0.0717
9 30 11 0.7477 -0.1695
9 30 13 -4.2301 -0.3620
9 30 15 7.6596 0.0299
9 30 17 12.0233 -0.2667
9 30 19 -9.6871 0.0707
9 30 21 -4.3378 -0.2996
9 30 23 2.3709 0.3375
9 30 25 -8.2475 -0.0177
9 30 27 5.0004 0.2329
9 30 29 1.0903 -0.1170
9 31 10 9.6626 -0.0253
9 31 12 -1.8975 -1.7791
9 31 14 3.9901 -0.6488
9 31 16 -8.2889 -0.2593
9 31 18 2.8679 -0.2895
9 31 20 -3.2993 0.1424
9 31 22 0.5005 -0.1668
9 31 24 -1.7279 0.6137
9 31 26 3.6798 -0.3760
9 31 28 -5.4153 -0.4521
9 31 30 -15.6065 -0.2478
9 32 9 -10.6122 -2.3047
9 32 11 -9.5639 -0.1479
9 32 13 9.3870 0.8738
9 32 15 1.1694 0.1048
9 32 17 0.3310 -0.3704
9 32 19 3.7949 0.6311
9 32 21 -7.9658 -0.0925
9 32 23 -17.3520 -0.5696
9 32 25 3.6416 0.2477
9 32 27 -0.8209 0.3079
9 32 29 3.5167 -0.5351
9 32 31 -7.0536 0.1433
9 33 10 9.2886 0.3314
9 33 12 27.1575 0.8990
9 33 14 -14.2494 0.2235
9 33 16 9.2086 0.3364
9 33 18 -5.5594 0.0859
9 33 20 0.6324 0.1422
9 33 22 6.8719 0.2297
9 33 24 -3.7482 -0.5912
9 33 26 1.4251 0.6422
9 33 28 -3.1641 -0.1440
9 33 30 5.8348 0.0350
9 33 32 -1.5295 -0.7983
9 34 9 13.0273 3.7361
9 34 11 -9.8168 0.5021
9 34 13 24.0941 -0.9575
9 34 15 9.2325 -0.0315
9 34 17 -2.7883 0.9265
9 34 19 -0.4819 -1.1475
9 34 21 2.6548 0.5439
9 34 23 3.1105 0.0257
9 34 25 -1.0963 -0.2085
9 34 27 -7.9623 0.0495
9 34 29 -5.0602 0.3026
9 34 31 6.6533 -0.1612
9 34 33 -1.6721 -0.3335
9 35 10 10.6990 -0.0926
9 35 12 -7.6446 -0.1899
9 35 14 5.4439 -0.0277
9 35 16 -0.1878 -0.4556
9 35 18 -5.1544 0.0105
9 35 20 -6.2360 -0.5424
9 35 22 8.5024 0.2219
9 35 24 -3.9867 0.1699
9 35 26 2.7950 -0.3100
9 35 28 -1.6248 0.0605
9 35 30 -1.6973 0.0045
9 35 32 -2.1954 0.0462
9 35 34 -15.1219 -0.7170
9 36 9 0.9370 -4.2440
9 36 11 -4.4329 -1.0437
9 36 13 -6.3643 1.1160
9 36 15 -14.3991 0.2138
9 36 17 -0.7373 -1.1091
9 36 19 1.6206 1.2983
9 36 21 -4.6115 -0.5399
9 36 23 0.3813 0.0734
9 36 25 10.4531 0.0957
9 36 27 14.3051 -0.2157
9 36 29 0.8392 0.2468
9 36 31 0.9664 -0.0996
9 36 33 -1.6828 0.0089
9 36 35 -4.3119 -0.4001
9 37 10 -4.3670 -0.0834
9 37 12 13.8697 -0.5882
9 37 14 -0.7447 0.0159
9 37 16 -25.4483 0.0277
9 37 18 -0.7232 -0.0556
9 37 20 5.0478 0.6747
9 37 22 0.9386 -0.6206
9 37 24 -3.9714 0.5409
9 37 26 14.2995 -0.3850
9 37 28 3.0547 0.2032
9 37 30 -3.8530 -0.1903
9 37 32 6.2174 0.5533
9 37 34 -2.6214 -0.5456
9 37 36 -7.8246 0.3637
9 38 9 0.6844 3.7809
9 38 11 -0.0955 1.2636
9 38 13 3.0671 -1.1312
9 38 15 0.1855 -0.0457
9 38 17 8.7785 0.8558
9 38 19 -3.4501 -0.6479
9 38 21 6.8205 -0.0369
9 38 23 -1.3984 0.1060
9 38 25 2.1424 0.3367
9 38 27 10.0976 -0.4119
9 38 29 -3.7371 0.1793
9 38 31 -6.5859 -0.1847
9 38 33 2.1052 0.0525
9 38 35 5.3936 -0.0463
9 39 10 2.7845 0.4370
9 39 12 -0.7979 0.9342
9 39 14 11.7022 0.1017
9 39 16 6.4758 0.2825
9 39 18 4.6789 -0.0786
9 39 20 -6.9772 -0.3550
9 39 22 1.4433 0.5358
9 39 24 0.4378 -0.9570
9 39 26 1.7281 0.6720
9 39 28 0.2390 -0.1288
9 39 30 1.3899 0.0809
9 39 32 0.7776 -0.4143
9 39 34 1.2292 0.7953
9 40 9 -5.8759 -2.5420
9 40 11 10.0969 -1.0716
9 40 13 -5.7038 0.7646
9 40 15 1.1465 0.0430
9 40 17 -1.7757 -0.7104
9 40 19 1.5796 0.1133
9 40 21 -5.4274 0.4562
9 40 23 1.6479 -0.2941
9 40 25 -3.2771 -0.1264
9 40 27 12.2075 0.4735
9 40 29 8.2583 -0.5307
9 40 31 2.1724 0.3778
9 40 33 -3.4412 -0.1833
9 41 10 3.0496 -0.4881
9 41 12 -1.8274 -1.0845
9 41 14 -3.6456 -0.0524
9 41 16 0.1921 -0.5266
9 41 18 -5.9847 0.4156
9 41 20 7.7259 -0.2028
9 41 22 -0.8752 -0.1743
9 41 24 -1.8895 0.5230
9 41 26 -2.6998 -0.2826
9 41 28 6.9514 -0.1564
9 41 30 -0.1370 0.2153
9 41 32 -2.3547 0.2978
9 42 9 6.6373 0.9638
9 42 11 -5.7012 0.7728
9 42 13 16.1499 -0.4604
9 42 15 0.1100 -0.1531
9 42 17 -1.2660 0.6592
9 42 19 -3.9348 -0.2026
9 42 21 4.4199 -0.2478
9 42 23 -3.4500 0.4120
9 42 25 -0.1201 -0.2767
9 42 27 -12.1600 -0.1353
9 42 29 -8.1388 0.3054
9 42 31 -2.8944 -0.3032
9 43 10 -0.6007 0.0331
9 43 12 -21.6867 1.0431
9 43 14 -0.7831 0.3542
9 43 16 1.6541 0.2762
9 43 18 -3.1869 -0.1255
9 43 20 3.0013 0.4218
9 43 22 -1.3686 -0.1567
9 43 24 0.6800 0.0579
9 43 26 0.3062 -0.1455
9 43 28 10.6020 0.5404
9 43 30 1.8196 -0.3747
9 44 9 -1.4195 0.5326
9 44 11 11.1794 -0.3624
9 44 13 2.1641 0.0055
9 44 15 -9.5663 0.1997
9 44 17 -2.4105 -0.6692
9 44 19 -1.6826 0.3769
9 44 21 15.7817 -0.0834
9 44 23 -8.0938 -0.1657
9 44 25 8.7352 0.0212
9 44 27 -10.1912 -0.3412
9 45 10 -5.2023 0.4353
9 45 12 -14.1512 -0.6040
9 45 14 6.8534 -0.6574
9 45 16 -6.9561 0.2813
9 45 18 11.1443 -0.2902
9 45 20 -6.2808 -0.5716
9 45 22 0.2351 -0.0353
9 45 24 -20.6445 0.2845
9 45 26 2.8373 0.3758
9 46 9 13.2778 -1.5368
9 46 11 -11.6620 -0.0144
9 46 13 -20.3422 0.3233
9 46 15 -4.2544 -0.3430
9 46 17 19.8478 0.4211
9 46 19 -10.7610 -0.1532
9 46 21 2.1114 0.6992
9 46 23 6.2681 -0.4894
9 46 25 17.0556 0.0341
9 47 10 -3.3233 -0.6922
9 47 12 9.5911 0.3043
9 47 14 -9.7129 0.4745
9 47 16 -8.7208 -0.2178
9 47 18 14.8901 0.5040
9 47 20 -5.3330 -0.1904
9 47 22 13.1873 0.6792
9 48 9 -1.0085 1.9853
9 48 11 2.3924 0.1280
9 48 13 24.5730 -0.2675
9 48 15 19.7124 0.1924
9 48 17 -9.2879 -0.3290
9 48 19 0.3837 0.4556
9 48 21 -2.1411 -1.1080
9 49 10 -2.8750 1.0524
9 49 12 5.0885 -0.7024
9 49 14 2.5090 0.3996
9 49 16 -9.4180 -0.0959
9 49 18 -7.7293 -0.7540
9 50 9 -6.3699 -2.1429
9 50 11 -1.6809 0.3620
9 50 13 -14.9192 -0.2461
9 50 15 -11.1070 0.0285
9 51 10 5.3609 -1.1445
9 51 12 -7.2656 1.3712
10 10 10 -76.1271 5.8000
10 11 11 15.4177 1.1394
10 12 10 -67.9519 -2.0771
10 12 12 60.4493 -1.6243
10 13 11 -5.2176 -0.6068
10 13 13 20.0857 -2.3043
10 14 10 -7.3573 0.1897
10 14 12 10.1583 1.0068
10 14 14 -35.0272 -4.8896
10 15 11 29.3213 0.0344
10 15 13 -4.2758 0.5879
10 15 15 10.0532 -4.0856
10 16 10 -42.1779 1.0396
10 16 12 -8.0858 -0.7910
10 16 14 -4.1274 1.9695
10 16 16 3.3936 -3.6678
10 17 11 -6.5781 1.0850
10 17 13 16.5182 0.0920
10 17 15 -15.0782 2.4465
10 17 17 2.6440 -3.0247
10 18 10 51.9978 -3.1207
10 18 12 -21.8480 1.5084
10 18 14 21.9336 -0.0839
10 18 16 0.3626 0.8804
10 18 18 2.3165 -1.4554
10 19 11 -5.5918 -0.4669
10 19 13 5.4493 -1.4597
10 19 15 3.4104 -0.2892
10 19 17 -3.3360 -0.3521
10 19 19 3.6294 0.4331
10 20 10 7.5325 4.2349
10 20 12 9.3194 -2.0471
10 20 14 -9.0430 -1.0692
10 20 16 0.5488 1.3415
10 20 18 -5.7668 -0.3836
10 20 20 2.2910 2.6736
10 21 11 6.9381 0.8508
10 21 13 -12.5352 0.9671
10 21 15 -3.3232 -0.2774
10 21 17 1.5563 0.3430
10 21 19 5.5948 -0.8472
10 21 21 -13.0232 3.2644
10 22 10 -11.6635 -4.7101
10 22 12 -5.3772 2.5682
10 22 14 -11.3818 0.5847
10 22 16 8.9068 -0.5307
10 22 18 3.2878 -0.3484
10 22 20 3.5555 -1.1254
10 22 22 -1.5123 5.2731
10 23 11 -10.4335 0.2686
10 23 13 -15.3363 -0.4151
10 23 15 5.4490 0.3789
10 23 17 5.7900 0.6814
10 23 19 0.3966 -0.9138
10 23 21 2.1997 -0.9482
10 23 23 18.6971 3.5993
10 24 10 -4.5716 4.6024
10 24 12 -2.0828 -2.7741
10 24 14 -13.5660 -0.4395
10 24 16 8.6258 -0.4947
10 24 18 -8.8587 1.7074
10 24 20 1.4980 -0.9802
10 24 22 4.1246 -1.5526
10 24 24 -12.5858 4.4444
10 25 11 -7.5794 -0.5010
10 25 13 4.2477 -0.6192
10 25 15 0.9823 0.2096
10 25 17 1.9124 -1.5207
10 25 19 -1.8095 1.9723
10 25 21 6.1065 -1.2131
10 25 23 10.4043 -1.1475
10 25 25 13.5373 1.4999
10 26 10 5.8892 -3.1515
10 26 12 0.0634 2.2958
10 26 14 -7.3158 0.2214
10 26 16 -1.1625 0.8246
10 26 18 -2.3395 -2.3649
10 26 20 -3.9897 2.4881
10 26 22 1.6156 -0.6762
10 26 24 4.1999 -0.3411
10 26 26 5.6847 0.6614
10 27 11 4.1397 -0.4349
10 27 13 -6.6102 1.6660
10 27 15 -4.2700 0.0487
10 27 17 8.2919 1.2214
10 27 19 -1.8661 -1.3577
10 27 21 -0.8607 1.1758
10 27 23 -12.2094 -0.5785
10 27 25 -7.8176 -0.4281
10 27 27 5.8303 -1.5733
10 28 10 6.2756 1.4825
10 28 12 -5.5288 -1.0105
10 28 14 4.8504 -0.3508
10 28 16 -9.7647 -0.8255
10 28 18 7.0271 1.7341
10 28 20 3.8252 -1.8566
10 28 22 -1.2088 0.9952
10 28 24 5.5747 0.0882
10 28 26 6.8169 0.8487
10 28 28 6.7013 -2.3018
10 29 11 -7.6776 0.5811
10 29 13 -0.1149 -2.3001
10 29 15 8.7326 0.1494
10 29 17 -3.6421 -1.1571
10 29 19 2.1823 0.7676
10 29 21 6.0494 -0.9312
10 29 23 5.8475 0.5683
10 29 25 -0.3631 -0.0837
10 29 27 -2.2864 0.1605
10 29 29 2.3819 -3.4832
10 30 10 12.0900 -0.1272
10 30 12 -2.6338 -0.0333
10 30 14 6.3683 0.5305
10 30 16 10.4760 0.4936
10 30 18 -1.1232 -0.5559
10 30 20 -2.0292 0.6928
10 30 22 -4.8183 -0.2796
10 30 24 8.6622 -0.3949
10 30 26 -2.9713 0.3931
10 30 28 4.2670 1.4557
10 30 30 -5.5320 -3.1589
10 31 11 6.1656 -0.3213
10 31 13 -0.5425 1.6357
10 31 15 -1.7574 -0.1227
10 31 17 1.8069 1.1106
10 31 19 2.1387 -0.6130
10 31 21 -2.7750 0.4751
10 31 23 -6.1753 0.1209
10 31 25 0.3748 -0.8942
10 31 27 7.0182 0.6320
10 31 29 -2.7262 0.9243
10 31 31 4.9490 -3.3358
10 32 10 -8.2578 -1.1931
10 32 12 6.9720 0.5913
10 32 14 3.8801 0.0077
10 32 16 7.2105 -0.4810
10 32 18 -8.0780 -0.1800
10 32 20 9.5342 0.4114
10 32 22 -4.4426 -0.3046
10 32 24 -6.2352 0.5242
10 32 26 -0.1240 -0.6078
10 32 28 -1.4044 0.2252
10 32 30 -5.3492 0.9195
10 32 32 -20.1870 -1.3975
10 33 11 -5.1150 -0.0032
10 33 13 -1.7868 -0.1305
10 33 15 2.3865 -0.4124
10 33 17 4.0259 -1.0428
10 33 19 -6.8666 0.7918
10 33 21 2.0397 -0.7432
10 33 23 8.7479 -0.2490
10 33 25 4.1219 1.0448
10 33 27 -4.0488 -1.1170
10 33 29 2.4272 0.1674
10 33 31 0.7416 0.6951
10 33 33 -4.7888 -1.0616
10 34 10 -9.5182 1.8526
10 34 12 1.6969 -0.9284
10 34 14 6.5355 -0.4976
10 34 16 9.4185 0.6644
10 34 18 6.6699 0.4617
10 34 20 -9.5021 -0.6943
10 34 22 6.5216 0.4065
10 34 24 -2.5159 -0.0725
10 34 26 -4.2200 0.2012
10 34 28 4.1700 -0.5373
10 34 30 -1.1640 0.5522
10 34 32 -18.2679 -0.2916
10 34 34 -15.8556 0.8777
10 35 11 -3.4129 -0.3285
10 35 13 -1.2687 -0.8548
10 35 15 13.2049 0.4531
10 35 17 -1.7609 0.7918
10 35 19 -2.0037 -0.8867
10 35 21 6.3072 0.7374
10 35 23 3.8416 0.2568
10 35 25 -6.8150 -0.8217
10 35 27 5.7027 0.7807
10 35 29 3.7520 -0.3621
10 35 31 -6.7323 -0.0490
10 35 33 3.0761 -0.1523
10 35 35 -5.2324 1.5719
10 36 10 24.8593 -2.3319
10 36 12 -16.4044 1.7051
10 36 14 19.6761 0.3886
10 36 16 8.4941 -0.3594
10 36 18 0.4272 -0.3715
10 36 20 6.4938 0.5611
10 36 22 -3.4215 -0.1728
10 36 24 -2.1613 -0.3017
10 36 26 2.3621 0.2918
10 36 28 -5.9531 0.1962
10 36 30 3.3212 -0.1978
10 36 32 -1.8363 0.4226
10 36 34 3.3975 -1.3198
10 36 36 -3.1659 2.8225
10 37 11 7.0396 0.6657
10 37 13 -8.1884 1.1076
10 37 15 5.7376 -0.2924
10 37 17 8.2437 -0.4657
10 37 19 17.5932 0.4204
10 37 21 7.6858 -0.3710
10 37 23 -9.0783 -0.3049
10 37 25 7.2576 0.1211
10 37 27 -3.4350 0.2742
10 37 29 -4.3184 -0.6246
10 37 31 2.2293 0.1553
10 37 33 5.7148 0.4686
10 37 35 3.6520 -1.6787
10 38 10 -0.4436 2.4109
10 38 12 -0.3456 -1.9722
10 38 14 19.4664 -0.0877
10 38 16 10.4313 0.0966
10 38 18 1.4267 0.4268
10 38 20 -3.1960 -0.4140
10 38 22 3.2661 0.1611
10 38 24 -6.0347 0.4685
10 38 26 9.8127 -0.4808
10 38 28 -3.3139 0.2518
10 38 30 -1.8317 -0.2021
10 38 32 -7.6823 0.0592
10 38 34 3.0092 0.8447
10 39 11 -2.8854 -0.6691
10 39 13 4.2962 -1.2953
10 39 15 -6.2940 -0.1010
10 39 17 22.6828 0.1894
10 39 19 2.5443 -0.1274
10 39 21 -5.2058 -0.0639
10 39 23 15.2255 0.2881
10 39 25 11.1885 0.0369
10 39 27 12.5558 -0.5928
10 39 29 0.0873 0.6982
10 39 31 8.5361 -0.0955
10 39 33 -7.6853 -0.4905
10 40 10 -7.1890 -1.9307
10 40 12 0.8652 1.7549
10 40 14 -2.8784 0.3621
10 40 16 1.1558 -0.1370
10 40 18 11.2818 -0.4104
10 40 20 -0.3012 0.4859
10 40 22 -2.7260 -0.2974
10 40 24 9.1912 -0.0663
10 40 26 -7.6626 0.3323
10 40 28 -10.4708 -0.1749
10 40 30 -1.5314 0.3420
10 40 32 2.4236 -0.1345
10 41 11 3.6457 0.1741
10 41 13 -0.2916 1.3959
10 41 15 -8.6232 -0.0777
10 41 17 -3.3476 0.3161
10 41 19 12.5746 -0.0286
10 41 21 -6.3149 0.3190
10 41 23 3.2320 -0.3750
10 41 25 25.8655 -0.1005
10 41 27 7.4686 0.2472
10 41 29 -6.1600 -0.3714
10 41 31 0.5081 -0.7492
10 42 10 -8.1480 1.3035
10 42 12 3.5817 -0.9806
10 42 14 6.5535 -0.7816
10 42 16 4.3877 0.6619
10 42 18 -13.5565 0.0210
10 42 20 15.4864 -0.7373
10 42 22 -7.8464 0.7160
10 42 24 -2.0982 -0.3651
10 42 26 17.1629 0.0237
10 42 28 -27.1411 0.1920
10 42 30 -15.3932 0.7101
10 43 11 -1.2164 0.1420
10 43 13 -4.0081 -1.2580
10 43 15 7.1817 0.1791
10 43 17 -2.5383 -0.7974
10 43 19 -12.0043 0.4718
10 43 21 26.9198 -0.5929
10 43 23 -8.6198 0.3920
10 43 25 11.5354 0.1468
10 43 27 -3.9685 -0.1116
10 43 29 5.9224 -1.3356
10 44 10 1.4127 -0.6040
10 44 12 -6.1206 0.4341
10 44 14 9.6222 0.8008
10 44 16 -2.0290 -0.6767
10 44 18 -2.8043 0.0241
10 44 20 -1.2419 0.7643
10 44 22 24.6233 -0.8083
10 44 24 4.3764 0.2180
10 44 26 2.7247 0.1370
10 44 28 -8.6723 1.0818
10 45 11 0.5289 -0.3462
10 45 13 -0.5674 0.5953
10 45 15 -0.6839 -0.0079
10 45 17 1.6026 0.8281
10 45 19 -2.0027 -0.4873
10 45 21 -0.5185 0.7105
10 45 23 15.0520 -0.2866
10 45 25 1.9501 0.1336
10 46 10 3.6092 0.0316
10 46 12 -6.9292 -0.2911
10 46 14 13.1332 -0.2199
10 46 16 -19.7146 0.2095
10 46 18 4.0656 0.0136
10 46 20 0.9301 -0.5585
10 46 22 -1.2624 0.4432
10 46 24 -4.1998 -0.0549
10 47 11 18.7955 0.6259
10 47 13 10.3013 0.2066
10 47 15 -5.5033 -0.3675
10 47 17 4.3603 -0.3315
10 47 19 2.6035 -0.0109
10 47 21 -1.7300 -0.1322
10 48 10 0.6932 0.0609
10 48 12 32.4351 0.1832
10 48 14 2.0015 -0.2623
10 48 16 -5.2686 0.2458
10 48 18 3.1553 -0.1199
10 48 20 -1.4146 0.2598
10 49 11 -14.8618 -0.9679
10 49 13 13.8543 -0.6594
10 49 15 10.5259 0.4471
10 49 17 -1.4181 -0.2875
10 50 10 2.3200 -0.4333
10 50 12 3.7306 0.3133
10 50 14 -4.8132 0.5689
10 51 11 -8.7289 1.3270
11 12 11 -13.6300 -0.9770
11 13 12 -21.4843 1.1914
11 14 11 -2.4575 0.5444
11 14 13 10.5063 1.8009
11 15 12 -15.4998 1.9025
11 15 14 -7.6271 0.7201
11 16 11 21.2511 0.0307
11 16 13 -9.6708 -1.9849
11 16 15 6.4548 0.6544
11 17 12 9.3261 -1.5750
11 17 14 14.9350 2.0391
11 17 16 -5.0858 -0.9259
11 18 11 2.8956 -0.6794
11 18 13 -20.0593 -0.1167
11 18 15 6.1345 -1.4562
11 18 17 -14.8619 1.2670
11 19 12 -4.3576 0.9571
11 19 14 -7.5148 -0.1672
11 19 16 -1.0899 1.6645
11 19 18 14.2265 1.3604
11 20 11 1.7101 1.0739
11 20 13 9.5733 2.3359
11 20 15 0.3950 -0.6724
11 20 17 3.7973 -0.7119
11 20 19 -4.3014 0.5389
11 21 12 0.2813 -1.3712
11 21 14 8.2242 -0.3153
11 21 16 -5.7349 -0.3455
11 21 18 0.5378 -0.6303
11 21 20 0.0826 2.0670
11 22 11 -16.0698 -1.5217
11 22 13 2.3264 -1.8389
11 22 15 -4.5436 0.3130
11 22 17 2.8078 0.6609
11 22 19 0.5382 -0.1202
11 22 21 2.8829 -0.3875
11 23 12 6.7902 0.3270
11 23 14 1.1936 -0.3153
11 23 16 4.6445 0.2238
11 23 18 -7.1023 -0.0626
11 23 20 -2.4156 -0.6336
11 23 22 -12.0509 1.6883
11 24 11 19.0381 1.4908
11 24 13 9.8618 2.9284
11 24 15 -6.6102 -0.5572
11 24 17 -0.3529 -0.7257
11 24 19 2.5031 0.4752
11 24 21 -6.6015 0.4809
11 24 23 2.5927 -0.3940
11 25 12 2.0946 -0.2007
11 25 14 -6.4969 0.9109
11 25 16 6.7818 -0.6992
11 25 18 -7.3056 1.0446
11 25 20 7.1536 -0.1999
11 25 22 -9.6874 0.2001
11 25 24 -2.9787 0.6664
11 26 11 -5.2086 -1.1215
11 26 13 0.4941 -2.1628
11 26 15 7.1877 0.7232
11 26 17 1.5089 0.4887
11 26 19 0.8477 -0.8027
11 26 21 -2.4001 -0.2646
11 26 23 0.2512 0.1635
11 26 25 3.3606 0.2321
11 27 12 4.4193 -0.8596
11 27 14 2.9757 -1.5367
11 27 16 -5.3022 0.6363
11 27 18 19.4818 -1.3736
11 27 20 -1.4560 0.2687
11 27 22 1.3772 0.0157
11 27 24 -0.8975 0.8491
11 27 26 20.2007 -0.1298
11 28 11 2.6716 0.6453
11 28 13 1.4404 1.4397
11 28 15 14.6770 -0.1463
11 28 17 -11.2744 0.3302
11 28 19 3.0648 0.2577
11 28 21 0.5640 0.0988
11 28 23 0.0584 -0.5712
11 28 25 -4.0531 -0.3979
11 28 27 12.1029 0.5904
11 29 12 9.2772 1.3547
11 29 14 6.9129 1.0469
11 29 16 -7.9197 -0.8611
11 29 18 8.6376 1.4246
11 29 20 4.6690 -0.2430
11 29 22 -6.5675 -0.1279
11 29 24 -2.5418 -0.0188
11 29 26 0.6763 1.1699
11 29 28 20.0661 -0.0537
11 30 11 12.0930 -0.1005
11 30 13 -8.1449 -0.3143
11 30 15 21.1318 -0.2398
11 30 17 5.2006 -0.1686
11 30 19 -7.8956 -0.0738
11 30 21 -0.8911 0.3826
11 30 23 -0.9143 -0.0727
11 30 25 4.5935 -0.2976
11 30 27 -7.0958 -0.1043
11 30 29 10.1905 0.2212
11 31 12 -5.4417 -1.0134
11 31 14 -0.1845 -0.4990
11 31 16 -0.2578 0.2681
11 31 18 -3.2458 -1.2220
11 31 20 -1.3441 0.0483
11 31 22 4.3624 0.0933
11 31 24 6.2170 -0.3511
11 31 26 -1.9865 0.0022
11 31 28 -5.1917 0.1976
11 31 30 -15.2401 0.6574
11 32 11 -2.9356 -0.4711
11 32 13 -2.1271 -0.9812
11 32 15 1.5879 0.5775
11 32 17 -4.8351 0.5698
11 32 19 -0.9234 -0.5727
11 32 21 -3.5676 0.1712
11 32 23 -5.7636 0.2078
11 32 25 -0.3400 0.1752
11 32 27 -0.8589 -0.5585
11 32 29 -7.1355 0.6020
11 32 31 4.3100 -0.0142
11 33 12 14.7020 0.5226
11 33 14 -11.0722 0.1814
11 33 16 9.6599 -0.0458
11 33 18 -9.7954 0.9778
11 33 20 10.2730 -0.1359
11 33 22 -6.8705 -0.0959
11 33 24 -3.9654 0.3636
11 33 26 5.6205 -0.3919
11 33 28 -0.1334 0.3183
11 33 30 -3.9945 -0.3056
11 33 32 -16.0577 1.0903
11 34 11 17.1678 1.0352
11 34 13 15.4671 1.4593
11 34 15 -12.0095 -0.4393
11 34 17 4.2969 -1.1108
11 34 19 7.2625 1.0359
11 34 21 2.0722 -0.4437
11 34 23 -8.4600 -0.1624
11 34 25 -9.7079 0.4199
11 34 27 1.6843 -0.1976
11 34 29 -1.8765 -0.2149
11 34 31 -0.7310 0.2554
11 34 33 1.0515 0.1372
11 35 12 -8.3108 -0.0865
11 35 14 17.3660 0.3780
11 35 16 -12.1191 0.0362
11 35 18 1.2645 -0.4783
11 35 20 -0.4517 0.1649
11 35 22 -5.3417 -0.1102
11 35 24 0.1438 -0.3899
11 35 26 -1.2946 0.3278
11 35 28 0.5751 -0.1393
11 35 30 2.0077 -0.1089
11 35 32 -6.5959 -0.0617
11 35 34 -1.4918 0.3658
11 36 11 -5.7332 -1.3012
11 36 13 -11.6021 -1.8813
11 36 15 18.6873 0.3102
11 36 17 -2.9075 0.8539
11 36 19 -6.7919 -0.9393
11 36 21 2.3433 0.3669
11 36 23 4.9409 0.1394
11 36 25 -6.6218 -0.2080
11 36 27 -6.1061 0.1853
11 36 29 4.9299 -0.1113
11 36 31 -1.3485 -0.1239
11 36 33 -2.9290 0.2033
11 36 35 9.0657 0.3076
11 37 12 -4.5289 -0.0985
11 37 14 7.5703 -1.0131
11 37 16 11.5345 0.3582
11 37 18 -2.0662 -0.0505
11 37 20 0.0053 -0.0465
11 37 22 -6.9756 0.3939
11 37 24 6.0506 -0.0864
11 37 26 -18.3317 0.1122
11 37 28 -4.3490 -0.1932
11 37 30 5.8270 0.5172
11 37 32 -5.9001 -0.5622
11 37 34 -1.3013 0.6667
11 37 36 18.6474 -0.0332
11 38 11 4.2475 1.2929
11 38 13 -9.1960 2.0082
11 38 15 -12.5804 -0.4068
11 38 17 0.3953 -0.4109
11 38 19 3.8305 0.3812
11 38 21 0.4305 -0.0268
11 38 23 -2.6701 -0.2750
11 38 25 6.0690 -0.0210
11 38 27 -9.2851 0.2278
11 38 29 1.9204 -0.1133
11 38 31 4.7670 0.1908
11 38 33 1.4366 -0.2079
11 38 35 -5.9001 0.0217
11 39 12 8.2724 0.3328
11 39 14 -17.6104 1.3652
11 39 16 -16.9465 -0.5191
11 39 18 6.0307 0.5605
11 39 20 3.2899 -0.1750
11 39 22 -0.2881 -0.3793
11 39 24 0.9410 0.4044
11 39 26 3.7425 -0.3558
11 39 28 -2.8072 0.1792
11 39 30 10.0269 -0.4970
11 39 32 -0.6814 0.5423
11 39 34 0.8186 -1.0233
11 40 11 -4.6392 -0.9813
11 40 13 8.5807 -1.8822
11 40 15 -5.5502 0.5236
11 40 17 2.7442 -0.0448
11 40 19 -1.0721 0.1542
11 40 21 -0.3909 -0.2143
11 40 23 4.4057 0.3080
11 40 25 -2.4100 0.0003
11 40 27 -11.5182 -0.5176
11 40 29 -15.7854 0.6673
11 40 31 1.6463 -0.5470
11 40 33 -0.9523 0.5094
11 41 12 -1.4086 -0.4641
11 41 14 5.3045 -1.2214
11 41 16 -3.2359 0.3979
11 41 18 -11.0891 -1.1054
11 41 20 -4.4403 0.5371
11 41 22 -0.5000 -0.0051
11 41 24 -0.4452 -0.0595
11 41 26 4.6634 0.1882
11 41 28 -10.9494 0.0118
11 41 30 -14.0121 0.1053
11 41 32 1.6189 -0.3301
11 42 11 0.0200 0.3821
11 42 13 1.3948 1.4429
11 42 15 -1.1860 -0.4466
11 42 17 -1.8529 0.3939
11 42 19 -17.1552 -0.1064
11 42 21 12.3186 -0.0246
11 42 23 -8.0438 -0.2760
11 42 25 1.0913 0.1237
11 42 27 7.6601 0.3191
11 42 29 -19.7092 -0.2845
11 43 12 1.8636 0.3981
11 43 14 1.9288 0.6764
11 43 16 14.0329 -0.1907
11 43 18 5.6042 1.0215
11 43 20 -9.2971 -0.5714
11 43 22 3.6866 0.3889
11 43 24 -2.7909 -0.1882
11 43 26 2.2197 0.0025
11 43 28 10.2091 -0.6054
11 44 11 -10.5746 0.1803
11 44 13 3.7090 -0.7541
11 44 15 0.3300 0.3180
11 44 17 2.4523 -0.2982
11 44 19 -6.2687 -0.1096
11 44 21 -2.1008 0.2363
11 44 23 9.9254 0.0613
11 44 25 -0.8447 -0.3183
11 44 27 -3.7083 1.0100
11 45 12 -1.2303 -0.1545
11 45 14 16.7050 -0.0763
11 45 16 -17.2891 -0.2609
11 45 18 4.8371 -0.6308
11 45 20 13.9806 0.3519
11 45 22 -0.3989 -0.1066
11 45 24 2.3320 0.0517
11 45 26 -2.8974 -0.8036
11 46 11 4.7306 -0.4109
11 46 13 0.8227 0.0762
11 46 15 5.8391 -0.0474
11 46 17 0.0493 0.2717
11 46 19 2.6202 0.1561
11 46 21 -11.1256 -0.8709
11 46 23 0.6719 0.2612
11 47 12 -11.6524 -0.3748
11 47 14 -0.6895 -0.2167
11 47 16 10.9115 0.1629
11 47 18 2.0310 0.3144
11 47 20 5.9677 0.5287
11 47 22 3.0590 -0.1881
11 48 11 3.9127 0.5707
11 48 13 -5.3458 0.3640
11 48 15 -8.4712 -0.0391
11 48 17 6.2407 0.0432
11 48 19 -2.8253 -0.8016
11 49 12 6.3545 0.9243
11 49 14 8.4747 -0.1452
11 49 16 -17.8183 0.2530
11 50 11 -7.1503 -0.8558
11 50 13 -9.5102 -0.1228
12 12 12 -31.3798 -0.1540
12 13 13 -1.9361 3.0558
12 14 12 23.6585 -2.8238
12 14 14 23.5056 5.4189
12 15 13 -5.0217 -1.2906
12 15 15 -10.6043 5.6829
12 16 12 1.0016 3.5252
12 16 14 -12.0523 -3.2333
12 16 16 -6.8667 4.9848
12 17 13 -6.1265 0.2051
12 17 15 -1.1032 -1.7465
12 17 17 4.3880 5.2048
12 18 12 21.6985 -3.6993
12 18 14 0.3552 1.9858
12 18 16 12.5170 -1.8417
12 18 18 -13.6992 1.6954
12 19 13 6.2488 -0.8282
12 19 15 -1.8762 0.3446
12 19 17 6.6980 -2.2098
12 19 19 4.6061 1.0645
12 20 12 -5.5411 3.3017
12 20 14 -5.3881 -1.2235
12 20 16 3.3551 -0.1355
12 20 18 4.5900 0.1853
12 20 20 -8.3910 -1.9916
12 21 13 -4.1837 -0.2316
12 21 15 7.7200 1.3135
12 21 17 -5.7730 0.1928
12 21 19 -3.3322 0.5825
12 21 21 12.1892 -3.0324
12 22 12 -2.6293 -1.8868
12 22 14 5.6180 0.7078
12 22 16 -7.1674 0.4055
12 22 18 -5.8752 -0.2638
12 22 20 6.5866 1.4906
12 22 22 4.2410 -4.5467
12 23 13 -7.6717 -0.1569
12 23 15 -3.2755 -0.9219
12 23 17 9.7104 0.1096
12 23 19 -7.2230 -0.0624
12 23 21 1.7117 2.1118
12 23 23 0.6523 -4.0965
12 24 12 2.5887 0.4325
12 24 14 -4.6491 0.4152
12 24 16 0.4906 -0.5920
12 24 18 4.7283 -0.2752
12 24 20 -1.3352 -0.2575
12 24 22 -2.4530 1.3805
12 24 24 6.4655 -3.6386
12 25 13 0.0591 -0.8214
12 25 15 -0.4926 0.6255
12 25 17 -0.7433 -0.5436
12 25 19 -1.1644 -0.6773
12 25 21 -0.2838 -0.2166
12 25 23 -6.4303 2.0749
12 25 25 -22.1918 -1.3762
12 26 12 -4.2396 0.8531
12 26 14 -0.0963 -1.0239
12 26 16 0.3101 1.3148
12 26 18 1.1617 0.6970
12 26 20 2.3267 -0.8581
12 26 22 0.4189 0.1129
12 26 24 -11.0718 -0.2538
12 26 26 4.8617 0.0505
12 27 13 -7.5535 0.6034
12 27 15 7.2358 -0.5992
12 27 17 -11.1899 0.6823
12 27 19 -0.0176 0.6475
12 27 21 2.1298 -0.3365
12 27 23 9.7121 0.0697
12 27 25 8.1483 0.7020
12 27 27 -0.6867 2.7603
12 28 12 -4.7260 -1.0273
12 28 14 -2.3830 0.6807
12 28 16 2.4625 -0.8985
12 28 18 -0.9149 -0.5718
12 28 20 -12.4122 1.0707
12 28 22 6.1941 -0.5230
12 28 24 -2.2692 0.1007
12 28 26 10.6432 -1.7774
12 28 28 -15.1360 3.4750
12 29 13 -3.3339 0.0796
12 29 15 -4.4697 0.7993
12 29 17 5.4365 -1.5694
12 29 19 -7.2076 0.0667
12 29 21 -5.4047 -0.3340
12 29 23 -0.5147 -0.0727
12 29 25 -4.3154 0.0976
12 29 27 3.3463 -1.0535
12 29 29 -5.1516 5.3191
12 30 12 4.8668 0.7856
12 30 14 9.4875 -0.6011
12 30 16 -2.4695 0.5949
12 30 18 4.3947 0.1817
12 30 20 5.1457 -0.3078
12 30 22 3.5962 0.0951
12 30 24 0.5728 0.4953
12 30 26 -6.1417 -0.1338
12 30 28 12.3688 -2.2650
12 30 30 -9.2982 4.1769
12 31 13 0.1961 0.1033
12 31 15 3.9374 -0.7949
12 31 17 -8.5957 1.4652
12 31 19 5.9269 0.1588
12 31 21 5.4541 -0.0041
12 31 23 2.0849 -0.0686
12 31 25 0.0713 0.5245
12 31 27 -5.0932 0.1824
12 31 29 6.8964 -1.7418
12 31 31 -12.5409 4.9370
12 32 12 -9.0525 -0.4141
12 32 14 8.6424 0.1176
12 32 16 -0.6343 -0.0292
12 32 18 -16.6541 -0.2527
12 32 20 -17.7680 -0.1602
12 32 22 1.7201 0.5155
12 32 24 4.6696 -0.7786
12 32 26 0.8077 0.8121
12 32 28 -7.4857 -0.1646
12 32 30 0.4431 -1.6818
12 32 32 -24.9131 2.3618
12 33 13 -0.7308 -0.4583
12 33 15 -1.3578 1.0983
12 33 17 3.0026 -0.8569
12 33 19 -5.8937 -0.4236
12 33 21 -2.5237 0.1738
12 33 23 -12.8388 0.2150
12 33 25 -2.4349 -1.1869
12 33 27 1.2653 1.0583
12 33 29 -4.9343 -0.1118
12 33 31 2.9593 -1.3350
12 33 33 -0.4499 2.1252
12 34 12 1.3385 0.2416
12 34 14 -9.1090 -0.1137
12 34 16 7.7740 -0.3774
12 34 18 -11.7410 0.0518
12 34 20 7.8714 0.4110
12 34 22 -2.8346 -0.5864
12 34 24 2.4898 0.4795
12 34 26 5.3984 -0.4309
12 34 28 -2.9918 0.6796
12 34 30 -1.0937 -0.2677
12 34 32 10.6598 -0.4171
12 34 34 18.8032 -0.4180
12 35 13 -0.0397 0.7124
12 35 15 -6.5383 -1.4183
12 35 17 -0.1296 0.4828
12 35 19 4.0887 0.7301
12 35 21 0.2709 -0.5127
12 35 23 -3.4265 0.2002
12 35 25 0.0835 0.5926
12 35 27 3.9455 -0.6791
12 35 29 -5.4528 0.3554
12 35 31 0.8544 0.4885
12 35 33 7.4530 0.1249
12 35 35 -1.9317 -1.3381
12 36 12 9.8161 -0.5540
12 36 14 24.7673 0.7225
12 36 16 0.7520 0.2251
12 36 18 0.3077 -0.0497
12 36 20 -4.1778 -0.3496
12 36 22 -0.9974 0.1458
12 36 24 -2.3866 0.1469
12 36 26 -2.1239 -0.1799
12 36 28 4.2233 -0.1783
12 36 30 0.8226 0.1853
12 36 32 8.2393 -0.4879
12 36 34 -1.1088 1.2119
12 36 36 3.2693 -2.4540
12 37 13 -0.0042 -0.3071
12 37 15 -5.4299 1.2608
12 37 17 3.1040 0.1288
12 37 19 12.1563 -0.6757
12 37 21 -3.7181 0.6346
12 37 23 5.8562 -0.3816
12 37 25 -6.2713 -0.0231
12 37 27 -19.5041 -0.2749
12 37 29 4.7334 0.3667
12 37 31 -4.8692 -0.1860
12 37 33 -6.7148 -0.8756
12 37 35 1.2721 1.9270
12 38 12 4.1668 0.6363
12 38 14 -6.1945 -1.0123
12 38 16 3.9661 -0.3677
12 38 18 -4.0085 0.1550
12 38 20 -1.6865 0.1248
12 38 22 -1.5473 -0.0945
12 38 24 5.5555 -0.1480
12 38 26 -3.8626 0.3044
12 38 28 -1.9077 -0.1680
12 38 30 -7.4366 0.0130
12 38 32 4.2823 0.4375
12 38 34 -4.0016 -1.4159
12 39 13 -7.0362 -0.0011
12 39 15 -3.5271 -0.9152
12 39 17 0.6717 -0.6310
12 39 19 -0.5114 0.5325
12 39 21 -0.8534 -0.3157
12 39 23 -7.8320 0.2835
12 39 25 -1.8566 -0.0591
12 39 27 -17.5402 0.5283
12 39 29 -2.0332 -0.5353
12 39 31 -2.4242 -0.0200
12 39 33 1.3061 1.3725
12 40 12 -2.7787 -0.8569
12 40 14 -0.9325 0.9314
12 40 16 1.2446 0.5766
12 40 18 2.3471 -0.0522
12 40 20 0.3345 -0.3385
12 40 22 -0.8653 0.2711
12 40 24 -1.8749 -0.3612
12 40 26 3.5670 -0.0606
12 40 28 -20.0697 0.2759
12 40 30 -3.6311 -0.0213
12 40 32 1.6679 -0.8936
12 41 13 1.1659 -0.1961
12 41 15 11.9500 0.9156
12 41 17 -8.6813 0.6041
12 41 19 -2.6829 -0.3686
12 41 21 10.0286 0.1242
12 41 23 -1.1487 0.0837
12 41 25 -16.9774 -0.1038
12 41 27 -8.7962 -0.0195
12 41 29 8.9607 -0.3560
12 41 31 -4.2923 1.6559
12 42 12 -4.7274 0.9410
12 42 14 9.3877 -0.6521
12 42 16 -15.9809 -0.8994
12 42 18 3.6476 0.2650
12 42 20 -3.8556 0.5806
12 42 22 2.4404 -0.5130
12 42 24 9.0149 0.4802
12 42 26 -18.1351 -0.0155
12 42 28 -24.1253 -0.3502
12 42 30 8.1922 -1.1592
12 43 13 1.5419 0.5895
12 43 15 -14.3843 -0.7124
12 43 17 14.7591 -0.3621
12 43 19 -2.7328 -0.2608
12 43 21 -1.5480 0.1939
12 43 23 -2.2000 -0.4461
12 43 25 -8.3821 0.4952
12 43 27 10.0159 -0.9634
12 44 12 4.9153 -1.1639
12 44 14 -8.8209 0.3281
12 44 16 -19.3438 0.8249
12 44 18 1.5963 -0.1845
12 44 20 5.5557 -0.5355
12 44 22 -0.9771 0.4914
12 44 24 -1.8285 -0.2014
12 44 26 -13.7630 0.0249
12 45 13 1.6784 -0.4235
12 45 15 1.5630 0.0832
12 45 17 -8.7159 0.3308
12 45 19 4.5679 0.4857
12 45 21 0.6351 -0.3205
12 45 23 0.0504 0.3834
12 45 25 0.9192 -0.7568
12 46 12 -9.3175 1.3253
12 46 14 17.1347 -0.4459
12 46 16 -10.9303 -0.3284
12 46 18 5.6689 -0.0950
12 46 20 2.7334 0.4557
12 46 22 -0.2952 -0.1212
12 47 13 -13.4742 0.0406
12 47 15 -3.6601 0.9278
12 47 17 6.7117 -0.5728
12 47 19 -4.1048 -0.0946
12 47 21 0.7247 -0.3016
12 48 12 -8.8791 -1.1513
12 48 14 -3.2485 0.4462
12 48 16 6.3577 -0.3644
12 48 18 15.9836 0.3342
12 49 13 -16.9264 0.1232
12 49 15 -0.7075 -1.1809
12 50 12 -5.9492 0.8867
13 14 13 -8.7660 -2.8620
13 15 14 10.6999 -2.0735
13 16 13 7.8621 1.2206
13 16 15 1.0737 -1.9235
13 17 14 -12.9454 -1.2475
13 17 16 7.2327 -1.3670
13 18 13 12.6202 0.0848
13 18 15 -4.6974 0.0619
13 18 17 0.4239 0.3903
13 19 14 6.1689 1.6588
13 19 16 -4.8505 0.0708
13 19 18 -3.6923 0.1071
13 20 13 -13.7674 -0.5239
13 20 15 0.3158 0.1956
13 20 17 -2.8650 -0.6527
13 20 19 -3.0062 0.0032
13 21 14 0.0461 -1.1466
13 21 16 5.2584 0.1230
13 21 18 2.9641 0.2780
13 21 20 -2.7840 -1.1959
13 22 13 17.2407 1.2741
13 22 15 0.1592 -1.3495
13 22 17 -0.5859 0.3396
13 22 19 -4.3545 -0.7984
13 22 21 -4.7878 -0.1029
13 23 14 3.7849 0.4329
13 23 16 6.2537 0.2106
13 23 18 -12.0701 -0.0874
13 23 20 6.7385 0.9992
13 23 22 5.2418 -1.5617
13 24 13 -14.0147 -1.6370
13 24 15 6.6328 1.3450
13 24 17 -4.6751 -0.0257
13 24 19 4.2633 -0.1395
13 24 21 6.0700 -0.0687
13 24 23 -3.9377 -0.0328
13 25 14 4.6835 0.5734
13 25 16 -6.6994 0.3270
13 25 18 10.4302 -0.0349
13 25 20 -12.9492 0.0978
13 25 22 -1.3216 0.3517
13 25 24 2.2896 -0.6650
13 26 13 2.7990 1.5420
13 26 15 2.6509 -1.9483
13 26 17 2.1837 0.1379
13 26 19 -2.8513 0.1707
13 26 21 2.7818 -0.2439
13 26 23 -1.3643 0.2722
13 26 25 -10.9724 -0.3692
13 27 14 -3.2230 -0.2363
13 27 16 4.7313 -0.9813
13 27 18 18.6640 0.3673
13 27 20 -0.8195 -0.1959
13 27 22 -6.2426 -0.5323
13 27 24 2.0699 -0.4409
13 27 26 -12.0316 -0.2163
13 28 13 -1.4119 -0.7969
13 28 15 11.1347 0.7920
13 28 17 33.1736 0.1429
13 28 19 -8.7383 -0.3056
13 28 21 -12.3026 0.2104
13 28 23 8.4702 0.0966
13 28 25 8.7496 0.3180
13 28 27 -33.2810 -0.3455
13 29 14 -2.7811 1.2005
13 29 16 3.0975 1.0008
13 29 18 0.0384 -0.4063
13 29 20 0.6976 0.5124
13 29 22 -2.2071 0.7049
13 29 24 -0.6333 -0.1081
13 29 26 -2.2806 -0.8857
13 29 28 -31.2286 0.2399
13 30 13 -2.9047 -0.3585
13 30 15 2.8740 0.0190
13 30 17 2.3642 -0.3567
13 30 19 0.0797 -0.0544
13 30 21 -1.0996 -0.0806
13 30 23 -5.2479 -0.2553
13 30 25 -4.9006 0.7006
13 30 27 16.8319 -0.5083
13 30 29 -19.2307 0.0178
13 31 14 1.6101 -1.3056
13 31 16 -4.5796 -0.4714
13 31 18 1.3634 0.5004
13 31 20 -7.2903 -0.7129
13 31 22 3.6944 -0.2982
13 31 24 -5.2830 0.3092
13 31 26 4.7020 0.0034
13 31 28 5.1750 -0.4677
13 31 30 32.4271 -0.5944
13 32 13 10.3221 1.0556
13 32 15 -4.2478 -0.8927
13 32 17 0.5970 0.3474
13 32 19 2.2013 0.1593
13 32 21 3.4591 0.0354
13 32 23 3.0762 -0.4594
13 32 25 -3.6331 -0.0807
13 32 27 -3.7113 0.7892
13 32 29 5.5840 -0.7193
13 32 31 -5.7134 -0.0256
13 33 14 2.3990 1.0200
13 33 16 -0.6490 -0.2177
13 33 18 -2.4505 -0.1184
13 33 20 -4.8406 0.5375
13 33 22 -1.4042 0.2313
13 33 24 2.3873 -0.1212
13 33 26 -3.8280 0.2341
13 33 28 -0.6533 0.1027
13 33 30 6.5454 0.3948
13 33 32 13.6348 -0.8851
13 34 13 -5.6172 -1.2453
13 34 15 2.7118 1.3283
13 34 17 1.4506 0.0002
13 34 19 -4.2878 -0.4907
13 34 21 1.6076 0.2463
13 34 23 6.6892 0.3520
13 34 25 6.4500 -0.4453
13 34 27 -3.5445 -0.1611
13 34 29 3.6491 0.3126
13 34 31 -1.7951 -0.3326
13 34 33 0.0543 -0.2019
13 35 14 -1.3927 -0.5694
13 35 16 5.3962 0.6856
13 35 18 -1.4499 -0.2540
13 35 20 5.1931 -0.2616
13 35 22 -13.1307 -0.0916
13 35 24 -9.8640 0.1043
13 35 26 0.1985 -0.2496
13 35 28 -3.2760 -0.0290
13 35 30 -4.3793 -0.1072
13 35 32 -4.8273 0.0399
13 35 34 0.0897 -0.5117
13 36 13 7.0391 0.8969
13 36 15 -7.3438 -1.4511
13 36 17 0.4114 0.0027
13 36 19 -1.9612 0.4526
13 36 21 2.3624 -0.1671
13 36 23 -16.0349 -0.2491
13 36 25 -5.3544 0.4345
13 36 27 -2.4568 -0.2756
13 36 29 1.3689 0.2972
13 36 31 1.6430 -0.0385
13 36 33 3.1886 -0.0036
13 36 35 -6.3899 -0.4465
13 37 14 -5.3527 -0.1119
13 37 16 4.7879 -0.8663
13 37 18 8.6570 0.2242
13 37 20 -5.4855 -0.0859
13 37 22 -2.2161 0.0813
13 37 24 -2.9753 -0.0740
13 37 26 2.1284 0.3596
13 37 28 0.8507 0.0152
13 37 30 -0.1650 -0.2477
13 37 32 -1.0440 0.5702
13 37 34 -8.2051 -0.2179
13 38 13 17.8150 -0.4569
13 38 15 4.3659 1.6208
13 38 17 -3.2585 -0.2268
13 38 19 5.0670 0.0328
13 38 21 -10.0062 -0.0746
13 38 23 6.0856 0.0415
13 38 25 -1.7455 -0.1385
13 38 27 7.6080 -0.0688
13 38 29 -1.3026 0.0671
13 38 31 -4.8152 -0.1293
13 38 33 -4.2159 0.1404
13 39 14 7.5482 0.2711
13 39 16 0.8209 1.1016
13 39 18 0.5743 -0.3570
13 39 20 0.4019 0.4403
13 39 22 -6.0504 -0.1018
13 39 24 3.8897 -0.0426
13 39 26 -1.3381 -0.1322
13 39 28 1.8805 -0.1160
13 39 30 3.7743 0.3258
13 39 32 8.1732 -0.6339
13 40 13 -3.3689 0.1954
13 40 15 -3.2634 -1.6067
13 40 17 -3.2338 0.5076
13 40 19 -6.2599 -0.5089
13 40 21 17.8469 0.1739
13 40 23 -16.5726 0.2979
13 40 25 14.6513 -0.2053
13 40 27 0.2761 0.3893
13 40 29 -1.7980 -0.5135
13 40 31 -13.0508 0.3012
13 41 14 5.0287 -0.6491
13 41 16 -2.7829 -0.8045
13 41 18 -11.9089 0.4088
13 41 20 1.4575 -0.6507
13 41 22 19.4955 0.1938
13 41 24 -7.8223 -0.0855
13 41 26 2.8713 0.0362
13 41 28 2.9999 0.0273
13 41 30 -14.9615 0.1803
13 42 13 -5.8531 0.3726
13 42 15 5.4459 1.0435
13 42 17 0.3424 -0.7127
13 42 19 -11.4524 0.6624
13 42 21 5.5802 -0.2112
13 42 23 19.8373 -0.1614
13 42 25 0.5936 -0.1360
13 42 27 0.4327 0.4434
13 42 29 1.7595 -0.7513
13 43 14 -4.1534 0.9424
13 43 16 -1.7726 0.3760
13 43 18 7.1185 -0.1265
13 43 20 -8.9401 0.6954
13 43 22 -7.4933 -0.4534
13 43 24 0.4120 0.3002
13 43 26 -2.1912 -0.3484
13 43 28 -9.5915 0.9773
13 44 13 1.1492 -0.8496
13 44 15 -2.1346 -0.2246
13 44 17 0.1890 0.3321
13 44 19 -4.1979 -0.5332
13 44 21 -6.9231 0.1939
13 44 23 -6.3919 0.2432
13 44 25 1.0546 0.6616
13 45 14 -4.7971 -0.7606
13 45 16 4.6639 0.1481
13 45 18 -3.0138 -0.0061
13 45 20 3.5100 -0.5487
13 45 22 1.3980 -0.0144
13 45 24 -3.4234 -0.4942
13 46 13 0.8557 1.0282
13 46 15 -3.2053 -0.5667
13 46 17 -5.4111 0.0143
13 46 19 0.8049 0.1040
13 46 21 4.5131 0.5520
13 46 23 7.7689 -0.0024
13 47 14 4.0839 0.2048
13 47 16 1.0301 -0.2933
13 47 18 -10.4104 0.0714
13 47 20 -21.7081 -0.1162
13 48 13 -4.9381 -0.9263
13 48 15 2.4337 0.9504
13 48 17 4.9777 -0.5361
13 49 14 -6.3347 0.8112
13 49 16 16.2117 0.0158
14 14 14 -65.9312 -2.7537
14 15 15 6.7623 -5.1717
14 16 14 21.8066 2.6919
14 16 16 -9.9878 -2.7370
14 17 15 6.1716 2.4392
14 17 17 -6.2306 -5.0826
14 18 14 1.3796 -2.3286
14 18 16 -8.5353 0.6030
14 18 18 5.0876 -2.2758
14 19 15 -0.3184 0.4289
14 19 17 0.8573 0.4971
14 19 19 -0.0007 -2.0688
14 20 14 -2.4774 1.5408
14 20 16 -19.1845 0.7963
14 20 18 3.6388 -0.3914
14 20 20 11.9736 0.2982
14 21 15 -2.7198 -0.6201
14 21 17 -6.7082 0.6880
14 21 19 4.1576 0.6079
14 21 21 -1.8607 1.8266
14 22 14 -4.2585 0.6292
14 22 16 10.6107 -1.4684
14 22 18 -2.3162 0.8119
14 22 20 -5.0001 -0.8264
14 22 22 -6.4991 2.3340
14 23 15 2.7603 0.9007
14 23 17 9.3380 -1.1366
14 23 19 15.5315 0.3702
14 23 21 -0.2258 -1.4525
14 23 23 1.5139 3.1151
14 24 14 10.6723 -2.9997
14 24 16 -1.9232 2.0411
14 24 18 -0.8527 -0.7848
14 24 20 -2.4532 0.0435
14 24 22 0.7441 -0.3945
14 24 24 -1.3991 1.4336
14 25 15 -4.7156 -0.5131
14 25 17 0.7057 0.8569
14 25 19 2.1572 -0.3114
14 25 21 -0.2655 0.2997
14 25 23 2.6709 -1.9325
14 25 25 -1.1241 0.8528
14 26 14 13.2344 3.4482
14 26 16 -10.8068 -2.6413
14 26 18 4.4318 0.9219
14 26 20 -6.6509 0.0623
14 26 22 10.4676 0.0400
14 26 24 -0.1068 0.8426
14 26 26 7.3293 -1.1937
14 27 15 -0.2899 1.6120
14 27 17 -2.1823 -1.0704
14 27 19 6.3648 0.9481
14 27 21 -3.9353 0.3335
14 27 23 0.0282 0.0931
14 27 25 9.3379 -0.4037
14 27 27 -8.0706 -2.7218
14 28 14 -8.6813 -2.9623
14 28 16 0.7743 2.1141
14 28 18 3.8257 -1.2396
14 28 20 1.2295 -0.2964
14 28 22 -5.7669 0.1423
14 28 24 -0.3712 -0.1076
14 28 26 -1.0762 2.0247
14 28 28 10.1459 -3.6601
14 29 15 4.5293 -1.9847
14 29 17 0.4886 1.8050
14 29 19 0.1582 -1.4385
14 29 21 7.4963 0.0250
14 29 23 1.4995 0.2359
14 29 25 -0.7315 -0.3774
14 29 27 -1.6952 0.9148
14 29 29 7.6363 -5.1220
14 30 14 -7.7596 1.3882
14 30 16 1.1609 -0.7609
14 30 18 -5.6720 0.8167
14 30 20 -0.3945 -0.1841
14 30 22 3.0981 0.0635
14 30 24 0.4424 -1.0245
14 30 26 8.0255 0.6315
14 30 28 -10.9951 1.9245
14 30 30 8.1104 -3.9347
14 31 15 -1.2086 1.8414
14 31 17 8.8260 -2.2101
14 31 19 -7.5364 1.7761
14 31 21 -6.4279 -0.1080
14 31 23 -16.0874 0.3906
14 31 25 0.6397 -0.5407
14 31 27 1.9598 0.3480
14 31 29 -6.8141 1.6141
14 31 31 13.6656 -4.8611
14 32 14 -1.8973 0.1567
14 32 16 -0.5394 -0.2078
14 32 18 19.3484 -0.1662
14 32 20 -26.3723 0.2637
14 32 22 -3.4428 -0.4584
14 32 24 -2.9265 1.1714
14 32 26 0.8963 -1.4297
14 32 28 4.2063 0.2818
14 32 30 2.9399 1.6764
14 32 32 10.3419 -2.6249
14 33 15 3.2955 -1.4428
14 33 17 -6.5221 1.6328
14 33 19 5.1428 -1.2106
14 33 21 9.1305 -0.0954
14 33 23 0.3369 -0.2071
14 33 25 0.4523 0.8715
14 33 27 -0.8923 -1.3494
14 33 29 -0.9067 0.2949
14 33 31 -0.6241 1.0458
14 33 33 0.7269 -2.4049
14 34 14 0.6051 -0.9649
14 34 16 16.0571 0.7430
14 34 18 -19.1149 -0.2951
14 34 20 -5.8369 -0.0675
14 34 22 -1.0851 0.2238
14 34 24 3.4811 -0.6510
14 34 26 -3.8309 0.9891
14 34 28 2.0674 -0.7984
14 34 30 5.1440 0.1992
14 34 32 -8.3526 0.7418
14 34 34 -12.7258 -0.1680
14 35 15 5.1118 0.8602
14 35 17 -0.5852 -1.1197
14 35 19 2.3790 0.4465
14 35 21 -8.8363 0.2470
14 35 23 -9.3240 -0.0552
14 35 25 11.2628 -0.3699
14 35 27 -9.7930 0.9808
14 35 29 6.3068 -0.4917
14 35 31 -0.4433 -0.1021
14 35 33 -7.6457 0.1070
14 35 35 -2.2917 0.6382
14 36 14 -11.2972 1.2409
14 36 16 1.4687 -0.6959
14 36 18 -1.5174 0.7180
14 36 20 3.2338 -0.1467
14 36 22 -0.8612 0.0622
14 36 24 -5.4823 -0.0274
14 36 26 2.9933 -0.3132
14 36 28 -11.2822 0.2477
14 36 30 -2.1473 -0.1484
14 36 32 3.9304 0.3056
14 36 34 0.5132 -0.6798
14 36 36 13.6379 1.5717
14 37 15 0.9331 -0.1708
14 37 17 -3.4857 0.3673
14 37 19 -9.8391 0.3379
14 37 21 -4.4809 -0.4683
14 37 23 13.4666 0.3300
14 37 25 -0.3685 -0.1933
14 37 27 -11.4454 0.2335
14 37 29 -7.9323 -0.4985
14 37 31 -0.1467 0.0427
14 37 33 -0.5586 0.3752
14 37 35 -4.4929 -1.3394
14 38 14 4.1130 -0.8102
14 38 16 3.0604 0.2898
14 38 18 -6.0320 -0.7366
14 38 20 6.6574 0.2124
14 38 22 -3.9830 0.0630
14 38 24 16.6683 0.1686
14 38 26 1.7194 -0.2068
14 38 28 15.3105 0.1642
14 38 30 7.9298 -0.0012
14 38 32 -1.6721 -0.3775
14 38 34 7.3359 1.2114
14 39 15 -0.4284 -0.2878
14 39 17 2.0609 0.1699
14 39 19 1.8876 -0.9155
14 39 21 2.5654 0.3422
14 39 23 -15.9618 -0.3421
14 39 25 -10.5686 0.3572
14 39 27 6.3131 -0.4800
14 39 29 -2.7567 0.6298
14 39 31 0.7680 0.3120
14 39 33 -0.7185 -1.3145
14 40 14 -2.8100 0.3794
14 40 16 -1.2750 -0.2506
14 40 18 -1.1966 0.6971
14 40 20 1.4397 0.0612
14 40 22 0.8723 -0.3702
14 40 24 -8.7849 0.1862
14 40 26 4.3782 0.0599
14 40 28 8.2921 -0.2984
14 40 30 -6.4863 -0.1178
14 40 32 -0.2213 1.0793
14 41 15 -7.1580 0.3538
14 41 17 6.4520 -0.2981
14 41 19 -8.2148 1.1044
14 41 21 4.5872 -0.0726
14 41 23 6.5279 -0.2979
14 41 25 1.0233 0.3977
14 41 27 -0.3869 -0.4435
14 41 29 -5.7536 0.9583
14 42 14 -11.1897 0.2308
14 42 16 -4.4533 0.2557
14 42 18 1.2358 -0.7868
14 42 20 -0.9779 -0.3067
14 42 22 -1.7716 0.6211
14 42 24 4.2234 -0.1270
14 42 26 8.1600 -0.2502
14 42 28 13.7764 0.2412
14 43 15 6.3635 -0.2209
14 43 17 -12.0006 0.4094
14 43 19 1.4951 -0.8193
14 43 21 2.5127 -0.1060
14 43 23 -1.6499 0.4163
14 43 25 11.1323 -0.7570
14 43 27 -6.0886 1.4449
14 44 14 7.0120 -0.9195
14 44 16 27.9580 -0.0573
14 44 18 -10.5829 0.5696
14 44 20 -5.1768 0.2124
14 44 22 -8.6187 -0.2929
14 44 24 1.0524 -0.4604
14 44 26 16.6740 0.3935
14 45 15 2.5572 0.2552
14 45 17 5.0641 -0.7669
14 45 19 -5.2802 0.7020
14 45 21 1.4540 0.0053
14 45 23 0.9537 -0.0099
14 46 14 -10.4534 1.5194
14 46 16 6.8758 -0.0463
14 46 18 -7.4595 -0.1674
14 46 20 -6.2836 -0.1368
14 46 22 6.2411 -0.2121
14 47 15 1.1316 -0.7333
14 47 17 -1.9169 1.2440
14 47 19 3.9236 -1.1088
14 48 14 11.9702 -1.7316
14 48 16 -9.9543 0.4745
14 48 18 -19.3940 -0.1930
14 49 15 -16.1313 0.4977
15 16 15 -9.1825 2.9792
15 17 16 2.1630 1.9010
15 18 15 13.1784 -0.5073
15 18 17 -16.0685 2.9209
15 19 16 -5.7514 -0.5250
15 19 18 5.9832 2.1798
15 20 15 4.4962 -1.0673
15 20 17 -9.5515 0.5131
15 20 19 13.9353 -0.6630
15 21 16 -0.7890 -1.2304
15 21 18 -6.1804 -1.3267
15 21 20 2.6523 -0.5997
15 22 15 -15.0161 1.9702
15 22 17 9.0153 0.7734
15 22 19 4.0891 1.1625
15 22 21 6.9446 -1.0438
15 23 16 -4.5054 -0.2240
15 23 18 22.1159 0.2743
15 23 20 -7.4055 -0.1086
15 23 22 -0.6624 -0.5897
15 24 15 -0.0393 -2.5204
15 24 17 -1.1943 -0.0763
15 24 19 -4.1634 0.3303
15 24 21 -0.1054 0.8237
15 24 23 5.0641 -0.2857
15 25 16 -15.1714 1.4252
15 25 18 6.4268 -0.9975
15 25 20 1.4258 0.2340
15 25 22 3.2578 0.2859
15 25 24 3.8575 -0.2219
15 26 15 3.0809 2.1941
15 26 17 1.7289 -0.1522
15 26 19 10.9644 -0.4380
15 26 21 -17.6541 0.2782
15 26 23 14.6442 -0.1484
15 26 25 -3.1060 0.5602
15 27 16 -4.1218 -1.9065
15 27 18 7.6279 0.8009
15 27 20 20.3646 -1.1062
15 27 22 2.0105 0.0781
15 27 24 -4.6411 0.4554
15 27 26 10.7548 -0.0227
15 28 15 -9.0827 -1.0959
15 28 17 12.1459 0.2775
15 28 19 0.4941 0.6067
15 28 21 -0.1318 -0.2725
15 28 23 6.9449 0.0848
15 28 25 3.5412 -0.4554
15 28 27 -26.4511 0.6821
15 29 16 -6.2717 1.5528
15 29 18 2.2241 -0.2397
15 29 20 14.5083 1.1826
15 29 22 7.6285 -1.0368
15 29 24 7.4069 0.4577
15 29 26 -12.8444 0.4106
15 29 28 22.7454 0.3034
15 30 15 4.9160 -0.4149
15 30 17 -0.5623 -0.0366
15 30 19 6.0173 -0.4742
15 30 21 13.8965 0.3901
15 30 23 3.8823 0.3190
15 30 25 9.7694 -0.3991
15 30 27 -18.6401 0.3389
15 30 29 21.9428 0.1120
15 31 16 -1.7121 -1.2760
15 31 18 -3.6229 -0.3177
15 31 20 -6.9121 -0.6182
15 31 22 -8.1388 0.4058
15 31 24 0.8291 -0.3652
15 31 26 3.0023 -0.4320
15 31 28 -3.2219 0.4354
15 31 30 28.0475 0.2764
15 32 15 -2.5766 1.5764
15 32 17 4.0505 -0.1395
15 32 19 -10.1259 0.2728
15 32 21 0.2815 -0.2964
15 32 23 -16.6445 0.0779
15 32 25 -0.8006 0.3460
15 32 27 2.2040 -0.7771
15 32 29 -1.0472 0.7748
15 32 31 3.7019 0.1882
15 33 16 -5.8565 0.9422
15 33 18 2.9558 0.3292
15 33 20 0.3915 0.1770
15 33 22 7.3162 -0.0925
15 33 24 -8.7988 -0.0150
15 33 26 2.2329 0.3739
15 33 28 2.0666 -0.2918
15 33 30 -16.1821 -0.2082
15 33 32 -4.1621 0.8659
15 34 15 5.5273 -1.8271
15 34 17 -1.9416 0.3332
15 34 19 5.2881 -0.2193
15 34 21 4.2792 0.5070
15 34 23 14.2393 -0.5267
15 34 25 -0.8073 0.2469
15 34 27 -1.2305 0.2895
15 34 29 2.2236 -0.4332
15 34 31 -6.4220 0.4041
15 34 33 -1.4244 0.0964
15 35 16 -6.4140 -0.5329
15 35 18 -3.8275 -0.0168
15 35 20 4.3742 -0.0060
15 35 22 -4.0530 0.0468
15 35 24 -0.1367 0.0575
15 35 26 4.9126 -0.2961
15 35 28 -1.5981 0.1211
15 35 30 0.3180 -0.1523
15 35 32 -9.5477 -0.2354
15 35 34 -10.3132 0.3384
15 36 15 -1.5057 1.4732
15 36 17 -0.2258 -0.3139
15 36 19 -3.7279 -0.0527
15 36 21 -2.6482 -0.4648
15 36 23 -7.1183 0.5326
15 36 25 1.4281 -0.2850
15 36 27 1.9250 0.1864
15 36 29 -3.1629 -0.1503
15 36 31 2.2542 0.0854
15 36 33 -1.7301 0.0696
15 36 35 -2.9758 0.0316
15 37 16 1.1947 0.0167
15 37 18 -11.9206 -0.1620
15 37 20 -3.2643 -0.0917
15 37 22 7.0404 -0.1572
15 37 24 -4.0020 0.1564
15 37 26 3.5256 -0.1709
15 37 28 -6.9195 0.0765
15 37 30 14.9030 0.2805
15 37 32 11.7024 -0.0274
15 37 34 -16.4194 0.0255
15 38 15 0.6902 -0.8670
15 38 17 10.1414 0.4074
15 38 19 11.0772 0.0176
15 38 21 -4.8799 0.4239
15 38 23 1.8919 -0.2830
15 38 25 -3.6184 -0.0306
15 38 27 5.7700 0.0794
15 38 29 -9.8748 0.0968
15 38 31 -0.5794 -0.4639
15 38 33 8.0620 0.2885
15 39 16 -2.6262 0.6893
15 39 18 0.7271 0.0437
15 39 20 -0.2880 0.3116
15 39 22 -16.3457 0.2495
15 39 24 18.8407 -0.4429
15 39 26 -11.3024 0.3949
15 39 28 2.0126 -0.1321
15 39 30 -8.9004 -0.1316
15 39 32 -16.5077 -0.1258
15 40 15 1.8445 0.0000
15 40 17 6.8731 -0.3366
15 40 19 -6.2847 0.0856
15 40 21 6.0321 -0.4092
15 40 23 -9.3008 0.1396
15 40 25 -0.0911 0.3179
15 40 27 5.9616 -0.2033
15 40 29 -7.2667 -0.1608
15 40 31 -12.5634 0.8560
15 41 16 5.4900 -1.1953
15 41 18 -0.9920 0.0958
15 41 20 -3.4990 -0.4934
15 41 22 22.7121 -0.2190
15 41 24 3.2241 0.3591
15 41 26 -2.8202 -0.3438
15 41 28 -6.7675 0.2124
15 41 30 -4.1156 -0.5189
15 42 15 -6.6416 0.9337
15 42 17 0.1993 0.1699
15 42 19 5.5249 -0.1090
15 42 21 -4.7730 0.3359
15 42 23 8.3480 -0.0672
15 42 25 5.2707 -0.2406
15 42 27 8.2294 -0.4816
15 42 29 -7.4251 1.4088
15 43 16 -0.8839 1.1930
15 43 18 -1.0528 -0.3500
15 43 20 8.3136 0.5084
15 43 22 9.0110 0.3123
15 43 24 -4.5415 -0.1642
15 43 26 1.4785 0.6525
15 44 15 1.2319 -1.8102
15 44 17 0.3858 0.5151
15 44 19 4.3319 0.0535
15 44 21 2.1846 -0.4384
15 44 23 5.1760 0.0522
15 44 25 6.0500 -0.8402
15 45 16 -6.3690 -1.0236
15 45 18 -0.2745 0.3791
15 45 20 1.7261 -0.3306
15 45 22 5.7548 0.0057
15 45 24 5.5478 0.5768
15 46 15 -6.5029 2.1748
15 46 17 4.0921 -1.1447
15 46 19 -4.5654 0.5684
15 46 21 4.1171 -0.4135
15 47 16 -8.9947 0.3083
15 47 18 5.4325 -0.3664
15 48 15 16.4991 -1.7237
15 48 17 -7.1413 1.4745
16 16 16 7.1546 1.8518
16 17 17 -9.0654 3.7757
16 18 16 21.8544 -0.0946
16 18 18 13.5368 -0.2253
16 19 17 9.1599 -2.7918
16 19 19 0.3388 2.0291
16 20 16 1.0683 0.3558
16 20 18 0.8202 1.6098
16 20 20 -0.5260 1.4842
16 21 17 5.2970 -0.6848
16 21 19 -5.2039 0.4393
16 21 21 -4.5414 -0.4499
16 22 16 -14.5488 0.7495
16 22 18 -0.0005 -2.2552
16 22 20 2.8088 1.0638
16 22 22 0.4955 0.6188
16 23 17 -11.0980 0.3690
16 23 19 14.8658 -0.7785
16 23 21 8.6083 0.2596
16 23 23 7.5637 -1.3620
16 24 16 -7.0121 -1.8669
16 24 18 -4.5050 1.7513
16 24 20 -10.8516 -0.3789
16 24 22 -19.9891 -0.4965
16 24 24 -1.2136 0.9780
16 25 17 -9.5724 0.1691
16 25 19 4.0373 0.0015
16 25 21 -8.9297 -0.3266
16 25 23 12.9564 0.7795
16 25 25 16.9834 -0.1449
16 26 16 1.5893 2.8160
16 26 18 -5.6622 -1.1797
16 26 20 7.6036 0.1988
16 26 22 13.9192 0.4010
16 26 24 -7.1658 -1.4916
16 26 26 4.4958 2.0400
16 27 17 4.1216 -0.2266
16 27 19 0.8848 0.2903
16 27 21 0.0381 -0.0706
16 27 23 0.6433 0.1801
16 27 25 -11.7962 0.0284
16 27 27 7.8982 2.0122
16 28 16 5.5514 -2.4792
16 28 18 -3.7444 1.0271
16 28 20 -0.1134 -0.1547
16 28 22 8.1992 0.3619
16 28 24 6.4052 0.0208
16 28 26 -2.4786 -1.3669
16 28 28 -7.8424 2.8176
16 29 17 -0.4504 -0.9133
16 29 19 -4.0672 -0.3228
16 29 21 -0.4460 -0.1988
16 29 23 11.2754 -0.6197
16 29 25 6.4420 0.3832
16 29 27 -0.1589 -0.7961
16 29 29 -1.3199 3.4876
16 30 16 2.0722 1.3000
16 30 18 -2.9630 -0.1802
16 30 20 -1.1111 0.2954
16 30 22 -5.6758 -0.2724
16 30 24 -8.2433 0.9185
16 30 26 3.3016 -0.7496
16 30 28 -1.9545 -1.0777
16 30 30 3.8790 2.7047
16 31 17 1.6406 1.7500
16 31 19 1.4252 -0.2955
16 31 21 11.6629 0.4417
16 31 23 3.2774 -0.1347
16 31 25 2.8164 0.3707
16 31 27 -6.5721 -0.3699
16 31 29 4.4102 -0.9878
16 31 31 -1.8410 3.5482
16 32 16 6.7193 -0.0609
16 32 18 0.1164 -0.6207
16 32 20 2.0736 -0.1646
16 32 22 2.3484 0.5223
16 32 24 6.7663 -1.0553
16 32 26 -2.9204 1.5940
16 32 28 -2.1925 -0.6586
16 32 30 4.4749 -0.7124
16 32 32 10.2657 1.9717
16 33 17 5.1606 -1.5058
16 33 19 -5.2293 0.5278
16 33 21 -7.8517 -0.6516
16 33 23 12.4666 0.4763
16 33 25 2.2323 -0.8863
16 33 27 -3.4770 1.1406
16 33 29 3.9856 -0.6806
16 33 31 -5.3937 -0.8463
16 33 33 -1.7790 2.1535
16 34 16 12.1767 -0.8573
16 34 18 4.2791 1.1944
16 34 20 -1.2187 -0.3613
16 34 22 -1.8552 0.0275
16 34 24 -15.0985 0.2400
16 34 26 10.6569 -0.7579
16 34 28 -13.3614 0.6487
16 34 30 4.8607 -0.2143
16 34 32 -3.7556 -0.6684
16 34 34 -2.3211 1.0264
16 35 17 -0.4583 0.4958
16 35 19 -0.9377 -0.0754
16 35 21 5.1673 0.1215
16 35 23 10.7884 -0.2491
16 35 25 -8.3772 0.5916
16 35 27 3.6991 -0.8504
16 35 29 -14.8024 0.8281
16 35 31 4.1364 -0.1060
16 35 33 2.6830 -0.1183
16 35 35 -10.9812 0.2097
16 36 16 7.8730 1.2447
16 36 18 -7.9241 -1.4764
16 36 20 14.7040 0.8634
16 36 22 -4.7580 -0.2998
16 36 24 -17.7065 0.2664
16 36 26 9.0171 -0.0765
16 36 28 -13.7676 0.0522
16 36 30 -12.4365 0.0631
16 36 32 2.1639 -0.4058
16 36 34 -6.3532 0.1947
16 37 17 8.6295 0.4799
16 37 19 -3.4442 -0.2275
16 37 21 15.6776 0.2657
16 37 23 -3.6613 -0.0067
16 37 25 -6.1951 -0.1435
16 37 27 12.0269 -0.1973
16 37 29 4.5150 0.1501
16 37 31 -1.5471 0.0999
16 37 33 -3.0942 -0.3867
16 38 16 5.6825 -1.2832
16 38 18 0.7441 1.2490
16 38 20 -2.4822 -0.8810
16 38 22 8.0440 0.0089
16 38 24 1.6935 0.0458
16 38 26 -2.5116 0.4982
16 38 28 -4.9581 -0.3329
16 38 30 3.1731 0.0556
16 38 32 1.9799 0.4137
16 39 17 -0.0042 -0.9512
16 39 19 -1.3140 0.3599
16 39 21 -4.6922 -0.4569
16 39 23 7.2759 0.0701
16 39 25 4.8216 -0.1795
16 39 27 -8.1899 0.2700
16 39 29 10.1740 -0.4263
16 39 31 -1.0698 -0.0660
16 40 16 -0.8694 0.8542
16 40 18 -1.5425 -0.7074
16 40 20 0.7501 0.5294
16 40 22 -5.4234 0.3027
16 40 24 -12.6365 -0.4381
16 40 26 -13.5846 -0.1486
16 40 28 -4.7197 0.3575
16 40 30 1.5786 -0.0295
16 41 17 -3.3762 0.7651
16 41 19 5.7403 -0.2840
16 41 21 2.4502 0.5351
16 41 23 0.4737 0.3059
16 41 25 7.5016 -0.3343
16 41 27 1.8475 0.4087
16 41 29 1.3017 -0.7139
16 42 16 7.2378 -0.2490
16 42 18 -5.8184 0.5028
16 42 20 -3.0368 -0.4476
16 42 22 6.6548 -0.3607
16 42 24 -4.8251 0.2710
16 42 26 9.2309 0.4310
16 42 28 -7.9706 -0.2212
16 43 17 1.7344 -0.6194
16 43 19 -0.5571 0.2288
16 43 21 0.7449 -0.4124
16 43 23 3.2059 -0.5274
16 43 25 1.2145 0.6975
16 44 16 -12.8141 -0.3581
16 44 18 7.8234 -0.3889
16 44 20 2.2085 0.6077
16 44 22 4.6640 -0.2131
16 44 24 1.4132 0.6227
16 45 17 -1.3510 0.7390
16 45 19 5.5121 -0.7120
16 45 21 -0.2298 0.9249
16 45 23 2.6559 -0.2223
16 46 16 -10.0172 0.8997
16 46 18 7.2985 0.0154
16 46 20 0.8262 -0.7265
16 47 17 3.0772 -0.6319
16 47 19 2.2825 1.5550
16 48 16 1.4844 -1.3260
17 18 17 18.9788 -2.1628
17 19 18 28.1330 -1.5000
17 20 17 -1.1351 0.2625
17 20 19 -16.2831 -3.0322
17 21 18 -2.2420 1.6148
17 21 20 1.0350 -1.4921
17 22 17 -19.8646 0.5867
17 22 19 4.2380 0.0128
17 22 21 14.5800 0.9587
17 23 18 4.1567 0.8955
17 23 20 -7.0002 -0.3120
17 23 22 8.7539 2.0436
17 24 17 14.1344 -0.9860
17 24 19 23.7706 -1.6334
17 24 21 4.3279 -0.5178
17 24 23 2.3636 0.7121
17 25 18 -26.1559 0.9793
17 25 20 12.2576 1.1600
17 25 22 -8.9156 -1.4428
17 25 24 2.9222 1.6524
17 26 17 -31.5382 0.8796
17 26 19 6.9105 0.7926
17 26 21 -1.5758 -0.6538
17 26 23 1.9369 -0.0904
17 26 25 -1.7436 -0.2362
17 27 18 -8.8798 -2.2823
17 27 20 1.6173 0.1561
17 27 22 2.8962 0.3752
17 27 24 -1.2547 -0.7586
17 27 26 -2.8303 0.4244
17 28 17 7.0352 -0.3613
17 28 19 -12.8141 -0.0880
17 28 21 6.6096 0.1688
17 28 23 -11.2036 -0.2326
17 28 25 12.6615 0.0831
17 28 27 6.2833 -0.8500
17 29 18 4.7510 2.3460
17 29 20 -8.1882 -0.3448
17 29 22 -3.0166 1.1972
17 29 24 1.8827 -0.2555
17 29 26 9.3674 0.0191
17 29 28 -9.1546 -0.5398
17 30 17 -8.5609 -0.1322
17 30 19 0.4528 -0.4881
17 30 21 -12.6949 -0.3048
17 30 23 3.2646 -0.0223
17 30 25 9.4856 0.1487
17 30 27 -2.2475 -0.1182
17 30 29 -5.1755 -0.1647
17 31 18 4.7113 -1.7122
17 31 20 1.0856 0.0133
17 31 22 -5.8654 -1.0391
17 31 24 -6.9268 0.6581
17 31 26 -8.4585 0.0826
17 31 28 8.6341 -0.0063
17 31 30 -3.6236 -0.3280
17 32 17 -11.8340 0.6546
17 32 19 10.6833 0.8710
17 32 21 -1.5002 0.1711
17 32 23 11.6644 -0.3534
17 32 25 -2.3162 -0.1337
17 32 27 4.0404 0.3186
17 32 29 -5.3546 -0.8271
17 32 31 5.5763 -0.1711
17 33 18 -1.2727 0.6928
17 33 20 -1.8080 0.7757
17 33 22 -12.1572 0.1452
17 33 24 -1.8620 0.1524
17 33 26 7.4531 -0.5063
17 33 28 -7.9811 0.6340
17 33 30 3.3618 -0.0291
17 33 32 -18.4647 -0.2429
17 34 17 6.9467 -0.7192
17 34 19 -14.3616 -1.0992
17 34 21 0.4213 -0.1297
17 34 23 -0.2149 0.7586
17 34 25 4.3881 -0.4082
17 34 27 -3.8745 -0.1118
17 34 29 2.8821 0.5894
17 34 31 0.4753 -0.5595
17 34 33 -6.7193 -0.1203
17 35 18 2.9886 0.1528
17 35 20 11.5911 -0.8972
17 35 22 6.9084 0.1655
17 35 24 -3.7956 -0.3032
17 35 26 3.6262 0.4273
17 35 28 -2.3256 -0.4849
17 35 30 -0.6047 0.3811
17 35 32 2.1395 0.0651
17 35 34 5.7432 -0.3165
17 36 17 4.4939 0.2708
17 36 19 -7.2213 0.9752
17 36 21 1.1461 0.2290
17 36 23 -4.3924 -0.9833
17 36 25 -3.8117 0.7644
17 36 27 2.8976 -0.1771
17 36 29 -3.5255 -0.2822
17 36 31 1.8548 0.1872
17 36 33 2.7966 -0.0112
17 36 35 19.0016 -0.1058
17 37 18 -8.3084 -0.7025
17 37 20 5.7632 0.6264
17 37 22 1.9003 -0.1670
17 37 24 -2.6713 -0.0838
17 37 26 -4.1621 0.1870
17 37 28 4.8364 0.1091
17 37 30 -1.5070 -0.2241
17 37 32 -7.4790 -0.0509
17 37 34 3.8523 0.2793
17 38 17 18.0567 0.3534
17 38 19 -2.7545 -0.9326
17 38 21 -8.1391 0.0540
17 38 23 6.9702 0.6165
17 38 25 -1.1530 -0.5470
17 38 27 -1.7912 -0.1444
17 38 29 6.0086 0.1549
17 38 31 11.2987 0.3727
17 38 33 19.1497 -0.5445
17 39 18 0.0778 1.2851
17 39 20 0.1976 -0.4923
17 39 22 0.7394 0.2560
17 39 24 3.0536 0.5691
17 39 26 0.2765 -0.5866
17 39 28 0.5804 0.2282
17 39 30 -0.6214 -0.1837
17 40 17 -3.8630 -1.0419
17 40 19 3.9817 0.7987
17 40 21 0.4254 -0.2152
17 40 23 -5.0650 -0.4529
17 40 25 -4.2152 0.2539
17 40 27 -3.1283 0.2425
17 40 29 -1.6133 0.2996
17 41 18 -1.2436 -1.8300
17 41 20 2.4544 0.6113
17 41 22 -9.5493 -0.5422
17 41 24 5.4499 -0.3655
17 41 26 4.3483 0.3943
17 41 28 5.8623 -0.3775
17 42 17 4.9277 1.6177
17 42 19 -7.1944 -0.5398
17 42 21 5.2290 0.1478
17 42 23 -14.4233 0.3805
17 42 25 -8.5571 -0.3200
17 42 27 -6.1135 0.6041
17 43 18 -0.0468 1.6530
17 43 20 1.3906 -0.4647
17 43 22 14.5755 0.5381
17 43 24 -1.1572 0.0598
17 43 26 1.1941 -0.4913
17 44 17 1.2151 -1.9959
17 44 19 -1.1189 0.4502
17 44 21 -4.3737 -0.1369
17 44 23 -7.5498 0.0635
17 45 18 0.0150 -0.6951
17 45 20 3.2996 0.0840
17 45 22 6.9562 -0.6554
17 46 17 -6.0240 1.9148
17 46 19 7.1490 -0.8625
17 47 18 -2.0090 0.0687
18 18 18 10.6808 -1.4686
18 19 19 6.1425 -2.0346
18 20 18 7.0936 -0.4659
18 20 20 6.1275 -0.1297
18 21 19 0.1286 2.6863
18 21 21 0.9411 -0.7107
18 22 18 3.8779 -0.9683
18 22 20 -5.6395 -0.8992
18 22 22 -8.8769 -2.6090
18 23 19 -9.4005 0.5137
18 23 21 -0.1742 0.2532
18 23 23 2.6657 -0.1140
18 24 18 6.9731 0.4117
18 24 20 0.4731 0.4643
18 24 22 1.2146 0.6739
18 24 24 2.0754 -2.4371
18 25 19 -4.1803 0.2852
18 25 21 13.8164 -0.5153
18 25 23 -7.0781 0.5295
18 25 25 -2.8573 -0.6636
18 26 18 14.1212 -0.4019
18 26 20 22.8947 0.3118
18 26 22 -1.6196 -0.7030
18 26 24 4.1843 1.2531
18 26 26 -0.0841 -2.4791
18 27 19 1.3301 -0.6907
18 27 21 0.6189 1.4677
18 27 23 3.5621 -0.1930
18 27 25 15.0171 0.3158
18 27 27 -1.4467 -1.2673
18 28 18 4.4628 -0.1723
18 28 20 13.9141 -0.8958
18 28 22 -11.6672 -0.1901
18 28 24 -13.3323 0.2314
18 28 26 1.7523 0.6218
18 28 28 1.2882 -1.5780
18 29 19 -6.1993 0.7076
18 29 21 1.4897 -1.4933
18 29 23 -10.2039 0.2753
18 29 25 -11.0236 0.0005
18 29 27 2.7629 0.6045
18 29 29 -6.6945 -1.5980
18 30 18 1.7008 0.4726
18 30 20 -6.8674 0.8921
18 30 22 23.0695 0.0127
18 30 24 16.2768 -0.8754
18 30 26 -3.3778 0.5678
18 30 28 4.6469 -0.2030
18 30 30 -10.1476 -1.2319
18 31 19 -2.2482 -0.0598
18 31 21 -3.9891 1.4155
18 31 23 22.2117 0.1945
18 31 25 17.6309 -0.2322
18 31 27 -10.6868 0.4018
18 31 29 12.3657 0.5101
18 31 31 -15.2844 -1.7297
18 32 18 3.1582 -0.4947
18 32 20 4.8942 -1.0864
18 32 22 -11.4920 0.2948
18 32 24 13.3379 0.2493
18 32 26 14.1478 -0.7037
18 32 28 -18.4504 0.7377
18 32 30 12.4756 -0.1076
18 32 32 -6.4406 -0.9629
18 33 19 -3.4123 -0.1638
18 33 21 3.0567 -0.9683
18 33 23 -6.1879 -0.4522
18 33 25 -7.7410 0.3589
18 33 27 19.3452 -0.5959
18 33 29 -13.0001 0.5130
18 33 31 14.6149 0.6822
18 33 33 -3.9914 -1.6355
18 34 18 1.7042 0.3639
18 34 20 -5.6303 0.9966
18 34 22 5.2854 -0.5550
18 34 24 -3.7018 0.5686
18 34 26 6.2247 -0.0419
18 34 28 -15.4967 -0.3554
18 34 30 -6.8005 0.0453
18 34 32 6.5685 0.4742
18 34 34 0.7977 -1.7043
18 35 19 5.9823 -0.1226
18 35 21 -2.2291 0.6935
18 35 23 -9.4938 0.4167
18 35 25 -8.9018 -0.4008
18 35 27 16.1839 0.5013
18 35 29 -3.2874 -0.5624
18 35 31 -13.1675 0.1411
18 35 33 -2.5935 0.4259
18 35 35 8.6505 -1.0965
18 36 18 -13.4738 -0.1019
18 36 20 11.6121 -1.0125
18 36 22 -1.8874 0.6187
18 36 24 5.2051 -0.9217
18 36 26 -1.6403 0.7099
18 36 28 13.4390 -0.4209
18 36 30 1.2375 0.1302
18 36 32 -0.3542 0.2681
18 36 34 0.0174 0.6442
18 37 19 8.8031 0.7535
18 37 21 6.1251 -0.5335
18 37 23 8.7119 0.1515
18 37 25 2.4047 0.0458
18 37 27 -8.0502 0.0471
18 37 29 9.3392 0.0379
18 37 31 -4.0914 -0.3135
18 37 33 -5.1116 -0.0297
18 38 18 -5.8559 -0.1737
18 38 20 -16.6900 0.6739
18 38 22 -2.8126 -0.3315
18 38 24 -1.3903 0.2591
18 38 26 -3.3042 -0.5417
18 38 28 -8.6097 0.3725
18 38 30 2.2938 -0.0013
18 38 32 18.9247 -0.1231
18 39 19 -0.6478 -0.9033
18 39 21 6.4160 0.1360
18 39 23 14.7928 -0.2948
18 39 25 -1.1369 0.1221
18 39 27 13.1771 0.3434
18 39 29 1.5986 -0.0022
18 39 31 -0.2308 -0.0377
18 40 18 6.2804 0.3616
18 40 20 -6.1509 -0.3582
18 40 22 -12.7166 0.2069
18 40 24 1.6225 0.1851
18 40 26 -4.2559 -0.3651
18 40 28 -6.3431 -0.2284
18 40 30 -25.8733 0.0988
18 41 19 -1.1162 0.5571
18 41 21 -10.5998 0.2286
18 41 23 -3.0345 0.1800
18 41 25 -7.3161 0.3985
18 41 27 1.0042 -0.6776
18 42 18 6.0797 -0.2481
18 42 20 12.7255 0.1587
18 42 22 -0.6543 -0.1048
18 42 24 21.4207 -0.2975
18 42 26 1.8738 0.2947
18 43 19 -6.6391 -0.3198
18 43 21 3.1189 -0.3936
18 43 23 -14.1188 -0.2689
18 43 25 -0.3657 -0.2789
18 44 18 -16.2138 0.1993
18 44 20 2.0211 -0.3353
18 44 22 11.7663 0.7728
18 45 19 0.1245 0.4737
18 45 21 -4.8191 -0.3192
18 46 18 4.2090 0.0563
19 20 19 3.4881 1.8178
19 21 20 3.3011 1.8617
19 22 19 -2.3079 -1.5273
19 22 21 -11.9469 2.4391
19 23 20 0.8996 -0.8542
19 23 22 2.4525 -0.4232
19 24 19 -8.2103 1.4764
19 24 21 2.9308 -0.9181
19 24 23 -7.2264 -0.6933
19 25 20 -18.1660 -1.3896
19 25 22 7.4023 2.2632
19 25 24 -5.3946 -2.0749
19 26 19 9.1663 -1.0446
19 26 21 -10.4425 1.5863
19 26 23 2.9423 -0.0328
19 26 25 -0.0801 0.3318
19 27 20 -10.4774 -0.2732
19 27 22 -2.0829 -2.2809
19 27 24 17.4057 0.9205
19 27 26 -1.7242 -0.4413
19 28 19 4.6684 0.4275
19 28 21 -4.5935 0.0434
19 28 23 2.9240 0.2597
19 28 25 -0.8863 0.0523
19 28 27 2.5944 0.5635
19 29 20 17.2008 1.0338
19 29 22 18.3862 1.1935
19 29 24 -10.3748 -0.2818
19 29 26 -1.9834 -0.3520
19 29 28 2.4827 0.5674
19 30 19 -2.2920 0.1200
19 30 21 4.3043 -0.9313
19 30 23 -10.3195 0.3050
19 30 25 17.7344 0.0508
19 30 27 4.4363 0.3932
19 30 29 3.8731 0.3757
19 31 20 3.6211 -1.2057
19 31 22 18.5767 -1.0106
19 31 24 16.5746 -0.5263
19 31 26 -0.7387 0.1626
19 31 28 -5.1852 -0.5542
19 31 30 -2.2815 0.4738
19 32 19 -5.0473 -0.7345
19 32 21 4.2365 1.5649
19 32 23 -3.5945 -0.0261
19 32 25 14.3185 -0.0233
19 32 27 -10.9112 -0.2484
19 32 29 2.3957 0.7003
19 32 31 1.0378 -0.3910
19 33 20 -0.0946 0.6552
19 33 22 -7.5121 1.0614
19 33 24 -12.4131 0.2306
19 33 26 -0.8852 0.1777
19 33 28 -9.3850 -0.3985
19 33 30 10.7794 0.2089
19 33 32 -6.4666 -0.6982
19 34 19 -8.5664 1.2544
19 34 21 -0.2315 -1.6188
19 34 23 4.3927 -0.5106
19 34 25 -8.1217 0.6431
19 34 27 16.4691 -0.1495
19 34 29 -14.5982 -0.3889
19 34 31 -0.2414 0.9286
19 34 33 4.6473 0.0823
19 35 20 15.9101 0.1146
19 35 22 14.8839 -1.0294
19 35 24 -13.1036 0.3125
19 35 26 8.7099 -0.5951
19 35 28 13.1149 0.5021
19 35 30 -9.4823 -0.4920
19 35 32 -6.1239 0.0624
19 35 34 -7.4574 0.1784
19 36 19 13.8308 -1.6796
19 36 21 -10.0839 1.5802
19 36 23 2.2251 0.4733
19 36 25 -5.8252 -0.8220
19 36 27 -6.3300 0.3758
19 36 29 5.1463 0.3934
19 36 31 2.3379 -0.5989
19 36 33 -18.2265 -0.0547
19 37 20 11.6575 -0.6647
19 37 22 -16.8987 0.4341
19 37 24 15.2111 -0.0646
19 37 26 -9.7815 0.1950
19 37 28 -7.8620 -0.0769
19 37 30 7.1983 0.1556
19 37 32 -0.0633 0.1415
19 38 19 -2.9886 2.0991
19 38 21 10.7732 -1.3357
19 38 23 1.8241 -0.2870
19 38 25 0.6496 0.7938
19 38 27 4.8791 -0.4470
19 38 29 -4.1691 -0.2023
19 38 31 6.9452 0.0499
19 39 20 -7.4401 1.1617
19 39 22 11.1827 -0.0309
19 39 24 -13.0360 -0.2065
19 39 26 13.0838 0.0827
19 39 28 1.6214 -0.2189
19 39 30 0.3049 0.2180
19 40 19 -1.9370 -2.0497
19 40 21 -2.9244 0.8575
19 40 23 -0.0085 0.2131
19 40 25 -3.4711 -0.3822
19 40 27 -14.7679 0.3859
19 40 29 0.8169 -0.3235
19 41 20 1.8758 -1.2187
19 41 22 2.7720 -0.3878
19 41 24 -11.2572 0.1017
19 41 26 1.4267 -0.1159
19 41 28 14.8723 0.4163
19 42 19 7.6664 1.5609
19 42 21 -6.9388 -0.2442
19 42 23 16.9058 -0.1340
19 42 25 0.3173 0.1718
19 43 20 11.3345 1.0564
19 43 22 -15.9880 0.4239
19 43 24 5.3459 0.3332
19 44 19 -3.5172 -1.0917
19 44 21 3.7784 -0.0911
19 44 23 0.8042 -0.3226
19 45 20 -5.4853 -0.5536
20 20 20 -10.0324 1.5059
20 21 21 -8.1840 2.0210
20 22 20 5.5107 -1.3951
20 22 22 -4.9500 1.8918
20 23 21 5.5251 -2.1842
20 23 23 -2.9749 1.3967
20 24 20 1.0380 2.8979
20 24 22 -1.2600 -1.0461
20 24 24 -0.7072 3.3181
20 25 21 -2.8706 -0.2036
20 25 23 -23.0345 -1.3853
20 25 25 18.5949 1.0281
20 26 20 -4.1465 -2.2630
20 26 22 -3.2649 1.2583
20 26 24 1.0622 -1.1664
20 26 26 4.0817 1.9168
20 27 21 -6.8289 -0.5409
20 27 23 -1.3135 1.1668
20 27 25 9.6792 -0.7630
20 27 27 -0.7772 0.7001
20 28 20 12.6566 1.9850
20 28 22 -8.4811 -1.1022
20 28 24 2.9760 0.5333
20 28 26 0.5911 -0.0132
20 28 28 -3.3262 0.7068
20 29 21 3.0351 0.2121
20 29 23 7.8811 -1.3589
20 29 25 -12.4754 -0.4048
20 29 27 -4.7656 -0.4226
20 29 29 -20.7096 0.1605
20 30 20 -1.0182 -0.3430
20 30 22 -6.1321 1.0002
20 30 24 6.2099 0.3300
20 30 26 19.3956 -0.4492
20 30 28 6.2834 0.9573
20 30 30 -22.8260 -0.3670
20 31 21 -6.3715 -0.1485
20 31 23 -10.4163 1.1193
20 31 25 15.1543 0.4479
20 31 27 -9.0006 -0.4028
20 31 29 26.9519 -0.3321
20 31 31 -13.5225 0.0996
20 32 20 2.7658 -1.1415
20 32 22 0.5994 -0.7247
20 32 24 -2.1018 0.0552
20 32 26 15.0576 0.0675
20 32 28 -15.6948 -0.2958
20 32 30 11.0484 0.8567
20 32 32 -0.5522 0.5461
20 33 21 0.4158 0.0316
20 33 23 1.9027 -0.8397
20 33 25 -6.4420 -0.1775
20 33 27 7.5679 -0.0058
20 33 29 -2.2877 -0.3496
20 33 31 8.7367 -0.2418
20 33 33 5.0980 0.8037
20 34 20 -8.7842 1.9283
20 34 22 7.7331 0.5534
20 34 24 1.0869 -0.9016
20 34 26 -6.4412 0.9666
20 34 28 5.3359 -0.3057
20 34 30 -7.4733 -0.2196
20 34 32 -3.7133 -0.3963
20 34 34 0.0680 2.1882
20 35 21 -9.1399 -0.4494
20 35 23 12.5438 0.7126
20 35 25 -0.1931 -0.0420
20 35 27 -3.4261 0.5189
20 35 29 7.8803 0.0546
20 35 31 6.1576 -0.0135
20 35 33 -0.8642 -0.7638
20 36 20 0.5428 -2.0200
20 36 22 -7.1358 0.1555
20 36 24 9.7767 0.6987
20 36 26 -4.0654 -1.2783
20 36 28 -2.1685 0.6685
20 36 30 0.0141 -0.1219
20 36 32 6.2217 0.5219
20 37 21 -41.4249 0.7822
20 37 23 -18.5292 -0.4718
20 37 25 3.6749 0.0085
20 37 27 1.8656 -0.4406
20 37 29 -15.7793 -0.1942
20 37 31 0.0919 0.2489
20 38 20 8.7313 1.6320
20 38 22 -4.9613 -0.5262
20 38 24 -0.4985 -0.0455
20 38 26 -3.5418 0.9131
20 38 28 13.8807 -0.1673
20 38 30 5.6128 -0.0416
20 39 21 15.5430 -0.9206
20 39 23 17.0809 0.0186
20 39 25 1.8538 -0.1144
20 39 27 -3.8630 -0.4099
20 39 29 7.4406 0.5632
20 40 20 -1.4074 -1.0034
20 40 22 11.2705 0.7790
20 40 24 -4.8694 -0.4710
20 40 26 2.0098 0.5316
20 40 28 -5.3201 -0.4848
20 41 21 12.8376 0.8185
20 41 23 12.7689 0.4102
20 41 25 -9.2610 -0.4453
20 41 27 5.9686 0.6863
20 42 20 13.2112 0.1066
20 42 22 -22.3008 -0.6251
20 42 24 8.6240 0.6249
20 43 21 -5.6675 -0.5198
20 43 23 11.0260 -0.3726
20 44 20 -0.0322 0.6142
20 44 22 -21.3622 -0.3710
21 22 21 13.4365 -2.9408
21 23 22 4.3553 -1.9360
21 24 21 -7.8661 2.8977
21 24 23 2.7411 -1.8822
21 25 22 -6.4806 0.3240
21 25 24 3.0783 0.6656
21 26 21 21.9739 -2.1967
21 26 23 -9.9926 0.8541
21 26 25 4.8351 0.2311
21 27 22 2.4018 1.2083
21 27 24 -2.7730 -1.5116
21 27 26 -0.1109 0.5077
21 28 21 6.3663 0.9861
21 28 23 3.6961 -0.6619
21 28 25 1.2883 -0.3664
21 28 27 -4.7659 -0.3176
21 29 22 14.9833 -0.2314
21 29 24 2.1348 1.6686
21 29 26 -9.5249 0.7352
21 29 28 16.7678 -0.4938
21 30 21 -17.9677 0.3823
21 30 23 9.6443 -0.7611
21 30 25 -14.8729 -0.0078
21 30 27 12.4636 -0.5050
21 30 29 -9.5396 -0.1894
21 31 22 -10.7986 -0.1978
21 31 24 -5.8356 -1.0011
21 31 26 12.6417 -0.3771
21 31 28 -3.9723 0.7688
21 31 30 2.7961 -0.2885
21 32 21 -16.7913 -1.4941
21 32 23 1.0934 1.3182
21 32 25 -15.5106 -0.2130
21 32 27 8.5411 0.2561
21 32 29 10.1189 -0.6782
21 32 31 -12.1931 0.1067
21 33 22 -6.7976 0.2273
21 33 24 -5.8010 0.8168
21 33 26 -7.4954 0.2230
21 33 28 0.5724 0.2884
21 33 30 -8.5818 -0.1067
21 33 32 -2.8809 0.7474
21 34 21 -5.2808 2.2438
21 34 23 2.8135 -1.2209
21 34 25 -3.1400 -0.2226
21 34 27 -10.9781 -0.1797
21 34 29 -10.8754 0.5971
21 34 31 9.0713 -0.6285
21 34 33 -1.0547 -0.1621
21 35 22 15.9648 -0.3881
21 35 24 -9.5559 -0.4074
21 35 26 0.0400 0.0330
21 35 28 18.1358 -0.6176
21 35 30 -6.6893 0.3658
21 35 32 -6.7639 -0.1681
21 35 34 -17.4279 0.3135
21 36 21 -8.0223 -2.7642
21 36 23 2.9065 1.0533
21 36 25 3.4659 0.6266
21 36 27 -8.2806 -0.2102
21 36 29 10.9996 -0.2746
21 36 31 -1.8400 0.2082
21 36 33 -7.2163 0.2085
21 37 22 -22.1844 0.1704
21 37 24 28.1653 -0.0082
21 37 26 -16.4639 -0.2069
21 37 28 -0.6420 0.5190
21 37 30 3.9375 0.0425
21 38 21 -5.1665 2.7287
21 38 23 -0.2962 -0.8316
21 38 25 -8.8395 -0.6785
21 38 27 4.6533 0.5166
21 38 29 -9.5645 -0.2305
21 39 22 -35.2580 0.0875
21 39 24 36.3456 0.7133
21 39 26 -28.1932 -0.0258
21 39 28 1.1280 -0.1318
21 40 21 -3.2227 -2.1405
21 40 23 -2.3864 0.1650
21 40 25 7.8220 0.5435
21 40 27 -5.7164 -0.6053
21 41 22 24.2322 -0.1682
21 41 24 -23.5486 -0.9153
21 41 26 5.0972 0.0523
21 42 21 14.2629 1.2352
21 42 23 5.7605 0.2341
21 42 25 9.4102 -0.0456
21 43 22 -1.4395 0.3889
21 44 21 -8.6821 -0.3037
22 22 22 2.5474 -1.3574
22 23 23 3.5590 -2.6497
22 24 22 1.1071 3.1384
22 24 24 6.4085 -2.4384
22 25 23 -11.2471 1.8086
22 25 25 23.0915 -1.2511
22 26 22 9.4159 -3.8375
22 26 24 -7.9880 1.3673
22 26 26 4.5425 -1.8146
22 27 23 -21.3691 0.2609
22 27 25 22.9808 1.0573
22 27 27 5.7738 0.0697
22 28 22 6.0716 2.1507
22 28 24 -0.6238 -0.9762
22 28 26 1.2001 -0.2561
22 28 28 -4.9012 0.3405
22 29 23 5.0872 -0.2637
22 29 25 -2.4421 -0.0473
22 29 27 -3.7120 -0.0755
22 29 29 2.5251 1.0904
22 30 22 3.7055 -0.6073
22 30 24 10.8831 0.1993
22 30 26 -13.3429 0.1865
22 30 28 -9.3308 -1.3913
22 30 30 0.9029 1.1894
22 31 23 -2.4186 0.5448
22 31 25 -1.1784 0.2631
22 31 27 1.4001 0.7233
22 31 29 0.7711 0.1719
22 31 31 -1.3532 1.0523
22 32 22 0.4103 -1.5710
22 32 24 5.7481 0.2508
22 32 26 -12.8628 -0.1034
22 32 28 5.4338 0.0234
22 32 30 -11.4254 -0.8359
22 32 32 1.6635 0.0136
22 33 23 -0.4085 -0.4734
22 33 25 -0.0952 -0.5162
22 33 27 2.8056 -0.1050
22 33 29 -2.6001 -0.0782
22 33 31 -1.0489 0.0916
22 33 33 9.0646 -0.1592
22 34 22 -9.6170 3.4275
22 34 24 2.5856 -0.6399
22 34 26 4.2316 -0.2342
22 34 28 -1.2172 0.6432
22 34 30 4.8036 -0.3471
22 34 32 5.5445 0.6701
22 34 34 0.4347 -2.9369
22 35 23 -9.8443 -0.0974
22 35 25 5.4581 0.4182
22 35 27 -2.4055 -0.3886
22 35 29 3.5962 0.5154
22 35 31 0.4700 -0.1098
22 35 33 -11.3925 0.9801
22 36 22 9.6250 -3.9602
22 36 24 -11.5046 1.1118
22 36 26 3.9900 0.4388
22 36 28 0.5327 -0.9684
22 36 30 4.5117 0.6851
22 36 32 0.6751 -1.2875
22 37 23 5.3386 0.6144
22 37 25 -2.2530 0.0133
22 37 27 1.1522 0.2341
22 37 29 2.1552 -0.1344
22 37 31 -6.4494 -0.2541
22 38 22 -11.3939 3.3573
22 38 24 12.3896 -1.7375
22 38 26 -5.4830 0.0057
22 38 28 6.0836 0.1447
22 38 30 -13.8555 -0.3494
22 39 23 -13.2772 -0.7176
22 39 25 1.8713 -0.4626
22 39 27 -6.6781 0.8090
22 40 22 -8.3495 -2.0791
22 40 24 5.4905 1.7211
22 40 26 -6.0909 -1.1984
22 41 23 14.6984 0.8713
22 41 25 21.8709 1.1018
22 42 22 7.0629 0.4904
22 42 24 -1.3877 -1.4761
23 24 23 -12.2319 2.8717
23 25 24 2.3960 1.6196
23 26 23 -3.2297 -1.9969
23 26 25 1.5052 0.9967
23 27 24 -18.5887 -1.0586
23 27 26 2.8467 0.1979
23 28 23 -6.6312 0.9923
23 28 25 7.2870 -0.0348
23 28 27 -0.3246 -0.1552
23 29 24 6.1743 -0.1745
23 29 26 -2.9037 -0.3980
23 29 28 0.4030 0.2387
23 30 23 -9.7095 0.1975
23 30 25 4.2038 0.1278
23 30 27 2.7918 0.6649
23 30 29 -5.8009 -0.1977
23 31 24 -11.9081 -0.3461
23 31 26 12.6082 -0.1696
23 31 28 1.2903 -0.9230
23 31 30 -11.3692 -0.2492
23 32 23 7.7777 -1.3269
23 32 25 4.1047 0.4775
23 32 27 -0.2322 0.0498
23 32 29 -1.0957 0.3188
23 32 31 -1.4881 -0.0783
23 33 24 5.9737 0.6865
23 33 26 -10.3119 -0.1217
23 33 28 14.2238 0.2962
23 33 30 -8.8472 0.2603
23 33 32 7.9937 -0.5857
23 34 23 -12.2236 2.0107
23 34 25 2.3611 -0.4460
23 34 27 -0.8420 -0.0330
23 34 29 3.3518 -0.2731
23 34 31 0.1947 0.0185
23 34 33 -6.7220 0.8568
23 35 24 2.3514 -0.7667
23 35 26 -3.3803 0.1713
23 35 28 -12.5987 0.0298
23 35 30 7.8150 -0.2985
23 35 32 -11.4654 -0.0049
23 36 23 14.7446 -2.3036
23 36 25 -18.5448 0.1849
23 36 27 -8.3895 0.2761
23 36 29 -8.4241 -0.1699
23 36 31 4.2505 0.5624
23 37 24 -9.3631 0.5231
23 37 26 12.8749 -0.2133
23 37 28 -10.7639 0.0328
23 37 30 4.4818 0.0314
23 38 23 -9.4317 2.2870
23 38 25 22.2428 0.2474
23 38 27 25.3195 -0.8896
23 38 29 5.7944 0.7780
23 39 24 16.1650 -0.1768
23 39 26 -16.7865 0.5177
23 40 23 9.4781 -1.7373
23 40 25 -16.4673 -0.5300
23 41 24 -26.6047 -0.1901
23 42 23 -12.1289 1.1019
24 24 24 -7.2118 0.7855
24 25 25 2.1186 1.4493
24 26 24 8.8075 -2.2933
24 26 26 -4.9369 0.5837
24 27 25 20.4621 -0.9615
24 27 27 13.9779 -0.6345
24 28 24 6.1141 2.4853
24 28 26 -1.6604 0.3090
24 28 28 4.3391 -0.7206
24 29 25 6.0147 -0.6797
24 29 27 -6.3598 0.1644
24 29 29 2.3698 -1.9373
24 30 24 5.4249 -0.2601
24 30 26 9.1282 -0.4359
24 30 28 -14.0303 1.5795
24 30 30 1.1210 -1.6075
24 31 25 1.7879 0.6979
24 31 27 2.4480 -0.6817
24 31 29 -1.1787 0.7546
24 31 31 2.7867 -1.9614
24 32 24 -5.8832 -1.5524
24 32 26 6.4853 0.7312
24 32 28 -2.6233 -0.3173
24 32 30 -3.9186 0.7730
24 32 32 14.0612 -0.0744
24 33 25 -1.5804 -0.4915
24 33 27 -2.4069 0.1068
24 33 29 3.7281 -0.3212
24 33 31 -0.7640 0.0659
24 33 33 2.8058 -0.5401
24 34 24 -0.1238 3.4379
24 34 26 2.5248 -1.3338
24 34 28 3.9051 -0.0740
24 34 30 -4.7309 0.7464
24 34 32 -3.8230 -1.4952
24 35 25 -1.6110 0.2159
24 35 27 4.3091 0.2531
24 35 29 -0.3633 -0.2568
24 35 31 3.8290 0.3275
24 36 24 9.1593 -4.1652
24 36 26 -12.1401 1.4256
24 36 28 -2.9108 0.4371
24 36 30 -2.2523 -1.2968
24 37 25 0.5954 -0.1260
24 37 27 0.1996 0.2291
24 37 29 0.6743 -0.3472
24 38 24 -8.5987 3.5025
24 38 26 15.0183 -1.4972
24 38 28 1.1367 0.3717
24 39 25 -3.8054 -0.1558
24 39 27 24.1757 -1.2718
24 40 24 10.9794 -2.0022
25 26 25 -2.0133 -1.1023
25 27 26 -0.0411 -0.8948
25 28 25 -2.0409 0.5209
25 28 27 -1.4385 -0.3369
25 29 26 -7.9552 1.5840
25 29 28 6.5604 -0.1055
25 30 25 1.7459 -0.1633
25 30 27 -4.9453 -0.1208
25 30 29 7.9645 0.1382
25 31 26 -0.4901 -0.6796
25 31 28 -1.2360 0.5765
25 31 30 0.0857 0.3815
25 32 25 -6.0483 -0.3049
25 32 27 8.7541 -0.5803
25 32 29 -7.3017 0.2888
25 32 31 -0.5600 0.1815
25 33 26 4.6310 1.5401
25 33 28 -4.9098 -0.6182
25 33 30 -2.1306 -0.1840
25 33 32 -1.8818 1.0135
25 34 25 9.0112 0.6119
25 34 27 -6.6532 0.3616
25 34 29 2.4218 -0.5357
25 34 31 2.7347 0.9460
25 35 26 -4.1763 -0.9178
25 35 28 2.6710 0.1765
25 35 30 1.3331 -0.1084
25 36 25 -19.5759 -0.7430
25 36 27 2.5241 -0.7001
25 36 29 7.8195 1.5080
25 37 26 -1.6252 0.3283
25 37 28 -2.1539 -0.6559
25 38 25 37.1703 0.8695
25 38 27 -13.0771 1.1876
25 39 26 9.2156 -0.1480
26 26 26 -9.2384 0.4355
26 27 27 -13.7940 0.6146
26 28 26 -4.6849 0.1212
26 28 28 -7.1931 1.2451
26 29 27 5.0853 0.0386
26 29 29 -2.2983 1.9815
26 30 26 19.5528 -0.3989
26 30 28 8.4824 -1.2295
26 30 30 -6.7387 1.7506
26 31 27 0.6705 0.5574
26 31 29 -0.2490 -0.7422
26 31 31 -1.7223 2.2285
26 32 26 -1.2128 -1.1789
26 32 28 4.5408 0.6281
26 32 30 7.9731 -0.6949
26 32 32 3.5940 -0.0779
26 33 27 -1.2169 -0.2791
26 33 29 -0.4389 0.2824
26 33 31 1.4865 -1.0303
26 34 26 4.6417 1.7131
26 34 28 -4.6194 0.1254
26 34 30 -4.4411 -0.8615
26 35 27 4.4199 0.2609
26 35 29 -2.0280 -0.1788
26 36 26 1.8985 -2.3169
26 36 28 2.0381 0.1234
26 37 27 -0.3472 -0.1804
26 38 26 -6.0805 2.0001
27 28 27 6.7714 -0.2017
27 29 28 -5.3862 0.2702
27 30 27 0.3512 -0.3925
27 30 29 -0.1446 -0.3248
27 31 28 -1.4613 -1.0889
27 31 30 -3.2064 -1.1413
27 32 27 -6.2681 1.1486
27 32 29 3.3795 -0.6038
27 32 31 2.1761 0.1411
27 33 28 3.7801 0.8561
27 33 30 0.8734 1.2941
27 34 27 3.6870 -1.0972
27 34 29 5.1140 1.0048
27 35 28 0.8881 -0.9851
27 36 27 1.2588 0.9852
28 28 28 -34.1946 -1.3361
28 29 29 1.6054 -1.2462
28 30 28 -9.5577 0.4866
28 30 30 9.1909 -0.4307
28 31 29 5.0693 0.9540
28 31 31 -1.5497 -1.7141
28 32 28 1.0294 -0.1885
28 32 30 21.6946 -0.5066
28 33 29 -2.5694 -0.7117
28 34 28 2.2066 0.2454
29 30 29 -2.9320 -0.1381
29 31 30 4.4253 0.3724
29 32 29 -2.5266 1.5521
29 32 31 1.0333 0.6971
29 33 30 -1.3214 -1.0545
30 30 30 -2.0593 0.4224
30 31 31 8.1454 0.5524
30 32 30 1.9297 0.8821
0 0 0 0.0 0.0
;
_shelx_fab_checksum              53363
_olex2_exptl_crystal_mounting_method
;
In a solvent-free, dinitrogen-filled glovebox, activated crystals were coated 
with Paratone-N oil. The crystals were removed from the glovebox. A suitable 
single crystal was mounted on a MiTeGen loop, and cooled under a stream of N2 
at 100 K for collection.
;
_olex2_submission_original_sample_id PCN-224
_olex2_submission_special_instructions 'No special instructions were received'
loop_
_space_group_symop_operation_xyz
'x, y, z'
'-x, -y, z'
'-x, y, -z'
'x, -y, -z'
'z, x, y'
'z, -x, -y'
'-z, -x, y'
'-z, x, -y'
'y, z, x'
'-y, z, -x'
'y, -z, -x'
'-y, -z, x'
'y, x, -z'
'-y, -x, -z'
'y, -x, z'
'-y, x, z'
'x, z, -y'
'-x, z, y'
'-x, -z, -y'
'x, -z, y'
'z, y, -x'
'z, -y, x'
'-z, y, x'
'-z, -y, -x'
'x+1/2, y+1/2, z+1/2'
'-x+1/2, -y+1/2, z+1/2'
'-x+1/2, y+1/2, -z+1/2'
'x+1/2, -y+1/2, -z+1/2'
'z+1/2, x+1/2, y+1/2'
'z+1/2, -x+1/2, -y+1/2'
'-z+1/2, -x+1/2, y+1/2'
'-z+1/2, x+1/2, -y+1/2'
'y+1/2, z+1/2, x+1/2'
'-y+1/2, z+1/2, -x+1/2'
'y+1/2, -z+1/2, -x+1/2'
'-y+1/2, -z+1/2, x+1/2'
'y+1/2, x+1/2, -z+1/2'
'-y+1/2, -x+1/2, -z+1/2'
'y+1/2, -x+1/2, z+1/2'
'-y+1/2, x+1/2, z+1/2'
'x+1/2, z+1/2, -y+1/2'
'-x+1/2, z+1/2, y+1/2'
'-x+1/2, -z+1/2, -y+1/2'
'x+1/2, -z+1/2, y+1/2'
'z+1/2, y+1/2, -x+1/2'
'z+1/2, -y+1/2, x+1/2'
'-z+1/2, y+1/2, x+1/2'
'-z+1/2, -y+1/2, -x+1/2'
'-x, -y, -z'
'x, y, -z'
'x, -y, z'
'-x, y, z'
'-z, -x, -y'
'-z, x, y'
'z, x, -y'
'z, -x, y'
'-y, -z, -x'
'y, -z, x'
'-y, z, x'
'y, z, -x'
'-y, -x, z'
'y, x, z'
'-y, x, -z'
'y, -x, -z'
'-x, -z, y'
'x, -z, -y'
'x, z, y'
'-x, z, -y'
'-z, -y, x'
'-z, y, -x'
'z, -y, -x'
'z, y, x'
'-x+1/2, -y+1/2, -z+1/2'
'x+1/2, y+1/2, -z+1/2'
'x+1/2, -y+1/2, z+1/2'
'-x+1/2, y+1/2, z+1/2'
'-z+1/2, -x+1/2, -y+1/2'
'-z+1/2, x+1/2, y+1/2'
'z+1/2, x+1/2, -y+1/2'
'z+1/2, -x+1/2, y+1/2'
'-y+1/2, -z+1/2, -x+1/2'
'y+1/2, -z+1/2, x+1/2'
'-y+1/2, z+1/2, x+1/2'
'y+1/2, z+1/2, -x+1/2'
'-y+1/2, -x+1/2, z+1/2'
'y+1/2, x+1/2, z+1/2'
'-y+1/2, x+1/2, -z+1/2'
'y+1/2, -x+1/2, -z+1/2'
'-x+1/2, -z+1/2, y+1/2'
'x+1/2, -z+1/2, -y+1/2'
'x+1/2, z+1/2, y+1/2'
'-x+1/2, z+1/2, -y+1/2'
'-z+1/2, -y+1/2, x+1/2'
'-z+1/2, y+1/2, -x+1/2'
'z+1/2, -y+1/2, -x+1/2'
'z+1/2, y+1/2, x+1/2'
loop_
_atom_site_label
_atom_site_type_symbol
_atom_site_fract_x
_atom_site_fract_y
_atom_site_fract_z
_atom_site_U_iso_or_equiv
_atom_site_adp_type
_atom_site_occupancy
_atom_site_site_symmetry_order
_atom_site_calc_flag
_atom_site_refinement_flags_posn
_atom_site_refinement_flags_adp
_atom_site_refinement_flags_occupancy
_atom_site_disorder_assembly
_atom_site_disorder_group
Zr1 Zr 0.29128(2) 0.29128(2) 0.22438(2) 0.04422(17) Uani 1 2 d S T P . .
C5 C 0.250000 0.41012(6) 0.08988(6) 0.0472(10) Uani 1 2 d S T P . .
N1 N 0.24941(11) 0.44736(7) 0.000000 0.0475(9) Uani 1 2 d S T P . .
H1 H 0.248558 0.469999 -0.000001 0.057 Uiso 0.5 2 calc R U P . .
C7 C 0.25020(10) 0.42634(6) 0.02843(6) 0.0477(8) Uani 1 1 d . . . . .
C6 C 0.250000 0.43739(6) 0.06261(6) 0.0470(11) Uani 1 2 d S T P . .
C4 C 0.27937(11) 0.40350(9) 0.10842(9) 0.0632(10) Uani 1 1 d . . . . .
H4 H 0.299727 0.416324 0.103980 0.076 Uiso 1 1 calc R U . . .
C2 C 0.250000 0.35963(6) 0.14037(6) 0.0448(9) Uani 1 2 d S T P . .
C3 C 0.27944(11) 0.37781(9) 0.13395(8) 0.0600(9) Uani 1 1 d . . . . .
H3 H 0.299820 0.373130 0.146650 0.072 Uiso 1 1 calc R U . . .
O3 O 0.27717(6) 0.32797(6) 0.18399(5) 0.0543(6) Uani 1 1 d . . . . .
C1 C 0.250000 0.33248(6) 0.16752(6) 0.0498(11) Uani 1 2 d S T P . .
C8 C 0.25185(10) 0.39101(6) 0.01729(7) 0.0539(9) Uani 1 1 d . . . . .
H8 H 0.252769 0.371311 0.031760 0.065 Uiso 1 1 calc R U . . .
O2 O 0.25628(7) 0.25628(7) 0.19731(8) 0.0566(9) Uani 1 2 d S T P . .
O1 O 0.2820(2) 0.2820(2) 0.2820(2) 0.115(3) Uani 1 6 d S T P . .
O4 O 0.32193(12) 0.32193(12) 0.24757(17) 0.1147(19) Uani 1 2 d S T P . .
H4A H 0.311481 0.331660 0.263817 0.172 Uiso 0.5 1 calc R U P . .
loop_
_atom_site_aniso_label
_atom_site_aniso_U_11
_atom_site_aniso_U_22
_atom_site_aniso_U_33
_atom_site_aniso_U_23
_atom_site_aniso_U_13
_atom_site_aniso_U_12
Zr1 0.04476(19) 0.04476(19) 0.0431(2) 0.02336(13) 0.02336(13) 0.02470(16)
C5 0.100(3) 0.0206(9) 0.0206(9) 0.0064(12) 0.0044(13) 0.0044(13)
N1 0.108(3) 0.0171(12) 0.0171(12) 0.000 0.000 0.0016(15)
C7 0.104(2) 0.0147(9) 0.0249(11) 0.0021(8) 0.0008(13) 0.0015(12)
C6 0.100(3) 0.0205(9) 0.0205(9) 0.0039(12) 0.0029(13) 0.0029(13)
C4 0.096(3) 0.0475(17) 0.0464(17) 0.0249(14) 0.0068(17) -0.0051(17)
C2 0.072(3) 0.0311(11) 0.0311(11) 0.0152(14) 0.0142(13) 0.0142(13)
C3 0.083(2) 0.0536(18) 0.0436(16) 0.0275(15) 0.0055(16) 0.0083(16)
O3 0.0553(12) 0.0590(13) 0.0486(11) 0.0329(10) 0.0264(10) 0.0277(10)
C1 0.060(2) 0.0448(14) 0.0448(14) 0.0277(18) 0.0204(15) 0.0204(15)
C8 0.117(3) 0.0154(10) 0.0288(13) 0.0021(9) -0.0002(15) 0.0016(13)
O2 0.0605(13) 0.0605(13) 0.0487(16) 0.0244(12) 0.0244(12) 0.0454(16)
O1 0.115(3) 0.115(3) 0.115(3) 0.028(4) 0.028(4) 0.028(4)
O4 0.108(3) 0.108(3) 0.128(5) -0.007(3) -0.007(3) 0.049(3)
loop_
_atom_type_symbol
_atom_type_description
_atom_type_scat_dispersion_real
_atom_type_scat_dispersion_imag
_atom_type_scat_source
C C 0.0033 0.0016 'International Tables Vol C Tables 4.2.6.8 and 6.1.1.4'
H H 0.0000 0.0000 'International Tables Vol C Tables 4.2.6.8 and 6.1.1.4'
N N 0.0061 0.0033 'International Tables Vol C Tables 4.2.6.8 and 6.1.1.4'
O O 0.0106 0.0060 'International Tables Vol C Tables 4.2.6.8 and 6.1.1.4'
Zr Zr -2.9673 0.5597 'International Tables Vol C Tables 4.2.6.8 and 6.1.1.4'
loop_
_geom_angle_atom_site_label_1
_geom_angle_atom_site_label_2
_geom_angle_atom_site_label_3
_geom_angle
_geom_angle_site_symmetry_1
_geom_angle_site_symmetry_3
_geom_angle_publ_flag
Zr1 Zr1 Zr1 60.0 5 9 ?
Zr1 Zr1 Zr1 67.21(2) 77 81 ?
Zr1 Zr1 Zr1 56.398(10) 77 9 ?
Zr1 Zr1 Zr1 56.398(10) 81 5 ?
Zr1 Zr1 Zr1 90.0 77 5 ?
Zr1 Zr1 Zr1 90.0 81 9 ?
Zr1 Zr1 H4A 125(3) 77 62 ?
Zr1 Zr1 H4A 77(5) 9 62 ?
Zr1 Zr1 H4A 91(4) 5 62 ?
Zr1 Zr1 H4A 146(3) 81 62 ?
O3 Zr1 Zr1 109.25(5) . 5 ?
O3 Zr1 Zr1 109.25(5) 62 9 ?
O3 Zr1 Zr1 75.30(6) 62 77 ?
O3 Zr1 Zr1 165.25(6) . 9 ?
O3 Zr1 Zr1 116.85(7) 62 81 ?
O3 Zr1 Zr1 75.30(6) . 81 ?
O3 Zr1 Zr1 165.25(6) 62 5 ?
O3 Zr1 Zr1 116.85(7) . 77 ?
O3 Zr1 O3 79.19(10) . 62 ?
O3 Zr1 O2 84.53(9) . . ?
O3 Zr1 O2 84.53(9) 62 . ?
O3 Zr1 O1 139.60(8) 62 . ?
O3 Zr1 O1 139.60(8) . . ?
O3 Zr1 H4A 115(4) . 62 ?
O3 Zr1 H4A 97(3) 62 62 ?
O2 Zr1 Zr1 83.88(7) 81 9 ?
O2 Zr1 Zr1 96.39(10) 77 81 ?
O2 Zr1 Zr1 84.30(6) . 9 ?
O2 Zr1 Zr1 25.92(8) 81 5 ?
O2 Zr1 Zr1 83.88(7) 77 5 ?
O2 Zr1 Zr1 39.97(12) 81 81 ?
O2 Zr1 Zr1 39.97(12) 77 77 ?
O2 Zr1 Zr1 36.80(3) . 77 ?
O2 Zr1 Zr1 25.91(8) 77 9 ?
O2 Zr1 Zr1 36.80(3) . 81 ?
O2 Zr1 Zr1 96.39(10) 81 77 ?
O2 Zr1 Zr1 84.30(6) . 5 ?
O2 Zr1 O3 84.03(9) 81 . ?
O2 Zr1 O3 155.03(13) 77 . ?
O2 Zr1 O3 84.02(9) 77 62 ?
O2 Zr1 O3 155.03(13) 81 62 ?
O2 Zr1 O2 75.52(13) 81 . ?
O2 Zr1 O2 75.52(13) 77 . ?
O2 Zr1 O2 104.90(15) 81 77 ?
O2 Zr1 O1 105.9(3) . . ?
O2 Zr1 O1 62.21(16) 81 . ?
O2 Zr1 O1 62.21(16) 77 . ?
O2 Zr1 H4A 160(4) . 62 ?
O2 Zr1 H4A 85(3) 77 62 ?
O2 Zr1 H4A 107(3) 81 62 ?
O1 Zr1 Zr1 89.9(3) . 77 ?
O1 Zr1 Zr1 36.84(17) . 9 ?
O1 Zr1 Zr1 89.9(3) . 81 ?
O1 Zr1 Zr1 36.84(17) . 5 ?
O1 Zr1 H4A 61(5) . 62 ?
O4 Zr1 Zr1 96.16(18) . 5 ?
O4 Zr1 Zr1 143.40(8) . 77 ?
O4 Zr1 Zr1 143.40(8) . 81 ?
O4 Zr1 Zr1 96.16(18) . 9 ?
O4 Zr1 O3 95.06(17) . . ?
O4 Zr1 O3 95.06(17) . 62 ?
O4 Zr1 O2 104.78(16) . 81 ?
O4 Zr1 O2 104.78(16) . 77 ?
O4 Zr1 O2 179.5(2) . . ?
O4 Zr1 O1 74.7(4) . . ?
O4 Zr1 H4A 20(4) . 62 ?
C4 C5 C6 120.20(18) 43 . ?
C4 C5 C6 120.21(18) . . ?
C4 C5 C4 119.6(4) . 43 ?
C7 N1 H1 126.5 50 . ?
C7 N1 H1 126.5 . . ?
C7 N1 C7 107.0(3) 50 . ?
N1 C7 C6 125.6(2) . . ?
N1 C7 C8 109.0(2) . . ?
C6 C7 C8 125.4(2) . . ?
C7 C6 C5 117.08(15) . . ?
C7 C6 C5 117.08(15) 43 . ?
C7 C6 C7 125.8(3) . 43 ?
C5 C4 H4 119.9 . . ?
C5 C4 C3 120.3(4) . . ?
C3 C4 H4 119.9 . . ?
C3 C2 C3 120.8(4) . 43 ?
C3 C2 C1 119.62(18) 43 . ?
C3 C2 C1 119.62(18) . . ?
C4 C3 H3 120.2 . . ?
C2 C3 C4 119.6(4) . . ?
C2 C3 H3 120.2 . . ?
C1 O3 Zr1 132.2(2) . . ?
O3 C1 C2 117.53(17) . . ?
O3 C1 C2 117.53(17) 43 . ?
O3 C1 O3 124.9(3) 43 . ?
C7 C8 H8 126.3 . . ?
C8 C8 C7 107.48(14) 50 . ?
C8 C8 H8 126.3 50 . ?
Zr1 O2 Zr1 128.17(17) 81 77 ?
Zr1 O2 Zr1 103.23(12) 81 . ?
Zr1 O2 Zr1 103.23(12) 77 . ?
Zr1 O1 Zr1 106.3(3) . 9 ?
Zr1 O1 Zr1 106.3(3) 5 9 ?
Zr1 O1 Zr1 106.3(3) . 5 ?
Zr1 O4 H4A 109.5 . . ?
Zr1 O4 H4A 109(10) . 62 ?
H4A O4 H4A 82.6 . 62 ?
loop_
_geom_bond_atom_site_label_1
_geom_bond_atom_site_label_2
_geom_bond_distance
_geom_bond_site_symmetry_2
_geom_bond_publ_flag
Zr1 Zr1 3.3197(8) 77 ?
Zr1 Zr1 3.6746(6) 5 ?
Zr1 Zr1 3.6746(6) 9 ?
Zr1 Zr1 3.3197(8) 81 ?
Zr1 O3 2.1887(19) 62 ?
Zr1 O3 2.1887(19) . ?
Zr1 O2 2.0427(14) 81 ?
Zr1 O2 2.0427(14) 77 ?
Zr1 O2 2.191(4) . ?
Zr1 O1 2.296(5) . ?
Zr1 O4 1.910(6) . ?
Zr1 H4A 2.33(6) 62 ?
C5 C6 1.498(5) . ?
C5 C4 1.373(4) . ?
C5 C4 1.373(4) 43 ?
N1 H1 0.8800 . ?
N1 C7 1.373(3) . ?
N1 C7 1.373(3) 50 ?
C7 C6 1.395(3) . ?
C7 C8 1.440(3) . ?
C4 H4 0.9500 . ?
C4 C3 1.407(4) . ?
C2 C3 1.367(4) . ?
C2 C3 1.367(4) 43 ?
C2 C1 1.491(5) . ?
C3 H3 0.9500 . ?
O3 C1 1.246(3) . ?
C8 C8 1.343(5) 50 ?
C8 H8 0.9500 . ?
O4 H4A 0.8400 . ?
O4 H4A 0.84(8) 62 ?
loop_
_geom_torsion_atom_site_label_1
_geom_torsion_atom_site_label_2
_geom_torsion_atom_site_label_3
_geom_torsion_atom_site_label_4
_geom_torsion
_geom_torsion_site_symmetry_1
_geom_torsion_site_symmetry_2
_geom_torsion_site_symmetry_3
_geom_torsion_site_symmetry_4
_geom_torsion_publ_flag
Zr1 O3 C1 C2 -177.67(12) . . . . ?
Zr1 O3 C1 O3 2.32(12) . . . 43 ?
C5 C4 C3 C2 -0.5(5) . . . . ?
N1 C7 C6 C5 178.4(3) . . . . ?
N1 C7 C6 C7 -1.6(3) . . . 43 ?
N1 C7 C8 C8 -0.3(4) . . . 50 ?
C7 N1 C7 C6 179.58(14) 50 . . . ?
C7 N1 C7 C8 0.5(6) 50 . . . ?
C6 C5 C4 C3 -179.8(3) . . . . ?
C6 C7 C8 C8 -179.4(3) . . . 50 ?
C4 C5 C6 C7 105.7(3) . . . . ?
C4 C5 C6 C7 -74.3(3) . . . 43 ?
C4 C5 C6 C7 -74.3(3) 43 . . . ?
C4 C5 C6 C7 105.7(3) 43 . . 43 ?
C4 C5 C4 C3 0.2(3) 43 . . . ?
C3 C2 C3 C4 0.2(2) 43 . . . ?
C3 C2 C1 O3 1.5(2) 43 . . 43 ?
C3 C2 C1 O3 1.5(2) . . . . ?
C3 C2 C1 O3 -178.5(2) 43 . . . ?
C3 C2 C1 O3 -178.5(2) . . . 43 ?
C1 C2 C3 C4 -179.8(3) . . . . ?
C8 C7 C6 C5 -2.7(4) . . . . ?
C8 C7 C6 C7 177.3(4) . . . 43 ?
loop_
_smtbx_masks_void_nr
_smtbx_masks_void_average_x
_smtbx_masks_void_average_y
_smtbx_masks_void_average_z
_smtbx_masks_void_volume
_smtbx_masks_void_count_electrons
_smtbx_masks_void_content
1 -0.789 -0.665 -0.607 48182.0 9325.6 ?
