#------------------------------------------------------------------------------
#$Date: 2021-02-05 01:22:25 +0200 (Fri, 05 Feb 2021) $
#$Revision: 261709 $
#$URL: file:///home/coder/svn-repositories/cod/cif/1/55/88/1558876.cif $
#------------------------------------------------------------------------------
#
# This file is available in the Crystallography Open Database (COD),
# http://www.crystallography.net/
#
# All data on this site have been placed in the public domain by the
# contributors.
#
data_1558876
loop_
_publ_author_name
'Cadman, Laura K.'
'Mahon, Mary F.'
'Burrows, Andrew D.'
_publ_section_title
;
 Inclusion of viologen cations leads to switchable metal-organic
 frameworks.
;
_journal_name_full               'Faraday discussions'
_journal_page_first              414
_journal_page_last               430
_journal_paper_doi               10.1039/c9fd00137a
_journal_volume                  225
_journal_year                    2021
_chemical_formula_moiety
'0.25(C128 H64 O64 Zn12), 1.4(C3 H7 N1 O1), 0.9(C14 H18 N2), 0.7(O1)'
_chemical_formula_sum            'C49.2 H46.78 N3.4 O18.7 Zn3'
_chemical_formula_weight         1180.99
_space_group_crystal_system      monoclinic
_space_group_IT_number           15
_space_group_name_Hall           '-C 2yc'
_space_group_name_H-M_alt        'C 1 2/c 1'
_atom_sites_solution_hydrogens   geom
_atom_sites_solution_primary     iterative
_audit_creation_date             2017-01-12
_audit_creation_method
;
Olex2 1.2
(compiled 2017.01.04 svn.r3372 for OlexSys, GUI svn.r5289)
;
_audit_update_record
;
2019-12-04 deposited with the CCDC.	2020-08-19 downloaded from the CCDC.
;
_cell_angle_alpha                90
_cell_angle_beta                 102.534(2)
_cell_angle_gamma                90
_cell_formula_units_Z            4
_cell_length_a                   32.6406(6)
_cell_length_b                   9.63384(16)
_cell_length_c                   18.4404(4)
_cell_measurement_reflns_used    12148
_cell_measurement_temperature    150.01(10)
_cell_measurement_theta_max      72.5940
_cell_measurement_theta_min      4.7730
_cell_volume                     5660.47(19)
_computing_cell_refinement       'CrysAlisPro 1.171.38.41 (Rigaku OD, 2015)'
_computing_data_collection       'CrysAlisPro 1.171.38.41 (Rigaku OD, 2015)'
_computing_data_reduction        'CrysAlisPro 1.171.38.41 (Rigaku OD, 2015)'
_computing_molecular_graphics    'Olex2 (Dolomanov et al., 2009)'
_computing_publication_material  'Olex2 (Dolomanov et al., 2009)'
_computing_structure_refinement  'ShelXL (Sheldrick, 2015)'
_computing_structure_solution    'olex2.solve (Bourhis et al., 2015)'
_diffrn_ambient_environment      N~2~
_diffrn_ambient_temperature      150.01(10)
_diffrn_detector                 'CCD plate'
_diffrn_detector_area_resol_mean 8.1150
_diffrn_detector_type            EosS2
_diffrn_measured_fraction_theta_full 0.999
_diffrn_measured_fraction_theta_max 0.989
_diffrn_measurement_device       'four-circle diffractometer'
_diffrn_measurement_device_type  'SuperNova, Dual, Cu at zero, EosS2'
_diffrn_measurement_method       '\w scans'
_diffrn_radiation_monochromator  mirror
_diffrn_radiation_probe          x-ray
_diffrn_radiation_type           CuK\a
_diffrn_radiation_wavelength     1.54184
_diffrn_reflns_av_R_equivalents  0.0437
_diffrn_reflns_av_unetI/netI     0.0523
_diffrn_reflns_Laue_measured_fraction_full 0.999
_diffrn_reflns_Laue_measured_fraction_max 0.989
_diffrn_reflns_limit_h_max       39
_diffrn_reflns_limit_h_min       -40
_diffrn_reflns_limit_k_max       11
_diffrn_reflns_limit_k_min       -11
_diffrn_reflns_limit_l_max       22
_diffrn_reflns_limit_l_min       -22
_diffrn_reflns_number            26374
_diffrn_reflns_point_group_measured_fraction_full 0.999
_diffrn_reflns_point_group_measured_fraction_max 0.989
_diffrn_reflns_theta_full        67.684
_diffrn_reflns_theta_max         72.870
_diffrn_reflns_theta_min         4.796
_diffrn_source                   'micro-focus sealed X-ray tube'
_diffrn_source_type              'SuperNova (Cu) X-ray Source'
_exptl_absorpt_coefficient_mu    2.091
_exptl_absorpt_correction_T_max  1.00000
_exptl_absorpt_correction_T_min  0.77967
_exptl_absorpt_correction_type   multi-scan
_exptl_absorpt_process_details
;
CrysAlisPro 1.171.38.41 (Rigaku Oxford Diffraction, 2015)
Empirical absorption correction using spherical harmonics,
 implemented in SCALE3 ABSPACK scaling algorithm.
;
_exptl_crystal_colour            yellow
_exptl_crystal_density_diffrn    1.386
_exptl_crystal_description       block
_exptl_crystal_F_000             2422
_exptl_crystal_size_max          0.091
_exptl_crystal_size_mid          0.068
_exptl_crystal_size_min          0.034
_platon_squeeze_details
;
TITL
CELL   32.6406    9.6338   18.4404     90.00    102.53     90.00
SPGR C2/c
# Solvent Accessible Volume =       522
# Note: Atoms in Void as Cxxx and Qxxx all others
C101 0.541 0.472 0.033 !       6.39 eA-3
C102 0.454 0.354 0.713 !       4.20 eA-3
Q103 0.545 0.428 0.187 !       3.04 eA-3
Q104 0.081 0.228 0.858 !       1.34 eA-3
Q105 0.103 0.377 0.208 !       1.22 eA-3
Q106 0.603 0.058 0.952 !       1.06 eA-3
Q107 0.563 0.280 0.944 !       0.99 eA-3
Q108 0.125 0.191 0.884 !       0.97 eA-3
Q109 0.876 0.474 0.322 !       0.87 eA-3
Q110 0.111 0.279 0.851 !       0.84 eA-3
Q111 0.883 0.501 0.981 !       0.83 eA-3
Q112 0.946 0.125 0.639 !       0.83 eA-3
Q113 0.384 0.122 0.347 !       0.82 eA-3
Q114 0.384 0.318-0.003 !       0.82 eA-3
Q115 0.029 0.205 0.826 !       0.82 eA-3
Q116 0.624 0.191 0.952 !       0.81 eA-3
Q117 0.900 0.184 0.589 !       0.77 eA-3
C118 0.959 0.122 0.308 !       0.75 eA-3
Q119 0.328 0.039 0.113 !       0.74 eA-3
Q120 0.991 0.338 0.471 !       0.74 eA-3
Q121 0.638 0.323 0.468 !       0.73 eA-3
Q122 0.670 0.090 0.651 !       0.73 eA-3
Q123 0.661 0.028 0.644 !       0.73 eA-3
Q124 0.146 0.184 0.368 !       0.72 eA-3
Q125 0.646 0.684 0.368 !       0.72 eA-3
Q126 0.231 0.072 0.263 !       0.72 eA-3
Q127 0.866 0.115 0.551 !       0.71 eA-3
Q128 0.227 0.153 0.406 !       0.71 eA-3
Q129 0.349 0.215 0.501 !       0.69 eA-3
Q130 0.147 0.191 0.400 !       0.68 eA-3
Q131 0.407 0.349 0.068 !       0.68 eA-3
Q132 0.150 0.156 0.548 !       0.66 eA-3
Q133 0.859 0.066 0.264 !       0.65 eA-3
Q134 0.584 0.193 0.917 !       0.64 eA-3
Q135 0.045 0.101 0.801 !       0.64 eA-3
Q136 0.687 0.117 0.979 !       0.63 eA-3
Q137 0.962 0.336 0.815 !       0.61 eA-3
Q138 0.669 0.033 0.174 !       0.60 eA-3
Q139 0.723 0.245 0.002 !       0.60 eA-3
Q140 0.343 0.223 0.465 !       0.59 eA-3
Q141 0.359 0.127 0.293 !       0.57 eA-3
Q142 0.039 0.423 0.017 !       0.57 eA-3
Q143 0.679 0.203 0.965 !       0.57 eA-3
Q144 0.837 0.155 0.048 !       0.55 eA-3
Q145 0.814 0.053 0.875 !       0.54 eA-3
C146 0.500 0.342 0.744 !       0.54 eA-3
Q147 0.214 0.122 0.569 !       0.53 eA-3
Q148 0.553 0.046 0.250 !       0.51 eA-3
Q149 0.649 0.147 0.653 !       0.51 eA-3
Q150 0.373 0.079 0.294 !       0.51 eA-3
Q151 0.789 0.457 0.564 !       0.51 eA-3
Q152 0.860 0.154 0.049 !       0.50 eA-3
Q153 0.852 0.292 0.069 !       0.50 eA-3
;
_refine_diff_density_max         0.711
_refine_diff_density_min         -0.697
_refine_diff_density_rms         0.102
_refine_ls_extinction_method     none
_refine_ls_goodness_of_fit_ref   1.031
_refine_ls_hydrogen_treatment    constr
_refine_ls_matrix_type           full
_refine_ls_number_parameters     463
_refine_ls_number_reflns         26374
_refine_ls_number_restraints     153
_refine_ls_restrained_S_all      1.037
_refine_ls_R_factor_all          0.0698
_refine_ls_R_factor_gt           0.0568
_refine_ls_shift/su_max          0.000
_refine_ls_shift/su_mean         0.000
_refine_ls_structure_factor_coef Fsqd
_refine_ls_weighting_details
'w=1/[\s^2^(Fo^2^)+(0.0827P)^2^+23.4221P] where P=(Fo^2^+2Fc^2^)/3'
_refine_ls_weighting_scheme      calc
_refine_ls_wR_factor_gt          0.1495
_refine_ls_wR_factor_ref         0.1597
_reflns_Friedel_coverage         0.000
_reflns_number_gt                21569
_reflns_number_total             26374
_reflns_threshold_expression     'I > 2\s(I)'
_iucr_refine_instructions_details
;
TITL
REM 385 parameters refined using 96 restraints
REM Highest difference peak 5.283, deepest hole -1.245, 1-sigma level 0.274
CELL 1.54184 32.640624 9.63384 18.440433 90 102.5339 90
ZERR 4 0.000639 0.000158 0.00039 0 0.0021 0
LATT 7
SYMM -X,+Y,0.5-Z
SFAC C H N O Zn
UNIT 196.8 187.12 13.6 74.8 12
SADI 0.1 N2 C26 N2 C27 C28 C27 C28 C24 C25 C24 C26 C25 C22 C21 C21 C20 C20 =
 C19 N1 C19 N1 C23 C23 C22
SADI 0.005 N2 C29 N1 C18
SADI 0.005 N3 C33 N3 C32 N4 C35 N4 C36
SADI 0.005 N3 C31 N4 C34
SADI 0.005 O10 C34 O9 C31
SADI 0.005 C36 C35 C33 C32
SADI 0.005 C34 C36 C33 C31
FLAT C34 O10 C36 N4 C35
FLAT O9 N3 C32 C31 C33
SIMU 0.01 0.005 2 C34 O10 C36 N4 C35
SIMU 0.01 0.005 2 O9 N3 C32 C31 C33
SIMU 0.005 0.005 2 C21 C20 C19 C23 C22
EADP N2 N3
 
L.S. 20 0 19
PLAN  10
TEMP -123
GRID
ABIN
fmap 2
acta
MERG 0
OMIT 7 1 2
OMIT 2 0 2
REM <olex2.extras>
REM <HklSrc "%.\\s16lkc12_sq.hkl">
REM </olex2.extras>
 
WGHT    0.082700   23.422100
FVAR       1.74296
ZN1   5    0.351672   -0.204031    0.042845    11.00000    0.01733    0.01302 =
         0.01819   -0.00040    0.00814   -0.00252
ZN2   5    0.250000   -0.250000    0.000000    10.50000    0.01556    0.01060 =
         0.01541   -0.00006    0.00693    0.00042
O1    4    0.277305   -0.321488    0.103944    11.00000    0.02504    0.02666 =
         0.01777    0.00458    0.00311   -0.00487
O2    4    0.347881   -0.315739    0.128871    11.00000    0.02379    0.02520 =
         0.02333    0.00679    0.01173    0.00220
O3    4    0.282512   -0.617768    0.446914    11.00000    0.02774    0.01456 =
         0.03121    0.00685    0.01876    0.00045
O4    4    0.348694   -0.685519    0.451913    11.00000    0.02123    0.03931 =
         0.02653    0.01456    0.00964    0.00477
O5    4    0.299167   -0.092796    0.010377    11.00000    0.01909    0.00941 =
         0.02840   -0.00134    0.00981   -0.00138
O6    4    0.324452    0.014887    0.117299    11.00000    0.05212    0.02139 =
         0.03741   -0.00661   -0.01216    0.01216
O7    4    0.397009   -0.075762    0.034968    11.00000    0.03968    0.07019 =
         0.09568   -0.04236    0.03916   -0.03170
O8    4    0.435044   -0.265807    0.065296    11.00000    0.06334    0.08970 =
         0.08733    0.02525    0.02012   -0.03733
C1    1    0.312413   -0.344607    0.143262    11.00000    0.02347    0.01010 =
         0.02242   -0.00159    0.00657    0.00094
C2    1    0.313713   -0.415346    0.216715    11.00000    0.02264    0.01737 =
         0.01913    0.00276    0.00705   -0.00022
C3    1    0.351537   -0.456523    0.261727    11.00000    0.02004    0.03775 =
         0.02808    0.01434    0.01163    0.00155
AFIX  43
H3    2    0.377124   -0.438959    0.246754    11.00000   -1.20000
AFIX   0
C4    1    0.352027   -0.522698    0.327960    11.00000    0.01950    0.03314 =
         0.02713    0.01339    0.00637    0.00237
AFIX  43
H4    2    0.377967   -0.551680    0.358315    11.00000   -1.20000
AFIX   0
C5    1    0.314753   -0.547508    0.350829    11.00000    0.02211    0.01904 =
         0.02254    0.00471    0.00959    0.00064
C6    1    0.277338   -0.504357    0.306579    11.00000    0.01852    0.03069 =
         0.02589    0.00693    0.01110    0.00072
AFIX  43
H6    2    0.251824   -0.519758    0.322189    11.00000   -1.20000
AFIX   0
C7    1    0.276637   -0.439218    0.240044    11.00000    0.01842    0.03062 =
         0.02295    0.00855    0.00448    0.00242
AFIX  43
H7    2    0.250644   -0.410346    0.209827    11.00000   -1.20000
AFIX   0
C8    1    0.315100   -0.623108    0.422288    11.00000    0.02279    0.01432 =
         0.02307    0.00041    0.00885   -0.00240
C9    1    0.300917    0.011180    0.056020    11.00000    0.02634    0.01249 =
         0.02853    0.00138    0.00925    0.00100
C10   1    0.273317    0.133197    0.026908    11.00000    0.02151    0.00802 =
         0.02799    0.00036    0.00583   -0.00127
C11   1    0.269254    0.241619    0.074870    11.00000    0.03141    0.01349 =
         0.02445   -0.00216    0.00397   -0.00087
AFIX  43
H11   2    0.282457    0.235746    0.126030    11.00000   -1.20000
AFIX   0
C12   1    0.254028    0.142182   -0.047908    11.00000    0.02999    0.00921 =
         0.02978   -0.00300    0.00878   -0.00043
AFIX  43
H12   2    0.256833    0.068348   -0.080633    11.00000   -1.20000
AFIX   0
C13   1    0.430102   -0.141032    0.043401    11.00000    0.05137    0.06813 =
         0.05000   -0.01371    0.01660   -0.03750
C14   1    0.466621   -0.067064    0.021201    11.00000    0.03253    0.06688 =
         0.05752    0.00247    0.01394   -0.02437
C15   1    0.505319   -0.130248    0.032460    11.00000    0.04379    0.05896 =
         0.09292    0.01627    0.01480   -0.01962
AFIX  43
H15   2    0.509368   -0.219635    0.054615    11.00000   -1.20000
AFIX   0
C16   1    0.461550    0.062392   -0.011195    11.00000    0.03030    0.07154 =
         0.09305    0.01222    0.02001   -0.01206
AFIX  43
H16   2    0.434878    0.106245   -0.019179    11.00000   -1.20000
AFIX   0
 
PART 2
O9    4    0.534854    0.336457    0.328806    10.35000    0.06608    0.13735 =
         0.08248   -0.04294   -0.00653    0.04564
N3    3    0.596861    0.332361    0.403814    10.35000    0.02947    0.06654 =
         0.05571   -0.02019    0.00443   -0.00258
C31   1    0.560789    0.360347    0.385001    10.35000    0.05503    0.13033 =
         0.08381   -0.03533    0.00506    0.03909
AFIX  43
H31   2    0.550172    0.411422    0.420991    10.35000   -1.20000
AFIX   0
C32   1    0.616812    0.269746    0.356013    10.35000    0.05132    0.09234 =
         0.06622   -0.00825   -0.00353    0.00813
AFIX 137
H32A  2    0.620272    0.170830    0.368208    10.35000   -1.50000
H32B  2    0.644447    0.312453    0.359821    10.35000   -1.50000
H32C  2    0.600232    0.280397    0.305230    10.35000   -1.50000
AFIX   0
C33   1    0.618716    0.362460    0.472307    10.35000    0.05648    0.08149 =
         0.06972   -0.02583   -0.00812    0.00174
AFIX 137
H33A  2    0.628976    0.276358    0.498307    10.35000   -1.50000
H33B  2    0.600546    0.411215    0.499820    10.35000   -1.50000
H33C  2    0.642604    0.421811    0.468862    10.35000   -1.50000
AFIX   0
 
O10   4    0.426959   -0.097184    0.272348    10.35000    0.09225    0.08176 =
         0.09608   -0.01990    0.00936   -0.02421
N4    3    0.381410    0.019693    0.306923    10.35000    0.09098    0.12808 =
         0.10935   -0.06426   -0.01183    0.01887
C34   1    0.392168   -0.086708    0.282825    10.35000    0.07984    0.08766 =
         0.08692   -0.02733    0.01497   -0.02573
AFIX  43
H34   2    0.373144   -0.162355    0.272101    10.35000   -1.20000
AFIX   0
C35   1    0.405825    0.133588    0.324890    10.35000    0.09860    0.11604 =
         0.10666   -0.05998   -0.01126    0.01955
AFIX 137
H35A  2    0.404146    0.165458    0.374630    10.35000   -1.50000
H35B  2    0.396013    0.207398    0.288718    10.35000   -1.50000
H35C  2    0.434982    0.110324    0.324322    10.35000   -1.50000
AFIX   0
C36   1    0.340782    0.031441    0.311143    10.35000    0.08964    0.14294 =
         0.11636   -0.07609   -0.00754    0.02746
AFIX 137
H36A  2    0.322764   -0.001169    0.264664    10.35000   -1.50000
H36B  2    0.334394    0.128870    0.319255    10.35000   -1.50000
H36C  2    0.335695   -0.024850    0.352573    10.35000   -1.50000
AFIX   0
 
PART 0
PART -1
N1    3    0.619013    0.014497    0.204611    10.45000    0.04288    0.03656 =
         0.05165    0.01521   -0.00766   -0.00367
AFIX  66
N2    3    0.415710    0.298439    0.127496    10.45000    0.02947    0.06654 =
         0.05571   -0.02019    0.00443   -0.00258
C27   1    0.450257    0.383090    0.128015    10.45000    0.02964    0.09298 =
         0.08884    0.03887   -0.01039   -0.02329
AFIX  43
H27   2    0.446297    0.477247    0.112800    10.45000   -1.20000
AFIX  65
C28   1    0.490599    0.329977    0.150796    10.45000    0.04089    0.03864 =
         0.07935    0.00440    0.00065   -0.00214
AFIX  43
H28   2    0.514210    0.387833    0.151151    10.45000   -1.20000
AFIX  65
C24   1    0.496393    0.192211    0.173058    10.45000    0.04178    0.04882 =
         0.04609   -0.00290    0.00202   -0.01764
C25   1    0.461845    0.107559    0.172540    10.45000    0.03641    0.04638 =
         0.05996   -0.01098    0.00864   -0.00916
AFIX  43
H25   2    0.465805    0.013402    0.187755    10.45000   -1.20000
AFIX  65
C26   1    0.421504    0.160670    0.149759    10.45000    0.04885    0.03346 =
         0.05773   -0.01372    0.01263   -0.00687
AFIX  43
H26   2    0.397892    0.102814    0.149404    10.45000   -1.20000
AFIX   0
C17   1    0.661618   -0.119718    0.147984    10.45000    0.04519    0.07261 =
         0.04836    0.01850    0.03108    0.01175
AFIX 137
H17A  2    0.689618   -0.160754    0.153823    10.45000   -1.50000
H17B  2    0.656898   -0.053540    0.106643    10.45000   -1.50000
H17C  2    0.640384   -0.193190    0.137641    10.45000   -1.50000
AFIX   0
C18   1    0.658727   -0.051358    0.212830    10.45000    0.03966    0.04451 =
         0.07428    0.02806    0.01896   -0.00140
AFIX  23
H18A  2    0.681275    0.019024    0.224993    10.45000   -1.20000
H18B  2    0.662564   -0.118693    0.254313    10.45000   -1.20000
AFIX   0
C19   1    0.592212   -0.044296    0.243361    10.45000    0.03779    0.07138 =
         0.04766    0.00582    0.00854   -0.01125
AFIX  43
H19   2    0.600938   -0.119536    0.276405    10.45000   -1.20000
AFIX   0
C20   1    0.548397    0.013768    0.232122    10.45000    0.05021    0.06048 =
         0.05200    0.00054    0.00961   -0.00523
AFIX  43
H20   2    0.528072   -0.026996    0.255414    10.45000   -1.20000
AFIX   0
C21   1    0.538912    0.128827    0.186534    10.45000    0.03855    0.03426 =
         0.03814   -0.00044    0.00013   -0.00168
C22   1    0.570720    0.179888    0.156632    10.45000    0.04087    0.03604 =
         0.03955    0.00059    0.00914   -0.00727
AFIX  43
H22   2    0.564280    0.259305    0.125719    10.45000   -1.20000
AFIX   0
C23   1    0.609523    0.131159    0.165878    10.45000    0.04784    0.02834 =
         0.03729    0.00043    0.02163   -0.01765
AFIX  43
H23   2    0.629976    0.178196    0.145430    10.45000   -1.20000
AFIX   0
C29   1    0.375308    0.352252    0.095280    10.45000    0.04405    0.02700 =
         0.09074   -0.00593    0.02012    0.00402
AFIX  23
H29A  2    0.375111    0.453346    0.104833    10.45000   -1.20000
H29B  2    0.354335    0.308588    0.119606    10.45000   -1.20000
AFIX   0
C30   1    0.363021    0.327935    0.014841    10.45000    0.02435    0.05519 =
         0.05911    0.02677   -0.00001   -0.00680
AFIX 137
H30A  2    0.363070    0.227991    0.004960    10.45000   -1.50000
H30B  2    0.382983    0.374303   -0.009862    10.45000   -1.50000
H30C  2    0.334814    0.365288   -0.004239    10.45000   -1.50000
AFIX   0
 
PART 0
PART 2
O11   4    0.543233    0.415290    0.178727    10.35000    0.11652    0.04543 =
         0.10754   -0.00169    0.03365   -0.01369
HKLF 4
 
REM
REM R1 =  0.0568 for   21569 Fo > 4sig(Fo)  and  0.0698 for all   26374 data
REM    463 parameters refined using    153 restraints
 
END  
     
WGHT      0.0827     23.4321 

REM Highest difference peak  0.711,  deepest hole -0.697,  1-sigma level  0.102
Q1    1   0.3453 -0.2057 -0.0218  11.00000  0.05    0.71
Q2    1   0.3836 -0.0151 -0.0222  11.00000  0.05    0.64
Q3    1   0.4181 -0.1662  0.0804  11.00000  0.05    0.57
Q4    1   0.2151 -0.2671 -0.0017  11.00000  0.05    0.56
Q5    1   0.6306  0.3969  0.4646  11.00000  0.05    0.55
Q6    1   0.3978 -0.1129  0.2907  11.00000  0.05    0.54
Q7    1   0.2529 -0.2546  0.0621  11.00000  0.05    0.53
Q8    1   0.3832 -0.1892  0.0408  11.00000  0.05    0.52
Q9    1   0.3439 -0.0364  0.3672  11.00000  0.05    0.50
Q10   1   0.5317  0.2875  0.3235  11.00000  0.05    0.50

  REM The information below was added by Olex2.
  REM
  REM R1 = 0.0568 for 21569 Fo > 4sig(Fo) and 0.0698 for all 27299 data
  REM n/a parameters refined using n/a restraints
  REM Highest difference peak 0.71, deepest hole -0.70
  REM Mean Shift 0, Max Shift 0.000.

  REM +++ Tabular Listing of Refinement Information +++
  REM R1_all = 0.0698
  REM R1_gt = 0.0568
  REM wR_ref = 0.1597
  REM GOOF = 1.031
  REM Shift_max = 0.000
  REM Shift_mean = 0
  REM Reflections_all = 27299
  REM Reflections_gt = 21569
  REM Parameters = n/a
  REM Hole = -0.70
  REM Peak = 0.71
  REM Flack = n/a

  
;
_cod_data_source_file            c9fd00137a2.cif
_cod_data_source_block           s16lkc12_sq-7-prime
_cod_depositor_comments
'Adding full bibliography for 1558875--1558878.cif.'
_cod_original_cell_volume        5660.48(19)
_cod_original_formula_sum        'C49.20 H46.78 N3.40 O18.70 Zn3'
_cod_database_code               1558876
_shelxl_version_number           2014-3
_shelx_space_group_comment
;
The symmetry employed for this shelxl refinement is uniquely defined
by the following loop, which should always be used as a source of
symmetry information in preference to the above space-group names.
They are only intended as comments.
;
_olex2_refinement_description
;
1. Fixed Uiso
 At 1.2 times of:
  All C(H) groups, All C(H,H) groups
 At 1.5 times of:
  All C(H,H,H) groups
2. Restrained distances
 N2-C26 \\sim N2-C27 \\sim C28-C27 \\sim C28-C24 \\sim C25-C24 \\sim C26-C25
\\sim C22-C21 \\sim C21-C20 
 C20-C19 \\sim N1-C19 \\sim N1-C23 \\sim C23-C22
 with sigma of 0.1
 N2-C29 \\sim N1-C18
 with sigma of 0.005
 N3-C33 \\sim N3-C32 \\sim N4-C35 \\sim N4-C36
 with sigma of 0.005
 N3-C31 \\sim N4-C34
 with sigma of 0.005
 O10-C34 \\sim O9-C31
 with sigma of 0.005
 C36-C35 \\sim C33-C32
 with sigma of 0.005
 C34-C36 \\sim C33-C31
 with sigma of 0.005
3. Restrained planarity
 C34, O10, C36, N4, C35
 with sigma of 0.1
 O9, N3, C32, C31, C33
 with sigma of 0.1
4. Uiso/Uaniso restraints and constraints
C34 \\sim O10 \\sim C36 \\sim N4 \\sim C35: within 2A with sigma of 0.01 and
sigma for terminal atoms of 0.005
O9 \\sim N3 \\sim C32 \\sim C31 \\sim C33: within 2A with sigma of 0.01 and
sigma for terminal atoms of 0.005
C21 \\sim C20 \\sim C19 \\sim C23 \\sim C22: within 2A with sigma of 0.005 and
sigma for terminal atoms of 0.005
Uanis(N2) = Uanis(N3)
5. Others
 Fixed Sof: O9(0.35) N3(0.35) C31(0.35) H31(0.35) C32(0.35) H32A(0.35)
 H32B(0.35) H32C(0.35) C33(0.35) H33A(0.35) H33B(0.35) H33C(0.35) O10(0.35)
 N4(0.35) C34(0.35) H34(0.35) C35(0.35) H35A(0.35) H35B(0.35) H35C(0.35)
 C36(0.35) H36A(0.35) H36B(0.35) H36C(0.35) N1(0.45) N2(0.45) C27(0.45)
 H27(0.45) C28(0.45) H28(0.45) C24(0.45) C25(0.45) H25(0.45) C26(0.45)
 H26(0.45) C17(0.45) H17A(0.45) H17B(0.45) H17C(0.45) C18(0.45) H18A(0.45)
 H18B(0.45) C19(0.45) H19(0.45) C20(0.45) H20(0.45) C21(0.45) C22(0.45)
 H22(0.45) C23(0.45) H23(0.45) C29(0.45) H29A(0.45) H29B(0.45) C30(0.45)
 H30A(0.45) H30B(0.45) H30C(0.45) O11(0.35)
6.a Secondary CH2 refined with riding coordinates:
 C18(H18A,H18B), C29(H29A,H29B)
6.b Aromatic/amide H refined with riding coordinates:
 C3(H3), C4(H4), C6(H6), C7(H7), C11(H11), C12(H12), C15(H15), C16(H16),
 C31(H31), C34(H34), C27(H27), C28(H28), C25(H25), C26(H26), C19(H19), C20(H20),
  C22(H22), C23(H23)
6.c Fitted hexagon refined as free rotating group:
 N2(C27,C28,C24,C25,C26)
6.d Idealised Me refined as rotating group:
 C32(H32A,H32B,H32C), C33(H33A,H33B,H33C), C35(H35A,H35B,H35C), C36(H36A,H36B,
 H36C), C17(H17A,H17B,H17C), C30(H30A,H30B,H30C)
;
_shelx_fab_file
;
 0 0 2 -4.37 0.00
 0 0 4 58.37 0.00
 0 0 6 1.17 0.00
 0 0 8 -4.15 0.00
 0 0 10 -5.00 0.00
 0 0 12 -14.11 0.00
 0 0 14 -2.29 0.00
 0 0 16 -10.58 0.00
 0 0 18 1.14 0.00
 0 0 20 -2.01 0.00
 0 0 22 0.47 0.00
 0 2 0 40.10 0.00
 0 2 1 -33.40 0.00
 0 2 2 55.09 0.00
 0 2 3 31.18 0.00
 0 2 4 11.53 0.00
 0 2 5 -0.71 0.00
 0 2 6 17.48 0.00
 0 2 7 13.87 0.00
 0 2 8 -6.49 0.00
 0 2 9 4.77 0.00
 0 2 10 -7.78 0.00
 0 2 11 2.51 0.00
 0 2 12 -3.21 0.00
 0 2 13 2.92 0.00
 0 2 14 -11.22 0.00
 0 2 15 -4.75 0.00
 0 2 16 -0.30 0.00
 0 2 17 2.03 0.00
 0 2 18 -4.51 0.00
 0 2 19 -3.82 0.00
 0 2 20 1.06 0.00
 0 2 21 0.57 0.00
 0 4 0 20.43 0.00
 0 4 1 19.93 0.00
 0 4 2 19.04 0.00
 0 4 3 -4.47 0.00
 0 4 4 9.23 0.00
 0 4 5 18.31 0.00
 0 4 6 9.43 0.00
 0 4 7 6.44 0.00
 0 4 8 -4.20 0.00
 0 4 9 7.19 0.00
 0 4 10 -1.12 0.00
 0 4 11 5.10 0.00
 0 4 12 -3.36 0.00
 0 4 13 -3.22 0.00
 0 4 14 -4.30 0.00
 0 4 15 2.04 0.00
 0 4 16 -0.70 0.00
 0 4 17 -4.93 0.00
 0 4 18 -2.14 0.00
 0 4 19 0.09 0.00
 0 4 20 -0.74 0.00
 0 6 0 12.67 0.00
 0 6 1 7.08 0.00
 0 6 2 -2.85 0.00
 0 6 3 4.52 0.00
 0 6 4 7.54 0.00
 0 6 5 3.58 0.00
 0 6 6 0.45 0.00
 0 6 7 8.47 0.00
 0 6 8 1.65 0.00
 0 6 9 3.18 0.00
 0 6 10 -2.22 0.00
 0 6 11 2.28 0.00
 0 6 12 1.07 0.00
 0 6 13 0.34 0.00
 0 6 14 -0.18 0.00
 0 6 15 -1.34 0.00
 0 6 16 -1.98 0.00
 0 6 17 -0.34 0.00
 0 6 18 0.79 0.00
 0 6 19 -1.69 0.00
 0 8 0 0.37 0.00
 0 8 1 -0.03 0.00
 0 8 2 0.36 0.00
 0 8 3 5.27 0.00
 0 8 4 -2.14 0.00
 0 8 5 -0.49 0.00
 0 8 6 3.27 0.00
 0 8 7 5.69 0.00
 0 8 8 -1.06 0.00
 0 8 9 -0.15 0.00
 0 8 10 0.72 0.00
 0 8 11 1.75 0.00
 0 8 12 1.75 0.00
 0 8 13 1.05 0.00
 0 8 14 -0.53 0.00
 0 8 15 -0.84 0.00
 0 8 16 1.08 0.00
 0 10 0 -3.11 0.00
 0 10 1 3.68 0.00
 0 10 2 1.27 0.00
 0 10 3 -0.95 0.00
 0 10 4 -2.55 0.00
 0 10 5 0.04 0.00
 0 10 6 0.25 0.00
 0 10 7 1.58 0.00
 0 10 8 1.41 0.00
 0 10 9 0.54 0.00
 0 10 10 0.26 0.00
 0 10 11 -1.73 0.00
 0 10 12 0.88 0.00
 -1 1 22 0.02 0.00
 -1 1 21 1.04 0.00
 -1 1 20 -1.46 0.00
 -1 1 19 -3.62 0.00
 -1 1 18 -1.76 0.00
 -1 1 17 3.53 0.00
 -1 1 16 -6.73 0.00
 -1 1 15 -4.69 0.00
 -1 1 14 -6.69 0.00
 -1 1 13 4.41 0.00
 -1 1 12 -5.77 0.00
 -1 1 11 1.51 0.00
 -1 1 10 -5.08 0.00
 -1 1 9 -0.69 0.00
 -1 1 8 3.94 0.00
 -1 1 7 16.59 0.00
 -1 1 6 15.60 0.00
 -1 1 5 -16.31 0.00
 -1 1 4 48.34 0.00
 -1 1 3 36.95 0.00
 -1 1 2 29.40 0.00
 -1 1 1 -47.96 0.00
 1 1 0 102.73 0.00
 1 1 1 -41.57 0.00
 1 1 2 11.38 0.00
 1 1 3 34.29 0.00
 1 1 4 29.41 0.00
 1 1 5 -2.50 0.00
 1 1 6 0.90 0.00
 1 1 7 4.91 0.00
 1 1 8 -14.01 0.00
 1 1 9 7.43 0.00
 1 1 10 -7.73 0.00
 1 1 11 -4.74 0.00
 1 1 12 -12.37 0.00
 1 1 13 6.34 0.00
 1 1 14 -5.37 0.00
 1 1 15 -6.80 0.00
 1 1 16 -6.33 0.00
 1 1 17 3.19 0.00
 1 1 18 -0.21 0.00
 1 1 19 -3.10 0.00
 1 1 20 -0.26 0.00
 1 1 21 0.77 0.00
 1 1 22 0.10 0.00
 -1 3 21 -1.01 0.00
 -1 3 20 1.00 0.00
 -1 3 19 -1.48 0.00
 -1 3 18 -5.24 0.00
 -1 3 17 -2.09 0.00
 -1 3 16 0.69 0.00
 -1 3 15 0.75 0.00
 -1 3 14 -8.17 0.00
 -1 3 13 -1.01 0.00
 -1 3 12 -2.59 0.00
 -1 3 11 7.17 0.00
 -1 3 10 0.32 0.00
 -1 3 9 6.22 0.00
 -1 3 8 -5.62 0.00
 -1 3 7 8.81 0.00
 -1 3 6 26.69 0.00
 -1 3 5 12.75 0.00
 -1 3 4 3.89 0.00
 -1 3 3 0.41 0.00
 -1 3 2 53.24 0.00
 -1 3 1 1.82 0.00
 1 3 0 15.03 0.00
 1 3 1 10.13 0.00
 1 3 2 40.11 0.00
 1 3 3 9.65 0.00
 1 3 4 2.15 0.00
 1 3 5 14.78 0.00
 1 3 6 6.98 0.00
 1 3 7 11.22 0.00
 1 3 8 -7.28 0.00
 1 3 9 4.04 0.00
 1 3 10 -8.43 0.00
 1 3 11 5.20 0.00
 1 3 12 -1.99 0.00
 1 3 13 -3.69 0.00
 1 3 14 -10.32 0.00
 1 3 15 -0.36 0.00
 1 3 16 2.52 0.00
 1 3 17 -3.00 0.00
 1 3 18 -4.43 0.00
 1 3 19 -1.18 0.00
 1 3 20 1.16 0.00
 1 3 21 -0.38 0.00
 -1 5 20 -2.63 0.00
 -1 5 19 -0.64 0.00
 -1 5 18 0.49 0.00
 -1 5 17 -2.47 0.00
 -1 5 16 -2.46 0.00
 -1 5 15 0.39 0.00
 -1 5 14 -1.09 0.00
 -1 5 13 0.98 0.00
 -1 5 12 -0.05 0.00
 -1 5 11 2.23 0.00
 -1 5 10 -1.83 0.00
 -1 5 9 8.44 0.00
 -1 5 8 3.13 0.00
 -1 5 7 4.84 0.00
 -1 5 6 2.86 0.00
 -1 5 5 10.15 0.00
 -1 5 4 13.18 0.00
 -1 5 3 -1.76 0.00
 -1 5 2 2.41 0.00
 -1 5 1 9.11 0.00
 1 5 0 18.76 0.00
 1 5 1 15.92 0.00
 1 5 2 0.70 0.00
 1 5 3 2.34 0.00
 1 5 4 9.27 0.00
 1 5 5 12.09 0.00
 1 5 6 1.31 0.00
 1 5 7 7.20 0.00
 1 5 8 -2.82 0.00
 1 5 9 4.49 0.00
 1 5 10 -1.11 0.00
 1 5 11 2.56 0.00
 1 5 12 -2.78 0.00
 1 5 13 -3.08 0.00
 1 5 14 -0.62 0.00
 1 5 15 0.51 0.00
 1 5 16 -2.76 0.00
 1 5 17 -3.57 0.00
 1 5 18 0.48 0.00
 1 5 19 -0.51 0.00
 1 5 20 -1.90 0.00
 -1 7 18 0.51 0.00
 -1 7 17 0.58 0.00
 -1 7 16 -0.19 0.00
 -1 7 15 -0.80 0.00
 -1 7 14 -0.21 0.00
 -1 7 13 1.12 0.00
 -1 7 12 2.43 0.00
 -1 7 11 3.25 0.00
 -1 7 10 -1.83 0.00
 -1 7 9 0.44 0.00
 -1 7 8 1.41 0.00
 -1 7 7 8.90 0.00
 -1 7 6 1.89 0.00
 -1 7 5 -1.82 0.00
 -1 7 4 1.87 0.00
 -1 7 3 6.20 0.00
 -1 7 2 -2.27 0.00
 -1 7 1 0.43 0.00
 1 7 0 6.92 0.00
 1 7 1 4.65 0.00
 1 7 2 -2.99 0.00
 1 7 3 5.40 0.00
 1 7 4 2.06 0.00
 1 7 5 1.26 0.00
 1 7 6 2.54 0.00
 1 7 7 7.47 0.00
 1 7 8 -1.16 0.00
 1 7 9 0.17 0.00
 1 7 10 -0.08 0.00
 1 7 11 1.76 0.00
 1 7 12 1.61 0.00
 1 7 13 0.50 0.00
 1 7 14 -0.86 0.00
 1 7 15 -2.20 0.00
 1 7 16 0.40 0.00
 1 7 17 0.70 0.00
 -1 9 14 0.18 0.00
 -1 9 13 1.99 0.00
 -1 9 12 0.82 0.00
 -1 9 11 -0.54 0.00
 -1 9 10 1.16 0.00
 -1 9 9 1.05 0.00
 -1 9 8 -0.88 0.00
 -1 9 7 2.80 0.00
 -1 9 6 1.83 0.00
 -1 9 5 -0.24 0.00
 -1 9 4 -4.03 0.00
 -1 9 3 2.11 0.00
 -1 9 2 2.63 0.00
 -1 9 1 0.72 0.00
 1 9 0 -4.24 0.00
 1 9 1 2.97 0.00
 1 9 2 2.57 0.00
 1 9 3 1.44 0.00
 1 9 4 -2.93 0.00
 1 9 5 0.54 0.00
 1 9 6 2.33 0.00
 1 9 7 2.71 0.00
 1 9 8 0.20 0.00
 1 9 9 -0.18 0.00
 1 9 10 1.31 0.00
 1 9 11 0.38 0.00
 1 9 12 1.07 0.00
 1 9 13 0.84 0.00
 1 9 14 -0.18 0.00
 -1 11 8 2.40 0.00
 -1 11 7 1.11 0.00
 -1 11 6 -2.18 0.00
 -1 11 5 -0.79 0.00
 -1 11 4 -0.50 0.00
 -1 11 3 -1.10 0.00
 -1 11 2 -0.66 0.00
 -1 11 1 1.61 0.00
 1 11 0 -1.03 0.00
 1 11 1 2.00 0.00
 1 11 2 -0.22 0.00
 1 11 3 -1.30 0.00
 1 11 4 -0.78 0.00
 1 11 5 -0.70 0.00
 1 11 6 0.02 0.00
 1 11 7 2.07 0.00
 1 11 8 2.02 0.00
 -2 0 22 0.40 0.00
 -2 0 20 -3.19 0.00
 -2 0 18 -0.81 0.00
 -2 0 16 -8.91 0.00
 -2 0 14 -4.43 0.00
 -2 0 12 -2.58 0.00
 -2 0 10 -5.42 0.00
 -2 0 8 21.95 0.00
 -2 0 6 7.65 0.00
 -2 0 4 76.90 0.00
 -2 0 2 11.87 0.00
 2 0 4 24.96 0.00
 2 0 6 -5.27 0.00
 2 0 8 -27.75 0.00
 2 0 10 -2.50 0.00
 2 0 12 -20.66 0.00
 2 0 14 0.48 0.00
 2 0 16 -9.07 0.00
 2 0 18 1.95 0.00
 2 0 20 -0.12 0.00
 2 0 22 0.24 0.00
 -2 2 22 -1.15 0.00
 -2 2 21 0.55 0.00
 -2 2 20 0.22 0.00
 -2 2 19 -3.44 0.00
 -2 2 18 -5.37 0.00
 -2 2 17 2.10 0.00
 -2 2 16 -1.45 0.00
 -2 2 15 -1.59 0.00
 -2 2 14 -8.56 0.00
 -2 2 13 1.60 0.00
 -2 2 12 -0.86 0.00
 -2 2 11 8.08 0.00
 -2 2 10 2.08 0.00
 -2 2 9 -1.48 0.00
 -2 2 8 0.07 0.00
 -2 2 7 19.08 0.00
 -2 2 6 38.40 0.00
 -2 2 5 -11.64 0.00
 -2 2 4 15.13 0.00
 -2 2 3 24.14 0.00
 -2 2 2 65.33 0.00
 -2 2 1 -36.79 0.00
 2 2 0 34.15 0.00
 2 2 1 -19.54 0.00
 2 2 2 30.08 0.00
 2 2 3 29.14 0.00
 2 2 4 4.29 0.00
 2 2 5 9.92 0.00
 2 2 6 -7.18 0.00
 2 2 7 4.40 0.00
 2 2 8 -9.96 0.00
 2 2 9 9.13 0.00
 2 2 10 -14.88 0.00
 2 2 11 -3.79 0.00
 2 2 12 -3.85 0.00
 2 2 13 2.96 0.00
 2 2 14 -10.79 0.00
 2 2 15 -6.28 0.00
 2 2 16 1.09 0.00
 2 2 17 1.18 0.00
 2 2 18 -2.71 0.00
 2 2 19 -2.51 0.00
 2 2 20 1.15 0.00
 2 2 21 0.37 0.00
 -2 4 20 -1.16 0.00
 -2 4 19 0.09 0.00
 -2 4 18 -2.10 0.00
 -2 4 17 -2.79 0.00
 -2 4 16 -1.69 0.00
 -2 4 15 1.50 0.00
 -2 4 14 -2.39 0.00
 -2 4 13 1.89 0.00
 -2 4 12 -1.96 0.00
 -2 4 11 3.40 0.00
 -2 4 10 2.86 0.00
 -2 4 9 11.25 0.00
 -2 4 8 1.10 0.00
 -2 4 7 0.22 0.00
 -2 4 6 16.17 0.00
 -2 4 5 16.33 0.00
 -2 4 4 12.18 0.00
 -2 4 3 -12.29 0.00
 -2 4 2 21.60 0.00
 -2 4 1 9.62 0.00
 2 4 0 18.33 0.00
 2 4 1 23.81 0.00
 2 4 2 10.59 0.00
 2 4 3 4.85 0.00
 2 4 4 4.54 0.00
 2 4 5 15.05 0.00
 2 4 6 0.25 0.00
 2 4 7 10.38 0.00
 2 4 8 -7.85 0.00
 2 4 9 0.84 0.00
 2 4 10 -4.17 0.00
 2 4 11 4.87 0.00
 2 4 12 -3.66 0.00
 2 4 13 -7.28 0.00
 2 4 14 -4.51 0.00
 2 4 15 2.10 0.00
 2 4 16 0.23 0.00
 2 4 17 -5.41 0.00
 2 4 18 -1.71 0.00
 2 4 19 0.50 0.00
 2 4 20 -0.54 0.00
 -2 6 19 -1.29 0.00
 -2 6 18 1.03 0.00
 -2 6 17 0.07 0.00
 -2 6 16 -1.09 0.00
 -2 6 15 -0.10 0.00
 -2 6 14 -0.85 0.00
 -2 6 13 2.08 0.00
 -2 6 12 3.59 0.00
 -2 6 11 3.03 0.00
 -2 6 10 -4.11 0.00
 -2 6 9 4.30 0.00
 -2 6 8 6.00 0.00
 -2 6 7 7.48 0.00
 -2 6 6 0.25 0.00
 -2 6 5 -0.28 0.00
 -2 6 4 7.85 0.00
 -2 6 3 3.57 0.00
 -2 6 2 -1.17 0.00
 -2 6 1 0.42 0.00
 2 6 0 10.67 0.00
 2 6 1 11.28 0.00
 2 6 2 -2.88 0.00
 2 6 3 4.42 0.00
 2 6 4 4.91 0.00
 2 6 5 6.33 0.00
 2 6 6 0.65 0.00
 2 6 7 6.96 0.00
 2 6 8 -2.77 0.00
 2 6 9 1.12 0.00
 2 6 10 0.07 0.00
 2 6 11 0.80 0.00
 2 6 12 -1.35 0.00
 2 6 13 -1.37 0.00
 2 6 14 0.11 0.00
 2 6 15 -2.16 0.00
 2 6 16 -2.00 0.00
 2 6 17 -0.44 0.00
 2 6 18 0.24 0.00
 2 6 19 -1.35 0.00
 -2 8 16 -0.35 0.00
 -2 8 15 -0.02 0.00
 -2 8 14 0.59 0.00
 -2 8 13 1.57 0.00
 -2 8 12 1.09 0.00
 -2 8 11 1.97 0.00
 -2 8 10 0.00 0.00
 -2 8 9 -0.03 0.00
 -2 8 8 -0.70 0.00
 -2 8 7 6.42 0.00
 -2 8 6 2.45 0.00
 -2 8 5 -2.56 0.00
 -2 8 4 -2.82 0.00
 -2 8 3 5.17 0.00
 -2 8 2 0.81 0.00
 -2 8 1 -3.02 0.00
 2 8 0 0.05 0.00
 2 8 1 2.79 0.00
 2 8 2 0.11 0.00
 2 8 3 3.47 0.00
 2 8 4 -0.87 0.00
 2 8 5 1.55 0.00
 2 8 6 3.28 0.00
 2 8 7 3.61 0.00
 2 8 8 -1.27 0.00
 2 8 9 -0.37 0.00
 2 8 10 1.24 0.00
 2 8 11 1.22 0.00
 2 8 12 1.84 0.00
 2 8 13 -0.17 0.00
 2 8 14 -1.54 0.00
 2 8 15 -1.03 0.00
 -2 10 12 0.80 0.00
 -2 10 11 -2.86 0.00
 -2 10 10 -0.10 0.00
 -2 10 9 2.55 0.00
 -2 10 8 0.45 0.00
 -2 10 7 -0.04 0.00
 -2 10 6 -1.07 0.00
 -2 10 5 0.17 0.00
 -2 10 4 -2.55 0.00
 -2 10 3 -0.62 0.00
 -2 10 2 0.87 0.00
 -2 10 1 1.83 0.00
 2 10 0 -2.60 0.00
 2 10 1 4.32 0.00
 2 10 2 1.17 0.00
 2 10 3 -1.40 0.00
 2 10 4 -1.66 0.00
 2 10 5 -0.07 0.00
 2 10 6 1.83 0.00
 2 10 7 2.29 0.00
 2 10 8 1.52 0.00
 2 10 9 -1.47 0.00
 2 10 10 0.60 0.00
 2 10 11 -0.23 0.00
 -3 1 22 -0.26 0.00
 -3 1 21 1.01 0.00
 -3 1 20 -2.31 0.00
 -3 1 19 -2.62 0.00
 -3 1 18 -3.32 0.00
 -3 1 17 2.64 0.00
 -3 1 16 -4.90 0.00
 -3 1 15 -1.40 0.00
 -3 1 14 -5.98 0.00
 -3 1 13 1.09 0.00
 -3 1 12 3.32 0.00
 -3 1 11 7.09 0.00
 -3 1 10 -0.39 0.00
 -3 1 9 -8.53 0.00
 -3 1 8 21.46 0.00
 -3 1 7 22.98 0.00
 -3 1 6 26.35 0.00
 -3 1 5 -25.85 0.00
 -3 1 4 53.15 0.00
 -3 1 3 30.15 0.00
 -3 1 2 38.90 0.00
 -3 1 1 -41.07 0.00
 3 1 0 72.62 0.00
 3 1 1 -23.64 0.00
 3 1 2 -8.63 0.00
 3 1 3 22.67 0.00
 3 1 4 3.86 0.00
 3 1 5 10.23 0.00
 3 1 6 -12.82 0.00
 3 1 7 -7.55 0.00
 3 1 8 -26.15 0.00
 3 1 9 13.07 0.00
 3 1 10 -7.74 0.00
 3 1 11 -9.63 0.00
 3 1 12 -14.53 0.00
 3 1 13 6.32 0.00
 3 1 14 -2.91 0.00
 3 1 15 -6.93 0.00
 3 1 16 -4.09 0.00
 3 1 17 1.91 0.00
 3 1 18 0.65 0.00
 3 1 19 -1.23 0.00
 3 1 20 0.87 0.00
 3 1 21 0.04 0.00
 -3 3 21 -1.30 0.00
 -3 3 20 0.16 0.00
 -3 3 19 -0.84 0.00
 -3 3 18 -4.52 0.00
 -3 3 17 -0.73 0.00
 -3 3 16 -1.36 0.00
 -3 3 15 1.98 0.00
 -3 3 14 -3.31 0.00
 -3 3 13 1.39 0.00
 -3 3 12 -1.95 0.00
 -3 3 11 6.85 0.00
 -3 3 10 9.48 0.00
 -3 3 9 5.98 0.00
 -3 3 8 -1.48 0.00
 -3 3 7 3.57 0.00
 -3 3 6 38.66 0.00
 -3 3 5 7.65 0.00
 -3 3 4 4.95 0.00
 -3 3 3 -9.66 0.00
 -3 3 2 50.88 0.00
 -3 3 1 -5.91 0.00
 3 3 0 12.16 0.00
 3 3 1 16.03 0.00
 3 3 2 15.90 0.00
 3 3 3 15.43 0.00
 3 3 4 0.11 0.00
 3 3 5 12.49 0.00
 3 3 6 -13.04 0.00
 3 3 7 9.92 0.00
 3 3 8 -6.25 0.00
 3 3 9 0.22 0.00
 3 3 10 -13.91 0.00
 3 3 11 1.82 0.00
 3 3 12 -0.69 0.00
 3 3 13 -5.54 0.00
 3 3 14 -9.35 0.00
 3 3 15 -0.86 0.00
 3 3 16 3.39 0.00
 3 3 17 -3.03 0.00
 3 3 18 -2.74 0.00
 3 3 19 -0.21 0.00
 3 3 20 0.45 0.00
 -3 5 20 -3.01 0.00
 -3 5 19 -0.16 0.00
 -3 5 18 0.38 0.00
 -3 5 17 -0.30 0.00
 -3 5 16 -1.39 0.00
 -3 5 15 -0.06 0.00
 -3 5 14 -1.12 0.00
 -3 5 13 4.96 0.00
 -3 5 12 3.00 0.00
 -3 5 11 0.90 0.00
 -3 5 10 -1.84 0.00
 -3 5 9 9.80 0.00
 -3 5 8 8.42 0.00
 -3 5 7 1.10 0.00
 -3 5 6 3.78 0.00
 -3 5 5 4.90 0.00
 -3 5 4 13.67 0.00
 -3 5 3 -4.29 0.00
 -3 5 2 3.90 0.00
 -3 5 1 -1.36 0.00
 3 5 0 13.55 0.00
 3 5 1 17.04 0.00
 3 5 2 -0.71 0.00
 3 5 3 6.21 0.00
 3 5 4 3.08 0.00
 3 5 5 10.52 0.00
 3 5 6 -0.47 0.00
 3 5 7 6.99 0.00
 3 5 8 -7.40 0.00
 3 5 9 -0.46 0.00
 3 5 10 -0.15 0.00
 3 5 11 1.66 0.00
 3 5 12 -4.38 0.00
 3 5 13 -5.67 0.00
 3 5 14 -0.07 0.00
 3 5 15 0.40 0.00
 3 5 16 -2.31 0.00
 3 5 17 -3.33 0.00
 3 5 18 0.10 0.00
 3 5 19 0.14 0.00
 -3 7 18 1.14 0.00
 -3 7 17 0.26 0.00
 -3 7 16 -0.47 0.00
 -3 7 15 1.19 0.00
 -3 7 14 0.13 0.00
 -3 7 13 1.06 0.00
 -3 7 12 2.75 0.00
 -3 7 11 4.01 0.00
 -3 7 10 -3.02 0.00
 -3 7 9 0.48 0.00
 -3 7 8 3.62 0.00
 -3 7 7 7.91 0.00
 -3 7 6 0.88 0.00
 -3 7 5 -4.37 0.00
 -3 7 4 0.97 0.00
 -3 7 3 4.92 0.00
 -3 7 2 -0.43 0.00
 -3 7 1 -3.82 0.00
 3 7 0 4.72 0.00
 3 7 1 7.12 0.00
 3 7 2 -2.50 0.00
 3 7 3 3.05 0.00
 3 7 4 1.67 0.00
 3 7 5 3.94 0.00
 3 7 6 2.33 0.00
 3 7 7 4.11 0.00
 3 7 8 -3.10 0.00
 3 7 9 -0.33 0.00
 3 7 10 1.37 0.00
 3 7 11 -0.03 0.00
 3 7 12 0.49 0.00
 3 7 13 -0.43 0.00
 3 7 14 -1.64 0.00
 3 7 15 -2.65 0.00
 3 7 16 1.01 0.00
 3 7 17 0.57 0.00
 -3 9 14 0.81 0.00
 -3 9 13 2.30 0.00
 -3 9 12 0.02 0.00
 -3 9 11 -1.19 0.00
 -3 9 10 0.79 0.00
 -3 9 9 1.99 0.00
 -3 9 8 -2.02 0.00
 -3 9 7 2.04 0.00
 -3 9 6 1.21 0.00
 -3 9 5 -1.05 0.00
 -3 9 4 -3.95 0.00
 -3 9 3 1.67 0.00
 -3 9 2 1.91 0.00
 -3 9 1 -1.51 0.00
 3 9 0 -3.27 0.00
 3 9 1 4.20 0.00
 3 9 2 2.05 0.00
 3 9 3 -0.18 0.00
 3 9 4 -1.09 0.00
 3 9 5 0.97 0.00
 3 9 6 2.48 0.00
 3 9 7 1.93 0.00
 3 9 8 0.67 0.00
 3 9 9 -1.38 0.00
 3 9 10 1.19 0.00
 3 9 11 1.20 0.00
 3 9 12 0.86 0.00
 3 9 13 -0.70 0.00
 3 9 14 -0.33 0.00
 -3 11 8 1.97 0.00
 -3 11 7 -0.62 0.00
 -3 11 6 -3.71 0.00
 -3 11 5 -0.59 0.00
 -3 11 4 0.19 0.00
 -3 11 3 -0.60 0.00
 -3 11 2 -0.87 0.00
 -3 11 1 0.39 0.00
 3 11 0 -0.90 0.00
 3 11 1 1.40 0.00
 3 11 2 0.45 0.00
 3 11 3 -1.36 0.00
 3 11 4 -0.65 0.00
 3 11 5 -0.35 0.00
 3 11 6 2.05 0.00
 3 11 7 1.76 0.00
 -4 0 22 0.15 0.00
 -4 0 20 -3.38 0.00
 -4 0 18 -2.98 0.00
 -4 0 16 -4.43 0.00
 -4 0 14 -4.75 0.00
 -4 0 12 10.13 0.00
 -4 0 10 -3.68 0.00
 -4 0 8 41.27 0.00
 -4 0 6 12.24 0.00
 -4 0 4 73.26 0.00
 -4 0 2 22.55 0.00
 4 0 0 70.21 0.00
 4 0 2 -28.14 0.00
 4 0 4 -11.24 0.00
 4 0 6 -10.05 0.00
 4 0 8 -40.84 0.00
 4 0 10 0.93 0.00
 4 0 12 -20.70 0.00
 4 0 14 2.56 0.00
 4 0 16 -5.24 0.00
 4 0 18 1.41 0.00
 4 0 20 1.91 0.00
 -4 2 22 -1.62 0.00
 -4 2 21 0.49 0.00
 -4 2 20 -0.86 0.00
 -4 2 19 -1.56 0.00
 -4 2 18 -4.71 0.00
 -4 2 17 1.20 0.00
 -4 2 16 -1.83 0.00
 -4 2 15 1.98 0.00
 -4 2 14 -3.38 0.00
 -4 2 13 -0.59 0.00
 -4 2 12 2.58 0.00
 -4 2 11 10.92 0.00
 -4 2 10 11.54 0.00
 -4 2 9 -7.32 0.00
 -4 2 8 7.34 0.00
 -4 2 7 18.03 0.00
 -4 2 6 47.87 0.00
 -4 2 5 -18.25 0.00
 -4 2 4 13.47 0.00
 -4 2 3 10.41 0.00
 -4 2 2 57.95 0.00
 -4 2 1 -29.33 0.00
 4 2 0 18.38 0.00
 4 2 1 -0.41 0.00
 4 2 2 -1.25 0.00
 4 2 3 19.02 0.00
 4 2 4 -3.24 0.00
 4 2 5 15.95 0.00
 4 2 6 -27.12 0.00
 4 2 7 -5.59 0.00
 4 2 8 -9.64 0.00
 4 2 9 10.24 0.00
 4 2 10 -17.28 0.00
 4 2 11 -8.57 0.00
 4 2 12 -2.87 0.00
 4 2 13 1.90 0.00
 4 2 14 -7.81 0.00
 4 2 15 -5.67 0.00
 4 2 16 2.07 0.00
 4 2 17 0.06 0.00
 4 2 18 -0.78 0.00
 4 2 19 -0.18 0.00
 4 2 20 0.35 0.00
 4 2 21 -0.21 0.00
 -4 4 21 -2.58 0.00
 -4 4 20 -1.53 0.00
 -4 4 19 0.52 0.00
 -4 4 18 -1.22 0.00
 -4 4 17 0.22 0.00
 -4 4 16 -2.28 0.00
 -4 4 15 0.56 0.00
 -4 4 14 0.79 0.00
 -4 4 13 6.04 0.00
 -4 4 12 0.26 0.00
 -4 4 11 0.50 0.00
 -4 4 10 6.32 0.00
 -4 4 9 11.52 0.00
 -4 4 8 6.50 0.00
 -4 4 7 -5.63 0.00
 -4 4 6 17.89 0.00
 -4 4 5 9.62 0.00
 -4 4 4 12.93 0.00
 -4 4 3 -16.00 0.00
 -4 4 2 17.30 0.00
 -4 4 1 -3.53 0.00
 4 4 0 12.48 0.00
 4 4 1 20.19 0.00
 4 4 2 -0.49 0.00
 4 4 3 12.52 0.00
 4 4 4 -0.95 0.00
 4 4 5 7.81 0.00
 4 4 6 -7.87 0.00
 4 4 7 10.43 0.00
 4 4 8 -8.91 0.00
 4 4 9 -5.34 0.00
 4 4 10 -5.46 0.00
 4 4 11 2.94 0.00
 4 4 12 -3.09 0.00
 4 4 13 -8.73 0.00
 4 4 14 -3.28 0.00
 4 4 15 1.77 0.00
 4 4 16 0.72 0.00
 4 4 17 -4.21 0.00
 4 4 18 -1.28 0.00
 4 4 19 0.97 0.00
 4 4 20 -0.59 0.00
 -4 6 19 -0.28 0.00
 -4 6 18 0.99 0.00
 -4 6 17 0.69 0.00
 -4 6 16 0.43 0.00
 -4 6 15 1.10 0.00
 -4 6 14 -1.56 0.00
 -4 6 13 3.13 0.00
 -4 6 12 5.40 0.00
 -4 6 11 2.92 0.00
 -4 6 10 -4.63 0.00
 -4 6 9 3.97 0.00
 -4 6 8 8.61 0.00
 -4 6 7 4.52 0.00
 -4 6 6 0.38 0.00
 -4 6 5 -4.18 0.00
 -4 6 4 5.64 0.00
 -4 6 3 2.01 0.00
 -4 6 2 1.79 0.00
 -4 6 1 -6.39 0.00
 4 6 0 5.29 0.00
 4 6 1 11.77 0.00
 4 6 2 -1.73 0.00
 4 6 3 3.26 0.00
 4 6 4 1.18 0.00
 4 6 5 7.31 0.00
 4 6 6 0.45 0.00
 4 6 7 3.35 0.00
 4 6 8 -5.78 0.00
 4 6 9 -1.12 0.00
 4 6 10 1.72 0.00
 4 6 11 -0.94 0.00
 4 6 12 -2.97 0.00
 4 6 13 -2.40 0.00
 4 6 14 -0.06 0.00
 4 6 15 -2.27 0.00
 4 6 16 -1.33 0.00
 4 6 17 -0.32 0.00
 4 6 18 -0.51 0.00
 -4 8 16 -1.65 0.00
 -4 8 15 1.22 0.00
 -4 8 14 1.63 0.00
 -4 8 13 1.08 0.00
 -4 8 12 -0.03 0.00
 -4 8 11 1.94 0.00
 -4 8 10 -0.53 0.00
 -4 8 9 0.14 0.00
 -4 8 8 -0.31 0.00
 -4 8 7 5.33 0.00
 -4 8 6 1.28 0.00
 -4 8 5 -3.96 0.00
 -4 8 4 -2.79 0.00
 -4 8 3 3.22 0.00
 -4 8 2 1.08 0.00
 -4 8 1 -4.82 0.00
 4 8 0 -0.42 0.00
 4 8 1 4.20 0.00
 4 8 2 0.27 0.00
 4 8 3 0.66 0.00
 4 8 4 0.45 0.00
 4 8 5 2.92 0.00
 4 8 6 2.30 0.00
 4 8 7 0.90 0.00
 4 8 8 -1.23 0.00
 4 8 9 -0.72 0.00
 4 8 10 1.29 0.00
 4 8 11 0.50 0.00
 4 8 12 1.30 0.00
 4 8 13 -1.47 0.00
 4 8 14 -2.17 0.00
 4 8 15 -0.69 0.00
 -4 10 12 0.22 0.00
 -4 10 11 -3.31 0.00
 -4 10 10 -0.34 0.00
 -4 10 9 3.82 0.00
 -4 10 8 -0.79 0.00
 -4 10 7 -1.85 0.00
 -4 10 6 -1.78 0.00
 -4 10 5 0.33 0.00
 -4 10 4 -1.64 0.00
 -4 10 3 -0.41 0.00
 -4 10 2 -0.05 0.00
 -4 10 1 -0.42 0.00
 4 10 0 -1.30 0.00
 4 10 1 3.41 0.00
 4 10 2 0.93 0.00
 4 10 3 -2.09 0.00
 4 10 4 -0.32 0.00
 4 10 5 -0.10 0.00
 4 10 6 3.04 0.00
 4 10 7 1.85 0.00
 4 10 8 0.70 0.00
 4 10 9 -2.74 0.00
 4 10 10 0.80 0.00
 4 10 11 1.18 0.00
 -5 1 22 -0.57 0.00
 -5 1 21 0.83 0.00
 -5 1 20 -2.47 0.00
 -5 1 19 -0.66 0.00
 -5 1 18 -4.02 0.00
 -5 1 17 0.77 0.00
 -5 1 16 -1.38 0.00
 -5 1 15 1.89 0.00
 -5 1 14 -3.14 0.00
 -5 1 13 -2.34 0.00
 -5 1 12 11.79 0.00
 -5 1 11 10.17 0.00
 -5 1 10 4.70 0.00
 -5 1 9 -13.53 0.00
 -5 1 8 32.14 0.00
 -5 1 7 21.95 0.00
 -5 1 6 29.34 0.00
 -5 1 5 -27.25 0.00
 -5 1 4 41.83 0.00
 -5 1 3 16.43 0.00
 -5 1 2 36.71 0.00
 -5 1 1 -24.63 0.00
 5 1 0 24.68 0.00
 5 1 1 -1.08 0.00
 5 1 2 -23.83 0.00
 5 1 3 5.85 0.00
 5 1 4 -18.98 0.00
 5 1 5 17.84 0.00
 5 1 6 -21.54 0.00
 5 1 7 -16.27 0.00
 5 1 8 -29.00 0.00
 5 1 9 14.46 0.00
 5 1 10 -5.63 0.00
 5 1 11 -11.65 0.00
 5 1 12 -12.13 0.00
 5 1 13 4.61 0.00
 5 1 14 -0.44 0.00
 5 1 15 -5.11 0.00
 5 1 16 -1.06 0.00
 5 1 17 0.27 0.00
 5 1 18 0.71 0.00
 5 1 19 1.14 0.00
 5 1 20 1.56 0.00
 5 1 21 -1.11 0.00
 -5 3 22 -2.24 0.00
 -5 3 21 -1.03 0.00
 -5 3 20 -0.90 0.00
 -5 3 19 0.44 0.00
 -5 3 18 -2.21 0.00
 -5 3 17 0.53 0.00
 -5 3 16 -2.79 0.00
 -5 3 15 2.74 0.00
 -5 3 14 2.74 0.00
 -5 3 13 2.61 0.00
 -5 3 12 -0.11 0.00
 -5 3 11 4.41 0.00
 -5 3 10 15.80 0.00
 -5 3 9 3.82 0.00
 -5 3 8 3.79 0.00
 -5 3 7 -2.51 0.00
 -5 3 6 38.38 0.00
 -5 3 5 1.50 0.00
 -5 3 4 5.30 0.00
 -5 3 3 -17.36 0.00
 -5 3 2 34.60 0.00
 -5 3 1 -10.69 0.00
 5 3 0 6.61 0.00
 5 3 1 17.24 0.00
 5 3 2 -10.69 0.00
 5 3 3 16.51 0.00
 5 3 4 -1.60 0.00
 5 3 5 6.12 0.00
 5 3 6 -26.54 0.00
 5 3 7 5.75 0.00
 5 3 8 -3.50 0.00
 5 3 9 -3.56 0.00
 5 3 10 -14.77 0.00
 5 3 11 -1.57 0.00
 5 3 12 0.55 0.00
 5 3 13 -5.80 0.00
 5 3 14 -5.99 0.00
 5 3 15 -0.67 0.00
 5 3 16 2.98 0.00
 5 3 17 -2.16 0.00
 5 3 18 -1.01 0.00
 5 3 19 0.76 0.00
 5 3 20 -0.84 0.00
 -5 5 20 -2.56 0.00
 -5 5 19 0.61 0.00
 -5 5 18 0.42 0.00
 -5 5 17 2.14 0.00
 -5 5 16 0.14 0.00
 -5 5 15 -0.68 0.00
 -5 5 14 -0.50 0.00
 -5 5 13 7.31 0.00
 -5 5 12 5.32 0.00
 -5 5 11 -0.69 0.00
 -5 5 10 -1.04 0.00
 -5 5 9 7.87 0.00
 -5 5 8 11.33 0.00
 -5 5 7 -2.29 0.00
 -5 5 6 3.90 0.00
 -5 5 5 -2.09 0.00
 -5 5 4 10.73 0.00
 -5 5 3 -4.35 0.00
 -5 5 2 4.59 0.00
 -5 5 1 -11.90 0.00
 5 5 0 4.90 0.00
 5 5 1 12.66 0.00
 5 5 2 -1.52 0.00
 5 5 3 8.17 0.00
 5 5 4 -3.41 0.00
 5 5 5 6.52 0.00
 5 5 6 -2.01 0.00
 5 5 7 4.11 0.00
 5 5 8 -9.28 0.00
 5 5 9 -4.55 0.00
 5 5 10 0.50 0.00
 5 5 11 -0.05 0.00
 5 5 12 -4.56 0.00
 5 5 13 -5.92 0.00
 5 5 14 0.25 0.00
 5 5 15 0.18 0.00
 5 5 16 -1.39 0.00
 5 5 17 -2.09 0.00
 5 5 18 -0.67 0.00
 5 5 19 0.92 0.00
 -5 7 18 1.33 0.00
 -5 7 17 -0.17 0.00
 -5 7 16 -0.32 0.00
 -5 7 15 3.04 0.00
 -5 7 14 0.22 0.00
 -5 7 13 0.23 0.00
 -5 7 12 2.45 0.00
 -5 7 11 3.93 0.00
 -5 7 10 -3.03 0.00
 -5 7 9 0.34 0.00
 -5 7 8 4.53 0.00
 -5 7 7 4.74 0.00
 -5 7 6 0.08 0.00
 -5 7 5 -5.65 0.00
 -5 7 4 -0.42 0.00
 -5 7 3 2.11 0.00
 -5 7 2 1.85 0.00
 -5 7 1 -6.36 0.00
 5 7 0 1.21 0.00
 5 7 1 7.15 0.00
 5 7 2 -1.24 0.00
 5 7 3 0.34 0.00
 5 7 4 0.91 0.00
 5 7 5 5.25 0.00
 5 7 6 1.19 0.00
 5 7 7 -0.11 0.00
 5 7 8 -3.88 0.00
 5 7 9 -0.88 0.00
 5 7 10 1.90 0.00
 5 7 11 -1.56 0.00
 5 7 12 -0.70 0.00
 5 7 13 -1.23 0.00
 5 7 14 -2.13 0.00
 5 7 15 -2.18 0.00
 5 7 16 1.37 0.00
 5 7 17 0.27 0.00
 -5 9 14 1.63 0.00
 -5 9 13 1.70 0.00
 -5 9 12 -1.22 0.00
 -5 9 11 -1.35 0.00
 -5 9 10 0.44 0.00
 -5 9 9 2.44 0.00
 -5 9 8 -2.59 0.00
 -5 9 7 0.56 0.00
 -5 9 6 0.55 0.00
 -5 9 5 -1.47 0.00
 -5 9 4 -2.85 0.00
 -5 9 3 0.43 0.00
 -5 9 2 0.53 0.00
 -5 9 1 -2.84 0.00
 5 9 0 -1.49 0.00
 5 9 1 3.68 0.00
 5 9 2 1.48 0.00
 5 9 3 -2.15 0.00
 5 9 4 0.67 0.00
 5 9 5 1.10 0.00
 5 9 6 2.03 0.00
 5 9 7 0.70 0.00
 5 9 8 0.48 0.00
 5 9 9 -2.19 0.00
 5 9 10 0.84 0.00
 5 9 11 1.60 0.00
 5 9 12 0.36 0.00
 5 9 13 -1.98 0.00
 -5 11 8 0.86 0.00
 -5 11 7 -2.20 0.00
 -5 11 6 -3.98 0.00
 -5 11 5 -0.24 0.00
 -5 11 4 1.03 0.00
 -5 11 3 0.02 0.00
 -5 11 2 -1.02 0.00
 -5 11 1 -0.95 0.00
 5 11 0 -0.59 0.00
 5 11 1 0.21 0.00
 5 11 2 1.15 0.00
 5 11 3 -1.67 0.00
 5 11 4 -0.16 0.00
 5 11 5 0.18 0.00
 5 11 6 3.15 0.00
 5 11 7 0.39 0.00
 -6 0 22 -0.10 0.00
 -6 0 20 -2.65 0.00
 -6 0 18 -4.19 0.00
 -6 0 16 1.30 0.00
 -6 0 14 -2.81 0.00
 -6 0 12 19.48 0.00
 -6 0 10 -0.72 0.00
 -6 0 8 47.28 0.00
 -6 0 6 13.14 0.00
 -6 0 4 48.73 0.00
 -6 0 2 24.17 0.00
 6 0 0 2.92 0.00
 6 0 2 -27.43 0.00
 6 0 4 -38.55 0.00
 6 0 6 -12.02 0.00
 6 0 8 -40.17 0.00
 6 0 10 3.62 0.00
 6 0 12 -15.11 0.00
 6 0 14 3.20 0.00
 6 0 16 -0.57 0.00
 6 0 18 0.07 0.00
 6 0 20 3.37 0.00
 -6 2 22 -1.74 0.00
 -6 2 21 0.43 0.00
 -6 2 20 -1.63 0.00
 -6 2 19 0.92 0.00
 -6 2 18 -2.55 0.00
 -6 2 17 -0.36 0.00
 -6 2 16 -1.29 0.00
 -6 2 15 4.61 0.00
 -6 2 14 2.72 0.00
 -6 2 13 -2.69 0.00
 -6 2 12 5.93 0.00
 -6 2 11 10.18 0.00
 -6 2 10 17.39 0.00
 -6 2 9 -10.47 0.00
 -6 2 8 12.31 0.00
 -6 2 7 11.37 0.00
 -6 2 6 42.72 0.00
 -6 2 5 -18.03 0.00
 -6 2 4 7.47 0.00
 -6 2 3 -5.27 0.00
 -6 2 2 36.38 0.00
 -6 2 1 -15.01 0.00
 6 2 0 -1.55 0.00
 6 2 1 16.33 0.00
 6 2 2 -28.24 0.00
 6 2 3 4.85 0.00
 6 2 4 -7.95 0.00
 6 2 5 15.54 0.00
 6 2 6 -36.83 0.00
 6 2 7 -12.35 0.00
 6 2 8 -6.35 0.00
 6 2 9 8.16 0.00
 6 2 10 -14.87 0.00
 6 2 11 -10.28 0.00
 6 2 12 -1.01 0.00
 6 2 13 0.30 0.00
 6 2 14 -3.58 0.00
 6 2 15 -3.31 0.00
 6 2 16 2.14 0.00
 6 2 17 -0.85 0.00
 6 2 18 0.69 0.00
 6 2 19 1.98 0.00
 6 2 20 -0.97 0.00
 -6 4 21 -1.70 0.00
 -6 4 20 -1.53 0.00
 -6 4 19 0.97 0.00
 -6 4 18 0.43 0.00
 -6 4 17 2.97 0.00
 -6 4 16 -2.10 0.00
 -6 4 15 -0.47 0.00
 -6 4 14 4.19 0.00
 -6 4 13 7.70 0.00
 -6 4 12 2.57 0.00
 -6 4 11 -2.29 0.00
 -6 4 10 7.92 0.00
 -6 4 9 8.12 0.00
 -6 4 8 10.48 0.00
 -6 4 7 -8.91 0.00
 -6 4 6 13.95 0.00
 -6 4 5 0.44 0.00
 -6 4 4 11.32 0.00
 -6 4 3 -14.62 0.00
 -6 4 2 7.96 0.00
 -6 4 1 -14.92 0.00
 6 4 0 4.33 0.00
 6 4 1 10.94 0.00
 6 4 2 -10.17 0.00
 6 4 3 16.03 0.00
 6 4 4 -5.95 0.00
 6 4 5 -0.87 0.00
 6 4 6 -12.13 0.00
 6 4 7 6.88 0.00
 6 4 8 -7.56 0.00
 6 4 9 -9.03 0.00
 6 4 10 -5.02 0.00
 6 4 11 0.26 0.00
 6 4 12 -2.08 0.00
 6 4 13 -7.16 0.00
 6 4 14 -1.31 0.00
 6 4 15 1.09 0.00
 6 4 16 0.64 0.00
 6 4 17 -1.95 0.00
 6 4 18 -1.17 0.00
 6 4 19 1.10 0.00
 -6 6 19 1.00 0.00
 -6 6 18 0.71 0.00
 -6 6 17 1.22 0.00
 -6 6 16 1.99 0.00
 -6 6 15 1.88 0.00
 -6 6 14 -1.78 0.00
 -6 6 13 3.07 0.00
 -6 6 12 5.83 0.00
 -6 6 11 2.15 0.00
 -6 6 10 -3.46 0.00
 -6 6 9 2.22 0.00
 -6 6 8 8.50 0.00
 -6 6 7 0.77 0.00
 -6 6 6 0.98 0.00
 -6 6 5 -6.94 0.00
 -6 6 4 1.76 0.00
 -6 6 3 0.41 0.00
 -6 6 2 4.83 0.00
 -6 6 1 -10.98 0.00
 6 6 0 -1.65 0.00
 6 6 1 8.88 0.00
 6 6 2 -0.18 0.00
 6 6 3 1.51 0.00
 6 6 4 -2.16 0.00
 6 6 5 6.30 0.00
 6 6 6 -0.42 0.00
 6 6 7 -1.18 0.00
 6 6 8 -6.65 0.00
 6 6 9 -2.73 0.00
 6 6 10 2.12 0.00
 6 6 11 -2.30 0.00
 6 6 12 -3.49 0.00
 6 6 13 -2.46 0.00
 6 6 14 -0.45 0.00
 6 6 15 -1.68 0.00
 6 6 16 -0.37 0.00
 6 6 17 -0.12 0.00
 6 6 18 -1.21 0.00
 -6 8 16 -2.36 0.00
 -6 8 15 2.40 0.00
 -6 8 14 2.38 0.00
 -6 8 13 -0.21 0.00
 -6 8 12 -1.35 0.00
 -6 8 11 1.78 0.00
 -6 8 10 -0.53 0.00
 -6 8 9 0.40 0.00
 -6 8 8 0.01 0.00
 -6 8 7 2.52 0.00
 -6 8 6 0.15 0.00
 -6 8 5 -4.14 0.00
 -6 8 4 -2.23 0.00
 -6 8 3 0.38 0.00
 -6 8 2 1.00 0.00
 -6 8 1 -4.73 0.00
 6 8 0 -0.57 0.00
 6 8 1 3.73 0.00
 6 8 2 0.59 0.00
 6 8 3 -1.90 0.00
 6 8 4 1.18 0.00
 6 8 5 3.27 0.00
 6 8 6 0.69 0.00
 6 8 7 -1.75 0.00
 6 8 8 -0.98 0.00
 6 8 9 -1.06 0.00
 6 8 10 0.81 0.00
 6 8 11 -0.22 0.00
 6 8 12 0.31 0.00
 6 8 13 -2.26 0.00
 6 8 14 -2.13 0.00
 6 8 15 -0.15 0.00
 -6 10 12 -0.67 0.00
 -6 10 11 -2.97 0.00
 -6 10 10 -0.38 0.00
 -6 10 9 4.00 0.00
 -6 10 8 -1.65 0.00
 -6 10 7 -3.02 0.00
 -6 10 6 -1.83 0.00
 -6 10 5 0.40 0.00
 -6 10 4 -0.25 0.00
 -6 10 3 -0.40 0.00
 -6 10 2 -1.21 0.00
 -6 10 1 -2.00 0.00
 6 10 0 0.22 0.00
 6 10 1 1.26 0.00
 6 10 2 0.84 0.00
 6 10 3 -2.93 0.00
 6 10 4 0.90 0.00
 6 10 5 0.11 0.00
 6 10 6 3.22 0.00
 6 10 7 0.56 0.00
 6 10 8 -0.55 0.00
 6 10 9 -2.88 0.00
 6 10 10 0.84 0.00
 6 10 11 2.03 0.00
 -7 1 22 -0.66 0.00
 -7 1 21 0.58 0.00
 -7 1 20 -1.89 0.00
 -7 1 19 1.28 0.00
 -7 1 18 -3.33 0.00
 -7 1 17 -1.32 0.00
 -7 1 16 2.56 0.00
 -7 1 15 4.09 0.00
 -7 1 14 1.05 0.00
 -7 1 13 -4.60 0.00
 -7 1 12 16.59 0.00
 -7 1 11 9.85 0.00
 -7 1 10 8.25 0.00
 -7 1 9 -14.20 0.00
 -7 1 8 32.28 0.00
 -7 1 7 14.69 0.00
 -7 1 6 23.58 0.00
 -7 1 5 -20.34 0.00
 -7 1 4 19.04 0.00
 -7 1 3 0.36 0.00
 -7 1 2 24.34 0.00
 -7 1 1 -5.21 0.00
 7 1 0 -22.94 0.00
 7 1 1 17.47 0.00
 7 1 3 -10.32 0.00
 7 1 4 -32.04 0.00
 7 1 5 18.97 0.00
 7 1 6 -23.50 0.00
 7 1 7 -18.82 0.00
 7 1 8 -22.92 0.00
 7 1 9 11.58 0.00
 7 1 10 -2.67 0.00
 7 1 11 -10.34 0.00
 7 1 12 -6.70 0.00
 7 1 13 1.98 0.00
 7 1 14 1.18 0.00
 7 1 15 -2.07 0.00
 7 1 16 1.64 0.00
 7 1 17 -1.21 0.00
 7 1 18 0.28 0.00
 7 1 19 2.95 0.00
 7 1 20 1.60 0.00
 7 1 21 -2.27 0.00
 -7 3 22 -2.01 0.00
 -7 3 21 -0.27 0.00
 -7 3 20 -1.67 0.00
 -7 3 19 1.72 0.00
 -7 3 18 1.01 0.00
 -7 3 17 1.23 0.00
 -7 3 16 -3.01 0.00
 -7 3 15 2.66 0.00
 -7 3 14 7.90 0.00
 -7 3 13 2.45 0.00
 -7 3 12 2.33 0.00
 -7 3 11 0.99 0.00
 -7 3 10 17.07 0.00
 -7 3 9 1.01 0.00
 -7 3 8 8.25 0.00
 -7 3 7 -7.49 0.00
 -7 3 6 26.40 0.00
 -7 3 5 -3.66 0.00
 -7 3 4 4.91 0.00
 -7 3 3 -20.15 0.00
 -7 3 2 10.80 0.00
 -7 3 1 -11.68 0.00
 7 3 0 -0.44 0.00
 7 3 1 13.25 0.00
 7 3 2 -30.39 0.00
 7 3 3 13.23 0.00
 7 3 4 -2.56 0.00
 7 3 5 -2.31 0.00
 7 3 6 -30.09 0.00
 7 3 7 0.91 0.00
 7 3 8 -0.48 0.00
 7 3 9 -5.83 0.00
 7 3 10 -11.51 0.00
 7 3 11 -3.76 0.00
 7 3 12 1.16 0.00
 7 3 13 -4.43 0.00
 7 3 14 -1.61 0.00
 7 3 15 -0.15 0.00
 7 3 16 1.42 0.00
 7 3 17 -0.73 0.00
 7 3 18 0.18 0.00
 7 3 19 1.13 0.00
 7 3 20 -2.09 0.00
 -7 5 20 -1.09 0.00
 -7 5 19 1.19 0.00
 -7 5 18 0.60 0.00
 -7 5 17 3.89 0.00
 -7 5 16 1.65 0.00
 -7 5 15 -1.08 0.00
 -7 5 14 0.66 0.00
 -7 5 13 7.14 0.00
 -7 5 12 6.02 0.00
 -7 5 11 -1.80 0.00
 -7 5 10 0.35 0.00
 -7 5 9 3.34 0.00
 -7 5 8 11.13 0.00
 -7 5 7 -3.97 0.00
 -7 5 6 3.12 0.00
 -7 5 5 -8.49 0.00
 -7 5 4 5.42 0.00
 -7 5 3 -2.38 0.00
 -7 5 2 4.11 0.00
 -7 5 1 -18.82 0.00
 7 5 0 -4.45 0.00
 7 5 1 4.98 0.00
 7 5 2 -1.75 0.00
 7 5 3 7.52 0.00
 7 5 4 -8.16 0.00
 7 5 5 1.72 0.00
 7 5 6 -3.00 0.00
 7 5 7 -0.39 0.00
 7 5 8 -8.32 0.00
 7 5 9 -6.40 0.00
 7 5 10 0.52 0.00
 7 5 11 -1.69 0.00
 7 5 12 -3.55 0.00
 7 5 13 -4.00 0.00
 7 5 14 0.25 0.00
 7 5 15 -0.08 0.00
 7 5 16 -0.36 0.00
 7 5 17 -0.50 0.00
 7 5 18 -1.53 0.00
 7 5 19 1.37 0.00
 -7 7 18 1.13 0.00
 -7 7 17 -0.71 0.00
 -7 7 16 0.11 0.00
 -7 7 15 4.08 0.00
 -7 7 14 0.31 0.00
 -7 7 13 -1.00 0.00
 -7 7 12 1.57 0.00
 -7 7 11 3.15 0.00
 -7 7 10 -1.86 0.00
 -7 7 9 0.01 0.00
 -7 7 8 3.80 0.00
 -7 7 7 0.38 0.00
 -7 7 6 -0.15 0.00
 -7 7 5 -5.26 0.00
 -7 7 4 -1.80 0.00
 -7 7 3 -0.97 0.00
 -7 7 2 3.57 0.00
 -7 7 1 -6.38 0.00
 7 7 0 -2.25 0.00
 7 7 1 5.19 0.00
 7 7 2 0.05 0.00
 7 7 3 -1.68 0.00
 7 7 4 0.01 0.00
 7 7 5 4.62 0.00
 7 7 6 -0.53 0.00
 7 7 7 -3.82 0.00
 7 7 8 -3.51 0.00
 7 7 9 -1.24 0.00
 7 7 10 1.39 0.00
 7 7 11 -2.40 0.00
 7 7 12 -1.61 0.00
 7 7 13 -1.62 0.00
 7 7 14 -1.91 0.00
 7 7 15 -1.13 0.00
 7 7 16 1.34 0.00
 -7 9 14 2.41 0.00
 -7 9 13 0.53 0.00
 -7 9 12 -2.48 0.00
 -7 9 11 -1.00 0.00
 -7 9 10 0.35 0.00
 -7 9 9 2.36 0.00
 -7 9 8 -2.23 0.00
 -7 9 7 -1.18 0.00
 -7 9 6 -0.21 0.00
 -7 9 5 -1.39 0.00
 -7 9 4 -1.22 0.00
 -7 9 3 -0.97 0.00
 -7 9 2 -0.91 0.00
 -7 9 1 -2.78 0.00
 7 9 0 0.52 0.00
 7 9 1 1.50 0.00
 7 9 2 0.99 0.00
 7 9 3 -3.60 0.00
 7 9 4 1.63 0.00
 7 9 5 1.16 0.00
 7 9 6 0.99 0.00
 7 9 7 -0.80 0.00
 7 9 8 -0.05 0.00
 7 9 9 -2.33 0.00
 7 9 10 0.39 0.00
 7 9 11 1.48 0.00
 7 9 12 -0.26 0.00
 7 9 13 -2.55 0.00
 -7 11 8 -0.43 0.00
 -7 11 7 -2.94 0.00
 -7 11 6 -2.85 0.00
 -7 11 5 0.09 0.00
 -7 11 4 1.51 0.00
 -7 11 3 0.45 0.00
 -7 11 2 -1.30 0.00
 -7 11 1 -1.55 0.00
 7 11 0 -0.01 0.00
 7 11 1 -0.99 0.00
 7 11 2 1.57 0.00
 7 11 3 -2.35 0.00
 7 11 4 0.52 0.00
 7 11 5 0.76 0.00
 7 11 6 2.91 0.00
 -8 0 22 -0.15 0.00
 -8 0 20 -1.35 0.00
 -8 0 18 -3.64 0.00
 -8 0 16 6.26 0.00
 -8 0 14 0.66 0.00
 -8 0 12 22.24 0.00
 -8 0 10 2.11 0.00
 -8 0 8 38.83 0.00
 -8 0 6 9.48 0.00
 -8 0 4 13.12 0.00
 -8 0 2 17.58 0.00
 8 0 0 -52.32 0.00
 8 0 2 -19.52 0.00
 8 0 4 -49.98 0.00
 8 0 6 -10.87 0.00
 8 0 8 -28.14 0.00
 8 0 10 4.45 0.00
 8 0 12 -6.48 0.00
 8 0 14 2.42 0.00
 8 0 16 3.44 0.00
 8 0 18 -1.28 0.00
 8 0 20 3.70 0.00
 -8 2 22 -1.28 0.00
 -8 2 21 0.36 0.00
 -8 2 20 -1.70 0.00
 -8 2 19 2.89 0.00
 -8 2 18 0.37 0.00
 -8 2 17 -1.88 0.00
 -8 2 16 -0.01 0.00
 -8 2 15 5.43 0.00
 -8 2 14 7.84 0.00
 -8 2 13 -3.77 0.00
 -8 2 12 7.90 0.00
 -8 2 11 6.46 0.00
 -8 2 10 17.71 0.00
 -8 2 9 -9.82 0.00
 -8 2 8 12.89 0.00
 -8 2 7 1.92 0.00
 -8 2 6 25.75 0.00
 -8 2 5 -11.82 0.00
 -8 2 4 -0.28 0.00
 -8 2 3 -17.63 0.00
 -8 2 2 8.58 0.00
 -8 2 1 0.31 0.00
 8 2 0 -18.64 0.00
 8 2 1 24.50 0.00
 8 2 2 -42.61 0.00
 8 2 3 -8.06 0.00
 8 2 4 -8.66 0.00
 8 2 5 9.89 0.00
 8 2 6 -35.33 0.00
 8 2 7 -13.81 0.00
 8 2 8 -1.68 0.00
 8 2 9 4.06 0.00
 8 2 10 -9.24 0.00
 8 2 11 -8.69 0.00
 8 2 12 0.80 0.00
 8 2 13 -1.21 0.00
 8 2 14 0.51 0.00
 8 2 15 -0.26 0.00
 8 2 16 1.23 0.00
 8 2 17 -1.33 0.00
 8 2 18 1.50 0.00
 8 2 19 3.00 0.00
 8 2 20 -2.16 0.00
 -8 4 21 0.06 0.00
 -8 4 20 -0.99 0.00
 -8 4 19 1.07 0.00
 -8 4 18 2.32 0.00
 -8 4 17 4.50 0.00
 -8 4 16 -1.11 0.00
 -8 4 15 -1.16 0.00
 -8 4 14 6.49 0.00
 -8 4 13 6.45 0.00
 -8 4 12 4.20 0.00
 -8 4 11 -3.73 0.00
 -8 4 10 7.21 0.00
 -8 4 9 2.55 0.00
 -8 4 8 12.00 0.00
 -8 4 7 -8.82 0.00
 -8 4 6 5.81 0.00
 -8 4 5 -8.02 0.00
 -8 4 4 7.70 0.00
 -8 4 3 -9.21 0.00
 -8 4 2 -2.78 0.00
 -8 4 1 -20.96 0.00
 8 4 0 -4.06 0.00
 8 4 1 -0.23 0.00
 8 4 2 -15.32 0.00
 8 4 3 14.54 0.00
 8 4 4 -9.12 0.00
 8 4 5 -8.14 0.00
 8 4 6 -11.68 0.00
 8 4 7 1.62 0.00
 8 4 8 -4.94 0.00
 8 4 9 -9.16 0.00
 8 4 10 -3.38 0.00
 8 4 11 -1.98 0.00
 8 4 12 -1.07 0.00
 8 4 13 -3.52 0.00
 8 4 14 0.61 0.00
 8 4 15 0.08 0.00
 8 4 16 0.13 0.00
 8 4 17 0.49 0.00
 8 4 18 -1.33 0.00
 8 4 19 0.74 0.00
 -8 6 19 2.11 0.00
 -8 6 18 0.22 0.00
 -8 6 17 1.26 0.00
 -8 6 16 3.01 0.00
 -8 6 15 2.14 0.00
 -8 6 14 -1.19 0.00
 -8 6 13 1.92 0.00
 -8 6 12 4.64 0.00
 -8 6 11 0.98 0.00
 -8 6 10 -1.05 0.00
 -8 6 9 -0.32 0.00
 -8 6 8 5.88 0.00
 -8 6 7 -2.43 0.00
 -8 6 6 1.83 0.00
 -8 6 5 -7.71 0.00
 -8 6 4 -2.37 0.00
 -8 6 3 -0.89 0.00
 -8 6 2 6.48 0.00
 -8 6 1 -11.96 0.00
 8 6 0 -7.76 0.00
 8 6 1 4.07 0.00
 8 6 2 1.02 0.00
 8 6 3 -0.22 0.00
 8 6 4 -4.12 0.00
 8 6 5 3.59 0.00
 8 6 6 -1.92 0.00
 8 6 7 -5.06 0.00
 8 6 8 -5.42 0.00
 8 6 9 -3.19 0.00
 8 6 10 1.35 0.00
 8 6 11 -2.85 0.00
 8 6 12 -2.96 0.00
 8 6 13 -1.69 0.00
 8 6 14 -0.67 0.00
 8 6 15 -0.66 0.00
 8 6 16 0.47 0.00
 8 6 17 0.03 0.00
 -8 8 16 -2.36 0.00
 -8 8 15 3.03 0.00
 -8 8 14 2.68 0.00
 -8 8 13 -1.63 0.00
 -8 8 12 -2.41 0.00
 -8 8 11 1.58 0.00
 -8 8 10 0.04 0.00
 -8 8 9 0.53 0.00
 -8 8 8 0.23 0.00
 -8 8 7 -1.11 0.00
 -8 8 6 -0.78 0.00
 -8 8 5 -2.96 0.00
 -8 8 4 -1.27 0.00
 -8 8 3 -2.09 0.00
 -8 8 2 0.63 0.00
 -8 8 1 -2.99 0.00
 8 8 0 -0.32 0.00
 8 8 1 1.81 0.00
 8 8 2 0.59 0.00
 8 8 3 -3.29 0.00
 8 8 4 1.08 0.00
 8 8 5 2.60 0.00
 8 8 6 -0.91 0.00
 8 8 7 -3.77 0.00
 8 8 8 -0.72 0.00
 8 8 9 -1.15 0.00
 8 8 10 0.00 0.00
 8 8 11 -0.75 0.00
 8 8 12 -0.72 0.00
 8 8 13 -2.34 0.00
 8 8 14 -1.33 0.00
 -8 10 12 -1.46 0.00
 -8 10 11 -1.91 0.00
 -8 10 10 -0.22 0.00
 -8 10 9 3.14 0.00
 -8 10 8 -1.75 0.00
 -8 10 7 -3.13 0.00
 -8 10 6 -1.35 0.00
 -8 10 5 0.13 0.00
 -8 10 4 0.86 0.00
 -8 10 3 -0.42 0.00
 -8 10 2 -2.12 0.00
 -8 10 1 -2.08 0.00
 8 10 0 1.48 0.00
 8 10 1 -1.26 0.00
 8 10 2 0.95 0.00
 8 10 3 -3.55 0.00
 8 10 4 1.54 0.00
 8 10 5 0.61 0.00
 8 10 6 2.15 0.00
 8 10 7 -0.98 0.00
 8 10 8 -1.45 0.00
 8 10 9 -2.02 0.00
 8 10 10 0.74 0.00
 -9 1 22 -0.39 0.00
 -9 1 21 0.29 0.00
 -9 1 20 -0.80 0.00
 -9 1 19 2.33 0.00
 -9 1 18 -1.39 0.00
 -9 1 17 -2.67 0.00
 -9 1 16 5.55 0.00
 -9 1 15 4.65 0.00
 -9 1 14 5.14 0.00
 -9 1 13 -5.03 0.00
 -9 1 12 16.14 0.00
 -9 1 11 6.63 0.00
 -9 1 10 8.94 0.00
 -9 1 9 -10.71 0.00
 -9 1 8 22.47 0.00
 -9 1 7 4.68 0.00
 -9 1 6 11.41 0.00
 -9 1 5 -8.67 0.00
 -9 1 4 -6.14 0.00
 -9 1 3 -12.92 0.00
 -9 1 2 7.01 0.00
 -9 1 1 10.91 0.00
 9 1 0 -54.54 0.00
 9 1 1 26.14 0.00
 9 1 2 -27.03 0.00
 9 1 3 -20.51 0.00
 9 1 4 -33.03 0.00
 9 1 5 14.77 0.00
 9 1 6 -19.42 0.00
 9 1 7 -15.57 0.00
 9 1 8 -11.43 0.00
 9 1 9 6.09 0.00
 9 1 10 -0.08 0.00
 9 1 11 -6.48 0.00
 9 1 12 -0.47 0.00
 9 1 13 -0.65 0.00
 9 1 14 1.77 0.00
 9 1 15 1.07 0.00
 9 1 16 3.26 0.00
 9 1 17 -2.23 0.00
 9 1 18 -0.19 0.00
 9 1 19 3.59 0.00
 9 1 20 1.03 0.00
 -9 3 22 -1.08 0.00
 -9 3 21 0.66 0.00
 -9 3 20 -1.73 0.00
 -9 3 19 2.42 0.00
 -9 3 18 3.97 0.00
 -9 3 17 1.22 0.00
 -9 3 16 -1.90 0.00
 -9 3 15 1.85 0.00
 -9 3 14 10.45 0.00
 -9 3 13 1.38 0.00
 -9 3 12 4.43 0.00
 -9 3 11 -2.04 0.00
 -9 3 10 13.16 0.00
 -9 3 9 -1.27 0.00
 -9 3 8 10.26 0.00
 -9 3 7 -10.07 0.00
 -9 3 6 7.79 0.00
 -9 3 5 -6.39 0.00
 -9 3 4 3.67 0.00
 -9 3 3 -17.39 0.00
 -9 3 2 -12.09 0.00
 -9 3 1 -9.51 0.00
 9 3 0 -7.06 0.00
 9 3 1 5.50 0.00
 9 3 2 -37.47 0.00
 9 3 3 7.28 0.00
 9 3 4 -2.78 0.00
 9 3 5 -9.72 0.00
 9 3 6 -24.53 0.00
 9 3 7 -2.36 0.00
 9 3 8 1.57 0.00
 9 3 9 -6.07 0.00
 9 3 10 -5.91 0.00
 9 3 11 -4.19 0.00
 9 3 12 1.03 0.00
 9 3 13 -2.11 0.00
 9 3 14 2.28 0.00
 9 3 15 0.17 0.00
 9 3 16 -0.70 0.00
 9 3 17 0.81 0.00
 9 3 18 0.73 0.00
 9 3 19 0.71 0.00
 -9 5 20 1.02 0.00
 -9 5 19 1.24 0.00
 -9 5 18 0.73 0.00
 -9 5 17 4.29 0.00
 -9 5 16 2.74 0.00
 -9 5 15 -0.93 0.00
 -9 5 14 1.89 0.00
 -9 5 13 4.51 0.00
 -9 5 12 4.88 0.00
 -9 5 11 -1.99 0.00
 -9 5 10 1.96 0.00
 -9 5 9 -2.01 0.00
 -9 5 8 8.20 0.00
 -9 5 7 -3.59 0.00
 -9 5 6 1.49 0.00
 -9 5 5 -12.22 0.00
 -9 5 4 -0.54 0.00
 -9 5 3 0.25 0.00
 -9 5 2 2.44 0.00
 -9 5 1 -19.88 0.00
 9 5 0 -11.66 0.00
 9 5 1 -2.89 0.00
 9 5 2 -1.56 0.00
 9 5 3 4.72 0.00
 9 5 4 -9.93 0.00
 9 5 5 -2.41 0.00
 9 5 6 -3.41 0.00
 9 5 7 -4.76 0.00
 9 5 8 -5.41 0.00
 9 5 9 -5.52 0.00
 9 5 10 0.05 0.00
 9 5 11 -2.59 0.00
 9 5 12 -1.92 0.00
 9 5 13 -1.06 0.00
 9 5 14 0.10 0.00
 9 5 15 -0.35 0.00
 9 5 16 0.49 0.00
 9 5 17 0.80 0.00
 9 5 18 -2.15 0.00
 -9 7 18 0.72 0.00
 -9 7 17 -1.33 0.00
 -9 7 16 0.46 0.00
 -9 7 15 4.04 0.00
 -9 7 14 0.60 0.00
 -9 7 13 -2.03 0.00
 -9 7 12 0.33 0.00
 -9 7 11 1.87 0.00
 -9 7 10 -0.07 0.00
 -9 7 9 -0.49 0.00
 -9 7 8 1.98 0.00
 -9 7 7 -3.75 0.00
 -9 7 6 0.11 0.00
 -9 7 5 -3.22 0.00
 -9 7 4 -2.65 0.00
 -9 7 3 -3.27 0.00
 -9 7 2 3.96 0.00
 -9 7 1 -4.36 0.00
 9 7 0 -4.58 0.00
 9 7 1 2.21 0.00
 9 7 2 0.74 0.00
 9 7 3 -2.62 0.00
 9 7 4 -0.85 0.00
 9 7 5 2.29 0.00
 9 7 6 -2.24 0.00
 9 7 7 -5.85 0.00
 9 7 8 -2.39 0.00
 9 7 9 -1.30 0.00
 9 7 10 0.23 0.00
 9 7 11 -2.45 0.00
 9 7 12 -1.90 0.00
 9 7 13 -1.46 0.00
 9 7 14 -0.94 0.00
 9 7 15 -0.01 0.00
 9 7 16 0.88 0.00
 -9 9 14 2.81 0.00
 -9 9 13 -0.66 0.00
 -9 9 12 -3.19 0.00
 -9 9 11 -0.23 0.00
 -9 9 10 0.57 0.00
 -9 9 9 1.73 0.00
 -9 9 8 -1.16 0.00
 -9 9 7 -2.57 0.00
 -9 9 6 -1.09 0.00
 -9 9 5 -1.05 0.00
 -9 9 4 0.44 0.00
 -9 9 3 -1.70 0.00
 -9 9 2 -1.86 0.00
 -9 9 1 -1.37 0.00
 9 9 0 1.96 0.00
 9 9 1 -1.30 0.00
 9 9 2 0.50 0.00
 9 9 3 -3.83 0.00
 9 9 4 1.64 0.00
 9 9 5 1.17 0.00
 9 9 6 -0.34 0.00
 9 9 7 -2.32 0.00
 9 9 8 -0.46 0.00
 9 9 9 -1.70 0.00
 9 9 10 -0.07 0.00
 9 9 11 0.94 0.00
 9 9 12 -0.81 0.00
 -9 11 8 -1.38 0.00
 -9 11 7 -2.69 0.00
 -9 11 6 -0.85 0.00
 -9 11 5 0.29 0.00
 -9 11 4 1.04 0.00
 -9 11 3 0.49 0.00
 -9 11 2 -1.60 0.00
 -9 11 1 -0.93 0.00
 9 11 0 0.92 0.00
 9 11 1 -1.75 0.00
 9 11 2 1.40 0.00
 9 11 3 -3.09 0.00
 9 11 4 1.17 0.00
 9 11 5 1.30 0.00
 -10 0 22 0.03 0.00
 -10 0 20 -0.01 0.00
 -10 0 18 -1.41 0.00
 -10 0 16 8.78 0.00
 -10 0 14 4.22 0.00
 -10 0 12 18.05 0.00
 -10 0 10 3.56 0.00
 -10 0 8 20.26 0.00
 -10 0 6 2.26 0.00
 -10 0 4 -19.83 0.00
 -10 0 2 6.61 0.00
 10 0 0 -79.94 0.00
 10 0 2 -8.65 0.00
 10 0 4 -45.10 0.00
 10 0 6 -7.34 0.00
 10 0 8 -10.95 0.00
 10 0 10 3.44 0.00
 10 0 12 2.10 0.00
 10 0 14 0.93 0.00
 10 0 16 5.80 0.00
 10 0 18 -2.13 0.00
 10 0 20 2.86 0.00
 -10 2 22 -0.30 0.00
 -10 2 21 0.28 0.00
 -10 2 20 -1.02 0.00
 -10 2 19 3.58 0.00
 -10 2 18 2.92 0.00
 -10 2 17 -2.65 0.00
 -10 2 16 1.65 0.00
 -10 2 15 4.44 0.00
 -10 2 14 10.43 0.00
 -10 2 13 -3.41 0.00
 -10 2 12 7.58 0.00
 -10 2 11 1.42 0.00
 -10 2 10 12.84 0.00
 -10 2 9 -5.98 0.00
 -10 2 8 9.03 0.00
 -10 2 7 -6.75 0.00
 -10 2 6 3.99 0.00
 -10 2 5 -2.92 0.00
 -10 2 4 -6.92 0.00
 -10 2 3 -22.93 0.00
 -10 2 2 -16.29 0.00
 -10 2 1 11.62 0.00
 10 2 0 -27.52 0.00
 10 2 1 22.39 0.00
 10 2 2 -41.88 0.00
 10 2 3 -15.45 0.00
 10 2 4 -6.31 0.00
 10 2 5 2.12 0.00
 10 2 6 -25.47 0.00
 10 2 7 -10.29 0.00
 10 2 8 2.67 0.00
 10 2 9 -0.44 0.00
 10 2 10 -2.80 0.00
 10 2 11 -4.85 0.00
 10 2 12 1.96 0.00
 10 2 13 -2.17 0.00
 10 2 14 3.43 0.00
 10 2 15 2.23 0.00
 10 2 16 -0.30 0.00
 10 2 17 -1.37 0.00
 10 2 18 1.82 0.00
 10 2 19 2.70 0.00
 10 2 20 -2.67 0.00
 -10 4 21 1.88 0.00
 -10 4 20 0.04 0.00
 -10 4 19 0.73 0.00
 -10 4 18 3.69 0.00
 -10 4 17 4.39 0.00
 -10 4 16 0.37 0.00
 -10 4 15 -1.20 0.00
 -10 4 14 6.84 0.00
 -10 4 13 3.08 0.00
 -10 4 12 4.73 0.00
 -10 4 11 -3.39 0.00
 -10 4 10 4.70 0.00
 -10 4 9 -3.14 0.00
 -10 4 8 10.64 0.00
 -10 4 7 -6.06 0.00
 -10 4 6 -3.67 0.00
 -10 4 5 -12.99 0.00
 -10 4 4 2.91 0.00
 -10 4 3 -2.30 0.00
 -10 4 2 -11.16 0.00
 -10 4 1 -20.28 0.00
 10 4 0 -10.59 0.00
 10 4 1 -9.43 0.00
 10 4 2 -14.86 0.00
 10 4 3 9.15 0.00
 10 4 4 -9.78 0.00
 10 4 5 -11.88 0.00
 10 4 6 -7.74 0.00
 10 4 7 -2.97 0.00
 10 4 8 -2.36 0.00
 10 4 9 -6.22 0.00
 10 4 10 -1.21 0.00
 10 4 11 -3.04 0.00
 10 4 12 -0.28 0.00
 10 4 13 0.43 0.00
 10 4 14 1.87 0.00
 10 4 15 -1.04 0.00
 10 4 16 -0.48 0.00
 10 4 17 2.40 0.00
 10 4 18 -1.55 0.00
 -10 6 19 2.59 0.00
 -10 6 18 -0.38 0.00
 -10 6 17 0.63 0.00
 -10 6 16 3.18 0.00
 -10 6 15 2.03 0.00
 -10 6 14 0.02 0.00
 -10 6 13 0.05 0.00
 -10 6 12 2.19 0.00
 -10 6 11 -0.30 0.00
 -10 6 10 1.70 0.00
 -10 6 9 -2.58 0.00
 -10 6 8 1.99 0.00
 -10 6 7 -4.26 0.00
 -10 6 6 2.38 0.00
 -10 6 5 -6.36 0.00
 -10 6 4 -5.49 0.00
 -10 6 3 -1.77 0.00
 -10 6 2 5.85 0.00
 -10 6 1 -9.44 0.00
 10 6 0 -11.02 0.00
 10 6 1 -0.85 0.00
 10 6 2 1.37 0.00
 10 6 3 -1.53 0.00
 10 6 4 -4.48 0.00
 10 6 5 0.06 0.00
 10 6 6 -3.56 0.00
 10 6 7 -7.00 0.00
 10 6 8 -2.73 0.00
 10 6 9 -2.46 0.00
 10 6 10 -0.07 0.00
 10 6 11 -2.54 0.00
 10 6 12 -1.74 0.00
 10 6 13 -0.47 0.00
 10 6 14 -0.42 0.00
 10 6 15 0.33 0.00
 10 6 16 0.85 0.00
 10 6 17 0.00 0.00
 -10 8 16 -1.87 0.00
 -10 8 15 2.82 0.00
 -10 8 14 2.55 0.00
 -10 8 13 -2.44 0.00
 -10 8 12 -2.78 0.00
 -10 8 11 1.34 0.00
 -10 8 10 0.84 0.00
 -10 8 9 0.23 0.00
 -10 8 8 0.38 0.00
 -10 8 7 -4.21 0.00
 -10 8 6 -1.53 0.00
 -10 8 5 -0.83 0.00
 -10 8 4 0.01 0.00
 -10 8 3 -3.34 0.00
 -10 8 2 -0.02 0.00
 -10 8 1 -0.47 0.00
 10 8 0 -0.10 0.00
 10 8 1 -0.57 0.00
 10 8 2 0.10 0.00
 10 8 3 -3.28 0.00
 10 8 4 0.49 0.00
 10 8 5 1.16 0.00
 10 8 6 -2.02 0.00
 10 8 7 -4.72 0.00
 10 8 8 -0.59 0.00
 10 8 9 -0.90 0.00
 10 8 10 -0.73 0.00
 10 8 11 -0.98 0.00
 10 8 12 -1.28 0.00
 10 8 13 -1.87 0.00
 10 8 14 -0.06 0.00
 -10 10 12 -1.81 0.00
 -10 10 11 -0.39 0.00
 -10 10 10 0.10 0.00
 -10 10 9 1.56 0.00
 -10 10 8 -1.18 0.00
 -10 10 7 -2.34 0.00
 -10 10 6 -0.62 0.00
 -10 10 5 -0.57 0.00
 -10 10 4 0.98 0.00
 -10 10 3 -0.08 0.00
 -10 10 2 -2.38 0.00
 -10 10 1 -0.61 0.00
 10 10 0 2.19 0.00
 10 10 1 -2.98 0.00
 10 10 2 0.93 0.00
 10 10 3 -3.52 0.00
 10 10 4 1.48 0.00
 10 10 5 1.15 0.00
 10 10 6 0.31 0.00
 10 10 7 -2.18 0.00
 10 10 8 -1.45 0.00
 10 10 9 -0.70 0.00
 -11 1 22 0.16 0.00
 -11 1 21 0.04 0.00
 -11 1 20 0.36 0.00
 -11 1 19 2.16 0.00
 -11 1 18 1.06 0.00
 -11 1 17 -2.67 0.00
 -11 1 16 6.78 0.00
 -11 1 15 3.59 0.00
 -11 1 14 7.68 0.00
 -11 1 13 -3.88 0.00
 -11 1 12 10.97 0.00
 -11 1 11 2.21 0.00
 -11 1 10 6.67 0.00
 -11 1 9 -4.84 0.00
 -11 1 8 7.18 0.00
 -11 1 7 -4.24 0.00
 -11 1 6 -2.59 0.00
 -11 1 5 2.75 0.00
 -11 1 4 -24.56 0.00
 -11 1 3 -19.57 0.00
 -11 1 2 -9.11 0.00
 -11 1 1 19.86 0.00
 11 1 0 -62.98 0.00
 11 1 1 24.27 0.00
 11 1 2 -17.72 0.00
 11 1 3 -22.32 0.00
 11 1 4 -24.44 0.00
 11 1 5 7.78 0.00
 11 1 6 -11.75 0.00
 11 1 7 -8.85 0.00
 11 1 8 0.72 0.00
 11 1 9 0.31 0.00
 11 1 10 1.46 0.00
 11 1 11 -1.73 0.00
 11 1 12 4.56 0.00
 11 1 13 -2.54 0.00
 11 1 14 1.66 0.00
 11 1 15 3.30 0.00
 11 1 16 3.53 0.00
 11 1 17 -2.63 0.00
 11 1 18 -0.45 0.00
 11 1 19 3.15 0.00
 11 1 20 0.17 0.00
 -11 3 22 0.23 0.00
 -11 3 21 1.39 0.00
 -11 3 20 -0.95 0.00
 -11 3 19 2.31 0.00
 -11 3 18 5.53 0.00
 -11 3 17 0.62 0.00
 -11 3 16 0.14 0.00
 -11 3 15 0.78 0.00
 -11 3 14 9.79 0.00
 -11 3 13 0.12 0.00
 -11 3 12 5.33 0.00
 -11 3 11 -3.83 0.00
 -11 3 10 5.99 0.00
 -11 3 9 -2.45 0.00
 -11 3 8 9.13 0.00
 -11 3 7 -9.85 0.00
 -11 3 6 -10.44 0.00
 -11 3 5 -6.36 0.00
 -11 3 4 1.58 0.00
 -11 3 3 -10.57 0.00
 -11 3 2 -27.08 0.00
 -11 3 1 -5.58 0.00
 11 3 0 -11.30 0.00
 11 3 1 -3.20 0.00
 11 3 2 -31.81 0.00
 11 3 3 1.11 0.00
 11 3 4 -2.66 0.00
 11 3 5 -13.47 0.00
 11 3 6 -13.69 0.00
 11 3 7 -3.02 0.00
 11 3 8 2.17 0.00
 11 3 9 -4.74 0.00
 11 3 10 -0.12 0.00
 11 3 11 -3.06 0.00
 11 3 12 0.47 0.00
 11 3 13 0.16 0.00
 11 3 14 4.56 0.00
 11 3 15 0.02 0.00
 11 3 16 -2.55 0.00
 11 3 17 2.09 0.00
 11 3 18 0.87 0.00
 11 3 19 -0.21 0.00
 -11 5 20 2.95 0.00
 -11 5 19 0.81 0.00
 -11 5 18 0.67 0.00
 -11 5 17 3.31 0.00
 -11 5 16 3.13 0.00
 -11 5 15 -0.29 0.00
 -11 5 14 2.62 0.00
 -11 5 13 0.47 0.00
 -11 5 12 2.52 0.00
 -11 5 11 -1.33 0.00
 -11 5 10 3.32 0.00
 -11 5 9 -6.22 0.00
 -11 5 8 3.59 0.00
 -11 5 7 -1.90 0.00
 -11 5 6 -0.72 0.00
 -11 5 5 -12.31 0.00
 -11 5 4 -5.41 0.00
 -11 5 3 2.14 0.00
 -11 5 2 0.01 0.00
 -11 5 1 -15.17 0.00
 11 5 0 -14.79 0.00
 11 5 1 -8.24 0.00
 11 5 2 -1.20 0.00
 11 5 3 0.88 0.00
 11 5 4 -8.76 0.00
 11 5 5 -4.87 0.00
 11 5 6 -3.31 0.00
 11 5 7 -7.31 0.00
 11 5 8 -1.81 0.00
 11 5 9 -2.55 0.00
 11 5 10 -0.58 0.00
 11 5 11 -2.58 0.00
 11 5 12 -0.26 0.00
 11 5 13 1.52 0.00
 11 5 14 0.09 0.00
 11 5 15 -0.55 0.00
 11 5 16 0.95 0.00
 11 5 17 1.44 0.00
 -11 7 18 0.26 0.00
 -11 7 17 -1.88 0.00
 -11 7 16 0.52 0.00
 -11 7 15 3.11 0.00
 -11 7 14 1.10 0.00
 -11 7 13 -2.47 0.00
 -11 7 12 -0.88 0.00
 -11 7 11 0.33 0.00
 -11 7 10 1.52 0.00
 -11 7 9 -1.00 0.00
 -11 7 8 0.10 0.00
 -11 7 7 -6.34 0.00
 -11 7 6 0.37 0.00
 -11 7 5 -0.21 0.00
 -11 7 4 -2.78 0.00
 -11 7 3 -4.40 0.00
 -11 7 2 2.80 0.00
 -11 7 1 -1.44 0.00
 11 7 0 -5.33 0.00
 11 7 1 -0.88 0.00
 11 7 2 0.60 0.00
 11 7 3 -2.57 0.00
 11 7 4 -1.38 0.00
 11 7 5 -0.74 0.00
 11 7 6 -3.46 0.00
 11 7 7 -5.75 0.00
 11 7 8 -0.91 0.00
 11 7 9 -1.18 0.00
 11 7 10 -0.89 0.00
 11 7 11 -1.81 0.00
 11 7 12 -1.40 0.00
 11 7 13 -0.85 0.00
 11 7 14 0.39 0.00
 11 7 15 0.70 0.00
 -11 9 14 2.62 0.00
 -11 9 13 -1.35 0.00
 -11 9 12 -2.93 0.00
 -11 9 11 0.73 0.00
 -11 9 10 0.94 0.00
 -11 9 9 0.50 0.00
 -11 9 8 0.08 0.00
 -11 9 7 -3.08 0.00
 -11 9 6 -1.92 0.00
 -11 9 5 -0.76 0.00
 -11 9 4 1.67 0.00
 -11 9 3 -1.21 0.00
 -11 9 2 -2.27 0.00
 -11 9 1 0.74 0.00
 11 9 0 2.26 0.00
 11 9 1 -3.25 0.00
 11 9 2 -0.01 0.00
 11 9 3 -2.85 0.00
 11 9 4 1.07 0.00
 11 9 5 0.82 0.00
 11 9 6 -1.55 0.00
 11 9 7 -3.37 0.00
 11 9 8 -0.50 0.00
 11 9 9 -0.53 0.00
 11 9 10 -0.45 0.00
 11 9 11 0.14 0.00
 -11 11 7 -1.81 0.00
 -11 11 6 1.11 0.00
 -11 11 5 0.40 0.00
 -11 11 4 -0.53 0.00
 -11 11 3 0.31 0.00
 -11 11 2 -1.54 0.00
 -11 11 1 0.60 0.00
 11 11 0 2.08 0.00
 11 11 1 -1.89 0.00
 11 11 2 0.49 0.00
 11 11 3 -3.26 0.00
 11 11 4 1.55 0.00
 -12 0 22 0.31 0.00
 -12 0 20 0.97 0.00
 -12 0 18 1.58 0.00
 -12 0 16 8.36 0.00
 -12 0 14 6.43 0.00
 -12 0 12 9.37 0.00
 -12 0 10 2.97 0.00
 -12 0 8 -0.76 0.00
 -12 0 6 -5.84 0.00
 -12 0 4 -39.15 0.00
 -12 0 2 -4.34 0.00
 12 0 0 -77.49 0.00
 12 0 2 1.13 0.00
 12 0 4 -29.14 0.00
 12 0 6 -2.85 0.00
 12 0 8 4.75 0.00
 12 0 10 1.59 0.00
 12 0 12 8.19 0.00
 12 0 14 -0.40 0.00
 12 0 16 6.11 0.00
 12 0 18 -2.39 0.00
 -12 2 22 0.80 0.00
 -12 2 21 0.24 0.00
 -12 2 20 0.12 0.00
 -12 2 19 2.86 0.00
 -12 2 18 4.20 0.00
 -12 2 17 -2.32 0.00
 -12 2 16 3.30 0.00
 -12 2 15 2.30 0.00
 -12 2 14 9.86 0.00
 -12 2 13 -1.98 0.00
 -12 2 12 4.96 0.00
 -12 2 11 -2.99 0.00
 -12 2 10 5.21 0.00
 -12 2 9 -0.93 0.00
 -12 2 8 2.51 0.00
 -12 2 7 -11.82 0.00
 -12 2 6 -14.83 0.00
 -12 2 5 4.84 0.00
 -12 2 4 -10.44 0.00
 -12 2 3 -20.36 0.00
 -12 2 2 -31.35 0.00
 -12 2 1 16.39 0.00
 12 2 0 -26.60 0.00
 12 2 1 12.99 0.00
 12 2 2 -29.60 0.00
 12 2 3 -15.89 0.00
 12 2 4 -2.82 0.00
 12 2 5 -4.48 0.00
 12 2 6 -12.03 0.00
 12 2 7 -4.05 0.00
 12 2 8 5.46 0.00
 12 2 9 -3.89 0.00
 12 2 10 2.37 0.00
 12 2 11 -0.45 0.00
 12 2 12 2.35 0.00
 12 2 13 -2.42 0.00
 12 2 14 4.75 0.00
 12 2 15 3.32 0.00
 12 2 16 -1.82 0.00
 12 2 17 -0.93 0.00
 12 2 18 1.85 0.00
 12 2 19 1.61 0.00
 -12 4 21 2.94 0.00
 -12 4 20 1.25 0.00
 -12 4 19 0.23 0.00
 -12 4 18 3.95 0.00
 -12 4 17 2.83 0.00
 -12 4 16 1.78 0.00
 -12 4 15 -0.66 0.00
 -12 4 14 5.28 0.00
 -12 4 13 -0.90 0.00
 -12 4 12 4.20 0.00
 -12 4 11 -1.84 0.00
 -12 4 10 1.41 0.00
 -12 4 9 -7.14 0.00
 -12 4 8 6.69 0.00
 -12 4 7 -2.17 0.00
 -12 4 6 -11.34 0.00
 -12 4 5 -13.30 0.00
 -12 4 4 -1.80 0.00
 -12 4 3 3.39 0.00
 -12 4 2 -14.93 0.00
 -12 4 1 -13.96 0.00
 12 4 0 -13.76 0.00
 12 4 1 -14.03 0.00
 12 4 2 -9.89 0.00
 12 4 3 2.29 0.00
 12 4 4 -8.28 0.00
 12 4 5 -11.42 0.00
 12 4 6 -2.56 0.00
 12 4 7 -5.21 0.00
 12 4 8 -0.55 0.00
 12 4 9 -1.83 0.00
 12 4 10 0.86 0.00
 12 4 11 -2.94 0.00
 12 4 12 0.24 0.00
 12 4 13 3.08 0.00
 12 4 14 2.24 0.00
 12 4 15 -1.84 0.00
 12 4 16 -0.83 0.00
 12 4 17 3.38 0.00
 12 4 18 -1.62 0.00
 -12 6 19 2.23 0.00
 -12 6 18 -0.88 0.00
 -12 6 17 -0.37 0.00
 -12 6 16 2.63 0.00
 -12 6 15 1.67 0.00
 -12 6 14 1.27 0.00
 -12 6 13 -1.96 0.00
 -12 6 12 -0.59 0.00
 -12 6 11 -1.37 0.00
 -12 6 10 3.86 0.00
 -12 6 9 -3.67 0.00
 -12 6 8 -1.72 0.00
 -12 6 7 -4.66 0.00
 -12 6 6 2.09 0.00
 -12 6 5 -3.52 0.00
 -12 6 4 -6.96 0.00
 -12 6 3 -2.26 0.00
 -12 6 2 3.25 0.00
 -12 6 1 -4.73 0.00
 12 6 0 -10.69 0.00
 12 6 1 -4.51 0.00
 12 6 2 0.67 0.00
 12 6 3 -2.29 0.00
 12 6 4 -3.54 0.00
 12 6 5 -3.01 0.00
 12 6 6 -4.66 0.00
 12 6 7 -6.56 0.00
 12 6 8 0.47 0.00
 12 6 9 -1.05 0.00
 12 6 10 -1.48 0.00
 12 6 11 -1.56 0.00
 12 6 12 -0.21 0.00
 12 6 13 0.67 0.00
 12 6 14 0.30 0.00
 12 6 15 0.82 0.00
 12 6 16 0.64 0.00
 -12 8 16 -1.10 0.00
 -12 8 15 1.86 0.00
 -12 8 14 2.13 0.00
 -12 8 13 -2.29 0.00
 -12 8 12 -2.28 0.00
 -12 8 11 0.95 0.00
 -12 8 10 1.34 0.00
 -12 8 9 -0.59 0.00
 -12 8 8 0.62 0.00
 -12 8 7 -5.59 0.00
 -12 8 6 -2.16 0.00
 -12 8 5 1.47 0.00
 -12 8 4 1.29 0.00
 -12 8 3 -3.29 0.00
 -12 8 2 -1.05 0.00
 -12 8 1 1.88 0.00
 12 8 0 -0.33 0.00
 12 8 1 -2.47 0.00
 12 8 2 -0.48 0.00
 12 8 3 -2.24 0.00
 12 8 4 -0.07 0.00
 12 8 5 -0.67 0.00
 12 8 6 -2.59 0.00
 12 8 7 -4.39 0.00
 12 8 8 -0.46 0.00
 12 8 9 -0.45 0.00
 12 8 10 -0.95 0.00
 12 8 11 -0.97 0.00
 12 8 12 -1.12 0.00
 12 8 13 -1.12 0.00
 -12 10 11 1.11 0.00
 -12 10 10 0.52 0.00
 -12 10 9 -0.40 0.00
 -12 10 8 -0.47 0.00
 -12 10 7 -1.10 0.00
 -12 10 6 -0.01 0.00
 -12 10 5 -1.41 0.00
 -12 10 4 -0.03 0.00
 -12 10 3 0.95 0.00
 -12 10 2 -1.86 0.00
 -12 10 1 1.50 0.00
 12 10 0 2.33 0.00
 12 10 1 -3.13 0.00
 12 10 2 0.49 0.00
 12 10 3 -2.72 0.00
 12 10 4 0.99 0.00
 12 10 5 1.24 0.00
 12 10 6 -1.34 0.00
 12 10 7 -2.60 0.00
 12 10 8 -0.70 0.00
 -13 1 22 0.68 0.00
 -13 1 21 -0.12 0.00
 -13 1 20 1.24 0.00
 -13 1 19 1.12 0.00
 -13 1 18 3.12 0.00
 -13 1 17 -1.42 0.00
 -13 1 16 6.22 0.00
 -13 1 15 1.46 0.00
 -13 1 14 7.83 0.00
 -13 1 13 -1.92 0.00
 -13 1 12 3.41 0.00
 -13 1 11 -1.45 0.00
 -13 1 10 2.55 0.00
 -13 1 9 0.77 0.00
 -13 1 8 -7.55 0.00
 -13 1 7 -9.38 0.00
 -13 1 6 -13.67 0.00
 -13 1 5 10.11 0.00
 -13 1 4 -31.11 0.00
 -13 1 3 -18.67 0.00
 -13 1 2 -19.46 0.00
 -13 1 1 20.87 0.00
 13 1 0 -50.92 0.00
 13 1 1 15.47 0.00
 13 1 2 -6.49 0.00
 13 1 3 -17.02 0.00
 13 1 4 -11.44 0.00
 13 1 5 0.82 0.00
 13 1 6 -3.41 0.00
 13 1 7 -1.59 0.00
 13 1 8 9.54 0.00
 13 1 9 -3.83 0.00
 13 1 10 2.00 0.00
 13 1 11 2.21 0.00
 13 1 12 7.23 0.00
 13 1 13 -3.33 0.00
 13 1 14 1.30 0.00
 13 1 15 4.09 0.00
 13 1 16 2.59 0.00
 13 1 17 -2.34 0.00
 13 1 18 -0.48 0.00
 13 1 19 2.21 0.00
 -13 3 21 1.65 0.00
 -13 3 20 0.37 0.00
 -13 3 19 1.53 0.00
 -13 3 18 5.14 0.00
 -13 3 17 -0.22 0.00
 -13 3 16 2.41 0.00
 -13 3 15 -0.05 0.00
 -13 3 14 6.52 0.00
 -13 3 13 -0.90 0.00
 -13 3 12 4.65 0.00
 -13 3 11 -4.28 0.00
 -13 3 10 -1.52 0.00
 -13 3 9 -2.53 0.00
 -13 3 8 5.24 0.00
 -13 3 7 -7.24 0.00
 -13 3 6 -22.52 0.00
 -13 3 5 -4.32 0.00
 -13 3 4 -0.91 0.00
 -13 3 3 -2.46 0.00
 -13 3 2 -31.07 0.00
 -13 3 1 -1.37 0.00
 13 3 0 -12.15 0.00
 13 3 1 -9.80 0.00
 13 3 2 -18.08 0.00
 13 3 3 -3.10 0.00
 13 3 4 -2.58 0.00
 13 3 5 -12.73 0.00
 13 3 6 -2.25 0.00
 13 3 7 -1.59 0.00
 13 3 8 1.68 0.00
 13 3 9 -2.70 0.00
 13 3 10 4.16 0.00
 13 3 11 -1.24 0.00
 13 3 12 -0.10 0.00
 13 3 13 1.60 0.00
 13 3 14 4.89 0.00
 13 3 15 -0.44 0.00
 13 3 16 -3.37 0.00
 13 3 17 2.96 0.00
 13 3 18 0.79 0.00
 -13 5 20 3.90 0.00
 -13 5 19 0.21 0.00
 -13 5 18 0.42 0.00
 -13 5 17 1.43 0.00
 -13 5 16 2.80 0.00
 -13 5 15 0.40 0.00
 -13 5 14 2.52 0.00
 -13 5 13 -3.44 0.00
 -13 5 12 0.05 0.00
 -13 5 11 -0.28 0.00
 -13 5 10 3.91 0.00
 -13 5 9 -8.08 0.00
 -13 5 8 -1.45 0.00
 -13 5 7 -0.05 0.00
 -13 5 6 -2.93 0.00
 -13 5 5 -9.16 0.00
 -13 5 4 -8.04 0.00
 -13 5 3 2.65 0.00
 -13 5 2 -2.46 0.00
 -13 5 1 -6.91 0.00
 13 5 0 -13.44 0.00
 13 5 1 -9.74 0.00
 13 5 2 -0.92 0.00
 13 5 3 -2.77 0.00
 13 5 4 -5.74 0.00
 13 5 5 -5.19 0.00
 13 5 6 -2.72 0.00
 13 5 7 -7.19 0.00
 13 5 8 1.35 0.00
 13 5 9 0.99 0.00
 13 5 10 -1.06 0.00
 13 5 11 -1.95 0.00
 13 5 12 1.10 0.00
 13 5 13 2.77 0.00
 13 5 14 0.35 0.00
 13 5 15 -0.57 0.00
 13 5 16 0.85 0.00
 13 5 17 1.38 0.00
 -13 7 18 -0.21 0.00
 -13 7 17 -2.04 0.00
 -13 7 16 0.41 0.00
 -13 7 15 1.77 0.00
 -13 7 14 1.57 0.00
 -13 7 13 -2.34 0.00
 -13 7 12 -1.66 0.00
 -13 7 11 -1.16 0.00
 -13 7 10 2.35 0.00
 -13 7 9 -1.23 0.00
 -13 7 8 -1.03 0.00
 -13 7 7 -6.82 0.00
 -13 7 6 0.09 0.00
 -13 7 5 2.73 0.00
 -13 7 4 -2.42 0.00
 -13 7 3 -4.48 0.00
 -13 7 2 0.60 0.00
 -13 7 1 1.40 0.00
 13 7 0 -4.73 0.00
 13 7 1 -3.44 0.00
 13 7 2 -0.07 0.00
 13 7 3 -1.80 0.00
 13 7 4 -1.33 0.00
 13 7 5 -3.30 0.00
 13 7 6 -3.94 0.00
 13 7 7 -3.94 0.00
 13 7 8 0.65 0.00
 13 7 9 -1.02 0.00
 13 7 10 -1.42 0.00
 13 7 11 -0.72 0.00
 13 7 12 -0.35 0.00
 13 7 13 -0.07 0.00
 13 7 14 1.45 0.00
 -13 9 14 1.86 0.00
 -13 9 13 -1.25 0.00
 -13 9 12 -1.77 0.00
 -13 9 11 1.49 0.00
 -13 9 10 1.16 0.00
 -13 9 9 -1.22 0.00
 -13 9 8 0.92 0.00
 -13 9 7 -2.47 0.00
 -13 9 6 -2.55 0.00
 -13 9 5 -0.59 0.00
 -13 9 4 2.17 0.00
 -13 9 3 0.39 0.00
 -13 9 2 -2.42 0.00
 -13 9 1 2.54 0.00
 13 9 0 1.51 0.00
 13 9 1 -3.47 0.00
 13 9 2 -0.28 0.00
 13 9 3 -1.34 0.00
 13 9 4 0.40 0.00
 13 9 5 -0.12 0.00
 13 9 6 -2.25 0.00
 13 9 7 -3.37 0.00
 13 9 8 -0.18 0.00
 13 9 9 0.61 0.00
 13 9 10 -0.68 0.00
 13 9 11 -0.72 0.00
 -13 11 5 0.53 0.00
 -13 11 4 -2.62 0.00
 -13 11 3 0.21 0.00
 -13 11 2 -0.79 0.00
 -13 11 1 2.18 0.00
 13 11 0 3.00 0.00
 13 11 1 -1.52 0.00
 -14 0 22 0.41 0.00
 -14 0 20 1.49 0.00
 -14 0 18 4.05 0.00
 -14 0 16 5.75 0.00
 -14 0 14 6.57 0.00
 -14 0 12 -0.08 0.00
 -14 0 10 0.57 0.00
 -14 0 8 -16.69 0.00
 -14 0 6 -11.83 0.00
 -14 0 4 -41.25 0.00
 -14 0 2 -11.97 0.00
 14 0 0 -53.50 0.00
 14 0 2 7.39 0.00
 14 0 4 -9.87 0.00
 14 0 6 1.16 0.00
 14 0 8 14.48 0.00
 14 0 10 0.10 0.00
 14 0 12 10.63 0.00
 14 0 14 -1.11 0.00
 14 0 16 4.57 0.00
 14 0 18 -2.16 0.00
 -14 2 22 1.54 0.00
 -14 2 21 0.21 0.00
 -14 2 20 1.28 0.00
 -14 2 19 1.28 0.00
 -14 2 18 3.98 0.00
 -14 2 17 -1.13 0.00
 -14 2 16 4.46 0.00
 -14 2 15 -0.11 0.00
 -14 2 14 6.57 0.00
 -14 2 13 -0.30 0.00
 -14 2 12 1.10 0.00
 -14 2 11 -5.42 0.00
 -14 2 10 -2.05 0.00
 -14 2 9 3.06 0.00
 -14 2 8 -4.24 0.00
 -14 2 7 -12.15 0.00
 -14 2 6 -25.43 0.00
 -14 2 5 8.99 0.00
 -14 2 4 -10.18 0.00
 -14 2 3 -12.23 0.00
 -14 2 2 -34.30 0.00
 -14 2 1 14.89 0.00
 14 2 0 -18.24 0.00
 14 2 1 1.62 0.00
 14 2 2 -12.67 0.00
 14 2 3 -10.82 0.00
 14 2 4 0.20 0.00
 14 2 5 -7.95 0.00
 14 2 6 0.33 0.00
 14 2 7 2.06 0.00
 14 2 8 6.18 0.00
 14 2 9 -5.42 0.00
 14 2 10 5.29 0.00
 14 2 11 2.87 0.00
 14 2 12 2.12 0.00
 14 2 13 -2.02 0.00
 14 2 14 4.55 0.00
 14 2 15 3.02 0.00
 14 2 16 -2.77 0.00
 14 2 17 0.01 0.00
 14 2 18 1.68 0.00
 -14 4 21 2.85 0.00
 -14 4 20 2.20 0.00
 -14 4 19 -0.15 0.00
 -14 4 18 3.00 0.00
 -14 4 17 0.53 0.00
 -14 4 16 2.68 0.00
 -14 4 15 0.10 0.00
 -14 4 14 2.62 0.00
 -14 4 13 -4.07 0.00
 -14 4 12 2.88 0.00
 -14 4 11 -0.16 0.00
 -14 4 10 -1.70 0.00
 -14 4 9 -8.51 0.00
 -14 4 8 1.26 0.00
 -14 4 7 1.33 0.00
 -14 4 6 -15.00 0.00
 -14 4 5 -9.73 0.00
 -14 4 4 -5.25 0.00
 -14 4 3 6.27 0.00
 -14 4 2 -13.88 0.00
 -14 4 1 -4.85 0.00
 14 4 0 -13.14 0.00
 14 4 1 -13.40 0.00
 14 4 2 -2.97 0.00
 14 4 3 -3.54 0.00
 14 4 4 -5.78 0.00
 14 4 5 -7.68 0.00
 14 4 6 1.86 0.00
 14 4 7 -4.77 0.00
 14 4 8 0.52 0.00
 14 4 9 2.05 0.00
 14 4 10 2.21 0.00
 14 4 11 -2.19 0.00
 14 4 12 0.63 0.00
 14 4 13 3.83 0.00
 14 4 14 1.82 0.00
 14 4 15 -1.91 0.00
 14 4 16 -0.78 0.00
 14 4 17 3.37 0.00
 -14 6 19 1.21 0.00
 -14 6 18 -1.09 0.00
 -14 6 17 -1.22 0.00
 -14 6 16 1.71 0.00
 -14 6 15 1.04 0.00
 -14 6 14 1.90 0.00
 -14 6 13 -3.48 0.00
 -14 6 12 -2.60 0.00
 -14 6 11 -1.97 0.00
 -14 6 10 4.78 0.00
 -14 6 9 -3.37 0.00
 -14 6 8 -4.35 0.00
 -14 6 7 -4.05 0.00
 -14 6 6 0.80 0.00
 -14 6 5 -0.23 0.00
 -14 6 4 -6.76 0.00
 -14 6 3 -2.30 0.00
 -14 6 2 -0.12 0.00
 -14 6 1 0.43 0.00
 14 6 0 -7.51 0.00
 14 6 1 -6.27 0.00
 14 6 2 -0.80 0.00
 14 6 3 -2.49 0.00
 14 6 4 -1.73 0.00
 14 6 5 -4.53 0.00
 14 6 6 -4.69 0.00
 14 6 7 -4.28 0.00
 14 6 8 3.16 0.00
 14 6 9 0.32 0.00
 14 6 10 -2.31 0.00
 14 6 11 -0.28 0.00
 14 6 12 1.26 0.00
 14 6 13 1.22 0.00
 14 6 14 1.12 0.00
 14 6 15 0.67 0.00
 -14 8 16 -0.16 0.00
 -14 8 15 0.56 0.00
 -14 8 14 1.55 0.00
 -14 8 13 -1.39 0.00
 -14 8 12 -1.16 0.00
 -14 8 11 0.35 0.00
 -14 8 10 1.22 0.00
 -14 8 9 -1.66 0.00
 -14 8 8 0.96 0.00
 -14 8 7 -4.87 0.00
 -14 8 6 -2.80 0.00
 -14 8 5 3.15 0.00
 -14 8 4 2.03 0.00
 -14 8 3 -2.40 0.00
 -14 8 2 -2.40 0.00
 -14 8 1 3.46 0.00
 14 8 0 -0.91 0.00
 14 8 1 -3.35 0.00
 14 8 2 -0.55 0.00
 14 8 3 -0.78 0.00
 14 8 4 -0.36 0.00
 14 8 5 -2.44 0.00
 14 8 6 -2.71 0.00
 14 8 7 -2.84 0.00
 14 8 8 -0.05 0.00
 14 8 9 -0.10 0.00
 14 8 10 -0.62 0.00
 14 8 11 -0.82 0.00
 14 8 12 -0.44 0.00
 -14 10 10 0.90 0.00
 -14 10 9 -2.28 0.00
 -14 10 8 -0.25 0.00
 -14 10 7 0.23 0.00
 -14 10 6 0.19 0.00
 -14 10 5 -1.93 0.00
 -14 10 4 -1.62 0.00
 -14 10 3 2.46 0.00
 -14 10 2 -0.79 0.00
 -14 10 1 2.96 0.00
 14 10 0 2.00 0.00
 14 10 1 -1.82 0.00
 14 10 2 -0.29 0.00
 14 10 3 -1.54 0.00
 14 10 4 0.49 0.00
 14 10 5 0.64 0.00
 14 10 6 -2.06 0.00
 14 10 7 -2.12 0.00
 -15 1 22 0.80 0.00
 -15 1 21 -0.18 0.00
 -15 1 20 1.73 0.00
 -15 1 19 -0.11 0.00
 -15 1 18 4.09 0.00
 -15 1 17 0.24 0.00
 -15 1 16 4.44 0.00
 -15 1 15 -0.87 0.00
 -15 1 14 5.71 0.00
 -15 1 13 0.03 0.00
 -15 1 12 -3.59 0.00
 -15 1 11 -3.22 0.00
 -15 1 10 -1.80 0.00
 -15 1 9 4.02 0.00
 -15 1 8 -16.91 0.00
 -15 1 7 -9.87 0.00
 -15 1 6 -18.91 0.00
 -15 1 5 12.17 0.00
 -15 1 4 -26.28 0.00
 -15 1 3 -12.42 0.00
 -15 1 2 -22.37 0.00
 -15 1 1 15.82 0.00
 15 1 0 -27.55 0.00
 15 1 1 4.91 0.00
 15 1 2 2.78 0.00
 15 1 3 -8.24 0.00
 15 1 4 0.75 0.00
 15 1 5 -4.05 0.00
 15 1 6 3.20 0.00
 15 1 7 3.88 0.00
 15 1 8 13.11 0.00
 15 1 9 -5.54 0.00
 15 1 10 2.08 0.00
 15 1 11 4.33 0.00
 15 1 12 7.35 0.00
 15 1 13 -3.07 0.00
 15 1 14 0.89 0.00
 15 1 15 3.64 0.00
 15 1 16 0.86 0.00
 15 1 17 -1.40 0.00
 15 1 18 -0.34 0.00
 -15 3 21 1.33 0.00
 -15 3 20 1.67 0.00
 -15 3 19 0.48 0.00
 -15 3 18 3.22 0.00
 -15 3 17 -0.91 0.00
 -15 3 16 4.12 0.00
 -15 3 15 -0.53 0.00
 -15 3 14 2.05 0.00
 -15 3 13 -1.64 0.00
 -15 3 12 2.70 0.00
 -15 3 11 -3.73 0.00
 -15 3 10 -6.88 0.00
 -15 3 9 -1.82 0.00
 -15 3 8 -0.10 0.00
 -15 3 7 -3.35 0.00
 -15 3 6 -25.84 0.00
 -15 3 5 -1.66 0.00
 -15 3 4 -2.94 0.00
 -15 3 3 4.25 0.00
 -15 3 2 -25.44 0.00
 -15 3 1 1.97 0.00
 15 3 0 -9.90 0.00
 15 3 1 -12.29 0.00
 15 3 2 -2.79 0.00
 15 3 3 -4.37 0.00
 15 3 4 -2.68 0.00
 15 3 5 -8.67 0.00
 15 3 6 6.22 0.00
 15 3 7 0.61 0.00
 15 3 8 0.86 0.00
 15 3 9 -0.70 0.00
 15 3 10 6.06 0.00
 15 3 11 0.27 0.00
 15 3 12 -0.39 0.00
 15 3 13 2.11 0.00
 15 3 14 3.71 0.00
 15 3 15 -0.80 0.00
 15 3 16 -3.00 0.00
 15 3 17 3.38 0.00
 -15 5 20 3.61 0.00
 -15 5 19 -0.29 0.00
 -15 5 18 0.10 0.00
 -15 5 17 -0.60 0.00
 -15 5 16 1.97 0.00
 -15 5 15 0.65 0.00
 -15 5 14 1.68 0.00
 -15 5 13 -5.87 0.00
 -15 5 12 -1.69 0.00
 -15 5 11 0.58 0.00
 -15 5 10 3.32 0.00
 -15 5 9 -7.52 0.00
 -15 5 8 -5.69 0.00
 -15 5 7 1.19 0.00
 -15 5 6 -4.44 0.00
 -15 5 5 -4.20 0.00
 -15 5 4 -8.14 0.00
 -15 5 3 2.00 0.00
 -15 5 2 -4.19 0.00
 -15 5 1 1.74 0.00
 15 5 0 -8.85 0.00
 15 5 1 -7.76 0.00
 15 5 2 -0.82 0.00
 15 5 3 -5.30 0.00
 15 5 4 -2.24 0.00
 15 5 5 -3.52 0.00
 15 5 6 -1.65 0.00
 15 5 7 -4.80 0.00
 15 5 8 3.37 0.00
 15 5 9 3.43 0.00
 15 5 10 -1.28 0.00
 15 5 11 -1.07 0.00
 15 5 12 2.13 0.00
 15 5 13 2.54 0.00
 15 5 14 0.62 0.00
 15 5 15 -0.35 0.00
 15 5 16 0.28 0.00
 -15 7 17 -1.61 0.00
 -15 7 16 0.44 0.00
 -15 7 15 0.36 0.00
 -15 7 14 1.64 0.00
 -15 7 13 -1.86 0.00
 -15 7 12 -1.77 0.00
 -15 7 11 -2.20 0.00
 -15 7 10 2.24 0.00
 -15 7 9 -1.04 0.00
 -15 7 8 -1.32 0.00
 -15 7 7 -5.48 0.00
 -15 7 6 -0.94 0.00
 -15 7 5 4.64 0.00
 -15 7 4 -1.98 0.00
 -15 7 3 -3.77 0.00
 -15 7 2 -1.69 0.00
 -15 7 1 3.57 0.00
 15 7 0 -3.30 0.00
 15 7 1 -4.97 0.00
 15 7 2 -0.74 0.00
 15 7 3 -0.58 0.00
 15 7 4 -0.68 0.00
 15 7 5 -4.67 0.00
 15 7 6 -3.65 0.00
 15 7 7 -1.36 0.00
 15 7 8 2.10 0.00
 15 7 9 -0.86 0.00
 15 7 10 -1.27 0.00
 15 7 11 0.44 0.00
 15 7 12 0.73 0.00
 15 7 13 0.48 0.00
 -15 9 13 -0.55 0.00
 -15 9 12 -0.16 0.00
 -15 9 11 1.66 0.00
 -15 9 10 1.02 0.00
 -15 9 9 -3.01 0.00
 -15 9 8 1.02 0.00
 -15 9 7 -0.81 0.00
 -15 9 6 -2.98 0.00
 -15 9 5 -0.44 0.00
 -15 9 4 1.85 0.00
 -15 9 3 2.23 0.00
 -15 9 2 -2.53 0.00
 -15 9 1 3.24 0.00
 15 9 0 0.40 0.00
 15 9 1 -2.17 0.00
 15 9 2 -0.04 0.00
 15 9 3 -0.16 0.00
 15 9 4 -0.15 0.00
 15 9 5 -1.41 0.00
 15 9 6 -2.24 0.00
 15 9 7 -2.14 0.00
 15 9 8 0.27 0.00
 15 9 9 1.12 0.00
 15 9 10 -0.70 0.00
 -16 0 22 0.20 0.00
 -16 0 20 1.66 0.00
 -16 0 18 4.99 0.00
 -16 0 16 2.48 0.00
 -16 0 14 4.79 0.00
 -16 0 12 -7.09 0.00
 -16 0 10 -2.54 0.00
 -16 0 8 -23.31 0.00
 -16 0 6 -13.96 0.00
 -16 0 4 -30.07 0.00
 -16 0 2 -14.70 0.00
 16 0 0 -21.57 0.00
 16 0 2 9.51 0.00
 16 0 4 5.93 0.00
 16 0 6 3.75 0.00
 16 0 8 17.02 0.00
 16 0 10 -0.39 0.00
 16 0 12 9.59 0.00
 16 0 14 -1.34 0.00
 16 0 16 1.97 0.00
 16 0 18 -1.61 0.00
 -16 2 22 1.53 0.00
 -16 2 21 0.11 0.00
 -16 2 20 2.11 0.00
 -16 2 19 -0.35 0.00
 -16 2 18 2.71 0.00
 -16 2 17 0.23 0.00
 -16 2 16 4.67 0.00
 -16 2 15 -2.08 0.00
 -16 2 14 1.94 0.00
 -16 2 13 0.86 0.00
 -16 2 12 -2.45 0.00
 -16 2 11 -5.54 0.00
 -16 2 10 -6.73 0.00
 -16 2 9 4.70 0.00
 -16 2 8 -9.19 0.00
 -16 2 7 -8.50 0.00
 -16 2 6 -26.42 0.00
 -16 2 5 8.99 0.00
 -16 2 4 -6.90 0.00
 -16 2 3 -2.56 0.00
 -16 2 2 -27.52 0.00
 -16 2 1 9.43 0.00
 16 2 0 -6.89 0.00
 16 2 1 -6.94 0.00
 16 2 2 2.27 0.00
 16 2 3 -3.40 0.00
 16 2 4 2.01 0.00
 16 2 5 -8.11 0.00
 16 2 6 8.48 0.00
 16 2 7 5.89 0.00
 16 2 8 5.10 0.00
 16 2 9 -4.91 0.00
 16 2 10 6.02 0.00
 16 2 11 4.24 0.00
 16 2 12 1.38 0.00
 16 2 13 -1.18 0.00
 16 2 14 3.37 0.00
 16 2 15 2.01 0.00
 16 2 16 -3.03 0.00
 16 2 17 1.23 0.00
 16 2 18 1.27 0.00
 -16 4 20 2.48 0.00
 -16 4 19 -0.34 0.00
 -16 4 18 1.30 0.00
 -16 4 17 -1.58 0.00
 -16 4 16 2.90 0.00
 -16 4 15 0.56 0.00
 -16 4 14 -0.15 0.00
 -16 4 13 -5.66 0.00
 -16 4 12 1.09 0.00
 -16 4 11 0.87 0.00
 -16 4 10 -3.96 0.00
 -16 4 9 -7.35 0.00
 -16 4 8 -4.02 0.00
 -16 4 7 3.51 0.00
 -16 4 6 -14.10 0.00
 -16 4 5 -4.31 0.00
 -16 4 4 -6.74 0.00
 -16 4 3 6.29 0.00
 -16 4 2 -9.48 0.00
 -16 4 1 3.62 0.00
 16 4 0 -9.53 0.00
 16 4 1 -8.85 0.00
 16 4 2 3.17 0.00
 16 4 3 -6.71 0.00
 16 4 4 -3.38 0.00
 16 4 5 -2.52 0.00
 16 4 6 4.57 0.00
 16 4 7 -2.54 0.00
 16 4 8 1.21 0.00
 16 4 9 4.04 0.00
 16 4 10 2.43 0.00
 16 4 11 -1.35 0.00
 16 4 12 1.09 0.00
 16 4 13 3.14 0.00
 16 4 14 0.89 0.00
 16 4 15 -1.26 0.00
 16 4 16 -0.44 0.00
 16 4 17 2.63 0.00
 -16 6 19 -0.01 0.00
 -16 6 18 -0.97 0.00
 -16 6 17 -1.52 0.00
 -16 6 16 0.84 0.00
 -16 6 15 0.07 0.00
 -16 6 14 1.66 0.00
 -16 6 13 -4.00 0.00
 -16 6 12 -3.23 0.00
 -16 6 11 -2.03 0.00
 -16 6 10 4.20 0.00
 -16 6 9 -2.12 0.00
 -16 6 8 -5.71 0.00
 -16 6 7 -2.84 0.00
 -16 6 6 -1.01 0.00
 -16 6 5 2.52 0.00
 -16 6 4 -5.31 0.00
 -16 6 3 -1.77 0.00
 -16 6 2 -2.91 0.00
 -16 6 1 4.51 0.00
 16 6 0 -3.17 0.00
 16 6 1 -6.07 0.00
 16 6 2 -2.28 0.00
 16 6 3 -2.16 0.00
 16 6 4 0.46 0.00
 16 6 5 -4.19 0.00
 16 6 6 -3.62 0.00
 16 6 7 -1.27 0.00
 16 6 8 4.61 0.00
 16 6 9 1.08 0.00
 16 6 10 -2.32 0.00
 16 6 11 0.89 0.00
 16 6 12 2.30 0.00
 16 6 13 0.94 0.00
 16 6 14 1.52 0.00
 16 6 15 0.16 0.00
 -16 8 15 -0.57 0.00
 -16 8 14 0.81 0.00
 -16 8 13 -0.25 0.00
 -16 8 12 0.10 0.00
 -16 8 11 -0.35 0.00
 -16 8 10 0.54 0.00
 -16 8 9 -2.49 0.00
 -16 8 8 1.16 0.00
 -16 8 7 -2.57 0.00
 -16 8 6 -3.54 0.00
 -16 8 5 3.81 0.00
 -16 8 4 1.84 0.00
 -16 8 3 -1.30 0.00
 -16 8 2 -3.54 0.00
 -16 8 1 4.09 0.00
 16 8 0 -1.31 0.00
 16 8 1 -3.20 0.00
 16 8 2 0.15 0.00
 16 8 3 0.51 0.00
 16 8 4 -0.53 0.00
 16 8 5 -3.69 0.00
 16 8 6 -2.30 0.00
 16 8 7 -0.62 0.00
 16 8 8 0.70 0.00
 16 8 9 -0.08 0.00
 16 8 10 -0.09 0.00
 16 8 11 -0.57 0.00
 16 8 12 0.35 0.00
 -16 10 10 1.00 0.00
 -16 10 9 -3.55 0.00
 -16 10 8 -0.81 0.00
 -16 10 7 1.44 0.00
 -16 10 6 -0.06 0.00
 -16 10 5 -1.88 0.00
 -16 10 4 -2.85 0.00
 -16 10 3 3.73 0.00
 -16 10 2 0.37 0.00
 -16 10 1 3.00 0.00
 16 10 0 1.41 0.00
 16 10 1 0.05 0.00
 16 10 2 -0.90 0.00
 16 10 3 -0.56 0.00
 16 10 4 0.22 0.00
 16 10 5 -0.41 0.00
 -17 1 22 0.39 0.00
 -17 1 21 -0.12 0.00
 -17 1 20 1.90 0.00
 -17 1 19 -0.98 0.00
 -17 1 18 3.77 0.00
 -17 1 17 1.37 0.00
 -17 1 16 2.25 0.00
 -17 1 15 -2.52 0.00
 -17 1 14 2.29 0.00
 -17 1 13 1.37 0.00
 -17 1 12 -7.81 0.00
 -17 1 11 -3.16 0.00
 -17 1 10 -4.97 0.00
 -17 1 9 4.39 0.00
 -17 1 8 -19.14 0.00
 -17 1 7 -6.68 0.00
 -17 1 6 -18.00 0.00
 -17 1 5 9.85 0.00
 -17 1 4 -14.76 0.00
 -17 1 3 -4.60 0.00
 -17 1 2 -18.91 0.00
 -17 1 1 8.13 0.00
 17 1 0 -3.44 0.00
 17 1 1 -3.27 0.00
 17 1 2 7.96 0.00
 17 1 3 0.19 0.00
 17 1 4 8.77 0.00
 17 1 5 -6.07 0.00
 17 1 6 6.76 0.00
 17 1 7 6.44 0.00
 17 1 8 11.81 0.00
 17 1 9 -5.03 0.00
 17 1 10 2.12 0.00
 17 1 11 4.58 0.00
 17 1 12 5.38 0.00
 17 1 13 -2.17 0.00
 17 1 14 0.35 0.00
 17 1 15 2.65 0.00
 17 1 16 -1.01 0.00
 17 1 17 -0.19 0.00
 17 1 18 -0.14 0.00
 -17 3 21 0.54 0.00
 -17 3 20 2.38 0.00
 -17 3 19 -0.43 0.00
 -17 3 18 0.79 0.00
 -17 3 17 -1.21 0.00
 -17 3 16 4.62 0.00
 -17 3 15 -0.92 0.00
 -17 3 14 -2.13 0.00
 -17 3 13 -2.12 0.00
 -17 3 12 0.28 0.00
 -17 3 11 -2.53 0.00
 -17 3 10 -9.08 0.00
 -17 3 9 -0.79 0.00
 -17 3 8 -5.13 0.00
 -17 3 7 0.50 0.00
 -17 3 6 -21.25 0.00
 -17 3 5 0.45 0.00
 -17 3 4 -3.85 0.00
 -17 3 3 7.99 0.00
 -17 3 2 -14.59 0.00
 -17 3 1 3.68 0.00
 17 3 0 -5.72 0.00
 17 3 1 -10.54 0.00
 17 3 2 8.65 0.00
 17 3 3 -3.21 0.00
 17 3 4 -2.75 0.00
 17 3 5 -3.53 0.00
 17 3 6 10.26 0.00
 17 3 7 2.30 0.00
 17 3 8 0.35 0.00
 17 3 9 0.85 0.00
 17 3 10 5.61 0.00
 17 3 11 0.82 0.00
 17 3 12 -0.37 0.00
 17 3 13 2.12 0.00
 17 3 14 1.92 0.00
 17 3 15 -0.76 0.00
 17 3 16 -1.93 0.00
 17 3 17 3.33 0.00
 -17 5 20 2.36 0.00
 -17 5 19 -0.63 0.00
 -17 5 18 -0.20 0.00
 -17 5 17 -2.04 0.00
 -17 5 16 0.97 0.00
 -17 5 15 0.27 0.00
 -17 5 14 0.46 0.00
 -17 5 13 -6.25 0.00
 -17 5 12 -2.46 0.00
 -17 5 11 0.86 0.00
 -17 5 10 1.65 0.00
 -17 5 9 -5.28 0.00
 -17 5 8 -8.22 0.00
 -17 5 7 1.78 0.00
 -17 5 6 -4.76 0.00
 -17 5 5 0.77 0.00
 -17 5 4 -6.24 0.00
 -17 5 3 0.87 0.00
 -17 5 2 -4.68 0.00
 -17 5 1 8.00 0.00
 17 5 0 -3.18 0.00
 17 5 1 -3.85 0.00
 17 5 2 -0.75 0.00
 17 5 3 -6.13 0.00
 17 5 4 0.68 0.00
 17 5 5 -0.69 0.00
 17 5 6 -0.29 0.00
 17 5 7 -1.46 0.00
 17 5 8 4.04 0.00
 17 5 9 3.80 0.00
 17 5 10 -1.24 0.00
 17 5 11 -0.17 0.00
 17 5 12 2.81 0.00
 17 5 13 1.32 0.00
 17 5 14 0.52 0.00
 17 5 15 0.05 0.00
 -17 7 17 -0.75 0.00
 -17 7 16 0.76 0.00
 -17 7 15 -0.89 0.00
 -17 7 14 1.09 0.00
 -17 7 13 -1.19 0.00
 -17 7 12 -1.22 0.00
 -17 7 11 -2.53 0.00
 -17 7 10 1.33 0.00
 -17 7 9 -0.52 0.00
 -17 7 8 -1.29 0.00
 -17 7 7 -3.12 0.00
 -17 7 6 -2.37 0.00
 -17 7 5 5.14 0.00
 -17 7 4 -1.73 0.00
 -17 7 3 -2.43 0.00
 -17 7 2 -3.11 0.00
 -17 7 1 4.74 0.00
 17 7 0 -1.60 0.00
 17 7 1 -5.12 0.00
 17 7 2 -0.96 0.00
 17 7 3 0.74 0.00
 17 7 4 0.26 0.00
 17 7 5 -4.76 0.00
 17 7 6 -2.58 0.00
 17 7 7 1.09 0.00
 17 7 8 3.05 0.00
 17 7 9 -0.68 0.00
 17 7 10 -0.73 0.00
 17 7 11 1.24 0.00
 17 7 12 1.40 0.00
 17 7 13 0.55 0.00
 -17 9 13 0.25 0.00
 -17 9 12 1.23 0.00
 -17 9 11 1.16 0.00
 -17 9 10 0.48 0.00
 -17 9 9 -4.19 0.00
 -17 9 8 0.32 0.00
 -17 9 7 1.37 0.00
 -17 9 6 -3.26 0.00
 -17 9 5 -0.25 0.00
 -17 9 4 0.99 0.00
 -17 9 3 3.28 0.00
 -17 9 2 -2.47 0.00
 -17 9 1 2.76 0.00
 17 9 0 -0.34 0.00
 17 9 1 -0.42 0.00
 17 9 2 0.74 0.00
 17 9 3 0.25 0.00
 17 9 4 -0.64 0.00
 17 9 5 -2.41 0.00
 17 9 6 -1.59 0.00
 17 9 7 -0.23 0.00
 17 9 8 0.60 0.00
 17 9 9 0.79 0.00
 -18 0 22 -0.28 0.00
 -18 0 20 1.64 0.00
 -18 0 18 4.27 0.00
 -18 0 16 -0.12 0.00
 -18 0 14 1.82 0.00
 -18 0 12 -10.07 0.00
 -18 0 10 -4.97 0.00
 -18 0 8 -21.03 0.00
 -18 0 6 -12.26 0.00
 -18 0 4 -13.41 0.00
 -18 0 2 -12.72 0.00
 18 0 0 5.93 0.00
 18 0 2 8.24 0.00
 18 0 4 14.76 0.00
 18 0 6 4.52 0.00
 18 0 8 13.86 0.00
 18 0 10 -0.04 0.00
 18 0 12 6.24 0.00
 18 0 14 -1.57 0.00
 18 0 16 -0.61 0.00
 -18 2 21 -0.10 0.00
 -18 2 20 2.47 0.00
 -18 2 19 -1.39 0.00
 -18 2 18 1.06 0.00
 -18 2 17 1.07 0.00
 -18 2 16 3.70 0.00
 -18 2 15 -3.20 0.00
 -18 2 14 -2.32 0.00
 -18 2 13 1.22 0.00
 -18 2 12 -4.48 0.00
 -18 2 11 -3.94 0.00
 -18 2 10 -8.33 0.00
 -18 2 9 4.08 0.00
 -18 2 8 -11.20 0.00
 -18 2 7 -2.95 0.00
 -18 2 6 -19.87 0.00
 -18 2 5 5.95 0.00
 -18 2 4 -2.32 0.00
 -18 2 3 4.95 0.00
 -18 2 2 -15.96 0.00
 -18 2 1 3.02 0.00
 18 2 0 3.22 0.00
 18 2 1 -10.39 0.00
 18 2 2 11.23 0.00
 18 2 3 3.10 0.00
 18 2 4 2.56 0.00
 18 2 5 -6.07 0.00
 18 2 6 11.45 0.00
 18 2 7 6.82 0.00
 18 2 8 3.03 0.00
 18 2 9 -2.94 0.00
 18 2 10 5.23 0.00
 18 2 11 3.73 0.00
 18 2 12 0.21 0.00
 18 2 13 -0.13 0.00
 18 2 14 1.88 0.00
 18 2 15 1.14 0.00
 18 2 16 -2.83 0.00
 18 2 17 2.21 0.00
 -18 4 20 1.93 0.00
 -18 4 19 -0.44 0.00
 -18 4 18 -0.34 0.00
 -18 4 17 -2.80 0.00
 -18 4 16 2.44 0.00
 -18 4 15 0.36 0.00
 -18 4 14 -2.34 0.00
 -18 4 13 -5.60 0.00
 -18 4 12 -0.74 0.00
 -18 4 11 1.14 0.00
 -18 4 10 -5.05 0.00
 -18 4 9 -4.56 0.00
 -18 4 8 -7.59 0.00
 -18 4 7 4.24 0.00
 -18 4 6 -9.77 0.00
 -18 4 5 0.81 0.00
 -18 4 4 -6.26 0.00
 -18 4 3 4.45 0.00
 -18 4 2 -3.86 0.00
 -18 4 1 8.83 0.00
 18 4 0 -4.55 0.00
 18 4 1 -2.86 0.00
 18 4 2 6.69 0.00
 18 4 3 -6.93 0.00
 18 4 4 -1.56 0.00
 18 4 5 2.07 0.00
 18 4 6 5.45 0.00
 18 4 7 -0.01 0.00
 18 4 8 1.71 0.00
 18 4 9 3.86 0.00
 18 4 10 1.51 0.00
 18 4 11 -0.68 0.00
 18 4 12 1.65 0.00
 18 4 13 1.98 0.00
 18 4 14 -0.22 0.00
 18 4 15 -0.31 0.00
 18 4 16 -0.04 0.00
 -18 6 18 -0.63 0.00
 -18 6 17 -1.23 0.00
 -18 6 16 0.25 0.00
 -18 6 15 -1.09 0.00
 -18 6 14 0.76 0.00
 -18 6 13 -3.37 0.00
 -18 6 12 -2.68 0.00
 -18 6 11 -1.69 0.00
 -18 6 10 2.35 0.00
 -18 6 9 -0.59 0.00
 -18 6 8 -5.97 0.00
 -18 6 7 -1.23 0.00
 -18 6 6 -2.50 0.00
 -18 6 5 4.07 0.00
 -18 6 4 -3.21 0.00
 -18 6 3 -0.70 0.00
 -18 6 2 -4.26 0.00
 -18 6 1 6.59 0.00
 18 6 0 0.65 0.00
 18 6 1 -4.33 0.00
 18 6 2 -2.92 0.00
 18 6 3 -1.41 0.00
 18 6 4 2.38 0.00
 18 6 5 -2.58 0.00
 18 6 6 -1.87 0.00
 18 6 7 1.41 0.00
 18 6 8 4.58 0.00
 18 6 9 0.97 0.00
 18 6 10 -1.60 0.00
 18 6 11 1.58 0.00
 18 6 12 2.64 0.00
 18 6 13 0.03 0.00
 18 6 14 1.24 0.00
 -18 8 15 -1.21 0.00
 -18 8 14 -0.14 0.00
 -18 8 13 0.61 0.00
 -18 8 12 1.12 0.00
 -18 8 11 -0.93 0.00
 -18 8 10 -0.46 0.00
 -18 8 9 -2.67 0.00
 -18 8 8 0.81 0.00
 -18 8 7 0.25 0.00
 -18 8 6 -4.20 0.00
 -18 8 5 3.47 0.00
 -18 8 4 0.85 0.00
 -18 8 3 -0.38 0.00
 -18 8 2 -3.73 0.00
 -18 8 1 3.84 0.00
 18 8 0 -1.13 0.00
 18 8 1 -2.39 0.00
 18 8 2 1.26 0.00
 18 8 3 1.33 0.00
 18 8 4 -0.80 0.00
 18 8 5 -4.01 0.00
 18 8 6 -1.23 0.00
 18 8 7 1.45 0.00
 18 8 8 1.40 0.00
 18 8 9 -0.32 0.00
 18 8 10 0.21 0.00
 18 8 11 -0.21 0.00
 -18 10 9 -3.78 0.00
 -18 10 8 -1.92 0.00
 -18 10 7 2.35 0.00
 -18 10 6 -0.53 0.00
 -18 10 5 -1.42 0.00
 -18 10 4 -3.03 0.00
 -18 10 3 4.11 0.00
 -18 10 2 1.14 0.00
 -18 10 1 1.84 0.00
 18 10 0 0.80 0.00
 18 10 1 1.47 0.00
 18 10 2 -0.86 0.00
 18 10 3 -0.15 0.00
 18 10 4 0.04 0.00
 -19 1 21 -0.03 0.00
 -19 1 20 1.89 0.00
 -19 1 19 -1.32 0.00
 -19 1 18 2.47 0.00
 -19 1 17 1.57 0.00
 -19 1 16 0.29 0.00
 -19 1 15 -2.98 0.00
 -19 1 14 -1.14 0.00
 -19 1 13 1.81 0.00
 -19 1 12 -8.59 0.00
 -19 1 11 -2.07 0.00
 -19 1 10 -6.34 0.00
 -19 1 9 2.88 0.00
 -19 1 8 -15.56 0.00
 -19 1 7 -2.05 0.00
 -19 1 6 -12.68 0.00
 -19 1 5 5.26 0.00
 -19 1 4 -2.40 0.00
 -19 1 3 1.56 0.00
 -19 1 2 -11.78 0.00
 -19 1 1 1.15 0.00
 19 1 0 13.74 0.00
 19 1 1 -7.15 0.00
 19 1 2 8.92 0.00
 19 1 3 5.73 0.00
 19 1 4 11.67 0.00
 19 1 5 -5.72 0.00
 19 1 6 7.13 0.00
 19 1 7 6.33 0.00
 19 1 8 7.55 0.00
 19 1 9 -3.22 0.00
 19 1 10 2.11 0.00
 19 1 11 3.62 0.00
 19 1 12 2.24 0.00
 19 1 13 -1.17 0.00
 19 1 14 -0.37 0.00
 19 1 15 1.84 0.00
 19 1 16 -2.40 0.00
 19 1 17 0.71 0.00
 -19 3 20 2.27 0.00
 -19 3 19 -0.88 0.00
 -19 3 18 -1.14 0.00
 -19 3 17 -1.20 0.00
 -19 3 16 3.72 0.00
 -19 3 15 -1.44 0.00
 -19 3 14 -4.90 0.00
 -19 3 13 -2.18 0.00
 -19 3 12 -1.75 0.00
 -19 3 11 -0.99 0.00
 -19 3 10 -8.53 0.00
 -19 3 9 0.13 0.00
 -19 3 8 -8.21 0.00
 -19 3 7 3.26 0.00
 -19 3 6 -12.05 0.00
 -19 3 5 1.44 0.00
 -19 3 4 -3.53 0.00
 -19 3 3 8.58 0.00
 -19 3 2 -3.42 0.00
 -19 3 1 3.59 0.00
 19 3 0 -1.03 0.00
 19 3 1 -6.13 0.00
 19 3 2 13.65 0.00
 19 3 3 -1.02 0.00
 19 3 4 -2.47 0.00
 19 3 5 0.73 0.00
 19 3 6 10.24 0.00
 19 3 7 2.83 0.00
 19 3 8 0.21 0.00
 19 3 9 1.78 0.00
 19 3 10 3.58 0.00
 19 3 11 0.43 0.00
 19 3 12 -0.20 0.00
 19 3 13 2.12 0.00
 19 3 14 0.32 0.00
 19 3 15 -0.37 0.00
 19 3 16 -0.92 0.00
 -19 5 19 -0.88 0.00
 -19 5 18 -0.35 0.00
 -19 5 17 -2.49 0.00
 -19 5 16 0.09 0.00
 -19 5 15 -0.55 0.00
 -19 5 14 -0.77 0.00
 -19 5 13 -4.94 0.00
 -19 5 12 -2.55 0.00
 -19 5 11 0.65 0.00
 -19 5 10 -0.47 0.00
 -19 5 9 -2.33 0.00
 -19 5 8 -8.60 0.00
 -19 5 7 2.08 0.00
 -19 5 6 -3.84 0.00
 -19 5 5 4.27 0.00
 -19 5 4 -3.32 0.00
 -19 5 3 -0.11 0.00
 -19 5 2 -3.92 0.00
 -19 5 1 10.47 0.00
 19 5 0 1.52 0.00
 19 5 1 0.16 0.00
 19 5 2 -0.41 0.00
 19 5 3 -5.17 0.00
 19 5 4 2.48 0.00
 19 5 5 1.98 0.00
 19 5 6 0.93 0.00
 19 5 7 1.37 0.00
 19 5 8 3.63 0.00
 19 5 9 2.31 0.00
 19 5 10 -1.03 0.00
 19 5 11 0.61 0.00
 19 5 12 3.02 0.00
 19 5 13 -0.09 0.00
 19 5 14 -0.06 0.00
 -19 7 16 1.18 0.00
 -19 7 15 -1.83 0.00
 -19 7 14 0.05 0.00
 -19 7 13 -0.34 0.00
 -19 7 12 -0.33 0.00
 -19 7 11 -2.24 0.00
 -19 7 10 -0.10 0.00
 -19 7 9 0.12 0.00
 -19 7 8 -1.46 0.00
 -19 7 7 -0.48 0.00
 -19 7 6 -3.47 0.00
 -19 7 5 4.40 0.00
 -19 7 4 -1.58 0.00
 -19 7 3 -0.71 0.00
 -19 7 2 -3.18 0.00
 -19 7 1 4.72 0.00
 19 7 0 -0.03 0.00
 19 7 1 -3.98 0.00
 19 7 2 -0.57 0.00
 19 7 3 1.74 0.00
 19 7 4 1.01 0.00
 19 7 5 -3.87 0.00
 19 7 6 -0.85 0.00
 19 7 7 2.81 0.00
 19 7 8 3.01 0.00
 19 7 9 -0.53 0.00
 19 7 10 -0.19 0.00
 19 7 11 1.42 0.00
 19 7 12 1.55 0.00
 -19 9 12 1.96 0.00
 -19 9 11 0.33 0.00
 -19 9 10 -0.39 0.00
 -19 9 9 -4.18 0.00
 -19 9 8 -0.95 0.00
 -19 9 7 3.24 0.00
 -19 9 6 -3.31 0.00
 -19 9 5 -0.12 0.00
 -19 9 4 0.14 0.00
 -19 9 3 3.12 0.00
 -19 9 2 -1.96 0.00
 -19 9 1 1.69 0.00
 19 9 0 -0.45 0.00
 19 9 1 0.81 0.00
 19 9 2 1.75 0.00
 19 9 3 0.09 0.00
 19 9 4 -1.20 0.00
 19 9 5 -2.54 0.00
 19 9 6 -0.56 0.00
 19 9 7 1.42 0.00
 -20 0 20 1.52 0.00
 -20 0 18 2.53 0.00
 -20 0 16 -1.53 0.00
 -20 0 14 -1.34 0.00
 -20 0 12 -9.19 0.00
 -20 0 10 -5.87 0.00
 -20 0 8 -13.62 0.00
 -20 0 6 -7.86 0.00
 -20 0 4 1.40 0.00
 -20 0 2 -7.68 0.00
 20 0 0 21.96 0.00
 20 0 2 5.15 0.00
 20 0 4 16.48 0.00
 20 0 6 3.53 0.00
 20 0 8 7.94 0.00
 20 0 10 0.39 0.00
 20 0 12 2.10 0.00
 20 0 14 -2.10 0.00
 20 0 16 -2.24 0.00
 -20 2 21 -0.42 0.00
 -20 2 20 2.35 0.00
 -20 2 19 -1.65 0.00
 -20 2 18 -0.45 0.00
 -20 2 17 1.10 0.00
 -20 2 16 1.85 0.00
 -20 2 15 -3.35 0.00
 -20 2 14 -4.93 0.00
 -20 2 13 0.97 0.00
 -20 2 12 -4.75 0.00
 -20 2 11 -1.61 0.00
 -20 2 10 -7.60 0.00
 -20 2 9 2.27 0.00
 -20 2 8 -10.14 0.00
 -20 2 7 2.02 0.00
 -20 2 6 -9.80 0.00
 -20 2 5 1.78 0.00
 -20 2 4 1.71 0.00
 -20 2 3 8.52 0.00
 -20 2 2 -4.52 0.00
 -20 2 1 -1.97 0.00
 20 2 0 9.64 0.00
 20 2 1 -9.09 0.00
 20 2 2 13.46 0.00
 20 2 3 6.62 0.00
 20 2 4 2.20 0.00
 20 2 5 -3.25 0.00
 20 2 6 10.15 0.00
 20 2 7 5.54 0.00
 20 2 8 0.76 0.00
 20 2 9 -0.57 0.00
 20 2 10 3.67 0.00
 20 2 11 2.17 0.00
 20 2 12 -1.22 0.00
 20 2 13 0.82 0.00
 20 2 14 0.61 0.00
 20 2 15 0.79 0.00
 20 2 16 -2.52 0.00
 -20 4 20 0.77 0.00
 -20 4 19 -0.50 0.00
 -20 4 18 -1.28 0.00
 -20 4 17 -2.92 0.00
 -20 4 16 1.39 0.00
 -20 4 15 -0.40 0.00
 -20 4 14 -3.67 0.00
 -20 4 13 -4.24 0.00
 -20 4 12 -2.15 0.00
 -20 4 11 1.05 0.00
 -20 4 10 -4.93 0.00
 -20 4 9 -1.34 0.00
 -20 4 8 -8.58 0.00
 -20 4 7 3.96 0.00
 -20 4 6 -3.99 0.00
 -20 4 5 4.13 0.00
 -20 4 4 -4.41 0.00
 -20 4 3 2.01 0.00
 -20 4 2 1.10 0.00
 -20 4 1 9.84 0.00
 20 4 0 0.06 0.00
 20 4 1 2.09 0.00
 20 4 2 7.18 0.00
 20 4 3 -4.91 0.00
 20 4 4 -0.19 0.00
 20 4 5 4.73 0.00
 20 4 6 4.83 0.00
 20 4 7 1.57 0.00
 20 4 8 1.92 0.00
 20 4 9 2.35 0.00
 20 4 10 0.00 0.00
 20 4 11 -0.22 0.00
 20 4 12 2.11 0.00
 20 4 13 1.07 0.00
 20 4 14 -1.17 0.00
 20 4 15 0.46 0.00
 -20 6 18 -0.25 0.00
 -20 6 17 -0.59 0.00
 -20 6 16 -0.07 0.00
 -20 6 15 -2.08 0.00
 -20 6 14 -0.29 0.00
 -20 6 13 -1.85 0.00
 -20 6 12 -1.70 0.00
 -20 6 11 -1.19 0.00
 -20 6 10 -0.02 0.00
 -20 6 9 0.80 0.00
 -20 6 8 -5.28 0.00
 -20 6 7 0.64 0.00
 -20 6 6 -3.05 0.00
 -20 6 5 4.22 0.00
 -20 6 4 -1.03 0.00
 -20 6 3 0.60 0.00
 -20 6 2 -4.08 0.00
 -20 6 1 6.43 0.00
 20 6 0 3.05 0.00
 20 6 1 -1.83 0.00
 20 6 2 -2.28 0.00
 20 6 3 -0.43 0.00
 20 6 4 3.38 0.00
 20 6 5 -0.75 0.00
 20 6 6 0.00 0.00
 20 6 7 3.17 0.00
 20 6 8 3.31 0.00
 20 6 9 0.09 0.00
 20 6 10 -0.59 0.00
 20 6 11 1.64 0.00
 20 6 12 2.29 0.00
 20 6 13 -0.87 0.00
 -20 8 14 -1.17 0.00
 -20 8 13 1.01 0.00
 -20 8 12 1.74 0.00
 -20 8 11 -1.19 0.00
 -20 8 10 -1.58 0.00
 -20 8 9 -2.09 0.00
 -20 8 8 -0.25 0.00
 -20 8 7 2.58 0.00
 -20 8 6 -4.32 0.00
 -20 8 5 2.43 0.00
 -20 8 4 -0.27 0.00
 -20 8 3 0.27 0.00
 -20 8 2 -2.67 0.00
 -20 8 1 2.96 0.00
 20 8 0 -0.53 0.00
 20 8 1 -1.37 0.00
 20 8 2 2.25 0.00
 20 8 3 1.62 0.00
 20 8 4 -1.16 0.00
 20 8 5 -3.26 0.00
 20 8 6 0.33 0.00
 20 8 7 2.58 0.00
 20 8 8 1.44 0.00
 20 8 9 -0.53 0.00
 -20 10 7 2.73 0.00
 -20 10 6 -0.86 0.00
 -20 10 5 -0.87 0.00
 -20 10 4 -2.11 0.00
 -20 10 3 3.48 0.00
 -20 10 2 1.32 0.00
 -20 10 1 0.33 0.00
 20 10 0 0.39 0.00
 20 10 1 1.93 0.00
 20 10 2 -0.15 0.00
 -21 1 21 -0.03 0.00
 -21 1 20 1.74 0.00
 -21 1 19 -1.25 0.00
 -21 1 18 0.78 0.00
 -21 1 17 1.10 0.00
 -21 1 16 -1.11 0.00
 -21 1 15 -2.40 0.00
 -21 1 14 -3.60 0.00
 -21 1 13 1.46 0.00
 -21 1 12 -6.67 0.00
 -21 1 11 -0.72 0.00
 -21 1 10 -6.08 0.00
 -21 1 9 0.98 0.00
 -21 1 8 -9.14 0.00
 -21 1 7 1.65 0.00
 -21 1 6 -5.52 0.00
 -21 1 5 0.68 0.00
 -21 1 4 6.42 0.00
 -21 1 3 4.67 0.00
 -21 1 2 -3.97 0.00
 -21 1 1 -3.21 0.00
 21 1 0 21.09 0.00
 21 1 1 -6.96 0.00
 21 1 2 6.92 0.00
 21 1 3 7.60 0.00
 21 1 4 10.32 0.00
 21 1 5 -4.06 0.00
 21 1 6 5.09 0.00
 21 1 7 4.68 0.00
 21 1 8 2.66 0.00
 21 1 9 -1.25 0.00
 21 1 10 1.70 0.00
 21 1 11 2.33 0.00
 21 1 12 -1.00 0.00
 21 1 13 -0.51 0.00
 21 1 14 -1.19 0.00
 21 1 15 1.49 0.00
 21 1 16 -2.93 0.00
 -21 3 20 1.48 0.00
 -21 3 19 -0.83 0.00
 -21 3 18 -2.11 0.00
 -21 3 17 -1.09 0.00
 -21 3 16 1.79 0.00
 -21 3 15 -1.87 0.00
 -21 3 14 -5.84 0.00
 -21 3 13 -1.65 0.00
 -21 3 12 -2.86 0.00
 -21 3 11 0.51 0.00
 -21 3 10 -6.32 0.00
 -21 3 9 0.70 0.00
 -21 3 8 -8.48 0.00
 -21 3 7 4.51 0.00
 -21 3 6 -2.26 0.00
 -21 3 5 1.34 0.00
 -21 3 4 -2.37 0.00
 -21 3 3 6.83 0.00
 -21 3 2 4.74 0.00
 -21 3 1 2.16 0.00
 21 3 0 2.89 0.00
 21 3 1 -1.34 0.00
 21 3 2 12.58 0.00
 21 3 3 0.81 0.00
 21 3 4 -1.59 0.00
 21 3 5 3.18 0.00
 21 3 6 7.57 0.00
 21 3 7 2.22 0.00
 21 3 8 0.06 0.00
 21 3 9 2.16 0.00
 21 3 10 1.21 0.00
 21 3 11 -0.41 0.00
 21 3 12 -0.15 0.00
 21 3 13 2.26 0.00
 21 3 14 -0.66 0.00
 21 3 15 0.06 0.00
 -21 5 19 -1.06 0.00
 -21 5 18 -0.29 0.00
 -21 5 17 -1.99 0.00
 -21 5 16 -0.66 0.00
 -21 5 15 -1.39 0.00
 -21 5 14 -1.66 0.00
 -21 5 13 -2.73 0.00
 -21 5 12 -2.32 0.00
 -21 5 11 0.39 0.00
 -21 5 10 -2.17 0.00
 -21 5 9 0.55 0.00
 -21 5 8 -6.99 0.00
 -21 5 7 2.35 0.00
 -21 5 6 -2.08 0.00
 -21 5 5 5.59 0.00
 -21 5 4 -0.39 0.00
 -21 5 3 -0.68 0.00
 -21 5 2 -2.34 0.00
 -21 5 1 9.31 0.00
 21 5 0 4.20 0.00
 21 5 1 2.91 0.00
 21 5 2 0.29 0.00
 21 5 3 -2.90 0.00
 21 5 4 3.07 0.00
 21 5 5 3.32 0.00
 21 5 6 1.56 0.00
 21 5 7 2.84 0.00
 21 5 8 2.63 0.00
 21 5 9 0.05 0.00
 21 5 10 -0.87 0.00
 21 5 11 1.10 0.00
 21 5 12 2.67 0.00
 21 5 13 -1.01 0.00
 21 5 14 -0.78 0.00
 -21 7 16 1.33 0.00
 -21 7 15 -2.26 0.00
 -21 7 14 -1.07 0.00
 -21 7 13 0.68 0.00
 -21 7 12 0.45 0.00
 -21 7 11 -1.67 0.00
 -21 7 10 -1.67 0.00
 -21 7 9 0.75 0.00
 -21 7 8 -1.82 0.00
 -21 7 7 1.91 0.00
 -21 7 6 -3.61 0.00
 -21 7 5 2.80 0.00
 -21 7 4 -1.25 0.00
 -21 7 3 0.99 0.00
 -21 7 2 -2.08 0.00
 -21 7 1 3.52 0.00
 21 7 0 1.12 0.00
 21 7 1 -2.12 0.00
 21 7 2 0.27 0.00
 21 7 3 2.14 0.00
 21 7 4 1.21 0.00
 21 7 5 -2.38 0.00
 21 7 6 1.12 0.00
 21 7 7 3.48 0.00
 21 7 8 1.75 0.00
 21 7 9 -0.52 0.00
 21 7 10 0.22 0.00
 21 7 11 1.07 0.00
 -21 9 11 -0.25 0.00
 -21 9 10 -1.39 0.00
 -21 9 9 -3.04 0.00
 -21 9 8 -2.27 0.00
 -21 9 7 4.06 0.00
 -21 9 6 -2.84 0.00
 -21 9 5 -0.10 0.00
 -21 9 4 -0.28 0.00
 -21 9 3 2.10 0.00
 -21 9 2 -1.00 0.00
 -21 9 1 0.73 0.00
 21 9 0 -0.15 0.00
 21 9 1 1.25 0.00
 21 9 2 2.53 0.00
 21 9 3 -0.24 0.00
 21 9 4 -1.76 0.00
 21 9 5 -1.75 0.00
 -22 0 20 1.37 0.00
 -22 0 18 0.67 0.00
 -22 0 16 -2.09 0.00
 -22 0 14 -3.67 0.00
 -22 0 12 -5.87 0.00
 -22 0 8 -5.42 0.00
 -22 0 6 -2.25 0.00
 -22 0 4 10.08 0.00
 -22 0 2 -1.87 0.00
 22 0 0 25.66 0.00
 22 0 2 1.86 0.00
 22 0 4 13.05 0.00
 22 0 6 1.30 0.00
 22 0 8 2.15 0.00
 22 0 10 0.12 0.00
 22 0 12 -1.38 0.00
 22 0 14 -2.85 0.00
 -22 2 21 -0.72 0.00
 -22 2 20 1.80 0.00
 -22 2 19 -1.30 0.00
 -22 2 18 -1.54 0.00
 -22 2 17 0.59 0.00
 -22 2 16 -0.14 0.00
 -22 2 15 -2.65 0.00
 -22 2 14 -5.58 0.00
 -22 2 13 0.53 0.00
 -22 2 12 -3.75 0.00
 -22 2 11 0.53 0.00
 -22 2 10 -5.59 0.00
 -22 2 9 0.44 0.00
 -22 2 8 -6.80 0.00
 -22 2 7 4.71 0.00
 -22 2 6 -0.30 0.00
 -22 2 5 -1.68 0.00
 -22 2 4 4.06 0.00
 -22 2 3 8.34 0.00
 -22 2 2 3.75 0.00
 -22 2 1 -4.54 0.00
 22 2 0 11.75 0.00
 22 2 1 -5.10 0.00
 22 2 2 10.65 0.00
 22 2 3 6.70 0.00
 22 2 4 1.35 0.00
 22 2 5 -0.67 0.00
 22 2 6 6.48 0.00
 22 2 7 3.35 0.00
 22 2 8 -1.19 0.00
 22 2 9 1.13 0.00
 22 2 10 1.97 0.00
 22 2 11 0.60 0.00
 22 2 12 -2.65 0.00
 22 2 13 1.35 0.00
 22 2 14 -0.17 0.00
 22 2 15 0.85 0.00
 -22 4 19 -0.50 0.00
 -22 4 18 -1.36 0.00
 -22 4 17 -2.26 0.00
 -22 4 16 -0.10 0.00
 -22 4 15 -1.16 0.00
 -22 4 14 -3.95 0.00
 -22 4 13 -2.17 0.00
 -22 4 12 -2.73 0.00
 -22 4 11 1.04 0.00
 -22 4 10 -3.86 0.00
 -22 4 9 1.38 0.00
 -22 4 8 -7.11 0.00
 -22 4 7 3.19 0.00
 -22 4 6 1.28 0.00
 -22 4 5 5.04 0.00
 -22 4 4 -2.05 0.00
 -22 4 3 -0.09 0.00
 -22 4 2 4.30 0.00
 -22 4 1 7.45 0.00
 22 4 0 3.23 0.00
 22 4 1 4.58 0.00
 22 4 2 5.37 0.00
 22 4 3 -1.95 0.00
 22 4 4 0.96 0.00
 22 4 5 5.07 0.00
 22 4 6 3.14 0.00
 22 4 7 1.74 0.00
 22 4 8 1.71 0.00
 22 4 9 0.77 0.00
 22 4 10 -1.36 0.00
 22 4 11 -0.07 0.00
 22 4 12 2.17 0.00
 22 4 13 0.68 0.00
 22 4 14 -1.67 0.00
 -22 6 17 0.09 0.00
 -22 6 16 -0.32 0.00
 -22 6 15 -2.56 0.00
 -22 6 14 -1.07 0.00
 -22 6 13 0.06 0.00
 -22 6 12 -1.00 0.00
 -22 6 11 -0.64 0.00
 -22 6 10 -1.98 0.00
 -22 6 9 1.95 0.00
 -22 6 8 -3.77 0.00
 -22 6 7 2.40 0.00
 -22 6 6 -2.58 0.00
 -22 6 5 3.13 0.00
 -22 6 4 0.82 0.00
 -22 6 3 1.59 0.00
 -22 6 2 -2.84 0.00
 -22 6 1 4.46 0.00
 22 6 0 3.95 0.00
 22 6 1 0.47 0.00
 22 6 2 -0.70 0.00
 22 6 3 0.53 0.00
 22 6 4 3.12 0.00
 22 6 5 0.48 0.00
 22 6 6 1.48 0.00
 22 6 7 3.79 0.00
 22 6 8 1.35 0.00
 22 6 9 -1.17 0.00
 22 6 10 0.23 0.00
 22 6 11 1.26 0.00
 22 6 12 1.53 0.00
 -22 8 13 1.05 0.00
 -22 8 12 1.93 0.00
 -22 8 11 -1.04 0.00
 -22 8 10 -2.70 0.00
 -22 8 9 -0.99 0.00
 -22 8 8 -1.56 0.00
 -22 8 7 3.86 0.00
 -22 8 6 -3.42 0.00
 -22 8 5 1.05 0.00
 -22 8 4 -0.93 0.00
 -22 8 3 0.75 0.00
 -22 8 2 -0.83 0.00
 -22 8 1 1.72 0.00
 22 8 0 0.07 0.00
 22 8 1 -0.42 0.00
 22 8 2 2.79 0.00
 22 8 3 1.49 0.00
 22 8 4 -1.46 0.00
 22 8 5 -1.72 0.00
 22 8 6 1.81 0.00
 22 8 7 2.47 0.00
 22 8 8 0.62 0.00
 -22 10 3 2.27 0.00
 -22 10 2 1.06 0.00
 -23 1 21 -0.18 0.00
 -23 1 20 1.43 0.00
 -23 1 19 -0.90 0.00
 -23 1 18 -0.70 0.00
 -23 1 17 0.53 0.00
 -23 1 16 -1.91 0.00
 -23 1 15 -1.38 0.00
 -23 1 14 -4.61 0.00
 -23 1 13 0.75 0.00
 -23 1 12 -3.52 0.00
 -23 1 11 0.42 0.00
 -23 1 10 -4.77 0.00
 -23 1 9 -0.41 0.00
 -23 1 8 -2.71 0.00
 -23 1 7 3.15 0.00
 -23 1 6 1.15 0.00
 -23 1 5 -2.18 0.00
 -23 1 4 10.02 0.00
 -23 1 3 4.92 0.00
 -23 1 2 2.27 0.00
 -23 1 1 -4.70 0.00
 23 1 0 19.86 0.00
 23 1 1 -4.37 0.00
 23 1 2 3.69 0.00
 23 1 3 6.45 0.00
 23 1 4 6.47 0.00
 23 1 5 -2.08 0.00
 23 1 6 1.93 0.00
 23 1 7 2.71 0.00
 23 1 8 -1.14 0.00
 23 1 9 -0.02 0.00
 23 1 10 0.64 0.00
 23 1 11 1.36 0.00
 23 1 12 -3.36 0.00
 23 1 13 -0.36 0.00
 23 1 14 -1.87 0.00
 23 1 15 1.43 0.00
 -23 3 20 0.40 0.00
 -23 3 19 -0.46 0.00
 -23 3 18 -2.20 0.00
 -23 3 17 -0.99 0.00
 -23 3 16 -0.38 0.00
 -23 3 15 -1.73 0.00
 -23 3 14 -5.15 0.00
 -23 3 13 -0.66 0.00
 -23 3 12 -2.91 0.00
 -23 3 11 1.63 0.00
 -23 3 10 -3.55 0.00
 -23 3 9 0.98 0.00
 -23 3 8 -6.23 0.00
 -23 3 7 4.35 0.00
 -23 3 6 4.99 0.00
 -23 3 5 0.52 0.00
 -23 3 4 -0.84 0.00
 -23 3 3 4.02 0.00
 -23 3 2 8.70 0.00
 -23 3 1 0.25 0.00
 23 3 0 5.24 0.00
 23 3 1 2.12 0.00
 23 3 2 7.79 0.00
 23 3 3 1.51 0.00
 23 3 4 -0.28 0.00
 23 3 5 3.88 0.00
 23 3 6 3.83 0.00
 23 3 7 0.92 0.00
 23 3 8 -0.43 0.00
 23 3 9 2.13 0.00
 23 3 10 -0.46 0.00
 23 3 11 -1.19 0.00
 23 3 12 -0.44 0.00
 23 3 13 2.33 0.00
 23 3 14 -0.96 0.00
 -23 5 18 -0.05 0.00
 -23 5 17 -0.97 0.00
 -23 5 16 -1.38 0.00
 -23 5 15 -1.84 0.00
 -23 5 14 -1.89 0.00
 -23 5 13 -0.39 0.00
 -23 5 12 -1.99 0.00
 -23 5 11 0.50 0.00
 -23 5 10 -2.81 0.00
 -23 5 9 2.75 0.00
 -23 5 8 -4.07 0.00
 -23 5 7 2.44 0.00
 -23 5 6 -0.10 0.00
 -23 5 5 4.81 0.00
 -23 5 4 1.78 0.00
 -23 5 3 -0.91 0.00
 -23 5 2 -0.52 0.00
 -23 5 1 5.80 0.00
 23 5 0 4.91 0.00
 23 5 1 3.81 0.00
 23 5 2 1.04 0.00
 23 5 3 -0.26 0.00
 23 5 4 2.72 0.00
 23 5 5 2.92 0.00
 23 5 6 1.40 0.00
 23 5 7 2.90 0.00
 23 5 8 1.47 0.00
 23 5 9 -1.75 0.00
 23 5 10 -0.89 0.00
 23 5 11 1.18 0.00
 23 5 12 1.96 0.00
 -23 7 15 -2.10 0.00
 -23 7 14 -1.83 0.00
 -23 7 13 1.70 0.00
 -23 7 12 0.83 0.00
 -23 7 11 -1.12 0.00
 -23 7 10 -2.93 0.00
 -23 7 9 1.39 0.00
 -23 7 8 -1.95 0.00
 -23 7 7 3.61 0.00
 -23 7 6 -2.63 0.00
 -23 7 5 0.75 0.00
 -23 7 4 -0.60 0.00
 -23 7 3 2.21 0.00
 -23 7 2 -0.55 0.00
 -23 7 1 1.52 0.00
 23 7 0 1.69 0.00
 23 7 1 -0.34 0.00
 23 7 2 1.26 0.00
 23 7 3 1.99 0.00
 23 7 4 0.74 0.00
 23 7 5 -0.74 0.00
 23 7 6 2.65 0.00
 23 7 7 3.07 0.00
 23 7 8 -0.30 0.00
 23 7 9 -0.64 0.00
 23 7 10 0.58 0.00
 -23 9 9 -1.40 0.00
 -23 9 8 -3.01 0.00
 -23 9 7 3.61 0.00
 -23 9 6 -1.72 0.00
 -23 9 5 -0.09 0.00
 -23 9 4 -0.23 0.00
 -23 9 3 0.98 0.00
 -23 9 2 0.12 0.00
 -23 9 1 0.15 0.00
 23 9 0 0.16 0.00
 23 9 1 1.23 0.00
 23 9 2 2.69 0.00
 23 9 3 -0.47 0.00
 23 9 4 -2.10 0.00
 -24 0 20 1.20 0.00
 -24 0 18 -0.76 0.00
 -24 0 16 -2.26 0.00
 -24 0 14 -4.50 0.00
 -24 0 12 -2.00 0.00
 -24 0 10 -4.01 0.00
 -24 0 8 0.87 0.00
 -24 0 6 3.01 0.00
 -24 0 4 11.95 0.00
 -24 0 2 2.85 0.00
 24 0 0 20.56 0.00
 24 0 2 -0.66 0.00
 24 0 4 7.18 0.00
 24 0 6 -1.28 0.00
 24 0 8 -1.71 0.00
 24 0 10 -1.09 0.00
 24 0 12 -3.32 0.00
 24 0 14 -3.40 0.00
 -24 2 20 0.95 0.00
 -24 2 19 -0.63 0.00
 -24 2 18 -2.09 0.00
 -24 2 17 0.01 0.00
 -24 2 16 -1.56 0.00
 -24 2 15 -1.39 0.00
 -24 2 14 -4.77 0.00
 -24 2 13 0.19 0.00
 -24 2 12 -2.17 0.00
 -24 2 11 1.93 0.00
 -24 2 10 -3.14 0.00
 -24 2 9 -0.74 0.00
 -24 2 8 -2.56 0.00
 -24 2 7 4.84 0.00
 -24 2 6 6.00 0.00
 -24 2 5 -3.35 0.00
 -24 2 4 4.67 0.00
 -24 2 3 5.77 0.00
 -24 2 2 7.90 0.00
 -24 2 1 -4.81 0.00
 24 2 0 10.25 0.00
 24 2 1 -0.78 0.00
 24 2 2 5.61 0.00
 24 2 3 4.38 0.00
 24 2 4 0.34 0.00
 24 2 5 1.13 0.00
 24 2 6 2.35 0.00
 24 2 7 1.29 0.00
 24 2 8 -2.58 0.00
 24 2 9 1.59 0.00
 24 2 10 0.59 0.00
 24 2 11 -0.31 0.00
 24 2 12 -3.70 0.00
 24 2 13 1.27 0.00
 24 2 14 -0.45 0.00
 -24 4 19 -0.36 0.00
 -24 4 18 -0.93 0.00
 -24 4 17 -1.30 0.00
 -24 4 16 -1.65 0.00
 -24 4 15 -1.28 0.00
 -24 4 14 -3.11 0.00
 -24 4 13 -0.05 0.00
 -24 4 12 -2.45 0.00
 -24 4 11 1.29 0.00
 -24 4 10 -2.26 0.00
 -24 4 9 3.08 0.00
 -24 4 8 -3.99 0.00
 -24 4 7 2.17 0.00
 -24 4 6 4.79 0.00
 -24 4 5 3.88 0.00
 -24 4 4 0.06 0.00
 -24 4 3 -1.34 0.00
 -24 4 2 5.49 0.00
 -24 4 1 3.46 0.00
 24 4 0 4.69 0.00
 24 4 1 4.56 0.00
 24 4 2 2.50 0.00
 24 4 3 0.63 0.00
 24 4 4 1.87 0.00
 24 4 5 3.69 0.00
 24 4 6 0.92 0.00
 24 4 7 0.85 0.00
 24 4 8 1.06 0.00
 24 4 9 -0.03 0.00
 24 4 10 -2.03 0.00
 24 4 11 -0.30 0.00
 24 4 12 1.75 0.00
 24 4 13 0.70 0.00
 -24 6 16 -0.71 0.00
 -24 6 15 -2.39 0.00
 -24 6 14 -1.29 0.00
 -24 6 13 1.83 0.00
 -24 6 12 -0.73 0.00
 -24 6 11 -0.12 0.00
 -24 6 10 -2.81 0.00
 -24 6 9 2.78 0.00
 -24 6 8 -1.70 0.00
 -24 6 7 3.46 0.00
 -24 6 6 -1.49 0.00
 -24 6 5 1.20 0.00
 -24 6 4 2.12 0.00
 -24 6 3 1.93 0.00
 -24 6 2 -1.24 0.00
 -24 6 1 1.65 0.00
 24 6 0 3.75 0.00
 24 6 1 1.77 0.00
 24 6 2 0.99 0.00
 24 6 3 1.31 0.00
 24 6 4 1.87 0.00
 24 6 5 0.79 0.00
 24 6 6 2.19 0.00
 24 6 7 3.35 0.00
 24 6 8 -0.60 0.00
 24 6 9 -2.19 0.00
 24 6 10 0.64 0.00
 24 6 11 0.83 0.00
 -24 8 12 1.73 0.00
 -24 8 11 -0.55 0.00
 -24 8 10 -3.56 0.00
 -24 8 9 0.17 0.00
 -24 8 8 -2.33 0.00
 -24 8 7 3.97 0.00
 -24 8 6 -1.54 0.00
 -24 8 5 -0.28 0.00
 -24 8 4 -1.02 0.00
 -24 8 3 1.14 0.00
 -24 8 2 0.93 0.00
 -24 8 1 0.36 0.00
 24 8 0 0.36 0.00
 24 8 1 0.36 0.00
 24 8 2 2.83 0.00
 24 8 3 1.05 0.00
 24 8 4 -1.59 0.00
 24 8 5 0.05 0.00
 24 8 6 2.54 0.00
 24 8 7 1.46 0.00
 -25 1 20 0.97 0.00
 -25 1 19 -0.37 0.00
 -25 1 18 -1.63 0.00
 -25 1 17 0.17 0.00
 -25 1 16 -2.16 0.00
 -25 1 15 -0.46 0.00
 -25 1 14 -4.27 0.00
 -25 1 13 0.21 0.00
 -25 1 12 -0.53 0.00
 -25 1 11 1.03 0.00
 -25 1 10 -2.99 0.00
 -25 1 9 -1.10 0.00
 -25 1 8 2.07 0.00
 -25 1 7 2.72 0.00
 -25 1 6 5.73 0.00
 -25 1 5 -2.88 0.00
 -25 1 4 9.12 0.00
 -25 1 3 3.34 0.00
 -25 1 2 5.92 0.00
 -25 1 1 -4.15 0.00
 25 1 0 13.50 0.00
 25 1 1 -1.39 0.00
 25 1 2 0.67 0.00
 25 1 3 3.79 0.00
 25 1 4 2.01 0.00
 25 1 5 -0.45 0.00
 25 1 6 -1.05 0.00
 25 1 7 1.15 0.00
 25 1 8 -3.14 0.00
 25 1 9 0.16 0.00
 25 1 10 -0.88 0.00
 25 1 11 0.92 0.00
 25 1 12 -4.32 0.00
 25 1 13 -0.61 0.00
 25 1 14 -2.14 0.00
 -25 3 19 0.02 0.00
 -25 3 18 -1.79 0.00
 -25 3 17 -0.84 0.00
 -25 3 16 -1.99 0.00
 -25 3 15 -0.76 0.00
 -25 3 14 -3.39 0.00
 -25 3 13 0.30 0.00
 -25 3 12 -2.13 0.00
 -25 3 11 2.20 0.00
 -25 3 10 -0.97 0.00
 -25 3 9 1.12 0.00
 -25 3 8 -2.65 0.00
 -25 3 7 3.13 0.00
 -25 3 6 8.46 0.00
 -25 3 5 -0.58 0.00
 -25 3 4 0.66 0.00
 -25 3 3 1.32 0.00
 -25 3 2 8.92 0.00
 -25 3 1 -1.24 0.00
 25 3 0 5.77 0.00
 25 3 1 3.68 0.00
 25 3 2 2.17 0.00
 25 3 3 1.08 0.00
 25 3 4 0.86 0.00
 25 3 5 3.41 0.00
 25 3 6 0.34 0.00
 25 3 7 -0.48 0.00
 25 3 8 -1.23 0.00
 25 3 9 1.78 0.00
 25 3 10 -0.99 0.00
 25 3 11 -1.68 0.00
 25 3 12 -1.01 0.00
 25 3 13 2.11 0.00
 -25 5 17 0.02 0.00
 -25 5 16 -2.07 0.00
 -25 5 15 -1.63 0.00
 -25 5 14 -1.29 0.00
 -25 5 13 1.62 0.00
 -25 5 12 -1.56 0.00
 -25 5 11 0.98 0.00
 -25 5 10 -2.28 0.00
 -25 5 9 3.87 0.00
 -25 5 8 -0.77 0.00
 -25 5 7 2.03 0.00
 -25 5 6 1.46 0.00
 -25 5 5 2.68 0.00
 -25 5 4 2.86 0.00
 -25 5 3 -0.94 0.00
 -25 5 2 1.01 0.00
 -25 5 1 1.65 0.00
 25 5 0 4.31 0.00
 25 5 1 3.03 0.00
 25 5 2 1.35 0.00
 25 5 3 1.82 0.00
 25 5 4 1.88 0.00
 25 5 5 1.38 0.00
 25 5 6 0.56 0.00
 25 5 7 2.03 0.00
 25 5 8 0.44 0.00
 25 5 9 -2.38 0.00
 25 5 10 -1.01 0.00
 25 5 11 0.86 0.00
 -25 7 14 -1.98 0.00
 -25 7 13 2.43 0.00
 -25 7 12 0.83 0.00
 -25 7 11 -0.67 0.00
 -25 7 10 -3.46 0.00
 -25 7 9 1.94 0.00
 -25 7 8 -1.41 0.00
 -25 7 7 4.21 0.00
 -25 7 6 -0.98 0.00
 -25 7 5 -1.34 0.00
 -25 7 4 0.16 0.00
 -25 7 3 2.72 0.00
 -25 7 2 0.70 0.00
 -25 7 1 -0.60 0.00
 25 7 0 1.76 0.00
 25 7 1 0.78 0.00
 25 7 2 2.04 0.00
 25 7 3 1.56 0.00
 25 7 4 -0.16 0.00
 25 7 5 0.56 0.00
 25 7 6 3.18 0.00
 25 7 7 1.85 0.00
 25 7 8 -2.16 0.00
 -25 9 8 -2.80 0.00
 -25 9 7 2.34 0.00
 -25 9 6 -0.26 0.00
 -25 9 5 0.06 0.00
 -25 9 4 0.02 0.00
 -25 9 3 0.21 0.00
 -25 9 2 0.97 0.00
 -25 9 1 -0.21 0.00
 25 9 0 0.28 0.00
 25 9 1 1.11 0.00
 -26 0 20 0.91 0.00
 -26 0 18 -1.59 0.00
 -26 0 16 -2.20 0.00
 -26 0 14 -3.79 0.00
 -26 0 12 0.89 0.00
 -26 0 10 -2.34 0.00
 -26 0 8 4.56 0.00
 -26 0 6 6.45 0.00
 -26 0 4 9.01 0.00
 -26 0 2 5.62 0.00
 26 0 0 11.62 0.00
 26 0 2 -2.16 0.00
 26 0 4 1.38 0.00
 26 0 6 -3.26 0.00
 26 0 8 -3.28 0.00
 26 0 10 -2.71 0.00
 26 0 12 -3.60 0.00
 -26 2 19 0.10 0.00
 -26 2 18 -2.08 0.00
 -26 2 17 -0.27 0.00
 -26 2 16 -2.07 0.00
 -26 2 15 0.01 0.00
 -26 2 14 -3.25 0.00
 -26 2 13 0.05 0.00
 -26 2 12 -0.46 0.00
 -26 2 11 2.37 0.00
 -26 2 10 -0.84 0.00
 -26 2 9 -1.15 0.00
 -26 2 8 1.20 0.00
 -26 2 7 3.28 0.00
 -26 2 6 8.48 0.00
 -26 2 5 -3.31 0.00
 -26 2 4 4.10 0.00
 -26 2 3 2.39 0.00
 -26 2 2 8.49 0.00
 -26 2 1 -3.54 0.00
 26 2 0 6.55 0.00
 26 2 1 2.25 0.00
 26 2 2 0.94 0.00
 26 2 3 1.33 0.00
 26 2 4 -0.69 0.00
 26 2 5 1.97 0.00
 26 2 6 -0.90 0.00
 26 2 7 -0.18 0.00
 26 2 8 -3.27 0.00
 26 2 9 0.93 0.00
 26 2 10 -0.30 0.00
 26 2 11 -0.52 0.00
 26 2 12 -4.05 0.00
 26 2 13 0.72 0.00
 -26 4 18 -0.46 0.00
 -26 4 17 -0.45 0.00
 -26 4 16 -2.70 0.00
 -26 4 15 -0.56 0.00
 -26 4 14 -1.36 0.00
 -26 4 13 1.55 0.00
 -26 4 12 -1.67 0.00
 -26 4 11 1.66 0.00
 -26 4 10 -0.55 0.00
 -26 4 9 3.57 0.00
 -26 4 8 -0.42 0.00
 -26 4 7 0.93 0.00
 -26 4 6 6.13 0.00
 -26 4 5 1.55 0.00
 -26 4 4 1.43 0.00
 -26 4 3 -1.66 0.00
 -26 4 2 5.02 0.00
 -26 4 1 -0.32 0.00
 26 4 0 4.77 0.00
 26 4 1 2.95 0.00
 26 4 2 -0.32 0.00
 26 4 3 1.96 0.00
 26 4 4 2.29 0.00
 26 4 5 1.77 0.00
 26 4 6 -1.19 0.00
 26 4 7 -0.41 0.00
 26 4 8 0.21 0.00
 26 4 9 0.02 0.00
 26 4 10 -1.89 0.00
 26 4 11 -0.81 0.00
 26 4 12 1.05 0.00
 -26 6 15 -1.69 0.00
 -26 6 14 -0.91 0.00
 -26 6 13 3.08 0.00
 -26 6 12 -0.60 0.00
 -26 6 11 0.30 0.00
 -26 6 10 -2.40 0.00
 -26 6 9 3.11 0.00
 -26 6 8 0.41 0.00
 -26 6 7 3.32 0.00
 -26 6 6 -0.32 0.00
 -26 6 5 -0.95 0.00
 -26 6 4 2.73 0.00
 -26 6 3 1.64 0.00
 -26 6 2 0.12 0.00
 -26 6 1 -0.97 0.00
 26 6 0 2.94 0.00
 26 6 1 1.84 0.00
 26 6 2 2.03 0.00
 26 6 3 1.80 0.00
 26 6 4 0.33 0.00
 26 6 5 0.37 0.00
 26 6 6 1.96 0.00
 26 6 7 2.21 0.00
 26 6 8 -1.93 0.00
 26 6 9 -2.41 0.00
 -26 8 11 0.07 0.00
 -26 8 10 -3.76 0.00
 -26 8 9 0.94 0.00
 -26 8 8 -2.02 0.00
 -26 8 7 3.14 0.00
 -26 8 6 0.58 0.00
 -26 8 5 -1.24 0.00
 -26 8 4 -0.86 0.00
 -26 8 3 1.35 0.00
 -26 8 2 1.97 0.00
 -26 8 1 -0.89 0.00
 26 8 0 0.39 0.00
 26 8 1 0.90 0.00
 26 8 2 2.43 0.00
 26 8 3 0.43 0.00
 26 8 4 -1.50 0.00
 26 8 5 1.43 0.00
 -27 1 19 0.18 0.00
 -27 1 18 -1.95 0.00
 -27 1 17 0.04 0.00
 -27 1 16 -1.92 0.00
 -27 1 15 0.14 0.00
 -27 1 14 -2.99 0.00
 -27 1 13 0.02 0.00
 -27 1 12 1.50 0.00
 -27 1 11 0.99 0.00
 -27 1 10 -1.14 0.00
 -27 1 9 -1.21 0.00
 -27 1 8 4.78 0.00
 -27 1 7 1.49 0.00
 -27 1 6 7.53 0.00
 -27 1 5 -2.15 0.00
 -27 1 4 5.84 0.00
 -27 1 3 1.15 0.00
 -27 1 2 7.05 0.00
 -27 1 1 -2.61 0.00
 27 1 0 5.69 0.00
 27 1 1 0.63 0.00
 27 1 2 -1.34 0.00
 27 1 3 1.22 0.00
 27 1 4 -1.61 0.00
 27 1 5 0.46 0.00
 27 1 6 -2.97 0.00
 27 1 7 0.11 0.00
 27 1 8 -3.52 0.00
 27 1 9 -0.35 0.00
 27 1 10 -2.25 0.00
 27 1 11 0.80 0.00
 27 1 12 -3.94 0.00
 27 1 13 -0.89 0.00
 -27 3 18 -1.24 0.00
 -27 3 17 -0.53 0.00
 -27 3 16 -2.55 0.00
 -27 3 15 0.67 0.00
 -27 3 14 -1.25 0.00
 -27 3 13 0.80 0.00
 -27 3 12 -0.93 0.00
 -27 3 11 2.30 0.00
 -27 3 10 0.96 0.00
 -27 3 9 1.09 0.00
 -27 3 8 0.90 0.00
 -27 3 7 1.35 0.00
 -27 3 6 8.58 0.00
 -27 3 5 -1.55 0.00
 -27 3 4 1.77 0.00
 -27 3 3 -0.56 0.00
 -27 3 2 6.74 0.00
 -27 3 1 -1.82 0.00
 27 3 0 4.86 0.00
 27 3 1 3.67 0.00
 27 3 2 -2.09 0.00
 27 3 3 0.06 0.00
 27 3 4 1.23 0.00
 27 3 5 2.42 0.00
 27 3 6 -2.00 0.00
 27 3 7 -1.56 0.00
 27 3 8 -1.96 0.00
 27 3 9 1.20 0.00
 27 3 10 -0.67 0.00
 27 3 11 -1.85 0.00
 27 3 12 -1.49 0.00
 -27 5 16 -2.46 0.00
 -27 5 15 -0.81 0.00
 -27 5 14 -0.05 0.00
 -27 5 13 2.97 0.00
 -27 5 12 -1.03 0.00
 -27 5 11 1.39 0.00
 -27 5 10 -0.93 0.00
 -27 5 9 3.73 0.00
 -27 5 8 1.94 0.00
 -27 5 7 0.98 0.00
 -27 5 6 2.25 0.00
 -27 5 5 0.16 0.00
 -27 5 4 2.94 0.00
 -27 5 3 -0.82 0.00
 -27 5 2 1.87 0.00
 -27 5 1 -1.68 0.00
 27 5 0 3.14 0.00
 27 5 1 1.28 0.00
 27 5 2 1.02 0.00
 27 5 3 2.78 0.00
 27 5 4 1.00 0.00
 27 5 5 -0.26 0.00
 27 5 6 -0.68 0.00
 27 5 7 0.82 0.00
 27 5 8 -0.26 0.00
 27 5 9 -1.88 0.00
 27 5 10 -0.97 0.00
 -27 7 13 2.62 0.00
 -27 7 12 0.68 0.00
 -27 7 11 -0.28 0.00
 -27 7 10 -3.09 0.00
 -27 7 9 2.15 0.00
 -27 7 8 -0.26 0.00
 -27 7 7 3.49 0.00
 -27 7 6 0.58 0.00
 -27 7 5 -2.94 0.00
 -27 7 4 0.64 0.00
 -27 7 3 2.59 0.00
 -27 7 2 1.35 0.00
 -27 7 1 -2.24 0.00
 27 7 0 1.51 0.00
 27 7 1 1.12 0.00
 27 7 2 2.30 0.00
 27 7 3 1.06 0.00
 27 7 4 -1.08 0.00
 27 7 5 1.17 0.00
 27 7 6 2.62 0.00
 -28 0 18 -1.87 0.00
 -28 0 16 -1.78 0.00
 -28 0 14 -2.16 0.00
 -28 0 12 2.23 0.00
 -28 0 10 -0.54 0.00
 -28 0 8 6.04 0.00
 -28 0 6 7.17 0.00
 -28 0 4 4.48 0.00
 -28 0 2 6.35 0.00
 28 0 0 2.98 0.00
 28 0 2 -2.80 0.00
 28 0 4 -2.59 0.00
 28 0 6 -4.05 0.00
 28 0 8 -3.24 0.00
 28 0 10 -3.85 0.00
 28 0 12 -2.72 0.00
 -28 2 19 0.70 0.00
 -28 2 18 -1.68 0.00
 -28 2 17 -0.25 0.00
 -28 2 16 -1.79 0.00
 -28 2 15 1.13 0.00
 -28 2 14 -1.55 0.00
 -28 2 13 -0.03 0.00
 -28 2 12 1.02 0.00
 -28 2 11 2.04 0.00
 -28 2 10 0.85 0.00
 -28 2 9 -0.98 0.00
 -28 2 8 3.68 0.00
 -28 2 7 1.25 0.00
 -28 2 6 7.95 0.00
 -28 2 5 -2.42 0.00
 -28 2 4 2.97 0.00
 -28 2 3 -0.45 0.00
 -28 2 2 6.81 0.00
 -28 2 1 -1.61 0.00
 28 2 0 2.32 0.00
 28 2 1 3.49 0.00
 28 2 2 -1.92 0.00
 28 2 3 -1.00 0.00
 28 2 4 -1.65 0.00
 28 2 5 1.82 0.00
 28 2 6 -2.63 0.00
 28 2 7 -1.04 0.00
 28 2 8 -3.22 0.00
 28 2 9 -0.18 0.00
 28 2 10 -0.74 0.00
 28 2 11 -0.40 0.00
 28 2 12 -3.56 0.00
 -28 4 17 0.12 0.00
 -28 4 16 -2.81 0.00
 -28 4 15 0.64 0.00
 -28 4 14 0.66 0.00
 -28 4 13 2.31 0.00
 -28 4 12 -0.82 0.00
 -28 4 11 1.84 0.00
 -28 4 10 0.97 0.00
 -28 4 9 2.87 0.00
 -28 4 8 2.48 0.00
 -28 4 7 -0.43 0.00
 -28 4 6 5.63 0.00
 -28 4 5 -0.80 0.00
 -28 4 4 1.98 0.00
 -28 4 3 -1.31 0.00
 -28 4 2 3.54 0.00
 -28 4 1 -2.70 0.00
 28 4 0 3.97 0.00
 28 4 1 0.89 0.00
 28 4 2 -2.32 0.00
 28 4 3 1.99 0.00
 28 4 4 1.97 0.00
 28 4 5 0.35 0.00
 28 4 6 -2.61 0.00
 28 4 7 -1.51 0.00
 28 4 8 -0.48 0.00
 28 4 9 0.42 0.00
 28 4 10 -1.21 0.00
 -28 6 14 -0.09 0.00
 -28 6 13 3.52 0.00
 -28 6 12 -0.31 0.00
 -28 6 11 0.48 0.00
 -28 6 10 -1.23 0.00
 -28 6 9 2.74 0.00
 -28 6 8 1.98 0.00
 -28 6 7 1.97 0.00
 -28 6 6 0.54 0.00
 -28 6 5 -2.63 0.00
 -28 6 4 2.61 0.00
 -28 6 3 1.11 0.00
 -28 6 2 0.93 0.00
 -28 6 1 -2.66 0.00
 28 6 0 1.99 0.00
 28 6 1 1.04 0.00
 28 6 2 2.11 0.00
 28 6 3 1.89 0.00
 28 6 4 -0.84 0.00
 28 6 5 -0.34 0.00
 28 6 6 0.93 0.00
 28 6 7 0.98 0.00
 28 6 8 -2.25 0.00
 -28 8 8 -0.85 0.00
 -28 8 7 1.85 0.00
 -28 8 6 1.99 0.00
 -28 8 5 -1.62 0.00
 -28 8 4 -0.75 0.00
 -28 8 3 1.16 0.00
 -28 8 2 2.26 0.00
 -28 8 1 -1.76 0.00
 28 8 0 0.33 0.00
 28 8 1 1.08 0.00
 28 8 2 1.68 0.00
 -29 1 18 -1.79 0.00
 -29 1 17 -0.01 0.00
 -29 1 16 -1.28 0.00
 -29 1 15 0.48 0.00
 -29 1 14 -1.33 0.00
 -29 1 13 0.02 0.00
 -29 1 12 2.41 0.00
 -29 1 11 0.48 0.00
 -29 1 10 0.49 0.00
 -29 1 9 -0.85 0.00
 -29 1 8 5.65 0.00
 -29 1 7 0.39 0.00
 -29 1 6 6.72 0.00
 -29 1 5 -1.19 0.00
 -29 1 4 2.42 0.00
 -29 1 3 -0.54 0.00
 -29 1 2 6.27 0.00
 -29 1 1 -1.00 0.00
 29 1 0 -0.79 0.00
 29 1 1 1.34 0.00
 29 1 2 -2.16 0.00
 29 1 3 -0.34 0.00
 29 1 4 -3.57 0.00
 29 1 5 0.53 0.00
 29 1 6 -3.54 0.00
 29 1 7 -0.55 0.00
 29 1 8 -2.93 0.00
 29 1 9 -0.88 0.00
 29 1 10 -2.92 0.00
 29 1 11 0.68 0.00
 -29 3 18 -0.76 0.00
 -29 3 17 -0.13 0.00
 -29 3 16 -2.10 0.00
 -29 3 15 1.86 0.00
 -29 3 14 0.64 0.00
 -29 3 13 0.76 0.00
 -29 3 12 0.20 0.00
 -29 3 11 2.06 0.00
 -29 3 10 2.06 0.00
 -29 3 9 0.68 0.00
 -29 3 8 3.45 0.00
 -29 3 7 -0.42 0.00
 -29 3 6 6.61 0.00
 -29 3 5 -2.11 0.00
 -29 3 4 2.19 0.00
 -29 3 3 -1.44 0.00
 -29 3 2 3.71 0.00
 -29 3 1 -1.47 0.00
 29 3 0 3.17 0.00
 29 3 1 2.78 0.00
 29 3 2 -4.13 0.00
 29 3 3 -0.88 0.00
 29 3 4 0.63 0.00
 29 3 5 1.33 0.00
 29 3 6 -2.84 0.00
 29 3 7 -2.17 0.00
 29 3 8 -2.21 0.00
 29 3 9 0.52 0.00
 29 3 10 -0.12 0.00
 -29 5 15 0.28 0.00
 -29 5 14 1.30 0.00
 -29 5 13 3.39 0.00
 -29 5 12 -0.44 0.00
 -29 5 11 1.29 0.00
 -29 5 10 0.60 0.00
 -29 5 9 2.51 0.00
 -29 5 8 3.39 0.00
 -29 5 7 -0.46 0.00
 -29 5 6 2.29 0.00
 -29 5 5 -1.83 0.00
 -29 5 4 2.33 0.00
 -29 5 3 -0.54 0.00
 -29 5 2 1.96 0.00
 -29 5 1 -3.41 0.00
 29 5 0 1.93 0.00
 29 5 1 -0.49 0.00
 29 5 2 0.25 0.00
 29 5 3 2.64 0.00
 29 5 4 0.27 0.00
 29 5 5 -1.16 0.00
 29 5 6 -1.91 0.00
 29 5 7 -0.22 0.00
 29 5 8 -0.42 0.00
 -29 7 11 0.03 0.00
 -29 7 10 -2.00 0.00
 -29 7 9 1.75 0.00
 -29 7 8 0.98 0.00
 -29 7 7 1.81 0.00
 -29 7 6 1.41 0.00
 -29 7 5 -3.53 0.00
 -29 7 4 0.63 0.00
 -29 7 3 2.02 0.00
 -29 7 2 1.56 0.00
 -29 7 1 -3.09 0.00
 29 7 0 1.15 0.00
 29 7 1 0.83 0.00
 29 7 2 1.90 0.00
 29 7 3 0.56 0.00
 29 7 4 -1.58 0.00
 -30 0 16 -1.01 0.00
 -30 0 14 -0.44 0.00
 -30 0 12 2.38 0.00
 -30 0 10 1.08 0.00
 -30 0 8 5.85 0.00
 -30 0 6 5.45 0.00
 -30 0 4 1.05 0.00
 -30 0 2 5.30 0.00
 30 0 0 -2.97 0.00
 30 0 2 -2.76 0.00
 30 0 4 -4.13 0.00
 30 0 6 -3.66 0.00
 30 0 8 -2.53 0.00
 30 0 10 -3.86 0.00
 -30 2 18 -1.17 0.00
 -30 2 17 -0.09 0.00
 -30 2 16 -1.00 0.00
 -30 2 15 1.67 0.00
 -30 2 14 -0.02 0.00
 -30 2 13 -0.14 0.00
 -30 2 12 1.94 0.00
 -30 2 11 1.31 0.00
 -30 2 10 1.73 0.00
 -30 2 9 -0.61 0.00
 -30 2 8 4.80 0.00
 -30 2 7 -0.42 0.00
 -30 2 6 5.68 0.00
 -30 2 5 -1.57 0.00
 -30 2 4 1.70 0.00
 -30 2 3 -1.91 0.00
 -30 2 2 4.29 0.00
 -30 2 1 0.13 0.00
 30 2 0 -1.11 0.00
 30 2 1 3.26 0.00
 30 2 2 -2.84 0.00
 30 2 3 -1.99 0.00
 30 2 4 -2.32 0.00
 30 2 5 0.88 0.00
 30 2 6 -2.88 0.00
 30 2 7 -1.44 0.00
 30 2 8 -2.57 0.00
 30 2 9 -0.98 0.00
 30 2 10 -0.87 0.00
 -30 4 16 -2.02 0.00
 -30 4 15 1.66 0.00
 -30 4 14 2.13 0.00
 -30 4 13 2.19 0.00
 -30 4 12 -0.15 0.00
 -30 4 11 1.56 0.00
 -30 4 10 2.10 0.00
 -30 4 9 1.27 0.00
 -30 4 8 3.99 0.00
 -30 4 7 -1.57 0.00
 -30 4 6 4.01 0.00
 -30 4 5 -2.35 0.00
 -30 4 4 1.82 0.00
 -30 4 3 -0.67 0.00
 -30 4 2 1.77 0.00
 -30 4 1 -3.31 0.00
 30 4 0 2.73 0.00
 30 4 1 -0.68 0.00
 30 4 2 -3.17 0.00
 30 4 3 1.31 0.00
 30 4 4 0.98 0.00
 30 4 5 -0.25 0.00
 30 4 6 -3.05 0.00
 30 4 7 -2.16 0.00
 30 4 8 -0.67 0.00
 30 4 9 0.68 0.00
 -30 6 13 3.05 0.00
 -30 6 12 0.13 0.00
 -30 6 11 0.33 0.00
 -30 6 10 0.01 0.00
 -30 6 9 1.67 0.00
 -30 6 8 2.64 0.00
 -30 6 7 0.00 0.00
 -30 6 6 0.92 0.00
 -30 6 5 -3.26 0.00
 -30 6 4 1.90 0.00
 -30 6 3 0.68 0.00
 -30 6 2 1.19 0.00
 -30 6 1 -3.28 0.00
 30 6 0 1.21 0.00
 30 6 1 -0.02 0.00
 30 6 2 1.39 0.00
 30 6 3 1.54 0.00
 30 6 4 -1.37 0.00
 30 6 5 -0.85 0.00
 -30 8 4 -0.65 0.00
 -30 8 3 0.56 0.00
 -31 1 17 0.00 0.00
 -31 1 16 -0.44 0.00
 -31 1 15 0.59 0.00
 -31 1 14 0.16 0.00
 -31 1 13 -0.03 0.00
 -31 1 12 2.42 0.00
 -31 1 11 -0.05 0.00
 -31 1 10 1.59 0.00
 -31 1 9 -0.29 0.00
 -31 1 8 5.19 0.00
 -31 1 7 -0.33 0.00
 -31 1 6 4.28 0.00
 -31 1 5 -0.73 0.00
 -31 1 4 0.29 0.00
 -31 1 3 -1.05 0.00
 -31 1 2 4.27 0.00
 -31 1 1 0.01 0.00
 31 1 0 -4.52 0.00
 31 1 1 1.11 0.00
 31 1 2 -2.07 0.00
 31 1 3 -0.84 0.00
 31 1 4 -3.83 0.00
 31 1 5 0.02 0.00
 31 1 6 -3.01 0.00
 31 1 7 -0.93 0.00
 31 1 8 -2.01 0.00
 31 1 9 -0.93 0.00
 31 1 10 -2.65 0.00
 -31 3 17 0.13 0.00
 -31 3 16 -1.01 0.00
 -31 3 15 2.29 0.00
 -31 3 14 1.76 0.00
 -31 3 13 0.40 0.00
 -31 3 12 0.94 0.00
 -31 3 11 1.53 0.00
 -31 3 10 2.44 0.00
 -31 3 9 -0.19 0.00
 -31 3 8 4.61 0.00
 -31 3 7 -1.62 0.00
 -31 3 6 3.81 0.00
 -31 3 5 -2.18 0.00
 -31 3 4 1.86 0.00
 -31 3 3 -1.47 0.00
 -31 3 2 1.14 0.00
 -31 3 1 -0.60 0.00
 31 3 0 1.31 0.00
 31 3 1 1.66 0.00
 31 3 2 -4.23 0.00
 31 3 3 -1.24 0.00
 31 3 4 -0.46 0.00
 31 3 5 0.26 0.00
 31 3 6 -2.44 0.00
 31 3 7 -2.29 0.00
 31 3 8 -1.84 0.00
 31 3 9 -0.02 0.00
 -31 5 14 2.16 0.00
 -31 5 13 2.76 0.00
 -31 5 12 0.10 0.00
 -31 5 11 0.62 0.00
 -31 5 10 1.72 0.00
 -31 5 9 0.76 0.00
 -31 5 8 3.44 0.00
 -31 5 7 -1.77 0.00
 -31 5 6 1.81 0.00
 -31 5 5 -2.72 0.00
 -31 5 4 1.39 0.00
 -31 5 3 -0.13 0.00
 -31 5 2 1.46 0.00
 -31 5 1 -3.55 0.00
 31 5 0 1.02 0.00
 31 5 1 -1.56 0.00
 31 5 2 -0.56 0.00
 31 5 3 1.85 0.00
 31 5 4 -0.33 0.00
 31 5 5 -1.20 0.00
 31 5 6 -2.63 0.00
 -31 7 8 1.68 0.00
 -31 7 7 -0.05 0.00
 -31 7 6 1.37 0.00
 -31 7 5 -3.03 0.00
 -31 7 4 0.33 0.00
 -31 7 3 1.20 0.00
 -31 7 2 1.61 0.00
 -31 7 1 -3.11 0.00
 31 7 0 0.76 0.00
 31 7 1 0.17 0.00
 -32 0 16 -0.19 0.00
 -32 0 14 0.77 0.00
 -32 0 12 1.96 0.00
 -32 0 10 2.03 0.00
 -32 0 8 4.61 0.00
 -32 0 6 2.58 0.00
 -32 0 4 -0.22 0.00
 -32 0 2 2.94 0.00
 32 0 0 -5.41 0.00
 32 0 2 -2.21 0.00
 32 0 4 -3.71 0.00
 32 0 6 -2.51 0.00
 32 0 8 -1.82 0.00
 -32 2 17 0.03 0.00
 -32 2 16 -0.07 0.00
 -32 2 15 1.53 0.00
 -32 2 14 0.99 0.00
 -32 2 13 -0.25 0.00
 -32 2 12 2.14 0.00
 -32 2 11 0.58 0.00
 -32 2 10 1.91 0.00
 -32 2 9 -0.42 0.00
 -32 2 8 4.76 0.00
 -32 2 7 -1.42 0.00
 -32 2 6 2.83 0.00
 -32 2 5 -1.11 0.00
 -32 2 4 0.62 0.00
 -32 2 3 -1.85 0.00
 -32 2 2 2.03 0.00
 -32 2 1 1.02 0.00
 32 2 0 -3.05 0.00
 32 2 1 2.21 0.00
 32 2 2 -2.49 0.00
 32 2 3 -1.84 0.00
 32 2 4 -2.38 0.00
 32 2 5 -0.38 0.00
 32 2 6 -2.20 0.00
 32 2 7 -1.47 0.00
 32 2 8 -1.60 0.00
 32 2 9 -1.09 0.00
 -32 4 15 2.04 0.00
 -32 4 14 2.56 0.00
 -32 4 13 1.39 0.00
 -32 4 12 0.33 0.00
 -32 4 11 0.82 0.00
 -32 4 10 2.65 0.00
 -32 4 9 -0.60 0.00
 -32 4 8 3.94 0.00
 -32 4 7 -2.12 0.00
 -32 4 6 2.08 0.00
 -32 4 5 -2.79 0.00
 -32 4 4 1.22 0.00
 -32 4 3 -0.09 0.00
 -32 4 2 0.33 0.00
 -32 4 1 -2.56 0.00
 32 4 0 1.43 0.00
 32 4 1 -1.30 0.00
 32 4 2 -3.01 0.00
 32 4 3 0.58 0.00
 32 4 4 -0.26 0.00
 32 4 5 -0.37 0.00
 32 4 6 -2.58 0.00
 32 4 7 -2.25 0.00
 -32 6 9 0.28 0.00
 -32 6 8 2.39 0.00
 -32 6 7 -1.68 0.00
 -32 6 6 0.84 0.00
 -32 6 5 -2.75 0.00
 -32 6 4 0.97 0.00
 -32 6 3 0.40 0.00
 -32 6 2 1.16 0.00
 -32 6 1 -3.01 0.00
 32 6 0 0.74 0.00
 32 6 1 -0.85 0.00
 32 6 2 0.34 0.00
 -33 1 16 0.28 0.00
 -33 1 15 0.44 0.00
 -33 1 14 1.06 0.00
 -33 1 13 -0.12 0.00
 -33 1 12 1.92 0.00
 -33 1 11 -0.26 0.00
 -33 1 10 1.94 0.00
 -33 1 9 0.06 0.00
 -33 1 8 3.97 0.00
 -33 1 7 -0.74 0.00
 -33 1 6 1.48 0.00
 -33 1 5 -0.68 0.00
 -33 1 4 -0.30 0.00
 -33 1 3 -0.50 0.00
 -33 1 2 1.80 0.00
 -33 1 1 0.12 0.00
 33 1 0 -5.35 0.00
 33 1 1 0.45 0.00
 33 1 2 -1.53 0.00
 33 1 3 -0.77 0.00
 33 1 4 -2.90 0.00
 33 1 5 -0.56 0.00
 33 1 6 -1.93 0.00
 33 1 7 -1.04 0.00
 33 1 8 -1.19 0.00
 -33 3 15 1.93 0.00
 -33 3 14 1.89 0.00
 -33 3 13 -0.04 0.00
 -33 3 12 1.25 0.00
 -33 3 11 0.78 0.00
 -33 3 10 2.28 0.00
 -33 3 9 -1.24 0.00
 -33 3 8 4.38 0.00
 -33 3 7 -2.01 0.00
 -33 3 6 1.14 0.00
 -33 3 5 -1.85 0.00
 -33 3 4 1.10 0.00
 -33 3 3 -0.96 0.00
 -33 3 2 -0.31 0.00
 -33 3 1 0.21 0.00
 33 3 0 -0.27 0.00
 33 3 1 0.74 0.00
 33 3 2 -3.20 0.00
 33 3 3 -0.97 0.00
 33 3 4 -1.33 0.00
 33 3 5 -0.73 0.00
 33 3 6 -1.45 0.00
 33 3 7 -1.93 0.00
 -33 5 12 0.44 0.00
 -33 5 11 -0.26 0.00
 -33 5 10 2.10 0.00
 -33 5 9 -0.84 0.00
 -33 5 8 2.46 0.00
 -33 5 7 -2.46 0.00
 -33 5 6 1.11 0.00
 -33 5 5 -2.43 0.00
 -33 5 4 0.47 0.00
 -33 5 3 0.22 0.00
 -33 5 2 0.81 0.00
 -33 5 1 -2.67 0.00
 33 5 0 0.50 0.00
 33 5 1 -1.67 0.00
 33 5 2 -1.13 0.00
 33 5 3 0.95 0.00
 -34 0 14 1.29 0.00
 -34 0 12 1.38 0.00
 -34 0 10 1.97 0.00
 -34 0 8 3.06 0.00
 -34 0 6 -0.02 0.00
 -34 0 4 0.11 0.00
 -34 0 2 0.13 0.00
 34 0 0 -4.87 0.00
 34 0 2 -1.46 0.00
 34 0 4 -2.42 0.00
 34 0 6 -1.15 0.00
 -34 2 15 0.92 0.00
 -34 2 14 1.23 0.00
 -34 2 13 -0.26 0.00
 -34 2 12 1.80 0.00
 -34 2 11 0.04 0.00
 -34 2 10 1.65 0.00
 -34 2 9 -0.60 0.00
 -34 2 8 3.82 0.00
 -34 2 7 -1.71 0.00
 -34 2 6 0.31 0.00
 -34 2 5 -0.86 0.00
 -34 2 4 -0.01 0.00
 -34 2 3 -0.82 0.00
 -34 2 2 0.47 0.00
 -34 2 1 0.88 0.00
 34 2 0 -3.54 0.00
 34 2 1 0.91 0.00
 34 2 2 -1.68 0.00
 34 2 3 -1.17 0.00
 34 2 4 -1.78 0.00
 34 2 5 -1.35 0.00
 34 2 6 -1.31 0.00
 34 2 7 -1.17 0.00
 -34 4 13 0.23 0.00
 -34 4 12 0.63 0.00
 -34 4 11 -0.05 0.00
 -34 4 10 2.52 0.00
 -34 4 9 -2.02 0.00
 -34 4 8 2.75 0.00
 -34 4 7 -2.01 0.00
 -34 4 6 0.48 0.00
 -34 4 5 -2.26 0.00
 -34 4 4 0.50 0.00
 -34 4 3 0.28 0.00
 -34 4 2 -0.40 0.00
 -34 4 1 -1.31 0.00
 34 4 0 0.34 0.00
 34 4 1 -1.02 0.00
 34 4 2 -2.26 0.00
 34 4 3 0.14 0.00
 34 4 4 -1.21 0.00
 -34 6 7 -2.38 0.00
 -34 6 6 0.47 0.00
 -34 6 5 -1.54 0.00
 -34 6 4 0.28 0.00
 -34 6 3 0.16 0.00
 -34 6 2 1.03 0.00
 -34 6 1 -2.18 0.00
 -35 1 15 0.14 0.00
 -35 1 14 1.22 0.00
 -35 1 13 -0.10 0.00
 -35 1 12 1.23 0.00
 -35 1 11 -0.20 0.00
 -35 1 10 1.58 0.00
 -35 1 9 -0.05 0.00
 -35 1 8 2.53 0.00
 -35 1 7 -0.79 0.00
 -35 1 6 -0.64 0.00
 -35 1 5 -0.68 0.00
 -35 1 4 0.02 0.00
 -35 1 3 0.42 0.00
 -35 1 2 -0.44 0.00
 -35 1 1 -0.39 0.00
 35 1 0 -4.12 0.00
 35 1 1 -0.27 0.00
 35 1 2 -0.96 0.00
 35 1 3 -0.58 0.00
 35 1 4 -1.54 0.00
 35 1 5 -0.73 0.00
 35 1 6 -0.88 0.00
 -35 3 13 -0.45 0.00
 -35 3 12 1.29 0.00
 -35 3 11 0.02 0.00
 -35 3 10 1.76 0.00
 -35 3 9 -2.00 0.00
 -35 3 8 3.08 0.00
 -35 3 7 -1.68 0.00
 -35 3 6 -0.70 0.00
 -35 3 5 -1.24 0.00
 -35 3 4 0.35 0.00
 -35 3 3 -0.25 0.00
 -35 3 2 -0.68 0.00
 -35 3 1 0.52 0.00
 35 3 0 -1.29 0.00
 35 3 1 0.18 0.00
 35 3 2 -1.85 0.00
 35 3 3 -0.43 0.00
 35 3 4 -1.54 0.00
 35 3 5 -1.45 0.00
 -35 5 8 1.13 0.00
 -35 5 7 -2.37 0.00
 -35 5 6 0.40 0.00
 -35 5 5 -1.35 0.00
 -35 5 4 -0.09 0.00
 -35 5 3 0.29 0.00
 -35 5 2 0.41 0.00
 -35 5 1 -1.50 0.00
 35 5 0 0.24 0.00
 35 5 1 -1.13 0.00
 -36 0 14 1.16 0.00
 -36 0 12 0.76 0.00
 -36 0 10 1.19 0.00
 -36 0 8 1.79 0.00
 -36 0 6 -1.60 0.00
 -36 0 4 0.85 0.00
 -36 0 2 -2.07 0.00
 36 0 0 -2.74 0.00
 36 0 2 -0.83 0.00
 36 0 4 -1.17 0.00
 -36 2 13 -0.17 0.00
 -36 2 12 1.32 0.00
 -36 2 11 -0.32 0.00
 -36 2 10 1.13 0.00
 -36 2 9 -0.96 0.00
 -36 2 8 2.31 0.00
 -36 2 7 -1.37 0.00
 -36 2 6 -1.20 0.00
 -36 2 5 -0.60 0.00
 -36 2 4 -0.17 0.00
 -36 2 3 0.32 0.00
 -36 2 2 -0.41 0.00
 -36 2 1 0.12 0.00
 36 2 0 -2.97 0.00
 36 2 1 -0.17 0.00
 36 2 2 -0.91 0.00
 36 2 3 -0.51 0.00
 36 2 4 -0.82 0.00
 36 2 5 -1.60 0.00
 -36 4 10 1.84 0.00
 -36 4 9 -2.54 0.00
 -36 4 8 1.18 0.00
 -36 4 7 -1.47 0.00
 -36 4 6 -0.47 0.00
 -36 4 5 -1.16 0.00
 -36 4 4 -0.04 0.00
 -36 4 3 0.34 0.00
 -36 4 2 -0.42 0.00
 -36 4 1 -0.35 0.00
 36 4 0 -0.36 0.00
 36 4 1 -0.34 0.00
 36 4 2 -1.43 0.00
 -37 1 13 0.06 0.00
 -37 1 12 0.62 0.00
 -37 1 11 -0.14 0.00
 -37 1 10 0.87 0.00
 -37 1 9 -0.42 0.00
 -37 1 8 1.25 0.00
 -37 1 7 -0.45 0.00
 -37 1 6 -1.63 0.00
 -37 1 5 -0.56 0.00
 -37 1 4 0.49 0.00
 -37 1 3 0.98 0.00
 -37 1 2 -1.84 0.00
 -37 1 1 -0.89 0.00
 37 1 0 -2.13 0.00
 37 1 1 -0.72 0.00
 37 1 2 -0.59 0.00
 37 1 3 -0.43 0.00
 37 1 4 -0.40 0.00
 -37 3 11 -0.44 0.00
 -37 3 10 0.99 0.00
 -37 3 9 -2.12 0.00
 -37 3 8 1.38 0.00
 -37 3 7 -1.04 0.00
 -37 3 6 -1.41 0.00
 -37 3 5 -0.50 0.00
 -37 3 4 -0.12 0.00
 -37 3 3 0.28 0.00
 -37 3 2 -0.47 0.00
 -37 3 1 0.27 0.00
 37 3 0 -1.61 0.00
 37 3 1 -0.06 0.00
 37 3 2 -0.77 0.00
 -38 0 10 0.35 0.00
 -38 0 8 0.96 0.00
 -38 0 6 -2.12 0.00
 -38 0 4 1.19 0.00
 -38 0 2 -2.95 0.00
 38 0 0 -0.65 0.00
 38 0 2 -0.45 0.00
 -38 2 11 -0.52 0.00
 -38 2 10 0.49 0.00
 -38 2 9 -1.10 0.00
 -38 2 8 0.74 0.00
 -38 2 7 -0.67 0.00
 -38 2 6 -1.51 0.00
 -38 2 5 -0.28 0.00
 -38 2 4 -0.10 0.00
 -38 2 3 0.93 0.00
 -38 2 2 -0.85 0.00
 -38 2 1 -0.62 0.00
 38 2 0 -1.86 0.00
 38 2 1 -0.73 0.00
 38 2 2 -0.44 0.00
 -38 4 6 -0.77 0.00
 -38 4 5 0.02 0.00
 -38 4 4 -0.21 0.00
 -38 4 3 0.09 0.00
 -39 1 8 0.29 0.00
 -39 1 7 0.09 0.00
 -39 1 6 -1.64 0.00
 -39 1 5 -0.40 0.00
 -39 1 4 0.65 0.00
 -39 1 3 0.96 0.00
 -39 1 2 -2.22 0.00
 -39 1 1 -0.91 0.00
 39 1 0 -0.49 0.00
 -39 3 6 -1.16 0.00
 -39 3 5 0.20 0.00
 -39 3 4 -0.31 0.00
 -39 3 3 0.42 0.00
 -40 0 6 -1.87 0.00
 -40 0 4 0.99 0.00
 -40 0 2 -2.58 0.00
 2 0 0 125.54 0.00
 40 0 0 0.36 0.00
 40 2 0 -0.72 0.00
 39 3 0 -1.34 0.00
 38 4 0 -0.67 0.00
 37 5 0 0.04 0.00
 34 6 0 0.47 0.00
 36 6 0 0.24 0.00
 33 7 0 0.37 0.00
 30 8 0 0.25 0.00
 32 8 0 0.15 0.00
 27 9 0 0.24 0.00
 29 9 0 0.20 0.00
 22 10 0 0.25 0.00
 24 10 0 0.24 0.00
 15 11 0 3.20 0.00
 17 11 0 2.53 0.00
 19 11 0 1.34 0.00
 39 1 1 -0.70 0.00
 -40 2 1 -0.90 0.00
 40 2 1 -0.75 0.00
 -39 3 1 -0.24 0.00
 39 3 1 -0.18 0.00
 -38 4 1 0.01 0.00
 38 4 1 0.18 0.00
 -37 5 1 -0.56 0.00
 37 5 1 -0.46 0.00
 -36 6 1 -1.15 0.00
 34 6 1 -1.23 0.00
 36 6 1 -1.15 0.00
 -33 7 1 -2.45 0.00
 33 7 1 -0.54 0.00
 -32 8 1 -1.60 0.00
 -30 8 1 -2.01 0.00
 30 8 1 0.87 0.00
 -29 9 1 -0.67 0.00
 -27 9 1 -0.51 0.00
 27 9 1 1.00 0.00
 -24 10 1 -1.13 0.00
 -22 10 1 -0.74 0.00
 22 10 1 1.63 0.00
 24 10 1 1.03 0.00
 -19 11 1 1.02 0.00
 -17 11 1 2.40 0.00
 -15 11 1 2.89 0.00
 15 11 1 -0.90 0.00
 17 11 1 -0.26 0.00
 19 11 1 0.20 0.00
 2 0 2 -19.69 0.00
 40 0 2 -0.22 0.00
 7 1 2 -30.06 0.00
 39 1 2 -0.42 0.00
 -40 2 2 -0.96 0.00
 40 2 2 -0.31 0.00
 -39 3 2 -0.13 0.00
 39 3 2 -0.20 0.00
 -40 4 2 0.36 0.00
 -38 4 2 -0.03 0.00
 38 4 2 -0.80 0.00
 -37 5 2 0.32 0.00
 35 5 2 -1.39 0.00
 37 5 2 -1.32 0.00
 -36 6 2 0.88 0.00
 34 6 2 -0.57 0.00
 -35 7 2 1.37 0.00
 -33 7 2 1.57 0.00
 31 7 2 1.05 0.00
 33 7 2 0.21 0.00
 -32 8 2 1.74 0.00
 -30 8 2 2.10 0.00
 30 8 2 0.80 0.00
 -29 9 2 1.10 0.00
 -27 9 2 1.29 0.00
 25 9 2 2.14 0.00
 27 9 2 1.13 0.00
 -24 10 2 0.66 0.00
 22 10 2 0.68 0.00
 24 10 2 1.03 0.00
 -19 11 2 2.59 0.00
 -17 11 2 1.88 0.00
 -15 11 2 0.54 0.00
 13 11 2 -0.90 0.00
 15 11 2 -2.15 0.00
 17 11 2 -2.62 0.00
 19 11 2 -2.08 0.00
 39 1 3 -0.30 0.00
 -40 2 3 0.92 0.00
 38 2 3 -0.10 0.00
 37 3 3 -0.04 0.00
 -40 4 3 -0.34 0.00
 36 4 3 -0.07 0.00
 -39 5 3 -0.37 0.00
 -37 5 3 0.03 0.00
 35 5 3 0.32 0.00
 -36 6 3 -0.10 0.00
 32 6 3 0.97 0.00
 34 6 3 0.52 0.00
 -35 7 3 -0.25 0.00
 -33 7 3 0.35 0.00
 31 7 3 0.14 0.00
 33 7 3 -0.04 0.00
 -32 8 3 -0.19 0.00
 28 8 3 -0.18 0.00
 30 8 3 -0.55 0.00
 -29 9 3 -0.60 0.00
 -27 9 3 -0.25 0.00
 25 9 3 -0.61 0.00
 27 9 3 -0.65 0.00
 -24 10 3 1.06 0.00
 20 10 3 -0.27 0.00
 22 10 3 -0.63 0.00
 -19 11 3 1.39 0.00
 -17 11 3 0.88 0.00
 -15 11 3 0.40 0.00
 13 11 3 -2.49 0.00
 15 11 3 -0.99 0.00
 17 11 3 0.51 0.00
 38 0 4 -0.38 0.00
 39 1 4 0.22 0.00
 -40 2 4 -0.08 0.00
 38 2 4 0.01 0.00
 37 3 4 -1.14 0.00
 -40 4 4 -0.06 0.00
 36 4 4 -1.47 0.00
 -39 5 4 0.25 0.00
 -37 5 4 -0.12 0.00
 33 5 4 -0.79 0.00
 35 5 4 -0.96 0.00
 -36 6 4 0.11 0.00
 32 6 4 -1.32 0.00
 34 6 4 -0.96 0.00
 -35 7 4 0.13 0.00
 -33 7 4 0.11 0.00
 31 7 4 -1.43 0.00
 -32 8 4 -0.40 0.00
 28 8 4 -1.14 0.00
 -29 9 4 0.26 0.00
 -27 9 4 0.21 0.00
 25 9 4 -1.93 0.00
 -24 10 4 0.68 0.00
 -22 10 4 -0.65 0.00
 20 10 4 -0.31 0.00
 22 10 4 -0.85 0.00
 -19 11 4 -3.41 0.00
 -17 11 4 -4.49 0.00
 -15 11 4 -4.21 0.00
 13 11 4 1.59 0.00
 15 11 4 1.37 0.00
 17 11 4 1.01 0.00
 37 1 5 -0.42 0.00
 -40 2 5 -0.02 0.00
 38 2 5 -1.16 0.00
 37 3 5 -1.65 0.00
 -40 4 5 0.81 0.00
 34 4 5 -0.46 0.00
 36 4 5 -0.66 0.00
 -39 5 5 0.71 0.00
 -37 5 5 -0.10 0.00
 33 5 5 -0.77 0.00
 35 5 5 -0.38 0.00
 -36 6 5 -0.33 0.00
 32 6 5 -0.89 0.00
 -35 7 5 -0.70 0.00
 -33 7 5 -1.86 0.00
 29 7 5 1.09 0.00
 31 7 5 0.69 0.00
 -32 8 5 -1.02 0.00
 -30 8 5 -1.47 0.00
 28 8 5 2.04 0.00
 -29 9 5 0.44 0.00
 -27 9 5 0.31 0.00
 23 9 5 -0.48 0.00
 25 9 5 0.71 0.00
 -24 10 5 -0.04 0.00
 -22 10 5 -0.41 0.00
 18 10 5 -1.32 0.00
 20 10 5 -1.58 0.00
 -19 11 5 0.57 0.00
 -17 11 5 0.70 0.00
 -15 11 5 0.66 0.00
 11 11 5 1.62 0.00
 13 11 5 1.49 0.00
 15 11 5 0.84 0.00
 36 0 6 -0.03 0.00
 38 0 6 0.61 0.00
 37 1 6 -0.16 0.00
 -40 2 6 -0.97 0.00
 36 2 6 -0.69 0.00
 35 3 6 -0.52 0.00
 -40 4 6 -0.61 0.00
 34 4 6 -1.56 0.00
 -39 5 6 -0.39 0.00
 -37 5 6 -0.15 0.00
 33 5 6 -2.50 0.00
 -36 6 6 0.05 0.00
 30 6 6 -0.36 0.00
 32 6 6 -1.26 0.00
 -35 7 6 0.33 0.00
 -33 7 6 0.84 0.00
 29 7 6 1.41 0.00
 -32 8 6 1.55 0.00
 -30 8 6 2.21 0.00
 26 8 6 2.31 0.00
 28 8 6 1.38 0.00
 -29 9 6 1.46 0.00
 -27 9 6 0.95 0.00
 21 9 6 0.47 0.00
 23 9 6 1.14 0.00
 -24 10 6 -0.63 0.00
 -22 10 6 -0.88 0.00
 16 10 6 -1.76 0.00
 18 10 6 -0.93 0.00
 20 10 6 -0.12 0.00
 -19 11 6 0.20 0.00
 -17 11 6 1.18 0.00
 -15 11 6 2.05 0.00
 -13 11 6 2.17 0.00
 9 11 6 1.53 0.00
 11 11 6 -0.23 0.00
 13 11 6 -1.48 0.00
 15 11 6 -1.73 0.00
 35 1 7 -0.90 0.00
 37 1 7 -0.57 0.00
 -40 2 7 -0.03 0.00
 36 2 7 -0.61 0.00
 -39 3 7 -0.42 0.00
 35 3 7 -1.16 0.00
 -40 4 7 -0.22 0.00
 -38 4 7 -0.79 0.00
 34 4 7 -1.76 0.00
 -37 5 7 -1.67 0.00
 31 5 7 -0.78 0.00
 33 5 7 -0.82 0.00
 -36 6 7 -2.04 0.00
 30 6 7 0.18 0.00
 -35 7 7 -1.53 0.00
 -33 7 7 -1.26 0.00
 27 7 7 0.45 0.00
 29 7 7 -0.52 0.00
 -32 8 7 -0.39 0.00
 -30 8 7 0.56 0.00
 26 8 7 0.23 0.00
 -29 9 7 0.08 0.00
 -27 9 7 0.99 0.00
 21 9 7 2.09 0.00
 23 9 7 1.79 0.00
 -24 10 7 1.57 0.00
 -22 10 7 2.41 0.00
 16 10 7 -0.96 0.00
 18 10 7 0.38 0.00
 -17 11 7 0.60 0.00
 -15 11 7 0.07 0.00
 -13 11 7 -0.78 0.00
 7 11 7 -1.21 0.00
 9 11 7 -2.24 0.00
 11 11 7 -2.40 0.00
 13 11 7 -1.91 0.00
 -40 0 8 0.35 0.00
 34 0 8 -1.28 0.00
 36 0 8 -0.81 0.00
 35 1 8 -0.58 0.00
 -40 2 8 -0.34 0.00
 34 2 8 -0.65 0.00
 -39 3 8 0.02 0.00
 33 3 8 -1.05 0.00
 -40 4 8 -0.59 0.00
 -38 4 8 -0.05 0.00
 32 4 8 -0.33 0.00
 -37 5 8 0.05 0.00
 31 5 8 -0.04 0.00
 -36 6 8 0.64 0.00
 -34 6 8 1.57 0.00
 30 6 8 -1.64 0.00
 -33 7 8 1.57 0.00
 27 7 8 -2.97 0.00
 -32 8 8 0.96 0.00
 -30 8 8 0.38 0.00
 24 8 8 -0.59 0.00
 -27 9 8 -1.79 0.00
 19 9 8 0.66 0.00
 21 9 8 0.47 0.00
 -24 10 8 -2.66 0.00
 -22 10 8 -3.22 0.00
 -20 10 8 -2.93 0.00
 14 10 8 0.15 0.00
 16 10 8 0.52 0.00
 18 10 8 0.32 0.00
 -17 11 8 -1.78 0.00
 -15 11 8 -1.63 0.00
 -13 11 8 -1.68 0.00
 -11 11 8 -1.73 0.00
 3 11 8 1.01 0.00
 5 11 8 -0.20 0.00
 7 11 8 -1.16 0.00
 9 11 8 -1.54 0.00
 11 11 8 -1.31 0.00
 -39 1 9 -0.60 0.00
 33 1 9 -0.48 0.00
 35 1 9 0.12 0.00
 -40 2 9 -0.79 0.00
 34 2 9 -0.59 0.00
 -39 3 9 -1.63 0.00
 33 3 9 -0.24 0.00
 -38 4 9 -2.20 0.00
 32 4 9 0.61 0.00
 -37 5 9 -1.84 0.00
 -35 5 9 -1.76 0.00
 29 5 9 -0.87 0.00
 31 5 9 -0.05 0.00
 -36 6 9 -1.37 0.00
 -34 6 9 -0.88 0.00
 28 6 9 -1.79 0.00
 -33 7 9 -0.21 0.00
 -31 7 9 0.82 0.00
 25 7 9 -0.69 0.00
 27 7 9 -0.48 0.00
 -30 8 9 0.75 0.00
 -28 8 9 1.09 0.00
 22 8 9 -0.43 0.00
 24 8 9 -0.06 0.00
 -27 9 9 0.62 0.00
 -25 9 9 -0.05 0.00
 19 9 9 0.00 0.00
 21 9 9 -0.62 0.00
 -22 10 9 -1.51 0.00
 -20 10 9 -2.94 0.00
 12 10 9 0.48 0.00
 14 10 9 1.10 0.00
 16 10 9 1.06 0.00
 -15 11 9 -2.30 0.00
 -13 11 9 -1.23 0.00
 -11 11 9 0.42 0.00
 -9 11 9 2.07 0.00
 -7 11 9 3.09 0.00
 -5 11 9 3.11 0.00
 -3 11 9 2.09 0.00
 -1 11 9 0.36 0.00
 1 11 9 -1.43 0.00
 3 11 9 -2.57 0.00
 5 11 9 -2.62 0.00
 7 11 9 -1.71 0.00
 9 11 9 -0.41 0.00
 -40 0 10 -0.08 0.00
 -22 0 10 -5.35 0.00
 32 0 10 -2.74 0.00
 34 0 10 -1.10 0.00
 -39 1 10 0.24 0.00
 33 1 10 -1.68 0.00
 -40 2 10 -0.11 0.00
 32 2 10 -0.80 0.00
 -39 3 10 0.17 0.00
 31 3 10 0.18 0.00
 -38 4 10 0.94 0.00
 30 4 10 -0.43 0.00
 -37 5 10 1.18 0.00
 -35 5 10 1.82 0.00
 29 5 10 -0.65 0.00
 -36 6 10 0.90 0.00
 -34 6 10 1.08 0.00
 -32 6 10 0.83 0.00
 26 6 10 0.71 0.00
 28 6 10 0.64 0.00
 -33 7 10 0.38 0.00
 -31 7 10 -0.67 0.00
 25 7 10 0.94 0.00
 -30 8 10 -1.69 0.00
 -28 8 10 -3.07 0.00
 20 8 10 0.18 0.00
 22 8 10 0.08 0.00
 -27 9 10 -2.24 0.00
 -25 9 10 -2.59 0.00
 -23 9 10 -2.25 0.00
 17 9 10 -0.55 0.00
 19 9 10 -0.31 0.00
 -22 10 10 -0.76 0.00
 -20 10 10 -0.03 0.00
 -18 10 10 0.67 0.00
 10 10 10 0.46 0.00
 12 10 10 -0.02 0.00
 14 10 10 -0.55 0.00
 -13 11 10 0.58 0.00
 -11 11 10 0.17 0.00
 -9 11 10 -0.35 0.00
 -7 11 10 -0.86 0.00
 -5 11 10 -1.26 0.00
 -3 11 10 -1.40 0.00
 -1 11 10 -1.19 0.00
 1 11 10 -0.69 0.00
 3 11 10 -0.12 0.00
 5 11 10 0.29 0.00
 -39 1 11 -0.19 0.00
 31 1 11 0.41 0.00
 -40 2 11 -0.52 0.00
 30 2 11 -0.26 0.00
 32 2 11 -0.19 0.00
 -39 3 11 -0.47 0.00
 29 3 11 -1.70 0.00
 31 3 11 -1.28 0.00
 -38 4 11 -0.65 0.00
 -36 4 11 -0.61 0.00
 28 4 11 -1.29 0.00
 30 4 11 -1.41 0.00
 -37 5 11 -1.02 0.00
 -35 5 11 -0.88 0.00
 27 5 11 0.35 0.00
 -34 6 11 -0.48 0.00
 -32 6 11 -0.07 0.00
 26 6 11 0.55 0.00
 -33 7 11 0.05 0.00
 -31 7 11 0.16 0.00
 23 7 11 0.56 0.00
 -30 8 11 0.66 0.00
 -28 8 11 0.54 0.00
 20 8 11 0.22 0.00
 -25 9 11 0.24 0.00
 -23 9 11 -0.23 0.00
 15 9 11 -1.38 0.00
 17 9 11 -1.54 0.00
 -20 10 11 0.33 0.00
 -18 10 11 1.30 0.00
 -16 10 11 2.04 0.00
 -14 10 11 2.03 0.00
 8 10 11 2.09 0.00
 10 10 11 1.43 0.00
 12 10 11 0.40 0.00
 -11 11 11 0.54 0.00
 -9 11 11 -0.96 0.00
 -7 11 11 -2.32 0.00
 -5 11 11 -3.06 0.00
 -3 11 11 -3.02 0.00
 -1 11 11 -2.30 0.00
 1 11 11 -1.11 0.00
 -40 0 12 0.05 0.00
 -38 0 12 0.25 0.00
 30 0 12 -1.44 0.00
 -39 1 12 0.26 0.00
 29 1 12 -2.71 0.00
 31 1 12 -1.27 0.00
 -40 2 12 0.69 0.00
 -38 2 12 0.95 0.00
 30 2 12 -2.39 0.00
 -39 3 12 0.97 0.00
 -37 3 12 1.20 0.00
 29 3 12 -1.49 0.00
 -38 4 12 0.53 0.00
 -36 4 12 0.71 0.00
 28 4 12 0.44 0.00
 -35 5 12 0.47 0.00
 25 5 12 1.24 0.00
 27 5 12 0.76 0.00
 -34 6 12 0.46 0.00
 -32 6 12 0.46 0.00
 24 6 12 0.80 0.00
 -31 7 12 0.44 0.00
 -29 7 12 0.55 0.00
 21 7 12 1.38 0.00
 23 7 12 1.08 0.00
 -28 8 12 0.68 0.00
 -26 8 12 1.25 0.00
 18 8 12 0.93 0.00
 -25 9 12 0.40 0.00
 -23 9 12 1.26 0.00
 -21 9 12 1.91 0.00
 11 9 12 -1.05 0.00
 13 9 12 -0.82 0.00
 15 9 12 -0.15 0.00
 -18 10 12 0.96 0.00
 -16 10 12 0.27 0.00
 -14 10 12 -0.72 0.00
 -12 10 12 -1.53 0.00
 2 10 12 0.55 0.00
 4 10 12 0.09 0.00
 6 10 12 -0.27 0.00
 8 10 12 -0.50 0.00
 -39 1 13 0.15 0.00
 29 1 13 -0.87 0.00
 -38 2 13 -0.08 0.00
 28 2 13 0.14 0.00
 -37 3 13 -0.77 0.00
 27 3 13 1.62 0.00
 -36 4 13 -0.82 0.00
 26 4 13 0.88 0.00
 -35 5 13 -0.11 0.00
 -33 5 13 1.38 0.00
 23 5 13 -1.12 0.00
 25 5 13 -0.58 0.00
 -32 6 13 1.85 0.00
 22 6 13 -1.20 0.00
 -31 7 13 1.38 0.00
 -29 7 13 2.22 0.00
 19 7 13 0.26 0.00
 21 7 13 -0.10 0.00
 -28 8 13 0.51 0.00
 -26 8 13 0.73 0.00
 -24 8 13 0.92 0.00
 14 8 13 -0.34 0.00
 16 8 13 0.34 0.00
 18 8 13 0.78 0.00
 -23 9 13 0.05 0.00
 -21 9 13 0.49 0.00
 -19 9 13 0.64 0.00
 9 9 13 -2.40 0.00
 11 9 13 -1.83 0.00
 13 9 13 -1.13 0.00
 -16 10 13 -0.46 0.00
 -14 10 13 -0.79 0.00
 -12 10 13 -0.85 0.00
 -10 10 13 -0.45 0.00
 -8 10 13 0.37 0.00
 -6 10 13 1.35 0.00
 -4 10 13 2.16 0.00
 -2 10 13 2.51 0.00
 0 10 13 2.22 0.00
 2 10 13 1.33 0.00
 4 10 13 0.10 0.00
 6 10 13 -1.07 0.00
 -38 0 14 0.55 0.00
 26 0 14 -3.38 0.00
 28 0 14 -2.66 0.00
 -39 1 14 0.12 0.00
 -37 1 14 0.78 0.00
 27 1 14 -1.91 0.00
 -38 2 14 0.08 0.00
 -36 2 14 0.77 0.00
 26 2 14 -0.37 0.00
 -37 3 14 0.27 0.00
 -35 3 14 1.22 0.00
 25 3 14 -0.75 0.00
 27 3 14 -0.34 0.00
 -36 4 14 1.03 0.00
 -34 4 14 2.02 0.00
 24 4 14 -1.59 0.00
 -33 5 14 2.21 0.00
 23 5 14 -1.17 0.00
 -32 6 14 1.44 0.00
 -30 6 14 0.84 0.00
 20 6 14 0.48 0.00
 22 6 14 -0.31 0.00
 -29 7 14 -0.65 0.00
 -27 7 14 -1.50 0.00
 15 7 14 1.83 0.00
 17 7 14 1.50 0.00
 19 7 14 0.77 0.00
 -26 8 14 -1.93 0.00
 -24 8 14 -2.24 0.00
 -22 8 14 -1.97 0.00
 12 8 14 1.06 0.00
 14 8 14 1.52 0.00
 -21 9 14 -1.59 0.00
 -19 9 14 -1.19 0.00
 -17 9 14 -0.35 0.00
 -15 9 14 0.76 0.00
 5 9 14 -0.36 0.00
 7 9 14 -0.23 0.00
 9 9 14 0.11 0.00
 -12 10 14 1.71 0.00
 -10 10 14 1.78 0.00
 -8 10 14 1.32 0.00
 -6 10 14 0.67 0.00
 -4 10 14 0.17 0.00
 -2 10 14 -0.01 0.00
 0 10 14 0.12 0.00
 2 10 14 0.41 0.00
 -37 1 15 -0.05 0.00
 25 1 15 1.35 0.00
 -36 2 15 0.24 0.00
 24 2 15 0.91 0.00
 26 2 15 0.77 0.00
 -35 3 15 1.15 0.00
 23 3 15 0.29 0.00
 25 3 15 0.24 0.00
 -34 4 15 1.71 0.00
 22 4 15 0.81 0.00
 24 4 15 0.77 0.00
 -33 5 15 1.32 0.00
 -31 5 15 1.11 0.00
 19 5 15 0.50 0.00
 21 5 15 0.87 0.00
 -30 6 15 0.05 0.00
 -28 6 15 -0.75 0.00
 18 6 15 -0.21 0.00
 20 6 15 -0.13 0.00
 -27 7 15 -0.75 0.00
 -25 7 15 -1.50 0.00
 13 7 15 0.75 0.00
 15 7 15 0.25 0.00
 17 7 15 -0.35 0.00
 -24 8 15 -0.51 0.00
 -22 8 15 -1.01 0.00
 -20 8 15 -1.31 0.00
 8 8 15 0.29 0.00
 10 8 15 0.47 0.00
 12 8 15 0.43 0.00
 -19 9 15 -0.59 0.00
 -17 9 15 -0.55 0.00
 -15 9 15 -0.09 0.00
 -13 9 15 0.61 0.00
 -11 9 15 1.15 0.00
 -9 9 15 1.20 0.00
 -7 9 15 0.77 0.00
 -5 9 15 0.14 0.00
 -3 9 15 -0.39 0.00
 -1 9 15 -0.62 0.00
 1 9 15 -0.50 0.00
 3 9 15 -0.12 0.00
 5 9 15 0.36 0.00
 7 9 15 0.70 0.00
 -36 0 16 0.47 0.00
 -34 0 16 0.34 0.00
 22 0 16 -2.58 0.00
 24 0 16 -1.91 0.00
 -37 1 16 0.54 0.00
 -35 1 16 0.62 0.00
 23 1 16 -2.61 0.00
 -36 2 16 0.89 0.00
 -34 2 16 0.66 0.00
 22 2 16 -2.22 0.00
 24 2 16 -1.83 0.00
 -35 3 16 0.86 0.00
 -33 3 16 0.14 0.00
 21 3 16 -0.43 0.00
 23 3 16 -0.36 0.00
 -34 4 16 0.27 0.00
 -32 4 16 -0.79 0.00
 20 4 16 0.26 0.00
 22 4 16 0.43 0.00
 -31 5 16 -1.52 0.00
 -29 5 16 -2.29 0.00
 17 5 16 -0.38 0.00
 19 5 16 -0.67 0.00
 -30 6 16 -1.46 0.00
 -28 6 16 -1.59 0.00
 -26 6 16 -1.23 0.00
 14 6 16 -0.05 0.00
 16 6 16 -0.84 0.00
 -25 7 16 0.17 0.00
 -23 7 16 0.96 0.00
 11 7 16 0.13 0.00
 13 7 16 -0.62 0.00
 -22 8 16 1.78 0.00
 -20 8 16 2.18 0.00
 -18 8 16 1.81 0.00
 -16 8 16 0.90 0.00
 2 8 16 2.11 0.00
 4 8 16 2.46 0.00
 6 8 16 2.14 0.00
 8 8 16 1.35 0.00
 10 8 16 0.39 0.00
 -15 9 16 0.94 0.00
 -13 9 16 -0.43 0.00
 -11 9 16 -1.74 0.00
 -9 9 16 -2.57 0.00
 -7 9 16 -2.69 0.00
 -5 9 16 -2.10 0.00
 -3 9 16 -1.02 0.00
 -1 9 16 0.21 0.00
 1 9 16 1.21 0.00
 3 9 16 1.72 0.00
 -35 1 17 0.03 0.00
 -33 1 17 0.03 0.00
 21 1 17 0.88 0.00
 -34 2 17 0.05 0.00
 20 2 17 2.42 0.00
 22 2 17 1.74 0.00
 -33 3 17 0.14 0.00
 19 3 17 2.86 0.00
 21 3 17 2.05 0.00
 -32 4 17 0.32 0.00
 -30 4 17 0.37 0.00
 18 4 17 1.65 0.00
 -29 5 17 0.77 0.00
 -27 5 17 0.62 0.00
 15 5 17 0.88 0.00
 17 5 17 0.34 0.00
 -28 6 17 1.02 0.00
 -26 6 17 0.93 0.00
 -24 6 17 0.63 0.00
 12 6 17 -0.16 0.00
 14 6 17 -0.29 0.00
 -23 7 17 0.76 0.00
 -21 7 17 0.63 0.00
 -19 7 17 0.12 0.00
 7 7 17 -0.06 0.00
 9 7 17 -0.30 0.00
 11 7 17 -0.39 0.00
 -18 8 17 0.36 0.00
 -16 8 17 -0.17 0.00
 -14 8 17 -0.85 0.00
 -12 8 17 -1.38 0.00
 -10 8 17 -1.51 0.00
 -8 8 17 -1.18 0.00
 -6 8 17 -0.59 0.00
 -4 8 17 -0.07 0.00
 -2 8 17 0.18 0.00
 0 8 17 0.15 0.00
 2 8 17 -0.02 0.00
 4 8 17 -0.20 0.00
 6 8 17 -0.32 0.00
 -34 0 18 -0.42 0.00
 -32 0 18 -1.06 0.00
 -30 0 18 -1.64 0.00
 18 0 18 -0.94 0.00
 20 0 18 -0.39 0.00
 -33 1 18 -0.75 0.00
 -31 1 18 -1.32 0.00
 19 1 18 0.03 0.00
 -32 2 18 -0.73 0.00
 18 2 18 0.71 0.00
 -31 3 18 -0.45 0.00
 15 3 18 0.51 0.00
 17 3 18 0.08 0.00
 -30 4 18 -0.12 0.00
 -28 4 18 -0.20 0.00
 14 4 18 -1.49 0.00
 16 4 18 -1.19 0.00
 -29 5 18 0.26 0.00
 -27 5 18 0.31 0.00
 -25 5 18 0.20 0.00
 11 5 18 -2.32 0.00
 13 5 18 -2.03 0.00
 15 5 18 -1.39 0.00
 -26 6 18 0.46 0.00
 -24 6 18 0.34 0.00
 -22 6 18 0.09 0.00
 8 6 18 -1.58 0.00
 10 6 18 -1.53 0.00
 12 6 18 -1.11 0.00
 -21 7 18 -0.27 0.00
 -19 7 18 -0.66 0.00
 -17 7 18 -0.79 0.00
 -15 7 18 -0.60 0.00
 1 7 18 -0.36 0.00
 3 7 18 -1.13 0.00
 5 7 18 -1.53 0.00
 7 7 18 -1.49 0.00
 -14 8 18 0.06 0.00
 -12 8 18 0.49 0.00
 -10 8 18 0.85 0.00
 -8 8 18 1.17 0.00
 -6 8 18 1.47 0.00
 -4 8 18 1.55 0.00
 -2 8 18 1.20 0.00
 0 8 18 0.41 0.00
 -31 1 19 0.56 0.00
 -29 1 19 0.52 0.00
 15 1 19 1.27 0.00
 17 1 19 0.54 0.00
 -32 2 19 0.99 0.00
 -30 2 19 1.02 0.00
 14 2 19 0.48 0.00
 16 2 19 -0.27 0.00
 -29 3 19 0.87 0.00
 -27 3 19 0.48 0.00
 13 3 19 -1.12 0.00
 15 3 19 -1.57 0.00
 -28 4 19 0.41 0.00
 -26 4 19 -0.04 0.00
 10 4 19 0.01 0.00
 12 4 19 -0.78 0.00
 14 4 19 -1.31 0.00
 -25 5 19 -0.73 0.00
 -23 5 19 -1.05 0.00
 9 5 19 1.29 0.00
 11 5 19 0.76 0.00
 -22 6 19 -1.39 0.00
 -20 6 19 -1.42 0.00
 -18 6 19 -0.96 0.00
 4 6 19 -0.43 0.00
 6 6 19 0.61 0.00
 8 6 19 1.26 0.00
 -17 7 19 -0.47 0.00
 -15 7 19 0.61 0.00
 -13 7 19 1.74 0.00
 -11 7 19 2.36 0.00
 -9 7 19 2.18 0.00
 -7 7 19 1.36 0.00
 -5 7 19 0.33 0.00
 -3 7 19 -0.55 0.00
 -1 7 19 -1.07 0.00
 1 7 19 -1.17 0.00
 3 7 19 -0.86 0.00
 -30 0 20 -0.08 0.00
 -28 0 20 0.46 0.00
 12 0 20 1.41 0.00
 14 0 20 0.11 0.00
 -29 1 20 -0.02 0.00
 -27 1 20 0.44 0.00
 13 1 20 -0.56 0.00
 15 1 20 -0.89 0.00
 -28 2 20 -0.47 0.00
 -26 2 20 0.08 0.00
 12 2 20 -2.42 0.00
 14 2 20 -1.72 0.00
 -27 3 20 -1.03 0.00
 -25 3 20 -0.55 0.00
 9 3 20 -2.62 0.00
 11 3 20 -2.26 0.00
 13 3 20 -1.34 0.00
 -26 4 20 -1.48 0.00
 -24 4 20 -1.29 0.00
 -22 4 20 -0.47 0.00
 6 4 20 -0.73 0.00
 8 4 20 -0.74 0.00
 10 4 20 -0.48 0.00
 -23 5 20 -1.43 0.00
 -21 5 20 -0.67 0.00
 -19 5 20 0.73 0.00
 3 5 20 -1.18 0.00
 5 5 20 -0.55 0.00
 7 5 20 -0.04 0.00
 -18 6 20 1.19 0.00
 -16 6 20 2.70 0.00
 -14 6 20 3.65 0.00
 -12 6 20 3.40 0.00
 -10 6 20 1.87 0.00
 -8 6 20 -0.29 0.00
 -6 6 20 -2.11 0.00
 -4 6 20 -2.92 0.00
 -2 6 20 -2.68 0.00
 0 6 20 -1.88 0.00
 2 6 20 -1.05 0.00
 4 6 20 -0.46 0.00
 -9 7 20 -0.48 0.00
 -7 7 20 -1.39 0.00
 -27 1 21 -0.37 0.00
 -25 1 21 -0.36 0.00
 9 1 21 -2.83 0.00
 11 1 21 -2.43 0.00
 -26 2 21 -0.74 0.00
 -24 2 21 -0.87 0.00
 6 2 21 -1.10 0.00
 8 2 21 -1.84 0.00
 10 2 21 -1.93 0.00
 -25 3 21 -1.13 0.00
 -23 3 21 -1.46 0.00
 -21 3 21 -1.22 0.00
 -19 3 21 -0.44 0.00
 3 3 21 0.21 0.00
 5 3 21 0.52 0.00
 7 3 21 0.49 0.00
 9 3 21 0.28 0.00
 -22 4 21 -1.27 0.00
 -20 4 21 -0.75 0.00
 -18 4 21 0.43 0.00
 -16 4 21 1.83 0.00
 -2 4 21 -2.29 0.00
 0 4 21 -1.21 0.00
 2 4 21 -0.02 0.00
 4 4 21 0.78 0.00
 6 4 21 1.01 0.00
 -19 5 21 -0.10 0.00
 -17 5 21 0.88 0.00
 -15 5 21 1.89 0.00
 -13 5 21 2.32 0.00
 -11 5 21 1.77 0.00
 -9 5 21 0.40 0.00
 -7 5 21 -1.12 0.00
 -5 5 21 -2.01 0.00
 -3 5 21 -1.86 0.00
 -1 5 21 -0.93 0.00
 1 5 21 0.16 0.00
 3 5 21 0.78 0.00
 -12 6 21 0.08 0.00
 -10 6 21 -0.32 0.00
 -8 6 21 -0.66 0.00
 -6 6 21 -0.70 0.00
 -4 6 21 -0.41 0.00
 -24 0 22 -1.29 0.00
 -22 0 22 -1.26 0.00
 -20 0 22 -0.85 0.00
 4 0 22 -0.32 0.00
 6 0 22 -1.05 0.00
 8 0 22 -1.57 0.00
 -25 1 22 -1.15 0.00
 -23 1 22 -1.35 0.00
 -21 1 22 -1.04 0.00
 -19 1 22 -0.35 0.00
 3 1 22 -0.03 0.00
 5 1 22 -0.27 0.00
 7 1 22 -0.41 0.00
 -24 2 22 -1.19 0.00
 -22 2 22 -0.99 0.00
 -20 2 22 -0.22 0.00
 -18 2 22 0.81 0.00
 0 2 22 -0.67 0.00
 2 2 22 -0.32 0.00
 4 2 22 0.00 0.00
 6 2 22 0.49 0.00
 -21 3 22 0.21 0.00
 -19 3 22 1.13 0.00
 -17 3 22 1.86 0.00
 -15 3 22 2.00 0.00
 -13 3 22 1.40 0.00
 -3 3 22 -1.81 0.00
 -1 3 22 -1.11 0.00
 1 3 22 -0.57 0.00
 3 3 22 -0.28 0.00
 5 3 22 -0.04 0.00
 -18 4 22 1.53 0.00
 -16 4 22 1.46 0.00
 -14 4 22 0.88 0.00
 -12 4 22 -0.09 0.00
 -10 4 22 -1.07 0.00
 -8 4 22 -1.66 0.00
 -6 4 22 -1.61 0.00
 -4 4 22 -1.05 0.00
 -2 4 22 -0.39 0.00
 0 4 22 -0.04 0.00
 2 4 22 -0.14 0.00
 -11 5 22 -1.64 0.00
 -9 5 22 -1.69 0.00
 -7 5 22 -1.00 0.00
 -5 5 22 0.04 0.00
 0 0 0 0.00 0.00
# SQUEEZE RESULTS (Version = 110516)
# Note: Data are Listed for all Voids in the P1 Unit Cell
# i.e. Centre of Gravity, Solvent Accessible Volume,
# Recovered number of Electrons in the Void and
# Details about the Squeezed Material
;
_platon_squeeze_void_probe_radius 1.20
loop_
_space_group_symop_operation_xyz
'x, y, z'
'-x, y, -z+1/2'
'x+1/2, y+1/2, z'
'-x+1/2, y+1/2, -z+1/2'
'-x, -y, -z'
'x, -y, z-1/2'
'-x+1/2, -y+1/2, -z'
'x+1/2, -y+1/2, z-1/2'
loop_
_atom_site_label
_atom_site_type_symbol
_atom_site_fract_x
_atom_site_fract_y
_atom_site_fract_z
_atom_site_U_iso_or_equiv
_atom_site_adp_type
_atom_site_occupancy
_atom_site_site_symmetry_order
_atom_site_calc_flag
_atom_site_refinement_flags_posn
_atom_site_refinement_flags_adp
_atom_site_refinement_flags_occupancy
_atom_site_disorder_assembly
_atom_site_disorder_group
Zn1 Zn 0.35167(2) -0.20403(6) 0.04285(3) 0.01553(17) Uani 1 1 d . . . . .
Zn2 Zn 0.2500 -0.2500 0.0000 0.0133(2) Uani 1 2 d S T P . .
O1 O 0.27730(10) -0.3215(3) 0.10394(17) 0.0234(7) Uani 1 1 d . . . . .
O2 O 0.34788(10) -0.3157(3) 0.12887(17) 0.0231(7) Uani 1 1 d . . . . .
O3 O 0.28251(10) -0.6178(3) 0.44691(17) 0.0226(7) Uani 1 1 d . . . . .
O4 O 0.34869(10) -0.6855(3) 0.45191(18) 0.0283(8) Uani 1 1 d . . . . .
O5 O 0.29917(9) -0.0928(3) 0.01038(17) 0.0183(7) Uani 1 1 d . . . . .
O6 O 0.32445(12) 0.0149(3) 0.1173(2) 0.0403(10) Uani 1 1 d . . . . .
O7 O 0.39701(14) -0.0758(5) 0.0350(3) 0.0648(15) Uani 1 1 d . . . . .
O8 O 0.43504(16) -0.2658(6) 0.0653(3) 0.0796(17) Uani 1 1 d . . . . .
C1 C 0.31241(14) -0.3446(4) 0.1433(3) 0.0184(10) Uani 1 1 d . . . . .
C2 C 0.31371(14) -0.4153(4) 0.2167(2) 0.0193(10) Uani 1 1 d . . . . .
C3 C 0.35154(15) -0.4565(5) 0.2617(3) 0.0277(12) Uani 1 1 d . . . . .
H3 H 0.3771 -0.4390 0.2468 0.033 Uiso 1 1 calc R . . . .
C4 C 0.35203(15) -0.5227(5) 0.3280(3) 0.0264(11) Uani 1 1 d . . . . .
H4 H 0.3780 -0.5517 0.3583 0.032 Uiso 1 1 calc R . . . .
C5 C 0.31475(14) -0.5475(5) 0.3508(3) 0.0205(10) Uani 1 1 d . . . . .
C6 C 0.27734(14) -0.5044(5) 0.3066(3) 0.0241(11) Uani 1 1 d . . . . .
H6 H 0.2518 -0.5198 0.3222 0.029 Uiso 1 1 calc R . . . .
C7 C 0.27664(14) -0.4392(5) 0.2400(3) 0.0240(11) Uani 1 1 d . . . . .
H7 H 0.2506 -0.4103 0.2098 0.029 Uiso 1 1 calc R . . . .
C8 C 0.31510(14) -0.6231(4) 0.4223(3) 0.0195(10) Uani 1 1 d . . . . .
C9 C 0.30092(15) 0.0112(5) 0.0560(3) 0.0220(10) Uani 1 1 d . . . . .
C10 C 0.27332(14) 0.1332(4) 0.0269(3) 0.0191(10) Uani 1 1 d . . . . .
C11 C 0.26925(15) 0.2416(4) 0.0749(3) 0.0234(11) Uani 1 1 d . . . . .
H11 H 0.2825 0.2357 0.1260 0.028 Uiso 1 1 calc R . . . .
C12 C 0.25403(14) 0.1422(5) -0.0479(3) 0.0226(10) Uani 1 1 d . . . . .
H12 H 0.2568 0.0683 -0.0806 0.027 Uiso 1 1 calc R . . . .
C13 C 0.4301(2) -0.1410(8) 0.0434(4) 0.0556(19) Uani 1 1 d . . . . .
C14 C 0.46662(19) -0.0671(7) 0.0212(4) 0.0517(18) Uani 1 1 d . . . . .
C15 C 0.5053(2) -0.1302(7) 0.0325(4) 0.065(2) Uani 1 1 d . . . . .
H15 H 0.5094 -0.2196 0.0546 0.078 Uiso 1 1 calc R . . . .
C16 C 0.4616(2) 0.0624(7) -0.0112(4) 0.064(2) Uani 1 1 d . . . . .
H16 H 0.4349 0.1062 -0.0192 0.077 Uiso 1 1 calc R . . . .
O9 O 0.5349(5) 0.336(2) 0.3288(10) 0.099(6) Uani 0.35 1 d D U . A 2
N3 N 0.5969(5) 0.3324(16) 0.4038(8) 0.051(3) Uani 0.35 1 d D U . A 2
C31 C 0.5608(8) 0.360(3) 0.3850(17) 0.091(7) Uani 0.35 1 d D U . A 2
H31 H 0.5502 0.4114 0.4210 0.109 Uiso 0.35 1 calc R . . A 2
C32 C 0.6168(7) 0.270(2) 0.3560(11) 0.072(5) Uani 0.35 1 d D U . A 2
H32A H 0.6203 0.1708 0.3682 0.109 Uiso 0.35 1 calc GR . . A 2
H32B H 0.6444 0.3125 0.3598 0.109 Uiso 0.35 1 calc GR . . A 2
H32C H 0.6002 0.2804 0.3052 0.109 Uiso 0.35 1 calc GR . . A 2
C33 C 0.6187(7) 0.362(3) 0.4723(12) 0.073(5) Uani 0.35 1 d D U . A 2
H33A H 0.6290 0.2764 0.4983 0.109 Uiso 0.35 1 calc GR . . A 2
H33B H 0.6005 0.4112 0.4998 0.109 Uiso 0.35 1 calc GR . . A 2
H33C H 0.6426 0.4218 0.4689 0.109 Uiso 0.35 1 calc GR . . A 2
O10 O 0.4270(6) -0.097(2) 0.2723(10) 0.092(5) Uani 0.35 1 d D U . B 2
N4 N 0.3814(8) 0.020(3) 0.307(3) 0.115(8) Uani 0.35 1 d D U . B 2
C34 C 0.3922(7) -0.087(3) 0.2828(13) 0.085(6) Uani 0.35 1 d D U . B 2
H34 H 0.3731 -0.1624 0.2721 0.102 Uiso 0.35 1 calc R . . B 2
C35 C 0.4058(9) 0.134(3) 0.325(2) 0.112(9) Uani 0.35 1 d D U . B 2
H35A H 0.4041 0.1655 0.3746 0.168 Uiso 0.35 1 calc GR . . B 2
H35B H 0.3960 0.2074 0.2887 0.168 Uiso 0.35 1 calc GR . . B 2
H35C H 0.4350 0.1103 0.3243 0.168 Uiso 0.35 1 calc GR . . B 2
C36 C 0.3408(7) 0.031(3) 0.3111(16) 0.121(8) Uani 0.35 1 d D U . B 2
H36A H 0.3228 -0.0012 0.2647 0.181 Uiso 0.35 1 calc GR . . B 2
H36B H 0.3344 0.1289 0.3193 0.181 Uiso 0.35 1 calc GR . . B 2
H36C H 0.3357 -0.0249 0.3526 0.181 Uiso 0.35 1 calc GR . . B 2
N1 N 0.6190(5) 0.0145(16) 0.2046(13) 0.046(4) Uani 0.45 1 d D . . C -1
N2 N 0.4157(2) 0.2984(10) 0.1275(6) 0.051(3) Uani 0.45 1 d D . . C -1
C27 C 0.4503(3) 0.3831(8) 0.1280(7) 0.074(8) Uani 0.45 1 d DG . . C -1
H27 H 0.4463 0.4772 0.1128 0.089 Uiso 0.45 1 calc R . . C -1
C28 C 0.4906(3) 0.3300(9) 0.1508(7) 0.055(4) Uani 0.45 1 d DG . . C -1
H28 H 0.5142 0.3878 0.1512 0.066 Uiso 0.45 1 calc R . . C -1
C24 C 0.4964(2) 0.1922(9) 0.1731(5) 0.047(4) Uani 0.45 1 d DG . . C -1
C25 C 0.4618(3) 0.1076(7) 0.1725(5) 0.048(4) Uani 0.45 1 d DG . . C -1
H25 H 0.4658 0.0134 0.1878 0.057 Uiso 0.45 1 calc R . . C -1
C26 C 0.4215(2) 0.1607(9) 0.1498(5) 0.047(3) Uani 0.45 1 d DG . . C -1
H26 H 0.3979 0.1028 0.1494 0.056 Uiso 0.45 1 calc R . . C -1
C17 C 0.6616(4) -0.1197(16) 0.1480(8) 0.052(4) Uani 0.45 1 d . . . C -1
H17A H 0.6896 -0.1608 0.1538 0.078 Uiso 0.45 1 calc GR . . C -1
H17B H 0.6569 -0.0535 0.1066 0.078 Uiso 0.45 1 calc GR . . C -1
H17C H 0.6404 -0.1932 0.1376 0.078 Uiso 0.45 1 calc GR . . C -1
C18 C 0.6587(4) -0.0514(15) 0.2128(9) 0.052(4) Uani 0.45 1 d D . . C -1
H18A H 0.6813 0.0190 0.2250 0.062 Uiso 0.45 1 calc R . . C -1
H18B H 0.6626 -0.1187 0.2543 0.062 Uiso 0.45 1 calc R . . C -1
C19 C 0.5922(5) -0.044(2) 0.2434(10) 0.052(4) Uani 0.45 1 d D U . C -1
H19 H 0.6009 -0.1195 0.2764 0.063 Uiso 0.45 1 calc R . . C -1
C20 C 0.5484(5) 0.0138(16) 0.2321(8) 0.054(3) Uani 0.45 1 d D U . C -1
H20 H 0.5281 -0.0270 0.2554 0.065 Uiso 0.45 1 calc R . . C -1
C21 C 0.5389(4) 0.1288(13) 0.1865(7) 0.038(3) Uani 0.45 1 d D U . C -1
C22 C 0.5707(4) 0.1799(14) 0.1566(8) 0.039(3) Uani 0.45 1 d D U . C -1
H22 H 0.5643 0.2593 0.1257 0.047 Uiso 0.45 1 calc R . . C -1
C23 C 0.6095(5) 0.1312(16) 0.1659(10) 0.036(3) Uani 0.45 1 d D U . C -1
H23 H 0.6300 0.1782 0.1454 0.043 Uiso 0.45 1 calc R . . C -1
C29 C 0.3753(4) 0.3523(14) 0.0953(10) 0.053(4) Uani 0.45 1 d D . . C -1
H29A H 0.3751 0.4533 0.1048 0.064 Uiso 0.45 1 calc R . . C -1
H29B H 0.3543 0.3086 0.1196 0.064 Uiso 0.45 1 calc R . . C -1
C30 C 0.3630(4) 0.3279(18) 0.0148(9) 0.048(4) Uani 0.45 1 d . . . C -1
H30A H 0.3631 0.2280 0.0050 0.071 Uiso 0.45 1 calc GR . . C -1
H30B H 0.3830 0.3743 -0.0099 0.071 Uiso 0.45 1 calc GR . . C -1
H30C H 0.3348 0.3653 -0.0042 0.071 Uiso 0.45 1 calc GR . . C -1
O11 O 0.5432(5) 0.4153(13) 0.1787(9) 0.088(5) Uani 0.35 1 d . . . D 2
loop_
_atom_site_aniso_label
_atom_site_aniso_U_11
_atom_site_aniso_U_22
_atom_site_aniso_U_33
_atom_site_aniso_U_23
_atom_site_aniso_U_13
_atom_site_aniso_U_12
Zn1 0.0173(3) 0.0130(3) 0.0182(3) -0.0004(2) 0.0081(2) -0.0025(2)
Zn2 0.0156(4) 0.0106(4) 0.0154(4) -0.0001(3) 0.0069(3) 0.0004(3)
O1 0.0250(18) 0.0267(19) 0.0178(18) 0.0046(14) 0.0031(14) -0.0049(14)
O2 0.0238(18) 0.0252(19) 0.0233(18) 0.0068(14) 0.0117(14) 0.0022(14)
O3 0.0277(18) 0.0146(17) 0.031(2) 0.0068(14) 0.0188(15) 0.0005(13)
O4 0.0212(18) 0.039(2) 0.027(2) 0.0146(16) 0.0096(15) 0.0048(15)
O5 0.0191(16) 0.0094(15) 0.0284(19) -0.0013(13) 0.0098(14) -0.0014(12)
O6 0.052(2) 0.021(2) 0.037(2) -0.0066(16) -0.0122(19) 0.0122(17)
O7 0.040(3) 0.070(3) 0.096(4) -0.042(3) 0.039(3) -0.032(2)
O8 0.063(3) 0.090(4) 0.087(4) 0.025(3) 0.020(3) -0.037(3)
C1 0.023(2) 0.010(2) 0.022(3) -0.0016(18) 0.007(2) 0.0009(18)
C2 0.023(2) 0.017(2) 0.019(3) 0.0028(19) 0.007(2) -0.0002(18)
C3 0.020(2) 0.038(3) 0.028(3) 0.014(2) 0.012(2) 0.002(2)
C4 0.020(2) 0.033(3) 0.027(3) 0.013(2) 0.006(2) 0.002(2)
C5 0.022(2) 0.019(2) 0.023(3) 0.0047(19) 0.010(2) 0.0006(19)
C6 0.019(2) 0.031(3) 0.026(3) 0.007(2) 0.011(2) 0.001(2)
C7 0.018(2) 0.031(3) 0.023(3) 0.009(2) 0.004(2) 0.002(2)
C8 0.023(2) 0.014(2) 0.023(3) 0.0004(19) 0.009(2) -0.0024(18)
C9 0.026(3) 0.012(2) 0.029(3) 0.001(2) 0.009(2) 0.0010(19)
C10 0.022(2) 0.008(2) 0.028(3) 0.0004(18) 0.006(2) -0.0013(17)
C11 0.031(3) 0.013(2) 0.024(3) -0.002(2) 0.004(2) -0.001(2)
C12 0.030(3) 0.009(2) 0.030(3) -0.0030(19) 0.009(2) -0.0004(19)
C13 0.051(4) 0.068(5) 0.050(4) -0.014(4) 0.017(3) -0.037(4)
C14 0.033(3) 0.067(5) 0.058(4) 0.002(3) 0.014(3) -0.024(3)
C15 0.044(4) 0.059(5) 0.093(6) 0.016(4) 0.015(4) -0.020(3)
C16 0.030(3) 0.072(5) 0.093(6) 0.012(4) 0.020(4) -0.012(3)
O9 0.066(11) 0.137(13) 0.082(11) -0.043(10) -0.007(9) 0.046(10)
N3 0.029(6) 0.067(6) 0.056(7) -0.020(5) 0.004(5) -0.003(4)
C31 0.055(12) 0.130(13) 0.084(12) -0.035(11) 0.005(10) 0.039(11)
C32 0.051(9) 0.092(11) 0.066(10) -0.008(9) -0.004(9) 0.008(9)
C33 0.056(10) 0.081(11) 0.070(11) -0.026(9) -0.008(9) 0.002(9)
O10 0.092(13) 0.082(12) 0.096(12) -0.020(9) 0.009(11) -0.024(11)
N4 0.091(15) 0.128(16) 0.109(15) -0.064(12) -0.012(13) 0.019(14)
C34 0.080(13) 0.088(13) 0.087(13) -0.027(10) 0.015(11) -0.026(12)
C35 0.099(17) 0.116(18) 0.107(16) -0.060(14) -0.011(15) 0.020(15)
C36 0.090(15) 0.143(17) 0.116(16) -0.076(14) -0.008(14) 0.027(15)
N1 0.043(8) 0.037(8) 0.052(10) 0.015(7) -0.008(7) -0.004(6)
N2 0.029(6) 0.067(6) 0.056(7) -0.020(5) 0.004(5) -0.003(4)
C27 0.030(10) 0.093(16) 0.089(18) 0.039(13) -0.010(11) -0.023(9)
C28 0.041(9) 0.039(9) 0.079(13) 0.004(8) 0.001(8) -0.002(7)
C24 0.042(8) 0.049(9) 0.046(9) -0.003(7) 0.002(7) -0.018(7)
C25 0.036(8) 0.046(9) 0.060(10) -0.011(7) 0.009(7) -0.009(6)
C26 0.049(9) 0.033(8) 0.058(9) -0.014(7) 0.013(7) -0.007(6)
C17 0.045(8) 0.073(11) 0.048(9) 0.019(8) 0.031(7) 0.012(7)
C18 0.040(8) 0.045(9) 0.074(12) 0.028(8) 0.019(8) -0.001(7)
C19 0.038(8) 0.071(10) 0.048(8) 0.006(7) 0.009(7) -0.011(7)
C20 0.050(7) 0.060(8) 0.052(7) 0.001(6) 0.010(6) -0.005(6)
C21 0.039(6) 0.034(6) 0.038(6) 0.000(5) 0.000(5) -0.002(5)
C22 0.041(6) 0.036(6) 0.040(6) 0.001(5) 0.009(5) -0.007(5)
C23 0.048(7) 0.028(6) 0.037(7) 0.000(5) 0.022(6) -0.018(6)
C29 0.044(9) 0.027(8) 0.091(14) -0.006(8) 0.020(9) 0.004(7)
C30 0.024(8) 0.055(10) 0.059(11) 0.027(8) 0.000(7) -0.007(7)
O11 0.117(14) 0.045(9) 0.108(13) -0.002(8) 0.034(11) -0.014(9)
loop_
_atom_type_symbol
_atom_type_description
_atom_type_scat_dispersion_real
_atom_type_scat_dispersion_imag
_atom_type_scat_source
C C 0.0181 0.0091 'International Tables Vol C Tables 4.2.6.8 and 6.1.1.4'
H H 0.0000 0.0000 'International Tables Vol C Tables 4.2.6.8 and 6.1.1.4'
N N 0.0311 0.0180 'International Tables Vol C Tables 4.2.6.8 and 6.1.1.4'
O O 0.0492 0.0322 'International Tables Vol C Tables 4.2.6.8 and 6.1.1.4'
Zn Zn -1.5491 0.6778 'International Tables Vol C Tables 4.2.6.8 and 6.1.1.4'
loop_
_geom_angle_atom_site_label_1
_geom_angle_atom_site_label_2
_geom_angle_atom_site_label_3
_geom_angle
_geom_angle_site_symmetry_1
_geom_angle_site_symmetry_3
_geom_angle_publ_flag
O2 Zn1 O4 113.30(14) . 6_545 ?
O2 Zn1 O5 109.82(12) . . ?
O2 Zn1 O7 126.40(18) . . ?
O4 Zn1 O5 98.85(13) 6_545 . ?
O7 Zn1 O4 100.15(16) . 6_545 ?
O7 Zn1 O5 104.60(17) . . ?
O1 Zn2 O1 180.0 . 7_545 ?
O1 Zn2 O5 89.37(12) . . ?
O1 Zn2 O5 90.63(12) . 7_545 ?
O1 Zn2 O5 90.64(12) 7_545 . ?
O1 Zn2 O5 89.37(12) 7_545 7_545 ?
O3 Zn2 O1 85.81(13) 6_545 7_545 ?
O3 Zn2 O1 85.81(13) 4 . ?
O3 Zn2 O1 94.19(13) 6_545 . ?
O3 Zn2 O1 94.19(13) 4 7_545 ?
O3 Zn2 O3 180.00(16) 6_545 4 ?
O3 Zn2 O5 91.50(11) 4 7_545 ?
O3 Zn2 O5 88.50(11) 4 . ?
O3 Zn2 O5 88.50(11) 6_545 7_545 ?
O3 Zn2 O5 91.50(11) 6_545 . ?
O5 Zn2 O5 180.0 . 7_545 ?
C1 O1 Zn2 140.2(3) . . ?
C1 O2 Zn1 120.9(3) . . ?
C8 O3 Zn2 136.4(3) . 4_545 ?
C8 O4 Zn1 120.1(3) . 6_546 ?
Zn1 O5 Zn2 102.73(12) . . ?
C9 O5 Zn1 107.7(3) . . ?
C9 O5 Zn2 121.2(3) . . ?
C13 O7 Zn1 109.0(4) . . ?
O1 C1 O2 127.4(4) . . ?
O1 C1 C2 116.7(4) . . ?
O2 C1 C2 115.9(4) . . ?
C3 C2 C1 120.9(4) . . ?
C3 C2 C7 119.3(4) . . ?
C7 C2 C1 119.8(4) . . ?
C4 C3 C2 120.1(4) . . ?
C3 C4 C5 120.4(4) . . ?
C4 C5 C8 120.5(4) . . ?
C6 C5 C4 119.3(4) . . ?
C6 C5 C8 120.2(4) . . ?
C7 C6 C5 120.5(4) . . ?
C6 C7 C2 120.4(4) . . ?
O3 C8 O4 126.2(4) . . ?
O3 C8 C5 117.1(4) . . ?
O4 C8 C5 116.7(4) . . ?
O5 C9 C10 115.5(4) . . ?
O6 C9 O5 123.5(4) . . ?
O6 C9 C10 120.9(4) . . ?
C11 C10 C9 119.4(4) . . ?
C12 C10 C9 120.6(4) . . ?
C12 C10 C11 119.9(4) . . ?
C12 C11 C10 119.9(5) 7 . ?
C11 C12 C10 120.2(4) 7 . ?
O7 C13 O8 124.9(6) . . ?
O7 C13 C14 116.4(7) . . ?
O8 C13 C14 118.5(7) . . ?
C15 C14 C13 120.0(7) . . ?
C15 C14 C16 119.1(6) . . ?
C16 C14 C13 120.9(6) . . ?
C14 C15 C16 119.6(6) . 5_655 ?
C14 C16 C15 121.4(6) . 5_655 ?
C31 N3 C32 120(2) . . ?
C31 N3 C33 121.3(19) . . ?
C33 N3 C32 118.6(18) . . ?
N3 C31 O9 132(3) . . ?
C34 N4 C35 125(2) . . ?
C34 N4 C36 117.6(19) . . ?
C36 N4 C35 117(2) . . ?
O10 C34 N4 120(2) . . ?
C19 N1 C18 115.6(15) . . ?
C23 N1 C18 122.3(15) . . ?
C23 N1 C19 122.0(14) . . ?
C27 N2 C26 120.0 . . ?
C27 N2 C29 117.8(9) . . ?
C26 N2 C29 121.7(9) . . ?
C28 C27 N2 120.0 . . ?
C27 C28 C24 120.0 . . ?
C28 C24 C25 120.0 . . ?
C28 C24 C21 120.2(8) . . ?
C25 C24 C21 119.1(8) . . ?
C26 C25 C24 120.0 . . ?
C25 C26 N2 120.0 . . ?
C17 C18 N1 110.6(15) . . ?
N1 C19 C20 118.0(16) . . ?
C21 C20 C19 117.4(14) . . ?
C20 C21 C24 120.5(12) . . ?
C22 C21 C24 123.2(12) . . ?
C22 C21 C20 116.3(12) . . ?
C23 C22 C21 127.4(13) . . ?
C22 C23 N1 118.2(14) . . ?
N2 C29 C30 112.9(13) . . ?
loop_
_geom_bond_atom_site_label_1
_geom_bond_atom_site_label_2
_geom_bond_distance
_geom_bond_site_symmetry_2
_geom_bond_publ_flag
Zn1 O2 1.943(3) . ?
Zn1 O4 1.970(3) 6_545 ?
Zn1 O5 2.000(3) . ?
Zn1 O7 1.957(4) . ?
Zn2 O1 2.050(3) 7_545 ?
Zn2 O1 2.050(3) . ?
Zn2 O3 2.039(3) 6_545 ?
Zn2 O3 2.039(3) 4 ?
Zn2 O5 2.185(3) . ?
Zn2 O5 2.185(3) 7_545 ?
O1 C1 1.236(5) . ?
O2 C1 1.273(5) . ?
O3 Zn2 2.039(3) 4_545 ?
O3 C8 1.245(5) . ?
O4 Zn1 1.970(3) 6_546 ?
O4 C8 1.266(5) . ?
O5 C9 1.302(5) . ?
O6 C9 1.221(6) . ?
O7 C13 1.230(8) . ?
O8 C13 1.267(8) . ?
C1 C2 1.509(6) . ?
C2 C3 1.388(6) . ?
C2 C7 1.389(6) . ?
C3 C4 1.375(6) . ?
C4 C5 1.392(6) . ?
C5 C6 1.378(6) . ?
C5 C8 1.504(6) . ?
C6 C7 1.374(6) . ?
C9 C10 1.507(6) . ?
C10 C11 1.393(6) . ?
C10 C12 1.389(6) . ?
C11 C12 1.383(6) 7 ?
C12 C11 1.383(6) 7 ?
C13 C14 1.519(7) . ?
C14 C15 1.377(8) . ?
C14 C16 1.377(8) . ?
C15 C16 1.391(8) 5_655 ?
C16 C15 1.391(8) 5_655 ?
O9 C31 1.21(2) . ?
N3 C31 1.18(2) . ?
N3 C32 1.347(15) . ?
N3 C33 1.341(16) . ?
O10 C34 1.20(2) . ?
N4 C34 1.20(3) . ?
N4 C35 1.354(17) . ?
N4 C36 1.350(17) . ?
N1 C18 1.421(13) . ?
N1 C19 1.37(2) . ?
N1 C23 1.33(2) . ?
N2 C27 1.3900 . ?
N2 C26 1.3900 . ?
N2 C29 1.422(12) . ?
C27 C28 1.3900 . ?
C28 C24 1.3900 . ?
C24 C25 1.3900 . ?
C24 C21 1.487(14) . ?
C25 C26 1.3900 . ?
C17 C18 1.39(2) . ?
C19 C20 1.51(2) . ?
C20 C21 1.385(17) . ?
C21 C22 1.368(17) . ?
C22 C23 1.33(2) . ?
C29 C30 1.47(2) . ?
loop_
_platon_squeeze_void_nr
_platon_squeeze_void_average_x
_platon_squeeze_void_average_y
_platon_squeeze_void_average_z
_platon_squeeze_void_volume
_platon_squeeze_void_count_electrons
_platon_squeeze_void_content
1 0.000 0.000 -0.006 262 66 ' '
2 0.500 0.500 0.725 262 66 ' '
loop_
_smtbx_masks_void_nr
_smtbx_masks_void_average_x
_smtbx_masks_void_average_y
_smtbx_masks_void_average_z
_smtbx_masks_void_volume
_smtbx_masks_void_count_electrons
_smtbx_masks_void_content
1 0.000 0.000 -0.541 273.7 63.3 ?
2 0.500 0.500 -0.298 273.7 63.3 ?
loop_
_platon_missing_refln_index_h
_platon_missing_refln_index_k
_platon_missing_refln_index_l
_platon_missing_refln_theta
2 0 0 2.774
2 0 2 6.150
7 1 2 12.752
