#------------------------------------------------------------------------------
#$Date: 2020-10-20 04:07:45 +0300 (Tue, 20 Oct 2020) $
#$Revision: 258481 $
#$URL: file:///home/coder/svn-repositories/cod/cif/1/55/93/1559380.cif $
#------------------------------------------------------------------------------
#
# This file is available in the Crystallography Open Database (COD),
# http://www.crystallography.net/
#
# All data on this site have been placed in the public domain by the
# contributors.
#
data_1559380
loop_
_publ_author_name
'Antonio, Alexandra M.'
'Korman, Kyle J.'
'Yap, Glenn'
'Bloch, Eric D.'
_publ_section_title
;
 Porous metal-organic alloys based on soluble coordination cages
;
_journal_name_full               'Chemical Science'
_journal_paper_doi               10.1039/D0SC04941G
_journal_year                    2020
_chemical_formula_moiety
; 
C224 H116 Cu24 N4 O144, 12[C10H21], 4[C9H21], 8[C8H19], 20[C3H7N] 
;
_chemical_formula_sum            'C504 H744 Cu24 N24 O144'
_chemical_formula_weight         10968.15
_space_group_crystal_system      monoclinic
_space_group_IT_number           12
_space_group_name_Hall           '-C 2y'
_space_group_name_H-M_alt        'C 1 2/m 1'
_atom_sites_solution_hydrogens   geom
_audit_creation_method           SHELXL-2018/3
_audit_update_record
;
2020-07-23 deposited with the CCDC.	2020-10-19 downloaded from the CCDC.
;
_cell_angle_alpha                90
_cell_angle_beta                 110.311(3)
_cell_angle_gamma                90
_cell_formula_units_Z            2
_cell_length_a                   38.162(2)
_cell_length_b                   30.3222(17)
_cell_length_c                   28.8145(17)
_cell_measurement_reflns_used    9845
_cell_measurement_temperature    150(2)
_cell_measurement_theta_max      43.82
_cell_measurement_theta_min      2.78
_cell_volume                     31270(3)
_computing_cell_refinement       'Bruker SAINT'
_computing_data_collection       'Bruker APEX2'
_computing_data_reduction        'Bruker SAINT'
_computing_molecular_graphics    'Bruker SHELXTL'
_computing_publication_material  'Bruker SHELXTL'
_computing_structure_refinement  'SHELXL-2018/3 (Sheldrick, 2018)'
_computing_structure_solution    'SHELXT 2014/5 (Sheldrick, 2014)'
_diffrn_ambient_temperature      150(2)
_diffrn_measured_fraction_theta_full 0.991
_diffrn_measured_fraction_theta_max 0.991
_diffrn_measurement_device_type  'Bruker APEX-II CCD'
_diffrn_measurement_method       '\f and \w scans'
_diffrn_radiation_type           CuK\a
_diffrn_radiation_wavelength     1.54178
_diffrn_reflns_av_R_equivalents  0.0618
_diffrn_reflns_av_unetI/netI     0.0381
_diffrn_reflns_Laue_measured_fraction_full 0.991
_diffrn_reflns_Laue_measured_fraction_max 0.991
_diffrn_reflns_limit_h_max       34
_diffrn_reflns_limit_h_min       -34
_diffrn_reflns_limit_k_max       27
_diffrn_reflns_limit_k_min       -27
_diffrn_reflns_limit_l_max       26
_diffrn_reflns_limit_l_min       -26
_diffrn_reflns_number            100219
_diffrn_reflns_point_group_measured_fraction_full 0.991
_diffrn_reflns_point_group_measured_fraction_max 0.991
_diffrn_reflns_theta_full        44.589
_diffrn_reflns_theta_max         44.589
_diffrn_reflns_theta_min         2.218
_exptl_absorpt_coefficient_mu    1.439
_exptl_absorpt_correction_type   none
_exptl_crystal_colour            blue
_exptl_crystal_density_diffrn    1.165
_exptl_crystal_description       block
_exptl_crystal_F_000             11568
_exptl_crystal_size_max          0.254
_exptl_crystal_size_mid          0.243
_exptl_crystal_size_min          0.241
_refine_diff_density_max         0.624
_refine_diff_density_min         -0.432
_refine_diff_density_rms         0.074
_refine_ls_extinction_method     none
_refine_ls_goodness_of_fit_ref   1.030
_refine_ls_hydrogen_treatment    constr
_refine_ls_matrix_type           full
_refine_ls_number_parameters     910
_refine_ls_number_reflns         12594
_refine_ls_number_restraints     1582
_refine_ls_restrained_S_all      0.992
_refine_ls_R_factor_all          0.1074
_refine_ls_R_factor_gt           0.0816
_refine_ls_shift/su_max          0.000
_refine_ls_shift/su_mean         0.000
_refine_ls_structure_factor_coef Fsqd
_refine_ls_weighting_details
'w=1/[\s^2^(Fo^2^)+(0.1821P)^2^+132.0763P] where P=(Fo^2^+2Fc^2^)/3'
_refine_ls_weighting_scheme      calc
_refine_ls_wR_factor_gt          0.2454
_refine_ls_wR_factor_ref         0.2855
_reflns_Friedel_coverage         0.000
_reflns_number_gt                8248
_reflns_number_total             12594
_reflns_threshold_expression     'I > 2\s(I)'
_cod_data_source_file            d0sc04941g2.cif
_cod_data_source_block           eric365
_cod_original_cell_volume        31269(3)
_cod_original_sg_symbol_H-M      'C 2/m'
_cod_database_code               1559380
_shelx_shelxl_version_number     2018/3
_shelx_space_group_comment
; 
The symmetry employed for this shelxl refinement is uniquely defined 
by the following loop, which should always be used as a source of 
symmetry information in preference to the above space-group names. 
They are only intended as comments. 
;
_shelx_estimated_absorpt_t_min   0.711
_shelx_estimated_absorpt_t_max   0.723
_shelx_res_file
; 
TITL eric365 in C2/m 
    eric365.res 
    created by SHELXL-2018/3 at 18:47:18 on 22-Jul-2020 
CELL 1.54178 38.1617 30.3222 28.8145 90 110.311 90 
ZERR 2 0.0021 0.0017 0.0017 0 0.003 0 
LATT 7 
SYMM -X,+Y,-Z 
SFAC C Cu H N O 
UNIT 1008 48 1488 48 288 
SIMU 0.02 0.04 2 
RIGU 0.02 0.02 
SIMU_3 0.002 0.004 2 O5 C9 C10 
RIGU_3 0.002 0.002 O5 C9 C10 
DFIX 1.504 0.014 C1_2 C2_2 C1_6 C2_6 
DFIX_7 1.469 0.014 C3 N1 
  
L.S. 20 0 704 
PLAN  10 
SIZE 0.241 0.243 0.254 
TEMP -123.14 
CONF 
BOND $H 
MORE -1 
fmap 2 
acta 
ABIN 
OMIT 0 8 2 
OMIT 8 6 4 
OMIT 9 9 1 
OMIT -8 0 6 
OMIT -11 5 7 
OMIT 1 3 5 
OMIT 4 2 0 
OMIT 2 10 3 
OMIT 9 7 3 
OMIT 1 11 7 
OMIT -5 3 6 
OMIT -12 4 7 
OMIT -14 2 1 
OMIT -1 1 3 
OMIT 0 0 3 
OMIT -4 0 2 
OMIT 3 3 0 
OMIT -4 0 3 
OMIT 0 0 1 
OMIT 2 0 1 
OMIT 0 2 0 
OMIT 2 0 0 
OMIT -1 1 2 
OMIT 0 2 1 
OMIT 4 0 3 
OMIT -10 0 3 
OMIT -9 3 1 
OMIT 2 2 0 
OMIT 1 3 1 
OMIT 2 0 3 
OMIT 2 2 3 
OMIT 2 2 1 
OMIT 0 2 3 
OMIT 1 5 0 
OMIT -2 2 2 
OMIT 1 1 1 
OMIT 2 2 2 
OMIT 1 1 0 
OMIT -6 0 4 
OMIT 0 0 4 
OMIT 2 2 4 
OMIT -2 4 2 
OMIT 1 3 4 
OMIT -1 3 4 
OMIT 7 3 3 
OMIT -4 6 4 
OMIT -1 1 4 
OMIT -11 3 2 
OMIT 0 6 2 
OMIT -1 7 2 
OMIT -2 6 1 
OMIT -8 2 2 
OMIT -12 2 4 
OMIT -1 7 1 
OMIT 7 3 4 
OMIT -7 1 7 
OMIT 5 3 2 
REM <olex2.extras> 
REM <HklSrc "%./eric365.hkl"> 
REM </olex2.extras> 
  
WGHT    0.182100  132.076300 
FVAR       0.05838 
CU1   2    0.529206    0.500000    0.242286    10.50000    0.06943    0.11311 = 
         0.07989    0.00000    0.04651    0.00000 
CU2   2    0.538698    0.500000    0.155664    10.50000    0.08351    0.13628 = 
         0.08286    0.00000    0.05341    0.00000 
CU3   2    0.353216    0.629341    0.270290    11.00000    0.09598    0.14104 = 
         0.09924    0.02356    0.05282    0.04239 
CU4   2    0.307906    0.674169    0.194833    11.00000    0.10854    0.17676 = 
         0.11203    0.03966    0.05402    0.05896 
CU5   2    0.327103    0.633062    0.530279    11.00000    0.06492    0.08146 = 
         0.11801    0.00956    0.06071    0.01193 
CU6   2    0.270547    0.676891    0.542304    11.00000    0.06465    0.08627 = 
         0.12584    0.00881    0.06095    0.01305 
CU7   2    0.500000    0.760890    0.500000    10.50000    0.07566    0.09482 = 
         0.16232    0.00000    0.07538    0.00000 
CU8   2    0.500000    0.848091    0.500000    10.50000    0.10212    0.09249 = 
         0.20419    0.00000    0.10583    0.00000 
O1    5    0.655678    0.624720    0.397936    11.00000    0.06908    0.10090 = 
         0.09856   -0.01263    0.04819   -0.02553 
O2    5    0.703687    0.661585    0.387532    11.00000    0.08816    0.10673 = 
         0.11921   -0.01149    0.06291   -0.03017 
O3    5    0.567742    0.545364    0.258352    11.00000    0.08776    0.11947 = 
         0.07927   -0.00736    0.04399   -0.01503 
O4    5    0.576116    0.545005    0.183825    11.00000    0.10933    0.14567 = 
         0.07689    0.00188    0.05760   -0.01588 
O5    5    0.678970    0.653352    0.205878    11.00000    0.26941    0.28113 = 
         0.18677   -0.04858    0.15323   -0.17244 
C1    1    0.674878    0.638727    0.373565    11.00000    0.08410    0.09060 = 
         0.10103   -0.02306    0.05735   -0.02742 
C2    1    0.659228    0.629577    0.318479    11.00000    0.09488    0.11904 = 
         0.11336   -0.00497    0.06202   -0.03345 
C3    1    0.675429    0.647925    0.286888    11.00000    0.14868    0.17166 = 
         0.11725   -0.02556    0.07683   -0.07468 
AFIX  43 
H3    3    0.696173    0.667240    0.299585    11.00000   -1.20000 
AFIX   0 
C4    1    0.661738    0.638401    0.237499    11.00000    0.19937    0.20339 = 
         0.13638   -0.02994    0.11466   -0.10585 
C5    1    0.630644    0.609857    0.217485    11.00000    0.16906    0.17872 = 
         0.11103   -0.02318    0.07942   -0.07136 
AFIX  43 
H5    3    0.620535    0.604407    0.182897    11.00000   -1.20000 
AFIX   0 
C6    1    0.615398    0.590189    0.249273    11.00000    0.10183    0.12810 = 
         0.09061   -0.00875    0.05982   -0.03743 
C7    1    0.628782    0.600560    0.298220    11.00000    0.09061    0.10566 = 
         0.09880   -0.00951    0.05163   -0.01606 
AFIX  43 
H7    3    0.617278    0.587873    0.319476    11.00000   -1.20000 
AFIX   0 
C8    1    0.584817    0.556467    0.227994    11.00000    0.08204    0.13583 = 
         0.07520    0.00689    0.04101   -0.00777 
C9    1    0.708592    0.682028    0.225642    11.00000    0.33716    0.33738 = 
         0.20712   -0.03674    0.16806   -0.18171 
  
RESI  1 
O1    5    0.491311    0.544659    0.213058    11.00000    0.08652    0.12911 = 
         0.08069    0.00245    0.05578    0.01692 
O2    5    0.499813    0.545584    0.139561    11.00000    0.09811    0.16123 = 
         0.08680    0.02076    0.06109    0.03311 
O3    5    0.384272    0.622709    0.229603    11.00000    0.10501    0.16653 = 
         0.10491    0.04572    0.05630    0.06675 
O4    5    0.345888    0.662723    0.164313    11.00000    0.12986    0.18925 = 
         0.11171    0.05418    0.06285    0.07063 
O5    5    0.406885    0.654035    0.036663    11.00000    0.35486    0.39876 = 
         0.18347    0.15648    0.18490    0.16652 
C1    1    0.483591    0.556733    0.169523    11.00000    0.07745    0.15220 = 
         0.08059    0.00542    0.05162    0.02292 
C2    1    0.452537    0.590712    0.149611    11.00000    0.11596    0.15958 = 
         0.08622    0.03171    0.06037    0.03916 
C3    1    0.445439    0.610263    0.104071    11.00000    0.16452    0.22455 = 
         0.12772    0.06469    0.09497    0.07556 
AFIX  43 
H3    3    0.461916    0.605015    0.086393    11.00000   -1.20000 
AFIX   0 
C4    1    0.415541    0.636706    0.084126    11.00000    0.19663    0.25915 = 
         0.12876    0.07870    0.09584    0.09929 
C5    1    0.391169    0.646450    0.110976    11.00000    0.16365    0.23043 = 
         0.11885    0.06764    0.08382    0.10459 
AFIX  43 
H5    3    0.370117    0.665149    0.097280    11.00000   -1.20000 
AFIX   0 
C6    1    0.399120    0.627814    0.157666    11.00000    0.12133    0.18905 = 
         0.10155    0.05581    0.06432    0.06872 
C7    1    0.429057    0.599759    0.175740    11.00000    0.10659    0.15206 = 
         0.08585    0.03573    0.05585    0.03664 
AFIX  43 
H7    3    0.433765    0.586199    0.207045    11.00000   -1.20000 
AFIX   0 
C8    1    0.375290    0.638690    0.187624    11.00000    0.11642    0.17112 = 
         0.10617    0.04905    0.06257    0.07752 
  
RESI  2 
O0    5    0.322861    0.579188    0.236857    11.00000    0.09748    0.15006 = 
         0.10047    0.01086    0.03513    0.02403 
O1    5    0.284119    0.616704    0.172317    11.00000    0.13334    0.16636 = 
         0.11469    0.04206    0.04523    0.05704 
O2    5    0.202158    0.500000    0.061875    10.50000    0.14397    0.33774 = 
         0.13671    0.00000   -0.00122    0.00000 
C1    1    0.297057    0.583483    0.194925    11.00000    0.10901    0.15684 = 
         0.08936    0.01817    0.05473    0.03272 
C2    1    0.278556    0.540458    0.172743    11.00000    0.10765    0.17507 = 
         0.09674    0.00621    0.04507    0.01507 
C3    1    0.248233    0.542173    0.128932    11.00000    0.11440    0.20671 = 
         0.12176    0.00286    0.03470    0.00125 
AFIX  43 
H3    3    0.238130    0.569101    0.113038    11.00000   -1.20000 
AFIX   0 
C4    1    0.233443    0.500000    0.109675    10.50000    0.11956    0.25195 = 
         0.13018    0.00000    0.03755    0.00000 
C5    1    0.293191    0.500000    0.194619    10.50000    0.10614    0.17206 = 
         0.07902    0.00000    0.04502    0.00000 
AFIX  43 
H5    3    0.313583    0.500000    0.225099    10.50000   -1.20000 
AFIX   0 
  
RESI  3 
O1    5    0.317568    0.642649    0.301721    11.00000    0.10140    0.13567 = 
         0.10668    0.03225    0.05655    0.04120 
O2    5    0.278375    0.681179    0.236380    11.00000    0.10630    0.17386 = 
         0.10134    0.04670    0.04083    0.05804 
O3    5    0.299948    0.648152    0.460051    11.00000    0.07258    0.09623 = 
         0.11223    0.00530    0.05825    0.02007 
O4    5    0.253766    0.685071    0.472001    11.00000    0.05734    0.08027 = 
         0.12829   -0.00083    0.05464    0.02047 
O5    5    0.179968    0.738116    0.296390    11.00000    0.10650    0.21413 = 
         0.13766    0.02558    0.05224    0.07969 
C1    1    0.288701    0.667425    0.279850    11.00000    0.09904    0.11653 = 
         0.10725    0.01944    0.03762    0.04051 
C2    1    0.265288    0.678636    0.313346    11.00000    0.08266    0.11416 = 
         0.10891    0.00764    0.05710    0.02772 
C3    1    0.232874    0.702523    0.290917    11.00000    0.08721    0.13533 = 
         0.13439   -0.00035    0.05291    0.03953 
AFIX  43 
H3    3    0.224782    0.710142    0.256838    11.00000   -1.20000 
AFIX   0 
C4    1    0.212456    0.714971    0.321473    11.00000    0.08432    0.13697 = 
         0.12961    0.00560    0.04204    0.04317 
C5    1    0.225174    0.705958    0.370378    11.00000    0.07120    0.09964 = 
         0.10786    0.00695    0.04529    0.02169 
AFIX  43 
H5    3    0.212013    0.716465    0.390738    11.00000   -1.20000 
AFIX   0 
C6    1    0.256991    0.681710    0.390505    11.00000    0.05944    0.07982 = 
         0.11973    0.00801    0.05339    0.01631 
C7    1    0.276513    0.667854    0.362342    11.00000    0.07521    0.09315 = 
         0.11628    0.01554    0.04927    0.02316 
AFIX  43 
H7    3    0.298293    0.650420    0.376670    11.00000   -1.20000 
AFIX   0 
C8    1    0.272258    0.671947    0.447176    11.00000    0.05464    0.06001 = 
         0.13296    0.01373    0.05887    0.02295 
C9    1    0.152302    0.741773    0.319473    11.00000    0.10702    0.21568 = 
         0.13994    0.02621    0.05277    0.07869 
AFIX  23 
H9A   3    0.158723    0.766693    0.343141    11.00000   -1.20000 
H9B   3    0.152173    0.714456    0.338230    11.00000   -1.20000 
AFIX   0 
C10   1    0.112740    0.749373    0.280282    11.00000    0.11637    0.22593 = 
         0.15492    0.03150    0.04307    0.07162 
  
RESI  4 
O1    5    0.296545    0.580664    0.523133    11.00000    0.06193    0.08747 = 
         0.13419    0.00195    0.06430    0.00722 
O2    5    0.248329    0.617279    0.532371    11.00000    0.06957    0.09430 = 
         0.15766    0.01236    0.07137    0.00862 
O3    5    0.150119    0.500000    0.509414    10.50000    0.11786    0.17403 = 
         0.36580    0.00000    0.15313    0.00000 
C1    1    0.265397    0.582969    0.526876    11.00000    0.06251    0.07966 = 
         0.14789    0.03023    0.06900    0.01933 
C2    1    0.244250    0.539251    0.521301    11.00000    0.06388    0.07996 = 
         0.15546    0.01034    0.07020    0.00520 
C3    1    0.206890    0.539929    0.516876    11.00000    0.08930    0.08313 = 
         0.21833    0.01465    0.08495    0.00153 
AFIX  43 
H3    3    0.194149    0.567068    0.515594    11.00000   -1.20000 
AFIX   0 
C4    1    0.188586    0.500000    0.514368    10.50000    0.08452    0.10767 = 
         0.25049    0.00000    0.10295    0.00000 
C5    1    0.262338    0.500000    0.522835    10.50000    0.06848    0.07152 = 
         0.13860    0.00000    0.06442    0.00000 
AFIX  43 
H5    3    0.287750    0.500000    0.524990    10.50000   -1.20000 
AFIX   0 
  
RESI  5 
O1    5    0.351301    0.690975    0.539402    11.00000    0.05947    0.08292 = 
         0.14643    0.00436    0.06484    0.00895 
O2    5    0.303669    0.727533    0.550589    11.00000    0.06678    0.08556 = 
         0.12636    0.00210    0.06306    0.01759 
O3    5    0.458056    0.768020    0.523836    11.00000    0.09068    0.08365 = 
         0.17257    0.00984    0.08521   -0.00531 
O4    5    0.458723    0.842585    0.525117    11.00000    0.12121    0.07059 = 
         0.18927   -0.00996    0.10832   -0.00490 
O5    5    0.352130    0.886166    0.573627    11.00000    0.09190    0.09172 = 
         0.19493   -0.02242    0.08458    0.00579 
C1    1    0.334800    0.725158    0.545191    11.00000    0.06925    0.06996 = 
         0.13098    0.01956    0.06751    0.02611 
C2    1    0.356816    0.767534    0.548521    11.00000    0.07552    0.07515 = 
         0.13251   -0.00330    0.06850    0.00871 
C3    1    0.342595    0.807749    0.557897    11.00000    0.06926    0.08032 = 
         0.13861    0.00199    0.06020    0.00481 
AFIX  43 
H3    3    0.318925    0.808397    0.561920    11.00000   -1.20000 
AFIX   0 
C4    1    0.362031    0.845950    0.561361    11.00000    0.07626    0.08162 = 
         0.15353   -0.00376    0.06485    0.00421 
C5    1    0.396359    0.844344    0.551141    11.00000    0.08555    0.08825 = 
         0.14558    0.00983    0.06573    0.00067 
AFIX  43 
H5    3    0.409432    0.870868    0.550497    11.00000   -1.20000 
AFIX   0 
C6    1    0.410013    0.805638    0.542519    11.00000    0.07034    0.07230 = 
         0.15258   -0.00228    0.06636    0.00502 
C7    1    0.391517    0.766839    0.542300    11.00000    0.07545    0.08258 = 
         0.13910    0.00570    0.07213    0.01471 
AFIX  43 
H7    3    0.402258    0.739587    0.537933    11.00000   -1.20000 
AFIX   0 
C8    1    0.445234    0.805859    0.528756    11.00000    0.09350    0.05403 = 
         0.17668    0.00973    0.07550    0.01307 
C9    1    0.322684    0.886831    0.593832    11.00000    0.07784    0.10878 = 
         0.19329   -0.02698    0.08186    0.00732 
AFIX  23 
H9A   3    0.326788    0.863984    0.619727    11.00000   -1.20000 
H9B   3    0.298160    0.881618    0.567639    11.00000   -1.20000 
AFIX   0 
C10   1    0.324382    0.933606    0.616150    11.00000    0.15965    0.14074 = 
         0.28609   -0.04216    0.14930    0.00010 
  
RESI  6 
O1    5    0.464943    0.766358    0.432676    11.00000    0.09855    0.10106 = 
         0.17101    0.02149    0.07340    0.01218 
O2    5    0.464919    0.841140    0.431994    11.00000    0.12731    0.11053 = 
         0.19404    0.03510    0.09882    0.02000 
O3    5    0.376355    0.685470    0.292941    11.00000    0.09996    0.16151 = 
         0.10558    0.03792    0.04335    0.04015 
O4    5    0.336547    0.724063    0.227213    11.00000    0.12445    0.17898 = 
         0.12469    0.05393    0.06170    0.05908 
O5    5    0.375255    0.885658    0.265826    11.00000    0.24267    0.19308 = 
         0.26201    0.11921    0.06068    0.01345 
C1    1    0.453938    0.803150    0.413807    11.00000    0.08148    0.08864 = 
         0.18032    0.02645    0.09012    0.01403 
C2    1    0.424912    0.802994    0.361601    11.00000    0.10625    0.11154 = 
         0.15517    0.04343    0.07887    0.03439 
C3    1    0.413619    0.841837    0.336955    11.00000    0.13349    0.13727 = 
         0.18351    0.02690    0.07407    0.01856 
AFIX  43 
H3    3    0.424969    0.868359    0.352627    11.00000   -1.20000 
AFIX   0 
C4    1    0.386726    0.844599    0.290714    11.00000    0.14700    0.17146 = 
         0.20029    0.04585    0.07410    0.01367 
C5    1    0.370216    0.803556    0.267302    11.00000    0.12795    0.16593 = 
         0.17687    0.03611    0.07123    0.03267 
AFIX  43 
H5    3    0.351608    0.803245    0.235237    11.00000   -1.20000 
AFIX   0 
C6    1    0.382614    0.764692    0.293491    11.00000    0.11255    0.13518 = 
         0.12853    0.04736    0.06946    0.03693 
C7    1    0.409131    0.763897    0.339934    11.00000    0.10920    0.12989 = 
         0.14423    0.04022    0.08329    0.03564 
AFIX  43 
H7    3    0.416539    0.736746    0.356977    11.00000   -1.20000 
AFIX   0 
C8    1    0.363460    0.721395    0.269787    11.00000    0.10754    0.15721 = 
         0.10725    0.02798    0.06599    0.05095 
  
RESI  7 
O1    5    0.532261    0.500000    0.318046    10.50000    0.33148    0.11097 = 
         0.14389    0.00000    0.17406    0.00000 
O2    5    0.545892    0.500000    0.084124    10.50000    0.07528    0.19762 = 
         0.08294    0.00000    0.03336    0.00000 
O3    5    0.390859    0.589235    0.326632    11.00000    0.09923    0.30222 = 
         0.16748    0.14472    0.02176    0.01892 
O4    5    0.272135    0.711293    0.130861    11.00000    0.15738    0.22532 = 
         0.15522    0.08371    0.06550    0.10040 
O5    5    0.373092    0.602989    0.513011    11.00000    0.06190    0.16913 = 
         0.26010   -0.09703    0.05130    0.02902 
O6    5    0.224674    0.705251    0.559596    11.00000    0.09933    0.10970 = 
         0.14075    0.00861    0.09157    0.00503 
O7    5    0.500000    0.689747    0.500000    10.50000    0.36279    0.08084 = 
         0.17467    0.00000    0.15867    0.00000 
O8    5    0.500000    0.916795    0.500000    10.50000    0.22888    0.12615 = 
         0.49357    0.00000    0.29040    0.00000 
N1    4    0.189824    0.709791    0.607349    11.00000    0.19676    0.21264 = 
         0.25583    0.08669    0.19577    0.07571 
C1    1    0.218800    0.696902    0.592146    11.00000    0.16335    0.16481 = 
         0.24114    0.08188    0.15441    0.07567 
AFIX  43 
H1    3    0.236338    0.677485    0.614173    11.00000   -1.20000 
AFIX   0 
C2    1    0.195161    0.705840    0.665678    11.00000    0.22400    0.26326 = 
         0.29743    0.05267    0.17958    0.04944 
AFIX 137 
H2A   3    0.181639    0.729878    0.674784    11.00000   -1.50000 
H2B   3    0.221785    0.707801    0.685595    11.00000   -1.50000 
H2C   3    0.185276    0.677461    0.671815    11.00000   -1.50000 
AFIX   0 
C3    1    0.164372    0.743184    0.584238    11.00000    0.09393    0.13321 = 
         0.21367    0.00135    0.08446    0.01851 
AFIX  33 
H3A   3    0.146294    0.746696    0.601204    11.00000   -1.20000 
H3B   3    0.177850    0.770966    0.585776    11.00000   -1.20000 
H3C   3    0.151167    0.735245    0.549567    11.00000   -1.20000 
AFIX   0 
HKLF 4 
  
  
  
  
REM  eric365 in C2/m 
REM wR2 = 0.285459, GooF = S = 1.03004, Restrained GooF = 0.99245 for all data 
REM R1 = 0.081556 for 8248 Fo > 4sig(Fo) and 0.107378 for all 12594 data 
REM 910 parameters refined using 1582 restraints 
  
END 
  
WGHT      0.1827    133.0004 
  
REM Highest difference peak  0.624,  deepest hole -0.432,  1-sigma level  0.074 
Q1    1   0.1028  0.7149  0.2533  11.00000  0.05    0.62 
Q2    1   0.3823  0.6323  0.4790  11.00000  0.05    0.59 
Q3    1   0.1293  0.4662  0.4963  11.00000  0.05    0.59 
Q4    1   0.5688  0.5000  0.3471  10.50000  0.05    0.54 
Q5    1   0.5558  0.5295  0.0688  11.00000  0.05    0.49 
Q6    1   0.3533  0.9352  0.6587  11.00000  0.05    0.48 
Q7    1   0.2962  0.9397  0.6310  11.00000  0.05    0.46 
Q8    1   0.7270  0.6905  0.1939  11.00000  0.05    0.44 
Q9    1   0.1907  0.4633  0.0400  11.00000  0.05    0.41 
Q10   1   0.1651  0.6963  0.5695  11.00000  0.05    0.41 
;
_shelx_res_checksum              29693
_shelx_fab_file
; 
-34 0 4 10.4737 -2.9837 
-34 2 5 -3.7075 0.2215 
-34 2 6 18.0477 0.7309 
-34 2 7 2.5921 0.5055 
-34 2 13 4.7293 0.8915 
-34 4 6 9.4089 1.3976 
-34 4 7 -5.5837 -0.7839 
-34 4 8 0.1870 0.5893 
-34 4 9 -3.6801 -1.2748 
-34 4 10 2.2679 0.7755 
-34 4 11 -7.3257 -0.0659 
-34 4 12 5.6188 0.3023 
-33 1 2 5.6907 0.0294 
-33 1 3 6.0407 -0.2348 
-33 1 4 -1.7267 -0.2126 
-33 1 5 -2.7058 0.3598 
-33 1 6 -7.1553 0.7800 
-33 1 13 18.3257 0.6850 
-33 1 14 -18.5986 -0.5117 
-33 1 15 3.5160 0.3689 
-33 1 16 4.9052 -2.0861 
-33 3 2 6.8278 -0.5509 
-33 3 3 -8.9271 0.3177 
-33 3 4 -7.7704 0.1194 
-33 3 5 -9.6894 -0.1042 
-33 3 6 -15.6637 0.4508 
-33 3 7 -0.5205 -1.0430 
-33 3 8 -2.4537 0.9918 
-33 3 9 -3.9694 -0.8726 
-33 3 10 -4.7978 0.7349 
-33 3 11 -2.5822 -0.7383 
-33 3 12 1.9586 0.5684 
-33 3 13 2.2379 -0.0585 
-33 3 14 9.1009 0.4204 
-33 3 15 -0.1849 0.1080 
-33 5 3 12.1164 -0.6045 
-33 5 4 -2.3722 -0.1625 
-33 5 5 2.6412 0.4757 
-33 5 6 -8.7188 0.1812 
-33 5 7 6.2252 -0.4232 
-33 5 8 -25.5907 -0.0529 
-33 5 9 -2.0002 -0.3213 
-33 5 10 -0.7028 0.6157 
-33 5 11 -6.6085 -0.2266 
-33 5 12 7.1430 0.5600 
-33 5 13 -10.7191 -0.4296 
-33 5 14 -0.9674 0.0218 
-33 7 5 2.0471 0.2501 
-33 7 6 -1.9160 0.3631 
-33 7 7 6.3916 0.4125 
-33 7 8 -9.0986 -1.1834 
-33 7 9 1.3235 0.4350 
-33 7 10 -9.2440 -0.1688 
-33 7 11 -0.7761 0.8833 
-33 7 12 1.3600 -0.8874 
-33 7 13 0.9443 0.3119 
-32 0 1 -0.2319 -0.9592 
-32 0 2 3.1682 0.9663 
-32 0 3 7.8426 0.7670 
-32 0 4 14.2093 -1.6051 
-32 0 5 -8.0219 0.5212 
-32 0 13 13.0574 1.1174 
-32 0 14 1.0306 -1.6880 
-32 0 15 7.5572 1.0088 
-32 0 16 4.2941 -3.4210 
-32 0 17 -15.8825 3.5149 
-32 2 1 1.3012 -0.8877 
-32 2 2 6.0663 0.2104 
-32 2 3 -2.7102 -0.1483 
-32 2 4 14.4961 0.4359 
-32 2 5 -3.9435 -0.2199 
-32 2 6 10.8264 0.5065 
-32 2 7 -7.7726 -0.3377 
-32 2 8 7.3498 -0.8824 
-32 2 9 -5.2197 0.3631 
-32 2 10 10.0827 0.4973 
-32 2 11 -5.0485 0.4253 
-32 2 12 0.0902 -0.7448 
-32 2 13 -3.3366 0.1452 
-32 2 14 1.8082 0.4826 
-32 2 15 -11.1034 -0.2916 
-32 2 16 7.1605 -0.9488 
-32 2 17 2.0146 -0.8019 
-32 4 1 -4.7328 0.5864 
-32 4 2 5.5921 -0.0953 
-32 4 3 2.8531 -0.0529 
-32 4 4 -16.6274 -0.0729 
-32 4 5 -8.5997 0.0285 
-32 4 6 13.8733 0.3022 
-32 4 7 -2.3002 -0.4635 
-32 4 8 -1.5670 0.1284 
-32 4 9 -4.6882 -0.1736 
-32 4 10 2.3180 0.3017 
-32 4 11 -4.8425 -0.1229 
-32 4 12 3.1040 0.1252 
-32 4 13 -5.5686 -0.1631 
-32 4 14 11.7822 0.5278 
-32 4 15 -4.2677 -0.9237 
-32 4 16 3.2188 0.4837 
-32 4 17 -0.6545 -1.0411 
-32 6 1 -0.9325 -0.2044 
-32 6 2 -4.0508 0.3040 
-32 6 3 7.7118 -0.3607 
-32 6 4 4.3685 0.0748 
-32 6 5 5.9614 -0.2166 
-32 6 6 1.7797 0.0466 
-32 6 7 1.5865 0.0213 
-32 6 8 -3.9998 -0.0313 
-32 6 9 -1.8419 0.2283 
-32 6 10 -0.1296 -0.3728 
-32 6 11 -11.8581 0.3628 
-32 6 12 2.7031 -0.4542 
-32 6 13 1.2820 0.6908 
-32 6 14 -3.9835 -0.5676 
-32 6 15 5.7117 0.0924 
-32 6 16 4.5335 -0.8694 
-32 8 3 6.5723 0.2935 
-32 8 4 -1.9690 -0.4089 
-32 8 5 -3.8392 0.2377 
-32 8 6 1.5896 0.1193 
-32 8 7 18.4640 -0.0024 
-32 8 8 12.7125 -0.5776 
-32 8 9 -6.0828 -0.0157 
-32 8 10 -8.5502 0.4097 
-32 8 11 1.7360 0.6452 
-32 8 12 5.1146 -1.2002 
-32 8 13 5.6445 0.7337 
-32 8 14 -6.7830 -0.5655 
-32 10 6 3.8470 0.2175 
-32 10 7 3.7668 -0.0522 
-32 10 8 -1.8569 -0.5268 
-32 10 9 -12.7961 -0.2769 
-32 10 10 -4.3348 0.7162 
-32 10 11 5.1838 -1.1678 
-31 1 1 -3.6030 -0.7380 
-31 1 2 9.0237 0.8714 
-31 1 3 1.4366 0.1305 
-31 1 4 -0.7968 -0.2851 
-31 1 5 0.0472 0.5788 
-31 1 6 4.1642 0.3697 
-31 1 7 4.0432 -0.3748 
-31 1 8 -6.1551 -1.6830 
-31 1 10 -1.8217 0.9771 
-31 1 11 10.3142 0.7733 
-31 1 12 4.7607 -0.2390 
-31 1 13 -1.5854 -0.3106 
-31 1 14 0.3195 0.0597 
-31 1 15 -0.1371 -0.7096 
-31 1 16 1.1743 -0.4569 
-31 1 17 15.7416 0.0999 
-31 1 18 9.4736 1.3503 
-31 1 19 -3.5383 2.0072 
-31 3 1 -10.8293 -0.3087 
-31 3 2 -0.4801 -0.0667 
-31 3 3 -18.4998 -0.0319 
-31 3 4 2.1540 0.0889 
-31 3 5 -11.8779 -0.1477 
-31 3 6 -18.0018 0.2518 
-31 3 7 -3.4463 -0.2178 
-31 3 8 6.4416 -0.1493 
-31 3 9 -2.8715 0.1354 
-31 3 10 -9.7165 0.3269 
-31 3 11 -8.1240 -0.3501 
-31 3 12 1.4609 0.1948 
-31 3 13 5.5890 0.0390 
-31 3 14 -1.0936 0.2352 
-31 3 15 -5.4665 -1.0864 
-31 3 16 10.0155 0.3801 
-31 3 17 3.4179 0.1209 
-31 3 18 -5.8809 1.0487 
-31 5 1 7.5620 -0.0270 
-31 5 2 -2.8559 0.2909 
-31 5 3 5.0764 -0.3263 
-31 5 4 10.4486 0.1032 
-31 5 5 0.0145 -0.3330 
-31 5 6 -5.2618 0.2312 
-31 5 7 6.9358 -0.2200 
-31 5 8 -16.1791 0.4048 
-31 5 9 6.6878 -0.1592 
-31 5 10 2.3726 0.2235 
-31 5 11 -18.4984 -0.5695 
-31 5 12 5.9844 0.2358 
-31 5 13 -0.4342 0.1536 
-31 5 14 9.8927 -0.0300 
-31 5 15 8.0454 -0.3255 
-31 5 16 -3.9585 -0.2869 
-31 5 17 12.6938 0.5162 
-31 5 18 3.5471 0.4692 
-31 7 1 5.1540 -0.1428 
-31 7 2 -5.8272 0.1971 
-31 7 3 -11.0889 -0.2742 
-31 7 4 1.6850 0.2724 
-31 7 5 3.1138 -0.4021 
-31 7 6 0.2937 -0.1843 
-31 7 7 0.1140 0.0968 
-31 7 8 -18.4570 0.0217 
-31 7 9 11.6782 0.1563 
-31 7 10 -4.6650 0.0330 
-31 7 11 -9.1636 0.1027 
-31 7 12 -7.4088 -0.3541 
-31 7 13 -13.0659 -0.1052 
-31 7 14 0.4655 0.2970 
-31 7 15 6.8354 -0.0941 
-31 7 16 7.5175 -0.4007 
-31 7 17 0.5838 -0.0184 
-31 9 1 3.1975 -0.5494 
-31 9 2 -12.8925 -0.0958 
-31 9 3 -11.8132 -0.0546 
-31 9 4 -4.5056 -0.1760 
-31 9 5 4.7824 0.7031 
-31 9 6 3.8562 -0.2321 
-31 9 7 -4.1801 0.1727 
-31 9 8 -8.5822 -0.7329 
-31 9 9 -0.4202 0.2138 
-31 9 10 -6.6642 -0.2570 
-31 9 11 1.5642 1.1235 
-31 9 12 -8.9187 -0.5213 
-31 9 13 -2.8841 -0.0999 
-31 9 14 6.0731 0.0387 
-31 9 15 -6.0080 0.5113 
-31 11 3 10.3240 0.6796 
-31 11 4 5.4940 -0.7564 
-31 11 5 1.3682 0.3821 
-31 11 6 1.4706 0.1638 
-31 11 7 2.3326 0.1419 
-31 11 8 -6.1582 -0.5982 
-31 11 9 2.1353 0.3098 
-31 11 10 3.3602 -0.2855 
-31 11 11 -21.3386 0.1679 
-31 11 12 -26.8135 -0.2022 
-31 11 13 -2.8812 1.3269 
-30 0 1 11.4984 1.7236 
-30 0 2 2.2676 -2.7829 
-30 0 3 5.1483 1.9021 
-30 0 4 12.4451 0.1663 
-30 0 5 -8.9073 2.0122 
-30 0 6 -0.8027 -0.6240 
-30 0 7 6.4258 -1.3671 
-30 0 10 16.2444 1.5259 
-30 0 11 3.8810 1.1383 
-30 0 12 8.2862 -1.8580 
-30 0 13 4.3749 0.0949 
-30 0 14 -1.7167 0.0335 
-30 0 15 -7.5956 0.6597 
-30 0 16 2.3911 -2.0263 
-30 0 17 -15.8540 0.7705 
-30 0 18 -4.4141 1.3797 
-30 0 19 -3.0869 1.2863 
-30 0 20 8.1591 -1.8712 
-30 2 1 10.9691 -0.3495 
-30 2 2 -5.4315 -0.0704 
-30 2 3 -6.4986 0.4798 
-30 2 4 -0.8326 -0.4357 
-30 2 5 -11.4647 0.2658 
-30 2 6 12.0871 0.1534 
-30 2 7 -4.0946 -0.0925 
-30 2 8 -4.1578 -0.1718 
-30 2 9 -12.8123 -0.7757 
-30 2 10 12.9226 0.7820 
-30 2 11 -5.3765 0.3393 
-30 2 12 -20.1828 0.5680 
-30 2 13 -12.9402 -0.7731 
-30 2 14 -3.0193 -0.1208 
-30 2 15 -12.7379 -0.3265 
-30 2 16 -7.2378 0.0392 
-30 2 17 0.0331 0.3365 
-30 2 18 8.2394 0.5292 
-30 2 19 5.8857 -0.2910 
-30 2 20 6.3487 -0.7221 
-30 4 1 5.5107 -0.2180 
-30 4 2 -9.6686 -0.1945 
-30 4 3 7.7694 0.3146 
-30 4 4 -8.5601 -0.1777 
-30 4 5 -12.1891 -0.0222 
-30 4 6 10.2729 -0.5016 
-30 4 7 5.4461 0.2977 
-30 4 8 10.0600 0.7761 
-30 4 9 2.8703 -0.1615 
-30 4 10 18.2735 -0.1981 
-30 4 11 1.3726 -0.5637 
-30 4 12 -3.2936 0.6034 
-30 4 13 -18.7691 -0.0259 
-30 4 14 2.0992 0.0323 
-30 4 15 -1.1476 -0.3530 
-30 4 16 0.8268 -0.0472 
-30 4 17 6.6271 0.6135 
-30 4 18 3.4135 -0.3518 
-30 4 19 12.7688 0.1981 
-30 6 1 9.1894 0.0795 
-30 6 2 -3.6849 0.1247 
-30 6 3 0.3992 -0.3225 
-30 6 4 10.6650 -0.0164 
-30 6 5 -3.6477 -0.1171 
-30 6 6 -3.4635 -0.2764 
-30 6 7 10.2540 0.2667 
-30 6 8 4.7308 0.1430 
-30 6 9 6.2909 0.1084 
-30 6 10 3.5683 -0.2121 
-30 6 11 -0.9651 -0.0022 
-30 6 12 6.7912 0.0543 
-30 6 13 -1.6997 -0.1890 
-30 6 14 -2.0660 -0.0499 
-30 6 15 -2.7740 0.1916 
-30 6 16 -8.6782 -0.1558 
-30 6 17 -1.9118 -0.1899 
-30 6 18 0.8738 0.9203 
-30 6 19 9.5895 0.0776 
-30 8 1 -1.3861 0.2498 
-30 8 2 6.2399 -0.2274 
-30 8 3 0.2428 0.0309 
-30 8 4 -3.7802 0.0978 
-30 8 5 -2.6981 0.0618 
-30 8 6 -6.1135 -0.5025 
-30 8 7 2.7516 0.3652 
-30 8 8 0.1578 -0.3090 
-30 8 9 2.5736 0.4612 
-30 8 10 6.8594 -0.5628 
-30 8 11 -6.7329 0.7082 
-30 8 12 -12.6667 -0.4948 
-30 8 13 -1.4077 0.2467 
-30 8 14 0.3887 -0.2435 
-30 8 15 -4.0100 0.1966 
-30 8 16 4.8819 -0.1689 
-30 8 17 -6.3554 0.6530 
-30 10 1 0.2046 -0.6416 
-30 10 2 -5.9294 0.2405 
-30 10 3 -1.6433 -0.2074 
-30 10 4 -4.7904 0.0745 
-30 10 5 10.3919 0.1311 
-30 10 6 1.3178 0.4058 
-30 10 7 11.6928 -0.3914 
-30 10 8 4.7543 -0.3717 
-30 10 9 1.3544 0.2086 
-30 10 10 3.9470 0.1158 
-30 10 11 -13.4317 0.3320 
-30 10 12 -3.9352 -0.4648 
-30 10 13 -5.8136 0.6577 
-30 10 14 19.2294 -0.2225 
-30 10 15 -0.8278 0.0025 
-30 10 16 7.9143 -0.3760 
-30 12 2 -6.5060 0.1392 
-30 12 3 -4.8244 0.6204 
-30 12 4 11.3940 -0.6596 
-30 12 5 -1.7738 0.4658 
-30 12 6 3.6272 -0.0885 
-30 12 7 9.2715 0.1487 
-30 12 8 -17.4610 -0.7582 
-30 12 9 0.5211 0.2109 
-30 12 10 2.7651 0.3080 
-30 12 11 -7.3733 0.0472 
-30 12 12 12.1943 -0.2323 
-30 12 13 -7.7476 0.6267 
-30 12 14 -4.3509 0.3183 
-29 1 1 -2.7593 -0.4661 
-29 1 2 3.1217 -0.1264 
-29 1 3 -8.2698 0.3208 
-29 1 4 17.2748 -0.1389 
-29 1 5 -7.7560 0.6157 
-29 1 6 -2.0084 0.4179 
-29 1 7 -6.6555 -0.9545 
-29 1 8 -2.1980 -0.9963 
-29 1 9 -7.5929 0.4236 
-29 1 10 16.9905 1.4546 
-29 1 11 -15.6373 0.1167 
-29 1 12 -4.0013 -0.7909 
-29 1 13 -3.6256 -0.2057 
-29 1 14 6.0858 0.3611 
-29 1 15 -1.6081 -0.3743 
-29 1 16 -3.1186 -0.4842 
-29 1 17 -6.8067 0.9230 
-29 1 18 -5.4758 0.6467 
-29 1 19 -4.2697 -0.6718 
-29 1 20 8.5601 -0.3914 
-29 1 21 -1.7606 -1.3487 
-29 3 1 -7.0370 0.2426 
-29 3 2 4.9251 -0.0615 
-29 3 3 -14.0604 0.0609 
-29 3 4 11.7537 -0.2541 
-29 3 5 -7.2286 -0.0637 
-29 3 6 5.3641 0.1733 
-29 3 7 -9.4000 0.0302 
-29 3 8 2.6949 0.0296 
-29 3 9 1.8582 -0.0540 
-29 3 10 4.5511 0.2636 
-29 3 11 -2.4395 -0.1463 
-29 3 12 -7.3018 0.2124 
-29 3 13 2.2060 -0.3816 
-29 3 14 -0.7488 0.5596 
-29 3 15 -14.1610 -0.5207 
-29 3 16 3.3622 0.0868 
-29 3 17 -11.6187 0.4407 
-29 3 18 -17.8129 -0.0790 
-29 3 19 -2.5507 -0.0967 
-29 3 20 2.6584 -2.0083 
-29 5 1 -3.3292 -0.1018 
-29 5 2 -4.4543 -0.0664 
-29 5 3 2.2425 -0.0273 
-29 5 4 13.3529 -0.0202 
-29 5 5 -13.9497 -0.7282 
-29 5 6 12.7981 0.0841 
-29 5 7 3.2642 0.1730 
-29 5 8 2.1500 1.2463 
-29 5 9 10.9482 -0.7306 
-29 5 10 -1.4386 -0.2694 
-29 5 11 7.7247 -0.3047 
-29 5 12 7.9936 0.6289 
-29 5 13 -3.4380 -0.3303 
-29 5 14 11.4868 0.1848 
-29 5 15 -12.7945 -0.1791 
-29 5 16 -2.8198 0.2059 
-29 5 17 2.3423 -0.2224 
-29 5 18 1.5950 0.2835 
-29 5 19 -8.2717 -0.1698 
-29 5 20 -0.6793 -0.3787 
-29 7 1 -1.3431 -0.1162 
-29 7 2 -2.1874 -0.1182 
-29 7 3 -7.0224 -0.2352 
-29 7 4 21.0767 0.3452 
-29 7 5 -7.6743 -0.4010 
-29 7 6 2.5493 0.1711 
-29 7 7 -3.5647 -0.2685 
-29 7 8 -2.4823 0.5610 
-29 7 9 14.7013 -0.4493 
-29 7 10 5.9902 0.1830 
-29 7 11 -0.3192 -0.1536 
-29 7 12 1.2832 0.2461 
-29 7 13 -0.1548 -0.3612 
-29 7 14 3.0102 -0.1282 
-29 7 15 1.4736 0.3043 
-29 7 16 -4.1801 0.3575 
-29 7 17 -7.5153 -0.6021 
-29 7 18 2.3763 0.9764 
-29 7 19 -9.9437 -0.6212 
-29 9 1 -4.7160 -0.0331 
-29 9 2 0.3103 0.2035 
-29 9 3 -2.7115 -0.0967 
-29 9 4 -8.1456 0.1040 
-29 9 5 -9.9305 -0.0572 
-29 9 6 -3.7100 -0.2820 
-29 9 7 5.7708 0.1279 
-29 9 8 3.7045 0.0908 
-29 9 9 -0.7355 0.1813 
-29 9 10 -6.0544 -0.2430 
-29 9 11 3.3630 0.0525 
-29 9 12 3.3124 -0.0464 
-29 9 13 -8.0643 0.1560 
-29 9 14 -4.4820 -0.2877 
-29 9 15 -6.7075 0.3324 
-29 9 16 -11.3537 -0.1183 
-29 9 17 4.6282 0.5584 
-29 9 18 9.7508 0.4753 
-29 11 1 -0.4005 -0.7977 
-29 11 2 -2.5595 0.1852 
-29 11 3 23.9698 -0.0616 
-29 11 4 -3.3822 0.0306 
-29 11 5 -5.9148 0.4194 
-29 11 6 3.2618 0.0302 
-29 11 7 6.5443 -0.3563 
-29 11 8 -9.1647 -0.5116 
-29 11 9 10.8045 0.2361 
-29 11 10 -11.0375 0.4260 
-29 11 11 -0.9383 0.0519 
-29 11 12 -0.6786 -0.2308 
-29 11 13 -2.6182 0.2543 
-29 11 14 -5.5370 -0.1559 
-29 11 15 7.6328 0.1620 
-29 11 16 -2.7556 -1.2163 
-29 13 1 -1.7926 -0.3673 
-29 13 2 6.5283 0.3724 
-29 13 3 5.2815 0.1347 
-29 13 4 -5.5342 -0.0215 
-29 13 5 4.6872 -0.0723 
-29 13 6 0.1527 0.0426 
-29 13 7 2.7625 0.3082 
-29 13 8 1.3716 -0.5667 
-29 13 9 1.2874 0.0643 
-29 13 10 -9.1416 -0.1356 
-29 13 11 4.9381 0.5246 
-29 13 12 4.9074 -0.0653 
-29 13 13 -10.8126 0.3943 
-29 13 14 -14.4791 0.3186 
-29 15 6 -1.1669 -0.0095 
-29 15 7 -1.7819 -0.3419 
-29 15 8 5.1322 -0.5040 
-29 15 9 2.4695 -0.1615 
-28 0 1 11.5052 3.0702 
-28 0 2 -17.6043 0.0882 
-28 0 3 9.7258 -0.6696 
-28 0 4 -16.5885 -1.4732 
-28 0 5 -2.5619 2.7342 
-28 0 6 -1.3258 0.1244 
-28 0 7 -0.2360 -1.5241 
-28 0 8 8.9635 -3.1002 
-28 0 9 -5.7690 2.3680 
-28 0 10 -14.4132 1.4503 
-28 0 11 0.1868 1.4980 
-28 0 12 9.2394 -2.0829 
-28 0 13 -2.3546 -0.0741 
-28 0 14 -1.0885 -1.5582 
-28 0 15 -5.6414 0.5934 
-28 0 16 6.6548 -0.0485 
-28 0 17 -7.8224 2.4528 
-28 0 18 6.4701 -0.3393 
-28 0 19 -9.3498 -1.1563 
-28 0 20 14.1927 -1.4553 
-28 0 21 10.0065 0.1271 
-28 2 1 1.4983 -0.5908 
-28 2 2 -17.5943 0.8835 
-28 2 3 14.4989 -0.2725 
-28 2 4 -0.3263 -0.0383 
-28 2 5 7.8770 0.7714 
-28 2 6 0.0965 -0.8672 
-28 2 7 -11.1920 -0.1120 
-28 2 8 12.7654 -0.6434 
-28 2 9 8.0541 1.6912 
-28 2 10 -0.3395 -0.4477 
-28 2 11 14.6664 -0.1122 
-28 2 12 -7.2790 -0.6000 
-28 2 13 -6.4252 0.7159 
-28 2 14 -5.9079 -0.2529 
-28 2 15 -5.6815 -0.1244 
-28 2 16 -7.2098 0.0313 
-28 2 17 -4.1626 0.2715 
-28 2 18 9.1618 0.2260 
-28 2 19 -13.0028 -0.5616 
-28 2 20 3.4336 -0.4786 
-28 2 21 5.9287 -0.1760 
-28 4 1 0.4456 -0.0087 
-28 4 2 -15.4931 0.0810 
-28 4 3 9.6360 -0.5049 
-28 4 4 -6.5535 -0.3087 
-28 4 5 2.7966 -0.0790 
-28 4 6 1.5499 0.2055 
-28 4 7 -9.6203 0.3794 
-28 4 8 -1.7639 -0.1929 
-28 4 9 -11.2870 0.3651 
-28 4 10 -8.4797 -0.7226 
-28 4 11 -1.2807 0.4609 
-28 4 12 -20.1861 -0.2140 
-28 4 13 -4.0560 0.3248 
-28 4 14 1.1383 -0.3584 
-28 4 15 -3.3439 0.1339 
-28 4 16 1.1439 0.3316 
-28 4 17 -10.7312 -0.0619 
-28 4 18 -15.3150 -0.5377 
-28 4 19 -10.6621 0.0003 
-28 4 20 9.7746 -0.6164 
-28 4 21 -7.4570 0.7060 
-28 6 1 10.2959 -0.1341 
-28 6 2 -2.6561 -0.2803 
-28 6 3 5.4617 0.2814 
-28 6 4 10.1168 -0.0809 
-28 6 5 -0.1284 -0.6441 
-28 6 6 -6.5926 -0.0050 
-28 6 7 0.8879 0.3410 
-28 6 8 -12.0436 0.7009 
-28 6 9 3.3202 -0.2711 
-28 6 10 12.6613 -0.4868 
-28 6 11 3.1213 -0.2124 
-28 6 12 -8.0605 0.3431 
-28 6 13 -2.9658 0.0259 
-28 6 14 11.9352 0.1273 
-28 6 15 -1.3680 -0.2022 
-28 6 16 0.5775 0.2696 
-28 6 17 -11.9446 -0.5480 
-28 6 18 0.3843 0.4129 
-28 6 19 -11.8177 -0.4408 
-28 6 20 6.2118 -0.2311 
-28 8 1 7.5339 0.3566 
-28 8 2 -1.7997 -0.4316 
-28 8 3 -0.0435 0.0445 
-28 8 4 -8.3446 -0.0470 
-28 8 5 -14.2651 0.0066 
-28 8 6 -6.4144 -0.1771 
-28 8 7 -7.1078 0.2227 
-28 8 8 -6.6244 0.0537 
-28 8 9 -0.5357 -0.1073 
-28 8 10 9.1990 0.0113 
-28 8 11 -6.4215 0.1294 
-28 8 12 6.9468 -0.2657 
-28 8 13 -6.0250 -0.0454 
-28 8 14 -9.8133 -0.1631 
-28 8 15 -5.6036 0.3862 
-28 8 16 15.3444 -0.1257 
-28 8 17 -12.8585 0.2848 
-28 8 18 9.8267 0.2874 
-28 8 19 -18.7466 -0.2270 
-28 8 20 -12.6362 0.1598 
-28 10 1 -4.8608 -0.5125 
-28 10 2 -4.0923 0.5473 
-28 10 3 -6.4773 -0.2614 
-28 10 4 -3.3717 0.3038 
-28 10 5 0.0069 -0.3243 
-28 10 6 4.3581 0.0040 
-28 10 7 -11.9088 -0.1127 
-28 10 8 3.0528 0.0093 
-28 10 9 -9.3054 -0.0324 
-28 10 10 -1.9116 0.2673 
-28 10 11 5.5460 0.0460 
-28 10 12 14.6785 -0.3657 
-28 10 13 -3.9906 0.1108 
-28 10 14 10.4951 -0.1669 
-28 10 15 -2.9943 0.2077 
-28 10 16 -2.6464 -0.1938 
-28 10 17 -8.1572 0.6265 
-28 10 18 0.2320 0.9260 
-28 12 1 -1.7576 -0.1964 
-28 12 2 19.0205 -0.3357 
-28 12 3 -1.4481 0.0110 
-28 12 4 13.5208 0.1397 
-28 12 5 -8.5514 0.2619 
-28 12 6 1.0584 0.0155 
-28 12 7 -11.3250 -0.1902 
-28 12 8 7.0635 -0.2003 
-28 12 9 21.7847 -0.1592 
-28 12 10 8.8687 0.2859 
-28 12 11 4.6858 0.0816 
-28 12 12 3.7390 0.3357 
-28 12 13 -6.4475 -0.2059 
-28 12 14 -1.2999 -0.2945 
-28 12 15 5.4937 0.1027 
-28 12 16 -2.3234 -0.6349 
-28 12 17 1.6410 1.4025 
-28 14 1 1.5911 0.1081 
-28 14 2 7.5887 -0.1548 
-28 14 3 -12.2717 0.5018 
-28 14 4 5.6744 -0.2621 
-28 14 5 -2.6218 0.3295 
-28 14 6 8.6583 -0.4966 
-28 14 7 -11.4975 0.3090 
-28 14 8 15.3480 -0.2559 
-28 14 9 6.1715 0.3843 
-28 14 10 1.9512 -0.3085 
-28 14 11 1.0414 0.0185 
-28 14 12 -3.4343 0.5079 
-28 14 13 14.2617 0.0366 
-28 14 14 14.2201 0.5244 
-28 16 5 10.4315 0.9826 
-28 16 6 12.6157 0.0306 
-28 16 7 -12.6356 -0.1290 
-28 16 8 -0.4747 -0.7926 
-28 16 9 -5.8189 0.7304 
-28 16 10 -0.4399 -0.2643 
-27 1 1 4.2221 0.1467 
-27 1 2 -13.1018 1.0992 
-27 1 3 -11.9121 0.0809 
-27 1 4 -9.8465 0.0711 
-27 1 5 -17.6949 0.9838 
-27 1 6 10.5879 -0.8607 
-27 1 7 -16.0997 -0.6377 
-27 1 8 1.2788 -1.2886 
-27 1 9 -0.1973 1.5868 
-27 1 10 9.3109 0.8258 
-27 1 11 -4.7960 0.7088 
-27 1 12 6.2202 -1.5869 
-27 1 13 -4.0648 -0.1722 
-27 1 14 -1.1201 -0.2757 
-27 1 15 -3.6208 0.4085 
-27 1 16 2.5408 -0.2172 
-27 1 17 -2.5351 0.9231 
-27 1 18 10.8655 0.3261 
-27 1 19 -8.8350 -0.7343 
-27 1 20 -2.6594 -1.4312 
-27 1 21 6.8902 0.5617 
-27 1 22 6.5360 0.4166 
-27 3 1 3.9408 -0.2640 
-27 3 2 9.2979 0.4504 
-27 3 3 -0.4401 -0.3047 
-27 3 4 -1.2839 0.1100 
-27 3 5 -4.5193 -0.4704 
-27 3 6 9.0554 0.3672 
-27 3 7 -13.0115 0.1273 
-27 3 8 -5.1041 0.1795 
-27 3 9 -8.9494 -0.0742 
-27 3 10 1.0598 -0.2190 
-27 3 11 -8.4497 0.1130 
-27 3 12 1.8515 0.1033 
-27 3 13 1.6432 -0.1011 
-27 3 14 -1.0970 -0.0106 
-27 3 15 -10.6354 0.2169 
-27 3 16 3.5352 -0.0527 
-27 3 17 9.9453 -0.2445 
-27 3 18 8.2160 0.3016 
-27 3 19 -17.0720 -0.1463 
-27 3 20 -5.0339 -0.6144 
-27 3 21 -12.1195 0.0134 
-27 3 22 -5.2731 0.1828 
-27 5 1 -3.7438 -0.0653 
-27 5 2 6.2722 -0.3305 
-27 5 3 -1.5319 0.0622 
-27 5 4 8.8439 -0.0851 
-27 5 5 -20.9840 -0.3532 
-27 5 6 6.5268 0.3550 
-27 5 7 -8.8033 -0.1031 
-27 5 8 2.9994 0.7551 
-27 5 9 -11.6206 -0.6826 
-27 5 10 -3.4970 0.1573 
-27 5 11 13.5507 -0.5048 
-27 5 12 9.2905 0.5792 
-27 5 13 -1.3109 -0.3851 
-27 5 14 16.3866 0.5544 
-27 5 15 -17.5613 -0.0460 
-27 5 16 -5.9047 0.1795 
-27 5 17 -5.6923 -0.5149 
-27 5 18 9.4851 -0.3478 
-27 5 19 5.5799 -0.0928 
-27 5 20 6.0587 0.0657 
-27 5 21 -10.7766 -0.2525 
-27 7 1 1.2823 0.2387 
-27 7 2 6.8288 -0.1633 
-27 7 3 -13.0012 0.0945 
-27 7 4 9.6947 -0.3819 
-27 7 5 -7.6837 -0.1546 
-27 7 6 22.9941 -0.0264 
-27 7 7 -10.1909 0.5500 
-27 7 8 6.1189 0.2387 
-27 7 9 4.5081 -0.2956 
-27 7 10 6.4202 -0.1982 
-27 7 11 21.0179 -0.1857 
-27 7 12 -0.7067 0.3125 
-27 7 13 2.3816 -0.0623 
-27 7 14 1.3655 0.2728 
-27 7 15 -8.4051 -0.3096 
-27 7 16 -3.5390 0.3386 
-27 7 17 -12.2823 -0.2403 
-27 7 18 -3.5001 0.0299 
-27 7 19 -8.1551 -0.3470 
-27 7 20 -1.1163 -0.3343 
-27 7 21 1.0595 0.2777 
-27 9 1 0.0551 0.2355 
-27 9 2 6.3673 -0.1256 
-27 9 3 -2.8903 -0.2297 
-27 9 4 5.5691 0.3130 
-27 9 5 4.2842 -0.1337 
-27 9 6 -12.6812 -0.0248 
-27 9 7 -17.3321 -0.1940 
-27 9 8 5.6271 -0.0239 
-27 9 9 -5.5002 0.0863 
-27 9 10 3.7877 0.2425 
-27 9 11 14.9297 -0.1029 
-27 9 12 -2.9467 -0.2231 
-27 9 13 7.3713 -0.1149 
-27 9 14 -1.9319 0.1037 
-27 9 15 -1.5343 -0.0782 
-27 9 16 4.9477 0.1925 
-27 9 17 0.4299 0.3552 
-27 9 18 -0.7451 0.0691 
-27 9 19 -7.3060 -0.6158 
-27 9 20 0.7477 0.5104 
-27 11 1 1.8290 -0.0578 
-27 11 2 -14.2810 0.2970 
-27 11 3 3.4869 -0.3065 
-27 11 4 1.1354 0.2583 
-27 11 5 -3.7738 -0.3105 
-27 11 6 5.1447 0.2950 
-27 11 7 -6.8870 -0.3231 
-27 11 8 -1.8732 0.1000 
-27 11 9 -2.8411 -0.1907 
-27 11 10 -6.0619 0.4247 
-27 11 11 8.4712 -0.1905 
-27 11 12 -7.8664 0.0430 
-27 11 13 12.9868 -0.2069 
-27 11 14 2.6336 0.1018 
-27 11 15 -7.4462 -0.3125 
-27 11 16 6.7811 0.4178 
-27 11 17 -4.0763 0.4289 
-27 11 18 -2.4666 0.6663 
-27 11 19 -6.0592 0.0724 
-27 13 1 -1.3047 -0.2676 
-27 13 2 7.5154 -0.0408 
-27 13 3 -2.6114 -0.2734 
-27 13 4 4.8764 0.4426 
-27 13 5 -10.0528 0.0837 
-27 13 6 8.8299 -0.0940 
-27 13 7 -6.8017 -0.2246 
-27 13 8 3.7750 0.1056 
-27 13 9 -3.7065 0.0692 
-27 13 10 3.2897 0.0473 
-27 13 11 9.3759 0.2216 
-27 13 12 -3.3985 -0.1165 
-27 13 13 4.3363 0.1855 
-27 13 14 -12.9733 -0.1977 
-27 13 15 0.7201 -0.2236 
-27 13 16 6.8468 0.1169 
-27 13 17 -4.3456 -0.0902 
-27 15 1 -2.7791 -0.4371 
-27 15 2 0.2416 0.2640 
-27 15 3 -2.3105 0.1537 
-27 15 4 -5.8599 -0.1226 
-27 15 5 -13.0813 -0.0014 
-27 15 6 4.5682 -0.1475 
-27 15 7 -9.5415 0.1026 
-27 15 8 5.6812 -0.0030 
-27 15 9 -2.4387 0.1699 
-27 15 10 -1.8425 -0.4902 
-27 15 11 2.8034 0.5398 
-27 15 12 -0.1532 -0.2175 
-27 15 13 11.0980 0.6387 
-27 15 14 -1.4567 -0.5933 
-27 17 4 21.1261 0.1540 
-27 17 5 -5.7665 -0.0763 
-27 17 6 -8.7426 0.5410 
-27 17 7 3.8484 -0.6404 
-27 17 8 8.1369 0.0173 
-27 17 9 10.5360 0.2552 
-27 17 10 2.0632 0.3467 
-26 0 1 8.0964 1.7945 
-26 0 2 -18.3899 -0.0286 
-26 0 3 12.2896 3.2984 
-26 0 4 -4.5199 -1.1205 
-26 0 5 7.4094 0.6742 
-26 0 6 5.7143 -1.0731 
-26 0 7 -3.2077 -1.0477 
-26 0 8 -14.0004 -0.7403 
-26 0 9 -10.2345 2.4251 
-26 0 10 5.5857 0.7599 
-26 0 11 -12.5855 -0.3362 
-26 0 12 -17.3526 -2.2760 
-26 0 13 3.2995 1.7837 
-26 0 14 -2.2880 -0.7090 
-26 0 15 -17.0678 -0.4103 
-26 0 16 1.8673 -1.5944 
-26 0 17 -11.3930 3.2626 
-26 0 18 7.3326 0.4793 
-26 0 19 8.3438 -0.6756 
-26 0 20 8.2124 -3.5404 
-26 0 21 3.9880 1.8983 
-26 0 22 -20.7471 0.1812 
-26 0 23 6.8822 1.8123 
-26 2 1 -0.4204 -0.2296 
-26 2 2 -8.1698 -0.2117 
-26 2 3 8.6537 0.6276 
-26 2 4 -4.9315 -0.7718 
-26 2 5 16.7842 0.9760 
-26 2 6 -1.7931 0.0263 
-26 2 7 7.8698 -0.1681 
-26 2 8 -4.3688 -1.4457 
-26 2 9 -8.7978 1.0149 
-26 2 10 -12.9275 0.9526 
-26 2 11 4.1908 0.4192 
-26 2 12 3.0999 -1.5184 
-26 2 13 -7.1178 0.3696 
-26 2 14 4.1138 -0.2470 
-26 2 15 4.8703 0.6144 
-26 2 16 -7.9256 -0.6419 
-26 2 17 -12.7181 1.1051 
-26 2 18 24.1014 -0.4328 
-26 2 19 4.5198 -0.3414 
-26 2 20 3.1005 -0.5516 
-26 2 21 7.5594 0.6945 
-26 2 22 1.4216 0.1758 
-26 2 23 -0.0769 -0.5551 
-26 4 1 -5.5155 -0.4422 
-26 4 2 2.9626 0.1575 
-26 4 3 4.8097 0.4398 
-26 4 4 -9.6329 -0.4181 
-26 4 5 9.9744 -0.5943 
-26 4 6 -11.7464 0.2895 
-26 4 7 1.8829 0.8367 
-26 4 8 -2.7685 0.0631 
-26 4 9 -7.3817 -0.4591 
-26 4 10 -12.1525 -0.2188 
-26 4 11 -1.2742 0.0331 
-26 4 12 0.6656 -0.0274 
-26 4 13 -6.4283 0.3771 
-26 4 14 -6.2333 0.2518 
-26 4 15 6.1004 0.1342 
-26 4 16 15.7429 -0.7488 
-26 4 17 1.5082 0.1071 
-26 4 18 16.7496 0.1508 
-26 4 19 -13.0682 -0.1015 
-26 4 20 3.6291 0.0669 
-26 4 21 -12.3090 -0.3967 
-26 4 22 3.3839 0.9637 
-26 6 1 -1.4980 -0.0058 
-26 6 2 1.1223 -0.4525 
-26 6 3 9.3212 -0.1104 
-26 6 4 2.9187 -0.2658 
-26 6 5 -2.2860 0.2795 
-26 6 6 -12.9554 -0.0871 
-26 6 7 -1.5837 0.7368 
-26 6 8 7.2909 -0.2474 
-26 6 9 0.8582 -0.2647 
-26 6 10 7.2825 -0.1364 
-26 6 11 -6.5362 0.1787 
-26 6 12 -6.3936 0.0627 
-26 6 13 -3.0281 -0.2509 
-26 6 14 -4.0270 0.4041 
-26 6 15 -15.5154 0.4409 
-26 6 16 -7.0801 -0.2299 
-26 6 17 -0.9841 -0.3050 
-26 6 18 5.8671 -0.3510 
-26 6 19 -8.6398 0.2113 
-26 6 20 3.8671 -0.2479 
-26 6 21 -0.1694 0.3904 
-26 6 22 1.9346 -0.3474 
-26 8 1 -1.4468 0.4533 
-26 8 2 -3.7047 0.0246 
-26 8 3 -2.9868 0.0224 
-26 8 4 -8.1640 -0.3104 
-26 8 5 -2.3672 0.0559 
-26 8 6 12.3874 -0.1802 
-26 8 7 -3.1944 0.3755 
-26 8 8 1.0195 0.0015 
-26 8 9 -4.9337 0.0906 
-26 8 10 8.4979 -0.4534 
-26 8 11 -2.6210 0.2219 
-26 8 12 18.1921 -0.0540 
-26 8 13 1.7218 0.0281 
-26 8 14 -4.0438 0.1275 
-26 8 15 2.3848 0.0882 
-26 8 16 1.9063 -0.1674 
-26 8 17 -6.2887 0.0806 
-26 8 18 -7.3652 -0.1143 
-26 8 19 -2.6866 0.0448 
-26 8 20 -9.4351 -0.8637 
-26 8 21 6.5220 1.1126 
-26 10 1 -7.5000 0.3299 
-26 10 2 6.9260 -0.3404 
-26 10 3 1.3300 -0.0057 
-26 10 4 -10.2862 -0.0200 
-26 10 5 -12.1263 0.3290 
-26 10 6 1.7342 -0.1376 
-26 10 7 -13.4138 -0.3027 
-26 10 8 -11.0052 -0.0238 
-26 10 9 -8.4795 0.1249 
-26 10 10 -4.6943 0.1242 
-26 10 11 1.9375 -0.0365 
-26 10 12 2.5637 -0.1548 
-26 10 13 -9.1505 -0.2473 
-26 10 14 6.9706 0.0975 
-26 10 15 -5.6182 -0.1399 
-26 10 16 6.5547 0.5983 
-26 10 17 -3.1788 -0.1437 
-26 10 18 2.4409 0.5989 
-26 10 19 -6.5945 -0.7235 
-26 10 20 -5.4753 -0.2442 
-26 12 1 -13.7533 0.1449 
-26 12 2 3.4459 0.1406 
-26 12 3 3.7963 0.0316 
-26 12 4 -5.3009 -0.0750 
-26 12 5 0.1162 0.0546 
-26 12 6 20.0208 -0.1428 
-26 12 7 -4.6466 -0.0760 
-26 12 8 -6.2537 0.0465 
-26 12 9 12.6029 0.2876 
-26 12 10 -8.7024 0.0516 
-26 12 11 5.5870 0.0261 
-26 12 12 4.9261 -0.2346 
-26 12 13 4.9647 0.1999 
-26 12 14 5.3725 -0.1982 
-26 12 15 -8.7473 -0.1441 
-26 12 16 1.4724 0.3150 
-26 12 17 -16.3961 0.4244 
-26 12 18 4.4099 0.7958 
-26 12 19 -3.0813 -0.7540 
-26 14 1 -7.6627 -0.2043 
-26 14 2 2.4132 0.0758 
-26 14 3 6.7549 -0.3193 
-26 14 4 2.3387 0.1936 
-26 14 5 -6.6696 0.0617 
-26 14 6 2.2087 0.0121 
-26 14 7 -19.5074 0.0233 
-26 14 8 -0.7163 -0.1401 
-26 14 9 6.0180 0.1138 
-26 14 10 -3.3789 0.0523 
-26 14 11 6.7315 0.2483 
-26 14 12 -3.7389 -0.1973 
-26 14 13 8.8165 0.3554 
-26 14 14 -4.2869 -0.6507 
-26 14 15 -8.7364 0.2208 
-26 14 16 2.4730 -0.0048 
-26 14 17 -5.6499 0.6998 
-26 16 1 -7.1454 -0.3722 
-26 16 2 -1.2458 0.1965 
-26 16 3 -7.1723 0.2604 
-26 16 4 -7.9740 -0.1946 
-26 16 5 0.7260 -0.0218 
-26 16 6 1.6025 -0.2228 
-26 16 7 -12.4239 0.1324 
-26 16 8 6.6288 0.1299 
-26 16 9 6.8028 0.0630 
-26 16 10 -2.3919 -0.3105 
-26 16 11 3.5394 0.2210 
-26 16 12 -1.8650 -0.1371 
-26 16 13 14.6382 0.3548 
-26 16 14 -18.6681 -0.3001 
-26 18 4 -5.4643 -0.3187 
-26 18 5 8.4165 0.3003 
-26 18 6 -7.5805 0.1995 
-26 18 7 -3.7498 -0.6939 
-26 18 8 -1.2539 0.6504 
-26 18 9 -1.7029 -0.5081 
-25 1 1 -6.7479 0.2096 
-25 1 2 -13.0135 0.0188 
-25 1 3 11.1540 0.0437 
-25 1 4 0.0993 0.2445 
-25 1 5 4.2762 0.9684 
-25 1 6 7.0871 -0.6560 
-25 1 7 1.8262 -1.0600 
-25 1 8 9.7761 -0.1429 
-25 1 9 -5.4056 1.4708 
-25 1 10 -15.2688 0.3417 
-25 1 11 -0.6582 -0.2918 
-25 1 12 -2.7346 -0.8399 
-25 1 13 -12.6326 0.4639 
-25 1 14 10.1807 -0.7015 
-25 1 15 1.4103 0.0706 
-25 1 16 6.0572 -0.0246 
-25 1 17 -5.3657 1.4701 
-25 1 18 -3.3052 -0.4886 
-25 1 19 7.0189 -0.6778 
-25 1 20 0.3070 -0.8906 
-25 1 21 4.4896 0.6364 
-25 1 22 -3.1359 0.9415 
-25 1 23 3.5120 -0.0007 
-25 3 1 1.8051 -0.6182 
-25 3 2 1.1581 0.4836 
-25 3 3 9.0027 -0.4936 
-25 3 4 -15.9205 0.9057 
-25 3 5 3.9504 -0.8822 
-25 3 6 7.6874 0.4848 
-25 3 7 -4.8109 -0.5395 
-25 3 8 11.4572 0.4511 
-25 3 9 -14.6715 -0.1910 
-25 3 10 1.3545 0.3768 
-25 3 11 9.3171 -0.3421 
-25 3 12 -9.0230 0.0181 
-25 3 13 4.5742 -0.0072 
-25 3 14 9.1150 0.3130 
-25 3 15 2.0006 0.0611 
-25 3 16 1.4011 -0.1004 
-25 3 17 -11.8979 -0.5353 
-25 3 18 3.2808 0.1938 
-25 3 19 -9.6534 0.0735 
-25 3 20 3.8076 0.3227 
-25 3 21 -5.6306 -0.3722 
-25 3 22 6.8560 0.7675 
-25 3 23 11.1185 -0.0163 
-25 5 1 -2.8294 -0.2603 
-25 5 2 2.5059 -0.2813 
-25 5 3 -1.5150 -0.1401 
-25 5 4 7.6376 -0.0878 
-25 5 5 -1.8387 -0.7740 
-25 5 6 8.2332 1.0543 
-25 5 7 -2.4215 0.3210 
-25 5 8 4.0663 0.3050 
-25 5 9 -24.9491 -1.2382 
-25 5 10 -11.4475 0.3103 
-25 5 11 -4.6655 -0.1374 
-25 5 12 -6.0255 0.6709 
-25 5 13 0.3601 -0.3323 
-25 5 14 1.2035 0.2285 
-25 5 15 -2.6335 0.1252 
-25 5 16 0.6577 -0.2677 
-25 5 17 -26.2124 -0.3359 
-25 5 18 1.6901 0.1759 
-25 5 19 1.7686 -0.1189 
-25 5 20 6.9245 0.4187 
-25 5 21 -8.3645 -0.2285 
-25 5 22 12.8114 0.3510 
-25 5 23 -10.6267 -0.1971 
-25 7 1 3.3466 0.0370 
-25 7 2 -9.6385 -0.4095 
-25 7 3 -4.2260 0.2966 
-25 7 4 -0.7707 -0.3356 
-25 7 5 -7.0128 0.1807 
-25 7 6 18.9349 -0.2468 
-25 7 7 -9.4269 0.5396 
-25 7 8 -4.0748 -0.1521 
-25 7 9 -1.6953 -0.0809 
-25 7 10 -5.9191 -0.2668 
-25 7 11 -14.3112 0.1871 
-25 7 12 2.2186 -0.0864 
-25 7 13 -3.5911 0.1105 
-25 7 14 7.6377 0.2696 
-25 7 15 3.6626 0.1519 
-25 7 16 -4.5995 -0.3305 
-25 7 17 5.4654 -0.2337 
-25 7 18 7.6110 -0.2445 
-25 7 19 -7.7076 0.3946 
-25 7 20 -3.4091 -0.3881 
-25 7 21 -0.4035 0.7624 
-25 7 22 8.0024 0.2002 
-25 9 1 21.4692 0.2093 
-25 9 2 -7.5771 0.0999 
-25 9 3 6.0487 -0.1129 
-25 9 4 6.3007 -0.3371 
-25 9 5 -1.8131 0.2200 
-25 9 6 5.2079 0.0918 
-25 9 7 -6.3487 -0.0250 
-25 9 8 14.7517 -0.0910 
-25 9 9 -14.2096 -0.1611 
-25 9 10 2.0569 0.2077 
-25 9 11 -14.3295 0.0263 
-25 9 12 2.2162 -0.2755 
-25 9 13 -5.7190 -0.1361 
-25 9 14 -2.5617 0.2548 
-25 9 15 -0.5584 -0.0307 
-25 9 16 -7.5215 0.0775 
-25 9 17 -6.4370 -0.2057 
-25 9 18 2.4299 0.3005 
-25 9 19 -6.7041 -0.4628 
-25 9 20 3.9235 -0.8563 
-25 9 21 -12.6498 1.1886 
-25 11 1 0.0595 0.1605 
-25 11 2 3.8568 0.1236 
-25 11 3 15.1588 -0.2287 
-25 11 4 -0.6210 0.0987 
-25 11 5 -5.0711 0.1042 
-25 11 6 18.2195 -0.1172 
-25 11 7 -0.0280 -0.2902 
-25 11 8 17.2027 0.1111 
-25 11 9 -16.7743 0.1997 
-25 11 10 8.1951 0.2759 
-25 11 11 2.1924 -0.3249 
-25 11 12 2.3975 -0.0156 
-25 11 13 2.2552 -0.3232 
-25 11 14 0.0539 0.2720 
-25 11 15 -6.6814 -0.0787 
-25 11 16 1.7370 0.2196 
-25 11 17 -8.7464 -0.1840 
-25 11 18 1.9453 0.8512 
-25 11 19 1.7309 -0.7694 
-25 11 20 8.4256 0.2848 
-25 13 1 8.0202 0.0781 
-25 13 2 12.2260 0.1902 
-25 13 3 -5.2254 0.0058 
-25 13 4 11.0303 -0.2212 
-25 13 5 -19.8156 0.0107 
-25 13 6 7.7079 0.0772 
-25 13 7 -6.1587 -0.0922 
-25 13 8 -8.2772 0.0085 
-25 13 9 -6.5636 0.1175 
-25 13 10 2.1247 0.1359 
-25 13 11 -0.7096 0.0856 
-25 13 12 12.0141 0.0544 
-25 13 13 4.8607 -0.1326 
-25 13 14 -3.0928 -0.2482 
-25 13 15 7.2693 0.2327 
-25 13 16 -1.9703 0.0804 
-25 13 17 3.1023 0.6212 
-25 13 18 -5.5219 0.0395 
-25 13 19 12.0345 -1.1536 
-25 15 1 15.3763 0.1673 
-25 15 2 -10.7802 -0.2656 
-25 15 3 4.7035 0.1499 
-25 15 4 2.6716 -0.3167 
-25 15 5 -3.9809 0.2221 
-25 15 6 5.0756 -0.3194 
-25 15 7 -5.1457 0.4262 
-25 15 8 12.3762 -0.2921 
-25 15 9 4.8163 0.2314 
-25 15 10 13.0829 -0.1315 
-25 15 11 5.7553 0.0838 
-25 15 12 1.2988 -0.0086 
-25 15 13 -4.5451 0.0819 
-25 15 14 -7.1583 -0.2355 
-25 15 15 8.5874 -0.1544 
-25 15 16 -5.7907 -0.1009 
-25 15 17 -4.3072 1.1512 
-25 17 1 -2.7761 -0.4786 
-25 17 2 -2.3641 0.0063 
-25 17 3 11.8664 0.1480 
-25 17 4 1.2771 -0.0170 
-25 17 5 -1.3498 0.0814 
-25 17 6 15.4046 -0.3060 
-25 17 7 12.9961 0.3191 
-25 17 8 11.8781 -0.1409 
-25 17 9 -5.5426 0.1398 
-25 17 10 1.5716 -0.3331 
-25 17 11 2.5889 0.3346 
-25 17 12 10.0694 -0.1484 
-25 17 13 10.2211 0.0895 
-25 17 14 -7.0236 0.1923 
-25 19 5 3.5852 0.6195 
-25 19 6 4.0981 -0.2146 
-25 19 7 2.2739 -0.1844 
-25 19 8 5.1215 -0.3734 
-24 0 1 6.6183 0.7826 
-24 0 2 11.1137 -2.8230 
-24 0 3 -15.0815 1.1929 
-24 0 4 10.2406 0.8022 
-24 0 5 -12.8910 2.3231 
-24 0 6 22.9484 -2.8491 
-24 0 7 16.4486 -1.3473 
-24 0 8 -5.3889 -0.7630 
-24 0 9 9.4377 3.8643 
-24 0 10 -9.9281 0.8980 
-24 0 11 -12.4087 -0.1381 
-24 0 12 -8.7780 -3.4755 
-24 0 13 9.1931 0.0899 
-24 0 14 -6.2641 0.0896 
-24 0 15 1.3989 1.6405 
-24 0 16 4.1630 -0.1861 
-24 0 17 3.5660 0.7493 
-24 0 18 -5.3221 -0.7711 
-24 0 19 -9.9655 -1.0037 
-24 0 20 -0.8573 -1.0145 
-24 0 21 -15.5983 1.6260 
-24 0 22 8.0336 0.7098 
-24 0 23 8.8201 -0.1081 
-24 0 24 17.5559 -1.8911 
-24 2 1 -6.0876 0.0398 
-24 2 2 11.0071 0.7804 
-24 2 3 -5.7727 0.2819 
-24 2 4 4.7715 -0.0944 
-24 2 5 10.1132 -0.0297 
-24 2 6 5.6863 -1.0608 
-24 2 7 3.3237 1.1904 
-24 2 8 3.4502 -0.3181 
-24 2 9 -0.1476 0.3776 
-24 2 10 -7.0412 -0.8897 
-24 2 11 -5.9383 0.7637 
-24 2 12 9.9012 -0.3171 
-24 2 13 3.6306 0.1177 
-24 2 14 -1.6087 -0.2280 
-24 2 15 14.8144 0.1976 
-24 2 16 -0.7270 -0.3354 
-24 2 17 3.8649 0.3500 
-24 2 18 -1.8001 0.3529 
-24 2 19 -8.5223 -0.5176 
-24 2 20 -1.2651 -0.7888 
-24 2 21 -2.5650 0.3297 
-24 2 22 -1.2033 1.2598 
-24 2 23 -7.1747 0.1567 
-24 4 1 -14.0430 -0.6906 
-24 4 2 22.0220 -0.2722 
-24 4 3 -6.9137 -0.5405 
-24 4 4 -3.9618 1.0655 
-24 4 5 11.2590 -0.5166 
-24 4 6 -9.0989 0.1687 
-24 4 7 -1.5162 0.0839 
-24 4 8 12.0152 0.1511 
-24 4 9 -17.7129 -0.5757 
-24 4 10 -7.3866 0.0494 
-24 4 11 -16.2661 0.3589 
-24 4 12 0.4701 0.1808 
-24 4 13 5.7491 -0.6914 
-24 4 14 -4.9235 0.5858 
-24 4 15 -8.5963 0.3160 
-24 4 16 6.8300 -0.0189 
-24 4 17 -5.4825 -1.2230 
-24 4 18 -8.2173 0.5604 
-24 4 19 -12.6700 0.0892 
-24 4 20 5.5050 0.3201 
-24 4 21 -0.7283 -0.2837 
-24 4 22 12.4728 0.2022 
-24 4 23 4.9671 0.0564 
-24 6 1 1.5838 0.0735 
-24 6 2 6.9005 -0.0886 
-24 6 3 -26.4070 0.2060 
-24 6 4 6.0853 -0.4600 
-24 6 5 5.2019 -0.2362 
-24 6 6 8.6858 0.2193 
-24 6 7 11.1572 0.9002 
-24 6 8 0.0659 -0.2637 
-24 6 9 -16.7186 -0.5169 
-24 6 10 8.8304 -0.6773 
-24 6 11 -13.8248 0.7251 
-24 6 12 -16.6276 0.3388 
-24 6 13 -6.6277 0.1969 
-24 6 14 12.4057 -0.3685 
-24 6 15 -2.2422 0.1850 
-24 6 16 9.9664 -0.3781 
-24 6 17 5.7054 -0.2588 
-24 6 18 -3.3264 -0.1405 
-24 6 19 2.7436 0.6947 
-24 6 20 0.0779 -0.1523 
-24 6 21 -19.9394 0.0336 
-24 6 22 3.3600 0.3857 
-24 6 23 -0.8514 -0.7732 
-24 8 1 -5.9297 -0.4236 
-24 8 2 -1.9463 -0.0897 
-24 8 3 -15.8098 0.1417 
-24 8 4 4.4494 -0.1537 
-24 8 5 -4.6811 0.2897 
-24 8 6 8.8235 -0.0124 
-24 8 7 4.7398 -0.0342 
-24 8 8 5.2110 -0.3129 
-24 8 9 -9.7286 0.2594 
-24 8 10 -0.0748 -0.2174 
-24 8 11 -9.6039 0.2656 
-24 8 12 10.7575 -0.4515 
-24 8 13 -4.0254 0.4035 
-24 8 14 -3.4854 -0.2081 
-24 8 15 13.8130 0.5624 
-24 8 16 -8.3461 -0.4774 
-24 8 17 5.8965 -0.0245 
-24 8 18 -4.9684 -0.5269 
-24 8 19 -5.6431 0.3998 
-24 8 20 -9.7145 -0.5437 
-24 8 21 -4.1963 0.7558 
-24 8 22 15.1453 0.0064 
-24 10 1 -13.9223 0.3817 
-24 10 2 1.7294 0.1430 
-24 10 3 -11.1575 -0.0642 
-24 10 4 0.9835 -0.2667 
-24 10 5 3.6155 -0.0031 
-24 10 6 -4.2645 0.1480 
-24 10 7 5.4038 -0.2102 
-24 10 8 8.8959 0.1261 
-24 10 9 -15.7250 -0.0010 
-24 10 10 -3.6927 0.3747 
-24 10 11 -16.6990 -0.3857 
-24 10 12 -1.1920 -0.1919 
-24 10 13 -3.8575 0.1631 
-24 10 14 13.4436 -0.0212 
-24 10 15 13.0975 0.1212 
-24 10 16 8.6760 -0.2900 
-24 10 17 -2.4614 0.2734 
-24 10 18 10.4794 0.0210 
-24 10 19 -7.7933 -0.3383 
-24 10 20 9.2247 -0.4037 
-24 10 21 -6.8914 0.3167 
-24 12 1 -22.4587 0.1390 
-24 12 2 -8.6493 0.1970 
-24 12 3 0.9233 -0.2772 
-24 12 4 1.0259 0.0887 
-24 12 5 11.1364 0.0479 
-24 12 6 2.4594 0.0196 
-24 12 7 4.0676 -0.2599 
-24 12 8 0.9050 -0.0100 
-24 12 9 0.3767 0.1709 
-24 12 10 0.2998 0.3368 
-24 12 11 -0.7088 -0.2255 
-24 12 12 11.5161 -0.1747 
-24 12 13 -7.2408 -0.0752 
-24 12 14 0.4166 0.2969 
-24 12 15 -7.8540 -0.0659 
-24 12 16 -0.8197 0.0210 
-24 12 17 -8.4390 0.4268 
-24 12 18 8.9623 -0.1948 
-24 12 19 -13.7426 -0.6754 
-24 12 20 1.5153 0.1388 
-24 14 1 0.4119 -0.1726 
-24 14 2 -17.9233 0.4136 
-24 14 3 10.3756 -0.2061 
-24 14 4 2.2614 -0.0831 
-24 14 5 -5.0615 -0.1784 
-24 14 6 -1.6331 0.0003 
-24 14 7 7.9336 0.1153 
-24 14 8 -2.3695 -0.0317 
-24 14 9 0.0363 0.1389 
-24 14 10 1.7668 -0.0841 
-24 14 11 -4.0928 0.1351 
-24 14 12 4.0993 -0.0606 
-24 14 13 -3.9609 0.0051 
-24 14 14 -0.0235 -0.0795 
-24 14 15 -3.4736 -0.0735 
-24 14 16 -3.8984 0.0658 
-24 14 17 19.1424 0.6499 
-24 14 18 0.0740 -0.0475 
-24 16 1 -2.0384 -0.1136 
-24 16 2 -1.9822 -0.0820 
-24 16 3 -2.3754 -0.0728 
-24 16 4 -16.3307 -0.0374 
-24 16 5 8.2887 -0.1796 
-24 16 6 -0.9144 0.2162 
-24 16 7 -6.4101 0.2135 
-24 16 8 -5.5869 -0.2767 
-24 16 9 0.6803 0.0040 
-24 16 10 2.6766 -0.1372 
-24 16 11 -2.9751 0.2743 
-24 16 12 3.9719 -0.1382 
-24 16 13 0.6484 0.0513 
-24 16 14 -5.0340 -0.2759 
-24 16 15 8.7360 -0.0281 
-24 16 16 0.9064 0.5009 
-24 18 1 -5.3196 -0.7883 
-24 18 2 -1.1002 0.4837 
-24 18 3 1.5420 -0.3632 
-24 18 4 8.3424 0.3677 
-24 18 5 9.0229 -0.2957 
-24 18 6 5.3026 0.1849 
-24 18 7 -4.9394 -0.0763 
-24 18 8 -2.7726 0.2187 
-24 18 9 -0.3587 -0.1538 
-24 18 10 2.5780 -0.0986 
-24 18 11 -3.2995 0.2108 
-24 18 12 -2.1977 -0.1021 
-24 18 13 -0.2736 0.1282 
-23 1 1 22.4899 0.9217 
-23 1 2 -0.8897 0.2906 
-23 1 3 9.3467 0.7214 
-23 1 4 3.3633 -0.5138 
-23 1 5 13.3271 0.9051 
-23 1 6 -3.2966 -1.4916 
-23 1 7 9.8226 -0.3180 
-23 1 8 0.0307 -0.0970 
-23 1 9 25.6721 2.4666 
-23 1 10 15.1146 -0.1478 
-23 1 11 -13.6007 -1.0389 
-23 1 12 0.8530 -1.0177 
-23 1 13 -1.2790 0.6371 
-23 1 14 -14.5550 0.1971 
-23 1 15 20.4366 -0.2271 
-23 1 16 -9.4374 0.2854 
-23 1 17 6.8806 1.0527 
-23 1 18 -6.0113 -0.3704 
-23 1 19 -10.8875 -1.2502 
-23 1 20 20.4471 -0.5843 
-23 1 21 -12.5588 1.0789 
-23 1 22 -1.0392 0.7837 
-23 1 23 -14.6782 -0.2190 
-23 1 24 3.3752 -0.4187 
-23 3 1 9.0967 -0.2239 
-23 3 2 4.1066 0.1030 
-23 3 3 15.4087 -0.5061 
-23 3 4 -5.0302 0.3402 
-23 3 5 14.3850 0.0153 
-23 3 6 11.6623 0.5863 
-23 3 7 9.6891 -0.3095 
-23 3 8 -0.3466 0.1010 
-23 3 9 -8.1273 -0.5693 
-23 3 10 6.5536 0.5253 
-23 3 11 17.2006 -0.3372 
-23 3 12 -3.2763 0.5488 
-23 3 13 12.0917 -0.7098 
-23 3 14 -12.6316 0.4936 
-23 3 15 4.6854 -0.5005 
-23 3 16 -2.3235 0.9950 
-23 3 17 6.3259 -0.6698 
-23 3 18 22.6917 0.3471 
-23 3 19 -15.8514 -0.4914 
-23 3 20 -10.3558 0.0334 
-23 3 21 -12.1424 0.2998 
-23 3 22 -4.0534 0.0152 
-23 3 23 10.9088 -0.1027 
-23 3 24 5.6068 0.1931 
-23 5 1 -2.7049 -0.4266 
-23 5 2 0.9554 -0.2060 
-23 5 3 8.2781 0.1608 
-23 5 4 -8.9718 0.3454 
-23 5 5 15.5066 -0.3826 
-23 5 6 -8.8378 0.1871 
-23 5 7 4.8298 0.2115 
-23 5 8 15.1089 0.3964 
-23 5 9 -12.3870 -1.0167 
-23 5 10 7.2372 0.2291 
-23 5 11 -4.8113 -0.0661 
-23 5 12 -22.1764 0.8144 
-23 5 13 4.1994 -0.3721 
-23 5 14 -0.2341 0.4208 
-23 5 15 10.1396 -0.2969 
-23 5 16 4.8533 -0.0844 
-23 5 17 -21.3639 -0.9629 
-23 5 18 12.3982 0.8539 
-23 5 19 -7.9835 0.3760 
-23 5 20 -0.3402 0.0228 
-23 5 21 -8.6009 -0.2806 
-23 5 22 -3.4044 -0.1416 
-23 5 23 -14.3937 0.0088 
-23 7 1 -6.8494 -0.4859 
-23 7 2 5.9225 0.1382 
-23 7 3 31.7562 -0.2468 
-23 7 4 -3.6975 0.1232 
-23 7 5 13.9519 0.1405 
-23 7 6 -4.2902 0.1975 
-23 7 7 -0.2127 0.3167 
-23 7 8 7.4342 -0.4382 
-23 7 9 -12.5526 -0.2907 
-23 7 10 6.5432 -0.3099 
-23 7 11 -16.7392 0.6620 
-23 7 12 -0.4269 0.2097 
-23 7 13 -10.5788 -0.2659 
-23 7 14 2.7200 -0.0546 
-23 7 15 3.7800 0.3598 
-23 7 16 -13.1101 -0.3863 
-23 7 17 11.1597 -0.2776 
-23 7 18 1.8603 0.0928 
-23 7 19 3.3594 0.2189 
-23 7 20 21.1938 0.0513 
-23 7 21 7.0385 -0.2615 
-23 7 22 -2.2532 0.8737 
-23 7 23 -12.1311 -0.2504 
-23 9 1 4.0401 -0.4930 
-23 9 2 -19.2381 0.3980 
-23 9 3 3.1251 -0.0070 
-23 9 4 20.1600 0.1296 
-23 9 5 3.8895 -0.3217 
-23 9 6 15.2018 0.1650 
-23 9 7 -1.7861 -0.1236 
-23 9 8 14.8218 0.2158 
-23 9 9 -9.5798 0.1243 
-23 9 10 -1.5972 -0.1144 
-23 9 11 -11.8311 -0.2178 
-23 9 12 -3.9955 0.1298 
-23 9 13 -13.2801 0.0013 
-23 9 14 -0.2577 0.2143 
-23 9 15 1.6131 0.0930 
-23 9 16 7.4166 -0.4448 
-23 9 17 -0.6229 0.1973 
-23 9 18 5.3485 -0.0521 
-23 9 19 7.0925 0.0959 
-23 9 20 3.3715 -0.3157 
-23 9 21 -1.4174 0.1319 
-23 9 22 2.1949 0.8349 
-23 11 1 -0.8287 0.1851 
-23 11 2 1.8363 0.1695 
-23 11 3 2.9660 -0.2205 
-23 11 4 -3.1224 0.1393 
-23 11 5 -5.1476 -0.1543 
-23 11 6 3.2298 0.1744 
-23 11 7 1.4197 -0.3561 
-23 11 8 17.5552 0.1921 
-23 11 9 -4.0920 0.1347 
-23 11 10 3.0005 0.3096 
-23 11 11 -9.5969 -0.3503 
-23 11 12 -4.4456 -0.0612 
-23 11 13 2.4876 -0.1479 
-23 11 14 0.0521 0.3461 
-23 11 15 -16.3901 -0.1695 
-23 11 16 13.0123 0.2914 
-23 11 17 -21.1606 0.0835 
-23 11 18 13.3008 -0.5332 
-23 11 19 5.4347 -0.0445 
-23 11 20 3.5240 -0.3615 
-23 11 21 -9.7069 1.4156 
-23 13 1 -0.8843 0.1263 
-23 13 2 10.4901 0.1147 
-23 13 3 1.4106 -0.1275 
-23 13 4 1.3539 -0.0311 
-23 13 5 -3.8486 -0.1231 
-23 13 6 1.3808 0.1037 
-23 13 7 12.1272 -0.1828 
-23 13 8 -14.5116 0.1870 
-23 13 9 4.3669 0.0600 
-23 13 10 0.6864 0.1493 
-23 13 11 -24.0322 -0.2951 
-23 13 12 10.4003 -0.1429 
-23 13 13 -2.5095 0.1627 
-23 13 14 -6.5689 0.2201 
-23 13 15 2.8293 -0.3405 
-23 13 16 10.3635 0.4084 
-23 13 17 7.9984 -0.0666 
-23 13 18 -7.3443 0.3061 
-23 13 19 -4.7822 -0.6973 
-23 13 20 11.0654 -0.5926 
-23 15 1 -2.1684 0.2694 
-23 15 2 0.0036 -0.2040 
-23 15 3 -0.6391 0.1203 
-23 15 4 -4.2411 -0.2027 
-23 15 5 -0.2370 0.0570 
-23 15 6 8.3091 -0.0948 
-23 15 7 3.8490 0.2858 
-23 15 8 2.6296 -0.2702 
-23 15 9 2.4530 0.1085 
-23 15 10 1.1622 -0.1227 
-23 15 11 -31.8559 0.3486 
-23 15 12 2.3407 -0.3013 
-23 15 13 -5.7853 0.2851 
-23 15 14 -4.6187 -0.3958 
-23 15 15 -4.3285 0.1772 
-23 15 16 -10.7476 0.1210 
-23 15 17 4.8823 -0.0844 
-23 15 18 -5.9202 0.7727 
-23 17 1 -4.8122 -0.1078 
-23 17 2 -3.7275 -0.0762 
-23 17 3 -5.1461 0.1632 
-23 17 4 -9.0607 -0.3814 
-23 17 5 -3.9719 0.0836 
-23 17 6 14.0851 0.0833 
-23 17 7 -2.2010 0.4482 
-23 17 8 -3.3256 -0.2687 
-23 17 9 0.2199 -0.0529 
-23 17 10 -2.0191 -0.1831 
-23 17 11 -6.1467 0.3679 
-23 17 12 7.4076 -0.3223 
-23 17 13 3.8328 0.2496 
-23 17 14 2.2667 -0.6413 
-23 17 15 -5.3866 0.4600 
-23 17 16 2.3834 -0.2088 
-23 19 1 -6.0543 -0.4467 
-23 19 2 3.6640 0.0862 
-23 19 3 10.1947 0.1003 
-23 19 4 -7.8312 0.0081 
-23 19 5 5.2722 0.0225 
-23 19 6 -8.9190 -0.0353 
-23 19 7 -6.0737 0.2024 
-23 19 8 -3.7069 -0.2206 
-23 19 9 -2.4650 0.1133 
-23 19 10 -0.6144 -0.0378 
-23 19 11 2.1113 0.2532 
-23 19 12 15.9778 -0.3670 
-23 19 13 -7.9188 0.3744 
-22 0 1 -16.9542 9.2078 
-22 0 2 20.8226 -1.1703 
-22 0 3 0.3998 0.6203 
-22 0 4 15.8444 -1.9252 
-22 0 5 -6.4672 1.5358 
-22 0 6 6.3470 -2.1190 
-22 0 7 31.6267 0.4087 
-22 0 8 -5.2247 0.3448 
-22 0 9 0.7259 2.9603 
-22 0 10 12.4327 -2.4937 
-22 0 11 2.1100 0.4314 
-22 0 12 9.2643 -0.8170 
-22 0 13 10.3673 1.8468 
-22 0 14 3.6557 -2.9262 
-22 0 15 -13.9961 0.5666 
-22 0 16 -10.2216 1.4999 
-22 0 17 5.0137 2.3517 
-22 0 18 9.4583 -1.6925 
-22 0 19 8.0304 -1.9069 
-22 0 20 4.7097 -0.9368 
-22 0 21 -21.7334 2.1191 
-22 0 22 11.7353 1.4190 
-22 0 23 -19.2921 0.0623 
-22 0 24 18.8861 -1.5290 
-22 2 1 -8.4309 0.8252 
-22 2 2 23.0215 -1.4663 
-22 2 3 8.7307 0.6896 
-22 2 4 4.7152 0.1757 
-22 2 5 -3.4325 1.3351 
-22 2 6 20.3665 -1.7486 
-22 2 7 3.7337 -0.7744 
-22 2 8 18.0635 0.5853 
-22 2 9 12.6059 2.0178 
-22 2 10 25.2980 -0.8225 
-22 2 11 16.1814 -0.7260 
-22 2 12 -4.7959 -0.7464 
-22 2 13 1.8790 0.8006 
-22 2 14 -7.9766 -0.7335 
-22 2 15 20.0823 1.0371 
-22 2 16 -2.0055 0.0168 
-22 2 17 -4.5912 0.3022 
-22 2 18 -1.2947 -0.9951 
-22 2 19 8.1631 0.4870 
-22 2 20 3.4581 -0.0395 
-22 2 21 -2.8428 0.1513 
-22 2 22 12.8227 0.1047 
-22 2 23 -10.4300 -0.4641 
-22 2 24 -2.7449 0.4673 
-22 4 1 -6.9641 -0.2004 
-22 4 2 35.4900 0.1185 
-22 4 3 -1.3725 -0.1852 
-22 4 4 16.0478 -0.4884 
-22 4 5 8.3806 0.2816 
-22 4 6 5.5820 0.5403 
-22 4 7 -21.9578 0.0085 
-22 4 8 35.6770 0.0179 
-22 4 9 -11.6293 -0.7087 
-22 4 10 5.3304 -0.1429 
-22 4 11 15.5904 0.3303 
-22 4 12 -1.4795 0.8257 
-22 4 13 2.0001 -0.1487 
-22 4 14 -11.6107 -0.6886 
-22 4 15 9.3766 -0.0351 
-22 4 16 -3.5651 0.2717 
-22 4 17 -7.7309 -0.1226 
-22 4 18 4.2958 0.0182 
-22 4 19 12.4956 0.6944 
-22 4 20 4.1754 -0.2592 
-22 4 21 0.7188 -0.2243 
-22 4 22 -6.7949 -0.2708 
-22 4 23 -15.6506 -0.0057 
-22 4 24 -6.7639 -0.4352 
-22 6 1 -1.5487 -0.9220 
-22 6 2 13.7806 -0.2790 
-22 6 3 -26.0354 0.3997 
-22 6 4 28.3311 0.1312 
-22 6 5 -4.9530 0.1961 
-22 6 6 4.4011 -0.0849 
-22 6 7 2.3529 0.2443 
-22 6 8 17.3881 -0.5156 
-22 6 9 1.2206 -0.0094 
-22 6 10 32.7274 -0.2160 
-22 6 11 -14.3419 0.3903 
-22 6 12 13.3549 0.0443 
-22 6 13 1.6824 0.2570 
-22 6 14 -0.4961 -0.2394 
-22 6 15 -4.6530 0.2316 
-22 6 16 -1.0513 -0.4295 
-22 6 17 13.5767 -0.4008 
-22 6 18 5.8357 0.2292 
-22 6 19 5.2470 0.5541 
-22 6 20 -8.4795 0.1567 
-22 6 21 -6.6489 -0.5073 
-22 6 22 9.2044 0.2777 
-22 6 23 0.8163 -0.1017 
-22 6 24 9.7525 -0.4856 
-22 8 1 3.6836 -0.0900 
-22 8 2 9.2029 -0.0876 
-22 8 3 -7.3423 0.0523 
-22 8 4 15.2637 -0.1677 
-22 8 5 -28.2910 -0.0397 
-22 8 6 24.8441 0.1223 
-22 8 7 -10.5894 0.6151 
-22 8 8 12.9528 -0.6333 
-22 8 9 4.9386 0.0196 
-22 8 10 10.8491 -0.2481 
-22 8 11 -8.9379 0.4781 
-22 8 12 7.6439 0.0255 
-22 8 13 -9.0627 0.0194 
-22 8 14 -13.3799 -0.1431 
-22 8 15 10.7464 -0.0054 
-22 8 16 -6.0176 -0.3339 
-22 8 17 -3.8946 0.0946 
-22 8 18 -1.1586 0.4593 
-22 8 19 -0.7556 -0.1228 
-22 8 20 4.3068 0.0046 
-22 8 21 -5.4744 -0.0753 
-22 8 22 -7.5772 0.5463 
-22 8 23 -7.8865 -0.4541 
-22 10 1 -1.0392 -0.0033 
-22 10 2 12.7274 -0.0308 
-22 10 3 -5.5950 0.1310 
-22 10 4 5.1993 0.1786 
-22 10 5 -9.7556 -0.1758 
-22 10 6 17.9208 -0.2166 
-22 10 7 -3.7796 -0.0384 
-22 10 8 18.2299 0.2026 
-22 10 9 -7.3512 0.3001 
-22 10 10 0.6082 0.0047 
-22 10 11 0.7497 -0.1682 
-22 10 12 0.3964 -0.1825 
-22 10 13 -0.6783 0.0020 
-22 10 14 -2.6575 0.4588 
-22 10 15 -12.3741 0.0760 
-22 10 16 20.2398 -0.4551 
-22 10 17 -2.4311 0.2034 
-22 10 18 -2.3509 -0.1572 
-22 10 19 -3.9246 0.1174 
-22 10 20 7.6061 -0.3384 
-22 10 21 4.3980 0.9361 
-22 10 22 7.7942 0.5021 
-22 12 1 1.8198 0.1548 
-22 12 2 24.0710 0.1637 
-22 12 3 13.5012 -0.3911 
-22 12 4 -8.4637 0.2360 
-22 12 5 3.7810 -0.3555 
-22 12 6 -5.4937 0.2578 
-22 12 7 -9.2405 -0.4467 
-22 12 8 -6.2186 0.4932 
-22 12 9 -3.7197 -0.0246 
-22 12 10 7.2279 0.3046 
-22 12 11 -13.4730 -0.5553 
-22 12 12 -3.8400 0.0663 
-22 12 13 -8.6831 -0.2255 
-22 12 14 5.8363 0.3927 
-22 12 15 -11.4257 -0.1904 
-22 12 16 7.9244 0.2223 
-22 12 17 -0.4758 -0.1833 
-22 12 18 9.4370 0.0945 
-22 12 19 -0.9403 -0.4196 
-22 12 20 -9.9030 -0.6573 
-22 12 21 -8.0328 1.8641 
-22 14 1 -0.6580 0.1101 
-22 14 2 -17.4428 -0.0354 
-22 14 3 10.0146 -0.0833 
-22 14 4 -2.4038 -0.0106 
-22 14 5 -2.8644 -0.1464 
-22 14 6 -3.5639 0.1252 
-22 14 7 4.4849 -0.1561 
-22 14 8 0.1196 0.2679 
-22 14 9 -10.6243 -0.2111 
-22 14 10 11.3835 0.2207 
-22 14 11 -12.5561 -0.2691 
-22 14 12 -13.4964 0.0508 
-22 14 13 6.4182 0.0427 
-22 14 14 12.9557 0.1403 
-22 14 15 10.4934 -0.0855 
-22 14 16 5.2756 0.0804 
-22 14 17 7.3682 -0.1462 
-22 14 18 -11.1889 0.1824 
-22 14 19 1.2249 -0.4529 
-22 14 20 5.5077 0.4589 
-22 16 1 6.1603 -0.0700 
-22 16 2 4.1161 -0.0098 
-22 16 3 1.5391 -0.0610 
-22 16 4 0.0821 0.0269 
-22 16 5 4.0955 -0.1775 
-22 16 6 0.7204 0.2420 
-22 16 7 -12.1381 0.0210 
-22 16 8 15.5556 0.1378 
-22 16 9 -7.3704 -0.3333 
-22 16 10 6.1540 0.1832 
-22 16 11 2.5478 0.0132 
-22 16 12 -4.7720 0.1346 
-22 16 13 7.1099 -0.0370 
-22 16 14 -2.9302 -0.2931 
-22 16 15 0.5752 0.0385 
-22 16 16 -1.7336 0.2166 
-22 16 17 6.3540 0.4119 
-22 16 18 0.2842 -0.3343 
-22 18 1 2.2646 -0.4797 
-22 18 2 9.8134 0.3406 
-22 18 3 -7.0122 -0.2836 
-22 18 4 17.6631 0.0494 
-22 18 5 0.2806 -0.1250 
-22 18 6 6.2072 0.2523 
-22 18 7 -2.8801 0.0921 
-22 18 8 -2.5247 0.1358 
-22 18 9 2.4155 -0.4416 
-22 18 10 -2.1862 0.2348 
-22 18 11 -13.2547 -0.1256 
-22 18 12 -12.8289 0.4085 
-22 18 13 1.6494 -0.4461 
-22 18 14 -1.2699 0.3390 
-22 18 15 1.0617 -0.6787 
-22 20 1 -9.1248 -0.4561 
-22 20 2 2.3899 -0.0349 
-22 20 3 7.2152 0.0528 
-22 20 4 8.6430 0.2581 
-22 20 5 -9.5463 -0.2379 
-22 20 6 -5.4180 -0.0443 
-22 20 7 -8.1845 0.2449 
-22 20 8 -8.3574 -0.2962 
-22 20 9 -1.4355 0.3526 
-22 20 10 9.3505 -0.2337 
-22 20 11 -3.7386 0.4326 
-22 20 12 4.9025 -1.0596 
-21 1 1 19.7734 0.8991 
-21 1 2 -2.6524 0.3322 
-21 1 3 20.4431 0.2189 
-21 1 4 6.9282 0.2330 
-21 1 5 11.8285 0.2624 
-21 1 6 -0.4830 -1.3030 
-21 1 7 -5.5857 -0.0765 
-21 1 8 31.1685 0.1763 
-21 1 9 17.3060 1.8260 
-21 1 10 14.2548 -0.5018 
-21 1 11 18.2963 -0.3098 
-21 1 12 21.6367 -1.6884 
-21 1 13 -4.5015 0.9155 
-21 1 14 -2.9854 -0.4650 
-21 1 15 -5.3379 1.0926 
-21 1 16 -8.4878 -0.2009 
-21 1 17 6.3337 0.8716 
-21 1 18 0.5635 -0.8830 
-21 1 19 10.2549 -0.8311 
-21 1 20 11.0580 0.0604 
-21 1 21 4.2957 1.1488 
-21 1 22 9.9615 0.8034 
-21 1 23 -20.0717 -0.8101 
-21 1 24 9.2473 -0.5488 
-21 1 25 -12.6524 0.1087 
-21 3 1 5.8687 -0.1949 
-21 3 2 16.1185 0.5562 
-21 3 3 25.5266 -0.3707 
-21 3 4 -8.5504 0.8888 
-21 3 5 2.9452 -1.1182 
-21 3 6 -0.9479 0.5579 
-21 3 7 7.1670 -0.6219 
-21 3 8 19.3596 0.9253 
-21 3 9 24.8239 -0.5858 
-21 3 10 27.8155 0.1844 
-21 3 11 27.2494 -0.3419 
-21 3 12 2.2028 0.3824 
-21 3 13 7.0881 -0.2559 
-21 3 14 -10.7429 0.1526 
-21 3 15 -7.6814 -0.3781 
-21 3 16 3.9600 0.0173 
-21 3 17 2.0952 -0.0365 
-21 3 18 -7.6443 0.3795 
-21 3 19 2.9714 0.1340 
-21 3 20 -18.8461 -0.0695 
-21 3 21 6.5825 -0.2953 
-21 3 22 5.4515 0.0728 
-21 3 23 -3.8175 -0.3434 
-21 3 24 9.0378 -0.5030 
-21 5 1 -3.5197 -0.2383 
-21 5 2 7.5025 -0.0871 
-21 5 3 17.6490 -0.1134 
-21 5 4 -2.3334 0.1300 
-21 5 5 21.2726 -0.0594 
-21 5 6 -24.2184 0.9776 
-21 5 7 4.6975 -0.6987 
-21 5 8 26.3963 0.0147 
-21 5 9 11.1263 -1.0206 
-21 5 10 26.5406 0.7883 
-21 5 11 14.9690 0.0886 
-21 5 12 -1.4310 0.5524 
-21 5 13 22.7869 -0.6553 
-21 5 14 -11.0550 0.0706 
-21 5 15 -1.4648 0.0076 
-21 5 16 18.3036 0.0805 
-21 5 17 -8.0836 -0.5246 
-21 5 18 -1.7713 0.1857 
-21 5 19 14.1456 0.5748 
-21 5 20 7.7125 0.1599 
-21 5 21 20.1577 -0.8271 
-21 5 22 15.4486 0.1657 
-21 5 23 -12.3395 -0.4197 
-21 5 24 -9.3297 -0.1466 
-21 7 1 0.7635 -0.2127 
-21 7 2 8.2174 -0.1776 
-21 7 3 12.5260 0.3564 
-21 7 4 -24.6634 -0.2286 
-21 7 5 16.6194 -0.1233 
-21 7 6 -2.6113 0.3256 
-21 7 7 6.1831 0.1934 
-21 7 8 12.4048 -0.2570 
-21 7 9 6.3999 -0.3129 
-21 7 10 29.3214 -0.1520 
-21 7 11 -7.1675 0.3076 
-21 7 12 0.7231 0.3453 
-21 7 13 11.1283 0.0458 
-21 7 14 -20.2969 -0.3129 
-21 7 15 2.1910 -0.2099 
-21 7 16 -8.7077 -0.1185 
-21 7 17 4.7296 -0.2879 
-21 7 18 -7.4648 0.5835 
-21 7 19 -11.8854 0.3301 
-21 7 20 12.4113 -0.1921 
-21 7 21 -11.5845 -0.4915 
-21 7 22 7.4658 0.3073 
-21 7 23 -11.0362 0.0029 
-21 7 24 0.7408 0.1461 
-21 9 1 -15.4508 0.0927 
-21 9 2 15.7127 -0.3381 
-21 9 3 14.5694 0.1265 
-21 9 4 1.6692 0.0232 
-21 9 5 1.5896 0.1751 
-21 9 6 -7.4265 -0.1418 
-21 9 7 -14.5396 -0.0975 
-21 9 8 4.4722 -0.1870 
-21 9 9 18.2538 0.3206 
-21 9 10 2.2272 0.1095 
-21 9 11 -6.7221 0.0479 
-21 9 12 -5.0617 -0.1343 
-21 9 13 -0.5440 0.1048 
-21 9 14 -6.4285 -0.0200 
-21 9 15 1.5585 0.0366 
-21 9 16 -12.1508 -0.0892 
-21 9 17 -11.6990 -0.1906 
-21 9 18 2.6756 0.3205 
-21 9 19 2.6883 -0.0272 
-21 9 20 6.9979 -0.0160 
-21 9 21 0.0339 0.5839 
-21 9 22 -5.8618 0.1140 
-21 9 23 -9.1172 -0.7812 
-21 11 1 -8.5236 0.2461 
-21 11 2 5.0157 -0.0183 
-21 11 3 -7.8958 -0.0704 
-21 11 4 -7.9574 0.0923 
-21 11 5 8.9281 -0.2031 
-21 11 6 -2.1898 -0.2298 
-21 11 7 1.9399 -0.1097 
-21 11 8 -2.9392 0.5502 
-21 11 9 9.1767 0.0528 
-21 11 10 8.7783 0.0889 
-21 11 11 -1.6839 -0.5096 
-21 11 12 5.9400 -0.0020 
-21 11 13 -18.3240 0.1282 
-21 11 14 6.3042 0.3266 
-21 11 15 -6.0627 -0.2179 
-21 11 16 15.1039 -0.1005 
-21 11 17 -19.0071 0.0482 
-21 11 18 0.6338 0.0390 
-21 11 19 2.3950 -0.4141 
-21 11 20 -11.4236 -0.1300 
-21 11 21 4.9681 0.9342 
-21 11 22 0.0530 0.0381 
-21 13 1 -3.5527 0.3335 
-21 13 2 -9.2742 -0.2811 
-21 13 3 13.9870 -0.0245 
-21 13 4 -3.5275 -0.0420 
-21 13 5 4.8050 0.0453 
-21 13 6 -10.3854 -0.2948 
-21 13 7 5.8739 -0.0781 
-21 13 8 -1.4178 0.2316 
-21 13 9 -0.5033 0.0893 
-21 13 10 11.7459 0.2696 
-21 13 11 -7.5096 -0.6148 
-21 13 12 16.8859 0.1967 
-21 13 13 -15.0818 -0.2364 
-21 13 14 0.0938 0.3622 
-21 13 15 -9.7632 -0.1765 
-21 13 16 5.1539 0.0794 
-21 13 17 -2.3485 -0.2164 
-21 13 18 4.4148 0.0634 
-21 13 19 -3.2159 -0.6405 
-21 13 20 -5.7095 0.5087 
-21 13 21 -14.5749 -0.1503 
-21 15 1 11.4178 0.2265 
-21 15 2 1.5894 -0.1988 
-21 15 3 -7.4836 0.1348 
-21 15 4 -8.5344 -0.2991 
-21 15 5 -4.6994 0.1311 
-21 15 6 -16.6101 -0.1907 
-21 15 7 -12.8546 0.4076 
-21 15 8 0.8664 -0.1663 
-21 15 9 -3.4225 0.1273 
-21 15 10 6.2516 -0.3518 
-21 15 11 -11.3750 0.2399 
-21 15 12 -1.5416 -0.0532 
-21 15 13 -8.5895 0.0894 
-21 15 14 -3.3371 -0.0596 
-21 15 15 4.7245 0.1395 
-21 15 16 -2.9532 -0.1105 
-21 15 17 -6.9518 0.3824 
-21 15 18 -1.1764 -0.6881 
-21 15 19 4.4350 0.1497 
-21 17 1 -1.9163 -0.2213 
-21 17 2 2.3580 -0.0316 
-21 17 3 -10.0501 -0.1078 
-21 17 4 4.3224 0.1469 
-21 17 5 -5.2849 0.0221 
-21 17 6 10.8629 0.0798 
-21 17 7 1.2065 0.0146 
-21 17 8 7.4105 -0.0055 
-21 17 9 13.9371 -0.2233 
-21 17 10 -7.3175 0.0207 
-21 17 11 -3.5680 0.3285 
-21 17 12 -2.9944 0.0814 
-21 17 13 7.8644 -0.2054 
-21 17 14 -1.0277 -0.0340 
-21 17 15 0.2519 -0.1746 
-21 17 16 8.2512 0.0674 
-21 17 17 4.1603 0.0595 
-21 19 1 -2.7962 -0.3196 
-21 19 2 -1.6811 0.2548 
-21 19 3 6.9800 -0.1898 
-21 19 4 -2.4746 0.0572 
-21 19 5 -11.8745 -0.2317 
-21 19 6 6.4287 0.1290 
-21 19 7 5.8117 0.1974 
-21 19 8 11.0814 0.1148 
-21 19 9 -0.5238 -0.3002 
-21 19 10 -0.4225 -0.1659 
-21 19 11 -2.4357 0.1816 
-21 19 12 -6.2451 0.0077 
-21 19 13 3.0255 -0.1345 
-21 19 14 -7.8119 0.2223 
-21 19 15 0.8351 -0.1290 
-21 21 1 5.3534 -0.4368 
-21 21 2 0.7318 0.1561 
-21 21 3 5.9196 -0.2895 
-21 21 4 1.7613 0.5173 
-21 21 5 -3.6852 -0.5058 
-21 21 6 19.7464 0.3530 
-21 21 7 2.9764 -0.3898 
-21 21 8 10.8283 0.2728 
-21 21 9 -11.2354 -0.1550 
-21 21 10 0.4535 0.2290 
-21 21 11 1.7662 -0.1276 
-20 0 1 17.7596 -0.5217 
-20 0 2 -20.0329 0.0185 
-20 0 3 15.6540 2.0855 
-20 0 4 5.6143 -0.5442 
-20 0 5 -13.1097 0.8474 
-20 0 6 3.9169 -3.6213 
-20 0 7 26.7114 0.2363 
-20 0 8 40.5874 0.9622 
-20 0 9 1.4947 4.9978 
-20 0 10 59.3521 -2.3075 
-20 0 11 0.1916 -2.5560 
-20 0 12 34.1188 -2.6691 
-20 0 13 -8.0498 3.7576 
-20 0 14 3.3542 0.7665 
-20 0 15 10.3175 0.0880 
-20 0 16 2.4297 -1.0156 
-20 0 17 -0.6604 1.3792 
-20 0 18 -11.9148 -1.8349 
-20 0 19 -6.1814 -0.4378 
-20 0 20 4.9929 0.4188 
-20 0 21 -1.5475 2.3577 
-20 0 22 -15.3487 -0.8947 
-20 0 23 -21.4036 -0.4753 
-20 0 24 22.5499 -0.6838 
-20 0 25 -14.3706 1.6127 
-20 2 1 7.9453 -0.3492 
-20 2 2 -14.2962 1.5199 
-20 2 3 25.7374 -0.3645 
-20 2 4 15.0493 -0.9183 
-20 2 5 -13.1475 0.7342 
-20 2 6 17.4293 0.2109 
-20 2 7 -17.7307 0.3105 
-20 2 8 9.0557 -1.2209 
-20 2 9 22.4809 1.0077 
-20 2 10 25.5316 0.0040 
-20 2 11 -6.3391 -0.1378 
-20 2 12 19.9219 -0.5821 
-20 2 13 8.9917 0.7609 
-20 2 14 3.2901 -0.7006 
-20 2 15 2.0071 0.0709 
-20 2 16 9.9606 0.1379 
-20 2 17 -11.0552 1.2141 
-20 2 18 -4.6327 -1.1091 
-20 2 19 -7.7611 -0.6253 
-20 2 20 5.7913 0.1125 
-20 2 21 23.8458 1.1322 
-20 2 22 22.6250 -0.1229 
-20 2 23 -5.8617 -0.3847 
-20 2 24 -10.3748 -0.6878 
-20 2 25 -31.5469 0.1290 
-20 4 1 14.6677 -0.5265 
-20 4 2 18.1646 0.3260 
-20 4 3 -12.1576 0.5314 
-20 4 4 4.1060 0.3004 
-20 4 5 -8.6077 -0.4288 
-20 4 6 14.3388 0.2112 
-20 4 7 -1.5898 -0.0129 
-20 4 8 34.9871 -0.3750 
-20 4 9 -2.5206 0.1901 
-20 4 10 10.7488 0.1769 
-20 4 11 19.7242 -0.1837 
-20 4 12 15.0393 -0.1662 
-20 4 13 4.8329 0.2500 
-20 4 14 18.7984 0.4235 
-20 4 15 0.0198 -0.4747 
-20 4 16 7.3708 -0.2112 
-20 4 17 -2.3814 0.0197 
-20 4 18 6.0269 0.1634 
-20 4 19 8.1656 0.4384 
-20 4 20 9.1777 -0.0283 
-20 4 21 17.0669 -0.4720 
-20 4 22 -2.6429 -0.3626 
-20 4 23 2.6307 -0.2681 
-20 4 24 9.5915 -0.1831 
-20 4 25 8.6541 -0.0448 
-20 6 1 6.5981 0.0759 
-20 6 2 20.6753 -0.2995 
-20 6 3 4.5380 0.0222 
-20 6 4 22.8910 -0.2794 
-20 6 5 -17.1760 0.3344 
-20 6 6 -3.9139 0.4482 
-20 6 7 2.7625 0.3641 
-20 6 8 6.4045 -0.8996 
-20 6 9 -37.5535 -0.4267 
-20 6 10 62.2929 0.1328 
-20 6 11 4.9717 1.0933 
-20 6 12 21.6628 -0.1545 
-20 6 13 9.1880 -0.3606 
-20 6 14 10.6346 -0.2364 
-20 6 15 2.1988 0.0057 
-20 6 16 11.0364 -0.1075 
-20 6 17 15.2076 0.0463 
-20 6 18 -12.6899 0.3992 
-20 6 19 -0.6429 0.3651 
-20 6 20 1.7463 -0.5673 
-20 6 21 11.5176 -0.2946 
-20 6 22 16.7631 -0.1809 
-20 6 23 -7.4402 -0.0200 
-20 6 24 -2.6988 0.1218 
-20 8 1 -18.6493 -0.0235 
-20 8 2 4.4476 -0.2874 
-20 8 3 -3.2363 0.5504 
-20 8 4 7.8424 -0.1356 
-20 8 5 -13.9820 0.2088 
-20 8 6 35.3943 -0.3326 
-20 8 7 -20.0986 0.2834 
-20 8 8 13.0252 -0.2592 
-20 8 9 -2.7353 0.2283 
-20 8 10 23.1951 -0.3317 
-20 8 11 6.2921 0.5107 
-20 8 12 2.2337 -0.1466 
-20 8 13 1.2736 0.2418 
-20 8 14 5.3137 -0.3203 
-20 8 15 -1.8642 0.2282 
-20 8 16 0.1235 -0.3242 
-20 8 17 -9.3693 -0.4343 
-20 8 18 5.3292 0.7703 
-20 8 19 0.3126 0.1716 
-20 8 20 -8.9742 -0.2901 
-20 8 21 -21.7705 0.3322 
-20 8 22 6.3098 -0.3046 
-20 8 23 6.6194 0.0770 
-20 8 24 1.9843 -0.6377 
-20 10 1 5.9842 0.3838 
-20 10 2 15.7671 -0.3044 
-20 10 3 -7.0694 0.0812 
-20 10 4 19.9989 -0.1691 
-20 10 5 -16.1415 0.3704 
-20 10 6 16.2716 -0.3399 
-20 10 7 -21.1569 -0.0199 
-20 10 8 4.9832 0.0467 
-20 10 9 -18.0483 0.3432 
-20 10 10 -4.2101 -0.2250 
-20 10 11 12.2853 0.1675 
-20 10 12 -2.3460 -0.1140 
-20 10 13 1.9167 0.1257 
-20 10 14 -2.8873 -0.3397 
-20 10 15 -8.9276 0.4307 
-20 10 16 14.6871 -0.1735 
-20 10 17 -12.3537 0.1163 
-20 10 18 0.1168 -0.1204 
-20 10 19 15.9351 -0.0242 
-20 10 20 5.6438 0.2929 
-20 10 21 9.2688 -0.1123 
-20 10 22 2.6229 0.6476 
-20 10 23 6.1611 -0.5351 
-20 12 1 18.0297 0.1891 
-20 12 2 -5.0256 0.1016 
-20 12 3 -0.9997 -0.1414 
-20 12 4 5.7597 0.1176 
-20 12 5 -2.1347 -0.1964 
-20 12 6 2.8198 -0.2815 
-20 12 7 -21.6252 -0.0802 
-20 12 8 17.4618 0.5081 
-20 12 9 -14.2387 0.1944 
-20 12 10 26.4227 -0.1436 
-20 12 11 -11.5231 -0.4686 
-20 12 12 4.0938 0.1064 
-20 12 13 4.0666 0.1126 
-20 12 14 -7.5401 0.2079 
-20 12 15 6.2898 -0.1180 
-20 12 16 -5.7712 -0.2128 
-20 12 17 -15.3180 0.0648 
-20 12 18 2.3847 -0.1981 
-20 12 19 0.7838 0.0412 
-20 12 20 0.6907 -0.2478 
-20 12 21 -0.8618 0.2384 
-20 12 22 -0.1543 0.7630 
-20 14 1 25.6451 0.2706 
-20 14 2 -4.6357 -0.2354 
-20 14 3 7.6983 -0.0311 
-20 14 4 -5.5795 -0.0674 
-20 14 5 -2.5036 0.0946 
-20 14 6 9.8584 -0.2669 
-20 14 7 -11.2568 0.0763 
-20 14 8 7.0218 0.0580 
-20 14 9 -16.4430 0.2018 
-20 14 10 18.9022 -0.0671 
-20 14 11 -11.3748 -0.1166 
-20 14 12 1.3063 -0.0148 
-20 14 13 13.3612 -0.1240 
-20 14 14 -10.3755 0.2019 
-20 14 15 12.5291 -0.0647 
-20 14 16 3.8359 0.1110 
-20 14 17 4.4683 0.1613 
-20 14 18 7.3767 -0.5570 
-20 14 19 -1.7126 -0.2036 
-20 14 20 1.1013 0.3081 
-20 14 21 -21.8368 1.1299 
-20 16 1 -5.3229 -0.0416 
-20 16 2 -0.3391 0.0020 
-20 16 3 -12.4605 -0.0407 
-20 16 4 20.6205 0.1077 
-20 16 5 2.5382 -0.1342 
-20 16 6 18.8012 0.1807 
-20 16 7 -6.7858 -0.0589 
-20 16 8 3.7893 0.1491 
-20 16 9 20.4797 -0.2530 
-20 16 10 12.7127 0.0718 
-20 16 11 4.5078 0.0272 
-20 16 12 -2.4643 0.3152 
-20 16 13 8.9507 -0.1332 
-20 16 14 3.9238 -0.0388 
-20 16 15 4.8222 -0.1550 
-20 16 16 1.8270 0.0982 
-20 16 17 8.0164 0.1875 
-20 16 18 2.2870 -0.3055 
-20 16 19 -2.7719 -0.0602 
-20 18 1 -10.0748 -0.0305 
-20 18 2 3.8230 -0.0884 
-20 18 3 -7.2602 -0.1913 
-20 18 4 10.8217 0.3221 
-20 18 5 1.9251 -0.1954 
-20 18 6 3.8107 0.3792 
-20 18 7 4.6469 -0.2951 
-20 18 8 -3.0975 0.2437 
-20 18 9 6.2109 -0.4998 
-20 18 10 1.9467 0.3410 
-20 18 11 3.8067 -0.1844 
-20 18 12 10.3058 0.4147 
-20 18 13 15.5955 -0.4188 
-20 18 14 4.7232 0.4230 
-20 18 15 0.2360 -0.4360 
-20 18 16 -4.4859 0.3297 
-20 18 17 9.9716 -0.8326 
-20 20 1 -6.1555 0.0883 
-20 20 2 5.5145 0.1529 
-20 20 3 5.4284 -0.1963 
-20 20 4 -4.7471 0.0600 
-20 20 5 -6.3515 -0.1317 
-20 20 6 -7.2593 0.1048 
-20 20 7 4.2541 0.0170 
-20 20 8 6.7026 0.1432 
-20 20 9 -10.2689 -0.2631 
-20 20 10 -0.2694 -0.1945 
-20 20 11 -10.7103 0.1564 
-20 20 12 -6.8240 0.2425 
-20 20 13 7.8237 -0.5234 
-20 20 14 15.4326 0.1408 
-20 22 1 7.4860 -0.8490 
-20 22 2 -4.1346 0.4310 
-20 22 3 -1.8017 -0.3880 
-20 22 4 11.9862 0.5609 
-20 22 5 -5.0587 -0.4516 
-20 22 6 16.4659 0.1054 
-20 22 7 -10.0660 -0.1661 
-20 22 8 -5.4732 0.2920 
-20 22 9 -2.3671 0.2547 
-19 1 1 -17.1668 0.7060 
-19 1 2 -9.0422 -0.5030 
-19 1 3 -11.8577 -0.0381 
-19 1 4 11.4113 0.1691 
-19 1 5 -1.8172 0.0021 
-19 1 6 14.6206 -1.2622 
-19 1 7 19.5460 0.3851 
-19 1 8 -23.9254 1.2866 
-19 1 9 1.9794 0.8068 
-19 1 10 39.0277 -1.4322 
-19 1 11 -29.6439 -1.1981 
-19 1 12 14.4619 0.3983 
-19 1 13 9.6851 0.7231 
-19 1 14 20.1519 -0.1648 
-19 1 15 -6.7847 0.4115 
-19 1 16 15.2093 0.4390 
-19 1 17 25.5815 0.4992 
-19 1 18 -0.2341 -1.5221 
-19 1 19 13.7151 -0.1401 
-19 1 20 -1.2788 0.1577 
-19 1 21 -5.0090 1.4238 
-19 1 22 0.0772 -0.0956 
-19 1 23 -9.8656 -0.5829 
-19 1 24 -0.3199 -0.6755 
-19 1 25 -7.0544 0.7916 
-19 3 1 -17.9300 -0.6813 
-19 3 2 -14.1354 0.7402 
-19 3 3 7.6147 -0.3486 
-19 3 4 3.0181 0.9823 
-19 3 5 5.6201 -0.6529 
-19 3 6 7.2238 0.5436 
-19 3 7 16.8025 -0.7637 
-19 3 8 -19.7389 0.7737 
-19 3 9 -3.1210 -0.4100 
-19 3 10 21.2413 0.3633 
-19 3 11 -2.9879 -0.6720 
-19 3 12 19.2035 0.4095 
-19 3 13 7.8046 -0.4471 
-19 3 14 2.6118 0.5806 
-19 3 15 1.2057 -0.2110 
-19 3 16 6.2202 0.4721 
-19 3 17 5.5021 -0.3436 
-19 3 18 0.1013 -0.1841 
-19 3 19 7.5360 0.1250 
-19 3 20 -2.5705 0.0905 
-19 3 21 -7.8527 -0.0572 
-19 3 22 11.3785 -0.2207 
-19 3 23 -2.6002 0.0641 
-19 3 24 4.3122 -0.4525 
-19 3 25 0.8504 -0.3951 
-19 5 1 1.6510 -0.5273 
-19 5 2 4.6983 0.3729 
-19 5 3 -19.9852 0.1134 
-19 5 4 -3.9443 -0.0185 
-19 5 5 18.4118 -0.4750 
-19 5 6 -31.4615 0.9192 
-19 5 7 2.8593 -0.3445 
-19 5 8 14.2496 0.0513 
-19 5 9 8.2487 -1.0558 
-19 5 10 27.6532 0.8186 
-19 5 11 -6.9673 -0.0066 
-19 5 12 13.7235 0.7183 
-19 5 13 20.5461 -0.7440 
-19 5 14 9.1580 0.0323 
-19 5 15 2.0533 -0.3531 
-19 5 16 -5.3489 0.2538 
-19 5 17 9.8976 -0.0375 
-19 5 18 11.0629 0.6572 
-19 5 19 20.4770 0.1888 
-19 5 20 3.4187 -0.3733 
-19 5 21 4.3427 -0.6489 
-19 5 22 8.6892 -0.1026 
-19 5 23 2.9707 -0.0334 
-19 5 24 -16.0305 0.1244 
-19 5 25 5.2516 -0.6047 
-19 7 1 -6.7110 -0.1539 
-19 7 2 6.9438 -0.3885 
-19 7 3 10.2664 0.3981 
-19 7 4 0.1697 -0.0149 
-19 7 5 10.7557 0.1362 
-19 7 6 3.3920 0.1191 
-19 7 7 9.1613 0.0662 
-19 7 8 -3.9619 -0.4800 
-19 7 9 2.1687 -0.1725 
-19 7 10 15.3797 0.6162 
-19 7 11 -3.6580 0.2839 
-19 7 12 18.7769 -0.0604 
-19 7 13 14.5186 -0.3316 
-19 7 14 5.1274 0.0617 
-19 7 15 5.3619 -0.0062 
-19 7 16 25.5941 -0.1307 
-19 7 17 8.5558 -0.1330 
-19 7 18 0.1280 0.3864 
-19 7 19 -4.4225 0.4293 
-19 7 20 7.2729 -0.4126 
-19 7 21 -11.6427 -0.1454 
-19 7 22 8.1040 -0.3617 
-19 7 23 4.8580 -0.0890 
-19 7 24 -3.1943 0.1585 
-19 9 1 -17.0182 0.1654 
-19 9 2 18.1270 -0.0495 
-19 9 3 -4.0040 0.0741 
-19 9 4 -8.7522 -0.2653 
-19 9 5 2.2422 0.1550 
-19 9 6 4.4086 -0.1550 
-19 9 7 0.4892 0.5179 
-19 9 8 4.1511 -0.3733 
-19 9 9 0.2629 0.0819 
-19 9 10 -12.9331 -0.1498 
-19 9 11 24.6354 0.3099 
-19 9 12 18.6361 -0.0239 
-19 9 13 12.7323 -0.0015 
-19 9 14 10.0443 -0.0943 
-19 9 15 -6.1654 0.0590 
-19 9 16 22.7522 -0.1536 
-19 9 17 -5.0979 -0.0553 
-19 9 18 7.8952 0.3117 
-19 9 19 -12.9581 -0.0471 
-19 9 20 -0.9313 0.0967 
-19 9 21 -2.2283 -0.0232 
-19 9 22 2.6354 0.4306 
-19 9 23 16.5905 -0.1493 
-19 11 1 1.2715 -0.1140 
-19 11 2 9.1914 0.1541 
-19 11 3 -23.0775 -0.2442 
-19 11 4 21.9612 0.1242 
-19 11 5 1.7925 0.0680 
-19 11 6 -10.0666 -0.2840 
-19 11 7 0.1587 -0.1402 
-19 11 8 -13.9978 0.2645 
-19 11 9 -5.7182 0.4286 
-19 11 10 10.6774 -0.2329 
-19 11 11 -1.2814 -0.1230 
-19 11 12 10.6919 -0.0914 
-19 11 13 -3.6934 0.0225 
-19 11 14 3.0444 0.1661 
-19 11 15 -13.3208 -0.0097 
-19 11 16 2.6178 -0.1581 
-19 11 17 4.4146 -0.0602 
-19 11 18 4.6413 0.2576 
-19 11 19 11.0564 -0.3032 
-19 11 20 1.4713 0.2773 
-19 11 21 3.7698 0.1300 
-19 11 22 -3.6760 0.3089 
-19 11 23 1.3560 -1.2746 
-19 13 1 -0.2283 0.4640 
-19 13 2 -8.3150 -0.0053 
-19 13 3 12.3903 -0.1613 
-19 13 4 20.7418 -0.2493 
-19 13 5 -8.0310 0.1419 
-19 13 6 -6.2274 -0.2435 
-19 13 7 6.0977 0.1735 
-19 13 8 -5.4609 0.1259 
-19 13 9 -16.3349 0.3796 
-19 13 10 18.4296 -0.4902 
-19 13 11 -11.8937 -0.0396 
-19 13 12 3.0329 0.0161 
-19 13 13 -7.3628 0.1259 
-19 13 14 3.5919 0.1412 
-19 13 15 -2.6453 -0.1528 
-19 13 16 7.2723 -0.0243 
-19 13 17 5.1695 -0.0712 
-19 13 18 -10.3186 0.0250 
-19 13 19 -12.7216 -0.2393 
-19 13 20 16.0322 0.3686 
-19 13 21 20.7434 -0.0982 
-19 15 1 6.8927 0.1856 
-19 15 2 -4.8408 -0.2133 
-19 15 3 2.2265 0.1073 
-19 15 4 -1.6316 -0.0447 
-19 15 5 -1.4467 0.3098 
-19 15 6 3.2125 -0.4206 
-19 15 7 12.8447 0.0561 
-19 15 8 -3.3237 -0.2188 
-19 15 9 -8.4156 0.5217 
-19 15 10 -9.9993 -0.3731 
-19 15 11 -6.8074 0.4605 
-19 15 12 -3.5282 -0.2951 
-19 15 13 6.3312 0.1764 
-19 15 14 5.3251 -0.3724 
-19 15 15 -17.2693 0.2468 
-19 15 16 -12.6767 -0.0833 
-19 15 17 -2.7311 0.3339 
-19 15 18 9.0881 -0.3940 
-19 15 19 7.1185 0.0495 
-19 15 20 10.7694 -0.6435 
-19 17 1 -11.0490 0.0815 
-19 17 2 15.4727 0.0792 
-19 17 3 6.9327 -0.0800 
-19 17 4 7.2763 -0.0142 
-19 17 5 2.9123 -0.0248 
-19 17 6 3.2353 0.2747 
-19 17 7 6.2788 -0.0304 
-19 17 8 3.5977 0.0315 
-19 17 9 12.8128 -0.2954 
-19 17 10 2.1048 0.0585 
-19 17 11 8.4555 -0.0337 
-19 17 12 -16.2750 0.4446 
-19 17 13 -1.7428 -0.0150 
-19 17 14 19.1722 -0.2819 
-19 17 15 0.1608 0.0791 
-19 17 16 7.9952 -0.0072 
-19 17 17 -2.1438 0.1705 
-19 17 18 -3.1789 -0.6247 
-19 19 1 -4.5383 -0.0891 
-19 19 2 7.4479 -0.3416 
-19 19 3 -1.2589 0.0941 
-19 19 4 -3.6444 0.2104 
-19 19 5 -0.9859 0.0646 
-19 19 6 15.4744 0.0417 
-19 19 7 8.5881 -0.2864 
-19 19 8 8.0168 0.0797 
-19 19 9 -1.8596 -0.2081 
-19 19 10 13.9093 0.1945 
-19 19 11 19.5469 -0.1998 
-19 19 12 -9.6077 0.3211 
-19 19 13 -4.5374 -0.0765 
-19 19 14 -9.2057 -0.0815 
-19 19 15 -10.0276 -0.0037 
-19 19 16 -6.9810 0.4076 
-19 21 1 7.8570 0.0804 
-19 21 2 1.7599 0.0586 
-19 21 3 -4.3054 -0.2606 
-19 21 4 17.9502 0.2272 
-19 21 5 -16.1187 -0.3732 
-19 21 6 17.6625 0.2779 
-19 21 7 -16.1188 -0.1205 
-19 21 8 8.7667 0.5628 
-19 21 9 5.8526 -0.4845 
-19 21 10 4.6781 0.0748 
-19 21 11 7.1087 -0.5613 
-19 21 12 -3.5148 0.4876 
-19 21 13 4.2494 -0.3239 
-19 23 4 7.7336 0.6018 
-19 23 5 -12.7855 -0.6102 
-19 23 6 7.9247 0.0770 
-18 0 1 33.3776 5.1178 
-18 0 2 -54.8190 -4.9912 
-18 0 3 -3.0025 1.8783 
-18 0 4 16.5015 -1.5447 
-18 0 5 22.6168 1.2803 
-18 0 6 6.9938 -1.4517 
-18 0 7 -6.5238 1.5266 
-18 0 8 39.5272 -0.8873 
-18 0 9 -20.1331 1.3226 
-18 0 10 30.7729 -1.5931 
-18 0 11 15.7429 0.8063 
-18 0 12 29.8446 -2.3878 
-18 0 13 -9.5543 0.7543 
-18 0 14 28.4668 -0.2461 
-18 0 15 18.5085 1.8439 
-18 0 16 -2.3505 0.4975 
-18 0 17 4.6826 0.3853 
-18 0 18 16.7616 -2.7569 
-18 0 19 -14.6303 -0.8362 
-18 0 20 -4.4179 0.9492 
-18 0 21 -0.5777 3.4896 
-18 0 22 -10.9834 -0.3188 
-18 0 23 1.7600 -2.1347 
-18 0 24 5.9295 -1.6361 
-18 0 25 3.4244 1.3306 
-18 2 1 13.1652 0.8851 
-18 2 2 -9.8518 -1.0112 
-18 2 3 3.4942 1.7128 
-18 2 4 -25.6693 -0.2534 
-18 2 5 14.5347 -0.9828 
-18 2 6 18.1822 -1.2079 
-18 2 7 27.4609 1.7799 
-18 2 8 3.7091 1.0414 
-18 2 9 -3.6718 -0.1549 
-18 2 10 4.9378 -1.2834 
-18 2 11 -2.8148 -0.4725 
-18 2 12 35.4626 -0.3615 
-18 2 13 -26.7254 0.8548 
-18 2 14 18.0323 0.5504 
-18 2 15 -13.3373 0.2219 
-18 2 16 -7.4242 -0.8202 
-18 2 17 -13.2791 0.3448 
-18 2 18 14.9631 -0.0132 
-18 2 19 -3.5827 0.0138 
-18 2 20 -3.9234 -0.4549 
-18 2 21 3.5352 0.4276 
-18 2 22 15.9590 0.0555 
-18 2 23 11.1609 -0.4500 
-18 2 24 4.7292 -0.0702 
-18 2 25 4.0606 0.2933 
-18 4 1 19.7073 -0.1813 
-18 4 2 3.7499 -0.0570 
-18 4 3 -29.7276 -0.1590 
-18 4 4 5.5815 0.4128 
-18 4 5 15.3521 -0.1552 
-18 4 6 -15.3220 0.6029 
-18 4 7 9.5481 -0.3556 
-18 4 8 -14.8443 -0.2389 
-18 4 9 -12.3930 -0.7836 
-18 4 10 13.2291 0.8180 
-18 4 11 -11.8773 0.4476 
-18 4 12 30.6742 -0.0273 
-18 4 13 -10.4923 -1.1104 
-18 4 14 29.0791 0.2429 
-18 4 15 11.3374 0.2833 
-18 4 16 3.2887 0.2225 
-18 4 17 4.2362 -0.2523 
-18 4 18 -8.3925 0.5425 
-18 4 19 -6.6498 -0.3304 
-18 4 20 -6.7411 -0.1333 
-18 4 21 -1.2315 -0.3075 
-18 4 22 -5.2736 0.1629 
-18 4 23 6.1432 0.0903 
-18 4 24 -3.5810 -0.4077 
-18 4 25 7.9365 -0.3728 
-18 6 1 4.0185 -0.3237 
-18 6 2 -35.1802 0.3989 
-18 6 3 2.8293 0.5216 
-18 6 4 25.6011 -0.3704 
-18 6 5 -8.7604 0.0328 
-18 6 6 24.1865 0.0441 
-18 6 7 21.7681 0.0330 
-18 6 8 -11.1858 -0.2707 
-18 6 9 -26.2972 -0.3441 
-18 6 10 48.3958 0.2886 
-18 6 11 -22.6887 0.4932 
-18 6 12 20.7008 0.0319 
-18 6 13 24.8857 -0.2089 
-18 6 14 1.3318 -0.2329 
-18 6 15 7.1636 0.2299 
-18 6 16 0.4178 -0.5341 
-18 6 17 13.7584 0.1885 
-18 6 18 4.8956 0.5223 
-18 6 19 1.0390 0.6064 
-18 6 20 -7.6151 -0.5657 
-18 6 21 -12.4835 -0.8486 
-18 6 22 -8.7954 -0.0167 
-18 6 23 1.2042 0.1799 
-18 6 24 1.9319 0.0430 
-18 6 25 -0.3024 0.1757 
-18 8 1 2.3720 -0.1565 
-18 8 2 -10.4297 -0.1432 
-18 8 3 22.4511 0.0170 
-18 8 4 -20.5161 -0.2399 
-18 8 5 15.7177 0.4874 
-18 8 6 22.4454 -0.2062 
-18 8 7 -6.4669 0.2302 
-18 8 8 2.9487 -0.5751 
-18 8 9 16.4751 0.2737 
-18 8 10 4.8848 0.0343 
-18 8 11 -21.5753 0.6148 
-18 8 12 10.2148 -0.4988 
-18 8 13 -5.1133 0.1766 
-18 8 14 23.3153 -0.5333 
-18 8 15 -1.8318 0.4750 
-18 8 16 13.2901 -0.1869 
-18 8 17 -0.2788 0.1867 
-18 8 18 12.0637 -0.3213 
-18 8 19 -5.5438 0.4947 
-18 8 20 18.9015 -0.4530 
-18 8 21 8.0138 -0.0971 
-18 8 22 13.1013 0.1953 
-18 8 23 -0.0659 -0.2120 
-18 8 24 -14.3309 -0.4209 
-18 10 1 3.3488 -0.1471 
-18 10 2 5.6994 0.3481 
-18 10 3 -17.3655 -0.3098 
-18 10 4 7.2015 0.0119 
-18 10 5 7.8394 -0.2617 
-18 10 6 -13.9650 -0.0059 
-18 10 7 0.0425 0.0875 
-18 10 8 2.2010 0.1351 
-18 10 9 4.7900 0.2363 
-18 10 10 -1.7614 -0.3119 
-18 10 11 13.8952 -0.2029 
-18 10 12 30.6323 0.0564 
-18 10 13 -6.5808 0.2973 
-18 10 14 10.9504 -0.0704 
-18 10 15 -9.0292 -0.1456 
-18 10 16 16.7686 -0.2441 
-18 10 17 5.3114 0.1770 
-18 10 18 -7.4534 -0.1618 
-18 10 19 -1.1816 0.1444 
-18 10 20 0.3731 0.0921 
-18 10 21 7.8455 0.2249 
-18 10 22 1.0386 0.1421 
-18 10 23 5.8207 -0.9075 
-18 12 1 10.0776 -0.0924 
-18 12 2 -15.4400 0.1162 
-18 12 3 -11.1409 -0.3638 
-18 12 4 25.8368 0.0316 
-18 12 5 -18.6409 -0.0526 
-18 12 6 7.6083 0.0727 
-18 12 7 -7.7446 -0.1787 
-18 12 8 -12.3053 0.3261 
-18 12 9 -27.6011 0.2730 
-18 12 10 9.3325 -0.2539 
-18 12 11 -6.9287 -0.1531 
-18 12 12 12.2979 0.0200 
-18 12 13 6.6430 0.0969 
-18 12 14 6.0310 0.0857 
-18 12 15 -3.8927 -0.0760 
-18 12 16 -4.4077 0.0511 
-18 12 17 6.1831 -0.1434 
-18 12 18 2.7128 0.0926 
-18 12 19 11.6410 -0.2311 
-18 12 20 -6.3883 0.2866 
-18 12 21 -2.9036 0.6519 
-18 12 22 1.7840 -0.7979 
-18 14 1 10.7169 0.2476 
-18 14 2 -26.1156 0.0554 
-18 14 3 14.9686 -0.0770 
-18 14 4 2.1710 -0.2390 
-18 14 5 -1.3902 0.1448 
-18 14 6 15.3161 -0.1614 
-18 14 7 -0.3124 0.0814 
-18 14 8 7.5715 -0.0159 
-18 14 9 -7.6648 0.2750 
-18 14 10 18.8660 -0.3681 
-18 14 11 -4.5210 0.2242 
-18 14 12 1.9371 -0.0660 
-18 14 13 -2.6128 0.2026 
-18 14 14 6.2439 -0.2502 
-18 14 15 -0.1855 0.0950 
-18 14 16 4.9611 -0.2211 
-18 14 17 -1.6164 0.1554 
-18 14 18 0.0162 0.1479 
-18 14 19 -3.2980 -0.3660 
-18 14 20 0.8480 0.2922 
-18 14 21 2.0609 0.1799 
-18 16 1 -3.0282 0.0148 
-18 16 2 -3.2759 0.0089 
-18 16 3 10.7674 -0.1112 
-18 16 4 5.4038 0.1350 
-18 16 5 0.5366 0.1541 
-18 16 6 -5.7353 -0.0023 
-18 16 7 10.7547 -0.1912 
-18 16 8 -7.5878 -0.1040 
-18 16 9 -4.5249 -0.0007 
-18 16 10 4.4807 0.1708 
-18 16 11 2.4131 0.0988 
-18 16 12 7.8337 0.0503 
-18 16 13 -1.5697 -0.1308 
-18 16 14 -1.7469 -0.1415 
-18 16 15 -17.5517 0.1072 
-18 16 16 -2.3580 -0.1227 
-18 16 17 -1.8221 0.1735 
-18 16 18 -4.0562 -0.1798 
-18 16 19 -7.7857 -0.0722 
-18 16 20 -1.9019 -0.2120 
-18 18 1 -1.4614 0.1066 
-18 18 2 -2.7165 -0.1682 
-18 18 3 2.9934 0.2235 
-18 18 4 11.7212 -0.0977 
-18 18 5 22.0042 0.0544 
-18 18 6 6.8606 0.0990 
-18 18 7 2.8563 0.0165 
-18 18 8 11.7576 -0.2853 
-18 18 9 -15.5283 -0.0074 
-18 18 10 6.9308 0.0642 
-18 18 11 -3.0056 0.0235 
-18 18 12 -5.1261 0.1781 
-18 18 13 -4.4786 -0.0792 
-18 18 14 -5.6446 -0.0123 
-18 18 15 -0.7047 -0.1382 
-18 18 16 3.6023 0.4768 
-18 18 17 8.0194 -0.3556 
-18 18 18 8.5311 -0.5037 
-18 20 1 14.4607 0.0367 
-18 20 2 5.6655 -0.5103 
-18 20 3 4.9660 0.2907 
-18 20 4 -6.9970 0.0114 
-18 20 5 -1.7175 0.1352 
-18 20 6 8.8637 -0.1157 
-18 20 7 -5.3114 -0.0290 
-18 20 8 5.0331 0.0745 
-18 20 9 -20.0277 -0.1122 
-18 20 10 20.0188 -0.1053 
-18 20 11 21.4319 -0.3992 
-18 20 12 19.3901 0.0222 
-18 20 13 1.9639 0.8103 
-18 20 14 5.3947 -0.4480 
-18 20 15 3.4111 0.1998 
-18 22 1 -9.5462 0.4842 
-18 22 2 -2.7843 -0.1175 
-18 22 3 -8.7692 -0.0030 
-18 22 4 2.1912 -0.0771 
-18 22 5 0.7754 -0.0590 
-18 22 6 4.7427 -0.1586 
-18 22 7 -7.8870 0.0922 
-18 22 8 -0.8263 0.4548 
-18 22 9 8.7118 -0.2476 
-18 22 10 6.6207 0.2767 
-18 22 11 3.6445 -0.6574 
-18 22 12 10.8033 0.7787 
-17 1 1 -50.1846 1.1890 
-17 1 2 23.0955 -0.5001 
-17 1 3 13.8163 0.4519 
-17 1 4 -8.4051 -0.5874 
-17 1 5 36.8891 0.3052 
-17 1 6 0.0766 -1.3991 
-17 1 7 3.9857 0.9676 
-17 1 8 31.1747 0.9620 
-17 1 9 0.9866 1.6207 
-17 1 10 -42.4266 -2.4399 
-17 1 11 -17.9607 -1.2306 
-17 1 12 35.7044 -0.1255 
-17 1 13 -14.1929 1.8951 
-17 1 14 15.1136 -0.4484 
-17 1 15 -6.9542 0.1102 
-17 1 16 -7.9122 0.2215 
-17 1 17 0.8415 0.0213 
-17 1 18 3.2850 -1.1128 
-17 1 19 -4.2403 -0.5332 
-17 1 20 -17.6602 1.2835 
-17 1 21 -5.8668 0.9494 
-17 1 22 -0.2785 -0.5793 
-17 1 23 13.1408 -1.1942 
-17 1 24 3.4468 -0.2440 
-17 1 25 5.2895 0.4006 
-17 3 1 22.3139 -0.0240 
-17 3 2 7.7002 0.3256 
-17 3 3 -22.6203 -0.4397 
-17 3 4 -1.7900 0.1424 
-17 3 5 12.9366 -0.2158 
-17 3 6 2.5597 0.5568 
-17 3 7 -0.8031 -0.1851 
-17 3 8 -33.1821 0.0914 
-17 3 9 17.8892 0.1125 
-17 3 10 0.2491 0.0249 
-17 3 11 5.5194 -0.2119 
-17 3 12 -3.9067 0.0744 
-17 3 13 -20.5015 -0.0999 
-17 3 14 18.9360 0.0834 
-17 3 15 -2.1445 -0.3366 
-17 3 16 16.5056 0.9081 
-17 3 17 1.8396 -0.4618 
-17 3 18 15.9997 0.4701 
-17 3 19 -8.7628 -0.7616 
-17 3 20 5.8395 0.3098 
-17 3 21 10.1536 -0.3556 
-17 3 22 17.3889 0.0702 
-17 3 23 7.7717 -0.1092 
-17 3 24 -3.8014 -0.0143 
-17 3 25 3.5454 0.2071 
-17 5 1 -22.4675 -0.2624 
-17 5 2 8.7370 0.1453 
-17 5 3 -6.1304 0.2169 
-17 5 4 24.8097 0.6204 
-17 5 5 11.4872 -0.2088 
-17 5 6 -1.1675 0.2104 
-17 5 7 9.1852 -0.5354 
-17 5 8 -2.8509 0.0008 
-17 5 9 -26.5628 -0.3966 
-17 5 10 9.1078 0.8469 
-17 5 11 13.0322 -0.2818 
-17 5 12 10.0854 0.3118 
-17 5 13 13.0826 -0.7759 
-17 5 14 -8.4572 0.4988 
-17 5 15 0.2103 -0.2389 
-17 5 16 -7.1658 0.0706 
-17 5 17 12.6238 -0.2142 
-17 5 18 2.4640 0.7885 
-17 5 19 -15.1714 -0.2098 
-17 5 20 -0.9704 -0.0959 
-17 5 21 -9.7719 -0.7957 
-17 5 22 -7.4264 0.3656 
-17 5 23 4.8923 0.1298 
-17 5 24 -16.5326 0.1763 
-17 5 25 0.4357 -0.0841 
-17 7 1 -29.8107 -0.1574 
-17 7 2 -5.5703 0.3079 
-17 7 3 -4.4473 0.1065 
-17 7 4 -15.4506 -0.1785 
-17 7 5 10.1866 0.1208 
-17 7 6 14.3950 0.3607 
-17 7 7 27.2342 -0.1462 
-17 7 8 -12.5766 -0.2282 
-17 7 9 -15.1096 -0.4764 
-17 7 10 13.0645 0.4470 
-17 7 11 -8.3483 0.6827 
-17 7 12 10.8468 -0.0448 
-17 7 13 11.3755 -0.7054 
-17 7 14 8.9838 0.2186 
-17 7 15 -0.1613 0.0840 
-17 7 16 7.0846 -0.1701 
-17 7 17 4.0860 0.2783 
-17 7 18 -7.9312 0.1218 
-17 7 19 -3.9986 0.2862 
-17 7 20 3.2643 -0.5314 
-17 7 21 -4.9918 -0.5290 
-17 7 22 0.1732 0.3215 
-17 7 23 8.2243 -0.2201 
-17 7 24 4.5940 0.0244 
-17 9 1 -23.4957 -0.2927 
-17 9 2 13.6981 0.1891 
-17 9 3 -24.2604 -0.0171 
-17 9 4 7.6955 0.2125 
-17 9 5 14.8515 -0.2923 
-17 9 6 -0.6338 -0.0429 
-17 9 7 9.6645 -0.3222 
-17 9 8 -1.1457 0.6035 
-17 9 9 10.2847 -0.0731 
-17 9 10 -7.4456 -0.0938 
-17 9 11 7.1756 -0.0331 
-17 9 12 -1.9517 0.0086 
-17 9 13 -7.2682 -0.2059 
-17 9 14 25.0790 0.1520 
-17 9 15 -15.8529 -0.0024 
-17 9 16 8.7303 -0.0615 
-17 9 17 -3.1481 -0.1643 
-17 9 18 4.0886 -0.0545 
-17 9 19 4.3047 0.2220 
-17 9 20 10.0802 -0.3218 
-17 9 21 0.3440 0.0606 
-17 9 22 -0.2041 -0.0197 
-17 9 23 14.7825 -0.5100 
-17 9 24 0.9971 0.4414 
-17 11 1 -5.4063 0.1423 
-17 11 2 20.2258 0.1952 
-17 11 3 -3.4958 -0.4545 
-17 11 4 43.0580 0.0096 
-17 11 5 -36.0854 -0.4251 
-17 11 6 4.6888 0.5437 
-17 11 7 4.2346 -0.1713 
-17 11 8 9.1607 0.5894 
-17 11 9 6.6193 -0.4128 
-17 11 10 7.5409 -0.0404 
-17 11 11 4.0582 -0.3581 
-17 11 12 2.8747 0.4564 
-17 11 13 0.2341 -0.1011 
-17 11 14 -0.4470 0.0941 
-17 11 15 4.9168 -0.1468 
-17 11 16 15.5477 0.1727 
-17 11 17 17.4795 -0.4062 
-17 11 18 -3.8900 0.1696 
-17 11 19 3.1076 -0.0681 
-17 11 20 -0.8456 0.0860 
-17 11 21 -16.7641 0.6314 
-17 11 22 -4.3290 -0.4827 
-17 11 23 5.9338 0.1462 
-17 13 1 -6.2506 -0.0650 
-17 13 2 -10.6076 0.0000 
-17 13 3 3.5931 -0.0064 
-17 13 4 1.6669 -0.1165 
-17 13 5 -23.6920 0.0071 
-17 13 6 25.2816 -0.1773 
-17 13 7 9.1990 0.0938 
-17 13 8 3.2451 0.1347 
-17 13 9 -10.8509 0.2996 
-17 13 10 12.2547 -0.0698 
-17 13 11 1.7129 -0.1974 
-17 13 12 20.5246 0.0027 
-17 13 13 17.6504 0.1652 
-17 13 14 10.2420 -0.0743 
-17 13 15 0.1691 0.0934 
-17 13 16 4.8505 0.0072 
-17 13 17 3.8022 -0.0280 
-17 13 18 0.4648 0.0299 
-17 13 19 -0.9586 -0.2843 
-17 13 20 3.7704 0.6120 
-17 13 21 -12.0899 0.1900 
-17 13 22 -1.8803 -0.3562 
-17 15 1 6.3153 0.1556 
-17 15 2 3.0109 0.1315 
-17 15 3 0.7699 -0.1382 
-17 15 4 -21.3108 -0.2679 
-17 15 5 4.2276 0.1354 
-17 15 6 3.9621 0.2282 
-17 15 7 1.5677 0.1348 
-17 15 8 -32.8544 -0.4837 
-17 15 9 -2.5067 0.1358 
-17 15 10 0.9238 -0.0848 
-17 15 11 13.4116 0.3130 
-17 15 12 10.4536 -0.2050 
-17 15 13 -14.5299 0.2837 
-17 15 14 19.1454 -0.3394 
-17 15 15 -5.7386 0.0363 
-17 15 16 12.7468 -0.2178 
-17 15 17 1.9032 0.0649 
-17 15 18 0.7226 0.1181 
-17 15 19 -2.0365 -0.0359 
-17 15 20 -2.1358 0.1195 
-17 15 21 -6.8730 -0.2792 
-17 17 1 -5.3304 -0.2102 
-17 17 2 -2.5856 -0.1210 
-17 17 3 -12.3314 0.2780 
-17 17 4 -10.4643 0.1370 
-17 17 5 -1.0759 0.0248 
-17 17 6 -6.1035 -0.0591 
-17 17 7 8.9604 -0.2419 
-17 17 8 -9.0743 -0.2817 
-17 17 9 -1.0920 0.3048 
-17 17 10 -1.4705 0.3335 
-17 17 11 6.3264 0.0776 
-17 17 12 6.5581 -0.3199 
-17 17 13 -5.6075 0.0326 
-17 17 14 10.5242 -0.0480 
-17 17 15 -7.6503 0.0818 
-17 17 16 0.1549 -0.2567 
-17 17 17 -6.0678 0.1859 
-17 17 18 -16.4753 0.0029 
-17 17 19 -8.5939 -0.4061 
-17 19 1 2.1013 0.1557 
-17 19 2 -0.9361 -0.1447 
-17 19 3 -1.8152 0.0674 
-17 19 4 1.8604 -0.1448 
-17 19 5 -6.6932 0.1481 
-17 19 6 2.0192 0.0880 
-17 19 7 -4.5939 0.1725 
-17 19 8 8.5265 -0.3947 
-17 19 9 -1.9461 -0.0125 
-17 19 10 17.6982 -0.0588 
-17 19 11 3.6550 -0.0047 
-17 19 12 2.6179 -0.1219 
-17 19 13 4.5880 0.3542 
-17 19 14 5.5971 -0.0964 
-17 19 15 5.0838 0.0013 
-17 19 16 -2.8405 -0.1725 
-17 19 17 -5.5575 0.9511 
-17 21 1 3.9921 0.1671 
-17 21 2 5.3065 -0.3050 
-17 21 3 -4.0527 0.3373 
-17 21 4 15.0533 -0.1221 
-17 21 5 -18.2481 0.3603 
-17 21 6 -10.9435 -0.6210 
-17 21 7 -15.0932 0.2561 
-17 21 8 8.2217 0.1313 
-17 21 9 0.7710 0.2026 
-17 21 10 4.9478 -0.0870 
-17 21 11 0.4144 -0.6178 
-17 21 12 4.1843 0.0441 
-17 21 13 -0.5890 0.4256 
-17 21 14 5.3348 0.0287 
-17 23 1 -3.1264 1.2893 
-17 23 2 1.1902 -1.0204 
-17 23 3 -10.3992 0.5360 
-17 23 4 12.4700 -0.6017 
-17 23 5 -3.0732 0.5696 
-17 23 6 -8.0350 -0.8524 
-17 23 7 0.8384 0.9410 
-17 23 8 9.6089 -0.2652 
-17 23 9 -14.7286 0.2560 
-17 23 10 14.7133 -1.0151 
-16 0 1 14.5023 5.3191 
-16 0 2 18.5564 -2.2029 
-16 0 3 2.0037 1.6269 
-16 0 4 21.2180 -2.1586 
-16 0 5 -8.3524 0.1962 
-16 0 6 92.2720 -3.8041 
-16 0 7 -29.9980 4.9885 
-16 0 8 -86.9568 2.0719 
-16 0 9 19.5800 1.1056 
-16 0 10 60.1033 -8.0272 
-16 0 11 31.0874 0.2576 
-16 0 12 -33.0753 2.5953 
-16 0 13 6.9605 3.5310 
-16 0 14 19.4834 -2.3848 
-16 0 15 -13.1672 -0.3114 
-16 0 16 22.1870 -0.4618 
-16 0 17 -3.6046 0.3070 
-16 0 18 -1.0427 -1.1716 
-16 0 19 -8.0257 0.6289 
-16 0 20 -34.1532 0.2751 
-16 0 21 -5.8669 1.1872 
-16 0 22 -23.1581 -0.9023 
-16 0 23 9.7379 -0.7377 
-16 0 24 -5.9863 -0.8221 
-16 0 25 -2.1415 1.0781 
-16 0 26 21.5671 0.4590 
-16 2 1 9.7714 0.3540 
-16 2 2 1.8416 -1.5625 
-16 2 3 34.8220 0.0437 
-16 2 4 12.7530 0.2044 
-16 2 5 -1.1767 1.8130 
-16 2 6 15.1634 -2.3246 
-16 2 7 13.0493 0.4893 
-16 2 8 -45.8322 0.0263 
-16 2 9 -35.4830 1.4553 
-16 2 10 -26.7896 -1.4016 
-16 2 11 2.4636 0.3638 
-16 2 12 5.4848 -0.1953 
-16 2 13 0.6601 0.1689 
-16 2 14 16.7672 -0.7149 
-16 2 15 -25.1108 1.5488 
-16 2 16 5.9151 0.2461 
-16 2 17 -20.7234 -0.7124 
-16 2 18 0.2422 -1.0168 
-16 2 19 9.3983 0.5638 
-16 2 20 -2.4110 0.8549 
-16 2 21 3.3504 -0.0124 
-16 2 22 -8.3266 -0.4139 
-16 2 23 6.8494 -0.5979 
-16 2 24 0.6297 -0.4365 
-16 2 25 8.1432 0.3798 
-16 4 1 15.4442 -0.5148 
-16 4 2 -2.8799 0.9789 
-16 4 3 20.2870 -0.1517 
-16 4 4 14.0768 -0.1829 
-16 4 5 -3.1253 0.0789 
-16 4 6 -28.2577 -0.1534 
-16 4 7 11.6871 0.2610 
-16 4 8 18.5699 -0.0462 
-16 4 9 4.4357 0.0452 
-16 4 10 -28.5099 -0.4708 
-16 4 11 -20.6538 0.3224 
-16 4 12 -12.7844 0.4052 
-16 4 13 1.7376 -0.1519 
-16 4 14 20.2071 -0.2713 
-16 4 15 15.9378 -0.0259 
-16 4 16 9.3889 0.2620 
-16 4 17 -0.5487 -0.0762 
-16 4 18 12.2514 0.4533 
-16 4 19 -0.6117 0.1475 
-16 4 20 5.0358 -0.6328 
-16 4 21 -14.9393 -0.6391 
-16 4 22 -3.9423 0.3253 
-16 4 23 -6.5919 0.6357 
-16 4 24 -13.7949 0.1368 
-16 4 25 16.8165 0.2549 
-16 6 1 29.5788 -0.3963 
-16 6 2 -4.2362 -0.1200 
-16 6 3 21.9539 0.3376 
-16 6 4 1.4011 0.1962 
-16 6 5 -8.0749 0.4105 
-16 6 6 12.6420 0.0484 
-16 6 7 -9.0411 -0.2401 
-16 6 8 -8.4654 -0.8849 
-16 6 9 8.1875 0.6539 
-16 6 10 9.3029 0.2659 
-16 6 11 24.4389 0.5574 
-16 6 12 -0.5116 -0.5388 
-16 6 13 -5.2948 -0.4920 
-16 6 14 -6.1127 0.1177 
-16 6 15 -0.1569 0.3387 
-16 6 16 13.0216 0.0945 
-16 6 17 -10.0920 -0.0510 
-16 6 18 11.8544 0.1295 
-16 6 19 -17.5692 0.1501 
-16 6 20 -10.9794 -0.4941 
-16 6 21 -4.9157 -0.2250 
-16 6 22 -0.3084 0.2782 
-16 6 23 2.9455 0.2110 
-16 6 24 3.8135 0.0431 
-16 6 25 10.8061 -0.0218 
-16 8 1 -3.7918 0.0163 
-16 8 2 -32.2486 0.1651 
-16 8 3 49.0731 0.3996 
-16 8 4 -37.6619 -0.4402 
-16 8 5 52.7960 0.0582 
-16 8 6 4.6977 -0.0044 
-16 8 7 14.3166 0.2636 
-16 8 8 20.0942 -0.4104 
-16 8 9 10.3733 0.3068 
-16 8 10 -14.2512 -0.2706 
-16 8 11 -2.7281 0.6999 
-16 8 12 19.8291 -0.5354 
-16 8 13 -6.0894 0.2535 
-16 8 14 20.6083 -0.2360 
-16 8 15 -33.4831 0.0926 
-16 8 16 17.6440 -0.3328 
-16 8 17 -2.1138 0.3458 
-16 8 18 15.5841 0.1497 
-16 8 19 -0.5465 -0.0674 
-16 8 20 1.8026 -0.2253 
-16 8 21 -3.3781 -0.3523 
-16 8 22 -9.8970 -0.1608 
-16 8 23 -3.8838 0.1377 
-16 8 24 -10.7062 -0.1179 
-16 10 1 3.2520 -0.2931 
-16 10 2 -1.0146 0.1819 
-16 10 3 18.6512 -0.2702 
-16 10 4 -27.5665 0.2965 
-16 10 5 21.2300 -0.4015 
-16 10 6 -5.2972 0.3840 
-16 10 7 16.9780 -0.2742 
-16 10 8 23.4602 0.5798 
-16 10 9 -10.8578 -0.3672 
-16 10 10 6.2881 0.1766 
-16 10 11 8.5850 -0.3154 
-16 10 12 -1.8697 0.0935 
-16 10 13 12.4446 -0.1166 
-16 10 14 24.9467 0.1029 
-16 10 15 -10.3295 0.1472 
-16 10 16 6.4512 -0.3452 
-16 10 17 -8.3386 0.1608 
-16 10 18 -4.7176 -0.3104 
-16 10 19 -0.2910 0.0471 
-16 10 20 14.9302 -0.1760 
-16 10 21 -1.8228 0.4954 
-16 10 22 -11.3576 -0.1218 
-16 10 23 2.6633 -0.6244 
-16 10 24 0.8124 0.1825 
-16 12 1 1.0688 0.1816 
-16 12 2 2.4363 0.0413 
-16 12 3 0.1813 -0.3225 
-16 12 4 10.3347 0.0777 
-16 12 5 -29.9207 -0.5091 
-16 12 6 -0.4945 0.3838 
-16 12 7 8.5774 -0.1094 
-16 12 8 -9.4364 0.7888 
-16 12 9 -1.9041 -0.4446 
-16 12 10 19.0814 0.0808 
-16 12 11 6.0022 -0.4344 
-16 12 12 -8.9891 0.4693 
-16 12 13 9.2183 -0.0970 
-16 12 14 -7.0026 0.2030 
-16 12 15 -2.5067 -0.1593 
-16 12 16 -0.5302 0.1261 
-16 12 17 16.6639 -0.1539 
-16 12 18 2.3280 0.0719 
-16 12 19 -3.3680 0.1022 
-16 12 20 4.2163 -0.0167 
-16 12 21 2.2585 0.7288 
-16 12 22 -0.8208 -0.5554 
-16 12 23 9.0364 -0.2380 
-16 14 1 13.4117 -0.0440 
-16 14 2 -3.2264 -0.0952 
-16 14 3 -7.6601 -0.0872 
-16 14 4 -6.7609 0.0704 
-16 14 5 -9.6141 -0.0809 
-16 14 6 -22.6169 0.0781 
-16 14 7 -6.8644 0.0137 
-16 14 8 17.2765 0.0147 
-16 14 9 1.3948 0.0059 
-16 14 10 -9.8830 0.1370 
-16 14 11 -8.6650 -0.1595 
-16 14 12 18.7281 0.0614 
-16 14 13 10.2034 0.0101 
-16 14 14 11.4771 -0.0041 
-16 14 15 8.5628 0.0467 
-16 14 16 8.9993 -0.0584 
-16 14 17 7.7465 -0.0602 
-16 14 18 3.9021 0.1061 
-16 14 19 -4.2579 -0.0528 
-16 14 20 5.1730 0.2269 
-16 14 21 1.0440 0.4053 
-16 14 22 -11.9334 -0.5485 
-16 16 1 12.2121 -0.0567 
-16 16 2 -11.3021 0.1926 
-16 16 3 9.4139 0.0001 
-16 16 4 8.7886 -0.0401 
-16 16 5 12.7369 -0.1208 
-16 16 6 -7.3179 0.1809 
-16 16 7 11.4724 -0.0628 
-16 16 8 2.3081 -0.2856 
-16 16 9 3.2463 -0.0820 
-16 16 10 9.8514 0.4876 
-16 16 11 -0.4468 0.0631 
-16 16 12 17.0164 -0.1784 
-16 16 13 -4.5963 -0.0109 
-16 16 14 7.5881 0.0132 
-16 16 15 -16.0473 -0.1565 
-16 16 16 0.1836 -0.0620 
-16 16 17 -0.7500 -0.0959 
-16 16 18 0.9251 0.0023 
-16 16 19 0.2623 0.1800 
-16 16 20 0.4441 0.4523 
-16 18 1 2.0539 -0.3076 
-16 18 2 7.1402 0.0192 
-16 18 3 -8.4869 0.2755 
-16 18 4 7.6543 -0.0637 
-16 18 5 1.0899 0.1851 
-16 18 6 -14.7149 -0.1350 
-16 18 7 3.3567 -0.0163 
-16 18 8 10.8045 -0.4911 
-16 18 9 -10.1244 0.1725 
-16 18 10 4.4777 0.3012 
-16 18 11 0.7047 0.1754 
-16 18 12 5.3043 -0.2463 
-16 18 13 -1.6399 -0.0341 
-16 18 14 17.6087 0.1725 
-16 18 15 -8.6170 -0.2159 
-16 18 16 -0.0048 0.2077 
-16 18 17 -2.7174 -0.1746 
-16 18 18 -4.2825 0.1802 
-16 20 1 1.8660 0.0874 
-16 20 2 7.9483 0.1889 
-16 20 3 -14.2619 -0.1496 
-16 20 4 7.2249 0.0845 
-16 20 5 -6.9925 -0.0651 
-16 20 6 4.2329 0.0703 
-16 20 7 -13.3547 -0.0302 
-16 20 8 -12.1637 -0.0256 
-16 20 9 -16.9257 0.1988 
-16 20 10 -4.9248 -0.1209 
-16 20 11 -0.2955 -0.0303 
-16 20 12 8.6745 -0.3350 
-16 20 13 -15.7367 0.1971 
-16 20 14 3.9104 -0.0195 
-16 20 15 -6.0221 0.2178 
-16 20 16 -14.1058 -0.3253 
-16 22 1 11.0717 0.1329 
-16 22 2 7.5058 -0.2630 
-16 22 3 16.8787 0.1360 
-16 22 4 -8.0044 0.0284 
-16 22 5 -7.2151 0.0760 
-16 22 6 6.6002 -0.2944 
-16 22 7 -1.5682 0.2705 
-16 22 8 5.0702 0.1010 
-16 22 9 -2.1441 0.2039 
-16 22 10 1.2419 -0.6295 
-16 22 11 -28.8231 -0.0139 
-16 22 12 -4.3599 0.2728 
-16 22 13 -21.9331 0.8078 
-16 24 1 -9.4543 0.4298 
-16 24 2 -8.6742 -0.3220 
-16 24 3 0.1545 -0.1656 
-16 24 4 0.0144 -0.0427 
-16 24 5 0.1262 0.1553 
-16 24 6 -2.2319 -0.5130 
-16 24 7 -14.7815 0.4972 
-16 24 8 -2.4929 0.3456 
-15 1 1 32.3276 0.4400 
-15 1 2 37.4610 -0.9322 
-15 1 3 -25.4277 0.3042 
-15 1 4 47.9296 -0.4558 
-15 1 5 -2.1679 0.1040 
-15 1 6 9.3545 -0.7644 
-15 1 7 40.4402 1.9951 
-15 1 8 39.9835 0.0268 
-15 1 9 -32.2501 -0.2426 
-15 1 10 -34.3571 -2.0797 
-15 1 11 25.1313 -0.0243 
-15 1 12 10.1192 0.2736 
-15 1 13 -19.8407 1.5807 
-15 1 14 7.1341 -0.5646 
-15 1 15 -7.2905 0.3607 
-15 1 16 21.6247 -0.6458 
-15 1 17 -9.6054 0.2040 
-15 1 18 13.3397 -1.3799 
-15 1 19 -6.0020 0.4740 
-15 1 20 7.9786 0.9621 
-15 1 21 -3.1218 1.0019 
-15 1 22 -14.5609 -1.0446 
-15 1 23 11.6987 -1.4883 
-15 1 24 23.6044 -0.0131 
-15 1 25 6.9329 1.1530 
-15 1 26 18.3728 0.3790 
-15 3 1 6.9221 -0.5796 
-15 3 2 21.5354 0.4963 
-15 3 3 5.6592 -0.2172 
-15 3 4 49.7790 0.5934 
-15 3 5 -32.0698 -0.8263 
-15 3 6 13.0028 0.3463 
-15 3 7 57.1415 -0.5269 
-15 3 8 -66.0968 0.5828 
-15 3 9 -20.2242 -0.5232 
-15 3 10 -18.8568 0.1682 
-15 3 11 -3.7829 -0.2094 
-15 3 12 -7.2006 0.1317 
-15 3 13 -14.6402 -0.1150 
-15 3 14 18.7191 0.5962 
-15 3 15 -22.3948 -0.1272 
-15 3 16 13.5961 -0.1562 
-15 3 17 -18.5198 -0.0842 
-15 3 18 11.2350 0.2507 
-15 3 19 8.7553 0.1537 
-15 3 20 6.0600 -0.2133 
-15 3 21 -6.0304 -0.1158 
-15 3 22 -2.1743 0.1959 
-15 3 23 -12.5997 -0.0605 
-15 3 24 -11.6066 -0.0512 
-15 3 25 9.3721 0.1886 
-15 5 1 9.6628 -0.1791 
-15 5 2 20.3728 0.6249 
-15 5 3 4.5553 -0.3862 
-15 5 4 20.4986 -0.0520 
-15 5 5 -46.7435 0.2030 
-15 5 6 39.8527 0.8312 
-15 5 7 -35.2633 -0.9670 
-15 5 8 4.0155 -0.0543 
-15 5 9 21.3498 -0.6184 
-15 5 10 -26.8286 1.3540 
-15 5 11 9.8186 -0.1962 
-15 5 12 -14.8577 0.0607 
-15 5 13 28.7186 -1.0000 
-15 5 14 10.2449 0.4097 
-15 5 15 1.8712 0.0880 
-15 5 16 13.0606 0.2526 
-15 5 17 -25.2297 -0.0683 
-15 5 18 -2.7214 0.2946 
-15 5 19 10.6067 -0.0776 
-15 5 20 11.2254 -0.7784 
-15 5 21 -24.6050 -0.2373 
-15 5 22 -0.3252 0.5163 
-15 5 23 -4.9244 0.3991 
-15 5 24 -6.1539 0.2991 
-15 5 25 14.4958 0.0199 
-15 7 1 3.4402 -0.0536 
-15 7 2 16.6509 0.0299 
-15 7 3 33.3494 0.4114 
-15 7 4 17.5465 -0.2419 
-15 7 5 -13.5256 0.2992 
-15 7 6 31.4695 -0.2757 
-15 7 7 -11.9422 -0.3124 
-15 7 8 12.7519 -0.1962 
-15 7 9 8.3621 0.5949 
-15 7 10 -4.2542 0.0801 
-15 7 11 -29.4907 0.0218 
-15 7 12 -17.1301 -0.1076 
-15 7 13 3.4432 -0.2474 
-15 7 14 1.3556 0.0912 
-15 7 15 -2.3316 0.0084 
-15 7 16 7.7778 0.0982 
-15 7 17 -13.9245 -0.1683 
-15 7 18 -2.9438 0.3898 
-15 7 19 2.6220 -0.1120 
-15 7 20 -16.0507 -0.3865 
-15 7 21 -4.7719 -0.2410 
-15 7 22 -5.3908 0.0889 
-15 7 23 -2.3572 0.3366 
-15 7 24 8.7605 -0.1884 
-15 7 25 -0.3876 -0.0779 
-15 9 1 -6.3233 0.0397 
-15 9 2 30.3216 -0.0987 
-15 9 3 -2.4496 -0.0927 
-15 9 4 -12.1898 -0.1515 
-15 9 5 0.1927 0.3274 
-15 9 6 -18.3688 0.0644 
-15 9 7 19.6627 0.0029 
-15 9 8 19.7833 -0.1902 
-15 9 9 5.9012 0.0874 
-15 9 10 -0.1639 -0.1109 
-15 9 11 -1.7962 0.0624 
-15 9 12 13.6583 0.2586 
-15 9 13 -0.6395 -0.0654 
-15 9 14 17.9607 -0.3284 
-15 9 15 -6.8385 0.0477 
-15 9 16 -10.2480 0.0545 
-15 9 17 -2.8228 -0.0611 
-15 9 18 9.5204 -0.0853 
-15 9 19 -0.7018 -0.1914 
-15 9 20 -6.5405 0.0790 
-15 9 21 8.9410 -0.1135 
-15 9 22 -18.3802 -0.1737 
-15 9 23 -14.4395 -0.1032 
-15 9 24 7.0283 -0.1158 
-15 11 1 4.6822 -0.1345 
-15 11 2 45.7913 -0.1832 
-15 11 3 -30.4587 0.0573 
-15 11 4 25.5353 0.1879 
-15 11 5 -38.5546 -0.4812 
-15 11 6 15.3381 -0.0051 
-15 11 7 -0.3789 0.0116 
-15 11 8 14.7685 0.8314 
-15 11 9 3.4083 -0.1934 
-15 11 10 -20.4549 -0.0780 
-15 11 11 15.1894 -0.6132 
-15 11 12 -18.4001 0.3997 
-15 11 13 -7.1840 0.0626 
-15 11 14 2.1853 0.2150 
-15 11 15 14.9479 -0.3341 
-15 11 16 -2.6781 0.1901 
-15 11 17 1.4164 -0.2385 
-15 11 18 19.8001 -0.0065 
-15 11 19 8.2033 -0.1189 
-15 11 20 10.6597 0.3556 
-15 11 21 12.2279 0.1135 
-15 11 22 0.5646 -0.2057 
-15 11 23 -0.4705 -0.5435 
-15 13 1 0.1294 0.2156 
-15 13 2 -4.0965 -0.5719 
-15 13 3 -21.2486 0.0592 
-15 13 4 24.1516 -0.2228 
-15 13 5 -28.8181 0.0916 
-15 13 6 26.1626 -0.1551 
-15 13 7 -17.5688 0.4610 
-15 13 8 -1.9850 0.0863 
-15 13 9 7.9911 -0.3175 
-15 13 10 -3.6422 -0.1104 
-15 13 11 13.1492 0.1237 
-15 13 12 -7.2547 0.1308 
-15 13 13 -4.4176 -0.0251 
-15 13 14 8.9405 0.0689 
-15 13 15 5.1893 -0.1159 
-15 13 16 -4.3149 0.0714 
-15 13 17 0.4404 0.0221 
-15 13 18 12.1394 0.0161 
-15 13 19 -3.3500 -0.1161 
-15 13 20 0.8266 0.5294 
-15 13 21 3.0657 0.1072 
-15 13 22 -4.3241 0.3561 
-15 15 1 8.1281 -0.0436 
-15 15 2 -18.5989 -0.1753 
-15 15 3 -10.9374 0.3564 
-15 15 4 -17.1592 0.1091 
-15 15 5 3.1033 -0.3025 
-15 15 6 -5.9861 -0.2304 
-15 15 7 0.2270 0.2174 
-15 15 8 13.7533 0.0204 
-15 15 9 9.7897 0.0451 
-15 15 10 -0.3683 0.1017 
-15 15 11 -2.3667 0.1089 
-15 15 12 11.8285 -0.4013 
-15 15 13 -18.2847 -0.0176 
-15 15 14 34.9684 0.2385 
-15 15 15 -3.5297 -0.0231 
-15 15 16 5.7857 -0.2136 
-15 15 17 8.0793 -0.0323 
-15 15 18 3.0769 -0.1072 
-15 15 19 6.6021 0.4780 
-15 15 20 9.5813 -0.1312 
-15 15 21 5.4193 0.3039 
-15 17 1 1.3835 -0.0127 
-15 17 2 0.4981 0.1601 
-15 17 3 5.9444 -0.0191 
-15 17 4 0.9017 -0.0906 
-15 17 5 9.3020 0.1029 
-15 17 6 -16.5908 0.1653 
-15 17 7 10.8460 -0.0086 
-15 17 8 6.5016 -0.6221 
-15 17 9 7.8978 -0.2211 
-15 17 10 16.2307 0.5752 
-15 17 11 3.2675 0.3214 
-15 17 12 8.1747 -0.2022 
-15 17 13 -2.0016 -0.2198 
-15 17 14 7.8504 0.1279 
-15 17 15 -4.3060 -0.0314 
-15 17 16 7.9079 -0.0092 
-15 17 17 -3.8218 -0.1417 
-15 17 18 3.7771 -0.0771 
-15 17 19 14.6802 0.4307 
-15 17 20 7.5176 0.4086 
-15 19 1 -13.2044 -0.3606 
-15 19 2 4.9334 0.5906 
-15 19 3 -11.5638 -0.0081 
-15 19 4 8.6605 0.1298 
-15 19 5 -10.2563 -0.1628 
-15 19 6 6.2726 -0.0122 
-15 19 7 7.3389 -0.1136 
-15 19 8 -17.5153 -0.1787 
-15 19 9 -17.1112 0.2279 
-15 19 10 4.6775 0.2564 
-15 19 11 -9.2790 -0.0451 
-15 19 12 1.5073 -0.3336 
-15 19 13 9.2898 -0.1079 
-15 19 14 6.5289 0.2500 
-15 19 15 3.9927 -0.0687 
-15 19 16 12.4638 0.0875 
-15 19 17 -11.4906 -0.0452 
-15 19 18 9.7711 0.4683 
-15 21 1 -10.8319 0.0595 
-15 21 2 -1.6226 0.0665 
-15 21 3 0.6675 -0.2103 
-15 21 4 13.3173 -0.0801 
-15 21 5 -7.5920 0.2728 
-15 21 6 -3.3052 0.0418 
-15 21 7 6.5860 -0.0734 
-15 21 8 -5.0760 -0.2285 
-15 21 9 0.6692 0.3836 
-15 21 10 2.7298 -0.5082 
-15 21 11 -6.8251 0.4014 
-15 21 12 25.7621 0.0728 
-15 21 13 5.3328 -0.2462 
-15 21 14 2.8083 0.3174 
-15 21 15 -0.2876 -0.5758 
-15 23 1 -10.7096 0.2721 
-15 23 2 9.3505 -0.3029 
-15 23 3 -21.7178 0.2814 
-15 23 4 -8.3048 -0.3492 
-15 23 5 8.1679 0.2263 
-15 23 6 10.2536 -0.5396 
-15 23 7 -1.7451 0.4929 
-15 23 8 -0.8475 -0.1483 
-15 23 9 -13.8614 1.0362 
-15 23 10 12.1197 -1.6327 
-15 23 11 -10.0874 0.3341 
-15 23 12 13.6583 -1.0214 
-14 0 1 -65.7910 0.1932 
-14 0 2 40.1801 -2.8594 
-14 0 3 33.6502 0.7219 
-14 0 4 24.9173 -0.0611 
-14 0 5 13.6517 2.1199 
-14 0 6 48.1489 -1.9716 
-14 0 7 -13.5833 0.9998 
-14 0 8 44.3573 0.5458 
-14 0 9 119.2961 2.8624 
-14 0 10 -1.0070 -3.5898 
-14 0 11 -33.6104 -1.5224 
-14 0 12 -38.5987 -0.6457 
-14 0 13 -16.8868 3.7471 
-14 0 14 -21.1117 -0.8137 
-14 0 15 9.5192 1.1871 
-14 0 16 -4.0281 -1.3618 
-14 0 17 5.3535 -0.6179 
-14 0 18 15.9313 -3.3949 
-14 0 19 5.2531 2.4083 
-14 0 20 -0.3914 2.8325 
-14 0 21 -5.6518 1.2212 
-14 0 22 18.7770 -4.0833 
-14 0 23 11.4352 -1.9371 
-14 0 24 13.4502 1.1764 
-14 0 25 -4.9496 1.9754 
-14 0 26 12.6219 0.2205 
-14 2 2 3.9256 0.7037 
-14 2 3 -30.7532 -0.5742 
-14 2 4 -18.0319 -1.3949 
-14 2 5 -47.1367 0.2131 
-14 2 6 -11.0213 0.9550 
-14 2 7 17.1898 0.7825 
-14 2 8 65.8541 -0.3111 
-14 2 9 -0.5866 -0.1011 
-14 2 10 -74.7255 -1.9348 
-14 2 11 -27.6347 0.0001 
-14 2 12 -16.5597 0.9363 
-14 2 13 5.8085 1.9387 
-14 2 14 -0.6529 -1.5767 
-14 2 15 -14.2553 -0.3961 
-14 2 16 -3.9613 0.0100 
-14 2 17 -13.0762 0.8761 
-14 2 18 0.0508 -1.0693 
-14 2 19 -5.0188 0.0904 
-14 2 20 7.3332 0.3537 
-14 2 21 2.5250 0.5542 
-14 2 22 4.8076 -0.4362 
-14 2 23 1.8861 -0.4042 
-14 2 24 0.5473 0.3723 
-14 2 25 3.5820 0.0708 
-14 2 26 3.1996 -0.4898 
-14 4 1 15.1172 -0.2334 
-14 4 2 -30.8938 -0.0507 
-14 4 3 -1.5750 0.3240 
-14 4 4 -5.3602 0.3737 
-14 4 5 -68.2681 0.0936 
-14 4 6 26.0393 0.4421 
-14 4 7 -6.2126 -1.2816 
-14 4 8 9.1357 -0.1971 
-14 4 9 35.7098 0.7580 
-14 4 10 9.9057 0.5423 
-14 4 11 19.3171 -0.3134 
-14 4 12 -33.3176 -0.8049 
-14 4 13 -0.0860 0.2007 
-14 4 14 -11.4447 0.1787 
-14 4 15 -27.9369 0.3624 
-14 4 16 18.3547 -0.1061 
-14 4 17 -12.0345 0.0178 
-14 4 18 10.1577 -0.2196 
-14 4 19 -4.9691 0.1174 
-14 4 20 18.4215 -0.1892 
-14 4 21 -7.7299 -0.1301 
-14 4 22 6.7238 0.2151 
-14 4 23 -4.5178 0.1586 
-14 4 24 -12.1167 0.1700 
-14 4 25 7.6037 -0.0767 
-14 6 1 28.8801 0.4961 
-14 6 2 -2.3479 0.1743 
-14 6 3 19.5930 0.2137 
-14 6 4 13.9088 -0.5884 
-14 6 5 -56.7604 0.3871 
-14 6 6 46.9892 0.1315 
-14 6 7 11.9667 -0.1681 
-14 6 8 -21.7433 -0.5648 
-14 6 9 2.0036 0.1958 
-14 6 10 -13.5950 0.4222 
-14 6 11 -16.9998 0.4020 
-14 6 12 -11.5728 -0.4568 
-14 6 13 24.2349 -0.1941 
-14 6 14 41.2934 -0.1300 
-14 6 15 -16.7973 0.0493 
-14 6 16 -1.3607 0.0057 
-14 6 17 -34.2235 0.3435 
-14 6 18 3.8149 0.3170 
-14 6 19 -1.9564 -0.4098 
-14 6 20 6.3889 -0.6539 
-14 6 21 22.9068 -0.1474 
-14 6 22 7.3875 0.3474 
-14 6 23 7.2527 0.4252 
-14 6 24 11.5446 -0.0300 
-14 6 25 7.4623 0.0920 
-14 8 1 27.8882 -0.0025 
-14 8 2 -15.7055 -0.2352 
-14 8 3 31.7606 0.4573 
-14 8 4 -13.8909 -0.2231 
-14 8 5 -3.9026 0.7083 
-14 8 6 19.6047 -0.6924 
-14 8 7 33.8164 0.1264 
-14 8 8 2.8619 -0.4760 
-14 8 9 10.3385 0.4911 
-14 8 10 32.6352 -0.1644 
-14 8 11 -6.4560 0.5098 
-14 8 12 1.7135 -0.5763 
-14 8 13 -25.9230 0.0995 
-14 8 14 8.2465 -0.1376 
-14 8 15 -8.8647 0.4421 
-14 8 16 15.2092 -0.2591 
-14 8 17 -0.1967 -0.1503 
-14 8 18 -1.2156 0.1135 
-14 8 19 0.7975 -0.1426 
-14 8 20 -6.3636 -0.1134 
-14 8 21 21.5645 0.0252 
-14 8 22 5.1109 -0.1782 
-14 8 23 -2.5793 0.1978 
-14 8 24 0.8780 -0.2219 
-14 8 25 10.4359 0.4699 
-14 10 1 0.1490 0.0257 
-14 10 2 22.4377 -0.2183 
-14 10 3 1.3275 0.0139 
-14 10 4 -0.4423 -0.0347 
-14 10 5 33.8128 0.0857 
-14 10 6 -0.0547 -0.2144 
-14 10 7 -22.7076 0.4221 
-14 10 8 18.4008 0.2758 
-14 10 9 -13.3052 -0.1457 
-14 10 10 -14.0319 -0.3939 
-14 10 11 21.6107 -0.0491 
-14 10 12 -13.7230 0.5132 
-14 10 13 5.3747 -0.0383 
-14 10 14 -3.4659 -0.1428 
-14 10 15 -4.6329 0.0201 
-14 10 16 1.5189 -0.2302 
-14 10 17 -12.1275 0.1536 
-14 10 18 4.6215 -0.2513 
-14 10 19 -4.5454 0.1881 
-14 10 20 4.3558 -0.2364 
-14 10 21 -3.6481 0.0220 
-14 10 22 0.8356 0.0860 
-14 10 23 4.9066 -0.6053 
-14 10 24 15.8561 0.5160 
-14 12 1 9.9037 -0.0910 
-14 12 2 26.1312 -0.5757 
-14 12 3 -18.9817 0.0380 
-14 12 4 28.0510 0.2838 
-14 12 5 -6.8517 -0.2428 
-14 12 6 2.9507 -0.1688 
-14 12 7 -1.2092 0.2308 
-14 12 8 6.7182 0.3746 
-14 12 9 21.2629 -0.2066 
-14 12 10 -20.7070 -0.2228 
-14 12 11 7.2098 -0.2099 
-14 12 12 -9.5281 0.3485 
-14 12 13 4.0373 -0.0100 
-14 12 14 -0.1857 0.1449 
-14 12 15 5.8870 -0.2111 
-14 12 16 -10.9650 0.2598 
-14 12 17 -7.7023 -0.3840 
-14 12 18 10.5938 -0.0929 
-14 12 19 -5.2572 0.1809 
-14 12 20 -1.4001 0.4170 
-14 12 21 8.8955 0.1846 
-14 12 22 -8.4076 -0.2411 
-14 12 23 -7.3669 -0.6533 
-14 14 1 -8.7112 0.1613 
-14 14 2 -6.7432 -0.2473 
-14 14 3 -18.4671 0.0908 
-14 14 4 14.1865 -0.0965 
-14 14 5 -0.9016 -0.1399 
-14 14 6 -9.8554 -0.1514 
-14 14 7 -8.2071 0.3389 
-14 14 8 11.8982 0.1946 
-14 14 9 14.3246 -0.1696 
-14 14 10 -12.6164 -0.0782 
-14 14 11 11.8681 0.0340 
-14 14 12 -6.0864 -0.1051 
-14 14 13 -7.2187 0.0619 
-14 14 14 16.8920 0.0335 
-14 14 15 8.2715 -0.0696 
-14 14 16 -10.4427 -0.1012 
-14 14 17 -13.6873 0.0493 
-14 14 18 6.1470 0.0028 
-14 14 19 -2.9561 0.1026 
-14 14 20 -5.0319 0.1493 
-14 14 21 2.7886 -0.0274 
-14 14 22 -14.4492 -0.0947 
-14 16 1 4.0364 -0.1187 
-14 16 2 -8.1703 0.0567 
-14 16 3 13.4082 0.1857 
-14 16 4 11.2728 0.0894 
-14 16 5 -12.7502 -0.0759 
-14 16 6 10.2729 -0.0319 
-14 16 7 -3.9461 -0.1337 
-14 16 8 11.5192 -0.0435 
-14 16 9 -1.0997 -0.1080 
-14 16 10 -10.3325 0.3285 
-14 16 11 5.7814 0.2412 
-14 16 12 -4.5357 -0.3759 
-14 16 13 0.3431 -0.2229 
-14 16 14 22.4278 0.2815 
-14 16 15 7.0564 -0.0357 
-14 16 16 10.1652 -0.1756 
-14 16 17 16.0727 0.1505 
-14 16 18 13.5227 -0.2315 
-14 16 19 1.7149 0.2458 
-14 16 20 13.9087 0.1988 
-14 16 21 22.5837 0.4393 
-14 18 1 -7.2878 -0.0533 
-14 18 2 -1.3065 0.4703 
-14 18 3 6.9697 -0.2230 
-14 18 4 12.5195 0.0734 
-14 18 5 -2.6113 -0.1054 
-14 18 6 -8.9890 0.2601 
-14 18 7 -0.4752 -0.2862 
-14 18 8 17.3043 -0.0840 
-14 18 9 -17.1339 -0.1425 
-14 18 10 -11.6602 0.5288 
-14 18 11 -3.1865 -0.0956 
-14 18 12 11.6928 -0.0952 
-14 18 13 11.7383 -0.3623 
-14 18 14 4.8938 0.3223 
-14 18 15 -2.6838 -0.1857 
-14 18 16 4.1648 0.2890 
-14 18 17 5.4325 -0.2006 
-14 18 18 5.7279 -0.0538 
-14 18 19 -11.0379 -0.0635 
-14 20 1 -0.7863 -0.3097 
-14 20 2 12.9051 0.5231 
-14 20 3 -23.3779 -0.2861 
-14 20 4 2.9024 0.4157 
-14 20 5 2.2467 -0.3356 
-14 20 6 -3.8574 0.5380 
-14 20 7 -0.3568 -0.6064 
-14 20 8 2.3134 0.1227 
-14 20 9 11.9754 -0.1647 
-14 20 10 0.5794 0.5547 
-14 20 11 4.5952 -0.2667 
-14 20 12 20.1440 0.2498 
-14 20 13 -18.4624 -0.3144 
-14 20 14 -6.9563 -0.0433 
-14 20 15 -9.0429 -0.0889 
-14 20 16 -1.6278 0.2955 
-14 20 17 -15.4901 -0.8567 
-14 22 1 3.9794 0.1188 
-14 22 2 6.2271 -0.1256 
-14 22 3 1.0016 -0.1356 
-14 22 4 -2.9233 -0.0400 
-14 22 5 -9.1033 0.0272 
-14 22 6 1.4639 0.0632 
-14 22 7 -5.3306 -0.1930 
-14 22 8 8.5354 0.2164 
-14 22 9 5.3359 0.0756 
-14 22 10 -6.8306 -0.3907 
-14 22 11 -5.3923 -0.1837 
-14 22 12 5.4624 0.2994 
-14 22 13 -2.2244 0.3249 
-14 22 14 6.7031 -0.1436 
-14 24 1 -3.6980 -0.4778 
-14 24 2 1.0848 0.3885 
-14 24 3 3.2081 -0.4123 
-14 24 4 21.1496 0.3165 
-14 24 5 -8.4239 -0.3422 
-14 24 6 -1.2867 0.1259 
-14 24 7 -6.3554 -0.2175 
-14 24 8 0.1227 0.6157 
-14 24 9 -3.6635 -0.2187 
-14 24 10 1.8151 -0.1312 
-13 1 1 11.6086 -0.5679 
-13 1 2 -21.7416 -1.5258 
-13 1 3 61.4862 -0.3037 
-13 1 4 28.5746 0.3716 
-13 1 5 -17.4207 -0.6757 
-13 1 6 16.9468 -0.4753 
-13 1 7 -22.5548 1.8842 
-13 1 8 62.0665 1.5841 
-13 1 9 48.3291 -1.0745 
-13 1 10 48.3493 -2.8356 
-13 1 11 8.1846 0.3772 
-13 1 12 -29.2694 1.6653 
-13 1 13 -2.0956 1.2506 
-13 1 14 -20.1246 -0.8064 
-13 1 15 -15.3575 -0.0525 
-13 1 16 -3.7288 -0.1462 
-13 1 17 -9.2170 -0.8985 
-13 1 18 -6.6363 -0.5318 
-13 1 19 3.1490 0.9010 
-13 1 20 20.3598 0.9738 
-13 1 21 -5.1905 0.0459 
-13 1 22 27.1469 -1.2534 
-13 1 23 4.9103 -0.6977 
-13 1 24 -0.0940 0.4752 
-13 1 25 -3.4704 0.6654 
-13 1 26 2.2853 -0.2949 
-13 3 1 37.4929 -0.6337 
-13 3 2 -110.4123 0.7906 
-13 3 3 42.5951 -1.1269 
-13 3 4 -25.3122 1.0524 
-13 3 5 -150.1053 -1.0746 
-13 3 6 -28.9868 1.4146 
-13 3 7 4.3983 -0.9687 
-13 3 8 -1.8427 0.5321 
-13 3 9 27.5034 -0.7261 
-13 3 10 71.5702 0.0572 
-13 3 11 -36.9450 0.0452 
-13 3 12 -38.5559 0.2966 
-13 3 13 -21.8859 -0.3620 
-13 3 14 -6.8075 0.1068 
-13 3 15 4.1897 0.2611 
-13 3 16 -1.1622 0.3645 
-13 3 17 -2.2666 -0.6494 
-13 3 18 16.1921 0.0882 
-13 3 19 2.9415 -0.2499 
-13 3 20 28.0898 0.2062 
-13 3 21 -3.8143 0.0767 
-13 3 22 17.5033 0.2535 
-13 3 23 -17.3879 0.0304 
-13 3 24 -1.4806 0.0421 
-13 3 25 22.5009 0.2502 
-13 3 26 -2.9696 0.1924 
-13 5 1 -31.8090 -0.4866 
-13 5 2 -3.7931 0.9466 
-13 5 3 38.0340 0.0049 
-13 5 4 -21.9072 0.3071 
-13 5 5 -48.2476 -0.6966 
-13 5 6 64.8871 0.7216 
-13 5 7 -36.1604 -0.9691 
-13 5 8 26.2915 0.5521 
-13 5 9 20.1235 -0.2770 
-13 5 10 -34.6358 1.2006 
-13 5 11 54.6616 -0.7126 
-13 5 12 -13.0753 0.0434 
-13 5 13 -30.8656 -0.5403 
-13 5 14 2.3861 0.3462 
-13 5 15 -5.6478 0.0803 
-13 5 16 9.5637 -0.0143 
-13 5 17 -8.9656 -0.0002 
-13 5 18 16.0653 0.2926 
-13 5 19 -0.8990 -0.2167 
-13 5 20 14.2579 -0.3817 
-13 5 21 -40.5730 -0.3437 
-13 5 22 -8.1215 0.7342 
-13 5 23 -20.4211 0.2230 
-13 5 24 0.8976 -0.2897 
-13 5 25 11.1469 -0.1695 
-13 7 1 -7.7425 0.2880 
-13 7 2 56.7035 0.0872 
-13 7 3 -40.2881 0.0888 
-13 7 4 44.9695 -0.1313 
-13 7 5 -14.3593 0.3134 
-13 7 6 32.7522 0.3311 
-13 7 7 11.1831 -0.4476 
-13 7 8 36.6737 -0.8813 
-13 7 9 -2.9900 0.3999 
-13 7 10 -27.3391 0.7779 
-13 7 11 10.1204 -0.1087 
-13 7 12 19.7363 -0.2386 
-13 7 13 -12.7930 -0.4032 
-13 7 14 -1.0049 0.1780 
-13 7 15 -14.3227 -0.0462 
-13 7 16 -10.3831 0.1771 
-13 7 17 5.9215 -0.0067 
-13 7 18 4.2261 0.1323 
-13 7 19 -2.2104 -0.2940 
-13 7 20 11.1014 -0.2585 
-13 7 21 7.2513 0.0029 
-13 7 22 1.9159 0.3405 
-13 7 23 -6.8394 0.0503 
-13 7 24 7.1521 0.1672 
-13 7 25 -4.8667 0.2133 
-13 9 1 19.6073 0.1822 
-13 9 2 -11.0003 -0.0823 
-13 9 3 -10.0438 0.3191 
-13 9 4 15.8552 -0.1571 
-13 9 5 10.9639 0.1538 
-13 9 6 -10.4644 -0.2156 
-13 9 7 2.2064 0.3720 
-13 9 8 23.8389 -0.0410 
-13 9 9 -20.4180 0.2007 
-13 9 10 20.8685 -0.1620 
-13 9 11 -7.3803 -0.1276 
-13 9 12 -12.4231 -0.1351 
-13 9 13 1.7892 0.4087 
-13 9 14 1.0215 0.0837 
-13 9 15 25.3384 -0.2202 
-13 9 16 -1.9754 -0.1042 
-13 9 17 9.9105 0.0532 
-13 9 18 -1.0273 0.0132 
-13 9 19 -5.7209 -0.0549 
-13 9 20 12.1082 -0.1261 
-13 9 21 1.7151 0.1205 
-13 9 22 -5.5600 -0.2185 
-13 9 23 -8.6851 -0.1326 
-13 9 24 21.6830 0.5673 
-13 11 1 -2.1373 -0.0032 
-13 11 2 1.0800 -0.5677 
-13 11 3 -4.3534 -0.2691 
-13 11 4 32.5495 0.2919 
-13 11 5 -4.3180 0.2990 
-13 11 6 -7.9955 -0.0394 
-13 11 7 10.7112 0.0970 
-13 11 8 -5.2858 0.2050 
-13 11 9 0.4341 -0.2956 
-13 11 10 12.7243 -0.3379 
-13 11 11 20.6184 0.2639 
-13 11 12 -3.6000 0.2334 
-13 11 13 -1.8573 0.0030 
-13 11 14 -14.1221 0.1159 
-13 11 15 -0.1882 -0.3524 
-13 11 16 0.5627 0.2608 
-13 11 17 -4.0911 -0.2916 
-13 11 18 4.3696 -0.0353 
-13 11 19 -2.3248 -0.0869 
-13 11 20 -9.5461 0.3754 
-13 11 21 2.2402 0.1736 
-13 11 22 4.1909 -0.2229 
-13 11 23 6.7125 -0.5839 
-13 11 24 19.2805 -0.0272 
-13 13 1 12.8835 0.0371 
-13 13 2 17.1138 -0.3094 
-13 13 3 -1.2400 0.1105 
-13 13 4 24.3229 -0.0848 
-13 13 5 -19.1680 0.0975 
-13 13 6 3.3920 -0.7075 
-13 13 7 -2.2519 0.6712 
-13 13 8 -22.8327 0.3200 
-13 13 9 30.1883 0.0447 
-13 13 10 -13.2587 -0.7698 
-13 13 11 -37.1378 0.0215 
-13 13 12 9.0275 0.1842 
-13 13 13 4.0027 0.1769 
-13 13 14 3.2791 0.0039 
-13 13 15 5.6421 -0.0719 
-13 13 16 8.8750 -0.1689 
-13 13 17 -2.8896 -0.0924 
-13 13 18 0.7886 0.1873 
-13 13 19 6.7517 -0.0015 
-13 13 20 5.5325 0.2898 
-13 13 21 13.1288 -0.3952 
-13 13 22 -12.8679 0.3026 
-13 13 23 -5.0962 -0.3942 
-13 15 1 -1.6183 0.1772 
-13 15 2 -1.4866 -0.1966 
-13 15 3 -9.0346 -0.0109 
-13 15 4 -19.2289 -0.0778 
-13 15 5 5.4094 0.3885 
-13 15 6 12.6821 -0.3230 
-13 15 7 -14.8513 0.1179 
-13 15 8 22.4057 -0.2642 
-13 15 9 -11.0899 0.2669 
-13 15 10 0.9790 -0.0722 
-13 15 11 -17.1398 0.4123 
-13 15 12 3.8705 -0.2713 
-13 15 13 -7.9364 -0.0463 
-13 15 14 -8.7748 -0.3027 
-13 15 15 -2.6748 0.3274 
-13 15 16 1.0571 -0.0894 
-13 15 17 5.0744 0.1844 
-13 15 18 0.7478 -0.2799 
-13 15 19 4.5128 0.1525 
-13 15 20 6.6664 0.1597 
-13 15 21 -4.5947 0.2802 
-13 17 1 17.1363 0.0756 
-13 17 2 -8.0099 0.2397 
-13 17 3 0.5416 0.1947 
-13 17 4 -1.8252 -0.1490 
-13 17 5 8.6712 -0.1711 
-13 17 6 7.8015 -0.1221 
-13 17 7 -12.0889 -0.0830 
-13 17 8 24.6143 0.1538 
-13 17 9 -7.8362 0.1780 
-13 17 10 18.3918 0.0259 
-13 17 11 8.3944 0.1190 
-13 17 12 -13.6643 -0.3825 
-13 17 13 11.1357 -0.0012 
-13 17 14 0.6856 -0.0051 
-13 17 15 2.3544 0.2441 
-13 17 16 2.5958 -0.0630 
-13 17 17 -6.8584 0.0188 
-13 17 18 4.4691 -0.1357 
-13 17 19 5.3683 0.1012 
-13 17 20 13.7055 0.0524 
-13 19 1 -9.3026 0.0355 
-13 19 2 11.9108 0.1243 
-13 19 3 -12.7234 -0.1011 
-13 19 4 2.9510 0.1388 
-13 19 5 -0.0914 0.0137 
-13 19 6 -3.8117 0.4592 
-13 19 7 -11.6004 -0.7129 
-13 19 8 4.6419 0.0536 
-13 19 9 6.9362 -0.0565 
-13 19 10 4.5720 0.5431 
-13 19 11 8.8075 0.0893 
-13 19 12 -13.0368 -0.1239 
-13 19 13 -8.2575 -0.2571 
-13 19 14 8.4506 -0.0956 
-13 19 15 -1.8818 0.2252 
-13 19 16 5.3476 0.0695 
-13 19 17 -4.4829 -0.3529 
-13 19 18 7.4334 0.0143 
-13 21 1 -4.2988 -0.0303 
-13 21 2 1.3259 0.0990 
-13 21 3 3.5185 0.1954 
-13 21 4 1.4594 -0.2150 
-13 21 5 4.5666 -0.1400 
-13 21 6 13.7141 0.1484 
-13 21 7 -4.4234 0.1350 
-13 21 8 12.6579 -0.1350 
-13 21 9 -5.1447 -0.0310 
-13 21 10 -16.7766 0.0123 
-13 21 11 -4.5178 -0.2492 
-13 21 12 10.9251 0.4593 
-13 21 13 -14.6531 0.0899 
-13 21 14 4.4336 -0.2401 
-13 21 15 -0.2619 0.1447 
-13 21 16 13.4638 -0.0329 
-13 23 1 -0.8591 -0.2241 
-13 23 2 12.0135 -0.2374 
-13 23 3 4.2154 -0.0998 
-13 23 4 -0.9436 0.0607 
-13 23 5 6.7771 0.1828 
-13 23 6 24.3882 -0.1762 
-13 23 7 -4.5456 0.2339 
-13 23 8 17.8292 -0.3513 
-13 23 9 8.0503 -0.1089 
-13 23 10 3.9986 0.0783 
-13 23 11 3.4268 -0.1180 
-13 23 12 -1.4357 0.2785 
-13 23 13 3.3400 -0.1364 
-13 25 1 -5.1530 -0.6970 
-13 25 2 6.9629 0.6016 
-13 25 3 -7.3184 -0.3716 
-13 25 4 14.7083 0.3158 
-13 25 5 -1.3769 -0.3827 
-13 25 6 5.1286 0.1752 
-13 25 7 1.0644 0.0452 
-13 25 8 -2.5236 0.2692 
-12 0 1 -17.9489 3.9173 
-12 0 2 2.1277 -4.7368 
-12 0 3 -131.2573 2.8780 
-12 0 4 -74.7791 -4.9304 
-12 0 5 -30.3784 1.0136 
-12 0 6 53.4995 0.7682 
-12 0 7 26.3382 5.1825 
-12 0 8 -68.5702 -2.0901 
-12 0 9 43.6584 -3.1193 
-12 0 10 131.0901 -2.9478 
-12 0 11 70.8323 3.5391 
-12 0 12 -38.2125 2.4998 
-12 0 13 -1.0349 1.2113 
-12 0 14 -41.9770 -2.5331 
-12 0 15 27.9180 -0.8064 
-12 0 16 -6.7552 0.3058 
-12 0 17 -1.5178 1.1174 
-12 0 18 10.0003 -1.1891 
-12 0 19 -13.5863 0.4403 
-12 0 20 37.3400 0.6195 
-12 0 21 -3.6793 1.3934 
-12 0 22 10.5093 -1.9557 
-12 0 23 11.2407 -1.0610 
-12 0 24 -1.6390 -0.0220 
-12 0 25 -6.2194 1.5386 
-12 0 26 14.0592 -0.6861 
-12 2 1 -89.6683 -1.3562 
-12 2 2 -37.3390 -1.2906 
-12 2 3 -38.1583 2.0400 
-12 2 5 -43.0925 -0.1758 
-12 2 6 -28.1132 -1.1182 
-12 2 7 5.6138 1.5780 
-12 2 8 38.5697 -0.3222 
-12 2 9 -54.3332 -0.2791 
-12 2 10 -8.6313 -0.3432 
-12 2 11 26.5755 -0.4440 
-12 2 12 -9.5499 -0.1153 
-12 2 13 42.3412 0.5660 
-12 2 14 -9.6167 0.8110 
-12 2 15 -6.9158 -0.2107 
-12 2 16 -16.3968 -0.8322 
-12 2 17 -24.5725 -0.3009 
-12 2 18 5.7092 0.1481 
-12 2 19 -10.8392 0.3618 
-12 2 20 27.0185 0.2787 
-12 2 21 2.9672 0.1719 
-12 2 22 0.0919 -0.6817 
-12 2 23 5.7924 -0.2877 
-12 2 24 -3.4832 0.5277 
-12 2 25 9.3602 0.9361 
-12 2 26 2.1788 -0.1621 
-12 4 1 -73.5925 0.0607 
-12 4 2 -69.0100 0.5654 
-12 4 3 1.6130 -0.4117 
-12 4 4 7.3203 -0.2977 
-12 4 5 -64.7591 -0.2683 
-12 4 6 -17.9393 0.7117 
-12 4 8 -22.4893 -0.6842 
-12 4 9 -21.8838 -0.5283 
-12 4 10 -7.8823 1.2348 
-12 4 11 22.5349 -0.1135 
-12 4 12 -11.2692 -0.2168 
-12 4 13 15.8211 -0.7226 
-12 4 14 16.3429 0.5161 
-12 4 15 8.7466 -0.0728 
-12 4 16 8.9666 0.0921 
-12 4 17 -33.4268 0.0723 
-12 4 18 0.4699 0.2912 
-12 4 19 -8.6246 -0.7003 
-12 4 20 12.2874 -0.4317 
-12 4 21 -11.1841 0.4381 
-12 4 22 12.7537 0.6813 
-12 4 23 0.1974 0.1709 
-12 4 24 -10.2378 -0.4243 
-12 4 25 13.7430 -0.0343 
-12 6 1 -39.0528 -0.2102 
-12 6 2 22.1413 0.6992 
-12 6 3 -12.7870 0.3128 
-12 6 4 33.2098 -0.0677 
-12 6 5 34.2297 0.1271 
-12 6 6 -56.7805 -0.4125 
-12 6 7 -52.7566 -0.4068 
-12 6 8 41.6880 -0.3525 
-12 6 9 9.9484 0.8037 
-12 6 10 0.1153 0.6327 
-12 6 11 4.8513 -0.2127 
-12 6 12 -0.9383 -0.7713 
-12 6 13 -24.4663 -0.1264 
-12 6 14 -19.5239 0.4572 
-12 6 15 -14.2502 0.1063 
-12 6 16 -6.1431 -0.2206 
-12 6 17 2.9331 -0.1933 
-12 6 18 16.3320 0.1953 
-12 6 19 -10.1821 -0.0847 
-12 6 20 -2.3232 -0.4280 
-12 6 21 11.9116 0.1713 
-12 6 22 21.1408 0.5234 
-12 6 23 16.0566 0.0644 
-12 6 24 1.6217 -0.1405 
-12 6 25 -1.3654 0.0462 
-12 8 1 -5.1133 0.3249 
-12 8 2 -24.1624 0.2529 
-12 8 3 -19.7644 -0.3218 
-12 8 4 52.5098 -0.2077 
-12 8 5 -15.5133 0.4096 
-12 8 6 -7.7155 -0.0810 
-12 8 7 8.6197 0.1174 
-12 8 8 -1.2077 -0.4494 
-12 8 9 -28.9853 0.5645 
-12 8 10 3.4496 -0.5510 
-12 8 11 -0.4678 0.5845 
-12 8 12 36.6445 -0.4764 
-12 8 13 11.3409 0.4890 
-12 8 14 -4.2397 -0.7013 
-12 8 15 17.7658 0.3250 
-12 8 16 -9.4745 -0.0770 
-12 8 17 -0.4521 0.2238 
-12 8 18 15.2221 -0.1594 
-12 8 19 -0.8043 0.0366 
-12 8 20 0.7384 -0.4410 
-12 8 21 8.2399 0.1727 
-12 8 22 16.0392 0.1770 
-12 8 23 5.7046 -0.0093 
-12 8 24 -0.3443 0.3859 
-12 8 25 10.2118 0.7785 
-12 10 1 -16.7197 -0.4659 
-12 10 2 -20.9844 0.0216 
-12 10 3 -11.0176 -0.2583 
-12 10 4 -10.4406 0.4859 
-12 10 5 -16.1082 0.0408 
-12 10 6 -3.3459 -0.0563 
-12 10 7 -6.0096 -0.0015 
-12 10 8 8.7031 0.3116 
-12 10 9 20.6954 0.0022 
-12 10 10 -1.7009 -0.2961 
-12 10 11 -2.1880 -0.0426 
-12 10 12 -49.1397 0.2324 
-12 10 13 7.8304 0.3305 
-12 10 14 -12.6475 -0.2412 
-12 10 15 19.1396 0.1554 
-12 10 16 21.5950 -0.2556 
-12 10 17 -3.7100 0.0544 
-12 10 18 15.1121 -0.4586 
-12 10 19 -17.8354 0.5024 
-12 10 20 0.5878 0.1841 
-12 10 21 2.3668 -0.1314 
-12 10 22 9.6952 -0.3821 
-12 10 23 -7.5099 -0.2506 
-12 10 24 -9.9616 0.5543 
-12 12 1 -19.1120 -0.0684 
-12 12 2 14.4034 -0.1409 
-12 12 3 -8.6928 -0.6239 
-12 12 4 19.4473 0.2649 
-12 12 5 -19.4241 -0.0560 
-12 12 6 6.3711 0.1972 
-12 12 7 -7.1668 0.1726 
-12 12 8 -27.5753 0.4171 
-12 12 9 -0.8458 -0.5632 
-12 12 10 1.9251 -0.4746 
-12 12 11 27.3294 0.0400 
-12 12 12 0.4884 0.4215 
-12 12 13 3.4058 0.1549 
-12 12 14 -5.0403 -0.1733 
-12 12 15 1.2439 -0.3499 
-12 12 16 -1.8589 0.2259 
-12 12 17 -12.2471 -0.0636 
-12 12 18 12.4519 -0.0946 
-12 12 19 -8.1272 -0.0867 
-12 12 20 -3.3024 0.2338 
-12 12 21 3.0354 0.0068 
-12 12 22 -2.9463 -0.2787 
-12 12 23 5.1886 0.3069 
-12 14 1 -32.1561 -0.0861 
-12 14 2 -2.2015 -0.1804 
-12 14 3 -20.5423 0.0583 
-12 14 4 16.8190 0.0989 
-12 14 5 7.4897 0.0964 
-12 14 6 6.9581 -0.2659 
-12 14 7 9.4460 0.0695 
-12 14 8 8.0189 0.1102 
-12 14 9 -6.3176 0.0716 
-12 14 10 -1.9915 -0.2587 
-12 14 11 -9.5702 0.2029 
-12 14 12 -13.6837 -0.0996 
-12 14 13 -11.9288 -0.0454 
-12 14 14 -1.7411 -0.0217 
-12 14 15 2.9786 0.0879 
-12 14 16 -3.3175 -0.0872 
-12 14 17 -3.2233 0.0007 
-12 14 18 2.7926 -0.0112 
-12 14 19 -3.4929 0.2358 
-12 14 20 -7.5757 0.1338 
-12 14 21 -8.2706 -0.1375 
-12 14 22 5.8142 -0.6565 
-12 16 1 -17.6758 0.1909 
-12 16 2 2.7106 0.0468 
-12 16 3 -10.9496 0.0730 
-12 16 4 15.4402 -0.3035 
-12 16 5 24.6688 0.1142 
-12 16 6 10.3360 -0.0872 
-12 16 7 -4.3183 -0.0505 
-12 16 8 8.2869 -0.1719 
-12 16 9 0.9092 0.3975 
-12 16 10 2.5447 -0.0260 
-12 16 11 0.0084 0.1162 
-12 16 12 -3.8134 -0.2486 
-12 16 13 3.7622 -0.1077 
-12 16 14 -3.3006 0.0085 
-12 16 15 2.6913 0.2431 
-12 16 16 1.6155 -0.0636 
-12 16 17 5.5827 0.0921 
-12 16 18 2.6675 0.0715 
-12 16 19 5.2427 -0.1491 
-12 16 20 7.9189 0.1050 
-12 16 21 -5.7889 0.2681 
-12 18 1 -0.0068 -0.0224 
-12 18 2 11.6539 0.3998 
-12 18 3 -0.9267 0.0824 
-12 18 4 -14.4262 -0.0062 
-12 18 5 -6.1921 -0.1171 
-12 18 6 7.5614 0.0644 
-12 18 7 -5.1944 -0.4865 
-12 18 8 15.0013 0.0645 
-12 18 9 2.8580 0.2294 
-12 18 10 -3.6177 0.4283 
-12 18 11 6.0343 -0.1746 
-12 18 12 -12.1662 -0.2080 
-12 18 13 2.1377 -0.1411 
-12 18 14 -12.7719 0.0201 
-12 18 15 6.3783 0.1483 
-12 18 16 2.1876 0.1063 
-12 18 17 -10.2585 -0.2277 
-12 18 18 -13.0515 0.4544 
-12 18 19 -4.3270 -0.3470 
-12 20 1 -9.9953 0.0986 
-12 20 2 -15.6003 0.0372 
-12 20 3 -21.0572 -0.0923 
-12 20 4 -9.8076 -0.0024 
-12 20 5 8.9865 -0.0720 
-12 20 6 1.9597 0.3027 
-12 20 7 0.3321 -0.3053 
-12 20 8 16.9464 0.2243 
-12 20 9 16.9057 -0.3046 
-12 20 10 3.6333 0.3805 
-12 20 11 -2.9042 -0.2742 
-12 20 12 7.1988 0.3736 
-12 20 13 -7.3029 -0.1533 
-12 20 14 6.9142 -0.0272 
-12 20 15 -4.5646 0.2014 
-12 20 16 8.5531 -0.2346 
-12 20 17 0.3696 0.3280 
-12 22 1 8.2743 0.1367 
-12 22 2 4.1363 -0.2943 
-12 22 3 4.8719 0.1723 
-12 22 4 -6.8426 -0.1317 
-12 22 5 -6.3847 0.0464 
-12 22 6 2.7893 -0.0269 
-12 22 7 -1.5111 0.1314 
-12 22 8 13.1880 -0.1710 
-12 22 9 -3.3211 -0.2528 
-12 22 10 0.6262 -0.0902 
-12 22 11 -2.2392 -0.0487 
-12 22 12 -6.5630 0.6153 
-12 22 13 0.0377 -0.1437 
-12 22 14 15.0190 -0.0432 
-12 22 15 4.3380 -0.5135 
-12 24 1 -5.0638 -0.2612 
-12 24 2 -3.9903 -0.1821 
-12 24 3 -3.8727 -0.1638 
-12 24 4 -2.5306 0.2634 
-12 24 5 -22.4903 -0.2668 
-12 24 6 4.6082 0.3841 
-12 24 7 6.9236 0.0148 
-12 24 8 -4.3384 0.1410 
-12 24 9 -4.4247 -0.5607 
-12 24 10 4.1754 0.0251 
-12 24 11 10.5953 -0.1637 
-11 1 1 67.5700 -0.2941 
-11 1 2 26.0866 -1.1724 
-11 1 3 -19.8092 0.5280 
-11 1 4 -74.8797 -1.0032 
-11 1 5 67.6440 1.1776 
-11 1 6 -148.3391 -0.3728 
-11 1 7 -1.4658 1.0855 
-11 1 8 -8.3977 -0.3349 
-11 1 9 -81.2079 -0.7230 
-11 1 10 -27.2578 -1.8894 
-11 1 11 0.0260 1.0011 
-11 1 12 -18.8208 1.9927 
-11 1 13 -7.0440 0.5024 
-11 1 14 -18.5299 -1.4553 
-11 1 15 12.2952 -0.1386 
-11 1 16 3.9204 -0.0812 
-11 1 17 -3.6016 -0.0697 
-11 1 18 -3.7969 -0.6500 
-11 1 19 -10.7906 0.9995 
-11 1 20 24.7339 1.1188 
-11 1 21 6.5993 -0.5432 
-11 1 22 16.9181 -1.2955 
-11 1 23 13.8773 -0.3475 
-11 1 24 3.8423 1.0025 
-11 1 25 -0.5972 0.7594 
-11 1 26 3.9543 -0.2154 
-11 3 1 125.7029 -0.7828 
-11 3 3 77.8724 0.1878 
-11 3 4 4.0248 0.2321 
-11 3 5 -103.7799 -0.6405 
-11 3 6 -27.5408 0.4271 
-11 3 7 -17.4852 -0.2657 
-11 3 8 -17.0756 0.5245 
-11 3 9 -126.3182 -0.2928 
-11 3 10 16.0697 -0.2025 
-11 3 11 9.8321 -0.5114 
-11 3 12 19.3978 0.6899 
-11 3 13 29.2884 -0.2883 
-11 3 14 -23.7943 -0.0525 
-11 3 15 -2.6237 -0.4509 
-11 3 16 4.2518 0.3708 
-11 3 17 -3.2296 -0.2727 
-11 3 18 17.2480 0.0561 
-11 3 19 -19.3414 -0.1121 
-11 3 20 11.5896 -0.0260 
-11 3 21 -6.0273 -0.1048 
-11 3 22 26.7416 0.3006 
-11 3 23 10.0873 -0.0187 
-11 3 24 -0.3514 0.2288 
-11 3 25 -3.4507 0.0825 
-11 3 26 -24.4395 0.0006 
-11 5 1 -10.5724 0.0683 
-11 5 2 -58.9912 0.0014 
-11 5 3 -45.5211 0.3946 
-11 5 4 -106.5451 0.1195 
-11 5 5 47.9230 0.0754 
-11 5 6 -20.2218 -0.1388 
-11 5 8 15.3609 0.2700 
-11 5 9 -52.0833 -0.1029 
-11 5 10 -5.6349 1.7886 
-11 5 11 -5.1018 -1.0575 
-11 5 12 -38.8519 -0.1802 
-11 5 13 -7.6310 -0.7248 
-11 5 14 17.9475 0.8914 
-11 5 15 7.0896 -0.0469 
-11 5 16 7.7109 0.1143 
-11 5 17 -17.4758 -0.3267 
-11 5 18 -14.2181 -0.0063 
-11 5 19 -7.4093 -0.2971 
-11 5 20 6.5154 -0.3895 
-11 5 21 -26.4977 0.4042 
-11 5 22 7.7619 0.6993 
-11 5 23 -1.1790 -0.0013 
-11 5 24 1.2418 -0.0023 
-11 5 25 10.9663 -0.4106 
-11 7 1 -52.2873 0.5453 
-11 7 2 -48.9335 0.6255 
-11 7 3 -68.7684 0.1353 
-11 7 4 67.3667 -0.2521 
-11 7 5 75.1761 -0.1977 
-11 7 6 -36.6664 -0.3115 
-11 7 7 12.7207 0.1819 
-11 7 8 -36.2776 0.1415 
-11 7 9 -14.4822 -0.0647 
-11 7 10 48.1739 0.3194 
-11 7 11 -9.5001 -0.1574 
-11 7 12 36.0144 -0.3676 
-11 7 13 -0.0996 -0.0918 
-11 7 14 -7.3799 0.3973 
-11 7 15 8.1814 -0.2217 
-11 7 16 -3.3976 -0.0219 
-11 7 17 11.7166 0.0059 
-11 7 18 -10.0458 0.1030 
-11 7 19 -9.5820 -0.2345 
-11 7 20 2.3201 -0.3795 
-11 7 21 -2.7255 0.2075 
-11 7 22 9.9463 0.4627 
-11 7 23 -4.5168 -0.0799 
-11 7 24 -3.8698 0.2763 
-11 7 25 9.3237 0.0158 
-11 9 1 17.0021 -0.1347 
-11 9 2 -59.0535 0.1702 
-11 9 3 8.9538 -0.2792 
-11 9 4 22.4029 0.3203 
-11 9 5 -25.1676 0.1269 
-11 9 6 26.3853 -0.0557 
-11 9 7 6.0037 -0.1719 
-11 9 8 -12.0856 0.1521 
-11 9 9 18.4400 -0.2367 
-11 9 10 13.5448 0.0568 
-11 9 11 -14.3071 0.3787 
-11 9 12 -6.3840 -0.0766 
-11 9 13 2.4543 -0.0583 
-11 9 14 -21.4722 -0.0328 
-11 9 15 14.8337 0.0590 
-11 9 16 -9.5225 -0.0330 
-11 9 17 -16.4244 -0.0873 
-11 9 18 -4.8558 -0.0031 
-11 9 19 -20.8553 0.1660 
-11 9 20 21.3698 0.0030 
-11 9 21 4.7068 0.0599 
-11 9 22 5.3185 -0.1715 
-11 9 23 -6.0280 -0.2706 
-11 9 24 -0.5172 -0.0735 
-11 11 1 -11.9763 -0.2107 
-11 11 2 -20.0408 0.2476 
-11 11 3 43.6534 -0.5030 
-11 11 4 -31.7262 0.0975 
-11 11 5 4.7853 -0.3225 
-11 11 6 -9.7778 0.4995 
-11 11 7 -23.6304 0.1667 
-11 11 8 -1.0500 0.4402 
-11 11 9 14.3281 -0.5717 
-11 11 10 5.2481 -0.5278 
-11 11 11 12.8625 0.0219 
-11 11 12 14.7111 0.7278 
-11 11 13 -6.5584 -0.0365 
-11 11 14 -2.1154 -0.1362 
-11 11 15 9.7958 -0.1813 
-11 11 16 4.8512 0.0954 
-11 11 17 -2.3486 -0.2541 
-11 11 18 11.5390 0.1617 
-11 11 19 -4.4532 -0.0017 
-11 11 20 -2.8332 0.1243 
-11 11 21 5.0850 -0.1975 
-11 11 22 8.8790 -0.4583 
-11 11 23 11.4214 0.4387 
-11 11 24 7.3926 0.5580 
-11 13 1 2.1419 -0.1455 
-11 13 2 -25.6703 -0.2114 
-11 13 3 22.0585 -0.2983 
-11 13 4 -25.3606 0.2140 
-11 13 5 16.1920 0.2290 
-11 13 6 12.9273 0.1896 
-11 13 7 -13.9930 -0.1957 
-11 13 8 4.2925 -0.1285 
-11 13 9 1.5750 0.0174 
-11 13 10 -4.8275 -0.0624 
-11 13 11 -16.0129 0.0039 
-11 13 12 23.3593 0.0676 
-11 13 13 -20.8040 -0.1095 
-11 13 14 -7.5537 -0.1802 
-11 13 15 -11.8212 0.1217 
-11 13 16 -10.3302 0.0182 
-11 13 17 -2.9347 -0.1287 
-11 13 18 -4.3569 -0.0717 
-11 13 19 -2.0007 0.0781 
-11 13 20 -0.2502 0.3996 
-11 13 21 -7.9260 -0.3643 
-11 13 22 -19.8405 -0.4095 
-11 13 23 -3.5282 -0.1135 
-11 15 1 -20.1267 0.0833 
-11 15 2 20.4348 0.0590 
-11 15 3 7.5656 0.1232 
-11 15 4 -6.9296 -0.4179 
-11 15 5 19.6929 0.0745 
-11 15 6 14.9407 0.0343 
-11 15 7 -16.6082 0.0849 
-11 15 8 20.4228 -0.0131 
-11 15 9 -21.1929 0.2518 
-11 15 10 -8.7891 -0.1743 
-11 15 11 17.6826 -0.0946 
-11 15 12 -19.2478 -0.1358 
-11 15 13 -10.9748 0.2981 
-11 15 14 -4.2000 -0.0848 
-11 15 15 10.7112 -0.0440 
-11 15 16 -0.6791 -0.0713 
-11 15 17 -0.7026 0.2001 
-11 15 18 -0.3034 0.0114 
-11 15 19 -0.3255 0.0653 
-11 15 20 2.9593 -0.0257 
-11 15 21 -12.2443 0.1236 
-11 17 1 -7.6375 0.0145 
-11 17 2 8.8998 0.2052 
-11 17 3 -11.3972 0.1615 
-11 17 4 -2.1104 -0.1314 
-11 17 5 10.3634 0.2731 
-11 17 6 19.2648 -0.2007 
-11 17 7 -16.1376 -0.3927 
-11 17 8 15.9874 -0.2663 
-11 17 9 -9.8712 0.6311 
-11 17 10 0.1918 0.3317 
-11 17 11 17.2972 -0.2257 
-11 17 12 -15.3856 -0.3751 
-11 17 13 9.1153 -0.0358 
-11 17 14 -9.1184 0.0116 
-11 17 15 -8.4999 0.1449 
-11 17 16 6.6364 -0.0250 
-11 17 17 -1.6149 0.2023 
-11 17 18 6.2428 -0.0188 
-11 17 19 -6.0792 -0.0781 
-11 17 20 6.2610 0.4069 
-11 19 1 -1.5906 0.2339 
-11 19 2 3.9278 0.1671 
-11 19 3 1.3670 0.1068 
-11 19 4 -1.8619 -0.2618 
-11 19 5 10.9696 -0.0055 
-11 19 6 -1.3466 -0.0852 
-11 19 7 0.0967 0.1260 
-11 19 8 -5.2795 -0.0210 
-11 19 9 -13.1081 0.1628 
-11 19 10 3.3507 0.0429 
-11 19 11 -5.0614 -0.2310 
-11 19 12 -3.0079 0.2147 
-11 19 13 -6.3806 -0.0374 
-11 19 14 3.3155 -0.1361 
-11 19 15 -4.3794 0.0056 
-11 19 16 -0.8897 0.0031 
-11 19 17 -0.5798 0.1452 
-11 19 18 6.8858 -0.6958 
-11 21 1 -10.4663 0.2544 
-11 21 2 -15.9317 -0.5353 
-11 21 3 -11.4858 0.3107 
-11 21 4 -6.0659 -0.1268 
-11 21 5 0.9912 0.3783 
-11 21 6 10.9898 -0.5002 
-11 21 7 -7.2075 0.3161 
-11 21 8 11.7485 -0.3393 
-11 21 9 -18.6132 0.2378 
-11 21 10 -4.1829 -0.3584 
-11 21 11 -20.0660 0.3155 
-11 21 12 7.9548 0.0337 
-11 21 13 6.3237 0.0959 
-11 21 14 5.6998 -0.2275 
-11 21 15 1.4778 -0.0358 
-11 21 16 12.0861 0.5118 
-11 23 1 8.4886 0.0575 
-11 23 2 2.0227 -0.2530 
-11 23 3 -1.5438 0.0502 
-11 23 4 -1.3482 -0.0351 
-11 23 5 7.0999 -0.0734 
-11 23 6 7.0215 0.0159 
-11 23 7 -24.9562 0.3324 
-11 23 8 17.2821 0.1923 
-11 23 9 25.6170 -0.4963 
-11 23 10 8.9573 -0.9483 
-11 23 11 -4.8188 0.9769 
-11 23 12 -15.7707 -0.0655 
-11 23 13 -0.9934 0.4803 
-11 25 1 -2.9973 -0.2933 
-11 25 2 -2.9574 -0.2366 
-11 25 3 -3.3031 -0.0485 
-11 25 4 9.6327 0.2834 
-11 25 5 1.4202 -0.3541 
-11 25 6 -1.1553 0.4794 
-11 25 7 13.5329 -0.2318 
-11 25 8 -10.0822 0.3579 
-11 25 9 9.7201 -0.8986 
-10 0 1 -243.5227 0.3664 
-10 0 2 -161.1341 -6.8528 
-10 0 4 195.7922 0.5907 
-10 0 5 27.6976 -0.8824 
-10 0 6 -56.8997 -3.3633 
-10 0 7 52.6427 4.7052 
-10 0 8 -88.2140 0.7964 
-10 0 9 -38.2341 -1.7567 
-10 0 10 -66.1351 -5.1460 
-10 0 11 -96.7214 2.8834 
-10 0 12 -1.4925 3.1991 
-10 0 13 -1.5518 1.6773 
-10 0 14 -7.8948 -2.1637 
-10 0 15 -26.5890 0.0598 
-10 0 16 -29.8120 -2.1743 
-10 0 17 1.6388 -0.1933 
-10 0 18 -10.2833 0.5674 
-10 0 19 -10.1843 3.6062 
-10 0 20 22.0194 -0.0825 
-10 0 21 -7.5355 -1.8502 
-10 0 22 10.2265 -2.0566 
-10 0 23 16.2794 0.5762 
-10 0 24 0.8856 1.6297 
-10 0 25 7.9155 0.6709 
-10 0 26 4.6570 0.0742 
-10 2 1 -15.4769 -0.6821 
-10 2 2 -29.0804 -1.5229 
-10 2 3 -243.3049 -0.2319 
-10 2 4 89.1795 0.4565 
-10 2 5 -40.2464 0.9257 
-10 2 6 -115.8174 -0.8223 
-10 2 7 -77.7763 1.8783 
-10 2 8 11.7106 -1.1166 
-10 2 9 -38.2729 -0.9336 
-10 2 10 -1.1516 -1.2420 
-10 2 11 -26.0913 2.6925 
-10 2 12 -15.0974 0.5191 
-10 2 13 -5.2903 -0.7340 
-10 2 14 -3.3007 -1.4355 
-10 2 15 -2.0897 1.0843 
-10 2 16 18.6838 -0.1866 
-10 2 17 9.0844 -0.3616 
-10 2 18 -5.0589 -0.3827 
-10 2 19 -9.4276 0.7037 
-10 2 20 11.2563 0.0114 
-10 2 21 0.6157 -0.2216 
-10 2 22 4.7791 -0.0075 
-10 2 23 -2.6581 -0.1984 
-10 2 24 -2.7952 0.1456 
-10 2 25 8.3286 0.1906 
-10 2 26 -0.8461 0.3457 
-10 4 1 -63.8056 -0.9121 
-10 4 2 -49.8260 0.8514 
-10 4 3 -153.2610 0.1705 
-10 4 4 45.1600 0.8287 
-10 4 5 40.8185 -0.6769 
-10 4 6 95.4637 -0.8094 
-10 4 7 -63.5020 -0.1093 
-10 4 8 -24.9212 0.8011 
-10 4 9 -73.7503 0.5393 
-10 4 10 22.9492 -0.3689 
-10 4 11 -6.4749 0.0590 
-10 4 12 10.5082 -0.5685 
-10 4 13 -17.2948 0.0338 
-10 4 14 -9.3562 0.3162 
-10 4 15 -13.4748 0.3151 
-10 4 16 2.7582 -0.3763 
-10 4 17 -0.8784 -0.5588 
-10 4 18 -11.4590 0.4351 
-10 4 19 -4.5478 0.1477 
-10 4 20 8.5568 -0.5878 
-10 4 21 3.1935 0.0738 
-10 4 22 17.4931 0.5685 
-10 4 23 -8.4683 0.1562 
-10 4 24 0.6598 0.0613 
-10 4 25 10.5910 0.1366 
-10 6 1 -114.6314 0.7802 
-10 6 2 3.8983 0.2210 
-10 6 3 -0.7090 0.0875 
-10 6 4 -7.5358 -0.4243 
-10 6 5 -18.3491 0.2992 
-10 6 6 -97.6067 -0.0892 
-10 6 7 -24.6681 -0.2705 
-10 6 8 18.4176 -0.3286 
-10 6 9 -26.1903 0.8290 
-10 6 10 38.9504 0.0927 
-10 6 11 -28.8819 0.0867 
-10 6 12 -14.9043 -0.7878 
-10 6 13 -5.9100 -0.0366 
-10 6 14 -6.5832 0.0770 
-10 6 15 10.5673 0.4691 
-10 6 16 5.1505 0.1119 
-10 6 17 18.4338 -0.1143 
-10 6 18 3.3576 -0.1363 
-10 6 19 -1.3992 -0.3881 
-10 6 20 6.5417 -0.3494 
-10 6 21 7.5403 0.3865 
-10 6 22 16.4892 0.8015 
-10 6 23 13.9064 0.0464 
-10 6 24 5.8434 -0.1290 
-10 6 25 11.2849 -0.1203 
-10 8 1 -62.8146 0.2224 
-10 8 2 2.2971 0.6080 
-10 8 3 -59.2213 0.6830 
-10 8 4 32.6427 -0.5702 
-10 8 5 -38.9298 0.2450 
-10 8 6 40.6452 -0.4003 
-10 8 7 14.1813 0.0171 
-10 8 8 -18.8007 -0.1520 
-10 8 9 1.2960 0.7062 
-10 8 10 13.6457 -0.2948 
-10 8 11 12.7164 0.0688 
-10 8 12 6.9565 -0.6586 
-10 8 13 12.0832 0.7567 
-10 8 14 -22.1463 -0.3580 
-10 8 15 10.3763 0.1588 
-10 8 16 -1.4317 -0.4050 
-10 8 17 4.7051 0.2504 
-10 8 18 10.9232 0.0143 
-10 8 19 -7.1263 0.0075 
-10 8 20 10.7152 0.1390 
-10 8 21 -1.7745 0.0227 
-10 8 22 13.0712 0.1811 
-10 8 23 -1.2158 -0.2272 
-10 8 24 -28.1131 -0.1480 
-10 8 25 10.3265 0.2851 
-10 10 1 -40.7834 -0.1015 
-10 10 2 -0.2774 0.1015 
-10 10 3 -23.6190 -0.6218 
-10 10 4 -10.8220 0.0236 
-10 10 5 1.4002 0.1914 
-10 10 6 18.2348 0.3867 
-10 10 7 -0.2021 0.0544 
-10 10 8 11.3876 -0.0691 
-10 10 9 15.4812 -0.6931 
-10 10 10 -22.9540 0.1818 
-10 10 11 1.5444 0.0202 
-10 10 12 -8.1254 0.5745 
-10 10 13 27.9734 -0.0819 
-10 10 14 -14.4071 -0.2807 
-10 10 15 8.6120 -0.1034 
-10 10 16 4.0225 0.0797 
-10 10 17 -11.4178 0.3511 
-10 10 18 8.5362 -0.4098 
-10 10 19 -7.4868 0.1979 
-10 10 20 4.1103 0.0823 
-10 10 21 -2.5604 0.1750 
-10 10 22 8.1233 -0.4599 
-10 10 23 4.1427 0.0241 
-10 10 24 -7.6433 0.4231 
-10 12 1 -25.0478 -0.3376 
-10 12 2 21.7247 0.0082 
-10 12 3 -14.1551 -0.0565 
-10 12 4 -16.5391 0.4058 
-10 12 5 27.2979 -0.3139 
-10 12 6 -32.2698 0.3673 
-10 12 7 -11.7794 -0.2087 
-10 12 8 2.1398 0.3557 
-10 12 9 1.6502 -0.4688 
-10 12 10 -14.2702 0.0071 
-10 12 11 1.7992 -0.0843 
-10 12 12 11.3681 0.3212 
-10 12 13 -24.8329 -0.2312 
-10 12 14 -5.8513 0.1385 
-10 12 15 5.7377 -0.2893 
-10 12 16 4.8053 0.0701 
-10 12 17 -2.8161 -0.1754 
-10 12 18 -1.5317 0.1977 
-10 12 19 -4.2026 0.1267 
-10 12 20 -7.4551 -0.0220 
-10 12 21 5.8146 -0.1192 
-10 12 22 11.8679 -0.8906 
-10 12 23 19.5058 0.3434 
-10 14 1 -23.3287 0.0182 
-10 14 2 22.6407 -0.2461 
-10 14 3 -3.9244 -0.0971 
-10 14 4 -14.9625 -0.1059 
-10 14 5 12.1844 0.0086 
-10 14 6 6.2603 0.4293 
-10 14 7 -11.9031 -0.0927 
-10 14 8 -11.6055 -0.0206 
-10 14 9 -3.4074 -0.1508 
-10 14 10 -11.4862 0.0704 
-10 14 11 -14.6385 -0.0398 
-10 14 12 19.3358 0.1058 
-10 14 13 -10.1277 -0.0333 
-10 14 14 -11.9930 -0.1156 
-10 14 15 -0.4550 0.0677 
-10 14 16 -6.0393 0.0614 
-10 14 17 -1.1464 -0.0829 
-10 14 18 -3.7900 0.0244 
-10 14 19 2.2103 -0.0213 
-10 14 20 -3.7722 0.1198 
-10 14 21 8.0017 0.0213 
-10 14 22 16.8212 0.0528 
-10 16 1 -5.2681 -0.0309 
-10 16 2 4.8189 0.2639 
-10 16 3 5.1006 0.1433 
-10 16 4 -12.8706 -0.0781 
-10 16 5 11.3087 -0.1578 
-10 16 6 8.8041 -0.0144 
-10 16 7 -6.9000 -0.1560 
-10 16 8 -4.6044 0.0080 
-10 16 9 -12.2827 0.3241 
-10 16 10 1.8018 0.2662 
-10 16 11 -3.4911 -0.3637 
-10 16 12 -3.9033 -0.1672 
-10 16 13 -1.4980 0.0866 
-10 16 14 -15.0827 0.0274 
-10 16 15 -1.1195 0.1932 
-10 16 16 4.7687 -0.0864 
-10 16 17 -6.6039 0.0599 
-10 16 18 -0.5193 -0.0456 
-10 16 19 -12.3835 0.2524 
-10 16 20 -4.1385 -0.0716 
-10 16 21 -8.1227 -0.6246 
-10 18 1 20.7816 -0.0244 
-10 18 2 -3.7810 0.3039 
-10 18 3 6.3578 -0.2155 
-10 18 4 3.3957 0.0528 
-10 18 5 5.8552 -0.0846 
-10 18 6 8.3599 0.1258 
-10 18 7 -12.3101 -0.2774 
-10 18 8 -3.0228 0.0545 
-10 18 9 6.6836 0.2060 
-10 18 10 1.4622 0.2667 
-10 18 11 8.0773 -0.2673 
-10 18 12 -8.2081 -0.0109 
-10 18 13 -6.0465 -0.1104 
-10 18 14 5.5774 0.1494 
-10 18 15 -5.3893 -0.1817 
-10 18 16 -8.9553 0.0907 
-10 18 17 -3.9167 -0.1672 
-10 18 18 7.3337 -0.0235 
-10 18 19 -1.9208 0.6031 
-10 20 1 13.2371 -0.0287 
-10 20 2 -8.9119 0.1438 
-10 20 3 -2.2458 0.0444 
-10 20 4 7.3318 -0.1483 
-10 20 5 6.3530 0.0157 
-10 20 6 1.8830 -0.2036 
-10 20 7 -10.8711 0.0195 
-10 20 8 0.3435 0.0239 
-10 20 9 3.5120 0.1753 
-10 20 10 4.6774 -0.0037 
-10 20 11 -7.6830 -0.0440 
-10 20 12 11.4421 0.1583 
-10 20 13 -25.5733 -0.0129 
-10 20 14 -6.0325 -0.0400 
-10 20 15 -14.0403 -0.2549 
-10 20 16 -12.7231 0.3140 
-10 20 17 6.5192 -0.1840 
-10 20 18 -11.2941 0.0036 
-10 22 1 -15.8917 -0.0488 
-10 22 2 -10.2405 -0.3175 
-10 22 3 0.5749 0.1988 
-10 22 4 -0.5540 -0.1138 
-10 22 5 -7.7844 0.3034 
-10 22 6 9.6959 -0.3149 
-10 22 7 -12.5794 0.3700 
-10 22 8 13.7339 -0.1166 
-10 22 9 -22.1451 -0.0638 
-10 22 10 4.0996 -0.4712 
-10 22 11 3.5617 0.3102 
-10 22 12 4.9079 0.0922 
-10 22 13 3.9496 0.2171 
-10 22 14 14.5271 -0.2245 
-10 22 15 -4.5140 0.2000 
-10 24 1 -7.3212 0.1858 
-10 24 2 -0.6404 -0.3640 
-10 24 3 16.1359 0.1820 
-10 24 4 -1.4454 0.0092 
-10 24 5 -21.9273 -0.0034 
-10 24 6 9.9497 -0.1136 
-10 24 7 3.0358 0.1702 
-10 24 8 -1.7709 0.2122 
-10 24 9 1.9421 -0.2923 
-10 24 10 10.4432 -0.4355 
-10 24 11 15.6702 0.4972 
-10 24 12 -7.7447 0.2361 
-10 26 1 -5.7928 0.2244 
-10 26 2 -3.5154 -0.5010 
-10 26 3 6.1983 0.2960 
-10 26 4 5.1174 -0.2671 
-10 26 5 3.3280 0.1983 
-10 26 6 -2.5900 -0.0567 
-9 1 1 85.6021 -3.4122 
-9 1 2 -31.0603 -1.3053 
-9 1 3 -25.5547 0.5990 
-9 1 4 -8.2760 -0.2763 
-9 1 5 408.9957 0.0101 
-9 1 6 120.7532 0.2992 
-9 1 7 19.2666 2.6121 
-9 1 8 -78.5059 -2.1933 
-9 1 9 -81.2945 -1.5851 
-9 1 10 2.9386 -1.7918 
-9 1 11 -69.9572 2.9401 
-9 1 12 -14.8490 1.3025 
-9 1 13 -52.1159 0.4768 
-9 1 14 -25.6216 -1.8211 
-9 1 15 -3.7983 -0.1103 
-9 1 16 12.4699 -0.1462 
-9 1 17 13.5098 0.1257 
-9 1 18 -3.4768 0.1625 
-9 1 19 -12.2857 0.9360 
-9 1 20 3.8659 0.3330 
-9 1 21 -9.9648 -0.3775 
-9 1 22 8.1422 -1.2553 
-9 1 23 16.0406 0.1013 
-9 1 24 11.1845 0.7029 
-9 1 25 2.6630 0.5750 
-9 1 26 4.9335 0.1366 
-9 3 2 -121.8129 0.4623 
-9 3 3 -25.2375 -0.8216 
-9 3 4 92.7221 1.4742 
-9 3 5 -135.5201 -0.8134 
-9 3 6 -11.3145 0.4692 
-9 3 7 -23.0322 -0.8095 
-9 3 8 -19.6313 0.1581 
-9 3 9 -4.4433 0.3744 
-9 3 10 -1.0396 0.2313 
-9 3 11 -12.5182 0.0879 
-9 3 12 16.6804 -0.4807 
-9 3 13 -0.4968 0.1901 
-9 3 14 18.8676 0.3923 
-9 3 15 13.4180 -0.3253 
-9 3 16 8.2021 -0.0661 
-9 3 17 -5.2987 -0.6352 
-9 3 18 3.5645 0.4015 
-9 3 19 2.5542 -0.0363 
-9 3 20 6.0752 0.0799 
-9 3 21 -8.6524 0.0313 
-9 3 22 10.1994 0.0607 
-9 3 23 -5.0253 0.0223 
-9 3 24 15.1317 0.1940 
-9 3 25 8.5708 0.0807 
-9 5 1 -104.8606 0.5671 
-9 5 2 -12.6580 0.9361 
-9 5 3 31.1102 -0.8747 
-9 5 4 -53.6778 -0.2147 
-9 5 5 12.9168 -0.1497 
-9 5 6 -17.1525 0.1318 
-9 5 7 -68.8653 -0.6853 
-9 5 8 38.2456 1.0356 
-9 5 9 -35.1021 -0.2308 
-9 5 10 14.6736 0.7958 
-9 5 11 7.8438 -1.0705 
-9 5 12 -19.6733 0.0595 
-9 5 13 -24.1394 -0.3633 
-9 5 14 -9.6555 0.5422 
-9 5 15 -9.9029 -0.1146 
-9 5 16 -16.4927 0.1773 
-9 5 17 9.8704 -0.0561 
-9 5 18 6.6375 0.1394 
-9 5 19 1.6079 -0.4693 
-9 5 20 5.7916 -0.3512 
-9 5 21 -15.4333 0.4261 
-9 5 22 12.4160 0.7091 
-9 5 23 1.0621 -0.0889 
-9 5 24 10.9302 0.1572 
-9 5 25 -11.2435 0.1955 
-9 7 1 -21.9343 0.8310 
-9 7 2 -18.9332 0.3445 
-9 7 3 0.3211 0.1570 
-9 7 4 -81.0223 -0.1658 
-9 7 5 37.0740 0.7034 
-9 7 6 -92.4687 -0.9222 
-9 7 7 6.3255 -0.4277 
-9 7 8 25.2667 0.2568 
-9 7 9 -68.3360 1.1140 
-9 7 10 -2.1637 -0.1684 
-9 7 11 -26.2765 -0.3581 
-9 7 12 15.1362 -0.3750 
-9 7 13 4.6674 -0.0971 
-9 7 14 -9.3682 0.2311 
-9 7 15 10.3560 0.1430 
-9 7 16 -15.4449 -0.0362 
-9 7 17 12.8121 -0.2246 
-9 7 18 -10.8886 0.0756 
-9 7 19 -13.4166 -0.1367 
-9 7 20 3.9386 -0.0182 
-9 7 21 -28.8203 0.2246 
-9 7 22 9.1627 0.5175 
-9 7 23 1.6387 -0.0433 
-9 7 24 18.9045 -0.3231 
-9 7 25 3.7812 0.1250 
-9 9 1 -16.7090 0.2902 
-9 9 2 -4.1005 -0.0839 
-9 9 3 -33.1635 0.0471 
-9 9 4 6.3040 -0.3493 
-9 9 5 -11.6302 0.1792 
-9 9 6 -26.2343 0.2025 
-9 9 7 -1.1350 0.1065 
-9 9 8 -22.5209 -0.0736 
-9 9 9 -7.2110 -0.2083 
-9 9 10 26.2311 -0.4094 
-9 9 11 2.4586 0.2143 
-9 9 12 -5.4592 0.5209 
-9 9 13 -8.1983 -0.1022 
-9 9 14 1.6514 -0.4082 
-9 9 15 1.1652 -0.0415 
-9 9 16 -1.5275 0.1452 
-9 9 17 -6.7666 0.0274 
-9 9 18 -6.9560 -0.0821 
-9 9 19 -16.9574 0.0044 
-9 9 20 13.4865 0.1449 
-9 9 21 -16.0656 0.0487 
-9 9 22 5.8009 0.1837 
-9 9 23 -12.0738 0.0651 
-9 9 24 -5.1680 0.3539 
-9 11 1 53.8787 -0.3983 
-9 11 2 7.8303 -0.5789 
-9 11 3 -44.6099 0.3836 
-9 11 4 -46.9531 0.4560 
-9 11 5 -11.3583 -0.2091 
-9 11 6 -31.3960 0.1696 
-9 11 7 6.0799 -0.2073 
-9 11 8 3.1758 0.0873 
-9 11 9 -7.1618 -0.4637 
-9 11 10 13.5740 0.2829 
-9 11 11 -17.7343 -0.1345 
-9 11 12 9.4443 0.4108 
-9 11 13 5.7913 -0.2553 
-9 11 14 6.7467 -0.0781 
-9 11 15 -2.8610 -0.2409 
-9 11 16 -5.9069 0.3671 
-9 11 17 -7.1103 -0.3149 
-9 11 18 0.2467 0.1766 
-9 11 19 -1.5473 0.1109 
-9 11 20 -7.8601 0.1801 
-9 11 21 8.2137 -0.2575 
-9 11 22 7.9084 -0.5187 
-9 11 23 -5.9724 -0.0135 
-9 13 1 27.3805 -0.2651 
-9 13 2 -18.1826 -0.2158 
-9 13 3 17.9654 0.3767 
-9 13 4 8.9875 -0.2793 
-9 13 5 -20.5584 -0.1142 
-9 13 6 4.5140 0.4306 
-9 13 7 -37.3132 0.4864 
-9 13 8 -9.0933 -0.2050 
-9 13 9 -4.4199 -0.6521 
-9 13 10 -6.7439 0.1069 
-9 13 11 -11.3743 0.1797 
-9 13 12 7.1487 0.2329 
-9 13 13 -19.7363 -0.0684 
-9 13 14 -12.6139 -0.1387 
-9 13 15 -9.5527 -0.2321 
-9 13 16 5.1389 0.2060 
-9 13 17 -0.2668 -0.0648 
-9 13 18 -9.5434 0.0950 
-9 13 19 7.4936 -0.0978 
-9 13 20 0.9144 0.2524 
-9 13 21 5.4289 -0.2724 
-9 13 22 -17.0988 -0.1887 
-9 13 23 -9.6464 -0.3715 
-9 15 1 -15.3056 -0.1600 
-9 15 2 13.5618 0.0243 
-9 15 3 -23.6072 0.1885 
-9 15 4 2.0440 -0.0195 
-9 15 5 14.3804 -0.0998 
-9 15 6 10.2734 -0.1499 
-9 15 7 2.5350 0.1132 
-9 15 8 -29.7780 -0.2677 
-9 15 9 3.0146 0.2715 
-9 15 10 -24.0623 0.2751 
-9 15 11 4.5498 -0.1337 
-9 15 12 -8.1226 -0.4113 
-9 15 13 -0.6330 0.0305 
-9 15 14 2.7626 0.3655 
-9 15 15 -16.2446 0.1477 
-9 15 16 -9.2982 -0.1575 
-9 15 17 -5.3636 0.0325 
-9 15 18 0.9425 -0.0756 
-9 15 19 -3.6817 0.3303 
-9 15 20 -22.4202 -0.3029 
-9 15 21 -12.8803 -0.3731 
-9 17 1 -11.0910 0.2227 
-9 17 2 34.1823 0.3326 
-9 17 3 -1.8549 -0.2756 
-9 17 4 -3.8310 -0.1310 
-9 17 5 -0.4104 -0.1674 
-9 17 6 -4.3831 0.2650 
-9 17 7 2.2214 0.0255 
-9 17 8 -11.2976 -0.1869 
-9 17 9 10.5808 0.2161 
-9 17 10 -2.1654 0.0947 
-9 17 11 0.0927 -0.1198 
-9 17 12 7.1037 -0.2243 
-9 17 13 -2.7442 0.1303 
-9 17 14 -9.5432 0.1591 
-9 17 15 -4.0674 -0.0773 
-9 17 16 16.2968 -0.0306 
-9 17 17 3.5212 -0.0499 
-9 17 18 2.2128 0.0398 
-9 17 19 -6.0682 0.3709 
-9 17 20 8.6529 0.0066 
-9 19 1 -9.3080 0.0856 
-9 19 2 -10.0252 0.1133 
-9 19 3 15.1520 -0.0672 
-9 19 4 -7.5930 0.0490 
-9 19 5 -14.4987 -0.0217 
-9 19 6 3.5737 -0.2235 
-9 19 7 -1.5782 -0.3457 
-9 19 8 2.0523 0.1042 
-9 19 9 -1.3529 0.3431 
-9 19 10 4.0855 0.1421 
-9 19 11 -7.2209 -0.1597 
-9 19 12 15.0590 -0.1373 
-9 19 13 -26.9751 0.0937 
-9 19 14 -5.7288 0.1143 
-9 19 15 -4.7682 -0.0419 
-9 19 16 -1.6734 -0.0391 
-9 19 17 8.7674 -0.2515 
-9 19 18 0.0240 0.3157 
-9 19 19 9.3581 -0.4697 
-9 21 1 -2.0183 0.1603 
-9 21 2 4.3193 -0.0833 
-9 21 3 4.0752 -0.0598 
-9 21 4 -4.6489 -0.2312 
-9 21 5 -6.0532 0.3239 
-9 21 6 9.3611 -0.2209 
-9 21 7 -18.6285 0.1400 
-9 21 8 8.4439 -0.0870 
-9 21 9 -11.1943 0.1283 
-9 21 10 -3.8412 -0.3924 
-9 21 11 5.2854 0.3121 
-9 21 12 19.4804 0.0430 
-9 21 13 -3.2912 0.2430 
-9 21 14 5.6319 -0.1958 
-9 21 15 -14.1269 -0.2287 
-9 21 16 0.1734 0.0970 
-9 23 1 5.1397 -0.4068 
-9 23 2 13.5403 0.0590 
-9 23 3 4.6304 -0.0279 
-9 23 4 -11.0951 0.3417 
-9 23 5 -2.2112 0.0370 
-9 23 6 -2.5076 -0.2581 
-9 23 7 -9.7571 0.0712 
-9 23 8 17.7386 -0.0014 
-9 23 9 5.9115 0.2228 
-9 23 10 -1.7958 -0.4985 
-9 23 11 2.0962 0.4716 
-9 23 12 -10.3784 -0.0721 
-9 23 13 -9.6992 0.2414 
-9 23 14 5.5256 -1.0094 
-9 25 1 14.2176 -0.1993 
-9 25 2 -9.7695 -0.0105 
-9 25 3 3.0189 -0.1944 
-9 25 4 2.6998 0.2573 
-9 25 5 -2.2657 -0.1792 
-9 25 6 6.3153 0.0621 
-9 25 7 18.6940 0.1940 
-9 25 8 -3.0287 0.0747 
-9 25 9 0.8508 -0.5068 
-9 25 10 -1.2206 -0.4539 
-8 0 1 126.1979 0.7755 
-8 0 2 155.7354 -6.5299 
-8 0 3 284.4107 -0.2309 
-8 0 4 -105.1057 -0.7047 
-8 0 5 -586.4164 4.7791 
-8 0 7 145.7717 -0.6178 
-8 0 8 -52.3650 -3.1773 
-8 0 9 21.3114 -2.0606 
-8 0 10 -29.0661 -0.3410 
-8 0 11 -98.9282 4.1990 
-8 0 12 7.9496 1.4819 
-8 0 13 -99.3102 -1.7256 
-8 0 14 -16.5653 -3.8110 
-8 0 15 -20.9374 2.0164 
-8 0 16 -10.2651 1.0274 
-8 0 17 30.2596 -0.2975 
-8 0 18 10.7207 -2.1227 
-8 0 19 -14.7524 2.4280 
-8 0 20 -7.0851 1.2768 
-8 0 21 14.0876 -0.3837 
-8 0 22 10.1715 -2.6340 
-8 0 23 12.7979 0.7344 
-8 0 24 3.3733 1.0069 
-8 0 25 1.2245 0.6402 
-8 0 26 0.8918 -0.6420 
-8 2 1 -86.5742 -0.9386 
-8 2 3 -197.0752 0.4020 
-8 2 4 53.6411 -0.8276 
-8 2 5 -87.8439 1.1085 
-8 2 6 84.9325 -0.9503 
-8 2 7 -39.5566 0.6619 
-8 2 8 -45.2655 0.4513 
-8 2 9 -51.4961 0.0601 
-8 2 10 -15.8362 -2.0163 
-8 2 11 36.9067 0.6131 
-8 2 12 -6.9590 1.3040 
-8 2 13 -18.0528 0.9058 
-8 2 14 -2.0988 -1.5390 
-8 2 15 -17.3444 -0.2453 
-8 2 16 -29.7871 -0.1596 
-8 2 17 -15.6444 0.1270 
-8 2 18 4.3826 0.0198 
-8 2 19 -3.1706 0.9154 
-8 2 20 -14.2776 -0.0850 
-8 2 21 -17.7034 -0.5640 
-8 2 22 -0.3103 -0.6788 
-8 2 23 3.6138 0.8627 
-8 2 24 4.4517 0.4537 
-8 2 25 2.5576 -0.2252 
-8 4 1 -31.6622 0.0167 
-8 4 2 180.1406 -0.1661 
-8 4 3 -233.5483 -0.6578 
-8 4 4 -42.6594 -0.3255 
-8 4 5 -161.9691 0.8639 
-8 4 6 38.2130 0.0853 
-8 4 7 -88.2575 -1.1528 
-8 4 8 79.7785 0.3411 
-8 4 9 -80.6091 0.8490 
-8 4 10 -42.1376 0.1515 
-8 4 11 13.0179 -0.6257 
-8 4 12 -34.1724 -0.0542 
-8 4 13 18.7229 -0.0964 
-8 4 14 1.7701 0.0153 
-8 4 15 -6.6738 0.1241 
-8 4 16 -14.9368 0.4336 
-8 4 17 10.2370 -0.3853 
-8 4 18 -9.0878 -0.5481 
-8 4 19 -7.2265 -0.0973 
-8 4 20 2.7958 0.2420 
-8 4 21 -0.5023 0.4258 
-8 4 22 24.6289 0.2656 
-8 4 23 -9.5252 -0.1617 
-8 4 24 7.0255 -0.0105 
-8 4 25 5.2128 0.1061 
-8 6 1 96.0959 1.0204 
-8 6 2 37.9203 0.9527 
-8 6 3 -85.4145 -0.1357 
-8 6 4 22.5280 -0.5638 
-8 6 5 37.5097 -0.0297 
-8 6 6 -21.4348 -0.7282 
-8 6 7 -13.0680 0.1120 
-8 6 8 39.9342 0.1260 
-8 6 9 -96.4583 1.3050 
-8 6 10 40.5026 -0.2041 
-8 6 11 0.1579 -0.8148 
-8 6 12 -25.0969 -0.3902 
-8 6 13 10.5396 0.4060 
-8 6 14 3.7444 0.2886 
-8 6 15 8.6687 -0.3245 
-8 6 16 -5.8919 -0.1587 
-8 6 17 3.5216 0.1353 
-8 6 18 -0.4765 0.1687 
-8 6 19 -0.5574 -0.1522 
-8 6 20 -5.1529 -0.3013 
-8 6 21 -9.5619 0.3619 
-8 6 22 12.6860 0.3525 
-8 6 23 -8.8806 0.0055 
-8 6 24 12.5606 -0.0612 
-8 6 25 1.6482 0.1952 
-8 8 1 64.2574 0.4121 
-8 8 2 51.7690 -0.5425 
-8 8 3 -106.1390 -0.0056 
-8 8 4 81.8853 0.0210 
-8 8 5 -14.6442 0.4979 
-8 8 6 -37.6621 -0.2832 
-8 8 7 24.3201 0.1875 
-8 8 8 3.3019 -0.5243 
-8 8 9 23.7338 0.4753 
-8 8 10 -37.1404 -0.2266 
-8 8 11 -20.8181 0.5504 
-8 8 12 -17.3884 -0.6539 
-8 8 13 -3.4111 0.1889 
-8 8 14 -0.6606 -0.2477 
-8 8 15 -23.6525 0.4108 
-8 8 16 2.3441 -0.1735 
-8 8 17 -7.6295 0.0339 
-8 8 18 -3.2948 -0.1300 
-8 8 19 -14.9667 -0.3406 
-8 8 20 -5.1417 0.0385 
-8 8 21 -16.8368 0.4519 
-8 8 22 -0.9782 0.1419 
-8 8 23 -13.0156 0.1996 
-8 8 24 -6.3863 0.2032 
-8 10 1 13.6840 -0.4529 
-8 10 2 55.2674 -0.1146 
-8 10 3 -68.7476 0.5224 
-8 10 4 23.5351 0.0228 
-8 10 5 -42.5722 -0.3307 
-8 10 6 30.4071 -0.0919 
-8 10 7 -0.3190 0.2080 
-8 10 8 -36.7829 0.0755 
-8 10 9 32.7909 -0.5477 
-8 10 10 -6.4448 -0.0221 
-8 10 11 -6.5074 0.1912 
-8 10 12 21.3309 0.2151 
-8 10 13 14.8436 -0.1151 
-8 10 14 -10.3870 -0.2484 
-8 10 15 -18.1778 0.1164 
-8 10 16 -0.5042 -0.2557 
-8 10 17 -11.9028 0.2968 
-8 10 18 -3.0882 -0.0521 
-8 10 19 -4.5298 0.2807 
-8 10 20 2.1368 -0.3482 
-8 10 21 -5.5637 -0.0421 
-8 10 22 -10.4336 0.0539 
-8 10 23 -12.6718 -0.1469 
-8 10 24 0.9132 0.6909 
-8 12 1 51.4811 -0.5529 
-8 12 2 14.7313 -0.5028 
-8 12 3 2.2336 0.2424 
-8 12 4 -62.9309 0.1948 
-8 12 5 -11.4982 0.0819 
-8 12 6 4.8091 0.2981 
-8 12 7 -8.5761 0.2441 
-8 12 8 5.8579 -0.3141 
-8 12 9 -4.4533 -0.6023 
-8 12 10 -6.5930 0.2082 
-8 12 11 -34.3139 0.3514 
-8 12 12 18.2434 0.2143 
-8 12 13 -6.6962 -0.3144 
-8 12 14 9.4616 -0.0885 
-8 12 15 6.2323 -0.0253 
-8 12 16 -8.4537 0.0729 
-8 12 17 7.5161 -0.0917 
-8 12 18 -14.8646 -0.0154 
-8 12 19 -3.4568 0.2546 
-8 12 20 10.4069 -0.0098 
-8 12 21 -4.3499 -0.0782 
-8 12 22 -6.5089 -0.2197 
-8 12 23 -12.9570 -0.3185 
-8 14 1 -32.7812 -0.1219 
-8 14 2 6.2597 0.0525 
-8 14 3 40.8719 0.3487 
-8 14 4 -12.5080 -0.1404 
-8 14 5 10.1875 -0.1055 
-8 14 6 6.3598 -0.2067 
-8 14 7 -12.9381 0.5544 
-8 14 8 -5.3443 -0.2103 
-8 14 9 -3.8595 -0.0727 
-8 14 10 -20.9450 0.0095 
-8 14 11 -17.5831 -0.0885 
-8 14 12 14.2994 -0.0030 
-8 14 13 -5.4708 0.1091 
-8 14 14 -15.8989 0.0359 
-8 14 15 -2.2903 -0.0435 
-8 14 16 -4.1275 0.0316 
-8 14 17 8.6590 0.0186 
-8 14 18 -12.4105 -0.0121 
-8 14 19 -9.8468 0.1432 
-8 14 20 -0.3457 -0.0254 
-8 14 21 -14.9847 -0.4731 
-8 14 22 0.1070 -0.3667 
-8 16 1 -23.4803 0.1545 
-8 16 2 8.6364 0.0610 
-8 16 3 -1.6443 -0.2445 
-8 16 4 -0.4605 0.0705 
-8 16 5 -12.1627 -0.0612 
-8 16 6 -9.5184 0.1373 
-8 16 7 2.4271 -0.0597 
-8 16 8 -16.4108 -0.1412 
-8 16 9 -3.6666 0.2315 
-8 16 10 -10.6551 0.0469 
-8 16 11 -7.6670 -0.1114 
-8 16 12 -6.4931 -0.2628 
-8 16 13 0.3538 0.1043 
-8 16 14 -11.8854 0.2101 
-8 16 15 3.9984 -0.0677 
-8 16 16 14.3559 0.1051 
-8 16 17 -16.0840 -0.0744 
-8 16 18 -13.6229 0.0472 
-8 16 19 2.3508 0.2340 
-8 16 20 16.3487 -0.1122 
-8 16 21 -4.0354 0.1035 
-8 18 1 -0.4023 0.1786 
-8 18 2 19.2719 0.4142 
-8 18 3 -13.8723 -0.3220 
-8 18 4 3.9771 0.0763 
-8 18 5 -15.5463 -0.3000 
-8 18 6 -8.5018 0.2501 
-8 18 7 2.2794 -0.4503 
-8 18 8 4.7200 0.3915 
-8 18 9 5.7431 -0.0090 
-8 18 10 7.0639 0.2512 
-8 18 11 -3.2076 -0.3588 
-8 18 12 8.4450 -0.0815 
-8 18 13 -2.2956 -0.0009 
-8 18 14 10.4668 0.2057 
-8 18 15 -7.0756 0.0297 
-8 18 16 7.2763 0.0365 
-8 18 17 -4.6550 -0.3480 
-8 18 18 -6.5905 0.2479 
-8 18 19 -15.3125 -0.4805 
-8 20 1 -4.9501 0.0279 
-8 20 2 1.3606 0.0253 
-8 20 3 -12.2793 -0.2406 
-8 20 4 -0.5283 0.1942 
-8 20 5 -13.2484 -0.0269 
-8 20 6 5.3632 -0.0371 
-8 20 7 1.6201 -0.2754 
-8 20 8 1.0526 0.1406 
-8 20 9 -11.2615 -0.1185 
-8 20 10 5.1191 0.1526 
-8 20 11 -8.3988 -0.1322 
-8 20 12 4.8899 0.2489 
-8 20 13 -1.9303 -0.2435 
-8 20 14 -8.0196 0.1426 
-8 20 15 -3.4544 -0.0308 
-8 20 16 2.0812 -0.2570 
-8 20 17 0.7070 0.0131 
-8 20 18 3.1335 0.4540 
-8 22 1 -12.5324 -0.1012 
-8 22 2 7.9750 0.0452 
-8 22 3 -15.6716 -0.0075 
-8 22 4 15.5007 0.1271 
-8 22 5 7.8952 -0.0084 
-8 22 6 16.5680 -0.0170 
-8 22 7 -16.1086 -0.0444 
-8 22 8 2.6198 0.0960 
-8 22 9 -9.0476 -0.0547 
-8 22 10 10.9935 -0.0503 
-8 22 11 5.2867 0.2828 
-8 22 12 -9.0105 0.1474 
-8 22 13 2.1366 -0.3615 
-8 22 14 -1.7508 0.0373 
-8 22 15 4.1627 -0.0502 
-8 24 1 -3.5538 -0.3268 
-8 24 2 -12.8399 -0.0868 
-8 24 3 -14.4988 0.0888 
-8 24 4 -4.8588 0.1337 
-8 24 5 10.7664 0.0272 
-8 24 6 13.3866 0.0620 
-8 24 7 -13.2938 -0.0329 
-8 24 8 -3.0291 0.0063 
-8 24 9 -5.8866 -0.4650 
-8 24 10 -1.8297 0.1102 
-8 24 11 8.0110 0.1728 
-8 24 12 -3.5721 0.6798 
-8 26 1 -6.1703 -0.1599 
-8 26 2 8.8184 -0.0478 
-8 26 3 2.5228 0.0886 
-8 26 4 -4.1950 -0.1381 
-8 26 5 5.8160 0.0535 
-8 26 6 -11.0214 -0.0584 
-8 26 7 -12.2168 0.2302 
-8 26 8 9.1638 -0.1100 
-7 1 1 -57.6706 -2.2338 
-7 1 2 -38.5578 -1.5295 
-7 1 3 -156.7444 1.7196 
-7 1 4 49.2294 0.7070 
-7 1 5 81.7656 -0.6559 
-7 1 6 -162.9955 -0.1802 
-7 1 8 42.8195 -0.1897 
-7 1 9 31.2676 -2.1032 
-7 1 10 -51.1133 0.0613 
-7 1 11 7.3890 2.0670 
-7 1 12 4.0123 1.0547 
-7 1 13 -35.5584 -0.9897 
-7 1 14 -2.8620 -1.7448 
-7 1 15 -25.7753 0.6054 
-7 1 16 13.2590 -0.3261 
-7 1 17 -11.8493 -0.0765 
-7 1 18 17.6321 0.2360 
-7 1 19 -18.2649 1.3042 
-7 1 20 14.0468 -0.2511 
-7 1 21 9.9477 -0.8427 
-7 1 22 -8.7094 -0.5425 
-7 1 23 4.4157 0.7582 
-7 1 24 -9.2345 0.7867 
-7 1 25 -0.7968 -0.1338 
-7 3 1 19.6288 0.0576 
-7 3 2 325.8765 0.7590 
-7 3 3 -187.9895 -1.4302 
-7 3 4 -22.2730 0.6053 
-7 3 5 -252.6636 -1.1211 
-7 3 6 -258.3346 2.0876 
-7 3 7 -3.6937 -0.7398 
-7 3 8 -24.6567 0.7335 
-7 3 9 16.8189 -1.0071 
-7 3 10 -94.5591 0.5453 
-7 3 11 11.7224 0.0770 
-7 3 12 13.4090 0.4922 
-7 3 13 -33.1984 -0.5315 
-7 3 14 -22.7236 0.0073 
-7 3 15 -23.2101 0.2649 
-7 3 16 -27.5059 -0.0131 
-7 3 17 -12.0321 -0.2248 
-7 3 18 26.1406 0.0339 
-7 3 19 2.5798 -0.1591 
-7 3 20 6.7522 0.0969 
-7 3 21 -3.4281 0.0321 
-7 3 22 -7.0130 0.2701 
-7 3 23 -1.5539 -0.0208 
-7 3 24 13.5153 0.0467 
-7 3 25 0.9272 0.1410 
-7 5 1 30.5710 0.5665 
-7 5 2 220.8361 0.9926 
-7 5 3 -124.7034 -0.4237 
-7 5 4 -4.4444 -0.3636 
-7 5 5 8.7179 -0.3463 
-7 5 6 -87.3029 0.3478 
-7 5 7 -40.2463 -1.6497 
-7 5 8 5.6293 1.6592 
-7 5 9 -50.7039 0.1362 
-7 5 10 -3.4771 0.8701 
-7 5 11 12.5515 -1.8022 
-7 5 12 15.3823 0.2507 
-7 5 13 7.1658 -0.0545 
-7 5 14 -1.2768 0.8952 
-7 5 15 5.7544 -0.2499 
-7 5 16 -8.8237 -0.4170 
-7 5 17 -3.6530 -0.0796 
-7 5 18 16.7540 0.0360 
-7 5 19 2.0209 -0.1214 
-7 5 20 20.8224 0.1057 
-7 5 21 5.9892 0.3859 
-7 5 22 4.5686 0.4426 
-7 5 23 0.9721 -0.3505 
-7 5 24 6.9232 -0.1635 
-7 5 25 -11.4071 -0.2995 
-7 7 1 148.9925 0.8589 
-7 7 2 60.7967 -0.0915 
-7 7 3 20.2208 -0.1393 
-7 7 4 -19.9429 -0.7574 
-7 7 5 73.9216 0.5214 
-7 7 6 24.7818 0.3466 
-7 7 7 -0.9995 -0.2641 
-7 7 8 3.6250 -0.3494 
-7 7 9 -19.6469 0.7240 
-7 7 10 -8.3740 0.1005 
-7 7 11 -6.9668 -0.4815 
-7 7 12 12.7906 0.0036 
-7 7 13 1.4734 0.0115 
-7 7 14 -0.9476 0.1957 
-7 7 15 -4.1653 -0.2805 
-7 7 16 -5.5958 0.3097 
-7 7 17 -6.0393 -0.0531 
-7 7 18 7.0136 0.0464 
-7 7 19 -2.8397 -0.3382 
-7 7 20 -4.1938 -0.1714 
-7 7 21 -33.0657 0.6655 
-7 7 22 -4.7700 0.0970 
-7 7 23 -5.9152 -0.1171 
-7 7 24 -3.7211 0.3304 
-7 7 25 -7.0810 -0.0529 
-7 9 1 19.5074 -0.2371 
-7 9 2 41.7587 -0.1293 
-7 9 3 -38.1455 0.3878 
-7 9 4 -6.0204 0.1910 
-7 9 5 -14.1302 -0.0298 
-7 9 6 96.0527 -0.4630 
-7 9 7 17.7882 0.0767 
-7 9 8 -28.4260 -0.1952 
-7 9 9 13.5888 0.4083 
-7 9 10 -17.6728 -0.0529 
-7 9 11 -19.1382 -0.2341 
-7 9 12 13.4373 -0.2078 
-7 9 13 -22.3829 0.2350 
-7 9 14 -3.1528 -0.1311 
-7 9 15 -10.5600 0.0016 
-7 9 16 -5.9367 0.0838 
-7 9 17 -13.4675 0.0267 
-7 9 18 -15.5570 0.1403 
-7 9 19 -14.8856 -0.0919 
-7 9 20 -2.4574 -0.1148 
-7 9 21 -11.8807 0.0128 
-7 9 22 8.6962 -0.1609 
-7 9 23 -5.8457 0.1096 
-7 9 24 -9.9400 0.7024 
-7 11 1 30.0135 -0.5247 
-7 11 2 10.2784 -0.2565 
-7 11 3 -10.2057 -0.1703 
-7 11 4 13.6741 0.5298 
-7 11 5 -12.5148 -0.0198 
-7 11 6 19.7410 0.0172 
-7 11 7 -26.2171 0.4224 
-7 11 8 -12.8936 -0.4008 
-7 11 9 8.7156 -0.7192 
-7 11 10 8.0060 0.0644 
-7 11 11 -23.5870 0.5882 
-7 11 12 28.5478 0.2071 
-7 11 13 -0.3046 -0.3212 
-7 11 14 -7.9992 -0.2419 
-7 11 15 1.8487 -0.1366 
-7 11 16 -5.5262 0.3615 
-7 11 17 -1.9205 -0.0163 
-7 11 18 1.8668 0.0652 
-7 11 19 -0.0020 -0.0565 
-7 11 20 -15.3795 0.1631 
-7 11 21 -15.5989 -0.1982 
-7 11 22 6.2160 0.0566 
-7 11 23 -1.1464 -0.0369 
-7 13 1 -17.1999 -0.2886 
-7 13 2 -12.8153 -0.3213 
-7 13 3 15.8014 0.4787 
-7 13 4 14.3762 0.2263 
-7 13 5 -40.6823 -0.1066 
-7 13 6 18.9786 -0.3992 
-7 13 7 3.3562 0.4570 
-7 13 8 -16.1421 0.0223 
-7 13 9 12.9749 -0.0904 
-7 13 10 -12.4800 -0.2029 
-7 13 11 -3.0318 0.2252 
-7 13 12 -2.1438 -0.0468 
-7 13 13 -11.1244 0.0138 
-7 13 14 -6.4739 0.0973 
-7 13 15 0.3565 0.0152 
-7 13 16 -1.8817 -0.1062 
-7 13 17 -6.4470 -0.0822 
-7 13 18 -11.9467 0.1433 
-7 13 19 12.1634 0.0350 
-7 13 20 6.8741 0.0408 
-7 13 21 -27.7057 -0.5555 
-7 13 22 -5.3621 0.3637 
-7 15 1 0.1146 0.3395 
-7 15 2 35.2921 -0.3234 
-7 15 3 -1.2294 0.1412 
-7 15 4 -2.0175 -0.3067 
-7 15 5 -11.7482 0.2788 
-7 15 6 -16.9026 -0.1450 
-7 15 7 19.2721 0.4209 
-7 15 8 -20.3014 -0.2686 
-7 15 9 14.4199 -0.0463 
-7 15 10 -3.0964 -0.2775 
-7 15 11 -18.3239 0.3910 
-7 15 12 -10.7355 -0.1683 
-7 15 13 -0.4752 0.1059 
-7 15 14 2.4250 -0.2701 
-7 15 15 -21.4191 0.3446 
-7 15 16 -10.4659 -0.1205 
-7 15 17 -0.7590 0.1649 
-7 15 18 -1.5826 -0.1200 
-7 15 19 -5.1835 0.0742 
-7 15 20 -5.3701 0.0808 
-7 15 21 -15.1998 0.2994 
-7 17 1 -21.8800 0.2929 
-7 17 2 26.9540 0.0724 
-7 17 3 -6.7844 0.0614 
-7 17 4 -14.5033 -0.1248 
-7 17 5 -0.9459 -0.0331 
-7 17 6 -4.8781 -0.2515 
-7 17 7 14.4264 0.0050 
-7 17 8 -4.5815 0.2484 
-7 17 9 -0.9798 0.3202 
-7 17 10 -1.1526 -0.0693 
-7 17 11 -27.7419 -0.1923 
-7 17 12 3.2981 -0.2567 
-7 17 13 5.8411 0.1601 
-7 17 14 -6.0963 0.1698 
-7 17 15 -3.8657 0.2629 
-7 17 16 -3.2098 -0.2367 
-7 17 17 -10.1063 -0.2014 
-7 17 18 6.8989 0.1015 
-7 17 19 -11.8415 0.0736 
-7 17 20 4.7680 0.2191 
-7 19 1 -5.1896 0.2421 
-7 19 2 6.7127 0.1248 
-7 19 3 -6.6765 -0.3200 
-7 19 4 3.6119 -0.1632 
-7 19 5 -9.0960 0.1296 
-7 19 6 10.7649 0.1260 
-7 19 7 -9.2510 -0.1179 
-7 19 8 -14.6476 -0.0387 
-7 19 9 -13.1868 0.0014 
-7 19 10 6.0000 0.1005 
-7 19 11 -19.0131 -0.0744 
-7 19 12 -0.9244 0.0874 
-7 19 13 -12.6566 -0.2367 
-7 19 14 -10.2146 0.0921 
-7 19 15 0.5602 0.0234 
-7 19 16 2.8320 -0.0423 
-7 19 17 1.9986 -0.0794 
-7 19 18 8.4594 0.1238 
-7 21 1 7.5972 -0.0374 
-7 21 2 13.7603 0.0168 
-7 21 3 -15.0400 0.0892 
-7 21 4 15.8412 0.1015 
-7 21 5 2.1730 -0.1047 
-7 21 6 -10.7495 -0.0361 
-7 21 7 -7.3365 -0.1335 
-7 21 8 -4.8149 0.0273 
-7 21 9 6.9543 0.1613 
-7 21 10 2.0353 -0.0009 
-7 21 11 -5.6603 0.1513 
-7 21 12 7.2228 -0.0085 
-7 21 13 4.4400 -0.1501 
-7 21 14 -1.3854 -0.0204 
-7 21 15 -11.2938 0.1290 
-7 21 16 2.1196 -0.0515 
-7 23 1 -5.1921 -0.2065 
-7 23 2 20.3280 0.0269 
-7 23 3 -14.8921 -0.0906 
-7 23 4 -0.2538 0.0708 
-7 23 5 0.3364 0.0138 
-7 23 6 -6.3015 0.4011 
-7 23 7 -1.0913 -0.1769 
-7 23 8 -3.5331 -0.0982 
-7 23 9 -7.8471 -0.3202 
-7 23 10 -0.2379 0.1611 
-7 23 11 -7.7190 0.4308 
-7 23 12 1.6044 0.2085 
-7 23 13 15.4718 -0.0090 
-7 23 14 15.7018 -0.7828 
-7 25 1 -2.8636 -0.4883 
-7 25 2 -7.7378 0.1424 
-7 25 3 7.3469 0.0253 
-7 25 4 0.8633 0.1599 
-7 25 5 -15.4572 -0.1463 
-7 25 6 11.8131 0.1600 
-7 25 7 3.0934 -0.3266 
-7 25 8 1.1539 0.3297 
-7 25 9 -7.9361 -0.5000 
-7 25 10 -0.3400 0.2866 
-7 27 2 -6.7057 0.0529 
-6 0 1 244.6272 2.1221 
-6 0 2 -63.4743 1.6020 
-6 0 3 111.6374 6.7532 
-6 0 5 -305.7082 -0.0721 
-6 0 6 90.8371 0.2936 
-6 0 7 -34.7257 3.9836 
-6 0 8 83.6586 -3.2091 
-6 0 9 -14.4485 -3.0621 
-6 0 10 28.0165 -0.7202 
-6 0 11 -76.0930 4.5761 
-6 0 12 57.6681 1.9653 
-6 0 13 -19.4870 -0.7417 
-6 0 14 5.5672 -3.5212 
-6 0 15 26.5213 -1.3115 
-6 0 16 -16.3482 0.1218 
-6 0 17 -32.5956 2.1675 
-6 0 18 -4.2931 0.7519 
-6 0 19 1.5694 0.4389 
-6 0 20 15.4545 -1.5709 
-6 0 21 0.6369 -0.9895 
-6 0 22 -15.7938 -0.3436 
-6 0 23 -21.5145 1.4107 
-6 0 24 7.0563 1.2145 
-6 0 25 5.5277 -0.3933 
-6 2 1 76.8886 -4.1853 
-6 2 2 -41.9974 0.0909 
-6 2 3 -193.7695 1.0752 
-6 2 4 50.7325 -0.9075 
-6 2 5 115.7844 1.2715 
-6 2 6 -57.8030 0.0357 
-6 2 7 -115.3242 0.3302 
-6 2 8 27.3658 -2.4435 
-6 2 9 9.7939 0.9336 
-6 2 10 -28.0771 1.0781 
-6 2 11 20.2563 0.9223 
-6 2 12 15.0541 -0.7920 
-6 2 13 -6.2311 -0.3606 
-6 2 14 -27.6182 -0.1008 
-6 2 15 12.9710 0.3669 
-6 2 16 3.7968 -0.0459 
-6 2 17 -16.0859 0.0698 
-6 2 18 24.5166 -0.2116 
-6 2 19 0.9576 0.1669 
-6 2 20 18.2597 0.4470 
-6 2 21 -0.3161 -0.0470 
-6 2 22 -4.3998 -0.4576 
-6 2 23 -1.5037 -0.0910 
-6 2 24 8.2685 0.7634 
-6 2 25 4.8540 0.1303 
-6 4 1 -21.8099 1.0991 
-6 4 2 193.7030 1.1058 
-6 4 3 -239.8366 -0.7977 
-6 4 4 72.3439 -0.7222 
-6 4 5 -12.9090 -1.1285 
-6 4 6 3.2642 1.2408 
-6 4 7 84.3795 -0.1299 
-6 4 8 72.2370 0.2193 
-6 4 9 59.3893 0.4014 
-6 4 10 -78.6554 0.1065 
-6 4 11 44.9262 -1.0179 
-6 4 12 -33.1137 -0.1166 
-6 4 13 -8.1919 0.7409 
-6 4 14 -29.9225 0.4767 
-6 4 15 -4.6252 -0.5485 
-6 4 16 -11.1028 -0.3997 
-6 4 17 -19.2564 0.4587 
-6 4 18 -1.2218 0.3800 
-6 4 19 -26.8290 -0.6941 
-6 4 20 1.0423 0.0818 
-6 4 21 -2.0287 0.2856 
-6 4 22 -13.1708 0.3977 
-6 4 23 -11.8176 -0.0422 
-6 4 24 4.8179 -0.2214 
-6 4 25 -11.2410 -0.1391 
-6 6 1 3.2035 0.8628 
-6 6 2 34.2736 -0.6510 
-6 6 3 10.8555 -0.5966 
-6 6 4 52.3904 0.1621 
-6 6 5 -127.8837 0.4300 
-6 6 6 28.7456 -0.1975 
-6 6 7 26.8190 -0.5333 
-6 6 8 1.3386 0.1376 
-6 6 9 7.5009 0.7914 
-6 6 10 -17.7021 0.0395 
-6 6 11 2.7019 -0.5980 
-6 6 12 -12.5681 -0.6617 
-6 6 13 -0.7612 0.4767 
-6 6 14 12.2188 0.4425 
-6 6 15 14.3312 0.1364 
-6 6 16 2.5083 -0.2271 
-6 6 17 -1.4381 -0.2238 
-6 6 18 24.5596 -0.1781 
-6 6 19 -11.3464 -0.2314 
-6 6 20 -8.9500 0.2633 
-6 6 21 -1.6335 0.8940 
-6 6 22 -5.2077 0.0859 
-6 6 23 -2.4486 -0.4074 
-6 6 24 10.4396 0.0712 
-6 6 25 -14.3378 -0.3704 
-6 8 1 39.2611 0.6988 
-6 8 2 -3.6154 0.1316 
-6 8 3 17.1683 -0.0519 
-6 8 4 59.7630 -0.2348 
-6 8 5 -38.7680 -0.1132 
-6 8 6 -3.0793 -0.3598 
-6 8 7 -37.0608 0.4023 
-6 8 8 -93.6845 0.1770 
-6 8 9 1.0110 0.3455 
-6 8 10 -42.3730 -0.4801 
-6 8 11 -1.3611 0.1299 
-6 8 12 13.6110 -0.2795 
-6 8 13 -16.1734 0.4035 
-6 8 14 13.9269 -0.5112 
-6 8 15 -24.0585 0.2109 
-6 8 16 -5.0630 -0.1419 
-6 8 17 -16.2024 0.2143 
-6 8 18 -13.4710 0.1766 
-6 8 19 -13.6464 0.0808 
-6 8 20 10.3650 -0.4580 
-6 8 21 -7.9404 0.2884 
-6 8 22 -4.0735 0.0238 
-6 8 23 2.2660 -0.1589 
-6 8 24 -11.2261 0.3656 
-6 10 1 -48.4825 -0.8127 
-6 10 2 32.2004 -0.1666 
-6 10 3 12.8927 -0.0143 
-6 10 4 2.5480 0.7983 
-6 10 5 -43.7292 0.1366 
-6 10 6 64.8472 -0.2469 
-6 10 7 6.6607 -0.1006 
-6 10 8 -28.3977 -0.1480 
-6 10 9 14.9842 -0.2657 
-6 10 10 29.8818 0.0530 
-6 10 11 -24.2995 0.2600 
-6 10 12 -2.1563 0.1162 
-6 10 13 0.1059 -0.4077 
-6 10 14 -5.6541 -0.3362 
-6 10 15 -9.5711 0.3469 
-6 10 16 -5.0648 0.0134 
-6 10 17 3.6597 0.0482 
-6 10 18 4.9442 -0.1240 
-6 10 19 6.0990 0.3558 
-6 10 20 -7.1679 -0.1033 
-6 10 21 -15.5027 -0.0120 
-6 10 22 -3.7932 -0.1725 
-6 10 23 -0.3377 0.1675 
-6 10 24 2.3912 0.4243 
-6 12 1 -2.6913 -0.4182 
-6 12 2 -15.5826 0.2367 
-6 12 3 30.2393 -0.0683 
-6 12 4 11.1716 0.4790 
-6 12 5 -32.1142 -0.4958 
-6 12 6 1.2414 0.1133 
-6 12 7 -43.1905 0.3052 
-6 12 8 -11.3159 -0.0562 
-6 12 9 -28.1809 -0.3905 
-6 12 10 3.8951 -0.1976 
-6 12 11 -41.3430 0.4612 
-6 12 12 -2.0894 0.2718 
-6 12 13 -3.0588 -0.2788 
-6 12 14 -19.5420 -0.1750 
-6 12 15 -5.5010 -0.0563 
-6 12 16 -17.5921 0.3501 
-6 12 17 13.5678 -0.1443 
-6 12 18 -10.9013 0.1311 
-6 12 19 -9.0040 -0.1328 
-6 12 20 -2.9431 -0.0361 
-6 12 21 -17.4792 -0.2050 
-6 12 22 -14.3611 -0.0860 
-6 12 23 -14.4133 1.0191 
-6 14 1 0.6025 -0.1916 
-6 14 2 -13.9939 -0.2697 
-6 14 3 -2.3277 0.1662 
-6 14 4 -7.0615 0.1146 
-6 14 5 -24.0034 0.1251 
-6 14 6 1.2630 -0.0509 
-6 14 7 -4.3285 0.0236 
-6 14 8 -6.4841 -0.1591 
-6 14 9 -5.9806 -0.0402 
-6 14 10 -17.4134 -0.0342 
-6 14 11 -12.3277 0.2377 
-6 14 12 -3.4049 -0.2510 
-6 14 13 -11.4969 0.1358 
-6 14 14 -9.2612 -0.1306 
-6 14 15 -12.7736 0.2948 
-6 14 16 0.9848 -0.1344 
-6 14 17 4.8003 0.0076 
-6 14 18 2.6143 -0.0190 
-6 14 19 -20.9399 -0.0428 
-6 14 20 -0.3215 0.2306 
-6 14 21 -9.2173 -0.4530 
-6 14 22 4.6164 -0.5260 
-6 16 1 -0.8208 0.4502 
-6 16 2 14.5980 0.1319 
-6 16 3 2.5420 -0.1792 
-6 16 4 20.5454 -0.2090 
-6 16 5 -10.7504 0.0111 
-6 16 6 -2.0002 -0.0122 
-6 16 7 6.8930 -0.0180 
-6 16 8 -36.8678 0.1805 
-6 16 9 -3.4889 0.1314 
-6 16 10 -11.3810 -0.1599 
-6 16 11 3.4149 -0.1715 
-6 16 12 -7.1658 -0.1007 
-6 16 13 -8.8175 0.2837 
-6 16 14 -9.0642 0.1333 
-6 16 15 -2.2705 0.0770 
-6 16 16 -0.3310 -0.2501 
-6 16 17 -2.4204 0.2105 
-6 16 18 11.6426 -0.1724 
-6 16 19 -2.3309 0.1181 
-6 16 20 16.5767 0.0056 
-6 16 21 -1.6664 -0.0960 
-6 18 1 0.8773 0.1549 
-6 18 2 11.5390 0.0674 
-6 18 3 -10.8902 -0.2387 
-6 18 4 27.9268 0.0505 
-6 18 5 -7.1977 -0.1328 
-6 18 6 3.0537 0.1145 
-6 18 7 10.9420 -0.3355 
-6 18 8 21.6880 0.4106 
-6 18 9 -9.4991 -0.0917 
-6 18 10 -2.4554 0.2519 
-6 18 11 3.3005 -0.3423 
-6 18 12 1.5266 0.1020 
-6 18 13 10.9346 0.0145 
-6 18 14 -1.0102 0.0835 
-6 18 15 6.9388 -0.0146 
-6 18 16 -8.2370 0.0271 
-6 18 17 -1.2350 -0.0764 
-6 18 18 -4.6942 0.1650 
-6 18 19 -10.8978 0.3432 
-6 20 1 13.5585 0.3288 
-6 20 2 11.9331 -0.0380 
-6 20 3 3.6929 -0.0713 
-6 20 4 4.0037 -0.1622 
-6 20 5 -23.2951 0.0393 
-6 20 6 6.5848 -0.0373 
-6 20 7 -1.4116 -0.1462 
-6 20 8 7.7800 0.1995 
-6 20 9 -12.8905 -0.0172 
-6 20 10 -8.2653 0.1151 
-6 20 11 5.4521 -0.2101 
-6 20 12 -16.3593 0.2295 
-6 20 13 1.8753 -0.2453 
-6 20 14 6.1469 0.0848 
-6 20 15 3.6776 0.0866 
-6 20 16 0.7087 -0.0979 
-6 20 17 -4.3029 -0.2552 
-6 22 1 -20.7158 -0.0777 
-6 22 2 24.0385 -0.1185 
-6 22 3 -5.3298 0.0943 
-6 22 4 3.8738 0.0161 
-6 22 5 -9.7774 0.1087 
-6 22 6 -5.7107 -0.0243 
-6 22 7 5.0914 0.0273 
-6 22 8 -5.5290 -0.1580 
-6 22 9 6.8781 -0.0905 
-6 22 10 -10.0709 0.0864 
-6 22 11 13.4020 0.3563 
-6 22 12 -6.0921 0.3361 
-6 22 13 -9.0202 -0.3623 
-6 22 14 8.5274 -0.3815 
-6 22 15 4.4384 -0.0820 
-6 24 1 -2.0451 -0.2698 
-6 24 2 18.3200 -0.0182 
-6 24 3 2.5267 0.1239 
-6 24 4 -7.8395 -0.0100 
-6 24 5 2.2211 0.0023 
-6 24 6 5.2682 0.1058 
-6 24 7 -3.8493 -0.0079 
-6 24 8 5.1689 -0.0754 
-6 24 9 -13.7342 -0.3588 
-6 24 10 5.3262 0.3547 
-6 24 11 21.1683 0.0101 
-6 24 12 12.6214 0.3724 
-6 26 1 -11.3870 -0.2271 
-6 26 2 6.0892 0.0359 
-6 26 3 -4.9241 0.1223 
-6 26 4 -19.3070 -0.0192 
-6 26 5 7.2613 -0.0652 
-6 26 6 5.3167 0.2006 
-6 26 7 -0.6474 -0.0123 
-6 26 8 -2.1338 -0.2667 
-5 1 1 95.0594 -4.2600 
-5 1 2 159.3441 0.9101 
-5 1 3 105.0714 1.8541 
-5 1 4 -48.6151 -0.2592 
-5 1 5 22.2188 2.0458 
-5 1 6 101.5591 -0.8282 
-5 1 7 4.7897 0.5080 
-5 1 8 25.1601 -2.7684 
-5 1 9 10.2885 -0.3925 
-5 1 10 -7.3504 0.0003 
-5 1 11 -63.5096 3.3383 
-5 1 12 58.3095 0.0395 
-5 1 13 -2.9962 -1.8452 
-5 1 14 29.9553 -1.3029 
-5 1 15 -8.4637 0.3247 
-5 1 16 7.5497 0.6865 
-5 1 17 -7.4596 -0.1763 
-5 1 18 -12.6643 0.3083 
-5 1 19 -11.4355 0.6351 
-5 1 20 -14.1328 -0.2046 
-5 1 21 -2.8455 -0.9797 
-5 1 22 6.4871 -0.2812 
-5 1 23 5.3430 0.8828 
-5 1 24 -7.1128 0.7228 
-5 1 25 -6.6772 -0.0513 
-5 3 1 -165.2195 -1.1986 
-5 3 2 18.4683 0.4925 
-5 3 3 9.3255 -0.1490 
-5 3 4 73.9104 0.4936 
-5 3 5 21.1564 -0.9584 
-5 3 7 30.7060 0.0854 
-5 3 8 -59.5723 0.4287 
-5 3 9 93.4678 0.3774 
-5 3 10 15.7680 -0.4709 
-5 3 11 2.0982 -0.1006 
-5 3 12 11.5092 0.3241 
-5 3 13 -3.1920 -0.1230 
-5 3 14 -18.0590 0.1046 
-5 3 15 5.6689 -0.4381 
-5 3 16 -18.2347 0.3172 
-5 3 17 -6.5065 -0.3042 
-5 3 18 14.7399 0.6939 
-5 3 19 -0.5445 -0.1499 
-5 3 20 -0.1350 0.1178 
-5 3 21 -2.8075 -0.1328 
-5 3 22 -5.5852 0.1159 
-5 3 23 -2.5995 0.0127 
-5 3 24 10.3247 0.2316 
-5 3 25 -13.0963 -0.4425 
-5 5 1 -135.1280 0.3372 
-5 5 2 -93.8237 -0.4189 
-5 5 3 -40.3001 -0.2295 
-5 5 4 -74.5149 -0.5510 
-5 5 5 -48.6564 0.0275 
-5 5 6 137.6063 0.6522 
-5 5 7 25.2259 -0.5443 
-5 5 8 13.6585 0.6179 
-5 5 9 -0.2418 -0.1502 
-5 5 10 2.9699 0.5363 
-5 5 11 14.0581 -1.3669 
-5 5 12 31.3253 0.1512 
-5 5 13 38.6786 -0.0406 
-5 5 14 7.6709 0.6070 
-5 5 15 13.7082 -0.0855 
-5 5 16 1.9681 0.0075 
-5 5 17 -7.2342 -0.2163 
-5 5 18 4.4760 -0.0128 
-5 5 19 -7.6684 -0.5183 
-5 5 20 5.8242 0.3620 
-5 5 21 6.3236 0.5155 
-5 5 22 0.3532 0.2626 
-5 5 23 -10.7691 -0.2171 
-5 5 24 0.3226 0.0157 
-5 5 25 -18.9738 -0.1496 
-5 7 1 -4.0967 0.7545 
-5 7 2 29.0211 0.2468 
-5 7 3 217.7481 -0.4440 
-5 7 4 83.3656 0.0478 
-5 7 5 -12.8862 -0.6600 
-5 7 6 67.6594 -0.4044 
-5 7 7 -50.1188 0.4748 
-5 7 8 -53.6459 0.4241 
-5 7 9 12.9503 0.3062 
-5 7 10 -8.9118 -0.0592 
-5 7 11 -7.7752 -0.7680 
-5 7 12 17.7920 -0.0198 
-5 7 13 -18.4367 0.3122 
-5 7 14 5.8341 0.4868 
-5 7 15 -13.1578 -0.2576 
-5 7 16 -0.0099 -0.2925 
-5 7 17 -17.0078 -0.0163 
-5 7 18 -5.1592 0.0647 
-5 7 19 -22.9134 -0.0949 
-5 7 20 -10.3217 -0.0145 
-5 7 21 -15.4943 0.4147 
-5 7 22 3.3659 0.1749 
-5 7 23 3.4722 -0.3044 
-5 7 24 19.3237 0.2769 
-5 9 1 -35.3812 0.1756 
-5 9 2 -3.3400 -0.0522 
-5 9 3 -15.9700 -0.4236 
-5 9 4 61.8789 0.5841 
-5 9 5 -26.1157 -0.0510 
-5 9 6 27.1574 0.1200 
-5 9 7 29.3356 -0.0203 
-5 9 8 -32.7765 -0.1523 
-5 9 9 22.9688 -0.4182 
-5 9 10 -25.1632 0.3866 
-5 9 11 -14.1914 0.4256 
-5 9 12 -1.5738 -0.1588 
-5 9 13 21.7179 -0.3510 
-5 9 14 16.4653 -0.1739 
-5 9 15 4.2177 0.1159 
-5 9 16 4.6640 0.0153 
-5 9 17 4.2568 0.0654 
-5 9 18 -8.7338 -0.0477 
-5 9 19 -10.1369 0.0791 
-5 9 20 9.9158 -0.0512 
-5 9 21 -4.0002 0.3047 
-5 9 22 2.3417 -0.0905 
-5 9 23 -11.2240 -0.1446 
-5 9 24 13.2281 0.1647 
-5 11 1 -9.8482 -0.3458 
-5 11 2 48.2122 0.3545 
-5 11 3 -51.2286 0.0947 
-5 11 4 5.9727 0.3329 
-5 11 5 -38.7963 -0.3880 
-5 11 6 -2.0221 0.3114 
-5 11 7 10.6898 -0.2305 
-5 11 8 17.1792 0.1934 
-5 11 9 9.8638 -0.4406 
-5 11 10 16.0018 0.1384 
-5 11 11 -3.4543 0.1290 
-5 11 12 -4.1760 0.2646 
-5 11 13 13.8005 -0.4266 
-5 11 14 -16.5759 0.0921 
-5 11 15 3.2580 -0.1104 
-5 11 16 5.6150 0.1184 
-5 11 17 2.0325 -0.1353 
-5 11 18 -17.4848 0.3324 
-5 11 19 -19.9795 -0.0974 
-5 11 20 -4.8101 -0.1482 
-5 11 21 -8.0712 -0.1300 
-5 11 22 5.8693 -0.2225 
-5 11 23 -32.4917 1.1620 
-5 13 1 -16.3697 -0.2093 
-5 13 2 22.4436 -0.1136 
-5 13 3 -21.6961 -0.1575 
-5 13 4 -22.8572 0.2004 
-5 13 5 3.8780 0.3323 
-5 13 6 -1.9693 0.1861 
-5 13 7 0.6055 -0.4012 
-5 13 8 -31.3488 -0.1952 
-5 13 9 5.0678 -0.1679 
-5 13 10 -9.8574 0.2153 
-5 13 11 -2.9715 0.1615 
-5 13 12 -14.3255 0.2215 
-5 13 13 -2.6152 -0.3152 
-5 13 14 -3.3393 -0.1850 
-5 13 15 0.0062 0.1376 
-5 13 16 11.3698 0.3094 
-5 13 17 -3.4797 -0.1258 
-5 13 18 10.7893 0.0994 
-5 13 19 0.6137 -0.3113 
-5 13 20 9.7362 0.2244 
-5 13 21 -3.8474 -0.5189 
-5 13 22 38.0292 -0.4858 
-5 15 1 -14.5781 0.2476 
-5 15 2 -8.9227 -0.0200 
-5 15 3 9.9339 0.2103 
-5 15 4 -4.4130 -0.3025 
-5 15 5 0.7858 0.2639 
-5 15 6 -18.9407 -0.3902 
-5 15 7 -22.2674 0.1546 
-5 15 8 -4.1186 0.0889 
-5 15 9 3.7677 0.3712 
-5 15 10 13.5319 -0.5197 
-5 15 11 -8.3679 -0.1695 
-5 15 12 -9.7318 -0.0787 
-5 15 13 15.8962 0.4734 
-5 15 14 8.4184 -0.1049 
-5 15 15 -12.9185 0.0661 
-5 15 16 17.7964 -0.1177 
-5 15 17 -2.1632 -0.0259 
-5 15 18 2.1924 -0.0200 
-5 15 19 -7.4009 0.1374 
-5 15 20 -0.1816 -0.1250 
-5 15 21 -4.6782 -0.5887 
-5 17 1 2.8904 0.3132 
-5 17 2 -4.1531 -0.0967 
-5 17 3 3.6404 -0.3008 
-5 17 4 5.9089 -0.1031 
-5 17 5 -6.9636 0.3178 
-5 17 6 5.2949 -0.0884 
-5 17 7 -7.4120 -0.0913 
-5 17 8 3.4493 -0.0494 
-5 17 9 8.2226 0.3312 
-5 17 10 8.9377 -0.2358 
-5 17 11 -12.5853 -0.0931 
-5 17 12 -12.0754 -0.0029 
-5 17 13 -11.6167 0.2580 
-5 17 14 -10.6951 -0.0993 
-5 17 15 -8.4161 0.0092 
-5 17 16 1.6201 0.1465 
-5 17 17 -1.8574 0.1654 
-5 17 18 -7.9659 -0.1506 
-5 17 19 -6.7875 0.0402 
-5 17 20 -0.3716 -0.1733 
-5 19 1 -4.8889 0.1915 
-5 19 2 -5.0939 0.0650 
-5 19 3 10.9864 0.1389 
-5 19 4 7.7077 -0.1838 
-5 19 5 -20.3155 -0.0789 
-5 19 6 14.1434 -0.2623 
-5 19 7 -4.6441 0.0870 
-5 19 8 9.5052 0.2923 
-5 19 9 5.6422 0.1568 
-5 19 10 2.8271 -0.2030 
-5 19 11 2.1525 -0.1807 
-5 19 12 -6.9807 -0.0074 
-5 19 13 0.2519 0.2339 
-5 19 14 2.7961 0.0575 
-5 19 15 -3.6343 -0.1113 
-5 19 16 3.1820 -0.1100 
-5 19 17 0.0241 -0.0581 
-5 19 18 8.6617 -0.4784 
-5 21 1 -3.0384 0.0380 
-5 21 2 -3.8300 -0.1746 
-5 21 3 12.3567 0.1074 
-5 21 4 8.2051 -0.2031 
-5 21 5 -2.1829 0.2463 
-5 21 6 -1.5113 -0.1738 
-5 21 7 13.3057 0.2499 
-5 21 8 -2.5567 -0.3474 
-5 21 9 -13.8518 0.0390 
-5 21 10 -9.9028 0.0111 
-5 21 11 1.5036 0.4777 
-5 21 12 -15.6130 -0.1650 
-5 21 13 0.4564 -0.2554 
-5 21 14 -9.0188 -0.2866 
-5 21 15 0.0756 0.2697 
-5 21 16 3.1716 0.3546 
-5 23 1 4.1885 -0.2389 
-5 23 2 15.0756 0.0292 
-5 23 3 -22.6120 0.2267 
-5 23 4 -0.7993 -0.0135 
-5 23 5 0.0955 -0.1147 
-5 23 6 -6.4276 -0.0729 
-5 23 7 10.7067 0.2034 
-5 23 8 -3.0193 -0.2838 
-5 23 9 -8.4743 0.0858 
-5 23 10 26.6253 -0.0579 
-5 23 11 4.7183 0.4869 
-5 23 12 -0.7752 -0.2099 
-5 23 13 3.0119 0.0159 
-5 23 14 -5.0320 -0.2470 
-5 25 1 -4.4024 -0.2048 
-5 25 2 2.4976 0.0225 
-5 25 3 -0.2395 -0.1401 
-5 25 4 -4.8031 0.2255 
-5 25 5 -9.9289 -0.0921 
-5 25 6 -3.5866 0.1870 
-5 25 7 -12.3794 0.2136 
-5 25 8 -1.1954 -0.5392 
-5 25 9 -8.8565 -0.3300 
-5 25 10 5.3530 0.4814 
-5 25 11 -1.1369 0.4947 
-5 27 1 1.6841 -0.0168 
-5 27 2 -5.1024 0.1663 
-5 27 3 0.3176 -0.0950 
-5 27 4 10.5641 0.2287 
-4 0 1 -6.7810 -2.0641 
-4 0 4 224.9267 2.1213 
-4 0 5 -2.2629 1.2149 
-4 0 6 552.6602 -2.4038 
-4 0 7 -263.0518 0.6485 
-4 0 8 0.4504 -2.7644 
-4 0 9 3.5578 -0.2751 
-4 0 10 -30.4063 1.9577 
-4 0 11 8.2476 3.9048 
-4 0 12 -0.3499 -2.4058 
-4 0 13 18.5179 -2.5030 
-4 0 14 23.3953 -0.2665 
-4 0 15 20.7574 2.2205 
-4 0 16 17.4711 -1.5971 
-4 0 17 4.6720 -0.7798 
-4 0 18 4.2971 0.8310 
-4 0 19 -3.1454 1.9283 
-4 0 20 -23.5609 -0.9108 
-4 0 21 0.7004 -1.5654 
-4 0 22 -0.9739 -0.5428 
-4 0 23 -1.8081 1.1884 
-4 0 24 4.9660 0.6491 
-4 0 25 16.5640 0.3268 
-4 2 1 -65.7676 -0.9504 
-4 2 2 -114.1982 -1.4611 
-4 2 3 -14.7547 2.6649 
-4 2 4 -73.8380 -1.2308 
-4 2 5 13.2892 -0.1793 
-4 2 6 134.9398 -0.2030 
-4 2 7 -58.9141 2.4902 
-4 2 8 153.1576 -1.7514 
-4 2 9 66.4446 -1.3905 
-4 2 10 -55.4864 0.0254 
-4 2 11 -23.2903 2.5983 
-4 2 12 16.5303 -0.2180 
-4 2 13 22.4986 -1.0817 
-4 2 14 8.7457 -0.9934 
-4 2 15 20.0248 0.5290 
-4 2 16 17.6129 -0.3301 
-4 2 17 -22.5790 0.4803 
-4 2 18 -8.7321 0.6657 
-4 2 19 -10.4828 0.0515 
-4 2 20 2.6679 -0.9165 
-4 2 21 1.4101 0.0799 
-4 2 22 -0.5423 0.4097 
-4 2 23 9.0221 0.3379 
-4 2 24 9.2263 0.0565 
-4 2 25 -4.6026 -0.4937 
-4 4 1 -185.4474 -1.2177 
-4 4 2 16.4638 0.0919 
-4 4 3 -37.2826 -0.2885 
-4 4 4 -8.6613 0.6350 
-4 4 5 256.8046 0.1938 
-4 4 6 -0.6943 -1.0477 
-4 4 7 45.1943 0.4048 
-4 4 8 -13.6977 0.2709 
-4 4 9 17.8343 0.4210 
-4 4 10 6.0672 -0.0547 
-4 4 11 12.7036 -0.2752 
-4 4 12 25.7592 -0.5684 
-4 4 13 15.0703 0.0440 
-4 4 14 21.8843 0.6366 
-4 4 15 10.6642 0.2146 
-4 4 16 19.5450 -0.6092 
-4 4 17 3.7351 -0.3764 
-4 4 18 3.4214 0.2897 
-4 4 19 -2.8088 0.2119 
-4 4 20 3.6224 0.0337 
-4 4 21 -0.3188 0.4875 
-4 4 22 -2.6111 -0.2256 
-4 4 23 -8.3302 -0.2037 
-4 4 24 2.5542 0.2402 
-4 4 25 -11.3745 -0.0259 
-4 6 1 -158.9737 1.2741 
-4 6 2 -18.7429 0.7013 
-4 6 3 7.8967 -0.9402 
-4 6 5 34.2922 0.3293 
-4 6 6 -94.5853 -0.5204 
-4 6 7 5.9792 0.8955 
-4 6 8 -17.7744 0.2977 
-4 6 9 -13.1134 0.5601 
-4 6 10 40.0276 -1.0530 
-4 6 11 -14.6665 -0.2873 
-4 6 12 -17.1569 0.0699 
-4 6 13 -20.0063 0.3886 
-4 6 14 23.7406 0.1666 
-4 6 15 -16.0602 -0.2096 
-4 6 16 -1.0569 -0.0830 
-4 6 17 -22.2999 0.1669 
-4 6 18 -11.9457 0.0555 
-4 6 19 -6.3417 -0.3660 
-4 6 20 -13.6297 -0.1050 
-4 6 21 -15.1061 0.4068 
-4 6 22 -15.6087 0.2003 
-4 6 23 -5.0971 -0.0142 
-4 6 24 11.9399 -0.0297 
-4 8 1 -35.4093 0.2665 
-4 8 2 -55.0016 -0.0459 
-4 8 3 -92.2930 -0.1761 
-4 8 4 49.1407 0.1950 
-4 8 5 60.1106 0.1530 
-4 8 6 -56.7022 -0.2978 
-4 8 7 16.4295 -0.2591 
-4 8 8 -56.5132 -0.1632 
-4 8 9 -17.0906 0.8049 
-4 8 10 -5.0162 -0.4526 
-4 8 11 -19.5925 0.0678 
-4 8 12 -4.2259 -0.3325 
-4 8 13 -8.7987 0.5352 
-4 8 14 20.2937 -0.1623 
-4 8 15 -13.2736 0.3576 
-4 8 16 20.7038 -0.1859 
-4 8 17 -3.6740 -0.1726 
-4 8 18 -1.7279 -0.2047 
-4 8 19 -2.1079 0.0104 
-4 8 20 2.6352 0.4462 
-4 8 21 -10.7111 0.0516 
-4 8 22 -2.9124 0.1103 
-4 8 23 9.0505 -0.0320 
-4 8 24 -10.3928 0.0377 
-4 10 1 -24.3998 0.3784 
-4 10 2 -39.6148 0.0596 
-4 10 3 17.9535 0.0132 
-4 10 4 -7.0278 -0.1102 
-4 10 5 -30.0123 -0.0714 
-4 10 6 32.4589 0.5345 
-4 10 7 -1.5661 -0.2889 
-4 10 8 14.4828 0.0608 
-4 10 9 14.1844 -0.4367 
-4 10 10 23.3720 0.3243 
-4 10 11 9.5414 0.0985 
-4 10 12 -9.0272 0.2718 
-4 10 13 23.9092 -0.1257 
-4 10 14 5.8469 -0.5107 
-4 10 15 -0.5837 0.2539 
-4 10 16 2.3228 -0.0795 
-4 10 17 -15.5222 0.3468 
-4 10 18 8.9864 -0.1619 
-4 10 19 5.7886 -0.0658 
-4 10 20 4.0701 -0.1041 
-4 10 21 7.3282 0.1507 
-4 10 22 12.9450 -0.0900 
-4 10 23 -1.4341 0.7406 
-4 12 1 -19.4469 -0.7429 
-4 12 2 -4.6989 0.0924 
-4 12 3 34.5386 0.2425 
-4 12 4 24.4468 0.3770 
-4 12 5 -36.3286 -0.1040 
-4 12 6 17.9559 0.2615 
-4 12 7 -10.3195 -0.5819 
-4 12 8 23.7233 0.0056 
-4 12 9 9.4821 -0.3465 
-4 12 10 -6.8827 0.5341 
-4 12 11 7.1375 -0.0899 
-4 12 12 -28.5619 0.2888 
-4 12 13 -0.2378 -0.4204 
-4 12 14 -2.6420 0.0339 
-4 12 15 -13.7396 0.0651 
-4 12 16 -13.5995 0.1884 
-4 12 17 -7.2454 -0.0739 
-4 12 18 -12.9686 0.0454 
-4 12 19 -9.1923 0.0979 
-4 12 20 -2.9429 -0.0488 
-4 12 21 -4.3624 -0.3133 
-4 12 22 -1.1083 -0.7013 
-4 12 23 -16.2013 0.7751 
-4 14 1 -4.9232 0.0453 
-4 14 2 -3.0257 0.0892 
-4 14 3 -13.7513 -0.0764 
-4 14 4 0.8777 -0.1390 
-4 14 5 -16.9533 0.0706 
-4 14 6 -12.1663 0.2041 
-4 14 7 15.2540 -0.1158 
-4 14 8 20.9550 -0.0244 
-4 14 9 -5.9764 -0.1070 
-4 14 10 -6.8343 -0.0024 
-4 14 11 -0.8315 -0.0899 
-4 14 12 -11.6165 0.1818 
-4 14 13 -0.0045 0.0092 
-4 14 14 23.8212 -0.0027 
-4 14 15 -8.4463 -0.1678 
-4 14 16 3.3032 0.0860 
-4 14 17 3.7345 0.0948 
-4 14 18 -12.0660 -0.0598 
-4 14 19 0.0374 0.0290 
-4 14 20 3.9788 -0.2958 
-4 14 21 -6.8629 -0.1639 
-4 14 22 -6.1499 0.2344 
-4 16 1 0.6229 -0.1291 
-4 16 2 -13.5540 0.0989 
-4 16 3 -0.1542 -0.1542 
-4 16 4 4.3279 0.0794 
-4 16 5 3.5695 0.0568 
-4 16 6 -5.9835 -0.0806 
-4 16 7 -4.9033 -0.0314 
-4 16 8 -13.2401 0.0652 
-4 16 9 -14.6375 0.1753 
-4 16 10 -9.3792 -0.0968 
-4 16 11 -12.7649 -0.2771 
-4 16 12 -9.8113 0.0399 
-4 16 13 -18.1909 0.1081 
-4 16 14 3.3237 0.1098 
-4 16 15 -3.5511 -0.0248 
-4 16 16 -8.8676 0.1810 
-4 16 17 5.2033 -0.1054 
-4 16 18 -3.5141 -0.1350 
-4 16 19 -2.7536 0.3113 
-4 16 20 6.5753 -0.3193 
-4 18 1 3.5948 0.0423 
-4 18 2 -10.4538 0.2666 
-4 18 3 -7.9917 -0.4619 
-4 18 4 15.2346 0.0629 
-4 18 5 -2.4076 -0.1294 
-4 18 6 4.7589 0.1904 
-4 18 7 12.2054 -0.1636 
-4 18 8 9.4234 0.3631 
-4 18 9 -5.8087 0.0192 
-4 18 10 -18.9162 -0.0829 
-4 18 11 4.0121 -0.3515 
-4 18 12 -13.5039 0.1329 
-4 18 13 12.0012 0.2799 
-4 18 14 -3.4626 0.2174 
-4 18 15 0.8399 -0.2959 
-4 18 16 -0.4900 0.0551 
-4 18 17 -0.7741 -0.2241 
-4 18 18 3.2226 0.2754 
-4 18 19 -1.3897 -0.0185 
-4 20 1 -4.1352 0.0643 
-4 20 2 -9.4476 0.0347 
-4 20 3 0.8614 0.0896 
-4 20 4 11.9392 -0.0738 
-4 20 5 -6.5063 0.0544 
-4 20 6 -2.8200 -0.0847 
-4 20 7 -12.2252 0.0014 
-4 20 8 -17.8863 0.1059 
-4 20 9 -12.5276 0.0644 
-4 20 10 -2.8666 0.0928 
-4 20 11 3.8541 -0.0427 
-4 20 12 -7.9422 0.0349 
-4 20 13 14.3226 -0.2255 
-4 20 14 8.0635 0.0486 
-4 20 15 -13.9586 0.0208 
-4 20 16 -2.3414 0.0938 
-4 20 17 -11.7223 0.3640 
-4 22 1 -10.1282 0.0206 
-4 22 2 6.8646 -0.1174 
-4 22 3 -1.3705 0.1977 
-4 22 4 -1.5108 -0.1141 
-4 22 5 1.2991 -0.0202 
-4 22 6 -22.0607 -0.2088 
-4 22 7 6.2506 0.2905 
-4 22 8 -3.8946 -0.2961 
-4 22 9 10.7218 0.1629 
-4 22 10 3.2874 -0.0547 
-4 22 11 -18.5755 0.4041 
-4 22 12 4.9591 -0.1972 
-4 22 13 -6.8863 -0.2750 
-4 22 14 -1.8965 0.0772 
-4 22 15 8.2825 0.1047 
-4 24 1 -3.2704 -0.1710 
-4 24 2 10.3375 -0.0761 
-4 24 3 3.3888 0.1709 
-4 24 4 -3.3431 0.0520 
-4 24 5 -5.4285 -0.0138 
-4 24 6 -3.6199 0.0080 
-4 24 7 2.9598 0.0920 
-4 24 8 6.7695 -0.3259 
-4 24 9 -12.1993 -0.0474 
-4 24 10 14.9129 0.1071 
-4 24 11 0.3928 0.6833 
-4 24 12 1.8683 -0.2339 
-4 26 1 -6.9320 0.0367 
-4 26 2 -2.6582 -0.1437 
-4 26 3 7.8235 0.1821 
-4 26 4 -8.1819 0.0105 
-4 26 5 8.5901 -0.0956 
-4 26 6 -0.3553 0.0586 
-4 26 7 9.2264 0.1688 
-4 26 8 0.9110 -0.0538 
-3 1 1 -141.1796 -2.6438 
-3 1 2 -94.6031 0.1746 
-3 1 3 91.5645 1.4728 
-3 1 4 65.4179 -0.5444 
-3 1 5 67.3736 0.2204 
-3 1 6 241.8048 0.6519 
-3 1 7 -137.0475 0.7016 
-3 1 8 159.4763 -1.7248 
-3 1 9 -16.0519 -0.4779 
-3 1 10 41.4824 1.1956 
-3 1 11 -6.8081 2.2617 
-3 1 12 -16.9107 -0.8440 
-3 1 13 21.7633 -0.9584 
-3 1 14 9.7140 -1.3088 
-3 1 15 5.8035 0.9945 
-3 1 16 12.0588 -0.4309 
-3 1 17 -7.3912 0.6994 
-3 1 18 -31.9272 0.1153 
-3 1 19 -0.0209 0.3032 
-3 1 20 -16.3233 -0.6240 
-3 1 21 -5.1896 -0.5933 
-3 1 22 17.5287 0.1133 
-3 1 23 7.7170 0.6276 
-3 1 24 -8.7955 0.0809 
-3 1 25 -0.5582 -0.1659 
-3 3 1 -98.6868 -1.5820 
-3 3 2 -75.2111 0.3876 
-3 3 3 14.7087 -1.0001 
-3 3 4 110.9691 1.3770 
-3 3 5 -6.6353 -0.6187 
-3 3 6 -116.3309 0.7635 
-3 3 7 -50.4347 -1.0216 
-3 3 8 -11.2020 0.2273 
-3 3 9 8.1009 -0.3467 
-3 3 10 26.9056 0.7204 
-3 3 11 21.1822 -0.1736 
-3 3 12 -5.5535 -0.2850 
-3 3 13 39.6834 0.0052 
-3 3 14 -7.0376 0.1325 
-3 3 15 27.5441 0.0699 
-3 3 16 19.9961 -0.1396 
-3 3 17 5.7456 -0.0915 
-3 3 18 17.6277 -0.0166 
-3 3 19 -10.1123 0.1279 
-3 3 20 -4.0184 0.1215 
-3 3 21 -11.6619 0.2069 
-3 3 22 -6.2369 -0.0683 
-3 3 23 -4.5592 -0.0613 
-3 3 24 9.8012 0.4758 
-3 3 25 -7.2663 -0.1879 
-3 5 1 66.9297 2.0123 
-3 5 2 60.8643 -0.4754 
-3 5 3 54.6490 -0.9040 
-3 5 4 41.3359 0.0485 
-3 5 5 -100.5860 -0.5131 
-3 5 6 -37.8981 0.1890 
-3 5 7 -24.2084 -0.2641 
-3 5 8 96.8198 1.6332 
-3 5 9 -2.5822 -0.4593 
-3 5 10 3.0497 -0.1988 
-3 5 11 14.9738 -1.1930 
-3 5 12 -29.4029 0.9064 
-3 5 13 20.1447 0.3278 
-3 5 14 -7.2402 0.1967 
-3 5 15 14.2039 -0.5517 
-3 5 16 -6.9723 -0.2397 
-3 5 17 -4.4689 0.1835 
-3 5 18 10.7787 0.1624 
-3 5 19 -9.9383 -0.0527 
-3 5 20 -4.2013 0.0036 
-3 5 21 -14.9284 0.3986 
-3 5 22 -7.1324 -0.1609 
-3 5 23 -4.0924 -0.1941 
-3 5 24 0.2648 0.2926 
-3 7 1 -119.5139 0.9875 
-3 7 2 60.8386 -0.6635 
-3 7 3 -35.7161 -0.2706 
-3 7 4 11.9930 0.0224 
-3 7 5 -42.7352 0.5312 
-3 7 6 38.7106 -0.7893 
-3 7 7 -19.1163 0.1417 
-3 7 8 27.7402 0.3198 
-3 7 9 -22.3674 0.2921 
-3 7 10 34.8321 -0.5484 
-3 7 11 -31.2599 -0.2323 
-3 7 12 -6.5986 0.1061 
-3 7 13 -28.1936 0.0039 
-3 7 14 4.1113 0.2113 
-3 7 15 2.2495 0.1413 
-3 7 16 10.7695 0.1049 
-3 7 17 1.1923 -0.1503 
-3 7 18 22.9121 -0.1235 
-3 7 19 -1.8003 -0.1225 
-3 7 20 0.6601 0.4183 
-3 7 21 0.3217 0.1612 
-3 7 22 8.5631 -0.1204 
-3 7 23 2.7944 0.1321 
-3 7 24 -4.9750 -0.1111 
-3 9 1 -62.8796 0.1662 
-3 9 2 11.5391 0.0626 
-3 9 3 33.4365 0.3605 
-3 9 4 -32.7120 -0.4804 
-3 9 5 -44.5565 0.1145 
-3 9 6 -43.6831 -0.0920 
-3 9 7 13.1621 0.1179 
-3 9 8 13.9918 0.1794 
-3 9 9 29.6112 -0.0782 
-3 9 10 28.4179 -0.3955 
-3 9 11 -14.0893 0.2650 
-3 9 12 -16.4310 0.1674 
-3 9 13 10.7516 -0.0363 
-3 9 14 7.0478 -0.1124 
-3 9 15 -0.9693 0.1141 
-3 9 16 13.1012 0.0694 
-3 9 17 3.2595 -0.1096 
-3 9 18 24.0906 0.1009 
-3 9 19 -1.8525 -0.2049 
-3 9 20 9.6861 0.0992 
-3 9 21 4.3958 -0.0828 
-3 9 22 7.4231 0.2834 
-3 9 23 -0.7769 0.8877 
-3 11 1 -70.1556 -0.5493 
-3 11 2 -11.9472 0.2208 
-3 11 3 22.2204 0.3782 
-3 11 4 -40.8125 0.1783 
-3 11 5 6.3723 -0.0360 
-3 11 6 17.3808 0.3498 
-3 11 7 17.5554 -0.4162 
-3 11 8 9.0115 -0.3848 
-3 11 9 -18.4897 -0.1062 
-3 11 10 -7.5482 0.5745 
-3 11 11 -5.5328 0.0977 
-3 11 12 -21.6324 0.1613 
-3 11 13 6.5991 -0.6347 
-3 11 14 -10.3450 -0.0024 
-3 11 15 -11.6571 0.1862 
-3 11 16 -9.1776 0.3264 
-3 11 17 -16.3903 -0.2966 
-3 11 18 0.0562 0.0911 
-3 11 19 -15.9352 -0.0146 
-3 11 20 6.7250 0.0532 
-3 11 21 1.8982 -0.0943 
-3 11 22 2.8033 -0.3144 
-3 11 23 -9.4916 0.1765 
-3 13 1 3.3828 -0.1679 
-3 13 2 -5.0038 0.1853 
-3 13 3 5.4046 0.4179 
-3 13 4 -5.2333 -0.3523 
-3 13 5 24.4798 -0.2518 
-3 13 6 -23.0242 0.3632 
-3 13 7 15.6710 0.0857 
-3 13 8 6.0439 -0.3590 
-3 13 9 -9.0367 -0.2150 
-3 13 10 -2.7397 0.2646 
-3 13 11 17.0351 -0.1098 
-3 13 12 4.1745 0.2122 
-3 13 13 5.8453 -0.0517 
-3 13 14 11.4272 -0.0119 
-3 13 15 -20.2565 -0.1569 
-3 13 16 13.1501 0.1532 
-3 13 17 -0.7384 -0.1706 
-3 13 18 11.1082 0.1378 
-3 13 19 -13.7102 0.0269 
-3 13 20 -2.2861 0.0414 
-3 13 21 -0.3681 -0.4038 
-3 13 22 11.7927 0.1491 
-3 15 1 38.9111 0.1747 
-3 15 2 -38.2444 -0.3716 
-3 15 3 15.3459 0.3225 
-3 15 4 21.2534 -0.4316 
-3 15 5 -5.2718 0.5527 
-3 15 6 -6.9172 -0.0106 
-3 15 7 -18.1613 -0.1291 
-3 15 8 3.7684 -0.4225 
-3 15 9 -30.4547 0.3284 
-3 15 10 4.0203 0.1897 
-3 15 11 6.2346 -0.2285 
-3 15 12 -20.2215 -0.1913 
-3 15 13 2.6006 0.2257 
-3 15 14 7.8544 0.0881 
-3 15 15 -26.4897 -0.0616 
-3 15 16 -0.5739 0.0068 
-3 15 17 -4.3091 0.1351 
-3 15 18 -10.2407 -0.2493 
-3 15 19 -8.0419 0.3113 
-3 15 20 10.9782 -0.6091 
-3 15 21 3.1620 -0.2350 
-3 17 1 29.0224 0.0276 
-3 17 2 -25.6350 0.2691 
-3 17 3 13.6491 -0.3329 
-3 17 4 8.9608 -0.1675 
-3 17 5 0.3888 -0.0245 
-3 17 6 5.9224 -0.0904 
-3 17 7 -18.2314 0.2109 
-3 17 8 9.0046 0.1511 
-3 17 9 4.5611 0.1239 
-3 17 10 4.2957 -0.3050 
-3 17 11 -0.2125 -0.3725 
-3 17 12 -1.0898 0.1530 
-3 17 13 2.4443 0.4951 
-3 17 14 7.0661 0.0867 
-3 17 15 5.9918 -0.2875 
-3 17 16 -16.2411 -0.0960 
-3 17 17 14.6752 0.1786 
-3 17 18 -12.0496 -0.0349 
-3 17 19 6.1707 0.1469 
-3 17 20 17.0461 0.1701 
-3 19 1 -2.0792 0.0424 
-3 19 2 -13.5404 -0.1064 
-3 19 3 -0.4449 -0.3985 
-3 19 4 -9.3887 0.3107 
-3 19 5 1.5261 -0.0128 
-3 19 6 -1.0546 0.0516 
-3 19 7 -17.8351 -0.1010 
-3 19 8 -1.1046 0.1113 
-3 19 9 -0.4642 0.1794 
-3 19 10 -12.1521 0.0083 
-3 19 11 -2.2887 -0.0812 
-3 19 12 10.5863 -0.0544 
-3 19 13 0.5758 0.0178 
-3 19 14 4.8404 0.1374 
-3 19 15 -9.9755 0.0209 
-3 19 16 -6.3446 0.1543 
-3 19 17 10.6041 0.0313 
-3 19 18 10.6490 0.1244 
-3 21 1 -13.5090 0.0786 
-3 21 2 6.0276 0.0949 
-3 21 3 17.5117 0.0585 
-3 21 4 9.4025 0.0753 
-3 21 5 8.4606 -0.2138 
-3 21 6 -3.2209 -0.2525 
-3 21 7 -2.6261 0.2459 
-3 21 8 6.1889 0.0855 
-3 21 9 3.0188 0.1349 
-3 21 10 -0.1122 -0.3264 
-3 21 11 10.5151 0.3829 
-3 21 12 4.8396 -0.1189 
-3 21 13 -1.5695 -0.0603 
-3 21 14 10.9230 -0.0548 
-3 21 15 0.1529 -0.1315 
-3 21 16 2.0381 0.0412 
-3 23 1 3.7690 -0.1796 
-3 23 2 3.3790 -0.1284 
-3 23 3 0.9631 0.0816 
-3 23 4 9.0834 0.2256 
-3 23 5 -5.2967 -0.1218 
-3 23 6 5.5070 -0.0521 
-3 23 7 -10.0127 -0.1129 
-3 23 8 11.9999 -0.0217 
-3 23 9 1.7055 -0.1030 
-3 23 10 -6.9192 0.0308 
-3 23 11 -15.5484 0.9139 
-3 23 12 5.0115 -0.7448 
-3 23 13 19.2467 -0.3026 
-3 23 14 16.4782 -0.7325 
-3 25 1 -10.0387 -0.1079 
-3 25 2 -4.7784 0.0940 
-3 25 3 10.5632 0.3002 
-3 25 4 -14.1284 -0.0959 
-3 25 5 0.6035 -0.1069 
-3 25 6 15.0583 0.0353 
-3 25 7 -12.8613 0.0297 
-3 25 8 6.8110 0.1782 
-3 25 9 5.6120 -0.4841 
-3 25 10 -7.4688 0.3338 
-3 27 1 5.1881 -0.0190 
-3 27 2 -11.2259 -0.1722 
-3 27 3 23.5307 0.2468 
-3 27 4 -14.2344 -0.2828 
-3 27 5 7.2771 0.3483 
-2 0 1 -148.4053 1.2506 
-2 0 2 138.6477 -1.0126 
-2 0 3 -68.3604 -0.0395 
-2 0 4 62.8610 -0.8059 
-2 0 5 -77.5265 1.9098 
-2 0 6 22.9998 0.4164 
-2 0 7 -21.7943 0.1018 
-2 0 8 -8.8003 -3.5486 
-2 0 9 126.2391 -0.3981 
-2 0 10 91.0728 2.3514 
-2 0 11 21.8895 4.6571 
-2 0 12 -14.0408 -1.2786 
-2 0 13 25.3024 -3.2126 
-2 0 14 5.2918 -2.6211 
-2 0 15 7.1601 2.8248 
-2 0 16 14.8869 1.1162 
-2 0 17 7.2694 0.7454 
-2 0 18 -6.0917 -0.7490 
-2 0 19 2.5292 0.2724 
-2 0 20 -10.3363 -1.1637 
-2 0 21 0.1868 -0.5251 
-2 0 22 19.4166 0.5381 
-2 0 23 -19.3068 1.3603 
-2 0 24 -22.4029 -0.5956 
-2 0 25 -2.3900 -1.0044 
-2 2 1 -84.2837 -2.9160 
-2 2 3 -190.6092 -0.8063 
-2 2 4 84.3454 1.5053 
-2 2 5 117.0390 0.3252 
-2 2 6 -87.3597 -2.0919 
-2 2 7 30.6277 -0.0185 
-2 2 8 -6.9063 0.2979 
-2 2 9 -55.5798 0.9028 
-2 2 10 14.8858 -0.8984 
-2 2 11 -31.3105 0.6714 
-2 2 12 5.2123 -0.5563 
-2 2 13 29.1532 -0.1913 
-2 2 14 -18.5615 -0.4842 
-2 2 15 2.9778 0.9488 
-2 2 16 18.7772 -0.4505 
-2 2 17 4.5530 -0.2026 
-2 2 18 5.9859 0.0228 
-2 2 19 14.4577 1.0101 
-2 2 20 5.9367 -0.3666 
-2 2 21 -26.4597 -0.6202 
-2 2 22 -5.1031 -0.1690 
-2 2 23 -19.3697 0.6657 
-2 2 24 0.6239 0.2040 
-2 2 25 0.9088 -0.0304 
-2 4 1 23.7397 0.7868 
-2 4 3 -59.2122 -2.1820 
-2 4 4 31.1751 0.4002 
-2 4 5 218.1444 0.0785 
-2 4 6 16.8549 0.4971 
-2 4 7 62.1958 -0.2757 
-2 4 8 27.5637 0.7201 
-2 4 9 -3.5841 -0.3618 
-2 4 10 66.8503 -0.9190 
-2 4 11 -50.7008 0.0213 
-2 4 12 -7.9041 0.7126 
-2 4 13 -4.4930 0.1354 
-2 4 14 -20.6009 -0.5607 
-2 4 15 5.3207 -0.0307 
-2 4 16 -1.5995 0.3632 
-2 4 17 13.8285 -0.0056 
-2 4 18 -6.4531 -0.2948 
-2 4 19 -25.4613 -0.0426 
-2 4 20 -9.8104 0.0941 
-2 4 21 -9.9779 0.2734 
-2 4 22 20.8499 0.1580 
-2 4 23 -8.3549 -0.1772 
-2 4 24 -1.5902 0.2153 
-2 6 2 19.4900 -0.7136 
-2 6 3 248.9776 0.2345 
-2 6 4 -5.3385 -0.0491 
-2 6 5 -44.8142 0.0766 
-2 6 6 -48.9036 -0.3794 
-2 6 7 -27.3530 -0.0427 
-2 6 8 -3.6664 0.5600 
-2 6 9 -28.1296 0.5004 
-2 6 10 29.7820 -0.7683 
-2 6 11 -40.5281 -0.5962 
-2 6 12 -6.5713 0.2511 
-2 6 13 -25.3835 0.6611 
-2 6 14 -14.9766 0.0949 
-2 6 15 -2.9240 -0.2380 
-2 6 16 -14.4040 -0.3710 
-2 6 17 0.1528 -0.1133 
-2 6 18 11.4108 0.0370 
-2 6 19 -0.9538 0.2205 
-2 6 20 -5.1806 0.4819 
-2 6 21 -3.0003 0.2097 
-2 6 22 3.3747 -0.5127 
-2 6 23 7.1263 0.0936 
-2 6 24 -3.2828 -0.0081 
-2 8 1 -95.3218 0.3744 
-2 8 2 -171.9039 -0.4085 
-2 8 3 -36.0792 -0.1184 
-2 8 4 -37.3526 -0.7238 
-2 8 5 -8.8230 0.5147 
-2 8 6 36.4470 -0.2143 
-2 8 7 10.1896 0.5082 
-2 8 8 -15.5067 -0.3371 
-2 8 9 -2.2228 0.2734 
-2 8 10 19.2479 -0.5472 
-2 8 11 5.1493 0.4174 
-2 8 12 2.9255 -0.3192 
-2 8 13 -3.5313 0.2882 
-2 8 14 0.1236 -0.2739 
-2 8 15 12.6648 0.0127 
-2 8 16 -2.1973 0.0439 
-2 8 17 -16.4677 0.3242 
-2 8 18 -9.1810 -0.0868 
-2 8 19 -17.8073 -0.4269 
-2 8 20 1.7692 0.2752 
-2 8 21 5.9738 0.1455 
-2 8 22 -0.3852 -0.0478 
-2 8 23 10.6862 0.8887 
-2 8 24 -13.0623 -0.2995 
-2 10 1 83.9433 -0.6548 
-2 10 2 -73.6159 0.3184 
-2 10 3 56.8324 0.8653 
-2 10 4 -24.4044 -0.2073 
-2 10 5 -6.5402 -0.0642 
-2 10 6 47.5867 -0.1420 
-2 10 7 -50.0237 0.1351 
-2 10 8 5.4585 -0.3455 
-2 10 9 -33.2253 0.0693 
-2 10 10 -8.6334 0.4287 
-2 10 11 11.6462 0.1591 
-2 10 12 -17.4061 -0.3165 
-2 10 13 7.1636 -0.0914 
-2 10 14 -14.6060 0.0578 
-2 10 15 -6.1079 0.2938 
-2 10 16 -14.2578 -0.2180 
-2 10 17 -6.7691 0.0735 
-2 10 18 13.7922 -0.2151 
-2 10 19 -14.8147 0.1528 
-2 10 20 -4.2563 -0.0989 
-2 10 21 -4.7019 -0.0551 
-2 10 22 -14.5189 -0.0572 
-2 10 23 -6.5641 0.2599 
-2 12 1 -3.7778 -0.3063 
-2 12 2 -30.6076 0.3496 
-2 12 3 -38.6027 0.1287 
-2 12 4 -38.1313 -0.2157 
-2 12 5 27.4125 -0.0249 
-2 12 6 13.7706 0.3891 
-2 12 7 -1.0343 -0.0731 
-2 12 8 11.5187 -0.5657 
-2 12 9 1.8108 -0.0004 
-2 12 10 0.1694 0.3654 
-2 12 11 8.4016 0.1580 
-2 12 12 3.1051 -0.0121 
-2 12 13 2.6536 -0.2256 
-2 12 14 9.2865 -0.0654 
-2 12 15 -8.9825 -0.0066 
-2 12 16 1.9789 0.1390 
-2 12 17 -10.4223 -0.1020 
-2 12 18 7.4249 -0.0097 
-2 12 19 -3.5010 -0.0316 
-2 12 20 13.0654 -0.1775 
-2 12 21 16.6207 -0.0138 
-2 12 22 2.4918 0.6868 
-2 14 1 -2.5801 -0.1714 
-2 14 2 6.9010 0.0393 
-2 14 3 -6.1493 0.3270 
-2 14 4 -7.4765 -0.0392 
-2 14 5 8.1596 -0.0083 
-2 14 6 -34.1692 0.0058 
-2 14 7 -24.0124 -0.0114 
-2 14 8 -14.1129 -0.2739 
-2 14 9 -2.6091 0.1703 
-2 14 10 13.5362 0.0191 
-2 14 11 0.0890 0.0042 
-2 14 12 -4.5782 -0.1062 
-2 14 13 11.5572 0.0955 
-2 14 14 2.3959 0.0483 
-2 14 15 6.7703 0.0667 
-2 14 16 9.5251 0.0200 
-2 14 17 -2.1136 -0.1053 
-2 14 18 9.7157 -0.1322 
-2 14 19 12.8474 0.1338 
-2 14 20 12.2150 -0.1760 
-2 14 21 0.0689 -0.3290 
-2 16 1 -10.3915 0.0501 
-2 16 2 -15.5678 0.0452 
-2 16 3 9.0325 -0.3240 
-2 16 4 0.3903 0.0410 
-2 16 5 6.0514 -0.0417 
-2 16 6 13.4992 0.1803 
-2 16 7 -20.3083 0.0621 
-2 16 8 18.3898 -0.0416 
-2 16 9 -4.8853 -0.0115 
-2 16 10 13.5183 -0.2327 
-2 16 11 15.0748 -0.1811 
-2 16 12 9.2194 0.1600 
-2 16 13 18.4394 0.3154 
-2 16 14 -4.3448 -0.0836 
-2 16 15 0.8209 -0.1505 
-2 16 16 -7.2036 -0.1224 
-2 16 17 15.6003 0.1918 
-2 16 18 11.5420 -0.0434 
-2 16 19 -13.5915 0.2005 
-2 16 20 -7.1390 -0.2504 
-2 18 1 -8.7263 -0.0284 
-2 18 2 20.0484 0.0281 
-2 18 3 8.8375 -0.4110 
-2 18 4 -13.3190 0.3329 
-2 18 5 9.9946 -0.3186 
-2 18 6 7.4043 0.2182 
-2 18 7 5.6174 -0.2752 
-2 18 8 6.3300 0.4362 
-2 18 9 5.5561 -0.0662 
-2 18 10 -8.8731 -0.0892 
-2 18 11 9.1078 -0.2996 
-2 18 12 -13.8860 0.1170 
-2 18 13 -25.0475 0.0645 
-2 18 14 -7.7169 0.2421 
-2 18 15 -4.4393 -0.1240 
-2 18 16 4.2510 0.2347 
-2 18 17 -2.4070 -0.1408 
-2 18 18 1.2355 0.0570 
-2 18 19 0.2182 -0.4423 
-2 20 1 -10.7682 0.1175 
-2 20 2 -1.5935 -0.1515 
-2 20 3 -7.1377 -0.0421 
-2 20 4 -3.0473 0.0987 
-2 20 5 -3.1533 -0.1438 
-2 20 6 2.4955 0.0345 
-2 20 7 3.5051 -0.0175 
-2 20 8 -9.4165 0.4089 
-2 20 9 7.1712 -0.3119 
-2 20 10 8.8256 0.1065 
-2 20 11 8.4018 -0.0736 
-2 20 12 2.3121 0.2173 
-2 20 13 -24.4752 -0.1394 
-2 20 14 13.1101 0.0341 
-2 20 15 -15.7235 -0.0466 
-2 20 16 -1.1053 -0.0441 
-2 20 17 -8.4415 -0.2874 
-2 22 1 0.8053 -0.0702 
-2 22 2 1.1659 -0.0303 
-2 22 3 -8.8422 0.2097 
-2 22 4 2.6525 0.0234 
-2 22 5 -14.7861 -0.0294 
-2 22 6 4.3655 -0.1326 
-2 22 7 1.2723 -0.1222 
-2 22 8 6.1996 0.1106 
-2 22 9 -7.5984 -0.0805 
-2 22 10 -0.8667 0.1744 
-2 22 11 1.6685 0.2517 
-2 22 12 10.3319 -0.3294 
-2 22 13 -2.3848 -0.4289 
-2 22 14 6.0305 -0.0805 
-2 22 15 -2.4062 0.5461 
-2 24 1 -1.3001 -0.0722 
-2 24 2 7.5379 0.1036 
-2 24 3 -13.1477 0.1104 
-2 24 4 6.6090 0.0768 
-2 24 5 -4.5344 -0.1192 
-2 24 6 6.5218 -0.0743 
-2 24 7 -4.9140 0.0033 
-2 24 8 -13.2445 0.1406 
-2 24 9 -15.9262 -0.3154 
-2 24 10 -7.4340 0.3468 
-2 24 11 1.3142 0.1864 
-2 24 12 -9.2411 0.2360 
-2 26 1 2.8827 0.0888 
-2 26 2 2.0110 -0.1050 
-2 26 3 16.1189 0.1337 
-2 26 4 -4.6200 0.0125 
-2 26 5 5.3461 0.1185 
-2 26 6 -3.7515 0.0397 
-2 26 7 -5.2884 -0.0771 
-2 26 8 -9.9386 -0.3733 
-1 1 1 -33.6223 -2.2926 
-1 1 5 -103.7659 -1.0511 
-1 1 6 54.0154 -0.7317 
-1 1 7 -8.0461 0.1526 
-1 1 8 -27.5458 -1.6838 
-1 1 9 2.9188 0.9257 
-1 1 10 40.1381 1.6407 
-1 1 11 -10.2606 1.1396 
-1 1 12 23.0908 -1.5458 
-1 1 13 24.5108 -1.6940 
-1 1 14 -11.3334 0.2833 
-1 1 15 -4.5101 0.8401 
-1 1 16 3.7262 0.0068 
-1 1 17 22.6182 -0.0154 
-1 1 18 12.2546 0.4774 
-1 1 19 21.8681 0.2059 
-1 1 20 -9.5196 -0.8540 
-1 1 21 -13.6228 -0.2179 
-1 1 22 2.5749 0.2081 
-1 1 23 -18.1403 0.8617 
-1 1 24 -7.5756 0.0845 
-1 3 1 177.4463 -0.4088 
-1 3 2 0.3481 1.5622 
-1 3 3 -38.8918 -1.9269 
-1 3 5 6.4144 -0.8712 
-1 3 6 65.2892 1.4764 
-1 3 7 163.8171 -0.2540 
-1 3 8 -55.6269 0.2548 
-1 3 9 43.1735 -0.6985 
-1 3 10 84.8036 0.0317 
-1 3 11 -41.4303 0.2378 
-1 3 12 42.8227 -0.0259 
-1 3 13 -34.1274 -0.6388 
-1 3 14 -47.9667 0.2201 
-1 3 15 -16.3472 -0.4048 
-1 3 16 0.1348 0.3140 
-1 3 17 -12.8811 0.0002 
-1 3 18 6.4009 0.3017 
-1 3 19 -10.2621 -0.2318 
-1 3 20 8.8541 -0.0050 
-1 3 21 -18.3578 -0.1015 
-1 3 22 -7.3593 0.0326 
-1 3 23 -0.1377 0.1995 
-1 3 24 11.2766 -0.2494 
-1 5 1 140.2622 0.5688 
-1 5 2 -30.4770 -0.3117 
-1 5 3 -31.5301 -1.0247 
-1 5 4 -122.0423 0.5506 
-1 5 5 -25.2937 0.3223 
-1 5 6 24.2166 0.2798 
-1 5 7 84.9180 -0.8526 
-1 5 8 -3.1767 1.3865 
-1 5 9 -9.2484 -0.6206 
-1 5 10 -12.9273 0.1000 
-1 5 11 -6.1154 -1.1479 
-1 5 12 -18.2441 0.6853 
-1 5 13 -29.0416 0.3079 
-1 5 14 -25.0434 0.4175 
-1 5 15 1.2128 -0.3483 
-1 5 16 1.1267 -0.1046 
-1 5 17 -6.2216 -0.2733 
-1 5 18 3.3661 -0.0489 
-1 5 19 -12.1558 -0.0171 
-1 5 20 15.7702 0.5329 
-1 5 21 -2.0809 0.1878 
-1 5 22 -5.4989 -0.1406 
-1 5 23 7.8827 -0.1583 
-1 5 24 -6.5301 0.1160 
-1 7 3 -35.9603 -0.4207 
-1 7 4 -43.9447 -0.6883 
-1 7 5 -2.8726 0.6452 
-1 7 6 8.1580 -0.0944 
-1 7 7 12.7752 0.1237 
-1 7 8 -12.1291 0.1825 
-1 7 9 -32.5182 -0.0249 
-1 7 10 0.0531 -0.4298 
-1 7 11 7.7941 -0.3690 
-1 7 12 -4.6016 0.7354 
-1 7 13 5.7546 0.3242 
-1 7 14 -2.7195 -0.2077 
-1 7 15 -8.1850 -0.5077 
-1 7 16 -0.4494 -0.0469 
-1 7 17 -1.1173 0.1513 
-1 7 18 5.1597 0.0719 
-1 7 19 12.6691 -0.1771 
-1 7 20 -4.4982 0.2620 
-1 7 21 -10.5698 0.3341 
-1 7 22 -8.3554 -0.0610 
-1 7 23 5.1521 0.4501 
-1 7 24 -3.9163 -0.1487 
-1 9 1 -3.0898 -0.3013 
-1 9 2 -52.0419 -0.1477 
-1 9 3 91.4966 0.3970 
-1 9 4 30.6684 -0.0637 
-1 9 5 5.7228 0.0366 
-1 9 6 -28.7005 -0.2081 
-1 9 7 -48.6409 -0.2972 
-1 9 8 16.1634 -0.1426 
-1 9 9 -7.5651 0.5744 
-1 9 10 11.8221 0.0852 
-1 9 11 12.0457 -0.1639 
-1 9 12 19.2175 -0.0086 
-1 9 13 22.2234 -0.0829 
-1 9 14 0.5090 0.0883 
-1 9 15 2.9471 0.1150 
-1 9 16 11.8764 0.0447 
-1 9 17 -0.1640 -0.0424 
-1 9 18 0.8010 -0.0649 
-1 9 19 4.0946 -0.0560 
-1 9 20 9.5453 0.1907 
-1 9 21 -3.2574 -0.0747 
-1 9 22 -5.0977 -0.2181 
-1 9 23 -9.3737 0.2096 
-1 11 1 -13.9377 -0.5966 
-1 11 2 -71.7959 0.4729 
-1 11 3 16.4473 0.3395 
-1 11 4 -40.7770 -0.1142 
-1 11 5 2.2931 -0.3573 
-1 11 6 -2.3900 0.1373 
-1 11 7 -1.5571 0.1860 
-1 11 8 34.9970 -0.3228 
-1 11 9 14.2069 -0.1169 
-1 11 10 22.5547 0.3226 
-1 11 11 -2.0755 0.2476 
-1 11 12 -0.1160 0.0602 
-1 11 13 -15.7059 -0.2616 
-1 11 14 -4.6278 0.0322 
-1 11 15 5.3036 -0.1270 
-1 11 16 -10.6232 0.2831 
-1 11 17 -9.3577 -0.0342 
-1 11 18 9.4273 -0.1496 
-1 11 19 0.5407 -0.0980 
-1 11 20 1.7471 -0.2111 
-1 11 21 -6.9270 0.0484 
-1 11 22 -4.6675 0.4715 
-1 13 1 -33.3697 -0.4276 
-1 13 2 6.8684 0.0598 
-1 13 3 19.2484 0.5433 
-1 13 4 -13.1560 -0.0336 
-1 13 5 21.6628 -0.0172 
-1 13 6 -27.2426 -0.2357 
-1 13 7 0.7625 0.1038 
-1 13 8 15.7797 -0.3895 
-1 13 9 -8.2480 0.2219 
-1 13 10 -3.8614 0.1386 
-1 13 11 -7.8490 0.3203 
-1 13 12 6.6795 -0.3855 
-1 13 13 -8.5024 -0.1271 
-1 13 14 9.2664 0.1992 
-1 13 15 -10.6059 0.1579 
-1 13 16 3.5426 0.1294 
-1 13 17 6.4741 -0.2935 
-1 13 18 9.1824 0.0889 
-1 13 19 4.5976 -0.2272 
-1 13 20 -29.8888 -0.0026 
-1 13 21 -3.9910 -0.6674 
-1 15 1 1.5127 0.4093 
-1 15 2 11.2132 -0.2399 
-1 15 3 -15.0335 0.1971 
-1 15 4 -17.7927 -0.2854 
-1 15 5 -8.5981 0.0183 
-1 15 6 -3.2932 0.0349 
-1 15 7 4.8952 0.5323 
-1 15 8 9.9851 -0.3500 
-1 15 9 -3.1907 0.0155 
-1 15 10 13.6059 -0.4005 
-1 15 11 17.7980 0.3483 
-1 15 12 12.0407 0.0185 
-1 15 13 0.5458 0.1867 
-1 15 14 15.2559 -0.2365 
-1 15 15 16.2892 0.0788 
-1 15 16 -5.5209 -0.1809 
-1 15 17 -4.3705 0.1642 
-1 15 18 -5.9035 -0.0341 
-1 15 19 4.6890 0.0135 
-1 15 20 10.1777 0.1507 
-1 17 1 21.3613 0.0630 
-1 17 2 -0.8452 -0.3460 
-1 17 3 -21.3972 -0.1559 
-1 17 4 -14.8273 0.3202 
-1 17 5 -3.8631 -0.0726 
-1 17 6 -2.8304 0.0241 
-1 17 7 -9.2346 0.0108 
-1 17 8 12.2354 -0.0028 
-1 17 9 -6.5706 0.1417 
-1 17 10 -9.7178 -0.3098 
-1 17 11 13.5623 -0.0318 
-1 17 12 -7.5514 -0.1646 
-1 17 13 -18.7951 0.2236 
-1 17 14 -7.7999 0.0480 
-1 17 15 17.4085 0.2007 
-1 17 16 -15.4379 -0.2188 
-1 17 17 -2.3140 -0.1664 
-1 17 18 5.9822 0.0969 
-1 17 19 5.7799 0.1563 
-1 19 1 -3.2365 0.3162 
-1 19 2 -21.6748 -0.0860 
-1 19 3 -7.3183 -0.1879 
-1 19 4 -3.0573 -0.0991 
-1 19 5 -6.1042 -0.0474 
-1 19 6 -12.4758 0.1567 
-1 19 7 -10.2064 -0.0222 
-1 19 8 2.0289 0.3629 
-1 19 9 -12.3948 -0.2143 
-1 19 10 -12.5954 -0.1346 
-1 19 11 1.7297 -0.1531 
-1 19 12 -1.0257 0.3361 
-1 19 13 -4.8027 0.0663 
-1 19 14 4.9196 -0.0207 
-1 19 15 -5.8426 -0.0620 
-1 19 16 -7.8036 -0.1433 
-1 19 17 3.3461 0.0625 
-1 19 18 8.5638 0.4084 
-1 21 1 -25.6119 -0.1158 
-1 21 2 11.4224 -0.1001 
-1 21 3 8.3504 0.0583 
-1 21 4 4.3433 0.0248 
-1 21 5 -13.5672 0.2690 
-1 21 6 -5.8831 -0.2470 
-1 21 7 -12.1549 -0.0590 
-1 21 8 -3.6068 0.1285 
-1 21 9 -18.9010 0.1411 
-1 21 10 19.1818 0.1070 
-1 21 11 1.9808 -0.1229 
-1 21 12 -6.7948 -0.0673 
-1 21 13 -11.0863 -0.2937 
-1 21 14 7.0413 0.2061 
-1 21 15 1.3848 0.2054 
-1 21 16 5.9412 0.0779 
-1 23 1 -20.2729 -0.1127 
-1 23 2 -15.0038 0.3118 
-1 23 3 -3.1486 -0.0181 
-1 23 4 20.0472 -0.0398 
-1 23 5 -10.0142 -0.0992 
-1 23 6 13.3648 0.0327 
-1 23 7 -4.2577 -0.0323 
-1 23 8 -0.1645 0.0566 
-1 23 9 -8.8894 -0.0723 
-1 23 10 2.6553 0.1451 
-1 23 11 -2.0812 0.1839 
-1 23 12 3.8761 -0.0163 
-1 23 13 19.5350 -0.0045 
-1 25 1 -9.3741 -0.3137 
-1 25 2 3.4905 0.2166 
-1 25 3 4.5808 -0.0327 
-1 25 4 9.4200 0.1773 
-1 25 5 -4.9081 -0.0017 
-1 25 6 -8.1037 0.0677 
-1 25 7 11.2717 -0.3714 
-1 25 8 -2.6065 0.0666 
-1 25 9 15.3910 0.0255 
-1 25 10 -3.7665 0.5688 
-1 27 1 0.7795 0.0342 
-1 27 2 -6.9618 0.1001 
-1 27 3 17.1674 0.0495 
-1 27 4 -3.7380 -0.1696 
-1 27 5 -0.1151 0.0459 
0 0 2 82.6869 3.8375 
0 0 5 35.5459 -0.1830 
0 0 6 154.5510 -1.8764 
0 0 7 137.6028 0.6607 
0 0 8 -54.3143 -0.8278 
0 0 9 75.5302 1.8411 
0 0 10 -15.5221 1.1896 
0 0 11 -35.7368 0.2248 
0 0 12 17.8501 -1.8279 
0 0 13 -7.4756 -0.0227 
0 0 14 -15.0465 0.0424 
0 0 15 -31.0601 0.5319 
0 0 16 11.4269 -0.4401 
0 0 17 -29.1269 0.6797 
0 0 18 -3.0769 0.7213 
0 0 19 5.1062 0.2711 
0 0 20 -7.4541 -1.4381 
0 0 21 5.2785 -0.7056 
0 0 22 -4.2266 0.3820 
0 0 23 -3.0930 1.6142 
0 0 24 7.6272 0.4011 
0 2 2 -45.2898 -1.4249 
0 2 4 12.8462 -2.2053 
0 2 5 116.4104 2.6471 
0 2 6 -54.8888 0.3383 
0 2 7 -19.4259 -0.9951 
0 2 8 -24.6573 -1.7030 
0 2 9 71.0162 1.0956 
0 2 10 101.2590 1.7281 
0 2 11 44.2378 0.1556 
0 2 12 11.5011 -1.0264 
0 2 13 13.6959 -0.7865 
0 2 14 -6.9450 -0.1554 
0 2 15 -25.2858 0.2161 
0 2 16 18.0896 0.4702 
0 2 17 -26.7045 0.4367 
0 2 18 -12.3818 -0.4420 
0 2 19 2.1486 -0.4000 
0 2 20 0.3672 0.0606 
0 2 21 -10.1619 0.2984 
0 2 22 -14.6039 -0.1226 
0 2 23 -8.3977 0.3220 
0 2 24 2.9194 -0.1888 
0 4 0 103.3029 1.0065 
0 4 1 23.0010 -0.0803 
0 4 2 58.3680 -0.0130 
0 4 3 -30.6401 0.3964 
0 4 4 -168.0775 -0.6954 
0 4 5 -61.7202 -0.1486 
0 4 6 -49.8743 0.4876 
0 4 7 6.5309 -0.1764 
0 4 8 52.5146 0.7527 
0 4 9 17.5768 0.1084 
0 4 10 2.7678 -0.3734 
0 4 11 -0.2992 -0.9642 
0 4 12 12.1228 0.5206 
0 4 13 -0.8679 0.6008 
0 4 14 -10.4520 0.3168 
0 4 15 -26.0865 -0.8899 
0 4 16 -11.4232 -0.0755 
0 4 17 8.8375 0.1446 
0 4 18 2.6220 0.2851 
0 4 19 -4.3591 -0.1258 
0 4 20 13.6048 0.5152 
0 4 21 -2.8698 -0.3293 
0 4 22 -1.9823 -0.2505 
0 4 23 -6.4772 0.2292 
0 4 24 -8.0303 -0.3028 
0 6 0 329.3444 1.9214 
0 6 1 -6.4625 0.1356 
0 6 3 -91.8029 -1.2337 
0 6 4 -52.8536 0.3777 
0 6 5 21.6576 0.8210 
0 6 6 -114.2375 -0.1452 
0 6 7 -20.0512 0.4308 
0 6 8 -13.0428 -0.1677 
0 6 9 11.2961 -0.0564 
0 6 10 14.4382 -0.4513 
0 6 11 -7.0240 -0.1215 
0 6 12 11.9731 0.3586 
0 6 13 -14.2523 0.4678 
0 6 14 7.3180 -0.1312 
0 6 15 10.0007 -0.2525 
0 6 16 -1.2961 0.0819 
0 6 17 1.7597 0.0466 
0 6 18 -1.5028 -0.2840 
0 6 19 -3.7821 -0.2079 
0 6 20 12.3152 0.3297 
0 6 21 -0.1730 0.4649 
0 6 22 -6.7537 0.1117 
0 6 23 -0.7549 0.1499 
0 6 24 -6.9725 -0.1299 
0 8 0 -13.6381 0.5181 
0 8 1 -22.2123 -0.0265 
0 8 3 -103.4595 0.1154 
0 8 4 -16.1300 0.2584 
0 8 5 16.8540 -0.2555 
0 8 6 23.6079 -0.6394 
0 8 7 14.8213 0.5819 
0 8 8 -34.5547 -0.2355 
0 8 9 39.1170 0.2854 
0 8 10 -2.1668 -0.6897 
0 8 11 29.2995 0.3554 
0 8 12 5.1188 -0.1543 
0 8 13 -14.3633 0.6259 
0 8 14 -0.9183 -0.2685 
0 8 15 1.5400 0.0651 
0 8 16 8.1346 -0.4141 
0 8 17 -6.1648 0.0051 
0 8 18 9.1550 0.1558 
0 8 19 -4.8914 0.1893 
0 8 20 10.2691 0.0290 
0 8 21 -4.8903 0.1706 
0 8 22 1.5232 -0.1822 
0 8 23 0.4558 -0.0147 
0 10 0 -21.5251 0.1842 
0 10 1 12.7247 -0.3929 
0 10 2 -62.3419 0.1445 
0 10 3 -4.5106 0.0557 
0 10 4 14.1629 0.1782 
0 10 5 -18.3279 -0.3807 
0 10 6 65.4855 0.2374 
0 10 7 -25.4247 -0.2665 
0 10 8 -0.4959 -0.0979 
0 10 9 41.2853 -0.1218 
0 10 10 -14.6640 0.3975 
0 10 11 13.7974 0.3125 
0 10 12 -12.0219 -0.1770 
0 10 13 0.4238 -0.2614 
0 10 14 -7.9272 -0.1949 
0 10 15 13.0218 0.4711 
0 10 16 6.4608 -0.1643 
0 10 17 11.2933 0.2154 
0 10 18 27.6350 -0.2625 
0 10 19 -15.7600 0.1673 
0 10 20 -4.1393 -0.2808 
0 10 21 -16.8606 0.0020 
0 10 22 -1.7889 0.5312 
0 12 0 70.7459 -0.4136 
0 12 1 -16.0905 -0.5049 
0 12 2 -3.2814 0.8180 
0 12 3 -12.1120 0.3283 
0 12 4 -43.0912 0.1761 
0 12 5 8.6448 -0.6345 
0 12 6 14.6429 0.1201 
0 12 7 5.1480 -0.1958 
0 12 8 -0.3074 0.0506 
0 12 9 -12.9957 -0.0856 
0 12 10 -16.0242 0.3587 
0 12 11 -3.2025 0.0885 
0 12 12 22.7312 -0.1376 
0 12 13 -11.2303 -0.3150 
0 12 14 -3.4123 0.2368 
0 12 15 -10.3755 0.2137 
0 12 16 6.9019 -0.0031 
0 12 17 0.3564 -0.0828 
0 12 18 11.5271 -0.0952 
0 12 19 -7.2076 0.0563 
0 12 20 9.9413 -0.3589 
0 12 21 10.3253 -0.4456 
0 12 22 4.5439 0.2243 
0 14 0 -11.0581 -0.0268 
0 14 1 -29.9476 0.0727 
0 14 2 -2.4113 -0.0637 
0 14 3 -6.7780 0.0879 
0 14 4 -20.6029 -0.0917 
0 14 5 18.9518 0.0381 
0 14 6 -7.1280 0.0647 
0 14 7 -5.5097 0.0267 
0 14 8 -19.0084 -0.2191 
0 14 9 -5.8927 0.0206 
0 14 10 0.7943 0.0810 
0 14 11 8.1252 0.2557 
0 14 12 10.0019 -0.0419 
0 14 13 -7.8192 -0.0814 
0 14 14 12.3485 -0.1091 
0 14 15 4.5320 0.1409 
0 14 16 18.4243 -0.0076 
0 14 17 -2.4552 -0.0122 
0 14 18 4.3277 0.1106 
0 14 19 0.6477 0.0082 
0 14 20 5.6917 -0.2146 
0 14 21 -1.9544 -0.3496 
0 16 0 26.7293 0.0979 
0 16 1 0.7689 -0.0010 
0 16 2 4.1154 -0.0589 
0 16 3 -6.4804 -0.1971 
0 16 4 3.2366 0.1722 
0 16 5 -10.4609 0.0175 
0 16 6 8.3630 0.0008 
0 16 7 -19.1890 -0.0116 
0 16 8 -9.0956 0.1369 
0 16 9 11.7794 0.1262 
0 16 10 -5.7459 -0.4426 
0 16 11 7.4095 -0.0098 
0 16 12 -7.3186 0.0539 
0 16 13 -1.1578 0.3252 
0 16 14 13.2228 -0.1015 
0 16 15 -12.7143 0.0457 
0 16 16 -10.5556 -0.2492 
0 16 17 -4.4494 0.0549 
0 16 18 5.4978 0.0301 
0 16 19 -14.2375 -0.2729 
0 16 20 3.6150 0.0045 
0 18 0 1.3633 0.3603 
0 18 1 -19.4328 0.2749 
0 18 2 8.1921 -0.3690 
0 18 3 3.5743 -0.3057 
0 18 4 -11.3525 0.1466 
0 18 5 20.5048 0.0331 
0 18 6 13.0665 0.1888 
0 18 7 -10.4474 -0.1386 
0 18 8 -5.1325 0.3462 
0 18 9 -2.8730 -0.3383 
0 18 10 4.4887 -0.1735 
0 18 11 0.6836 -0.1984 
0 18 12 -5.0016 0.4455 
0 18 13 -11.0326 0.0894 
0 18 14 8.7653 -0.1952 
0 18 15 -2.6093 -0.0203 
0 18 16 -3.3861 0.0567 
0 18 17 2.0176 -0.1044 
0 18 18 0.6527 0.2250 
0 20 0 63.9302 -0.1692 
0 20 1 -15.6607 0.2116 
0 20 2 3.3272 -0.3325 
0 20 3 -7.6165 0.1485 
0 20 4 -8.2645 -0.1607 
0 20 5 14.4006 0.1667 
0 20 6 -19.2461 -0.1629 
0 20 7 5.8395 0.0492 
0 20 8 13.0019 0.2180 
0 20 9 -16.7888 -0.0582 
0 20 10 3.2653 0.1955 
0 20 11 -10.4939 -0.5403 
0 20 12 2.3780 0.4054 
0 20 13 1.8105 -0.1984 
0 20 14 4.2763 0.0999 
0 20 15 -10.9785 0.5388 
0 20 16 -17.2993 -0.2719 
0 22 0 6.1987 -0.1507 
0 22 1 -12.1143 0.0709 
0 22 2 17.3118 0.0551 
0 22 3 -6.2701 0.0714 
0 22 4 16.1976 -0.2030 
0 22 5 2.5428 0.1486 
0 22 6 -14.7799 -0.1087 
0 22 7 -4.4458 0.1814 
0 22 8 19.0101 -0.1231 
0 22 9 -9.1054 0.0858 
0 22 10 7.9806 0.1164 
0 22 11 -1.8150 0.0746 
0 22 12 -6.1403 0.0467 
0 22 13 0.9851 -0.4278 
0 22 14 -11.4262 0.3182 
0 24 0 12.6323 -0.2989 
0 24 1 10.2131 -0.1169 
0 24 2 14.5865 0.2722 
0 24 3 -10.8671 0.0656 
0 24 4 -12.6250 -0.0065 
0 24 5 4.0786 -0.0063 
0 24 6 -5.1659 -0.1003 
0 24 7 11.6750 0.0172 
0 24 8 -9.3200 -0.1258 
0 24 9 3.1125 -0.0055 
0 24 10 5.8575 0.5942 
0 24 11 8.3543 -0.2776 
0 24 12 6.8867 -0.1145 
0 26 0 11.5336 -0.2389 
0 26 1 -0.3597 -0.0135 
0 26 2 -9.0186 0.1990 
0 26 3 5.2426 0.1181 
0 26 4 -10.1419 -0.2453 
0 26 5 10.9030 -0.0222 
0 26 6 -0.8996 0.1321 
0 26 7 6.7718 0.0292 
0 26 8 -17.1296 -0.4569 
1 1 2 153.2844 1.1208 
1 1 3 51.2267 1.9961 
1 1 4 -91.0963 -1.4379 
1 1 5 100.8911 0.8963 
1 1 6 7.1098 -0.7745 
1 1 7 44.5682 -0.1694 
1 1 8 39.8417 -0.9966 
1 1 9 16.1210 0.6041 
1 1 10 3.1740 1.2944 
1 1 11 62.1717 1.0945 
1 1 12 -46.6114 -1.7815 
1 1 13 48.6438 -0.9563 
1 1 14 35.2626 0.0627 
1 1 15 -20.8150 1.3153 
1 1 16 6.0988 0.0224 
1 1 17 -14.3511 0.2202 
1 1 18 2.7194 -0.0084 
1 1 19 -1.8821 -0.0979 
1 1 20 5.0608 -0.6667 
1 1 21 -5.1602 -0.2362 
1 1 22 11.0184 0.5050 
1 1 23 -8.8216 0.5012 
1 1 24 -5.7565 0.1187 
1 3 0 -80.8884 -0.0375 
1 3 2 -39.8728 0.6629 
1 3 3 51.7110 -0.3226 
1 3 6 6.1474 -0.1365 
1 3 7 -84.9443 -0.4742 
1 3 8 -22.3630 0.6031 
1 3 9 -34.9290 0.0487 
1 3 10 33.6277 -0.0194 
1 3 11 7.9972 -0.2160 
1 3 12 16.4185 0.2521 
1 3 13 -7.8266 -0.2240 
1 3 14 -4.9637 0.1809 
1 3 15 -18.1612 -0.0718 
1 3 16 -10.5036 -0.1418 
1 3 17 -9.1856 -0.1261 
1 3 18 0.7750 0.4321 
1 3 19 -9.9428 -0.2414 
1 3 20 24.4020 0.3367 
1 3 21 2.9463 -0.1756 
1 3 22 0.9288 0.0942 
1 3 23 -2.2992 0.2867 
1 3 24 6.7795 -0.6978 
1 5 1 44.7308 0.1096 
1 5 2 -121.4211 -1.3726 
1 5 3 144.8019 -0.3256 
1 5 4 6.3791 -0.0759 
1 5 5 74.0373 -0.2056 
1 5 6 -21.1547 0.8987 
1 5 7 21.1338 -0.0757 
1 5 8 12.5692 0.6203 
1 5 9 -55.8812 -1.0798 
1 5 10 22.9891 0.1278 
1 5 11 -3.4843 -0.3264 
1 5 12 -15.5915 0.8887 
1 5 13 -28.9597 -0.1187 
1 5 14 -0.8369 -0.0478 
1 5 15 -5.5098 -0.4083 
1 5 16 -0.2340 0.1958 
1 5 17 2.1247 0.0300 
1 5 18 8.8291 0.0762 
1 5 19 -8.4166 -0.2198 
1 5 20 10.5935 0.4173 
1 5 21 -2.0805 -0.0433 
1 5 22 -2.8713 0.1281 
1 5 23 -5.2718 0.1321 
1 7 0 324.6983 0.6500 
1 7 1 -102.9831 -0.1367 
1 7 2 -26.7036 -0.4546 
1 7 3 168.6002 -0.0361 
1 7 4 -119.7637 0.1133 
1 7 5 -9.9430 0.0294 
1 7 6 -68.1867 -0.0345 
1 7 7 80.6937 0.2173 
1 7 8 -46.3756 0.0701 
1 7 9 -4.4181 0.0063 
1 7 10 -8.5650 -0.2938 
1 7 11 15.5986 -0.4132 
1 7 12 15.8098 0.1221 
1 7 13 9.4321 0.4043 
1 7 14 26.9294 0.3586 
1 7 15 1.3658 -0.3772 
1 7 16 11.3739 -0.2199 
1 7 17 -0.4415 -0.0720 
1 7 18 4.0415 -0.0873 
1 7 19 12.2484 0.2236 
1 7 20 -8.4262 0.1146 
1 7 21 -17.2887 0.0826 
1 7 22 1.1956 0.0391 
1 7 23 -4.1900 -0.2745 
1 9 0 42.2580 0.1634 
1 9 1 -29.8207 0.0100 
1 9 2 29.3817 0.2558 
1 9 3 73.6343 -0.4839 
1 9 4 -1.8479 0.2404 
1 9 5 8.5060 -0.2901 
1 9 6 31.2464 0.2944 
1 9 7 12.7314 0.0852 
1 9 8 -34.5680 -0.3932 
1 9 9 -8.1377 -0.1853 
1 9 10 4.2243 0.2383 
1 9 11 15.7389 0.2626 
1 9 12 2.0371 -0.0552 
1 9 13 -16.6902 -0.0265 
1 9 14 12.9322 -0.1500 
1 9 15 0.6672 -0.0776 
1 9 16 6.0762 -0.0927 
1 9 17 -2.6127 0.1005 
1 9 18 -4.7236 -0.0676 
1 9 19 -10.5601 0.0567 
1 9 20 14.5577 -0.0058 
1 9 21 -6.2844 0.1150 
1 9 22 9.4386 0.4398 
1 11 0 75.6972 -0.4817 
1 11 1 6.1821 -0.3294 
1 11 2 50.8757 0.6771 
1 11 3 -71.4521 -0.0281 
1 11 4 -8.6794 0.4442 
1 11 5 41.6918 -0.5764 
1 11 6 -16.1950 0.1395 
1 11 8 -6.6585 0.2306 
1 11 9 -5.0950 0.0939 
1 11 10 13.6355 0.5219 
1 11 11 -5.5920 -0.1740 
1 11 12 15.2896 -0.2488 
1 11 13 -0.3030 -0.2732 
1 11 14 28.2910 0.3811 
1 11 15 -7.9338 0.0902 
1 11 16 -15.5644 -0.0480 
1 11 17 5.7261 -0.1899 
1 11 18 15.9620 -0.0035 
1 11 19 -1.4475 0.1486 
1 11 20 23.6694 -0.2550 
1 11 21 0.6713 -0.4932 
1 11 22 5.3598 0.0643 
1 13 0 41.9607 -0.3535 
1 13 1 -20.4519 0.4179 
1 13 2 -2.4536 0.1656 
1 13 3 -28.8525 0.0507 
1 13 4 4.2529 0.0015 
1 13 5 28.7265 -0.0293 
1 13 6 -29.8594 0.0765 
1 13 7 14.0623 -0.2688 
1 13 8 18.8415 0.0265 
1 13 9 7.4165 0.0161 
1 13 10 4.0729 0.1294 
1 13 11 -9.2427 0.2507 
1 13 12 4.1330 0.0864 
1 13 13 6.5235 -0.3291 
1 13 14 9.2233 -0.0804 
1 13 15 1.4622 0.0636 
1 13 16 0.5863 0.1439 
1 13 17 -4.5252 -0.0692 
1 13 18 2.3731 0.2145 
1 13 19 5.2061 -0.1720 
1 13 20 -14.7900 -0.2312 
1 13 21 -0.1702 -0.2743 
1 15 0 -7.2841 -0.1471 
1 15 1 23.3737 0.1428 
1 15 2 -6.4655 -0.4591 
1 15 3 -2.2000 0.3905 
1 15 4 10.2991 -0.0457 
1 15 5 -0.9804 0.2945 
1 15 6 14.3506 -0.4987 
1 15 7 19.2774 -0.0197 
1 15 8 12.1097 0.3063 
1 15 9 16.7118 0.0453 
1 15 10 15.9553 -0.2720 
1 15 11 6.3376 -0.0389 
1 15 12 8.7289 0.1824 
1 15 13 7.3211 0.2238 
1 15 14 4.8305 -0.1959 
1 15 15 22.8145 0.1912 
1 15 16 1.5232 -0.1173 
1 15 17 5.7326 -0.1013 
1 15 18 3.4164 0.0060 
1 15 19 -11.2000 -0.1862 
1 15 20 4.0399 -0.2268 
1 17 0 -23.7424 0.3909 
1 17 1 -9.4394 0.1607 
1 17 2 1.4577 -0.2123 
1 17 3 4.3398 -0.2508 
1 17 4 10.8874 -0.1609 
1 17 5 -6.9595 0.4087 
1 17 6 16.7824 0.0125 
1 17 7 5.8999 0.1057 
1 17 8 18.5604 0.1010 
1 17 9 2.8846 -0.2731 
1 17 10 -1.4730 -0.3839 
1 17 11 -1.7961 0.0824 
1 17 12 4.2942 0.3827 
1 17 13 -3.3730 0.0949 
1 17 14 1.5925 -0.3822 
1 17 15 1.1613 -0.0013 
1 17 16 6.2098 0.0270 
1 17 17 -6.5223 -0.0126 
1 17 18 9.2723 0.2510 
1 17 19 -10.9796 -0.2222 
1 19 0 12.8560 0.0299 
1 19 1 -13.5652 -0.0582 
1 19 2 9.1056 -0.2455 
1 19 3 9.1179 0.0397 
1 19 4 -7.2513 -0.0054 
1 19 5 -16.0450 0.1495 
1 19 6 6.3292 -0.2136 
1 19 7 6.2159 0.1209 
1 19 8 2.9737 0.1143 
1 19 9 -5.9535 0.0208 
1 19 10 10.2364 -0.3342 
1 19 11 -2.2686 -0.2263 
1 19 12 10.2925 0.2121 
1 19 13 -20.9241 0.0628 
1 19 14 -16.1179 0.0398 
1 19 15 -3.1817 0.2768 
1 19 16 9.0822 -0.1269 
1 19 17 0.8450 0.0549 
1 21 0 18.0099 0.0058 
1 21 1 4.8548 0.0989 
1 21 2 25.4259 0.0196 
1 21 3 -13.7917 0.0148 
1 21 4 5.5995 -0.3035 
1 21 5 -14.2338 0.0496 
1 21 6 9.3095 0.0632 
1 21 7 -1.8825 0.3742 
1 21 8 5.9830 -0.5303 
1 21 9 -11.9395 0.3324 
1 21 10 23.7096 -0.1444 
1 21 11 3.7142 0.2603 
1 21 12 5.6747 -0.2197 
1 21 13 -10.0320 -0.0530 
1 21 14 1.1517 -0.1922 
1 21 15 9.3681 0.0841 
1 23 0 23.7353 -0.1856 
1 23 1 -3.1714 -0.2490 
1 23 2 -9.0367 0.3402 
1 23 3 -20.0243 0.1544 
1 23 4 13.0819 -0.0074 
1 23 5 -7.8841 -0.1683 
1 23 6 0.6678 0.0337 
1 23 7 -4.6815 0.0980 
1 23 8 6.7466 -0.2791 
1 23 9 -5.0706 0.3771 
1 23 10 -1.0242 0.1865 
1 23 11 -4.1299 0.0623 
1 23 12 -6.3055 -0.9737 
1 23 13 -0.7787 0.2538 
1 25 0 2.4091 -0.0512 
1 25 1 3.6006 -0.0751 
1 25 2 -0.9823 0.3960 
1 25 3 -11.8283 -0.1437 
1 25 4 2.6277 -0.0568 
1 25 5 10.0715 -0.1371 
1 25 6 -13.3715 0.1805 
1 25 7 8.1483 -0.0288 
1 25 8 -2.5485 -0.1027 
1 25 9 12.9392 -0.1513 
1 25 10 8.1691 0.3970 
1 27 0 4.3110 -0.2213 
1 27 1 -4.9295 -0.0104 
1 27 2 -3.7407 0.1131 
1 27 3 -10.5711 -0.0616 
1 27 4 4.1063 0.4678 
2 0 2 -176.3388 -2.9256 
2 0 4 -93.1631 -2.4616 
2 0 5 78.1395 2.4829 
2 0 6 -2.9907 -1.8917 
2 0 7 66.6708 -0.2727 
2 0 8 -26.5043 -4.1813 
2 0 9 -3.8785 3.3390 
2 0 10 55.2760 3.1654 
2 0 11 102.1939 1.2272 
2 0 12 74.9033 -5.9057 
2 0 13 15.3339 -1.2723 
2 0 14 15.3784 1.4778 
2 0 15 -6.2316 2.4278 
2 0 16 -8.0834 -0.3147 
2 0 17 -11.4842 0.1609 
2 0 18 8.7616 -0.2258 
2 0 19 -0.2831 -0.3002 
2 0 20 -2.7447 -0.7128 
2 0 21 -9.4869 0.4992 
2 0 22 1.5617 0.7298 
2 0 23 -21.2680 -0.3313 
2 0 24 -4.5754 -0.2894 
2 2 5 20.7336 -1.1595 
2 2 6 19.7411 -0.2832 
2 2 7 65.0159 2.3509 
2 2 8 27.3073 -1.3840 
2 2 9 -16.2450 0.0471 
2 2 10 9.9768 -0.0002 
2 2 11 -10.8084 0.6461 
2 2 12 -20.6299 -1.0986 
2 2 13 23.9884 0.2591 
2 2 14 13.6661 0.2442 
2 2 15 -14.9698 0.1839 
2 2 16 1.4095 -0.7610 
2 2 17 -0.6617 0.6551 
2 2 18 1.7694 0.5352 
2 2 19 6.9934 -0.3121 
2 2 20 19.0837 -0.6704 
2 2 21 8.7626 0.0357 
2 2 22 12.1204 0.6200 
2 2 23 1.7517 0.2967 
2 4 0 -76.6369 1.2687 
2 4 1 49.7690 -0.4680 
2 4 2 112.3143 -0.6134 
2 4 3 -227.5710 -0.9528 
2 4 4 -198.5511 1.4377 
2 4 5 -0.6912 0.2956 
2 4 6 158.9448 -0.0479 
2 4 7 37.0734 0.2305 
2 4 8 13.1129 -0.7503 
2 4 9 -21.1003 -0.0215 
2 4 10 -2.5537 0.1649 
2 4 11 -4.0744 0.4732 
2 4 12 -15.2331 -0.3480 
2 4 13 14.1270 -0.2199 
2 4 14 19.1980 0.1740 
2 4 15 -3.9987 0.2137 
2 4 16 -9.6129 -0.2246 
2 4 17 -0.9805 -0.0917 
2 4 18 -1.3776 0.0301 
2 4 19 6.0364 -0.1536 
2 4 20 2.7161 0.3513 
2 4 21 -15.0286 0.3653 
2 4 22 0.2879 -0.0401 
2 4 23 -1.6020 0.2552 
2 6 0 255.3809 0.7751 
2 6 1 -177.7897 0.3827 
2 6 2 -79.9585 -0.5707 
2 6 3 -20.6504 -0.0655 
2 6 4 63.4019 -0.3595 
2 6 5 21.3401 0.0655 
2 6 6 -115.1392 -0.3104 
2 6 7 16.1303 0.8667 
2 6 8 -10.1037 0.1945 
2 6 9 -19.9434 -0.1832 
2 6 10 -0.1616 -0.9821 
2 6 11 -14.9298 0.2138 
2 6 12 12.3117 0.5235 
2 6 13 22.0675 0.3578 
2 6 14 21.0947 -0.1293 
2 6 15 5.8716 -0.4757 
2 6 16 7.5971 -0.2331 
2 6 17 3.4793 0.2066 
2 6 18 -2.0253 0.1667 
2 6 19 4.0657 0.1859 
2 6 20 2.1936 -0.0344 
2 6 21 1.6998 -0.0280 
2 6 22 6.7785 0.0119 
2 6 23 -12.7916 -0.2978 
2 8 0 52.7771 0.3184 
2 8 1 -11.8251 0.0952 
2 8 2 96.5676 -0.7003 
2 8 3 35.8343 -0.1594 
2 8 4 41.9253 0.0558 
2 8 5 -47.3831 0.4745 
2 8 6 -10.7935 -0.0765 
2 8 7 2.8599 -0.0252 
2 8 8 -6.5204 -0.3292 
2 8 9 18.0592 0.6253 
2 8 10 13.3777 -0.5764 
2 8 11 20.6706 0.3977 
2 8 12 9.0838 -0.1883 
2 8 13 0.3859 0.1929 
2 8 14 26.5757 -0.2486 
2 8 15 -15.7362 0.1293 
2 8 16 7.0602 -0.0368 
2 8 17 -3.7707 -0.2143 
2 8 18 16.1212 -0.1921 
2 8 19 3.7062 0.1186 
2 8 20 7.9368 0.2212 
2 8 21 -0.6900 0.1047 
2 8 22 1.2118 0.2477 
2 10 0 -6.6972 -0.5917 
2 10 1 -40.7196 0.2948 
2 10 2 90.7772 0.3691 
2 10 4 58.1992 -0.0994 
2 10 5 -13.3529 -0.3465 
2 10 6 7.0546 0.1079 
2 10 7 -9.6491 -0.2798 
2 10 8 14.6990 0.2280 
2 10 9 13.0706 0.0654 
2 10 10 -12.8711 0.0350 
2 10 11 -4.9603 -0.1045 
2 10 12 -6.3518 0.1259 
2 10 13 -7.0552 0.0922 
2 10 14 7.2660 -0.1114 
2 10 15 13.3371 0.1550 
2 10 16 21.4752 -0.1797 
2 10 17 2.2966 -0.0436 
2 10 18 18.0331 -0.1626 
2 10 19 -7.1048 0.1642 
2 10 20 7.0054 0.0334 
2 10 21 -1.9885 -0.4809 
2 10 22 6.5055 0.3623 
2 12 0 32.3715 -0.1710 
2 12 1 -13.1536 -0.0634 
2 12 2 49.7007 0.2789 
2 12 3 -13.9711 -0.1251 
2 12 4 8.5874 0.2994 
2 12 5 20.5638 -0.2595 
2 12 6 2.4966 0.1759 
2 12 7 13.1042 -0.5295 
2 12 8 0.3160 0.1974 
2 12 9 -12.5718 -0.0035 
2 12 10 11.0394 0.6512 
2 12 11 4.8506 -0.1118 
2 12 12 16.9449 -0.0158 
2 12 13 7.9209 -0.4038 
2 12 14 9.6774 0.0992 
2 12 15 3.0464 0.1537 
2 12 16 1.7513 0.1395 
2 12 17 4.2696 -0.1688 
2 12 18 21.4702 -0.1111 
2 12 19 6.0634 0.1232 
2 12 20 -4.3992 -0.0567 
2 12 21 -4.4222 -0.1748 
2 14 0 10.4698 -0.4017 
2 14 1 -5.3037 0.1506 
2 14 2 -8.3112 0.2544 
2 14 3 -4.6129 0.1953 
2 14 4 -1.8095 -0.1575 
2 14 5 1.3858 -0.0069 
2 14 6 -9.9233 -0.0564 
2 14 7 3.0218 -0.1831 
2 14 8 -7.8235 0.2224 
2 14 9 -15.6557 -0.0889 
2 14 10 9.5853 0.0432 
2 14 11 -23.6809 -0.1070 
2 14 12 -2.0585 0.2635 
2 14 13 -7.2605 0.0417 
2 14 14 9.1639 -0.0325 
2 14 15 8.9478 0.0605 
2 14 16 5.2314 -0.0267 
2 14 17 -2.6483 -0.0595 
2 14 18 8.2564 0.1023 
2 14 19 6.0723 -0.1860 
2 14 20 -0.6077 -0.6264 
2 16 0 6.6268 0.5180 
2 16 1 9.1809 -0.2685 
2 16 2 24.9009 -0.0899 
2 16 3 -3.9737 -0.2626 
2 16 4 8.4007 0.1277 
2 16 5 -9.4250 0.2886 
2 16 6 -8.3071 -0.0088 
2 16 7 8.9479 -0.0358 
2 16 8 1.2229 0.0155 
2 16 9 5.9319 -0.1023 
2 16 10 8.9660 -0.0980 
2 16 11 11.5196 -0.0169 
2 16 12 33.6462 0.3070 
2 16 13 12.6976 -0.0754 
2 16 14 15.8591 -0.1409 
2 16 15 5.2112 -0.0231 
2 16 16 6.0364 0.0059 
2 16 17 -9.5548 0.0720 
2 16 18 7.8965 0.1124 
2 16 19 -2.5543 -0.0690 
2 18 0 -8.8722 0.2813 
2 18 1 5.4432 -0.2307 
2 18 2 24.3996 0.1146 
2 18 3 -11.0293 -0.2390 
2 18 4 -1.3794 0.2057 
2 18 5 10.7526 -0.0295 
2 18 6 14.4173 0.1578 
2 18 7 -7.4826 -0.0277 
2 18 8 4.5388 0.2396 
2 18 9 -14.8314 -0.2116 
2 18 10 2.0259 -0.2722 
2 18 11 -18.4410 -0.2235 
2 18 12 -4.7624 0.2883 
2 18 13 -4.5496 0.1107 
2 18 14 3.9556 0.1143 
2 18 15 21.0042 -0.2973 
2 18 16 19.9776 0.1117 
2 18 17 2.0361 -0.2521 
2 18 18 12.4283 0.2006 
2 20 0 28.2153 -0.0531 
2 20 1 -19.4803 0.0889 
2 20 2 -4.7806 -0.1393 
2 20 3 -1.8969 -0.0809 
2 20 4 -7.0318 -0.0719 
2 20 5 3.2449 0.0706 
2 20 6 -11.5759 0.1405 
2 20 7 -1.2626 0.0269 
2 20 8 8.4261 -0.0788 
2 20 9 -11.2674 -0.0757 
2 20 10 -0.5689 -0.0822 
2 20 11 0.6818 0.0433 
2 20 12 7.1420 -0.0322 
2 20 13 4.9622 -0.0729 
2 20 14 -0.4350 0.0247 
2 20 15 -1.0429 -0.3577 
2 20 16 4.4978 0.4783 
2 22 0 2.4063 -0.2134 
2 22 1 -7.0451 0.0767 
2 22 2 1.0269 0.0732 
2 22 3 -2.8180 0.1629 
2 22 4 4.3568 -0.0129 
2 22 5 -8.3687 -0.1365 
2 22 6 -2.3200 -0.0785 
2 22 7 0.1216 0.2642 
2 22 8 -6.8738 -0.1961 
2 22 9 0.9986 0.3982 
2 22 10 -3.3345 -0.1294 
2 22 11 3.8840 0.1474 
2 22 12 -4.1543 -0.5402 
2 22 13 -3.3804 0.0623 
2 22 14 -5.3347 0.0584 
2 24 0 -6.6360 -0.1975 
2 24 1 7.6944 0.0280 
2 24 2 -7.6821 0.1249 
2 24 3 4.6086 0.1626 
2 24 4 -3.9754 -0.1416 
2 24 5 12.8691 -0.2014 
2 24 6 -3.9209 0.2561 
2 24 7 -5.0054 -0.0022 
2 24 8 -5.3549 -0.2131 
2 24 9 1.7783 0.1566 
2 24 10 -6.5272 0.3434 
2 24 11 -6.6025 0.4292 
2 26 0 2.6074 -0.3193 
2 26 1 4.4585 0.0339 
2 26 2 -12.9164 0.0530 
2 26 3 4.6177 0.2413 
2 26 4 4.4625 -0.1584 
2 26 5 7.2188 -0.0460 
2 26 6 -11.7386 -0.0578 
2 26 7 0.2236 -0.2650 
3 1 0 45.2318 -1.1970 
3 1 1 73.6981 1.7114 
3 1 2 -55.6998 3.1844 
3 1 3 -112.2164 -0.4983 
3 1 4 116.1879 -1.5827 
3 1 5 -61.9019 0.4092 
3 1 6 -119.4879 -0.6294 
3 1 7 126.2855 0.2667 
3 1 8 -44.1532 -0.9829 
3 1 9 23.8397 1.8305 
3 1 10 12.7829 0.6507 
3 1 11 -18.5513 -0.2394 
3 1 12 -23.5691 -1.9938 
3 1 13 1.4935 -0.0392 
3 1 14 23.5158 0.4663 
3 1 15 3.6313 0.6252 
3 1 16 5.0202 -0.1653 
3 1 17 -15.9221 0.3444 
3 1 18 -3.8618 -0.0338 
3 1 19 -15.6735 -0.1487 
3 1 20 10.9787 -0.5891 
3 1 21 -8.6054 0.2343 
3 1 22 6.3700 0.6745 
3 1 23 -1.9682 0.1508 
3 3 1 98.4929 -1.9090 
3 3 2 44.3765 1.4035 
3 3 3 159.4509 -1.0810 
3 3 4 619.1654 1.5257 
3 3 5 -46.8225 -0.4013 
3 3 6 156.0501 0.8305 
3 3 7 48.0729 -0.2891 
3 3 8 11.0988 -0.0893 
3 3 9 52.8843 0.1760 
3 3 10 -33.9086 0.2362 
3 3 11 31.2314 -0.1758 
3 3 12 0.7404 -0.1564 
3 3 13 -20.8058 0.0122 
3 3 14 -2.9766 0.1051 
3 3 15 13.3196 0.0193 
3 3 16 1.3984 0.1415 
3 3 17 12.3813 -0.0302 
3 3 18 -13.9090 -0.0923 
3 3 19 -18.3053 -0.0981 
3 3 20 10.5297 -0.0738 
3 3 21 -4.8445 0.2408 
3 3 22 1.3279 0.1013 
3 3 23 -2.4256 0.1402 
3 5 0 -106.5528 0.3408 
3 5 1 171.1997 0.0311 
3 5 2 129.7708 -0.8917 
3 5 3 -107.3772 0.0194 
3 5 4 85.3148 0.8094 
3 5 5 -35.7432 -0.5198 
3 5 6 -43.2919 0.4129 
3 5 7 36.5156 -0.2891 
3 5 8 50.8866 0.8672 
3 5 9 -58.5378 -0.8821 
3 5 10 4.0616 -0.2351 
3 5 11 40.8422 -0.1623 
3 5 12 18.6847 0.8397 
3 5 13 26.2381 0.0357 
3 5 14 23.3100 -0.1144 
3 5 15 10.3247 -0.3209 
3 5 16 -7.9103 -0.0942 
3 5 17 14.9024 0.0440 
3 5 18 -2.5352 0.0703 
3 5 19 -11.5392 0.2435 
3 5 20 10.4501 0.1160 
3 5 21 -10.2908 0.0162 
3 5 22 8.5667 -0.0158 
3 5 23 -9.2068 0.0053 
3 7 0 -273.0380 0.1039 
3 7 1 69.5003 0.6189 
3 7 2 150.6707 -1.2183 
3 7 3 52.4188 0.0782 
3 7 4 -4.6166 0.2089 
3 7 5 70.3368 0.0998 
3 7 6 -66.0021 -0.1184 
3 7 7 56.9194 0.3184 
3 7 8 6.8181 0.0648 
3 7 9 -12.4515 -0.4349 
3 7 10 -2.3635 -0.1213 
3 7 11 26.2632 0.3885 
3 7 12 24.3249 0.5330 
3 7 13 -9.2118 -0.3106 
3 7 14 12.2013 -0.2152 
3 7 15 -5.2788 -0.1515 
3 7 16 -4.4016 0.1059 
3 7 17 -14.6887 -0.0829 
3 7 18 2.2940 -0.1247 
3 7 19 15.5535 0.1803 
3 7 20 8.5464 0.2408 
3 7 21 -4.0629 -0.0411 
3 7 22 -3.2505 0.3106 
3 9 0 -84.9536 -0.3590 
3 9 1 89.0403 0.3019 
3 9 2 138.5781 -0.2761 
3 9 3 -40.6793 0.5614 
3 9 4 23.0249 -0.3139 
3 9 5 7.5229 -0.2045 
3 9 6 -0.1397 -0.1915 
3 9 7 -8.7432 0.2005 
3 9 8 -36.0017 0.1596 
3 9 9 -2.7754 0.0284 
3 9 10 4.8739 -0.1812 
3 9 11 -1.5830 -0.1031 
3 9 12 -12.5417 0.0016 
3 9 13 -13.7451 0.1101 
3 9 14 14.8219 0.1310 
3 9 15 10.6405 0.0661 
3 9 16 7.2443 -0.0919 
3 9 17 -10.5907 -0.2521 
3 9 18 6.3738 -0.0297 
3 9 19 5.3909 0.1333 
3 9 20 0.6387 -0.0226 
3 9 21 -1.1287 -0.1948 
3 9 22 -10.4886 0.2757 
3 11 0 30.9402 -0.3493 
3 11 1 -11.8108 0.3107 
3 11 2 44.4174 0.3825 
3 11 3 -3.1706 -0.1126 
3 11 4 28.1682 -0.4762 
3 11 5 16.9467 0.0153 
3 11 6 -18.7830 0.2663 
3 11 7 18.7736 -0.4204 
3 11 8 -22.2828 -0.0584 
3 11 9 -3.0791 0.0699 
3 11 10 9.9569 0.5902 
3 11 11 -4.1815 -0.1961 
3 11 12 10.7121 0.0503 
3 11 13 5.5015 -0.4570 
3 11 14 15.0692 0.1836 
3 11 15 -3.1638 0.1534 
3 11 16 13.9088 0.1777 
3 11 17 16.6955 -0.2859 
3 11 18 1.1881 0.0278 
3 11 19 5.8866 -0.1482 
3 11 20 16.5621 0.1369 
3 11 21 3.4248 0.0867 
3 13 0 15.0401 -0.5636 
3 13 1 -15.5729 0.1795 
3 13 2 9.4488 0.4469 
3 13 3 29.3531 0.1688 
3 13 4 -37.2269 -0.3539 
3 13 5 -33.6246 0.1475 
3 13 6 11.0853 -0.2540 
3 13 7 9.4824 -0.0108 
3 13 8 3.3407 -0.1171 
3 13 9 3.9752 0.3586 
3 13 10 1.1807 0.1573 
3 13 11 5.6085 -0.3854 
3 13 12 7.4301 0.0776 
3 13 13 -8.7356 0.1148 
3 13 14 -14.0518 0.2298 
3 13 15 -0.0063 -0.0359 
3 13 16 31.0846 0.0537 
3 13 17 -1.5899 -0.2707 
3 13 18 4.8533 0.1573 
3 13 19 9.7671 -0.3862 
3 13 20 -10.1797 -0.0012 
3 15 0 -16.9816 -0.1388 
3 15 1 -10.9414 0.2845 
3 15 2 10.2638 -0.2005 
3 15 3 -0.5427 -0.0327 
3 15 4 -15.7830 -0.3513 
3 15 5 -13.9500 0.5677 
3 15 6 7.3494 -0.0620 
3 15 7 -11.6720 -0.0755 
3 15 8 -17.5852 -0.3416 
3 15 9 16.2610 0.2410 
3 15 10 19.9122 -0.0359 
3 15 11 29.5018 0.0746 
3 15 12 18.2252 0.0224 
3 15 13 5.7566 0.1283 
3 15 14 5.9353 -0.2787 
3 15 15 4.8906 -0.0419 
3 15 16 13.0241 0.1018 
3 15 17 -2.6961 0.2248 
3 15 18 0.0825 0.1006 
3 15 19 9.4846 0.0917 
3 17 0 -6.6278 0.1954 
3 17 1 -8.6029 -0.3867 
3 17 2 15.7731 0.0620 
3 17 3 -22.5742 -0.0789 
3 17 4 13.1460 0.2276 
3 17 5 -6.3420 0.1010 
3 17 6 1.5500 -0.1297 
3 17 7 1.0227 0.0694 
3 17 8 8.9222 0.1384 
3 17 9 -0.8976 0.0698 
3 17 10 -6.0214 -0.3939 
3 17 11 -12.9776 -0.0903 
3 17 12 0.8734 0.3165 
3 17 13 -11.8814 0.2631 
3 17 14 4.5459 -0.0086 
3 17 15 -5.4032 -0.3575 
3 17 16 5.2022 -0.0615 
3 17 17 -10.0784 0.3483 
3 17 18 -13.7633 -0.3828 
3 19 0 12.9473 0.4278 
3 19 1 -29.6925 -0.1701 
3 19 2 -9.1121 -0.2168 
3 19 3 -1.6200 -0.2003 
3 19 4 14.7796 0.2193 
3 19 5 -5.9598 0.1098 
3 19 6 -1.7003 0.0788 
3 19 7 -6.8493 0.0985 
3 19 8 7.1850 -0.0738 
3 19 9 -15.0196 -0.2500 
3 19 10 -6.6050 -0.0720 
3 19 11 -18.3158 0.1469 
3 19 12 11.7361 0.0836 
3 19 13 -1.8260 -0.1701 
3 19 14 1.6449 0.0316 
3 19 15 4.5691 -0.2939 
3 19 16 -1.9089 0.5278 
3 21 0 10.8078 -0.0634 
3 21 1 0.4333 -0.1150 
3 21 2 16.9306 0.0152 
3 21 3 -8.7260 0.1714 
3 21 4 11.7380 0.0027 
3 21 5 -14.0870 -0.1308 
3 21 6 3.9673 -0.2156 
3 21 7 -7.8652 0.3390 
3 21 8 6.4547 0.0422 
3 21 9 -2.8237 0.0547 
3 21 10 -8.7182 -0.2684 
3 21 11 -4.8661 0.2478 
3 21 12 4.2357 -0.4470 
3 21 13 7.6506 0.1468 
3 21 14 14.2952 0.4652 
3 21 15 -3.2486 -0.1972 
3 23 0 -1.9220 0.0242 
3 23 1 -16.2447 0.0001 
3 23 2 14.4012 0.1202 
3 23 3 -6.1673 -0.0720 
3 23 4 9.4437 0.0744 
3 23 5 -8.3252 -0.2082 
3 23 6 -1.9191 0.1409 
3 23 7 5.7355 0.0115 
3 23 8 3.4057 -0.0892 
3 23 9 8.0086 0.1639 
3 23 10 -5.6775 0.0472 
3 23 11 -8.4672 0.7980 
3 23 12 3.8970 -1.1899 
3 25 0 4.5364 -0.2020 
3 25 1 9.5785 -0.0043 
3 25 2 10.9197 0.1814 
3 25 3 -11.6148 0.1331 
3 25 4 -4.2506 -0.0010 
3 25 5 1.1485 -0.4971 
3 25 6 10.8195 0.3559 
3 25 7 -3.8871 -0.2272 
3 25 8 -8.7480 0.4422 
3 25 9 -2.9458 -0.3605 
3 27 0 5.3909 -0.1958 
3 27 1 -8.5543 0.3105 
3 27 2 9.9901 0.0168 
3 27 3 0.8824 0.0434 
4 0 0 168.5061 -3.4163 
4 0 1 -151.8293 9.8293 
4 0 2 -97.7970 -0.0206 
4 0 4 -46.5539 -4.2214 
4 0 5 31.0565 -0.3400 
4 0 6 8.0656 -0.3593 
4 0 7 50.2852 1.3146 
4 0 8 4.1082 -0.7146 
4 0 9 -32.5680 0.7796 
4 0 10 -67.4109 -0.5329 
4 0 11 17.7104 1.0904 
4 0 12 0.5872 -1.5725 
4 0 13 -19.5870 -0.1148 
4 0 14 46.6875 -0.1217 
4 0 15 -0.9269 0.9825 
4 0 16 -0.0761 -0.5947 
4 0 17 2.7366 0.7718 
4 0 18 14.9969 0.1772 
4 0 19 4.1212 -0.4606 
4 0 20 7.4977 -1.4529 
4 0 21 0.8334 0.5267 
4 0 22 2.5558 1.3995 
4 0 23 0.5388 1.1908 
4 2 1 70.8273 1.3917 
4 2 2 9.7985 -0.9130 
4 2 3 -97.9779 0.1987 
4 2 4 -22.7908 0.8582 
4 2 5 -105.9370 0.2999 
4 2 6 -14.2838 -1.5162 
4 2 7 42.5483 -0.3315 
4 2 8 -18.5168 0.7478 
4 2 9 -15.5184 0.9686 
4 2 10 0.8683 0.2397 
4 2 11 8.7259 -0.1981 
4 2 12 6.6880 -1.1276 
4 2 13 -7.2106 -0.2427 
4 2 14 21.7179 0.4950 
4 2 15 1.8462 1.2005 
4 2 16 1.0431 -0.2856 
4 2 17 12.3953 -0.4791 
4 2 18 -1.0909 -0.1723 
4 2 19 -6.0243 0.4345 
4 2 20 8.9686 -0.1906 
4 2 21 -0.5101 0.0319 
4 2 22 2.1575 0.3386 
4 2 23 9.2923 -0.4251 
4 4 0 -190.0399 -0.2995 
4 4 1 13.2647 -0.0812 
4 4 2 86.8993 0.1165 
4 4 3 -107.9497 -0.6601 
4 4 4 143.5685 0.5965 
4 4 5 -2.9998 -0.5317 
4 4 6 -17.4817 0.2399 
4 4 7 -18.7230 0.6437 
4 4 8 -7.9223 0.6459 
4 4 9 7.2542 -1.0481 
4 4 10 -14.8379 -0.6942 
4 4 11 -25.6929 0.4916 
4 4 12 -4.7922 0.7698 
4 4 13 -2.5248 -0.0914 
4 4 14 21.8375 -0.5235 
4 4 15 12.2052 -0.0490 
4 4 16 -11.0796 0.1880 
4 4 17 7.7866 0.0856 
4 4 18 -2.1286 0.0641 
4 4 19 1.1365 0.2028 
4 4 20 22.2383 -0.2427 
4 4 21 4.3481 -0.0066 
4 4 22 13.3353 0.2319 
4 4 23 1.2261 -0.3673 
4 6 0 73.5927 -0.0512 
4 6 1 -103.5374 -0.9304 
4 6 2 -186.0168 -1.0781 
4 6 3 -83.3991 0.5257 
4 6 4 84.0313 0.4048 
4 6 5 -3.7212 0.4077 
4 6 6 -33.5689 -0.0167 
4 6 7 43.8815 -0.2941 
4 6 8 -32.8010 -0.0825 
4 6 9 3.4050 -0.1138 
4 6 10 -20.2305 -0.1755 
4 6 11 1.4378 0.3174 
4 6 12 26.9036 0.3781 
4 6 13 -13.1503 -0.1805 
4 6 14 1.6128 -0.1734 
4 6 15 3.5701 0.0565 
4 6 16 6.2175 -0.1316 
4 6 17 5.3462 -0.1491 
4 6 18 -15.0049 -0.2214 
4 6 19 -4.2295 0.4121 
4 6 20 7.0604 0.3946 
4 6 21 -8.1051 -0.1833 
4 6 22 11.0097 0.1350 
4 8 0 -84.2578 -0.1916 
4 8 1 47.6465 0.2332 
4 8 2 56.3704 0.1708 
4 8 3 12.1802 0.1719 
4 8 4 84.3918 -0.5618 
4 8 5 -124.4981 0.1848 
4 8 6 24.3493 0.0256 
4 8 7 -18.0631 0.5412 
4 8 8 -7.6804 -0.3199 
4 8 9 30.0681 0.0691 
4 8 10 -30.8759 -0.5642 
4 8 11 -16.4985 0.4484 
4 8 12 6.0137 0.0264 
4 8 13 -1.9082 0.4057 
4 8 14 10.2720 -0.4096 
4 8 15 -20.9644 -0.1778 
4 8 16 -1.4055 -0.0428 
4 8 17 3.7918 0.1560 
4 8 18 -7.8411 -0.0488 
4 8 19 -8.2416 0.0037 
4 8 20 -5.4719 -0.0912 
4 8 21 -11.7833 -0.1006 
4 8 22 -2.2644 0.1972 
4 10 0 -31.5068 -0.1517 
4 10 1 24.1958 0.1720 
4 10 2 74.4544 -0.0423 
4 10 3 -89.3026 0.2522 
4 10 4 59.2168 -0.4004 
4 10 5 -29.2449 0.1938 
4 10 6 4.2394 -0.1331 
4 10 7 -27.8517 -0.2221 
4 10 8 -6.8308 -0.0437 
4 10 9 -4.0819 0.4145 
4 10 10 -5.2082 0.4263 
4 10 11 -1.3812 -0.3514 
4 10 12 -16.7296 -0.5003 
4 10 13 1.8175 0.0891 
4 10 14 5.0395 -0.0108 
4 10 15 9.6516 0.2485 
4 10 16 8.1622 -0.1131 
4 10 17 -4.2582 -0.0276 
4 10 18 -6.4412 -0.1962 
4 10 19 -11.0138 -0.0193 
4 10 20 -10.3625 0.1153 
4 10 21 -13.5027 0.0892 
4 12 0 -6.1631 -0.2417 
4 12 1 9.5053 0.3090 
4 12 2 0.5469 0.7447 
4 12 3 -17.6351 -0.0021 
4 12 4 48.4963 -0.6525 
4 12 5 6.0463 -0.0832 
4 12 6 -12.5182 0.1991 
4 12 7 -14.0820 -0.0900 
4 12 8 21.5454 -0.0650 
4 12 9 11.4617 0.2235 
4 12 10 -7.6792 0.2226 
4 12 11 13.6929 -0.3813 
4 12 12 -0.6885 0.0067 
4 12 13 26.2794 0.1004 
4 12 14 5.4668 0.2271 
4 12 15 -13.3654 -0.0282 
4 12 16 -6.6145 -0.0092 
4 12 17 0.7191 -0.0436 
4 12 18 -1.8650 -0.0575 
4 12 19 1.3779 -0.4505 
4 12 20 -8.6051 -0.3588 
4 14 0 -4.8833 -0.0294 
4 14 1 4.5511 -0.0277 
4 14 2 -8.3025 0.0916 
4 14 3 6.8102 -0.0733 
4 14 4 17.6699 -0.0280 
4 14 5 -6.7504 0.2001 
4 14 6 -17.7766 -0.1785 
4 14 7 -10.6710 -0.0845 
4 14 8 25.1087 -0.1972 
4 14 9 3.0415 0.4366 
4 14 10 7.7026 -0.0461 
4 14 11 -3.7939 -0.0668 
4 14 12 13.4800 -0.1435 
4 14 13 16.3793 0.0404 
4 14 14 13.9161 -0.0284 
4 14 15 13.0099 0.0238 
4 14 16 -0.6554 0.0395 
4 14 17 -2.3051 0.1100 
4 14 18 -7.9600 -0.0293 
4 14 19 3.1151 -0.1434 
4 16 0 6.4987 0.1833 
4 16 1 -4.6977 -0.1802 
4 16 2 21.2233 0.1166 
4 16 3 20.4414 -0.1357 
4 16 4 17.0818 0.1473 
4 16 5 12.6404 -0.0348 
4 16 6 4.8037 0.0114 
4 16 7 4.6070 0.0877 
4 16 8 8.8712 -0.0745 
4 16 9 4.6974 -0.1314 
4 16 10 2.5565 -0.1687 
4 16 11 -5.6131 0.1640 
4 16 12 15.8385 0.2506 
4 16 13 2.7438 0.2101 
4 16 14 12.0262 -0.2148 
4 16 15 -2.8871 -0.1822 
4 16 16 -9.0340 -0.0601 
4 16 17 -6.9760 0.2391 
4 16 18 -11.0364 -0.2305 
4 18 0 9.9161 0.4034 
4 18 1 -7.7538 -0.5376 
4 18 2 18.7740 -0.1021 
4 18 3 -9.7100 -0.2186 
4 18 4 3.2708 0.5722 
4 18 5 -10.9895 -0.1021 
4 18 6 12.5324 0.2084 
4 18 7 -2.0451 -0.2169 
4 18 8 -1.9247 0.1632 
4 18 9 -1.7308 -0.3264 
4 18 10 4.2921 -0.0075 
4 18 11 -15.0746 0.2025 
4 18 12 -1.2471 0.0613 
4 18 13 -2.5381 -0.1771 
4 18 14 4.1585 0.1367 
4 18 15 0.4478 -0.2082 
4 18 16 -0.0426 0.2192 
4 18 17 6.5026 0.1253 
4 20 0 2.0111 0.0106 
4 20 1 -7.6382 0.0052 
4 20 2 13.2466 -0.1409 
4 20 3 -7.6312 0.0193 
4 20 4 2.0445 0.1796 
4 20 5 2.8137 -0.2254 
4 20 6 -1.8430 0.1205 
4 20 7 12.6159 -0.0523 
4 20 8 13.1361 0.3610 
4 20 9 -7.1206 -0.5289 
4 20 10 -8.5079 0.1269 
4 20 11 5.7799 -0.1127 
4 20 12 13.9053 -0.0859 
4 20 13 -2.3788 0.0112 
4 20 14 -3.8897 0.4047 
4 20 15 -3.1379 -0.0842 
4 22 0 -3.2592 -0.1295 
4 22 1 11.3966 0.0631 
4 22 2 15.1584 -0.0624 
4 22 3 -2.9132 0.1403 
4 22 4 4.4738 -0.1169 
4 22 5 8.9289 -0.0432 
4 22 6 -5.4719 -0.0327 
4 22 7 6.2004 -0.0009 
4 22 8 -7.1173 0.1049 
4 22 9 9.2922 -0.1888 
4 22 10 -3.6640 0.3158 
4 22 11 -7.5453 -0.0073 
4 22 12 -4.7703 -0.2382 
4 22 13 -22.9177 -0.3156 
4 24 0 3.0498 -0.1331 
4 24 1 4.0540 0.1591 
4 24 2 5.6498 0.1977 
4 24 3 -2.6989 0.0657 
4 24 4 -12.4583 -0.3190 
4 24 5 -0.6781 0.0035 
4 24 6 -5.2859 0.1229 
4 24 7 -13.1327 -0.3514 
4 24 8 -8.0936 0.6405 
4 24 9 4.0156 -0.3612 
4 24 10 -19.1316 0.3146 
4 26 0 -12.2755 -0.0431 
4 26 1 1.6598 0.2677 
4 26 2 6.9766 -0.0425 
4 26 3 -2.5702 -0.0439 
4 26 4 6.3997 -0.1914 
4 26 5 -7.5450 0.3627 
4 26 6 10.2282 -0.5869 
5 1 0 -56.3101 -2.2602 
5 1 1 -101.2783 2.1367 
5 1 2 -32.1135 1.2283 
5 1 3 -52.2510 1.0924 
5 1 4 69.7912 -1.0996 
5 1 5 53.1642 -0.7428 
5 1 6 -49.7454 0.3254 
5 1 7 -35.3770 -0.7146 
5 1 8 22.3464 -0.2868 
5 1 9 -13.8306 0.9677 
5 1 10 27.4466 0.9706 
5 1 11 19.0979 -1.0426 
5 1 12 5.6617 -1.4856 
5 1 13 -0.4310 0.2165 
5 1 14 -5.5078 0.9704 
5 1 15 5.4567 0.5094 
5 1 16 11.7167 -0.4613 
5 1 17 0.3198 0.0627 
5 1 18 20.1084 0.0908 
5 1 19 2.6080 -0.3834 
5 1 20 -2.9360 -0.2483 
5 1 21 2.9748 0.3200 
5 1 22 17.5572 0.6073 
5 1 23 3.3353 0.5008 
5 3 0 12.0108 0.3549 
5 3 1 -18.6414 -0.0197 
5 3 3 -174.8379 -1.0333 
5 3 4 -115.3266 0.3050 
5 3 5 -178.3619 -1.1120 
5 3 6 10.8565 0.8789 
5 3 7 -84.0642 -0.3044 
5 3 8 9.0585 0.5530 
5 3 9 52.2661 -0.5119 
5 3 10 -56.2691 0.2603 
5 3 11 18.1444 -0.1304 
5 3 12 12.2950 -0.1225 
5 3 13 6.7200 -0.1406 
5 3 14 14.5450 0.2462 
5 3 15 2.5635 -0.1468 
5 3 16 1.3308 0.2438 
5 3 17 8.8502 -0.0794 
5 3 18 -3.3337 0.0470 
5 3 19 5.2538 0.1697 
5 3 20 -0.9440 0.0605 
5 3 21 9.9605 0.0528 
5 3 22 12.4700 0.3946 
5 5 0 115.9115 -0.3217 
5 5 1 -209.5045 -0.2618 
5 5 2 -242.7444 -1.0576 
5 5 3 -187.7564 -0.2809 
5 5 4 -6.0437 1.0745 
5 5 5 44.5719 -0.0498 
5 5 6 -16.3756 0.3761 
5 5 7 -52.0472 -0.6149 
5 5 8 25.3518 0.4784 
5 5 9 -9.7712 -0.7514 
5 5 10 -1.4280 0.3547 
5 5 11 -12.8949 -0.1335 
5 5 12 -35.6622 0.5052 
5 5 13 -8.3270 -0.2413 
5 5 14 -7.2310 -0.1489 
5 5 15 -1.1243 -0.1329 
5 5 16 -9.9199 0.0664 
5 5 17 14.5099 -0.1148 
5 5 18 5.0072 -0.0578 
5 5 19 -0.9480 0.2116 
5 5 20 9.3151 0.2732 
5 5 21 -16.0088 -0.0443 
5 5 22 7.7458 0.0749 
5 7 0 -15.8341 0.1379 
5 7 1 -128.9073 -0.4853 
5 7 2 -122.3597 -0.6330 
5 7 3 87.2917 0.4079 
5 7 4 47.7972 0.0125 
5 7 5 4.6088 0.3410 
5 7 6 -3.1324 0.0546 
5 7 7 28.7971 0.1304 
5 7 8 62.2486 0.1115 
5 7 9 -20.8466 -0.3924 
5 7 10 -13.6024 -0.3503 
5 7 11 2.9896 0.0226 
5 7 12 6.1906 0.9023 
5 7 13 -29.2627 -0.1175 
5 7 14 10.7007 -0.2429 
5 7 15 12.3146 -0.2442 
5 7 16 7.1332 0.0570 
5 7 17 3.4923 0.0080 
5 7 18 -6.1739 0.0740 
5 7 19 -7.5218 -0.0564 
5 7 20 1.6580 0.1052 
5 7 21 -4.2184 -0.2612 
5 7 22 6.5349 0.1821 
5 9 0 23.0595 0.1455 
5 9 1 4.9017 -0.3659 
5 9 2 43.2376 0.1665 
5 9 3 17.1798 0.0946 
5 9 4 -14.0987 -0.3036 
5 9 5 10.2006 0.2861 
5 9 6 20.1827 -0.0753 
5 9 7 11.1655 -0.1201 
5 9 8 -7.1559 -0.0173 
5 9 9 8.9087 0.4170 
5 9 10 -1.4462 0.0162 
5 9 11 -15.4397 0.0341 
5 9 12 -2.9679 -0.0487 
5 9 13 -19.0219 -0.1652 
5 9 14 0.0840 -0.1351 
5 9 15 5.5058 -0.0101 
5 9 16 -3.7803 0.0481 
5 9 17 -5.9511 -0.1073 
5 9 18 -9.2253 -0.0391 
5 9 19 -1.0616 0.0201 
5 9 20 5.3020 0.0808 
5 9 21 16.0600 0.0828 
5 11 0 -43.7713 -0.1319 
5 11 1 6.0625 0.0523 
5 11 2 5.4522 0.6876 
5 11 3 30.1655 -0.0910 
5 11 4 46.5884 -0.2825 
5 11 5 39.5460 -0.3516 
5 11 6 5.1876 -0.0283 
5 11 7 21.7552 0.1277 
5 11 8 -19.0076 0.1150 
5 11 9 -1.7315 0.2279 
5 11 10 -8.3510 0.0953 
5 11 11 1.9203 -0.3589 
5 11 12 11.9004 -0.0303 
5 11 13 -0.1084 0.1040 
5 11 14 0.1387 0.2769 
5 11 15 0.7367 -0.0516 
5 11 16 1.8806 0.0014 
5 11 17 0.7909 -0.2154 
5 11 18 -9.2602 0.0613 
5 11 19 1.9175 -0.3183 
5 11 20 12.4442 -0.4267 
5 13 0 -35.9066 -0.1042 
5 13 1 38.3415 0.0581 
5 13 2 11.4384 0.2420 
5 13 3 19.6406 0.1350 
5 13 4 33.4023 -0.4716 
5 13 5 -9.6254 0.0566 
5 13 6 2.1523 -0.0085 
5 13 7 -1.5818 0.1028 
5 13 8 -10.6773 -0.3566 
5 13 9 0.6711 0.4450 
5 13 10 12.6874 0.2004 
5 13 11 8.2362 -0.0431 
5 13 12 1.2761 -0.3725 
5 13 13 -20.9081 -0.1394 
5 13 14 15.9532 0.2783 
5 13 15 -0.3892 -0.0313 
5 13 16 6.7871 0.2799 
5 13 17 -10.4900 -0.0929 
5 13 18 10.4340 0.0023 
5 13 19 -0.0063 -0.3846 
5 13 20 -4.3109 -0.1797 
5 15 0 -4.6066 -0.3791 
5 15 1 6.6804 0.2989 
5 15 2 2.4711 -0.1257 
5 15 3 -5.6976 0.3384 
5 15 4 4.1220 -0.2624 
5 15 5 8.9130 -0.0259 
5 15 6 -10.8581 -0.0153 
5 15 7 12.7172 0.1767 
5 15 8 20.9039 -0.2632 
5 15 9 13.5592 0.1566 
5 15 10 8.3692 -0.3525 
5 15 11 5.9455 0.3777 
5 15 12 -0.7651 -0.1838 
5 15 13 -14.8133 0.3299 
5 15 14 22.1638 0.0004 
5 15 15 -13.3799 -0.1607 
5 15 16 0.9596 -0.1652 
5 15 17 6.5017 0.0326 
5 15 18 -4.8661 -0.0456 
5 15 19 -10.7428 -0.0443 
5 17 0 3.0653 0.3008 
5 17 1 6.3685 -0.2728 
5 17 2 23.8603 -0.3843 
5 17 3 7.6388 -0.0168 
5 17 4 4.5621 0.3664 
5 17 5 0.2654 0.2032 
5 17 6 -2.7083 -0.0239 
5 17 7 11.7181 -0.0405 
5 17 8 18.7387 -0.2465 
5 17 9 4.9860 -0.0574 
5 17 10 -1.4841 -0.0270 
5 17 11 7.4379 0.3672 
5 17 12 5.8284 -0.1233 
5 17 13 -8.6001 0.0735 
5 17 14 -4.0588 -0.2490 
5 17 15 -4.8464 0.1983 
5 17 16 -1.4451 -0.1054 
5 17 17 3.6024 0.2145 
5 19 0 14.8645 -0.0001 
5 19 1 -13.6800 -0.0910 
5 19 2 3.1101 -0.0794 
5 19 3 0.1702 0.0351 
5 19 4 -13.1393 0.2615 
5 19 5 -9.6682 -0.1657 
5 19 6 6.6592 0.1107 
5 19 7 -8.1367 -0.0299 
5 19 8 -3.7919 0.2882 
5 19 9 5.5239 -0.3761 
5 19 10 3.5154 -0.0794 
5 19 11 15.5598 -0.0316 
5 19 12 13.8189 0.0291 
5 19 13 2.2390 0.1389 
5 19 14 -7.5088 0.0159 
5 19 15 21.0848 0.0282 
5 19 16 8.7194 -0.5652 
5 21 0 32.5955 0.0069 
5 21 1 8.4182 0.1575 
5 21 2 6.8681 -0.1986 
5 21 3 4.7274 -0.0272 
5 21 4 0.3216 0.0622 
5 21 5 10.5967 0.2124 
5 21 6 -0.3183 -0.1878 
5 21 7 -10.9235 -0.0718 
5 21 8 -0.4737 0.1417 
5 21 9 11.1881 -0.2090 
5 21 10 -11.9774 0.2437 
5 21 11 2.5115 -0.1066 
5 21 12 -1.9521 -0.2274 
5 21 13 6.9261 -0.1905 
5 21 14 9.1367 0.0984 
5 23 0 5.3763 -0.0854 
5 23 1 -7.5283 0.1668 
5 23 2 -4.1560 0.2470 
5 23 3 5.4071 -0.0752 
5 23 4 2.5502 -0.1530 
5 23 5 12.0081 -0.0573 
5 23 6 -9.9939 -0.1616 
5 23 7 -0.8677 0.2814 
5 23 8 -9.5921 0.0723 
5 23 9 -3.5370 0.1738 
5 23 10 -5.8735 -0.3600 
5 23 11 -15.4490 -0.5800 
5 25 0 0.9935 0.0545 
5 25 1 -6.8113 0.0978 
5 25 2 -7.6674 0.1889 
5 25 3 -15.0612 -0.2434 
5 25 4 2.1367 -0.0711 
5 25 5 -7.5372 0.1087 
5 25 6 6.9874 0.2192 
5 25 7 -12.3901 -0.4064 
5 25 8 -8.0897 -0.0803 
5 27 0 -4.9462 -0.2708 
5 27 1 1.7564 0.1004 
5 27 2 3.8468 0.0433 
6 0 0 49.1512 -10.0223 
6 0 1 -140.1391 6.0120 
6 0 2 -42.8009 1.4164 
6 0 3 54.7822 1.5849 
6 0 4 -213.6367 -1.8352 
6 0 5 -0.6156 1.4614 
6 0 6 -61.9795 -2.6435 
6 0 7 -40.7199 -0.3436 
6 0 8 98.1427 0.5916 
6 0 9 5.4724 4.4907 
6 0 10 0.1804 -1.1718 
6 0 11 6.3622 -2.5090 
6 0 12 -11.7248 -2.4286 
6 0 13 -17.0768 1.7790 
6 0 14 0.1499 1.3955 
6 0 15 11.0070 0.6134 
6 0 16 4.6028 -0.9303 
6 0 17 -9.9656 -0.4093 
6 0 18 -12.4032 -0.2094 
6 0 19 4.9947 0.1970 
6 0 20 7.6844 -0.1336 
6 0 21 3.5423 0.1573 
6 0 22 -11.5427 0.1920 
6 2 0 -48.6099 -0.0037 
6 2 1 104.2030 2.4811 
6 2 2 81.6697 0.5331 
6 2 3 66.2169 -0.6491 
6 2 4 -41.4958 -1.9856 
6 2 5 32.1935 2.0046 
6 2 6 -6.5726 0.0156 
6 2 7 -65.5146 -0.2166 
6 2 8 -18.9920 -0.7766 
6 2 9 -32.4268 0.8141 
6 2 10 15.1517 -0.1216 
6 2 11 -16.3468 -0.2693 
6 2 12 -14.9572 -0.0833 
6 2 13 -24.0031 0.1551 
6 2 14 -14.9749 -0.2593 
6 2 15 -6.4037 -0.0366 
6 2 16 2.6571 0.3869 
6 2 17 11.6734 0.2885 
6 2 18 -5.6658 -0.4841 
6 2 19 14.0220 -0.2109 
6 2 20 2.3644 0.0907 
6 2 21 -5.7792 0.4246 
6 2 22 3.1046 0.4043 
6 4 0 -129.6843 0.3676 
6 4 1 33.0830 -1.2538 
6 4 2 33.7611 -0.0194 
6 4 3 -46.1598 0.4629 
6 4 4 -132.1030 0.4725 
6 4 5 -3.7055 0.0386 
6 4 6 0.1076 -0.3897 
6 4 7 -10.8476 -0.4155 
6 4 8 29.8590 0.4114 
6 4 9 -15.1581 0.4603 
6 4 10 1.4164 -0.2113 
6 4 11 12.7046 -0.4594 
6 4 12 11.0711 0.2563 
6 4 13 -14.5371 0.1487 
6 4 14 -12.1730 0.0179 
6 4 15 -0.1960 -0.3646 
6 4 16 8.0940 0.1332 
6 4 17 4.0331 -0.2756 
6 4 18 -13.1217 -0.0873 
6 4 19 -8.3238 0.3994 
6 4 20 8.8404 0.2466 
6 4 21 -4.0288 0.1222 
6 4 22 7.7610 0.0569 
6 6 0 -95.8183 0.4536 
6 6 1 5.1204 -0.1496 
6 6 2 -46.8679 -0.9657 
6 6 3 -22.0523 -0.0303 
6 6 4 -4.8859 0.3060 
6 6 5 44.6670 0.3508 
6 6 6 36.6053 0.0794 
6 6 7 9.8376 0.5865 
6 6 8 43.0600 -0.4610 
6 6 9 34.7037 -0.4862 
6 6 10 3.9752 -0.2404 
6 6 11 20.1802 0.3904 
6 6 12 4.8243 0.6850 
6 6 13 -25.7413 -0.1456 
6 6 14 -6.0944 -0.5936 
6 6 15 -21.5785 -0.1156 
6 6 16 -8.5199 0.3942 
6 6 17 2.0255 0.0739 
6 6 18 11.2835 -0.0178 
6 6 19 -15.5606 -0.0914 
6 6 20 -10.2188 -0.0172 
6 6 21 -9.3816 -0.0348 
6 6 22 -0.7548 0.3663 
6 8 0 -31.8738 0.5289 
6 8 1 21.8112 -1.2301 
6 8 2 28.3598 -0.4185 
6 8 3 -38.1967 0.6207 
6 8 4 10.0826 0.1977 
6 8 5 -42.1969 0.1207 
6 8 6 22.8983 -0.4912 
6 8 7 2.8907 0.5983 
6 8 8 16.1949 -0.4444 
6 8 9 7.6272 0.3304 
6 8 10 -4.7894 -0.1564 
6 8 11 21.1767 0.3956 
6 8 12 1.3904 -0.2938 
6 8 13 -12.1380 0.1368 
6 8 14 12.1691 -0.2188 
6 8 15 -0.2765 0.2081 
6 8 16 7.6106 -0.2297 
6 8 17 -7.8745 -0.1837 
6 8 18 -20.3004 0.1494 
6 8 19 -17.3966 0.1872 
6 8 20 4.4333 0.1703 
6 8 21 16.0900 -0.0007 
6 10 0 34.9670 0.3383 
6 10 1 -21.0599 -0.1863 
6 10 2 -24.3927 0.9288 
6 10 3 -26.0078 -0.3543 
6 10 4 15.5081 -0.2490 
6 10 5 29.9110 -0.4412 
6 10 6 -1.7424 0.4294 
6 10 7 20.5917 0.1128 
6 10 8 -17.1008 -0.0893 
6 10 9 -15.1315 -0.0591 
6 10 10 1.6622 -0.0117 
6 10 11 -7.9697 0.1688 
6 10 12 -0.8158 -0.1563 
6 10 13 9.9066 0.2051 
6 10 14 15.0010 -0.0154 
6 10 15 -2.9766 0.1986 
6 10 16 -9.5977 -0.3642 
6 10 17 -11.9522 0.1156 
6 10 18 13.5777 -0.0737 
6 10 19 5.4271 -0.1432 
6 10 20 1.2997 -0.4007 
6 12 0 -18.0725 -0.1096 
6 12 1 -16.8911 -0.1432 
6 12 2 -19.1624 0.6016 
6 12 3 24.2225 -0.3713 
6 12 4 4.1956 0.1123 
6 12 5 0.0909 -0.4461 
6 12 6 17.0162 0.1543 
6 12 7 -1.6794 -0.3281 
6 12 8 -15.8670 0.2688 
6 12 9 2.2204 0.2543 
6 12 10 -9.7141 0.2411 
6 12 11 11.8292 -0.2599 
6 12 12 9.2896 -0.4297 
6 12 13 1.0117 -0.0266 
6 12 14 12.7102 0.3963 
6 12 15 -8.1847 0.1225 
6 12 16 29.3830 -0.0581 
6 12 17 7.1863 -0.0147 
6 12 18 3.8582 0.0369 
6 12 19 -7.9711 -0.0248 
6 12 20 -9.9237 -0.4700 
6 14 0 -0.0149 -0.0181 
6 14 1 -6.7689 0.3742 
6 14 2 -12.4986 0.1743 
6 14 3 -7.9100 -0.0811 
6 14 4 1.7678 -0.2690 
6 14 5 -17.0717 -0.0571 
6 14 6 16.4549 0.1323 
6 14 7 10.5406 -0.0545 
6 14 8 -0.4011 -0.0660 
6 14 9 -8.1075 0.0126 
6 14 10 -0.9470 -0.0031 
6 14 11 0.3356 0.1217 
6 14 12 7.6088 -0.1400 
6 14 13 -5.1562 0.1217 
6 14 14 9.4616 0.0847 
6 14 15 -7.6637 -0.0974 
6 14 16 -3.1670 0.0230 
6 14 17 -9.6573 0.0114 
6 14 18 2.1089 -0.1772 
6 14 19 6.8735 -0.2309 
6 16 0 15.2020 0.0214 
6 16 1 20.0682 -0.2391 
6 16 2 -5.8698 -0.2747 
6 16 3 -7.3444 0.1183 
6 16 4 -12.0244 0.2802 
6 16 5 6.0267 0.0801 
6 16 6 5.7035 -0.0618 
6 16 7 -19.6470 -0.2137 
6 16 8 0.2274 0.0704 
6 16 9 -20.7938 0.0278 
6 16 10 1.9509 -0.1365 
6 16 11 -14.7128 0.1270 
6 16 12 -7.1261 0.0037 
6 16 13 7.3295 0.0616 
6 16 14 -4.7693 -0.1197 
6 16 15 -4.3749 0.1028 
6 16 16 -0.9361 0.0098 
6 16 17 -1.5951 0.2547 
6 16 18 -0.8786 0.1206 
6 18 0 3.4373 0.2052 
6 18 1 4.4912 -0.1680 
6 18 2 -5.2293 -0.2027 
6 18 3 -9.4170 -0.0461 
6 18 4 13.0133 0.3578 
6 18 5 7.2929 -0.1191 
6 18 6 3.5482 0.1165 
6 18 7 -15.3292 -0.0227 
6 18 8 -2.9529 0.1123 
6 18 9 4.4089 -0.2819 
6 18 10 24.6680 -0.1484 
6 18 11 -8.3685 0.1953 
6 18 12 1.4007 0.3260 
6 18 13 12.2612 -0.0857 
6 18 14 -0.8741 -0.0783 
6 18 15 4.3313 -0.2112 
6 18 16 5.2133 0.0357 
6 20 0 14.0125 -0.0867 
6 20 1 7.3200 0.0141 
6 20 2 -6.0454 -0.1941 
6 20 3 -17.9643 0.1476 
6 20 4 9.9325 0.1672 
6 20 5 -5.3480 0.0792 
6 20 6 -4.1919 -0.1300 
6 20 7 -0.7957 -0.0683 
6 20 8 7.5310 0.2178 
6 20 9 -0.2147 -0.2413 
6 20 10 -2.6643 0.2976 
6 20 11 2.9063 -0.1790 
6 20 12 0.2318 -0.0496 
6 20 13 -2.5359 -0.0704 
6 20 14 -14.1150 -0.3145 
6 22 0 -2.9956 -0.1870 
6 22 1 -0.7276 0.2918 
6 22 2 6.1936 0.0564 
6 22 3 22.6217 -0.0074 
6 22 4 9.2001 -0.3241 
6 22 5 -1.4536 0.2033 
6 22 6 -0.8896 -0.1880 
6 22 7 0.8157 0.3565 
6 22 8 8.2631 -0.1397 
6 22 9 -5.0741 0.1553 
6 22 10 6.9741 -0.1593 
6 22 11 7.1491 -0.4206 
6 22 12 0.4912 0.2587 
6 24 0 7.3176 -0.0487 
6 24 1 3.0606 0.1444 
6 24 2 12.4762 0.1632 
6 24 3 -11.6183 -0.1837 
6 24 4 -3.6619 -0.0517 
6 24 5 -1.9783 0.0277 
6 24 6 -6.9443 -0.0080 
6 24 7 -6.6803 -0.0953 
6 24 8 6.4677 -0.0904 
6 24 9 -7.8682 0.5836 
6 26 0 -3.4359 -0.1825 
6 26 1 12.8504 0.2589 
6 26 2 13.7821 0.1989 
6 26 3 -15.6274 -0.1837 
6 26 4 24.4767 -0.1700 
6 26 5 5.5123 -0.3673 
7 1 0 2.4888 1.4336 
7 1 1 48.7991 1.9635 
7 1 2 -60.4940 0.0812 
7 1 3 -57.7479 -0.0573 
7 1 4 8.2380 -1.7216 
7 1 5 -92.9178 0.9858 
7 1 6 -4.9288 -0.9347 
7 1 7 -6.3601 1.1378 
7 1 8 -24.0924 -0.3809 
7 1 9 -27.1016 1.4105 
7 1 10 -22.0731 -0.5231 
7 1 11 21.3651 -0.5849 
7 1 12 6.7085 -0.9135 
7 1 13 -2.6458 0.4558 
7 1 14 13.0004 0.7852 
7 1 15 -5.4305 0.3324 
7 1 16 3.0192 -0.3679 
7 1 17 10.1389 -0.0866 
7 1 18 6.1345 -0.0569 
7 1 19 -22.3795 -0.1483 
7 1 20 -8.4510 -0.1898 
7 1 21 -14.0758 0.5302 
7 1 22 -14.2471 0.3400 
7 3 0 92.8791 1.0431 
7 3 1 -14.7832 -1.0415 
7 3 2 -111.8597 0.2094 
7 3 5 98.7854 -0.0945 
7 3 6 -19.3835 -0.2032 
7 3 7 -86.6012 -0.0977 
7 3 8 5.1527 0.0532 
7 3 9 4.8344 0.1675 
7 3 10 -26.2569 -0.1393 
7 3 11 -13.9718 -0.0654 
7 3 12 -0.5994 0.2278 
7 3 13 -23.8756 -0.2347 
7 3 14 -2.7927 0.4046 
7 3 15 -5.9630 -0.2224 
7 3 16 1.3667 0.0538 
7 3 17 9.3456 -0.2369 
7 3 18 10.4654 -0.0190 
7 3 19 -3.5504 -0.0280 
7 3 20 0.4308 -0.0313 
7 3 21 17.0344 0.2381 
7 3 22 -10.8729 0.3653 
7 5 0 49.7759 0.0696 
7 5 1 -46.3070 -0.7128 
7 5 2 -10.0538 -0.0079 
7 5 3 7.7304 0.2498 
7 5 4 23.4271 0.1824 
7 5 5 19.6447 -0.4136 
7 5 6 -6.3646 0.6460 
7 5 7 -28.4824 -0.0354 
7 5 8 3.2440 0.2433 
7 5 9 17.3441 -0.9617 
7 5 10 3.8743 0.2300 
7 5 11 -17.6295 0.1948 
7 5 12 4.9448 0.6215 
7 5 13 3.4572 -0.3711 
7 5 14 -10.7896 -0.2909 
7 5 15 -0.7729 -0.2128 
7 5 16 11.1891 0.3445 
7 5 17 -8.5147 -0.0157 
7 5 18 -2.5414 0.0793 
7 5 19 -18.2819 -0.0766 
7 5 20 -1.7171 -0.0086 
7 5 21 11.2844 0.0393 
7 7 0 5.0806 -0.2539 
7 7 1 -87.8550 -0.7588 
7 7 2 22.9434 -0.6233 
7 7 3 -2.3621 0.3236 
7 7 4 1.7215 0.3028 
7 7 5 -60.8260 0.3118 
7 7 6 37.0391 -0.1223 
7 7 7 -54.0315 -0.0878 
7 7 8 10.7100 -0.1302 
7 7 9 9.3751 0.0393 
7 7 10 -6.8112 0.2476 
7 7 11 -8.6811 0.0040 
7 7 12 -8.7269 0.0700 
7 7 13 -11.7914 -0.1879 
7 7 14 -1.8200 -0.1535 
7 7 15 -12.7133 -0.0046 
7 7 16 1.0038 0.0054 
7 7 17 -21.7834 -0.0865 
7 7 18 -5.8011 0.1186 
7 7 19 4.4193 0.1928 
7 7 20 5.5494 0.1182 
7 7 21 7.6558 0.0453 
7 9 0 9.4815 0.0928 
7 9 1 -38.7896 -0.0173 
7 9 2 -50.4559 0.2312 
7 9 3 -25.7125 -0.2495 
7 9 4 -77.9706 0.1063 
7 9 5 -2.9880 -0.1084 
7 9 6 9.0376 0.3034 
7 9 7 -35.5446 0.2052 
7 9 8 -10.3533 -0.1524 
7 9 9 -21.4726 -0.1575 
7 9 10 -14.2783 -0.0333 
7 9 11 -29.0397 0.0259 
7 9 12 -3.9112 0.0589 
7 9 13 -0.1720 0.1783 
7 9 14 -11.8599 -0.0296 
7 9 15 -12.9327 -0.0125 
7 9 16 6.8732 -0.1733 
7 9 17 -2.7620 -0.0565 
7 9 18 13.5790 -0.0242 
7 9 19 3.9546 -0.0943 
7 9 20 -4.4611 -0.1776 
7 11 0 10.7376 0.2009 
7 11 1 26.5362 0.0818 
7 11 2 -85.4604 0.3193 
7 11 3 1.1403 -0.2635 
7 11 4 -4.5784 0.0564 
7 11 5 12.7750 -0.2302 
7 11 6 10.2945 0.2395 
7 11 7 11.3292 -0.4367 
7 11 8 17.8344 0.4736 
7 11 9 -0.2848 0.0658 
7 11 10 21.8338 0.2036 
7 11 11 13.0655 -0.4066 
7 11 12 0.6239 -0.2786 
7 11 13 1.6248 -0.0345 
7 11 14 0.4047 0.3790 
7 11 15 -2.5808 -0.0040 
7 11 16 20.8909 -0.0211 
7 11 17 -5.7609 -0.0634 
7 11 18 9.2316 -0.0018 
7 11 19 -9.7381 -0.0418 
7 11 20 -3.5488 -0.2974 
7 13 0 3.8096 -0.0785 
7 13 1 -9.1157 0.4682 
7 13 2 -27.9658 0.1615 
7 13 3 15.5084 -0.1238 
7 13 4 14.0185 -0.3467 
7 13 5 -5.7661 0.0214 
7 13 6 11.3449 -0.0007 
7 13 7 -6.7692 -0.1314 
7 13 8 10.4168 0.3059 
7 13 9 -4.6183 -0.1298 
7 13 10 4.2681 -0.0661 
7 13 11 0.6536 -0.0870 
7 13 12 1.1331 0.1138 
7 13 13 -10.5209 -0.0537 
7 13 14 20.5091 0.2363 
7 13 15 -2.5385 -0.1153 
7 13 16 20.7295 -0.0717 
7 13 17 -3.2671 -0.0601 
7 13 18 4.8651 -0.1436 
7 13 19 -3.4581 -0.2127 
7 15 0 31.3594 -0.1574 
7 15 1 -11.4771 0.2030 
7 15 2 -0.7958 -0.3475 
7 15 3 8.7991 0.1859 
7 15 4 14.5104 0.2052 
7 15 5 -0.8741 0.0491 
7 15 6 -14.1238 -0.3017 
7 15 7 5.6918 -0.0500 
7 15 8 11.0042 0.1543 
7 15 9 -12.6524 0.0611 
7 15 10 -4.0119 -0.0810 
7 15 11 -14.4953 0.1470 
7 15 12 7.8824 -0.1315 
7 15 13 -2.9941 -0.1355 
7 15 14 13.4596 -0.0513 
7 15 15 -3.9560 0.2473 
7 15 16 4.6874 0.0473 
7 15 17 8.2906 0.2226 
7 15 18 2.2909 -0.0065 
7 17 0 -0.2576 0.0433 
7 17 1 7.1409 -0.1603 
7 17 2 2.1123 -0.2536 
7 17 3 6.9576 0.2372 
7 17 4 20.2133 -0.0400 
7 17 5 4.4107 0.0176 
7 17 6 -1.2812 -0.0760 
7 17 7 6.1425 0.1925 
7 17 8 -16.3108 -0.0429 
7 17 9 -3.4975 -0.2855 
7 17 10 17.3343 -0.1615 
7 17 11 1.4565 0.2359 
7 17 12 11.1036 0.3898 
7 17 13 3.9663 -0.0749 
7 17 14 -7.9696 -0.2229 
7 17 15 4.7765 0.0692 
7 17 16 -4.4438 -0.1162 
7 19 0 -6.1702 0.0361 
7 19 1 14.6789 -0.2839 
7 19 2 2.2814 -0.1850 
7 19 3 -3.1379 0.2093 
7 19 4 2.4239 0.1752 
7 19 5 -0.8211 0.1335 
7 19 6 4.5271 -0.1760 
7 19 7 4.1552 -0.0752 
7 19 8 -8.8508 -0.0914 
7 19 9 11.4815 0.0944 
7 19 10 0.6279 0.0791 
7 19 11 -3.9586 -0.0256 
7 19 12 2.7948 0.1723 
7 19 13 0.9968 -0.2503 
7 19 14 1.8388 0.0382 
7 19 15 7.6351 0.1981 
7 21 0 -6.5287 -0.0452 
7 21 1 -2.1511 0.1890 
7 21 2 4.0564 0.0829 
7 21 3 4.3766 0.0944 
7 21 4 -21.1083 -0.4018 
7 21 5 15.8870 0.2304 
7 21 6 -11.1024 -0.1295 
7 21 7 -0.5503 0.3513 
7 21 8 19.2951 -0.3335 
7 21 9 11.1888 0.3067 
7 21 10 5.8475 -0.2297 
7 21 11 0.4858 -0.3290 
7 21 12 -6.3558 0.4079 
7 21 13 7.0785 -0.0029 
7 23 0 -23.0682 -0.0508 
7 23 1 -6.8422 0.1107 
7 23 2 -8.5262 0.1580 
7 23 3 1.2556 -0.1640 
7 23 4 -15.0927 -0.1525 
7 23 5 18.9395 0.1048 
7 23 6 -6.0840 -0.0402 
7 23 7 -2.5407 0.0700 
7 23 8 6.9206 -0.6595 
7 23 9 0.3426 1.1421 
7 23 10 12.1016 -0.3816 
7 25 0 -0.3341 0.0128 
7 25 1 1.8785 0.2133 
7 25 2 11.1878 0.3569 
7 25 3 -6.9485 -0.3754 
7 25 4 4.5661 -0.1112 
7 25 5 -5.7946 -0.2000 
7 25 6 -2.8067 0.3709 
7 25 7 -14.0022 -0.2209 
8 0 0 -199.1557 -2.5374 
8 0 1 -202.8172 7.4911 
8 0 2 -141.0273 -1.2529 
8 0 3 -87.2788 -1.0924 
8 0 4 -0.1677 -3.6218 
8 0 5 14.5493 1.9208 
8 0 6 -21.7354 1.2765 
8 0 7 -72.9497 0.4033 
8 0 8 14.4858 -2.8994 
8 0 9 28.6639 2.0666 
8 0 10 -8.8497 0.8133 
8 0 11 24.6150 -0.2295 
8 0 12 15.2130 -2.5113 
8 0 13 7.1598 1.3512 
8 0 14 -25.8630 0.8237 
8 0 15 9.0586 0.4356 
8 0 16 1.0753 -0.5074 
8 0 17 -18.2217 0.3321 
8 0 18 12.8426 -0.5117 
8 0 19 5.9276 -0.7273 
8 0 20 2.7210 0.0354 
8 0 21 15.8403 1.6636 
8 2 0 -95.9044 -0.3481 
8 2 1 113.0138 1.1561 
8 2 2 36.6148 -0.1870 
8 2 3 16.5780 1.4854 
8 2 4 -98.6287 -1.9023 
8 2 5 -82.9444 -0.3032 
8 2 6 -30.8618 -0.2973 
8 2 7 -44.2452 0.8933 
8 2 8 6.8754 -0.2563 
8 2 9 35.6377 0.8881 
8 2 10 14.1980 -0.4523 
8 2 11 0.4615 -0.8774 
8 2 12 27.0603 -0.8153 
8 2 13 13.5138 1.2919 
8 2 14 -5.3454 0.4941 
8 2 15 -8.3080 -0.1423 
8 2 16 -2.8706 -0.7788 
8 2 17 -11.5257 0.3992 
8 2 18 -11.2445 0.1860 
8 2 19 -0.5608 -0.1955 
8 2 20 -13.8957 0.0103 
8 2 21 10.0730 0.0530 
8 4 0 -5.0432 0.9078 
8 4 1 213.1047 -0.4655 
8 4 2 27.5971 -0.4605 
8 4 3 14.8500 -0.0024 
8 4 4 -64.8505 -0.1799 
8 4 5 26.8443 0.2944 
8 4 6 7.2025 0.8160 
8 4 7 -17.8590 -0.1710 
8 4 8 -13.0259 -1.0106 
8 4 9 26.9208 -0.2083 
8 4 10 10.0256 0.4444 
8 4 11 -10.7999 0.5393 
8 4 12 19.8412 -0.2303 
8 4 13 -19.7547 -0.2505 
8 4 14 -8.1870 -0.1177 
8 4 15 -15.9214 0.1067 
8 4 16 0.4997 0.0871 
8 4 17 0.5543 0.2134 
8 4 18 0.8406 -0.0894 
8 4 19 5.0250 -0.3572 
8 4 20 -3.1852 0.0484 
8 4 21 -6.1017 0.0809 
8 6 0 -0.0747 -0.4214 
8 6 1 62.4756 -0.9125 
8 6 2 20.6070 -0.2752 
8 6 3 -76.0880 0.9698 
8 6 5 4.5964 -0.2174 
8 6 6 -28.5369 -0.5529 
8 6 7 -23.8343 0.4321 
8 6 8 -10.5533 -0.0214 
8 6 9 13.6987 0.0748 
8 6 10 -38.0124 -0.2525 
8 6 11 -2.4327 0.2608 
8 6 12 15.6914 0.1249 
8 6 13 -3.0953 -0.0302 
8 6 14 8.9505 -0.3035 
8 6 15 -7.0124 -0.1628 
8 6 16 1.7425 -0.0901 
8 6 17 4.0930 -0.0112 
8 6 18 20.3425 0.2626 
8 6 19 -12.8589 0.1865 
8 6 20 -0.5578 -0.0194 
8 6 21 -1.4842 0.2404 
8 8 0 -35.1902 0.2161 
8 8 1 -50.9822 -0.0545 
8 8 2 76.1895 -0.6674 
8 8 3 -25.2860 -0.0238 
8 8 4 -71.9295 0.0871 
8 8 5 -29.9583 0.5244 
8 8 6 -15.3470 -0.1357 
8 8 7 7.0916 0.2251 
8 8 8 -16.1375 -0.3856 
8 8 9 -23.6275 0.1391 
8 8 10 -29.2464 -0.3689 
8 8 11 12.7393 0.5682 
8 8 12 -17.9263 0.0398 
8 8 13 -15.9405 -0.0846 
8 8 14 -9.8741 -0.3318 
8 8 15 0.1025 0.2322 
8 8 16 11.8013 0.0487 
8 8 17 7.3286 -0.1691 
8 8 18 3.9646 -0.0399 
8 8 19 -5.5282 -0.1496 
8 8 20 9.4163 -0.1180 
8 10 0 18.2068 0.0083 
8 10 1 42.8407 -0.0586 
8 10 2 -23.9391 0.2083 
8 10 3 15.4747 -0.2818 
8 10 4 -54.9779 0.3441 
8 10 5 31.4740 -0.1893 
8 10 6 19.6834 0.0328 
8 10 7 11.4533 -0.0894 
8 10 8 -0.4361 0.5808 
8 10 9 2.4955 0.1509 
8 10 10 14.1027 -0.2512 
8 10 11 -11.8916 -0.1229 
8 10 12 4.8327 -0.1725 
8 10 13 -13.8035 0.0736 
8 10 14 -12.3498 0.1036 
8 10 15 4.0446 0.1335 
8 10 16 6.2517 -0.2508 
8 10 17 -5.9051 -0.0007 
8 10 18 0.7177 -0.0634 
8 10 19 -2.8517 0.1221 
8 10 20 0.2513 -0.0900 
8 12 0 29.5962 0.3165 
8 12 1 9.5963 0.5130 
8 12 2 -13.2202 0.1081 
8 12 3 21.9235 -0.5323 
8 12 4 9.2265 -0.0796 
8 12 5 15.1770 -0.0912 
8 12 6 12.9382 0.3259 
8 12 7 -11.7593 -0.2905 
8 12 8 8.0240 0.3979 
8 12 9 -7.8107 -0.1782 
8 12 10 16.0999 -0.0233 
8 12 11 -7.2758 -0.1793 
8 12 12 12.1093 0.0812 
8 12 13 -16.6431 0.0012 
8 12 14 -5.7302 0.1754 
8 12 15 -7.4680 0.0925 
8 12 16 -2.4764 -0.0893 
8 12 17 -22.5279 -0.1764 
8 12 18 3.5718 -0.3106 
8 12 19 9.2661 -0.0336 
8 14 0 15.2848 -0.3239 
8 14 1 -9.9928 0.1644 
8 14 2 19.5559 0.0685 
8 14 3 -11.0646 0.1243 
8 14 4 5.7632 -0.1725 
8 14 5 -9.5892 0.0285 
8 14 6 3.4551 -0.0380 
8 14 7 5.3560 -0.2219 
8 14 8 -17.2704 0.2997 
8 14 9 -12.1674 0.0735 
8 14 10 2.6605 0.0541 
8 14 11 -15.1298 -0.2180 
8 14 12 4.1634 0.0077 
8 14 13 -22.1984 -0.0833 
8 14 14 -1.2508 0.1302 
8 14 15 -17.9009 0.2041 
8 14 16 -16.2437 -0.1279 
8 14 17 9.8134 0.1311 
8 14 18 15.2547 0.0777 
8 16 0 1.0547 0.0964 
8 16 1 14.2202 -0.0493 
8 16 2 -0.3754 -0.0009 
8 16 3 7.9601 0.0013 
8 16 4 4.8115 -0.0327 
8 16 5 -6.5519 0.1120 
8 16 6 1.0819 -0.0752 
8 16 7 -23.5994 -0.0272 
8 16 8 -3.8260 0.0092 
8 16 9 7.9665 -0.2080 
8 16 10 11.8337 0.0932 
8 16 11 -3.7052 0.0735 
8 16 12 6.4622 0.3416 
8 16 13 2.1679 -0.1679 
8 16 14 -17.4544 -0.1820 
8 16 15 -5.9679 0.1145 
8 16 16 -4.6209 -0.1482 
8 16 17 19.8109 0.4614 
8 18 0 -17.9162 0.0432 
8 18 1 14.0775 -0.4689 
8 18 2 -17.3375 0.0198 
8 18 3 7.2958 0.0703 
8 18 4 -0.0873 0.3008 
8 18 5 -21.7060 -0.0967 
8 18 6 20.4848 -0.1154 
8 18 7 4.0810 -0.0434 
8 18 8 -11.4230 -0.0887 
8 18 9 -0.7201 -0.0214 
8 18 10 3.9880 0.1574 
8 18 11 -7.1749 -0.2990 
8 18 12 6.7245 0.3549 
8 18 13 -5.3665 -0.2078 
8 18 14 -8.3743 0.0575 
8 18 15 14.4577 -0.0358 
8 20 0 -7.3190 -0.0114 
8 20 1 5.8792 0.0329 
8 20 2 -6.3697 0.0126 
8 20 3 -12.5102 0.0169 
8 20 4 4.4521 0.0398 
8 20 5 -3.7818 -0.0694 
8 20 6 21.7329 0.1583 
8 20 7 -6.7897 -0.0285 
8 20 8 -9.8221 -0.1099 
8 20 9 5.4816 -0.0063 
8 20 10 -9.3652 -0.1058 
8 20 11 -2.5053 -0.1964 
8 20 12 10.7514 0.5809 
8 20 13 -2.5491 -0.0239 
8 22 0 12.5441 -0.0267 
8 22 1 -2.9594 0.1986 
8 22 2 0.4110 -0.0018 
8 22 3 4.6135 0.0868 
8 22 4 -0.9111 -0.1724 
8 22 5 -5.2664 0.0551 
8 22 6 16.4980 -0.0159 
8 22 7 -19.1041 -0.1003 
8 22 8 -11.8625 -0.2202 
8 22 9 -7.9439 0.5833 
8 22 10 -3.3162 -0.0331 
8 22 11 6.1576 -0.2129 
8 24 0 10.2555 0.0239 
8 24 1 -3.8622 0.2633 
8 24 2 9.2608 0.1389 
8 24 3 -8.6474 -0.2316 
8 24 4 1.4907 -0.1089 
8 24 5 -19.1196 -0.2306 
8 24 6 10.3808 0.4315 
8 24 7 -11.2832 0.0557 
8 24 8 2.9103 -0.1532 
8 26 0 -0.6661 -0.1260 
8 26 1 -15.9705 0.1975 
8 26 2 -4.7759 0.0495 
8 26 3 5.4949 0.0682 
9 1 0 48.0196 0.8498 
9 1 1 -110.5309 3.4623 
9 1 2 35.0935 0.9540 
9 1 3 -97.4844 -1.5226 
9 1 4 -47.9552 -0.9104 
9 1 5 -61.9574 0.7121 
9 1 6 13.1239 -0.1453 
9 1 7 15.8180 -0.2544 
9 1 8 -76.0908 0.3966 
9 1 9 -1.8835 1.1240 
9 1 10 -25.0826 -0.6497 
9 1 11 18.9527 -0.8365 
9 1 12 -6.3627 -0.8179 
9 1 13 -13.0811 1.4266 
9 1 14 0.7584 0.1870 
9 1 15 -9.7471 -0.0255 
9 1 16 6.6765 -0.6223 
9 1 17 -17.2924 0.0883 
9 1 18 3.6367 -0.0651 
9 1 19 11.5978 -0.2712 
9 1 20 12.7532 0.1533 
9 1 21 -14.9554 0.7437 
9 3 0 -8.3632 1.0894 
9 3 1 -47.5387 -0.7291 
9 3 2 6.7874 0.9183 
9 3 3 14.4923 -1.2592 
9 3 4 -70.8331 1.0221 
9 3 5 39.4920 -1.0201 
9 3 6 -4.2807 1.0309 
9 3 7 -1.1077 -0.4735 
9 3 8 20.2423 0.1353 
9 3 9 -0.0932 0.0107 
9 3 10 0.3708 -0.0241 
9 3 11 -8.8342 -0.2392 
9 3 12 11.0474 -0.0287 
9 3 13 -1.7301 0.0447 
9 3 14 0.6733 -0.1836 
9 3 15 11.3792 0.1467 
9 3 16 2.2813 0.0165 
9 3 17 -8.0431 0.0889 
9 3 18 9.4623 0.1386 
9 3 19 -2.7819 -0.3110 
9 3 20 -0.1149 0.2945 
9 3 21 -2.0831 -0.0481 
9 5 0 59.3419 -0.0562 
9 5 1 -27.6438 -1.1891 
9 5 2 23.7614 0.2295 
9 5 3 -33.3507 0.2239 
9 5 4 -19.7150 1.1278 
9 5 5 -1.1273 -0.8585 
9 5 6 33.8929 0.5455 
9 5 7 9.6148 -0.7514 
9 5 8 -44.1736 0.5245 
9 5 9 16.4104 -0.5260 
9 5 10 17.5606 0.4635 
9 5 11 -7.8741 -0.0200 
9 5 12 25.2379 0.3221 
9 5 13 -5.3212 -0.3282 
9 5 14 1.0943 -0.2306 
9 5 15 -2.8970 0.0038 
9 5 16 -5.6167 -0.0253 
9 5 17 -19.3704 -0.0290 
9 5 18 -7.4925 0.0934 
9 5 19 -3.6154 0.0092 
9 5 20 -12.5251 0.0947 
9 7 0 48.3501 -0.5290 
9 7 1 -62.5866 -0.1210 
9 7 2 55.3454 -0.5659 
9 7 4 83.9506 -0.0046 
9 7 5 -30.1525 -0.1455 
9 7 6 4.5178 -0.0194 
9 7 7 -17.4690 0.4076 
9 7 8 -28.0239 -0.2138 
9 7 9 8.0684 -0.6098 
9 7 10 -26.4065 0.1037 
9 7 11 -4.0477 0.4926 
9 7 12 5.5040 0.2344 
9 7 13 -6.7368 -0.3844 
9 7 14 -1.6725 -0.1636 
9 7 15 -5.6958 0.0712 
9 7 16 -1.5120 0.1222 
9 7 17 -3.0142 -0.1012 
9 7 18 6.9835 -0.0463 
9 7 19 -5.7560 0.1094 
9 7 20 -15.0769 -0.4171 
9 9 0 15.0060 -0.3523 
9 9 2 17.1794 -0.3604 
9 9 3 -4.9352 0.1872 
9 9 4 -17.8037 0.0416 
9 9 5 -39.6083 0.1430 
9 9 6 -9.6383 -0.1795 
9 9 7 -5.4339 0.0521 
9 9 8 13.1174 0.0978 
9 9 9 15.8944 0.2495 
9 9 10 1.0426 0.0101 
9 9 11 -2.1545 -0.0194 
9 9 12 9.8229 -0.2082 
9 9 13 -7.2981 -0.0536 
9 9 14 -4.5662 0.2151 
9 9 15 3.3715 0.0873 
9 9 16 -3.8478 -0.1401 
9 9 17 -14.8706 -0.1245 
9 9 18 21.5583 0.1453 
9 9 19 0.9395 0.0747 
9 9 20 -3.2764 -0.0576 
9 11 0 -64.5246 -0.0017 
9 11 1 54.7602 0.7168 
9 11 2 12.1996 0.1083 
9 11 3 2.1664 -0.4862 
9 11 4 -4.2089 -0.4215 
9 11 5 -19.7056 0.2085 
9 11 6 15.2139 0.3822 
9 11 7 -16.2117 -0.2282 
9 11 8 -4.2543 0.2896 
9 11 9 -6.3332 -0.0933 
9 11 10 -2.8897 -0.1185 
9 11 11 -13.5339 -0.1662 
9 11 12 20.5087 0.1983 
9 11 13 -7.4580 -0.0089 
9 11 14 -2.1481 0.2923 
9 11 15 -11.7572 -0.1634 
9 11 16 -1.7431 -0.0159 
9 11 17 -6.3414 -0.1142 
9 11 18 16.3011 -0.1351 
9 11 19 -7.6655 -0.3063 
9 13 0 -27.3525 -0.1340 
9 13 1 -12.5290 0.5110 
9 13 2 -2.8363 -0.1318 
9 13 3 -42.0878 -0.1287 
9 13 4 15.6866 -0.2697 
9 13 5 22.6649 0.3394 
9 13 6 13.2692 -0.3492 
9 13 7 -9.8987 -0.0115 
9 13 8 10.6633 0.1233 
9 13 9 15.1962 0.4682 
9 13 10 1.1561 -0.1316 
9 13 11 -9.2951 -0.5513 
9 13 12 4.2636 0.0097 
9 13 13 -4.5844 -0.0312 
9 13 14 6.3888 0.3798 
9 13 15 -0.8262 0.0673 
9 13 16 3.8642 0.0885 
9 13 17 8.5575 -0.0867 
9 13 18 9.5549 0.0894 
9 15 0 15.1268 0.0335 
9 15 1 -12.7335 0.1506 
9 15 2 16.8095 0.0232 
9 15 3 -10.3664 -0.0310 
9 15 4 15.8237 -0.2954 
9 15 5 -10.3152 0.3857 
9 15 6 -17.8039 -0.1567 
9 15 7 13.5288 0.0895 
9 15 8 10.4259 -0.3019 
9 15 9 -8.5767 0.2278 
9 15 10 -4.5062 -0.2189 
9 15 11 -1.8800 0.2077 
9 15 12 7.2551 0.2132 
9 15 13 -0.7513 0.1285 
9 15 14 5.9795 -0.2608 
9 15 15 21.3891 0.0111 
9 15 16 -0.5767 0.0612 
9 15 17 1.5836 0.1300 
9 17 0 14.1015 -0.0746 
9 17 1 -13.4448 -0.3714 
9 17 2 -8.1565 0.0959 
9 17 3 6.3447 0.0944 
9 17 4 -10.8872 0.3032 
9 17 5 -9.7526 -0.1047 
9 17 6 -4.8290 -0.2553 
9 17 7 -12.2558 -0.1051 
9 17 8 -7.1799 0.0908 
9 17 9 -0.1524 0.1173 
9 17 10 2.9208 -0.0316 
9 17 11 -13.5497 -0.0580 
9 17 12 4.5472 0.0360 
9 17 13 8.2380 0.0326 
9 17 14 -7.9025 -0.3861 
9 17 15 22.3625 0.2396 
9 19 0 -2.6351 -0.0157 
9 19 1 7.8627 -0.1458 
9 19 2 -1.1349 -0.0150 
9 19 3 1.3151 -0.0322 
9 19 4 2.8070 0.1943 
9 19 5 -8.9342 -0.2493 
9 19 6 20.1100 0.2697 
9 19 7 -3.1447 0.0498 
9 19 8 -12.0819 -0.1813 
9 19 9 -6.1182 -0.2021 
9 19 10 -7.7458 -0.0054 
9 19 11 -2.7305 0.1024 
9 19 12 9.8615 0.2121 
9 19 13 -6.7977 0.2462 
9 19 14 -15.2176 -0.1117 
9 21 0 -2.0184 0.0064 
9 21 1 -2.9103 -0.1319 
9 21 2 -4.0590 0.0012 
9 21 3 14.4118 0.3594 
9 21 4 3.3317 -0.0854 
9 21 5 -8.9556 -0.0822 
9 21 6 6.0883 -0.0428 
9 21 7 9.5018 -0.0131 
9 21 8 14.8143 -0.0448 
9 21 9 5.1564 0.2028 
9 21 10 2.7518 0.1125 
9 21 11 6.1078 -0.3005 
9 21 12 6.7692 -0.5134 
9 23 0 6.4774 0.3400 
9 23 1 -1.7349 0.0218 
9 23 2 -7.0870 0.3348 
9 23 3 19.4308 -0.3659 
9 23 4 7.7989 -0.1242 
9 23 5 -6.1712 0.0201 
9 23 6 4.4239 0.1462 
9 23 7 -9.9821 0.3549 
9 23 8 -4.7740 -0.2175 
9 23 9 -7.5086 -0.2129 
9 25 0 15.9789 0.2415 
9 25 1 -1.2548 -0.1173 
9 25 2 2.3343 0.1411 
9 25 3 -1.8745 -0.2720 
9 25 4 0.1061 0.3652 
9 25 5 -1.2636 -0.4444 
10 0 0 -106.0062 1.0417 
10 0 1 39.2485 3.7133 
10 0 2 79.1221 -0.5609 
10 0 3 2.0159 0.9122 
10 0 4 14.4198 -2.3628 
10 0 5 -87.1680 -0.6681 
10 0 6 -13.3499 -0.6005 
10 0 7 1.6567 2.3459 
10 0 8 15.0776 1.2601 
10 0 9 41.3358 0.4652 
10 0 10 -49.2192 -2.4621 
10 0 11 1.0724 -0.8701 
10 0 12 -0.1967 0.0865 
10 0 13 -1.5104 2.2050 
10 0 14 -0.4306 0.8069 
10 0 15 -4.5796 -0.6864 
10 0 16 2.0702 -1.6640 
10 0 17 3.8103 0.3695 
10 0 18 6.9739 0.4245 
10 0 19 -14.7900 0.1925 
10 0 20 6.3929 -0.9237 
10 2 0 27.7558 2.4183 
10 2 1 -73.7921 -0.0498 
10 2 2 -90.8075 -0.6825 
10 2 3 -24.3538 -0.2509 
10 2 4 -3.6925 0.1594 
10 2 5 16.6009 0.6177 
10 2 6 9.1514 -0.6040 
10 2 7 -23.6813 0.3206 
10 2 8 -19.4121 -0.2397 
10 2 9 -11.0361 0.2104 
10 2 10 -13.1356 0.3331 
10 2 11 -12.2524 0.1436 
10 2 12 -9.1157 -0.5561 
10 2 13 -1.7209 -0.1592 
10 2 14 -17.0662 0.3281 
10 2 15 -5.9921 0.4642 
10 2 16 -13.3829 -0.3821 
10 2 17 -17.1197 -0.2381 
10 2 18 2.4044 -0.0804 
10 2 19 -1.9004 -0.0755 
10 2 20 -1.0534 -0.0460 
10 4 0 7.4158 -0.2262 
10 4 1 -45.6855 -0.8711 
10 4 2 -47.6455 0.7299 
10 4 3 -15.3140 0.2926 
10 4 4 -68.3329 0.4951 
10 4 5 -4.0312 -0.9956 
10 4 6 -16.3248 -0.0818 
10 4 7 -43.0963 0.6109 
10 4 8 -26.5742 0.3985 
10 4 9 -29.9165 -0.5824 
10 4 10 -12.5743 0.0015 
10 4 11 -18.8860 0.2151 
10 4 12 17.1430 0.3863 
10 4 13 -5.1961 -0.3595 
10 4 14 -20.3197 -0.1493 
10 4 15 -4.3660 -0.0038 
10 4 16 -7.1237 -0.0852 
10 4 17 -2.5687 0.0388 
10 4 18 1.0504 0.1753 
10 4 19 -1.3359 -0.1933 
10 4 20 -10.0636 0.1922 
10 6 0 -43.7202 -0.2696 
10 6 1 -44.1763 -0.5536 
10 6 2 56.9207 -0.4021 
10 6 3 2.9768 0.6971 
10 6 4 19.7406 0.0450 
10 6 5 0.8602 0.4596 
10 6 6 -3.4161 -0.0144 
10 6 7 -2.9202 -0.1350 
10 6 8 -16.1188 -0.4874 
10 6 9 15.2212 -0.2606 
10 6 10 -31.8836 0.3455 
10 6 11 -19.1910 0.6197 
10 6 12 10.3395 -0.1657 
10 6 13 -1.2318 -0.5839 
10 6 14 3.0995 0.0108 
10 6 15 -4.9968 0.2261 
10 6 16 -16.1656 0.2011 
10 6 17 -2.7447 -0.1705 
10 6 18 16.0684 -0.1575 
10 6 19 3.5315 -0.0427 
10 6 20 8.6617 0.0518 
10 8 0 20.4915 -0.7783 
10 8 1 -4.8880 -0.1929 
10 8 2 9.3381 0.0949 
10 8 3 2.9736 0.6044 
10 8 4 -38.2222 -0.3511 
10 8 5 14.7399 0.1788 
10 8 6 -37.1154 -0.3562 
10 8 7 10.2933 0.2739 
10 8 8 -21.6275 -0.0316 
10 8 9 5.6217 0.3000 
10 8 10 -5.2663 -0.4354 
10 8 11 3.0679 0.2439 
10 8 12 -1.1064 -0.2005 
10 8 13 14.0073 0.1218 
10 8 14 -0.7499 -0.1066 
10 8 15 0.8161 -0.0743 
10 8 16 -3.6613 -0.1258 
10 8 17 -13.0095 0.1275 
10 8 18 -6.4502 0.1681 
10 8 19 -13.6083 0.3762 
10 10 0 37.9134 0.3737 
10 10 1 67.2442 0.1379 
10 10 2 -33.5180 -0.0856 
10 10 3 12.7941 -0.4171 
10 10 4 -7.4782 -0.1006 
10 10 5 -5.0169 0.4659 
10 10 6 2.2908 0.2225 
10 10 7 8.6392 -0.3575 
10 10 8 -4.6397 -0.0261 
10 10 9 -2.0300 0.2144 
10 10 10 -1.3861 -0.0932 
10 10 11 -8.1902 -0.1080 
10 10 12 21.4568 -0.0044 
10 10 13 -7.3287 0.1400 
10 10 14 0.1465 0.0335 
10 10 15 4.8285 0.1754 
10 10 16 5.8379 -0.2098 
10 10 17 4.0657 0.0957 
10 10 18 4.8327 -0.4318 
10 10 19 -6.0403 -0.3057 
10 12 0 -5.0851 -0.0387 
10 12 1 -22.7714 0.5129 
10 12 2 0.6496 0.2983 
10 12 3 18.4342 -0.3169 
10 12 4 7.7514 -0.4319 
10 12 5 -18.2730 0.1846 
10 12 6 -8.9814 0.0893 
10 12 7 -11.8078 -0.1566 
10 12 8 6.7225 0.3747 
10 12 9 -15.8442 0.2751 
10 12 10 9.1187 -0.2794 
10 12 11 -9.3805 -0.5517 
10 12 12 -0.5137 0.0962 
10 12 13 -37.4963 0.0945 
10 12 14 -17.2976 0.1507 
10 12 15 14.9473 -0.0875 
10 12 16 2.4208 -0.0119 
10 12 17 -1.7799 0.1321 
10 12 18 16.1784 0.0648 
10 14 0 25.4996 0.2046 
10 14 1 -11.3032 0.2585 
10 14 2 26.8289 -0.1507 
10 14 3 -6.1093 -0.2439 
10 14 4 -2.2397 -0.0612 
10 14 5 -1.6571 0.2730 
10 14 6 -7.0933 -0.1505 
10 14 7 15.1388 0.1096 
10 14 8 0.3304 -0.2573 
10 14 9 -4.6388 0.2867 
10 14 10 1.9225 -0.1718 
10 14 11 -3.7254 -0.0437 
10 14 12 -2.0229 0.1541 
10 14 13 -15.1388 0.0774 
10 14 14 3.7481 -0.0997 
10 14 15 6.7395 0.0374 
10 14 16 -16.0857 0.1993 
10 14 17 -6.8888 -0.0660 
10 16 0 13.1201 -0.0823 
10 16 1 -11.9777 -0.1960 
10 16 2 17.8385 0.0919 
10 16 3 9.1874 0.2244 
10 16 4 0.6916 0.1195 
10 16 5 12.4032 -0.2186 
10 16 6 0.7585 -0.0961 
10 16 7 16.0891 0.1161 
10 16 8 -7.1379 -0.1715 
10 16 9 -7.4578 0.1219 
10 16 10 -0.2437 0.0653 
10 16 11 -1.2819 0.0139 
10 16 12 -0.8086 -0.0326 
10 16 13 -1.5782 0.0244 
10 16 14 -3.7565 -0.2048 
10 16 15 15.0089 0.3060 
10 16 16 9.4654 0.0534 
10 18 0 6.9524 0.0821 
10 18 1 17.0275 -0.4605 
10 18 2 11.2815 0.1844 
10 18 3 2.2669 -0.0443 
10 18 4 -4.0227 0.2286 
10 18 5 15.0633 -0.2844 
10 18 6 15.9857 0.1760 
10 18 7 2.9304 -0.0561 
10 18 8 -26.6323 -0.1248 
10 18 9 -16.0691 -0.2158 
10 18 10 2.9492 0.2445 
10 18 11 3.4403 0.2311 
10 18 12 -4.3106 0.0626 
10 18 13 -9.2569 -0.0245 
10 18 14 -9.8322 0.0913 
10 20 0 3.5780 -0.1692 
10 20 1 -8.7414 -0.2483 
10 20 2 1.1831 0.1544 
10 20 3 -11.1655 0.0332 
10 20 4 5.7269 0.2574 
10 20 5 10.0085 -0.3987 
10 20 6 6.7216 0.1524 
10 20 7 -15.9446 -0.1306 
10 20 8 -9.4024 0.1378 
10 20 9 1.4877 -0.0003 
10 20 10 -10.4649 -0.0177 
10 20 11 -3.4305 0.0095 
10 20 12 -0.4850 -0.5923 
10 22 0 0.4947 0.1461 
10 22 1 -11.7089 0.1854 
10 22 2 2.7609 0.0045 
10 22 3 -0.0486 -0.0955 
10 22 4 -6.0056 -0.1252 
10 22 5 -22.8907 -0.0612 
10 22 6 9.4424 0.3407 
10 22 7 14.2995 -0.0141 
10 22 8 0.5230 -0.0027 
10 22 9 7.1929 -0.2387 
10 22 10 -4.8474 0.1328 
10 24 0 1.8979 0.0961 
10 24 1 7.2659 0.1949 
10 24 2 4.0322 -0.0573 
10 24 3 -5.0123 -0.2478 
10 24 4 8.0812 0.2387 
10 24 5 -10.4714 -0.2778 
10 24 6 17.3250 0.0516 
10 24 7 7.8754 -0.2926 
10 26 0 2.4468 -0.0732 
10 26 1 8.7463 0.7066 
11 1 0 -40.1383 0.8036 
11 1 1 -15.7737 0.9982 
11 1 2 -1.4269 -0.5300 
11 1 3 22.3164 -0.7286 
11 1 4 0.9657 -1.1843 
11 1 5 -3.4426 0.6995 
11 1 6 67.6826 0.2512 
11 1 7 16.1114 0.2302 
11 1 8 -30.9331 -0.0362 
11 1 9 -7.7174 0.3441 
11 1 10 -5.8201 -0.2608 
11 1 11 6.4310 -1.1614 
11 1 12 -3.3526 0.1426 
11 1 13 21.2449 1.0743 
11 1 14 -1.3068 0.6141 
11 1 15 -4.7142 -0.4556 
11 1 16 7.4001 -0.5642 
11 1 17 -0.6855 0.1868 
11 1 18 9.2720 0.0231 
11 1 19 -0.3089 -0.0316 
11 1 20 2.5214 0.0629 
11 3 0 -11.3770 0.9909 
11 3 1 -21.4483 -0.2731 
11 3 2 2.8249 0.5845 
11 3 3 33.8464 -0.4777 
11 3 4 -33.0486 0.3474 
11 3 5 -27.7393 -0.5889 
11 3 6 -16.4289 0.2385 
11 3 7 -9.9790 -0.2619 
11 3 8 42.8859 0.2209 
11 3 9 5.7395 -0.0703 
11 3 10 5.8897 0.2992 
11 3 11 -1.7201 -0.2018 
11 3 12 -6.1255 0.1874 
11 3 13 22.4185 -0.1273 
11 3 14 16.6982 0.2271 
11 3 15 10.0898 -0.1550 
11 3 16 -12.3278 0.0306 
11 3 17 -1.8944 -0.0296 
11 3 18 8.2965 -0.2163 
11 3 19 -22.3031 -0.2458 
11 3 20 3.8818 -0.0102 
11 5 0 34.9970 -0.0518 
11 5 1 15.8401 -0.6684 
11 5 2 17.2838 -0.0738 
11 5 3 -10.5082 0.2564 
11 5 4 -9.7408 0.4828 
11 5 5 6.1000 -0.3254 
11 5 6 17.7358 0.3887 
11 5 7 -40.5339 -0.4741 
11 5 8 -9.6189 0.2290 
11 5 9 -0.9883 -0.6592 
11 5 10 0.1623 0.6678 
11 5 11 -26.6809 0.0756 
11 5 12 -16.0691 0.1994 
11 5 13 -5.7444 -0.6761 
11 5 14 11.0826 0.0288 
11 5 15 -2.9377 0.2109 
11 5 16 4.0680 0.1848 
11 5 17 18.4045 -0.0161 
11 5 18 -2.1974 -0.0850 
11 5 19 -6.4825 -0.2254 
11 5 20 12.2314 0.1605 
11 7 0 -34.3716 -0.9045 
11 7 1 -88.7595 -0.2399 
11 7 2 15.6963 -0.1241 
11 7 3 19.6695 0.7899 
11 7 4 10.6477 0.0695 
11 7 5 -19.3165 -0.0390 
11 7 6 -27.6521 -0.2198 
11 7 7 -3.1472 -0.1157 
11 7 8 -2.6957 0.2261 
11 7 9 -15.2654 -0.1021 
11 7 10 -11.9889 0.1054 
11 7 11 10.0855 0.0828 
11 7 12 2.7962 0.0942 
11 7 13 7.2364 -0.4192 
11 7 14 7.3988 -0.0543 
11 7 15 -6.6414 -0.1107 
11 7 16 3.1923 0.1116 
11 7 17 -0.6277 -0.0665 
11 7 18 -1.5362 0.2416 
11 7 19 -13.4264 0.0335 
11 9 0 5.8119 -0.0431 
11 9 1 25.1708 -0.1821 
11 9 2 28.9323 -0.0526 
11 9 3 41.9727 0.0734 
11 9 4 0.5315 -0.1848 
11 9 5 -2.0533 0.2947 
11 9 6 6.5032 0.0949 
11 9 7 -2.5065 -0.0620 
11 9 8 -4.7622 -0.0000 
11 9 9 -26.2912 0.0494 
11 9 10 -8.9337 -0.3132 
11 9 11 -2.0435 0.2502 
11 9 12 2.2873 0.1070 
11 9 13 2.0609 -0.1499 
11 9 14 15.4466 0.0168 
11 9 15 -8.0854 -0.0155 
11 9 16 0.5310 0.0062 
11 9 17 -4.6438 0.0054 
11 9 18 13.5627 -0.1610 
11 9 19 -1.1593 -0.3163 
11 11 0 -22.8120 0.2225 
11 11 1 43.4398 -0.1132 
11 11 2 -7.1404 0.1574 
11 11 3 -17.3423 -0.1084 
11 11 4 16.8776 -0.1329 
11 11 5 2.8290 -0.0062 
11 11 6 9.3802 0.1604 
11 11 7 -31.7590 -0.0484 
11 11 8 -0.6435 0.2918 
11 11 9 -11.1813 0.2244 
11 11 10 15.9976 -0.1412 
11 11 11 -9.6391 -0.4796 
11 11 12 12.9459 0.0389 
11 11 13 -24.6325 0.0663 
11 11 14 5.3038 0.1566 
11 11 15 -0.5417 -0.0024 
11 11 16 -5.3070 -0.1128 
11 11 17 -6.2848 0.0765 
11 11 18 -3.2476 -0.1907 
11 13 0 11.0482 0.2389 
11 13 1 -3.0024 0.4295 
11 13 2 14.9213 0.0182 
11 13 3 -10.4063 -0.3297 
11 13 4 7.8644 -0.4101 
11 13 5 0.7492 0.3370 
11 13 6 -27.9367 0.1942 
11 13 7 -2.7224 0.1260 
11 13 8 24.0398 -0.3074 
11 13 9 -8.0098 0.1020 
11 13 10 -2.7441 0.0370 
11 13 11 -14.2579 -0.1636 
11 13 12 20.0154 0.2803 
11 13 13 29.9306 0.0400 
11 13 14 0.2067 -0.1054 
11 13 15 -11.0565 -0.0725 
11 13 16 -7.1713 0.0263 
11 13 17 -0.7905 -0.1117 
11 15 0 -10.0447 -0.2855 
11 15 1 -18.8039 0.0764 
11 15 2 12.4331 -0.0310 
11 15 3 -12.1098 0.2050 
11 15 4 -6.5150 -0.1034 
11 15 5 2.8171 0.0175 
11 15 6 -12.8940 -0.2198 
11 15 7 13.4792 0.2039 
11 15 8 1.0025 -0.2379 
11 15 9 -10.5848 0.4360 
11 15 10 -10.0474 -0.1166 
11 15 11 -18.7488 -0.0537 
11 15 12 -3.9908 -0.2793 
11 15 13 2.5416 0.2025 
11 15 14 -3.0124 0.0328 
11 15 15 -1.3921 0.1686 
11 15 16 -1.5658 0.2993 
11 17 0 -13.5494 0.0059 
11 17 1 -7.3857 -0.1666 
11 17 2 -21.3845 -0.0148 
11 17 3 -2.2950 0.0921 
11 17 4 -2.5440 0.1025 
11 17 5 1.3508 -0.0835 
11 17 6 3.3112 0.0666 
11 17 7 -2.8029 0.0315 
11 17 8 14.1036 -0.4216 
11 17 9 17.1179 -0.0847 
11 17 10 -7.7990 0.3687 
11 17 11 -13.1882 0.2838 
11 17 12 3.0844 -0.1124 
11 17 13 6.4168 0.2675 
11 17 14 -10.5076 -0.2024 
11 19 0 3.1326 -0.2451 
11 19 1 -4.2516 -0.2192 
11 19 2 2.8002 0.0217 
11 19 3 8.9011 0.3069 
11 19 4 6.0342 0.0973 
11 19 5 -14.9191 -0.3341 
11 19 6 6.9337 -0.1334 
11 19 7 -14.8925 0.0625 
11 19 8 2.8652 0.0439 
11 19 9 5.2247 -0.0044 
11 19 10 8.1846 0.0899 
11 19 11 3.6380 -0.0787 
11 19 12 2.4703 -0.2047 
11 19 13 15.3073 0.4944 
11 21 0 1.9794 -0.1532 
11 21 1 1.2773 0.3379 
11 21 2 16.9159 -0.3518 
11 21 3 4.7435 0.0322 
11 21 4 -0.8680 -0.0626 
11 21 5 -1.8169 0.0918 
11 21 6 12.2004 0.0731 
11 21 7 -5.9443 0.0484 
11 21 8 -5.8892 -0.0373 
11 21 9 0.5263 -0.3699 
11 21 10 8.3595 0.0666 
11 21 11 9.3231 -0.1960 
11 23 0 10.5903 0.1938 
11 23 1 -2.7815 0.2471 
11 23 2 2.7644 -0.1088 
11 23 3 -3.6763 -0.0480 
11 23 4 15.5363 -0.0619 
11 23 5 0.9130 0.2357 
11 23 6 4.9896 -0.5988 
11 23 7 -1.5527 0.2046 
11 23 8 -0.0317 0.3609 
11 25 0 -2.7508 0.4356 
11 25 1 0.8359 0.4555 
11 25 2 -9.7225 -0.3579 
11 25 3 -12.3657 -0.3979 
12 0 0 -4.0700 -3.4724 
12 0 1 22.4204 6.1238 
12 0 2 -99.0636 -5.5418 
12 0 3 -31.2456 -1.2592 
12 0 4 61.5439 -0.1746 
12 0 5 -32.4606 3.4329 
12 0 6 -12.6136 -1.7478 
12 0 7 -32.7987 -1.0291 
12 0 8 -0.9086 0.4999 
12 0 9 -4.3287 2.1663 
12 0 10 -25.2971 -1.5567 
12 0 11 -2.1345 -1.5264 
12 0 12 -3.0684 -0.1163 
12 0 13 -6.7560 1.4959 
12 0 14 33.7493 0.6182 
12 0 15 0.0619 -0.2821 
12 0 16 1.1281 -0.7216 
12 0 17 1.2307 -0.3765 
12 0 18 -15.2032 -0.3160 
12 0 19 -6.1693 0.5817 
12 2 0 -35.0283 0.3249 
12 2 1 -12.4553 2.5589 
12 2 2 14.9176 -0.8389 
12 2 3 22.6401 -0.4875 
12 2 4 14.0079 -1.0732 
12 2 5 -28.2616 1.1003 
12 2 6 -43.1643 -0.5656 
12 2 7 -4.3845 0.6438 
12 2 8 -11.0857 0.3408 
12 2 9 -31.8805 -0.0507 
12 2 10 11.8280 -1.1652 
12 2 11 -6.3012 -0.0991 
12 2 12 -11.1337 0.6108 
12 2 13 24.2056 0.5311 
12 2 14 10.7733 -0.3636 
12 2 15 9.3129 -0.3124 
12 2 16 1.8364 0.0158 
12 2 17 -3.9487 0.1730 
12 2 18 12.2793 -0.0689 
12 2 19 -4.6034 -0.2151 
12 4 0 40.4244 0.4381 
12 4 1 -34.5068 -0.5802 
12 4 2 49.3642 -0.0517 
12 4 3 19.4546 0.1064 
12 4 4 -34.1206 0.6902 
12 4 5 -0.1340 0.0989 
12 4 6 8.1467 -0.4586 
12 4 7 3.2492 -0.5232 
12 4 8 -2.5592 0.1538 
12 4 9 -36.5841 0.3335 
12 4 10 11.2316 0.0419 
12 4 11 -5.3461 0.0702 
12 4 12 -11.9331 -0.1007 
12 4 13 17.6981 -0.3217 
12 4 14 -7.2087 -0.1071 
12 4 15 8.0041 0.5121 
12 4 16 3.8668 0.1835 
12 4 17 -8.9892 -0.2003 
12 4 18 -8.1205 -0.1834 
12 4 19 -5.4420 -0.0677 
12 6 0 -2.8688 -0.7971 
12 6 1 -76.7331 -0.3352 
12 6 2 -26.1912 0.1817 
12 6 3 11.1513 0.8092 
12 6 4 -27.2038 -0.0907 
12 6 5 3.9508 -0.3066 
12 6 6 6.6725 -0.1740 
12 6 7 -19.7242 0.3459 
12 6 8 5.8322 -0.0372 
12 6 9 23.6108 -0.1311 
12 6 10 9.0199 -0.0906 
12 6 11 -14.8187 0.4722 
12 6 12 0.7797 0.0665 
12 6 13 6.8858 -0.4311 
12 6 14 4.5087 -0.2747 
12 6 15 -8.3438 -0.0304 
12 6 16 -23.9888 0.2293 
12 6 17 2.7807 -0.0022 
12 6 18 9.4341 0.0896 
12 6 19 3.6089 0.0622 
12 8 0 -20.7269 -0.1980 
12 8 1 -36.0843 -0.5022 
12 8 2 -1.6537 0.0148 
12 8 3 62.6972 0.4496 
12 8 4 -21.5214 -0.0890 
12 8 5 4.4972 0.2615 
12 8 6 -7.4986 -0.1780 
12 8 7 13.2923 0.1176 
12 8 8 1.7146 -0.4920 
12 8 9 3.7583 0.2216 
12 8 10 12.5569 -0.0037 
12 8 11 -2.3262 0.4810 
12 8 12 4.9664 -0.4196 
12 8 13 10.5021 0.0100 
12 8 14 -10.7478 0.0321 
12 8 15 -11.1380 0.0283 
12 8 16 -6.9731 -0.0409 
12 8 17 -10.8390 -0.0659 
12 8 18 13.5878 0.0393 
12 10 0 29.7114 0.2806 
12 10 1 -41.2473 -0.4775 
12 10 2 -38.6939 0.6147 
12 10 3 14.1144 -0.4187 
12 10 4 -8.9228 -0.1382 
12 10 5 -13.4469 -0.2302 
12 10 6 16.6297 0.3548 
12 10 7 -10.0566 0.1538 
12 10 8 6.2725 0.0075 
12 10 9 5.9234 0.1891 
12 10 10 0.5873 -0.2344 
12 10 11 -3.5372 -0.1217 
12 10 12 -2.3943 -0.0519 
12 10 13 -13.9606 0.2578 
12 10 14 -1.8371 -0.1454 
12 10 15 -3.2614 0.0287 
12 10 16 18.2880 -0.2377 
12 10 17 4.6835 0.3316 
12 10 18 8.2956 0.1047 
12 12 0 20.9493 0.5442 
12 12 1 -19.6203 -0.0546 
12 12 2 8.1210 0.0176 
12 12 3 2.2088 -0.5923 
12 12 4 -5.6392 0.2236 
12 12 5 -17.2725 -0.0263 
12 12 6 -4.2934 0.4916 
12 12 7 -15.6915 -0.3172 
12 12 8 16.4931 -0.0137 
12 12 9 -2.6977 0.0231 
12 12 10 5.8670 0.1546 
12 12 11 3.6842 -0.2422 
12 12 12 9.7750 0.1147 
12 12 13 -0.9521 0.2015 
12 12 14 3.2072 0.0703 
12 12 15 7.1045 -0.0615 
12 12 16 1.8358 -0.1595 
12 12 17 -1.8619 0.1892 
12 14 0 -5.6634 0.1260 
12 14 1 -13.4890 0.1898 
12 14 2 -9.1041 0.0671 
12 14 3 -30.8498 -0.1458 
12 14 4 6.7449 -0.0610 
12 14 5 4.0538 -0.1887 
12 14 6 -19.1842 0.1215 
12 14 7 -2.9911 0.1320 
12 14 8 4.4306 0.0057 
12 14 9 0.5684 0.0613 
12 14 10 -8.1371 -0.0518 
12 14 11 -14.7759 -0.1279 
12 14 12 -10.4499 -0.1134 
12 14 13 0.6898 0.2845 
12 14 14 7.0718 -0.0653 
12 14 15 3.7029 -0.0075 
12 14 16 0.1388 0.3424 
12 16 0 -0.1025 -0.0705 
12 16 1 -2.8259 -0.1725 
12 16 2 -0.8807 -0.1359 
12 16 3 -2.9316 0.0644 
12 16 4 -7.2172 0.2729 
12 16 5 -1.1587 -0.1058 
12 16 6 -10.9412 -0.0201 
12 16 7 0.9713 -0.1819 
12 16 8 -8.7717 -0.0287 
12 16 9 11.6208 -0.1186 
12 16 10 0.8654 0.3200 
12 16 11 -16.9712 0.1814 
12 16 12 -4.1695 -0.1965 
12 16 13 -7.9426 0.1864 
12 16 14 -7.6823 -0.1355 
12 16 15 -4.8692 -0.0471 
12 18 0 -10.5547 -0.1371 
12 18 1 -5.7551 -0.1488 
12 18 2 -5.7049 0.1263 
12 18 3 8.2005 0.2628 
12 18 4 -1.5527 0.0913 
12 18 5 -7.1073 -0.3135 
12 18 6 -5.2926 -0.0770 
12 18 7 -6.2767 0.0173 
12 18 8 10.2578 0.1933 
12 18 9 0.4962 -0.2906 
12 18 10 3.5662 0.2490 
12 18 11 -5.6932 -0.0970 
12 18 12 -0.9441 0.1309 
12 18 13 0.2818 -0.0159 
12 20 0 0.7889 -0.0389 
12 20 1 -8.1779 0.0195 
12 20 2 15.1971 -0.2631 
12 20 3 3.5202 0.1296 
12 20 4 11.6336 -0.0306 
12 20 5 8.1381 0.0450 
12 20 6 -10.7899 0.1290 
12 20 7 -6.4675 -0.0999 
12 20 8 7.2270 -0.1310 
12 20 9 -17.8223 -0.2361 
12 20 10 -0.3635 0.1297 
12 20 11 -4.5322 0.1328 
12 22 0 9.6804 -0.2118 
12 22 1 -6.6935 0.3439 
12 22 2 3.4484 -0.2909 
12 22 3 -0.0850 0.2082 
12 22 4 2.9215 -0.1278 
12 22 5 1.3037 0.1007 
12 22 6 -13.5806 -0.2695 
12 22 7 12.0889 0.0303 
12 22 8 2.8000 0.5149 
12 22 9 1.5755 -0.0564 
12 24 0 10.2361 0.2046 
12 24 1 18.4734 0.5848 
12 24 2 -5.8151 -0.2875 
12 24 3 -9.6372 -0.3805 
12 24 4 -12.2243 -0.1896 
12 24 5 -4.6972 0.7405 
13 1 0 -78.9698 3.0715 
13 1 1 22.4796 0.8484 
13 1 2 -24.8665 -1.6860 
13 1 3 16.7734 -0.7111 
13 1 4 -44.8727 -0.5573 
13 1 5 -26.5893 1.0044 
13 1 6 -1.9478 -0.4874 
13 1 7 -7.5068 0.8081 
13 1 8 6.2223 0.1255 
13 1 9 -7.0627 0.5812 
13 1 10 4.9191 -1.2280 
13 1 11 -22.0534 -0.1235 
13 1 12 1.1801 0.1574 
13 1 13 1.6551 0.8607 
13 1 14 -3.7973 0.0441 
13 1 15 0.4441 -0.6055 
13 1 16 11.8829 -0.4729 
13 1 17 11.7013 -0.0585 
13 1 18 -17.6503 -0.0282 
13 1 19 2.8762 -0.3430 
13 3 0 6.3010 0.6358 
13 3 1 -73.3221 -0.1034 
13 3 2 -14.0349 0.2510 
13 3 3 2.3446 -0.4212 
13 3 4 -39.0240 0.3986 
13 3 5 13.5822 -0.0680 
13 3 6 -10.5217 0.1985 
13 3 7 -5.2510 -0.0149 
13 3 8 -3.3311 0.0918 
13 3 9 -24.0315 -0.0940 
13 3 10 6.1941 -0.1253 
13 3 11 -1.3999 0.2941 
13 3 12 -8.9338 -0.2137 
13 3 13 -16.6335 -0.0996 
13 3 14 5.4992 0.0481 
13 3 15 -6.4935 -0.0377 
13 3 16 -5.7590 0.2272 
13 3 17 -6.1312 -0.1912 
13 3 18 -5.7791 0.2147 
13 3 19 1.2362 0.0722 
13 5 0 -14.5461 -0.3388 
13 5 1 -17.8349 -0.4957 
13 5 2 -34.9388 0.7519 
13 5 3 0.7120 0.3249 
13 5 4 -30.8044 0.1496 
13 5 5 -6.1314 -0.5464 
13 5 6 -5.4280 0.0047 
13 5 7 -35.4873 -0.0805 
13 5 8 -4.8307 0.3030 
13 5 9 -7.7150 -0.2283 
13 5 10 14.8335 0.3460 
13 5 11 -20.1955 0.1277 
13 5 12 -1.9640 0.0237 
13 5 13 -1.5465 -0.5628 
13 5 14 1.5982 0.0032 
13 5 15 -13.8727 0.1640 
13 5 16 -6.3416 0.1701 
13 5 17 -9.0479 -0.0760 
13 5 18 -7.3341 -0.1214 
13 7 0 -42.9769 -0.5212 
13 7 1 39.6328 -0.4916 
13 7 2 -53.2334 0.3374 
13 7 3 5.5979 0.5161 
13 7 4 -26.1351 -0.1745 
13 7 5 8.3766 0.2322 
13 7 6 -7.4827 0.0657 
13 7 7 -0.8427 -0.2058 
13 7 8 0.9015 -0.2447 
13 7 9 -30.7929 0.0704 
13 7 10 1.2748 0.2305 
13 7 11 -13.3232 0.1544 
13 7 12 7.5474 -0.1453 
13 7 13 -2.2152 -0.2954 
13 7 14 -4.1534 0.1590 
13 7 15 2.0855 0.0153 
13 7 16 10.8224 -0.0332 
13 7 17 -13.0284 0.1364 
13 7 18 -1.3014 -0.1889 
13 9 0 -48.2106 -0.1182 
13 9 1 -27.9460 0.0159 
13 9 2 -23.6465 0.1577 
13 9 3 -2.0498 0.0304 
13 9 4 -11.7082 -0.1159 
13 9 5 -1.5934 -0.0465 
13 9 6 4.9247 0.0103 
13 9 7 8.2483 0.0143 
13 9 8 12.6243 0.1271 
13 9 9 -13.6980 0.0682 
13 9 10 8.7289 -0.1855 
13 9 11 -12.6931 -0.1569 
13 9 12 -17.1839 0.0563 
13 9 13 -12.3677 0.1939 
13 9 14 10.4401 -0.1090 
13 9 15 0.2803 -0.2135 
13 9 16 8.9488 -0.1002 
13 9 17 -10.3561 0.2961 
13 11 0 -6.7367 0.3193 
13 11 1 -14.5625 0.2096 
13 11 2 10.1138 -0.2515 
13 11 3 -1.1993 -0.6666 
13 11 4 -7.9685 0.3582 
13 11 5 -15.1477 0.0427 
13 11 6 20.9263 0.3438 
13 11 7 -21.6965 -0.2509 
13 11 8 5.3756 -0.0550 
13 11 9 0.5938 -0.0593 
13 11 10 4.3863 0.1993 
13 11 11 -6.6915 -0.3092 
13 11 12 -5.0316 0.2242 
13 11 13 -3.9120 0.0672 
13 11 14 14.5784 0.0518 
13 11 15 7.1772 -0.0809 
13 11 16 1.2947 -0.0770 
13 11 17 1.5067 -0.0056 
13 13 0 8.4223 0.2937 
13 13 1 -3.5974 0.1545 
13 13 2 -1.4686 -0.1428 
13 13 3 9.5398 -0.0627 
13 13 4 -1.3481 0.0341 
13 13 5 6.6401 -0.1262 
13 13 6 24.4324 0.0293 
13 13 7 -5.3130 0.1157 
13 13 8 14.8919 0.3289 
13 13 9 -16.5590 -0.1741 
13 13 10 -8.8440 -0.1094 
13 13 11 -11.4663 -0.2115 
13 13 12 -10.4972 0.0396 
13 13 13 -2.4070 0.0378 
13 13 14 -10.8939 0.1745 
13 13 15 -0.8690 -0.0775 
13 13 16 7.7853 0.2018 
13 15 0 -3.8743 0.0756 
13 15 1 11.2404 -0.0599 
13 15 2 -13.3279 -0.2494 
13 15 3 3.7563 0.0859 
13 15 4 -3.3725 0.0621 
13 15 5 -4.5457 -0.0108 
13 15 6 -4.5817 -0.0682 
13 15 7 6.5685 0.1181 
13 15 8 3.8934 -0.2566 
13 15 9 -18.1386 -0.0312 
13 15 10 9.3087 0.0747 
13 15 11 -0.9935 0.3779 
13 15 12 6.5814 -0.1653 
13 15 13 -0.5048 0.0661 
13 15 14 1.8302 -0.1483 
13 15 15 -2.6264 -0.1720 
13 17 0 -8.2727 -0.3180 
13 17 1 6.1134 -0.0822 
13 17 2 1.1527 0.1364 
13 17 3 -1.1185 0.3990 
13 17 4 -4.2530 -0.0689 
13 17 5 -3.3717 -0.3605 
13 17 6 4.7454 -0.0098 
13 17 7 13.0467 0.0623 
13 17 8 4.0730 0.0943 
13 17 9 -10.8039 0.0132 
13 17 10 -2.7585 0.0466 
13 17 11 -4.3173 0.1845 
13 17 12 1.2075 -0.2329 
13 17 13 -3.4425 -0.1523 
13 19 0 -8.9350 -0.0690 
13 19 1 -6.7177 -0.0079 
13 19 2 0.1015 -0.1317 
13 19 3 -12.7661 0.0956 
13 19 4 0.3656 0.0099 
13 19 5 4.6791 0.1441 
13 19 6 13.6521 0.0202 
13 19 7 4.4773 -0.1777 
13 19 8 8.1551 -0.0653 
13 19 9 -16.4062 -0.1764 
13 19 10 -5.9320 0.2111 
13 19 11 0.0010 0.2523 
13 21 0 6.0082 -0.2161 
13 21 1 0.3587 0.2068 
13 21 2 1.0336 -0.1718 
13 21 3 -6.4197 0.1714 
13 21 4 16.8237 -0.2218 
13 21 5 2.7425 0.0990 
13 21 6 4.1792 -0.0512 
13 21 7 -2.4579 -0.0711 
13 21 8 8.2724 0.2614 
13 21 9 2.5473 0.1289 
13 23 0 7.2389 0.4890 
13 23 1 -14.4478 0.1125 
13 23 2 13.1667 -0.3386 
13 23 3 20.5063 -0.0153 
13 23 4 15.0001 -0.5497 
13 23 5 -0.9339 1.1635 
13 23 6 0.4663 -0.4163 
13 25 0 -0.4348 0.4468 
13 25 1 -2.4451 -0.3423 
14 0 0 47.2227 1.4219 
14 0 1 29.3139 4.3089 
14 0 2 -18.1741 -1.8538 
14 0 3 14.1397 -2.2590 
14 0 4 4.0054 -2.4201 
14 0 5 20.2154 1.8403 
14 0 6 18.4852 1.1338 
14 0 7 -4.9638 0.9579 
14 0 8 6.6048 -1.1136 
14 0 9 -26.8601 0.1238 
14 0 10 -1.2428 -1.2793 
14 0 11 6.4232 -0.0124 
14 0 12 -2.2220 1.0914 
14 0 13 -15.5924 1.8860 
14 0 14 -1.1143 -0.9834 
14 0 15 -15.2558 -1.4950 
14 0 16 2.3536 -0.1688 
14 0 17 -2.7079 1.1468 
14 0 18 -16.5932 -0.0726 
14 2 0 11.7071 1.0206 
14 2 1 -70.9893 -0.6262 
14 2 2 -29.8634 -0.5124 
14 2 3 -4.1389 0.0975 
14 2 4 9.5264 -0.7314 
14 2 5 -0.5891 1.0286 
14 2 6 -19.8112 -0.4488 
14 2 7 36.6945 -0.1110 
14 2 8 0.9916 -0.2576 
14 2 9 10.8215 1.2030 
14 2 10 14.1463 -0.4608 
14 2 11 -5.5405 -0.4261 
14 2 12 5.6593 -0.2621 
14 2 13 -4.6277 0.8877 
14 2 14 3.0279 0.0711 
14 2 15 -6.4622 -0.3441 
14 2 16 -6.1645 -0.2401 
14 2 17 -4.1376 -0.0261 
14 2 18 2.0885 -0.3048 
14 4 0 -0.1208 0.5244 
14 4 1 -72.0302 0.0425 
14 4 2 9.2910 0.3528 
14 4 3 -27.2296 -0.0200 
14 4 4 -14.6352 -0.5818 
14 4 5 -2.8623 0.0573 
14 4 6 -2.3642 0.3155 
14 4 7 16.1809 0.0566 
14 4 8 -8.3260 -0.3370 
14 4 9 -4.3063 0.1067 
14 4 10 -10.5995 -0.0068 
14 4 11 -4.4010 0.4363 
14 4 12 -8.2711 -0.2312 
14 4 13 -8.7963 -0.0971 
14 4 14 3.2640 -0.2210 
14 4 15 3.2380 0.0233 
14 4 16 8.1442 0.2360 
14 4 17 -5.3107 -0.0156 
14 4 18 -9.8335 -0.0697 
14 6 0 10.3236 -0.7452 
14 6 1 -7.2457 -0.2421 
14 6 2 -12.8808 0.2779 
14 6 3 -10.9350 0.7300 
14 6 4 -4.9439 -0.0217 
14 6 5 -2.6649 -0.1751 
14 6 6 -8.5850 -0.3492 
14 6 7 -17.8327 0.0109 
14 6 8 31.1295 -0.1011 
14 6 9 8.6428 0.3872 
14 6 10 -2.0444 0.1906 
14 6 11 -0.4741 0.0201 
14 6 12 5.6207 -0.3931 
14 6 13 2.1900 -0.2345 
14 6 14 5.5809 0.2317 
14 6 15 2.9452 0.2658 
14 6 16 -2.5766 -0.1476 
14 6 17 2.1865 0.0506 
14 6 18 -5.9646 0.1898 
14 8 0 -27.6606 -0.2948 
14 8 1 -9.1190 0.2688 
14 8 2 -5.5695 -0.0085 
14 8 3 8.7551 0.3181 
14 8 4 12.5331 -0.3253 
14 8 5 -12.5820 0.1408 
14 8 6 -14.0599 -0.0094 
14 8 7 -3.8647 0.2819 
14 8 8 -8.5147 -0.0990 
14 8 9 -15.6349 -0.0016 
14 8 10 12.1769 -0.1548 
14 8 11 -1.9054 0.1631 
14 8 12 0.0937 -0.0024 
14 8 13 -22.3892 -0.0821 
14 8 14 -9.2062 -0.3549 
14 8 15 -7.5404 0.0297 
14 8 16 1.6371 -0.0890 
14 8 17 -5.5124 0.6610 
14 10 0 1.8446 0.4722 
14 10 1 -8.6379 -0.2352 
14 10 2 -2.9984 -0.1907 
14 10 3 -34.1989 -0.1343 
14 10 4 -5.6286 0.3307 
14 10 5 8.5457 0.0426 
14 10 6 8.8876 -0.1183 
14 10 7 -0.5816 0.0445 
14 10 8 -12.9428 -0.0322 
14 10 9 -5.7456 -0.0686 
14 10 10 -1.9526 0.0115 
14 10 11 2.0000 -0.0627 
14 10 12 9.9342 0.0015 
14 10 13 0.9900 0.1075 
14 10 14 5.7515 0.0168 
14 10 15 0.7150 0.1412 
14 10 16 10.6901 -0.3277 
14 10 17 2.0228 -0.2750 
14 12 0 25.9831 0.3637 
14 12 1 -13.0581 0.2346 
14 12 2 11.1942 -0.1991 
14 12 3 -3.8988 -0.3392 
14 12 4 16.2200 0.2262 
14 12 5 2.1599 -0.1488 
14 12 6 -1.6196 0.2175 
14 12 7 -8.6986 0.0834 
14 12 8 -3.8586 0.2588 
14 12 9 -10.0015 -0.2459 
14 12 10 -3.8051 0.0766 
14 12 11 -4.5189 -0.1812 
14 12 12 0.6829 0.0198 
14 12 13 -7.0820 0.0121 
14 12 14 -25.6231 -0.0011 
14 12 15 -5.2600 -0.1151 
14 12 16 -7.3313 0.3499 
14 14 0 -0.7624 0.0942 
14 14 1 -9.3851 0.0658 
14 14 2 -7.1523 -0.2283 
14 14 3 -3.7025 -0.1108 
14 14 4 -4.1650 0.1040 
14 14 5 -20.5884 0.1851 
14 14 6 -5.1177 -0.0565 
14 14 7 3.9041 -0.0986 
14 14 8 8.7439 0.0207 
14 14 9 -0.0763 -0.0349 
14 14 10 4.2202 0.0981 
14 14 11 -17.5461 0.1451 
14 14 12 -0.4259 -0.0736 
14 14 13 2.4865 -0.0204 
14 14 14 -10.8516 0.0669 
14 14 15 -3.8274 0.0198 
14 16 0 -1.2467 -0.1368 
14 16 1 -1.7054 0.0385 
14 16 2 -0.6653 0.1720 
14 16 3 -8.7331 0.0668 
14 16 4 -2.1135 -0.1161 
14 16 5 -3.1836 -0.2031 
14 16 6 1.8648 0.0317 
14 16 7 -13.0406 -0.0024 
14 16 8 -12.6351 0.1146 
14 16 9 12.8043 0.0367 
14 16 10 8.8778 -0.0910 
14 16 11 -15.7473 0.1482 
14 16 12 5.4621 -0.0240 
14 16 13 -6.2829 0.1721 
14 18 0 -3.3079 -0.0370 
14 18 1 -5.0069 -0.2393 
14 18 2 5.7163 0.1376 
14 18 3 -20.8908 0.1855 
14 18 4 13.1835 -0.0082 
14 18 5 -1.1298 0.0473 
14 18 6 15.7940 0.0332 
14 18 7 -6.8520 -0.3951 
14 18 8 9.2917 -0.0132 
14 18 9 7.5964 0.1636 
14 18 10 -5.6027 0.2338 
14 18 11 -1.4001 -0.0096 
14 18 12 -1.9270 0.4694 
14 20 0 -11.8905 0.0521 
14 20 1 -8.0850 -0.2162 
14 20 2 20.0539 0.2764 
14 20 3 -3.3642 0.0195 
14 20 4 19.8746 -0.2424 
14 20 5 -2.5299 0.0783 
14 20 6 14.2744 -0.0692 
14 20 7 6.9778 0.0538 
14 20 8 4.8374 0.1686 
14 20 9 -3.9241 -0.0667 
14 20 10 4.2268 -0.1196 
14 22 0 -8.5889 0.2304 
14 22 1 0.1247 -0.0619 
14 22 2 0.9835 -0.1071 
14 22 3 -3.0532 -0.4715 
14 22 4 7.3013 0.2860 
14 22 5 -5.6022 0.3883 
14 22 6 -5.3103 -0.1920 
14 22 7 5.4614 0.2106 
14 24 0 -3.1345 0.3922 
14 24 1 4.0797 -0.1258 
14 24 2 -3.4186 0.3565 
14 24 3 6.9402 -0.3338 
15 1 0 4.4420 1.6394 
15 1 1 13.5334 0.6973 
15 1 2 -31.1235 -1.2342 
15 1 3 0.6960 -1.3598 
15 1 4 15.5133 0.2955 
15 1 5 2.3325 1.2392 
15 1 6 -31.2014 -0.4133 
15 1 7 -19.3071 -0.2182 
15 1 8 -17.6255 0.1765 
15 1 9 -2.8310 0.1843 
15 1 10 4.6364 -1.0470 
15 1 11 -27.7113 -0.1196 
15 1 12 6.2851 0.6993 
15 1 13 -17.0004 0.8844 
15 1 14 -11.1297 -0.5288 
15 1 15 -1.3365 -0.5526 
15 1 16 4.3573 -0.2408 
15 1 17 -1.7735 0.5748 
15 1 18 4.0711 0.2096 
15 3 0 11.5764 1.0119 
15 3 1 -37.2644 -0.6235 
15 3 2 18.2848 0.3902 
15 3 3 -14.6083 -0.6954 
15 3 4 -48.1136 0.6136 
15 3 5 13.4470 -0.8076 
15 3 6 -26.5312 0.4881 
15 3 7 20.3769 -0.4125 
15 3 8 -10.1358 0.5119 
15 3 9 0.8992 -0.1762 
15 3 10 17.6110 -0.0708 
15 3 11 -3.3900 -0.0990 
15 3 12 -9.2443 0.0074 
15 3 13 -31.0685 0.1262 
15 3 14 11.9630 -0.1226 
15 3 15 -9.0919 0.1212 
15 3 16 4.2022 0.0425 
15 3 17 -11.1500 -0.2942 
15 3 18 -8.6644 -0.3675 
15 5 0 47.0587 -0.2416 
15 5 1 -10.4064 -0.4457 
15 5 2 -21.6393 0.7894 
15 5 3 -0.1020 0.2131 
15 5 4 -6.1513 0.2188 
15 5 5 19.3976 -0.7815 
15 5 6 5.7017 0.3939 
15 5 7 2.5426 -0.5275 
15 5 8 -5.5666 0.4449 
15 5 9 5.1349 -0.3772 
15 5 10 12.3148 0.5494 
15 5 11 -0.4542 -0.1548 
15 5 12 2.1113 -0.1391 
15 5 13 -3.4370 -0.4243 
15 5 14 -1.3300 0.1955 
15 5 15 -27.8473 0.1594 
15 5 16 8.1889 0.0735 
15 5 17 11.2930 0.1012 
15 7 0 9.4863 -0.7427 
15 7 1 6.0476 0.4401 
15 7 2 -13.3091 0.2027 
15 7 3 28.6254 0.4609 
15 7 4 4.2948 -0.3209 
15 7 5 -3.0248 -0.3680 
15 7 6 5.5570 0.0486 
15 7 7 6.0093 0.2800 
15 7 8 8.6122 0.0067 
15 7 9 -2.0034 -0.0747 
15 7 10 9.5665 0.2421 
15 7 11 -13.6055 0.1002 
15 7 12 5.2761 -0.0931 
15 7 13 0.5166 -0.3585 
15 7 14 2.9144 0.0453 
15 7 15 0.9289 -0.1360 
15 7 16 3.4662 -0.0314 
15 7 17 -6.4192 0.4090 
15 9 0 14.0524 -0.2533 
15 9 1 7.3573 0.1166 
15 9 2 -7.3375 -0.2124 
15 9 3 -11.8705 0.0164 
15 9 4 2.8943 0.0432 
15 9 5 4.7288 0.2323 
15 9 6 14.9888 -0.0075 
15 9 7 13.2115 0.0122 
15 9 8 -4.1538 -0.2638 
15 9 9 4.4041 -0.0128 
15 9 10 19.5427 0.3368 
15 9 11 -14.1363 -0.0243 
15 9 12 -3.2137 -0.2295 
15 9 13 -0.4194 0.0455 
15 9 14 20.4555 -0.0153 
15 9 15 4.9805 0.1926 
15 9 16 8.2320 -0.2077 
15 11 0 22.4487 0.0759 
15 11 1 -1.2105 0.3087 
15 11 2 -0.7271 -0.1814 
15 11 3 -1.4942 -0.2421 
15 11 4 -0.2083 0.0669 
15 11 5 -0.3774 0.0088 
15 11 6 -8.1797 0.0817 
15 11 7 -6.3421 0.0508 
15 11 8 -0.2567 0.2352 
15 11 9 11.0771 -0.1448 
15 11 10 13.1465 -0.1038 
15 11 11 4.9431 -0.1100 
15 11 12 -2.6281 0.1981 
15 11 13 -3.1654 -0.0163 
15 11 14 8.4497 -0.0259 
15 11 15 1.4446 -0.2975 
15 13 0 -11.9611 0.0330 
15 13 1 -2.3304 0.3540 
15 13 2 -2.9016 -0.6716 
15 13 3 3.0125 -0.0105 
15 13 4 -5.6249 0.0678 
15 13 5 3.4417 0.4963 
15 13 6 12.0298 -0.2074 
15 13 7 4.5071 -0.2659 
15 13 8 6.2370 0.1284 
15 13 9 -13.6114 0.0415 
15 13 10 2.5491 0.1861 
15 13 11 10.4953 -0.0401 
15 13 12 3.0466 0.0633 
15 13 13 1.3019 -0.0305 
15 13 14 9.6960 0.1403 
15 13 15 2.6625 -0.3281 
15 15 0 -9.3731 -0.1247 
15 15 1 2.6628 0.3993 
15 15 2 -4.7497 -0.1840 
15 15 3 -0.0270 0.1557 
15 15 4 2.0928 -0.4127 
15 15 5 4.8018 0.2264 
15 15 6 -11.9507 -0.2072 
15 15 7 -2.9059 0.1239 
15 15 8 -8.8759 0.0950 
15 15 9 -15.5364 0.1157 
15 15 10 3.8658 -0.2652 
15 15 11 -6.4324 0.0685 
15 15 12 2.7743 0.0206 
15 15 13 4.0420 0.1631 
15 17 0 -0.6757 -0.0841 
15 17 1 -5.3296 -0.2740 
15 17 2 3.2836 0.1347 
15 17 3 -10.5748 0.1676 
15 17 4 -1.5795 0.0006 
15 17 5 1.7159 0.1396 
15 17 6 -2.5861 -0.1822 
15 17 7 8.3593 -0.2784 
15 17 8 -3.2843 -0.0105 
15 17 9 2.6040 0.2167 
15 17 10 -0.3996 -0.1748 
15 17 11 -9.8529 0.4500 
15 17 12 -5.0042 -0.0813 
15 19 0 6.5469 0.0378 
15 19 1 3.0054 -0.3712 
15 19 2 -5.8883 0.6407 
15 19 3 -10.3792 -0.0183 
15 19 4 -4.4076 -0.2320 
15 19 5 -15.7689 -0.0400 
15 19 6 2.1106 -0.0571 
15 19 7 4.1869 0.0959 
15 19 8 -8.1920 0.0427 
15 19 9 1.9974 0.1298 
15 19 10 3.0403 -0.0803 
15 21 0 7.0345 0.2449 
15 21 1 -4.6436 -0.2376 
15 21 2 3.7743 -0.1126 
15 21 3 -8.5415 -0.0432 
15 21 4 7.8906 0.0590 
15 21 5 -8.9412 0.1029 
15 21 6 -0.6585 0.2703 
15 21 7 -3.8546 -0.3361 
15 23 0 -1.3243 -0.1809 
15 23 1 -0.7607 -0.0556 
15 23 2 5.7316 0.3083 
15 23 3 2.0346 -0.2661 
15 23 4 -7.3713 -0.1502 
16 0 0 -5.7238 -1.1904 
16 0 1 -28.1508 -0.8589 
16 0 2 -58.5523 -3.8076 
16 0 3 -17.5255 1.8198 
16 0 4 -24.5661 0.8934 
16 0 5 6.0000 1.0162 
16 0 6 -0.9345 -1.2535 
16 0 7 -3.3241 0.3953 
16 0 8 26.8716 0.6868 
16 0 9 -8.1515 0.1268 
16 0 10 19.5420 -1.4366 
16 0 11 2.2975 -0.5579 
16 0 12 1.2726 0.8908 
16 0 13 19.2499 1.5472 
16 0 14 1.9926 -0.2747 
16 0 15 -1.6845 -1.3211 
16 0 16 -5.5737 -1.1168 
16 0 17 -4.5161 0.6259 
16 2 0 19.8854 1.8429 
16 2 1 18.9006 -0.2839 
16 2 2 -0.8778 -0.9853 
16 2 3 5.4645 -0.0340 
16 2 4 -13.1006 -0.2529 
16 2 5 -17.9302 0.4798 
16 2 6 -14.7090 0.3105 
16 2 7 21.2945 0.4944 
16 2 8 -28.0166 -0.5026 
16 2 9 -2.4074 -0.3955 
16 2 10 11.5274 0.0038 
16 2 11 -3.2827 0.3826 
16 2 12 20.0304 0.1031 
16 2 13 -14.2183 -0.1386 
16 2 14 -3.1356 -0.1519 
16 2 15 -3.8841 -0.1617 
16 2 16 -7.9202 -0.0673 
16 2 17 3.4654 0.3410 
16 4 0 20.5160 -0.5334 
16 4 1 -4.5700 -0.1651 
16 4 2 -2.2129 0.5750 
16 4 3 -9.7906 0.4594 
16 4 4 -5.7286 0.2804 
16 4 5 -9.5730 -1.0238 
16 4 6 -17.1479 0.0662 
16 4 7 16.1445 0.1192 
16 4 8 -23.1508 0.3873 
16 4 9 11.4126 -0.1964 
16 4 10 15.1878 0.3616 
16 4 11 -1.2728 -0.2729 
16 4 12 6.0253 -0.4595 
16 4 13 -16.0523 -0.1433 
16 4 14 4.9916 0.3279 
16 4 15 -2.1586 0.0177 
16 4 16 2.3721 0.2579 
16 4 17 -4.2392 -0.0208 
16 6 0 15.1952 -0.3445 
16 6 1 -8.8841 0.4088 
16 6 2 12.8420 0.4073 
16 6 3 -4.3882 0.2597 
16 6 4 5.5666 -0.5034 
16 6 5 6.9478 -0.0447 
16 6 6 -4.2175 0.2509 
16 6 7 -20.0526 0.0982 
16 6 8 -2.8716 -0.3213 
16 6 9 -15.8129 -0.0511 
16 6 10 -1.9000 0.3551 
16 6 11 0.2770 0.2753 
16 6 12 1.7594 -0.2492 
16 6 13 4.6662 -0.4311 
16 6 14 -9.1162 0.0846 
16 6 15 -4.0900 -0.0609 
16 6 16 5.8173 -0.2575 
16 8 0 19.6753 -0.3141 
16 8 1 -5.3494 -0.1011 
16 8 2 1.0061 0.2508 
16 8 3 -10.6852 0.4056 
16 8 4 6.2497 -0.2342 
16 8 5 -13.2235 0.1239 
16 8 6 5.8110 -0.4309 
16 8 7 15.8152 0.1677 
16 8 8 1.5068 -0.1352 
16 8 9 -12.3043 0.4117 
16 8 10 14.1784 -0.1614 
16 8 11 -12.2473 0.0594 
16 8 12 9.6062 -0.1432 
16 8 13 6.4964 0.1013 
16 8 14 10.9132 0.0342 
16 8 15 9.7623 0.0048 
16 8 16 4.4274 -0.1456 
16 10 0 33.2767 0.5563 
16 10 1 10.0648 0.0151 
16 10 2 8.8232 -0.0914 
16 10 3 12.3834 -0.4860 
16 10 4 18.7542 0.1092 
16 10 5 13.4214 0.4022 
16 10 6 -18.2682 -0.1098 
16 10 7 14.6039 0.0473 
16 10 8 -9.8560 -0.1040 
16 10 9 -5.2010 0.0710 
16 10 10 17.2205 -0.1354 
16 10 11 -10.2667 0.0887 
16 10 12 6.6273 0.0665 
16 10 13 5.7512 0.0156 
16 10 14 -5.9624 -0.4062 
16 10 15 4.3978 -0.2324 
16 12 0 13.5597 0.1465 
16 12 1 -1.0352 0.0277 
16 12 2 10.9948 -0.3138 
16 12 3 -5.6643 -0.1742 
16 12 4 -4.9796 0.3842 
16 12 5 10.7173 0.1036 
16 12 6 -6.9773 -0.0880 
16 12 7 1.5455 -0.2619 
16 12 8 2.2642 0.2248 
16 12 9 6.0557 0.0478 
16 12 10 0.1276 -0.2278 
16 12 11 -4.9270 0.0872 
16 12 12 0.0435 0.1868 
16 12 13 6.1634 0.0846 
16 12 14 -18.2902 -0.1490 
16 14 0 -14.2027 0.0683 
16 14 1 0.7182 0.2235 
16 14 2 -5.4698 -0.1784 
16 14 3 -6.1371 -0.0641 
16 14 4 9.0850 -0.1675 
16 14 5 10.5177 0.2497 
16 14 6 3.3695 -0.0903 
16 14 7 -13.6362 -0.0695 
16 14 8 5.7023 0.1479 
16 14 9 -10.9197 0.0468 
16 14 10 3.7873 -0.1581 
16 14 11 -2.5387 0.0698 
16 14 12 -2.4405 0.0886 
16 14 13 0.2281 -0.1994 
16 16 0 -0.4859 -0.1961 
16 16 1 -6.5157 -0.1283 
16 16 2 2.6932 0.1956 
16 16 3 -10.7678 0.1222 
16 16 4 4.2180 -0.2010 
16 16 5 6.5090 0.1049 
16 16 6 14.4679 0.1091 
16 16 7 2.0561 -0.3278 
16 16 8 7.6862 -0.0611 
16 16 9 2.5503 0.1744 
16 16 10 15.8423 0.0461 
16 16 11 -11.4940 0.1343 
16 16 12 -7.0244 -0.1244 
16 18 0 14.6001 -0.2004 
16 18 1 -9.9568 -0.1944 
16 18 2 -2.2371 0.4902 
16 18 3 -6.7407 0.0513 
16 18 4 4.3730 -0.2263 
16 18 5 -1.2434 -0.1574 
16 18 6 -2.3109 0.2219 
16 18 7 -6.9819 -0.1567 
16 18 8 2.3369 0.1591 
16 18 9 9.0524 0.0806 
16 18 10 5.0365 -0.0450 
16 20 0 1.9021 0.0477 
16 20 1 -1.5057 -0.2565 
16 20 2 3.1471 0.2498 
16 20 3 -4.1057 -0.0229 
16 20 4 4.8794 0.0100 
16 20 5 -9.5760 0.0067 
16 20 6 3.1171 -0.0390 
16 20 7 5.7751 0.0679 
16 20 8 -6.4643 -0.4910 
16 22 0 10.8079 0.0010 
16 22 1 -6.2108 -0.0656 
16 22 2 2.7987 0.1948 
16 22 3 -7.1036 -0.4327 
16 22 4 13.9109 0.3976 
16 22 5 5.5148 -0.6703 
16 24 0 -10.0382 0.7823 
17 1 0 32.4563 1.5922 
17 1 1 -5.3178 -0.9170 
17 1 2 35.7236 -2.1638 
17 1 3 -6.7701 -0.3741 
17 1 4 32.9258 0.4108 
17 1 5 8.6953 1.0244 
17 1 6 -25.7227 0.0786 
17 1 7 3.0871 0.0479 
17 1 8 6.8817 -0.1798 
17 1 9 -2.1660 0.1366 
17 1 10 15.7602 -0.5805 
17 1 11 -2.0816 0.0425 
17 1 12 1.4357 0.8801 
17 1 13 -7.1401 0.3557 
17 1 14 -0.6645 -0.3588 
17 1 15 1.9944 -0.7433 
17 1 16 16.4866 0.0587 
17 3 0 43.6757 0.2568 
17 3 1 -5.3450 -0.4072 
17 3 2 10.4792 0.4533 
17 3 3 -11.4280 -0.5890 
17 3 4 -7.0942 0.4356 
17 3 5 28.5832 -0.3170 
17 3 6 0.5357 0.2274 
17 3 7 35.4767 -0.2287 
17 3 8 -2.3948 0.1599 
17 3 9 12.2768 0.1457 
17 3 10 29.6300 0.1611 
17 3 11 -8.1452 -0.0978 
17 3 12 10.1971 -0.1904 
17 3 13 -0.4953 -0.0828 
17 3 14 20.7499 -0.0472 
17 3 15 2.6615 -0.2313 
17 3 16 -4.5085 0.0873 
17 5 0 32.3137 0.2137 
17 5 1 9.9937 -0.0055 
17 5 2 0.6876 0.3736 
17 5 3 19.9657 0.0298 
17 5 4 -11.3853 -0.1333 
17 5 5 6.4721 -0.4096 
17 5 6 1.7381 0.2813 
17 5 7 13.4788 -0.1137 
17 5 8 3.9261 0.3210 
17 5 9 11.4051 -0.3025 
17 5 10 7.2003 0.5747 
17 5 11 2.9951 -0.1527 
17 5 12 19.1869 -0.2768 
17 5 13 8.7043 -0.2823 
17 5 14 12.4092 0.0923 
17 5 15 -5.4669 -0.0628 
17 5 16 9.5946 -0.1149 
17 7 0 31.6869 -0.4566 
17 7 1 -4.8450 0.0271 
17 7 2 2.9808 0.3338 
17 7 3 1.5857 0.2998 
17 7 4 4.4908 -0.0015 
17 7 5 7.6982 -0.1386 
17 7 6 -21.1250 -0.1693 
17 7 7 -5.0881 0.0498 
17 7 8 9.9510 -0.0471 
17 7 9 0.9815 0.1594 
17 7 10 -11.8215 0.1008 
17 7 11 -3.2840 -0.1648 
17 7 12 13.6369 0.0700 
17 7 13 -4.5764 -0.1735 
17 7 14 -12.7859 0.1836 
17 7 15 6.3823 -0.0516 
17 7 16 10.0560 0.1210 
17 9 0 21.9971 0.1744 
17 9 1 13.5659 -0.0827 
17 9 2 12.4196 0.1783 
17 9 3 -9.5186 -0.0651 
17 9 4 3.6654 -0.0534 
17 9 5 7.7976 0.0214 
17 9 6 -11.4363 -0.0241 
17 9 7 -7.0707 0.0989 
17 9 8 -16.8468 0.0067 
17 9 9 -3.0170 -0.0141 
17 9 10 9.9376 -0.1422 
17 9 11 6.4518 0.0708 
17 9 12 16.3285 0.2103 
17 9 13 0.2933 -0.0207 
17 9 14 -8.4503 -0.3977 
17 9 15 -2.4341 -0.3202 
17 11 0 -4.0925 0.3421 
17 11 1 -13.2506 -0.2057 
17 11 2 4.9784 -0.2680 
17 11 3 5.7956 -0.0532 
17 11 4 1.9154 0.2837 
17 11 5 -1.4367 0.1596 
17 11 6 -7.9087 0.0002 
17 11 7 5.2193 -0.2585 
17 11 8 -4.8811 0.1481 
17 11 9 -7.2387 -0.0104 
17 11 10 -5.6324 -0.1012 
17 11 11 -4.1521 0.1226 
17 11 12 -1.8693 0.0329 
17 11 13 9.1061 0.0826 
17 11 14 -7.2937 -0.1270 
17 13 0 2.1926 0.0648 
17 13 1 8.8729 0.0812 
17 13 2 1.0351 -0.0500 
17 13 3 1.3412 -0.0927 
17 13 4 5.6617 -0.1972 
17 13 5 -3.3125 0.2635 
17 13 6 -5.0092 0.0407 
17 13 7 -2.7001 0.0831 
17 13 8 -9.6220 -0.0879 
17 13 9 -17.1165 0.0436 
17 13 10 -8.3990 -0.0544 
17 13 11 6.3299 -0.0927 
17 13 12 -6.6731 0.1909 
17 13 13 7.2247 0.1378 
17 15 0 -3.7216 -0.0649 
17 15 1 -0.4088 -0.1114 
17 15 2 15.4100 0.0474 
17 15 3 -0.4141 0.1536 
17 15 4 9.1071 -0.2300 
17 15 5 19.4323 0.3974 
17 15 6 -3.3342 -0.1620 
17 15 7 8.3347 -0.1903 
17 15 8 -4.5206 -0.1872 
17 15 9 -9.1107 0.3696 
17 15 10 -0.4114 -0.0481 
17 15 11 -8.4674 0.1296 
17 15 12 -9.7282 0.2077 
17 17 0 -4.7575 -0.1745 
17 17 1 -0.1634 0.0166 
17 17 2 32.0608 0.4487 
17 17 3 -7.4547 -0.1297 
17 17 4 4.6157 -0.3668 
17 17 5 14.4237 0.0387 
17 17 6 -13.9410 0.2261 
17 17 7 -8.5574 -0.0599 
17 17 8 -10.9859 -0.0371 
17 17 9 -13.1595 0.1497 
17 17 10 1.4409 0.2066 
17 19 0 3.0551 -0.1865 
17 19 1 -2.0870 -0.2153 
17 19 2 6.9874 0.3054 
17 19 3 -22.6057 0.0631 
17 19 4 -6.6436 0.0521 
17 19 5 -0.6233 -0.2371 
17 19 6 -8.3054 0.0499 
17 19 7 2.2492 -0.0196 
17 19 8 3.2122 -0.5153 
17 21 0 15.2288 -0.0511 
17 21 1 7.0498 0.0655 
17 21 2 18.5625 0.2950 
17 21 3 0.8308 -0.2172 
17 21 4 9.8858 0.1039 
17 21 5 -8.3056 -0.2873 
17 23 0 1.8965 -0.1675 
17 23 1 -11.0885 0.4723 
18 0 0 0.7305 -1.2764 
18 0 1 37.0979 4.2590 
18 0 2 23.4399 -7.4340 
18 0 3 -24.3305 -0.0080 
18 0 4 4.9093 0.8326 
18 0 5 5.9397 3.0675 
18 0 6 1.1849 -1.1233 
18 0 7 1.3697 -0.4390 
18 0 8 10.3083 -0.4351 
18 0 9 -10.5064 -0.1664 
18 0 10 -15.5803 -0.6060 
18 0 11 7.7789 0.9589 
18 0 12 7.7867 1.0719 
18 0 13 19.5875 -0.2514 
18 0 14 7.3384 -1.2020 
18 0 15 -4.8051 0.0922 
18 0 16 -8.8645 0.9250 
18 2 0 -33.9728 0.6538 
18 2 1 26.6737 0.6206 
18 2 2 5.5798 -2.0245 
18 2 3 7.9494 0.4762 
18 2 4 0.5489 0.1575 
18 2 5 -2.3956 0.5722 
18 2 6 -9.5739 -1.2727 
18 2 7 -5.8853 0.6399 
18 2 8 -11.2608 0.3624 
18 2 9 -3.7873 0.0661 
18 2 10 -3.2916 -0.9011 
18 2 11 5.4245 0.1318 
18 2 12 11.0231 0.6237 
18 2 13 -1.9377 0.1272 
18 2 14 8.4211 -0.3397 
18 2 15 -0.6702 -0.3012 
18 2 16 -0.4893 -0.2449 
18 4 0 -2.6009 0.7049 
18 4 1 52.7975 -0.5157 
18 4 2 -8.5573 0.3856 
18 4 3 20.7817 -0.2958 
18 4 4 8.7225 -0.1795 
18 4 5 2.9806 0.1169 
18 4 6 -2.4594 -0.0851 
18 4 7 7.0906 0.0529 
18 4 8 0.7181 -0.1312 
18 4 9 -2.3844 -0.0962 
18 4 10 4.2793 0.3080 
18 4 11 -3.6230 0.3030 
18 4 12 17.0076 -0.2891 
18 4 13 2.3231 -0.3929 
18 4 14 7.8507 0.0001 
18 4 15 0.8444 -0.2024 
18 4 16 12.2058 -0.4167 
18 6 0 -2.8822 -0.5617 
18 6 1 8.4887 -0.0370 
18 6 2 16.9047 0.6920 
18 6 3 10.4184 0.4434 
18 6 4 9.5819 -0.5346 
18 6 5 -14.2039 -0.2596 
18 6 6 -1.0235 -0.2683 
18 6 7 4.7598 0.2701 
18 6 8 2.9778 0.1954 
18 6 9 -4.9350 0.1740 
18 6 10 -6.9865 -0.0225 
18 6 11 1.9426 -0.1585 
18 6 12 3.1933 -0.1851 
18 6 13 -11.6202 0.0776 
18 6 14 -10.0711 -0.0995 
18 6 15 -2.4102 -0.1315 
18 8 0 22.9763 -0.0813 
18 8 1 -0.0459 0.1103 
18 8 2 25.7547 -0.1026 
18 8 3 10.3766 0.0632 
18 8 4 21.6114 -0.1048 
18 8 5 2.9044 0.1368 
18 8 6 12.4332 0.1398 
18 8 7 8.3452 0.0356 
18 8 8 -6.4232 -0.4621 
18 8 9 7.9673 0.2862 
18 8 10 14.2785 -0.0076 
18 8 11 -0.1854 0.2752 
18 8 12 -0.5500 -0.2435 
18 8 13 5.9365 -0.0108 
18 8 14 7.4101 -0.2817 
18 8 15 1.8096 0.1140 
18 10 0 -7.8394 0.1581 
18 10 1 16.9532 -0.2034 
18 10 2 4.7463 0.2150 
18 10 3 -8.2980 -0.0156 
18 10 4 -3.0666 0.0452 
18 10 5 8.3231 -0.0015 
18 10 6 -4.1739 0.0269 
18 10 7 11.3297 -0.1633 
18 10 8 1.6663 0.1334 
18 10 9 0.4827 0.0928 
18 10 10 1.1987 -0.1455 
18 10 11 -13.3306 -0.0841 
18 10 12 5.6556 0.0411 
18 10 13 17.2708 0.5171 
18 10 14 -0.7172 -0.1961 
18 12 0 -21.0151 0.4060 
18 12 1 3.9865 -0.2529 
18 12 2 -6.6548 -0.0476 
18 12 3 3.1417 -0.3622 
18 12 4 -15.4816 0.1763 
18 12 5 -7.3348 0.1688 
18 12 6 -0.9277 0.2721 
18 12 7 8.8687 -0.3843 
18 12 8 -6.6689 0.2044 
18 12 9 6.2783 -0.0837 
18 12 10 -3.4830 0.0202 
18 12 11 2.7428 0.1496 
18 12 12 -2.1886 -0.0224 
18 12 13 -1.6754 0.1694 
18 14 0 6.4987 0.0222 
18 14 1 -8.9485 -0.1743 
18 14 2 -6.6064 0.0941 
18 14 3 16.3052 0.0432 
18 14 4 19.2525 -0.0462 
18 14 5 -8.9142 0.1256 
18 14 6 -9.1472 -0.0060 
18 14 7 4.1010 -0.0784 
18 14 8 6.0134 -0.0311 
18 14 9 -2.0531 0.0674 
18 14 10 1.2477 -0.0990 
18 14 11 7.6553 -0.0094 
18 14 12 -3.7748 0.3485 
18 16 0 7.6893 0.0717 
18 16 1 -2.5764 -0.1875 
18 16 2 19.4792 0.4200 
18 16 3 5.3121 -0.1886 
18 16 4 17.1239 -0.0828 
18 16 5 -2.2010 -0.0921 
18 16 6 -1.2072 0.1406 
18 16 7 -5.5454 0.0965 
18 16 8 13.7208 -0.1410 
18 16 9 8.5307 0.1710 
18 16 10 11.5940 -0.1357 
18 18 0 -8.0039 -0.2475 
18 18 1 -3.4924 -0.0901 
18 18 2 5.4795 0.2861 
18 18 3 3.1652 0.0144 
18 18 4 9.1531 -0.0723 
18 18 5 -1.4502 -0.3655 
18 18 6 -5.5341 0.3869 
18 18 7 -10.6787 -0.2858 
18 18 8 -1.5049 0.0793 
18 20 0 3.1327 -0.2310 
18 20 1 7.7327 0.2838 
18 20 2 8.9719 -0.1454 
18 20 3 5.3528 0.4576 
18 20 4 -1.1506 -0.1472 
18 20 5 -20.9671 -0.3249 
18 20 6 -1.1186 0.3387 
18 22 0 -8.0678 -0.0619 
18 22 1 -15.8832 0.1376 
18 22 2 -3.2303 -1.3187 
19 1 0 16.8175 1.7528 
19 1 1 -12.0504 -0.5433 
19 1 2 35.2863 -1.8677 
19 1 3 -0.5457 0.6190 
19 1 4 29.2824 0.6057 
19 1 5 -5.2233 0.7364 
19 1 6 -3.5777 -0.9039 
19 1 7 -3.6390 0.2719 
19 1 8 -18.2108 0.0565 
19 1 9 1.8284 -0.2241 
19 1 10 -4.6727 -0.4303 
19 1 11 0.1177 0.3055 
19 1 12 6.7601 0.4532 
19 1 13 11.4148 0.2037 
19 1 14 8.5682 -0.9503 
19 1 15 5.2943 -0.5760 
19 3 0 -13.8390 0.7996 
19 3 1 22.6867 -0.5278 
19 3 2 7.7998 0.1140 
19 3 3 -21.9872 -0.5032 
19 3 4 7.8401 0.2746 
19 3 5 3.3443 -0.1286 
19 3 6 9.6837 0.3007 
19 3 7 7.8844 0.0349 
19 3 8 -13.1283 -0.0314 
19 3 9 3.0515 -0.2156 
19 3 10 -0.8054 -0.0478 
19 3 11 -7.0946 0.1469 
19 3 12 7.3257 -0.0137 
19 3 13 5.3599 -0.1622 
19 3 14 2.9296 0.0825 
19 3 15 7.2864 -0.2071 
19 5 0 -15.7501 -0.7198 
19 5 1 9.7252 0.5174 
19 5 2 -11.2651 0.8286 
19 5 3 1.3158 0.2146 
19 5 4 8.2553 -0.5813 
19 5 5 -5.8577 -0.3006 
19 5 6 15.4276 0.2514 
19 5 7 1.6425 -0.1553 
19 5 8 -5.3578 0.1477 
19 5 9 -10.9435 0.0171 
19 5 10 -7.5323 0.4045 
19 5 11 0.3827 -0.3978 
19 5 12 -1.8770 -0.0035 
19 5 13 -5.4673 -0.1531 
19 5 14 -3.2814 -0.0927 
19 5 15 -11.9142 -0.2563 
19 7 0 -2.1520 -0.2927 
19 7 1 18.2294 0.2055 
19 7 2 14.6960 0.1965 
19 7 3 -5.6662 -0.0399 
19 7 4 12.6874 -0.3672 
19 7 5 3.8298 0.1097 
19 7 6 -7.4845 0.1849 
19 7 7 1.0964 -0.1450 
19 7 8 6.3996 -0.1594 
19 7 9 7.3264 0.2450 
19 7 10 -3.1418 0.2058 
19 7 11 2.0530 -0.0525 
19 7 12 3.5425 -0.0361 
19 7 13 9.3070 -0.1217 
19 7 14 15.3242 -0.3297 
19 9 0 13.3008 0.1333 
19 9 1 -4.5228 -0.1292 
19 9 2 -0.8122 0.0096 
19 9 3 -12.0972 0.0815 
19 9 4 6.3636 0.1628 
19 9 5 12.1320 -0.0937 
19 9 6 -7.6206 0.0879 
19 9 7 8.0651 -0.2462 
19 9 8 7.6460 0.1462 
19 9 9 2.5384 0.1340 
19 9 10 12.4135 -0.2890 
19 9 11 13.7788 0.0509 
19 9 12 -2.4399 0.0401 
19 9 13 5.9808 0.1973 
19 9 14 2.8621 -0.1481 
19 11 0 0.5363 0.2985 
19 11 1 -8.3530 -0.2279 
19 11 2 2.7860 -0.0874 
19 11 3 -10.0547 -0.2580 
19 11 4 1.9573 0.3718 
19 11 5 6.3931 -0.0181 
19 11 6 4.6674 0.0864 
19 11 7 7.0405 -0.3049 
19 11 8 -0.5062 0.2995 
19 11 9 7.6794 -0.2878 
19 11 10 14.4431 0.0947 
19 11 11 7.3003 0.1428 
19 11 12 -10.7162 0.0540 
19 11 13 4.5030 0.1250 
19 13 0 -6.6233 -0.0949 
19 13 1 9.7517 -0.0710 
19 13 2 22.5037 -0.1935 
19 13 3 -5.3173 0.1553 
19 13 4 -0.0652 0.0154 
19 13 5 -1.3124 0.0201 
19 13 6 8.0610 0.0013 
19 13 7 11.7624 -0.0554 
19 13 8 8.4245 0.1366 
19 13 9 7.7246 -0.1915 
19 13 10 -10.7020 -0.1064 
19 13 11 7.2474 0.0010 
19 13 12 -5.9632 0.5955 
19 15 0 8.5235 -0.0757 
19 15 1 -2.2640 0.0520 
19 15 2 28.7866 0.1538 
19 15 3 -15.9901 0.1524 
19 15 4 -2.7988 -0.4010 
19 15 5 -2.1970 0.0896 
19 15 6 9.8806 0.0931 
19 15 7 8.6895 0.2825 
19 15 8 2.5907 -0.2137 
19 15 9 -3.2248 0.1692 
19 15 10 -1.6127 -0.3341 
19 17 0 -3.3992 -0.1467 
19 17 1 5.1354 -0.1380 
19 17 2 10.1408 0.3174 
19 17 3 -11.3923 0.0084 
19 17 4 15.2778 -0.1618 
19 17 5 -9.9219 -0.2701 
19 17 6 9.9074 0.2613 
19 17 7 -7.9283 0.1421 
19 17 8 -2.9588 -0.4041 
19 19 0 3.1409 -0.0861 
19 19 1 -1.5919 0.1893 
19 19 2 -5.6618 -0.0346 
19 19 3 -10.0225 0.3234 
19 19 4 2.3538 -0.2571 
19 19 5 -9.6868 -0.3985 
19 19 6 9.9124 0.5982 
19 21 0 1.2475 0.1589 
19 21 1 2.8484 -0.3749 
19 21 2 7.5334 -0.4908 
19 21 3 -4.0925 0.1546 
20 0 0 -21.1464 -0.4801 
20 0 1 -0.9074 0.2558 
20 0 2 13.7940 -1.8960 
20 0 3 -12.2483 0.9242 
20 0 4 23.9269 0.8055 
20 0 5 14.6683 0.7957 
20 0 6 -2.5411 -0.8118 
20 0 7 5.2900 0.2890 
20 0 8 -2.2106 0.0917 
20 0 9 16.5400 -0.1887 
20 0 10 1.0671 -1.1051 
20 0 11 8.3444 0.7119 
20 0 12 14.8190 1.2986 
20 0 13 4.2566 0.6369 
20 0 14 15.7950 -1.9190 
20 2 0 -13.7555 0.7216 
20 2 1 29.4201 -1.6156 
20 2 2 3.5276 -0.0913 
20 2 3 9.1359 -0.3213 
20 2 4 9.0460 0.3675 
20 2 5 1.9679 0.9508 
20 2 6 7.4908 -0.3749 
20 2 7 8.1977 -0.3306 
20 2 8 13.5239 -0.2461 
20 2 9 2.2252 0.6538 
20 2 10 -3.4087 -0.1961 
20 2 11 2.5203 0.0752 
20 2 12 -0.0957 -0.0003 
20 2 13 2.6600 -0.0505 
20 2 14 13.2227 -0.5260 
20 4 0 -11.5386 0.0400 
20 4 1 11.7210 0.1781 
20 4 2 -37.3759 0.9314 
20 4 3 1.7133 -0.2845 
20 4 4 4.7707 -0.4585 
20 4 5 -3.8414 -0.1648 
20 4 6 8.7047 0.2852 
20 4 7 -4.2751 0.1302 
20 4 8 12.6073 0.0398 
20 4 9 -3.3637 0.4534 
20 4 10 14.2750 -0.4206 
20 4 11 7.1403 -0.1419 
20 4 12 -0.3235 0.0213 
20 4 13 10.5171 -0.1196 
20 4 14 8.2302 -0.0288 
20 6 0 -5.2675 -0.2001 
20 6 1 -0.8849 0.3063 
20 6 2 7.2517 0.1795 
20 6 3 -11.2302 -0.1151 
20 6 4 -1.5258 -0.1394 
20 6 5 9.9194 0.0903 
20 6 6 7.0703 0.0229 
20 6 7 3.4343 -0.0513 
20 6 8 8.5949 -0.2863 
20 6 9 1.2558 0.2483 
20 6 10 -0.1505 0.4101 
20 6 11 1.8318 -0.1734 
20 6 12 8.9648 -0.0109 
20 6 13 9.7078 0.1082 
20 6 14 8.7239 -0.6196 
20 8 0 5.4541 -0.1601 
20 8 1 -5.1466 0.3127 
20 8 2 2.6751 0.0482 
20 8 3 -4.5262 0.1688 
20 8 4 4.2754 -0.2858 
20 8 5 -8.7880 -0.1718 
20 8 6 5.9357 0.0180 
20 8 7 3.3982 0.1861 
20 8 8 -1.7807 0.0665 
20 8 9 17.8636 0.0097 
20 8 10 8.7238 -0.2298 
20 8 11 -1.0476 0.1946 
20 8 12 0.3053 -0.1406 
20 8 13 5.7152 0.4707 
20 10 0 -3.2924 0.2202 
20 10 1 10.5927 -0.3083 
20 10 2 -10.1085 -0.3306 
20 10 3 -10.6220 0.2742 
20 10 4 18.5965 0.1341 
20 10 5 -22.9197 0.2503 
20 10 6 2.7318 -0.2003 
20 10 7 -2.2359 -0.0478 
20 10 8 -2.5495 0.0223 
20 10 9 6.6742 -0.2267 
20 10 10 -3.4631 0.0895 
20 10 11 -10.8291 0.3743 
20 10 12 -3.4783 0.1535 
20 12 0 -26.0439 0.1365 
20 12 1 10.5328 -0.2477 
20 12 2 -5.6537 0.1626 
20 12 3 -2.3236 -0.1339 
20 12 4 -3.0520 0.1510 
20 12 5 -14.9393 -0.0976 
20 12 6 3.5461 0.0135 
20 12 7 -4.5062 0.1011 
20 12 8 -4.5928 0.0084 
20 12 9 8.0736 -0.2679 
20 12 10 -2.4993 -0.0634 
20 12 11 1.6682 -0.0686 
20 14 0 9.3715 -0.1141 
20 14 1 -7.4817 0.0251 
20 14 2 -6.7626 0.0746 
20 14 3 5.9805 0.0911 
20 14 4 13.7685 -0.1226 
20 14 5 2.1462 -0.0061 
20 14 6 -0.7912 0.1648 
20 14 7 4.6047 -0.0543 
20 14 8 -0.7910 0.0533 
20 14 9 -4.7465 0.1412 
20 14 10 -1.6475 -0.1343 
20 16 0 1.9196 0.0551 
20 16 1 1.8477 -0.1072 
20 16 2 -9.1932 0.4032 
20 16 3 -4.9838 -0.1658 
20 16 4 16.7991 -0.1714 
20 16 5 6.3072 -0.0359 
20 16 6 20.3527 0.1531 
20 16 7 -5.8718 0.1277 
20 16 8 7.8429 -0.1536 
20 18 0 -2.9751 -0.0164 
20 18 1 -2.0635 0.2796 
20 18 2 -4.6740 -0.1024 
20 18 3 -5.3685 0.1874 
20 18 4 8.2051 0.0019 
20 18 5 3.9176 -0.7230 
20 18 6 13.5063 0.4877 
20 20 0 3.4508 -0.1804 
20 20 1 -2.9096 0.2119 
20 20 2 7.8890 -0.8808 
20 20 3 -1.6078 0.6849 
20 20 4 -3.6727 0.0903 
21 1 0 2.5363 0.4906 
21 1 1 -17.3336 -2.0427 
21 1 2 6.6403 -1.3872 
21 1 3 -4.6040 -0.0254 
21 1 4 -4.5561 1.5927 
21 1 5 1.0644 0.5361 
21 1 6 3.8239 -0.8537 
21 1 7 5.3884 -0.1399 
21 1 8 8.8758 -0.1080 
21 1 9 -4.4539 -0.0116 
21 1 10 3.3243 -0.1736 
21 1 11 2.6159 0.4386 
21 1 12 -6.0816 0.3660 
21 1 13 -12.1954 0.1253 
21 1 14 3.0341 -0.5834 
21 3 0 2.3607 0.5696 
21 3 1 1.5524 -0.8672 
21 3 2 -14.7506 1.0166 
21 3 3 4.4504 -0.5623 
21 3 4 -3.2843 0.5533 
21 3 5 -9.6653 -0.9010 
21 3 6 18.8913 0.2825 
21 3 7 0.2085 -0.0787 
21 3 8 9.4672 0.2563 
21 3 9 -1.7319 0.2893 
21 3 10 -4.2522 -0.3081 
21 3 11 6.4110 0.1762 
21 3 12 -1.9362 0.0880 
21 3 13 -1.1545 -0.3504 
21 5 0 7.4173 -0.2501 
21 5 1 12.6235 0.0708 
21 5 2 -0.5338 0.3801 
21 5 3 6.4788 -0.1658 
21 5 4 1.7000 -0.3556 
21 5 5 -22.4300 -0.2991 
21 5 6 12.2358 0.7371 
21 5 7 5.3029 -0.3584 
21 5 8 -1.7597 0.1000 
21 5 9 -9.4995 -0.0564 
21 5 10 1.3150 0.3318 
21 5 11 3.7351 -0.1860 
21 5 12 -8.0585 0.1522 
21 5 13 0.9915 -0.2389 
21 7 0 4.1217 -0.2455 
21 7 1 8.5266 0.6682 
21 7 2 -1.8774 0.0383 
21 7 3 -1.1277 0.1690 
21 7 4 15.3843 -0.5008 
21 7 5 -3.9802 -0.1325 
21 7 6 4.1039 0.0056 
21 7 7 8.9592 0.1138 
21 7 8 11.6906 0.2055 
21 7 9 8.8918 -0.2798 
21 7 10 -4.6967 0.2214 
21 7 11 -7.6898 -0.1282 
21 7 12 -0.5639 -0.0330 
21 7 13 -3.2183 0.3142 
21 9 0 0.3344 -0.0990 
21 9 1 -6.6234 0.1209 
21 9 2 11.1745 -0.3707 
21 9 3 -10.1610 0.2211 
21 9 4 -3.9500 -0.0298 
21 9 5 13.4066 0.3392 
21 9 6 12.6244 -0.2265 
21 9 7 -9.9866 -0.1263 
21 9 8 3.1045 -0.0088 
21 9 9 1.8929 -0.0664 
21 9 10 -8.3124 0.1826 
21 9 11 -1.6204 0.4262 
21 9 12 -8.1939 -0.0629 
21 11 0 3.3979 0.0058 
21 11 1 3.1038 -0.1591 
21 11 2 11.3045 0.2331 
21 11 3 -10.0984 -0.2369 
21 11 4 -0.3608 0.0471 
21 11 5 -2.6050 0.2998 
21 11 6 11.5446 -0.1806 
21 11 7 -6.3310 0.0503 
21 11 8 5.7509 0.0666 
21 11 9 7.7909 -0.3031 
21 11 10 -4.2615 -0.1402 
21 11 11 2.0343 -0.0605 
21 13 0 2.4004 -0.1708 
21 13 1 -2.3162 0.0811 
21 13 2 2.6801 -0.1169 
21 13 3 -14.6562 0.1426 
21 13 4 6.4783 0.0170 
21 13 5 1.7611 0.1079 
21 13 6 10.8842 -0.1063 
21 13 7 -1.1304 -0.1467 
21 13 8 5.2793 0.1840 
21 13 9 0.8880 0.0732 
21 13 10 -10.0143 -0.3385 
21 15 0 1.1161 -0.2262 
21 15 1 -23.1325 0.1821 
21 15 2 20.8643 -0.0480 
21 15 3 -11.6967 0.1830 
21 15 4 -3.5964 -0.2281 
21 15 5 3.0397 0.0501 
21 15 6 17.3164 0.1214 
21 15 7 -4.8630 0.2116 
21 15 8 2.7367 -0.3368 
21 17 0 0.0495 0.1788 
21 17 1 -7.0411 0.1017 
21 17 2 0.4116 0.0895 
21 17 3 -2.4881 0.1022 
21 17 4 6.7979 -0.0206 
21 17 5 -3.4863 -0.5662 
21 17 6 17.4337 0.2121 
21 19 0 7.2865 0.1271 
21 19 1 4.5826 0.1409 
21 19 2 2.5852 -0.6700 
21 19 3 -4.4740 0.7215 
21 19 4 -3.9213 -0.2034 
21 21 0 -9.5157 0.7259 
22 0 0 8.0636 -5.1169 
22 0 1 2.9346 -2.3569 
22 0 2 5.2237 -4.0106 
22 0 3 18.0013 3.4827 
22 0 4 -13.0879 1.3759 
22 0 5 12.5597 0.6594 
22 0 6 -1.3944 -1.6704 
22 0 7 -7.6065 -0.4958 
22 0 8 14.7690 0.2056 
22 0 9 -3.4481 0.0441 
22 0 10 4.0291 0.0832 
22 0 11 -5.5975 0.3210 
22 0 12 -6.0274 -0.0246 
22 0 13 3.7416 -0.3457 
22 2 0 9.3836 0.8616 
22 2 1 3.1922 -0.1821 
22 2 2 -14.6885 -0.7024 
22 2 3 -4.4908 0.8237 
22 2 4 -10.9698 -0.3794 
22 2 5 4.1880 -0.0169 
22 2 6 11.6064 0.1021 
22 2 7 -11.4479 0.2790 
22 2 8 9.8325 -0.2021 
22 2 9 -13.1133 -0.4983 
22 2 10 2.8367 0.2531 
22 2 11 -4.7224 0.2451 
22 2 12 -2.6693 0.2511 
22 2 13 8.7852 -0.0442 
22 4 0 4.7103 -0.2482 
22 4 1 0.1207 0.1820 
22 4 2 -12.5101 0.0657 
22 4 3 12.4628 0.2310 
22 4 4 10.2266 -0.1381 
22 4 5 0.9130 -0.3540 
22 4 6 19.7852 0.4330 
22 4 7 -7.4845 -0.2245 
22 4 8 3.0270 -0.1617 
22 4 9 -4.6411 0.2480 
22 4 10 0.1002 0.1634 
22 4 11 -12.3985 0.0992 
22 4 12 -12.8648 0.0924 
22 6 0 -9.7959 -0.0059 
22 6 1 -11.3929 0.8115 
22 6 2 -8.1256 0.3887 
22 6 3 2.5270 -0.3104 
22 6 4 -3.8790 -0.8041 
22 6 5 12.7419 0.0814 
22 6 6 8.2993 0.2131 
22 6 7 1.9753 0.2110 
22 6 8 4.4001 -0.1294 
22 6 9 -2.4167 0.0496 
22 6 10 11.3465 0.0500 
22 6 11 7.0662 -0.1982 
22 6 12 2.9710 0.2549 
22 8 0 11.9354 -0.0644 
22 8 1 3.9795 0.1099 
22 8 2 11.7648 -0.0791 
22 8 3 11.5338 0.0503 
22 8 4 -7.9948 0.1100 
22 8 5 -11.1723 0.3132 
22 8 6 1.7134 -0.4709 
22 8 7 -1.6072 -0.1538 
22 8 8 -0.9652 0.0394 
22 8 9 -1.0057 0.1212 
22 8 10 2.7939 0.0701 
22 8 11 5.0544 0.4297 
22 10 0 7.4403 0.0842 
22 10 1 -16.9619 0.1590 
22 10 2 6.9038 -0.1984 
22 10 3 -0.4373 -0.0741 
22 10 4 13.2510 -0.0009 
22 10 5 -8.3366 0.3001 
22 10 6 0.9051 -0.1044 
22 10 7 11.0942 -0.0395 
22 10 8 14.3988 0.1453 
22 10 9 12.3174 -0.3055 
22 10 10 6.3893 -0.2928 
22 10 11 10.3077 0.1813 
22 12 0 0.6976 -0.0068 
22 12 1 1.6770 -0.4201 
22 12 2 10.1062 0.2810 
22 12 3 4.0502 -0.0300 
22 12 4 -8.3390 0.2138 
22 12 5 -3.5213 0.1369 
22 12 6 7.6853 -0.2967 
22 12 7 -1.9727 -0.0463 
22 12 8 -8.8418 -0.1096 
22 12 9 -6.6820 0.4044 
22 14 0 12.2134 -0.0353 
22 14 1 -2.8958 -0.0781 
22 14 2 -0.5030 0.0373 
22 14 3 6.2055 0.0303 
22 14 4 11.4491 -0.1300 
22 14 5 -15.5434 -0.0013 
22 14 6 -4.4443 0.4755 
22 14 7 9.7581 -0.0751 
22 14 8 -3.3411 -0.1774 
22 16 0 -13.5460 -0.0233 
22 16 1 -7.4773 0.1264 
22 16 2 -2.2603 0.0881 
22 16 3 -2.8282 0.0912 
22 16 4 19.1209 -0.0007 
22 16 5 -19.2869 -0.5043 
22 16 6 -2.4184 0.2215 
22 18 0 0.2432 0.1826 
22 18 1 2.4244 0.0856 
22 18 2 6.2866 -0.1952 
22 18 3 -1.3477 0.1230 
22 18 4 13.0752 0.3059 
22 20 0 7.0897 0.2972 
23 1 0 -5.6577 0.4682 
23 1 1 11.1441 -1.0979 
23 1 2 2.8616 -1.1385 
23 1 3 13.3662 1.2235 
23 1 4 -4.7672 0.3564 
23 1 5 4.7914 0.1291 
23 1 6 5.2794 -0.4965 
23 1 7 3.1445 -0.1135 
23 1 8 9.2430 0.2727 
23 1 9 -1.0880 -0.2421 
23 1 10 2.7939 0.1225 
23 1 11 -12.6258 0.3219 
23 1 12 -14.1941 0.5758 
23 3 0 3.9583 -0.0880 
23 3 1 7.9908 -0.1343 
23 3 2 -2.2271 -0.0966 
23 3 3 4.7676 -0.1718 
23 3 4 -4.6827 0.3455 
23 3 5 -15.4856 0.0476 
23 3 6 1.1627 0.2220 
23 3 7 -1.7811 -0.1337 
23 3 8 12.2058 0.0318 
23 3 9 -12.2510 -0.0772 
23 3 10 -4.2074 -0.0514 
23 3 11 16.8487 0.1644 
23 3 12 8.2429 0.2500 
23 5 0 11.4029 0.1570 
23 5 1 8.4613 0.8913 
23 5 2 2.3783 -0.0331 
23 5 3 1.9005 -0.2001 
23 5 4 9.2657 -0.2579 
23 5 5 3.0638 -0.2142 
23 5 6 1.3744 0.3192 
23 5 7 5.2362 -0.1379 
23 5 8 1.4601 0.3100 
23 5 9 5.7219 -0.1820 
23 5 10 6.6143 0.0049 
23 5 11 11.9967 0.1802 
23 7 0 0.6985 -0.0857 
23 7 1 3.5579 0.1092 
23 7 2 -2.5012 0.3186 
23 7 3 14.3324 -0.2852 
23 7 4 8.0480 -0.0589 
23 7 5 0.5992 0.2605 
23 7 6 0.8298 -0.2729 
23 7 7 -4.4828 -0.0443 
23 7 8 0.9855 -0.0725 
23 7 9 -4.9583 -0.0948 
23 7 10 -3.3613 0.5129 
23 7 11 -3.2514 -0.0309 
23 9 0 -4.6072 0.1329 
23 9 1 -2.1954 -0.0834 
23 9 2 -11.1079 0.3775 
23 9 3 -3.9256 -0.4033 
23 9 4 -4.5198 -0.0167 
23 9 5 -1.3783 0.2361 
23 9 6 11.0536 -0.1668 
23 9 7 -6.9489 0.3033 
23 9 8 -3.9765 -0.0550 
23 9 9 2.9408 -0.3112 
23 9 10 6.2064 -0.1011 
23 11 0 18.2615 -0.0990 
23 11 1 2.6463 -0.4216 
23 11 2 -2.7846 0.2242 
23 11 3 4.1346 0.0456 
23 11 4 -2.1776 0.2836 
23 11 5 0.7537 -0.1375 
23 11 6 5.3511 0.1532 
23 11 7 -0.6356 -0.3395 
23 11 8 -8.0475 -0.2706 
23 11 9 0.5200 0.7751 
23 13 0 15.5152 -0.2048 
23 13 1 -3.6104 -0.0007 
23 13 2 -3.2325 0.1222 
23 13 3 9.0755 -0.1142 
23 13 4 5.4736 -0.1031 
23 13 5 -0.5330 0.0936 
23 13 6 -4.8950 0.5481 
23 13 7 -2.0157 -0.2232 
23 13 8 4.6760 -0.0295 
23 15 0 0.5537 -0.2896 
23 15 1 9.5536 0.4544 
23 15 2 3.5779 -0.4531 
23 15 3 -6.7541 0.4395 
23 15 4 -5.4072 -0.1950 
23 15 5 -5.3816 -0.2280 
23 15 6 4.4445 -0.1509 
23 17 0 12.5555 0.2664 
23 17 1 12.9196 0.1667 
23 17 2 -3.5310 -0.2870 
23 17 3 8.6269 0.2307 
23 17 4 5.6805 0.0382 
23 19 0 0.6012 0.0982 
23 19 1 -13.8381 -0.4031 
24 0 0 2.5619 -0.3114 
24 0 1 -16.1246 1.3500 
24 0 2 -8.8654 -3.2388 
24 0 3 11.7728 2.2459 
24 0 4 -17.1131 0.1637 
24 0 5 12.1024 0.4530 
24 0 6 -3.7285 -1.3311 
24 0 7 -20.8373 0.7278 
24 0 8 7.8082 -0.4632 
24 0 9 10.1725 -0.3803 
24 0 10 -11.3810 -0.1641 
24 0 11 -18.6460 1.7401 
24 2 0 19.3608 -0.0142 
24 2 1 -3.3331 -1.0285 
24 2 2 12.0556 -0.7492 
24 2 3 5.5533 0.9941 
24 2 4 -1.4896 0.4222 
24 2 5 2.4707 0.0078 
24 2 6 -0.4680 -1.0742 
24 2 7 -14.5120 0.5414 
24 2 8 3.3952 0.1969 
24 2 9 5.0582 0.0132 
24 2 10 6.5400 0.0498 
24 2 11 7.0532 -0.1173 
24 4 0 16.6166 0.5485 
24 4 1 0.4989 0.0354 
24 4 2 6.2343 0.2661 
24 4 3 -16.1481 -0.8640 
24 4 4 -7.7264 -0.1421 
24 4 5 -9.3685 0.1779 
24 4 6 -3.2517 0.2522 
24 4 7 2.7433 0.3056 
24 4 8 0.6710 -0.1081 
24 4 9 6.7578 -0.2175 
24 4 10 -3.2462 0.0923 
24 4 11 -0.7044 0.1077 
24 6 0 -6.3705 -0.1828 
24 6 1 5.1194 0.2018 
24 6 2 5.3435 0.1900 
24 6 3 -2.0224 0.0503 
24 6 4 20.2653 -0.3381 
24 6 5 7.9171 0.1784 
24 6 6 -19.9909 -0.0625 
24 6 7 3.8846 -0.1577 
24 6 8 0.8374 -0.0909 
24 6 9 0.1493 0.0800 
24 6 10 0.7112 -0.2736 
24 8 0 6.0512 0.3005 
24 8 1 9.7413 0.0442 
24 8 2 0.8831 0.3929 
24 8 3 1.5661 -0.4882 
24 8 4 -6.2369 -0.4097 
24 8 5 -0.4992 0.4397 
24 8 6 -1.2427 -0.1431 
24 8 7 -1.4728 0.2912 
24 8 8 2.4473 -0.1765 
24 8 9 -1.7013 -0.1128 
24 8 10 -0.1689 -0.1510 
24 10 0 13.1174 -0.2884 
24 10 1 4.2530 -0.2967 
24 10 2 -0.9423 0.4139 
24 10 3 1.9003 0.0093 
24 10 4 1.2868 0.2235 
24 10 5 8.9551 -0.2499 
24 10 6 -11.9035 0.0620 
24 10 7 -3.3127 -0.4170 
24 10 8 -1.1306 0.2842 
24 10 9 1.9739 0.1836 
24 12 0 3.3040 0.0908 
24 12 1 -2.8595 -0.0622 
24 12 2 -2.5693 -0.0463 
24 12 3 -3.2211 -0.0357 
24 12 4 -7.6424 0.0508 
24 12 5 3.8530 0.0106 
24 12 6 -0.6636 0.4529 
24 12 7 2.9693 -0.0847 
24 14 0 10.1571 0.0865 
24 14 1 -13.0134 -0.1808 
24 14 2 -1.9791 0.1227 
24 14 3 0.8507 0.2313 
24 14 4 -8.3115 0.0252 
24 14 5 -4.1495 -0.3341 
24 14 6 8.2162 -0.4501 
24 16 0 5.0220 0.3338 
24 16 1 -0.9328 0.2321 
24 16 2 5.8845 -0.5406 
24 16 3 8.0553 0.2973 
24 16 4 0.2783 0.2735 
24 18 0 0.9977 0.3894 
24 18 1 0.2034 -0.7198 
25 1 0 -16.6618 -0.3766 
25 1 1 18.4531 -1.4510 
25 1 2 -4.9948 0.3155 
25 1 3 13.2446 1.1747 
25 1 4 -2.3275 0.3254 
25 1 5 -1.7993 -0.3423 
25 1 6 -1.7609 -0.8624 
25 1 7 -3.3193 0.5308 
25 1 8 -0.1303 -0.1448 
25 1 9 -7.4695 0.0862 
25 1 10 2.0174 -0.7493 
25 3 0 0.5490 0.8891 
25 3 1 -2.9296 -0.6093 
25 3 2 2.3017 0.3069 
25 3 3 1.3345 -0.6416 
25 3 4 4.3879 -0.0525 
25 3 5 4.5960 0.1535 
25 3 6 6.3323 0.0596 
25 3 7 5.6498 0.0471 
25 3 8 2.1563 -0.2846 
25 3 9 -13.4642 0.3347 
25 3 10 3.3673 0.4144 
25 5 0 3.6365 -0.1037 
25 5 1 -4.5199 0.4559 
25 5 2 -2.5333 0.1223 
25 5 3 6.9048 -0.6672 
25 5 4 7.7022 -0.1598 
25 5 5 0.0425 0.2910 
25 5 6 -5.5868 0.2159 
25 5 7 2.5382 -0.1501 
25 5 8 -10.4136 0.1095 
25 5 9 7.5604 -0.6091 
25 7 0 -3.9597 -0.0886 
25 7 1 -13.0232 0.4480 
25 7 2 1.7725 0.1751 
25 7 3 4.6204 -0.3949 
25 7 4 -0.9795 -0.2660 
25 7 5 -6.1682 0.1743 
25 7 6 0.1612 0.1171 
25 7 7 -0.8748 -0.0934 
25 7 8 -2.0238 0.0702 
25 7 9 -8.5378 0.0686 
25 9 0 -16.6576 -0.1337 
25 9 1 -1.6926 -0.2090 
25 9 2 5.5412 0.2611 
25 9 3 11.0124 0.0646 
25 9 4 6.7539 0.3142 
25 9 5 -3.8084 -0.3434 
25 9 6 1.4920 -0.2810 
25 9 7 -11.9733 -0.1615 
25 9 8 5.8288 -0.0482 
25 11 0 -2.9134 0.0270 
25 11 1 5.3759 -0.0337 
25 11 2 0.6853 -0.2531 
25 11 3 0.6309 0.5110 
25 11 4 -17.1458 0.1221 
25 11 5 -6.8044 -0.6668 
25 11 6 -5.1602 0.6972 
25 11 7 8.3670 -0.3789 
25 13 0 0.1988 -0.0032 
25 13 1 -5.6249 -0.4072 
25 13 2 -9.7707 0.1925 
25 13 3 -0.0057 0.4737 
25 13 4 -0.5819 0.2387 
25 13 5 -3.8580 -0.6472 
25 13 6 -11.1321 -0.3495 
25 15 0 9.7682 0.0100 
25 15 1 1.5063 0.4556 
25 15 2 -0.7709 -0.7041 
25 15 3 -0.5816 0.4461 
25 15 4 9.4801 -0.1028 
25 17 0 -5.4511 -0.1279 
25 17 1 -11.2905 -0.2486 
26 0 0 2.1418 -4.3436 
26 0 1 1.0110 0.5611 
26 0 2 25.9589 0.0744 
26 0 3 4.0424 2.1843 
26 0 4 -0.9506 0.3154 
26 0 5 -4.5191 -0.8961 
26 0 6 -5.6455 -1.1348 
26 0 7 -12.5176 0.3019 
26 0 8 0.8484 0.6007 
26 0 9 9.7978 0.4080 
26 2 0 13.2510 -0.2936 
26 2 1 -8.9230 -0.1825 
26 2 2 15.8006 0.1029 
26 2 3 -6.8476 -0.1459 
26 2 4 4.3185 0.0851 
26 2 5 -4.0315 0.1569 
26 2 6 2.0240 0.0833 
26 2 7 -6.9394 -0.1391 
26 2 8 -3.2999 -0.2394 
26 2 9 -1.3762 0.0494 
26 4 0 10.3155 0.5988 
26 4 1 -14.3145 -0.0484 
26 4 2 10.3317 0.2607 
26 4 3 -9.7068 -0.4793 
26 4 4 2.6530 -0.1760 
26 4 5 3.7801 0.3004 
26 4 6 4.4438 -0.1445 
26 4 7 2.8289 -0.0865 
26 4 8 -1.3854 0.1304 
26 4 9 10.9681 -0.1638 
26 6 0 3.1022 0.1461 
26 6 1 -0.9277 0.4426 
26 6 2 12.7297 -0.2079 
26 6 3 -11.4253 -0.4244 
26 6 4 4.9060 -0.1210 
26 6 5 -7.5126 0.1516 
26 6 6 -4.8756 0.1469 
26 6 7 13.1958 -0.0124 
26 6 8 -4.5421 0.5498 
26 8 0 7.0270 -0.3864 
26 8 1 -3.2090 0.0966 
26 8 2 -2.8317 0.2074 
26 8 3 -0.8755 0.0784 
26 8 4 -4.3557 0.0572 
26 8 5 -5.5227 0.0282 
26 8 6 0.4268 -0.5009 
26 8 7 -8.1485 0.2493 
26 10 0 -5.0474 -0.0712 
26 10 1 -3.5877 -0.0514 
26 10 2 -0.0289 -0.1930 
26 10 3 -6.9882 0.3523 
26 10 4 -10.5969 0.2433 
26 10 5 2.6779 -0.5239 
26 10 6 2.2424 0.3766 
26 12 0 15.2415 -0.3093 
26 12 1 -7.8304 -0.1788 
26 12 2 0.7950 -0.2694 
26 12 3 -14.5573 1.4185 
26 12 4 3.6011 -0.0725 
26 12 5 -0.7037 -0.5743 
26 14 0 0.1806 0.4126 
26 14 1 1.1167 -0.0062 
26 14 2 4.4347 -0.3344 
26 14 3 3.6613 -0.2369 
26 16 0 -13.3710 -0.2787 
26 16 1 4.4213 -0.2663 
27 1 0 -0.9275 -0.8648 
27 1 1 -12.1773 -0.7928 
27 1 2 -8.1773 -0.1195 
27 1 3 17.7360 0.7818 
27 1 4 -1.0293 0.4816 
27 1 5 -9.2193 -0.6650 
27 1 6 0.0162 -0.2414 
27 1 7 -3.2787 -0.2513 
27 1 8 -3.1205 0.3855 
27 3 0 -4.7202 0.0671 
27 3 1 -6.8695 -0.1890 
27 3 2 10.6375 0.5051 
27 3 3 -1.2214 -0.2234 
27 3 4 7.2187 -0.0006 
27 3 5 1.5878 -0.5084 
27 3 6 0.0858 0.4149 
27 3 7 4.5423 0.1044 
27 3 8 4.0934 0.1413 
27 5 0 -3.3582 0.0516 
27 5 1 -4.5025 0.1022 
27 5 2 -0.4223 0.1769 
27 5 3 -10.1024 -0.5606 
27 5 4 -5.8139 0.1553 
27 5 5 0.9776 -0.0916 
27 5 6 -4.7492 -0.1093 
27 5 7 -3.4823 0.1614 
27 7 0 -3.8433 -0.1360 
27 7 1 -8.3607 0.2495 
27 7 2 11.2183 -0.0882 
27 7 3 -4.9622 -0.0349 
27 7 4 -1.2411 -0.0996 
27 7 5 0.8259 -0.0065 
27 7 6 -2.9927 0.3035 
27 7 7 5.0923 -0.5847 
27 9 0 -4.8412 -0.0048 
27 9 1 5.8305 0.1987 
27 9 2 5.5784 -0.2206 
27 9 3 -2.9636 0.1494 
27 9 4 -7.1021 -0.0969 
27 9 5 2.6758 -0.2992 
27 9 6 0.8851 0.6152 
27 11 0 2.8205 -0.1525 
27 11 1 4.1475 -0.2096 
27 11 2 0.4453 -0.4894 
27 11 3 -11.2096 1.5834 
27 11 4 -4.0858 -0.4359 
27 13 0 -13.1110 0.5101 
27 13 1 -10.2349 -0.1527 
27 13 2 6.7749 -0.3124 
27 13 3 -2.3667 -0.1215 
27 15 0 5.6848 -0.2088 
28 0 0 -2.4898 -2.7356 
28 0 1 -10.8094 -1.2379 
28 0 2 7.5432 0.0704 
28 0 3 -3.9595 2.0184 
28 0 4 -5.9709 -0.6372 
28 0 5 4.3930 -0.2478 
28 0 6 7.5638 -0.3533 
28 0 7 -7.5329 0.0003 
28 2 0 3.0115 0.3568 
28 2 1 -4.0442 -0.6081 
28 2 2 2.1453 0.5009 
28 2 3 -5.8187 0.4062 
28 2 4 -1.8216 -0.3298 
28 2 5 -0.9091 -0.6320 
28 2 6 7.8523 0.0708 
28 2 7 -4.9120 -0.1323 
28 4 0 5.1679 0.0482 
28 4 1 3.9335 0.1079 
28 4 2 0.0650 -0.1366 
28 4 3 -5.7520 -0.0915 
28 4 4 0.4363 0.0885 
28 4 5 4.3386 -0.0168 
28 4 6 4.2993 -0.6211 
28 6 0 2.0030 -0.1787 
28 6 1 -11.7324 0.5342 
28 6 2 -1.7057 -0.1905 
28 6 3 5.0093 -0.1800 
28 6 4 15.6541 -0.0693 
28 6 5 -2.8594 0.2710 
28 6 6 1.7160 -0.1213 
28 8 0 3.8960 0.0231 
28 8 1 -3.2513 0.2693 
28 8 2 4.4892 -0.1370 
28 8 3 -3.7964 0.2581 
28 8 4 7.5259 -0.5603 
28 8 5 -2.0463 -0.3329 
28 10 0 -11.3560 0.2593 
28 10 1 -0.7944 -0.3929 
28 10 2 -3.2489 0.1355 
28 10 3 -22.1595 0.7555 
28 10 4 -12.7348 0.2728 
28 12 0 9.8859 0.5091 
28 12 1 -9.5824 -0.4371 
28 12 2 1.0931 -0.0040 
28 14 0 7.2571 -1.0628 
29 1 0 5.0049 0.1970 
29 1 1 2.4695 -0.0772 
29 1 2 -3.5396 0.3758 
29 1 3 3.5746 0.6247 
29 1 4 -13.6264 -0.6309 
29 1 5 4.0265 -0.4457 
29 3 0 -0.9349 0.1155 
29 3 1 -4.5136 -0.5208 
29 3 2 -1.4788 0.0033 
29 3 3 -3.6509 0.3543 
29 3 4 2.3793 0.1486 
29 3 5 0.2965 -0.1328 
29 5 0 8.1074 0.1086 
29 5 1 -0.6567 0.2416 
29 5 2 2.3392 -0.0995 
29 5 3 3.1333 -0.3276 
29 5 4 -5.4533 0.1869 
29 5 5 3.7184 -0.2000 
29 7 0 7.9236 0.1224 
29 7 1 9.3747 0.0633 
29 7 2 -1.6783 0.1393 
29 7 3 -1.9383 0.2515 
29 7 4 8.7708 -0.3746 
29 9 0 0.1888 -0.4065 
29 9 1 -2.7619 -0.1351 
29 9 2 -17.1218 0.3079 
29 9 3 -5.5442 1.2105 
29 11 0 -2.8981 0.5242 
29 11 1 -0.9734 -0.4165 
30 0 0 -3.2122 -2.3225 
30 0 1 10.0833 1.7438 
30 0 2 -1.4177 -0.6975 
30 0 3 0.0026 2.3852 
30 0 4 -4.8590 -1.5041 
30 2 0 -2.9309 -0.2943 
30 2 1 1.0667 0.1741 
30 2 2 0.4836 -0.2559 
30 2 3 8.8179 0.8400 
30 2 4 10.4504 -0.2772 
30 4 0 -8.3342 -0.1804 
30 4 1 6.1173 -0.2005 
30 4 2 0.0821 0.4496 
30 4 3 -6.4428 -0.5424 
30 4 4 7.9103 0.2066 
30 6 0 -10.3867 -0.1478 
30 6 1 -5.5648 0.1160 
30 6 2 3.5003 0.4363 
30 6 3 3.9278 0.0112 
30 8 0 -5.1088 -0.1551 
30 8 1 -7.4046 0.1507 
30 8 2 16.3325 -0.8526 
30 10 0 -0.9765 0.5903 
31 1 0 6.9774 -0.8292 
31 1 1 -10.4629 0.2301 
31 1 2 -11.4772 0.5150 
31 3 0 14.8090 0.0501 
31 3 1 10.5892 -0.2879 
31 3 2 -1.0941 1.0121 
31 5 0 -0.8303 -0.7344 
31 5 1 -9.5544 0.2641 
31 5 2 4.3474 0.1192 
31 7 0 -3.8446 -0.0026 
31 7 1 -8.4852 -0.0982 
32 0 0 -0.3171 0.3986 
32 0 1 4.1469 -0.0708 
32 2 0 1.8340 -0.1704 
32 2 1 -11.4935 -0.1600 
32 4 0 4.5664 -1.0188 
0 0 0 0.0 0.0 
;
_shelx_fab_checksum              90847
loop_
_space_group_symop_operation_xyz
'x, y, z'
'-x, y, -z'
'x+1/2, y+1/2, z'
'-x+1/2, y+1/2, -z'
'-x, -y, -z'
'x, -y, z'
'-x+1/2, -y+1/2, -z'
'x+1/2, -y+1/2, z'
loop_
_atom_site_label
_atom_site_type_symbol
_atom_site_fract_x
_atom_site_fract_y
_atom_site_fract_z
_atom_site_U_iso_or_equiv
_atom_site_adp_type
_atom_site_occupancy
_atom_site_site_symmetry_order
_atom_site_calc_flag
_atom_site_refinement_flags_posn
_atom_site_refinement_flags_adp
_atom_site_refinement_flags_occupancy
_atom_site_disorder_assembly
_atom_site_disorder_group
Cu1 Cu 0.52921(5) 0.500000 0.24229(7) 0.0821(7) Uani 1 2 d S TU P . .
Cu2 Cu 0.53870(5) 0.500000 0.15566(7) 0.0944(7) Uani 1 2 d S TU P . .
Cu3 Cu 0.35322(4) 0.62934(6) 0.27029(6) 0.1071(6) Uani 1 1 d . U . . .
Cu4 Cu 0.30791(5) 0.67417(8) 0.19483(7) 0.1283(8) Uani 1 1 d . U . . .
Cu5 Cu 0.32710(3) 0.63306(4) 0.53028(5) 0.0805(5) Uani 1 1 d . U . . .
Cu6 Cu 0.27055(3) 0.67689(5) 0.54230(6) 0.0849(5) Uani 1 1 d . U . . .
Cu7 Cu 0.500000 0.76089(7) 0.500000 0.1020(8) Uani 1 2 d S TU P . .
Cu8 Cu 0.500000 0.84809(8) 0.500000 0.1191(9) Uani 1 2 d S TU P . .
O1 O 0.65568(16) 0.6247(2) 0.3979(2) 0.0845(19) Uani 1 1 d . U . . .
O2 O 0.7037(2) 0.6616(2) 0.3875(3) 0.098(2) Uani 1 1 d . U . . .
O3 O 0.56774(17) 0.5454(2) 0.2584(2) 0.0916(19) Uani 1 1 d . U . . .
O4 O 0.57612(19) 0.5450(3) 0.1838(3) 0.104(2) Uani 1 1 d . U . . .
O5 O 0.6790(4) 0.6534(5) 0.2059(4) 0.226(5) Uani 1 1 d . U . . .
C1 C 0.6749(3) 0.6387(3) 0.3736(4) 0.085(3) Uani 1 1 d . U . . .
C2 C 0.6592(3) 0.6296(4) 0.3185(5) 0.102(3) Uani 1 1 d . U . . .
C3 C 0.6754(4) 0.6479(5) 0.2869(5) 0.138(4) Uani 1 1 d . U . . .
H3 H 0.696173 0.667240 0.299585 0.165 Uiso 1 1 calc R U . . .
C4 C 0.6617(5) 0.6384(6) 0.2375(6) 0.165(5) Uani 1 1 d . U . . .
C5 C 0.6306(4) 0.6099(5) 0.2175(5) 0.145(4) Uani 1 1 d . U . . .
H5 H 0.620535 0.604407 0.182897 0.174 Uiso 1 1 calc R U . . .
C6 C 0.6154(3) 0.5902(4) 0.2493(4) 0.100(3) Uani 1 1 d . U . . .
C7 C 0.6288(3) 0.6006(4) 0.2982(4) 0.093(3) Uani 1 1 d . U . . .
H7 H 0.617278 0.587873 0.319476 0.112 Uiso 1 1 calc R U . . .
C8 C 0.5848(3) 0.5565(4) 0.2280(5) 0.094(3) Uani 1 1 d . U . . .
C9 C 0.7086(7) 0.6820(9) 0.2256(8) 0.275(11) Uani 1 1 d . U . . .
O1_1 O 0.49131(17) 0.5447(2) 0.2131(3) 0.092(2) Uani 1 1 d . U . . .
O2_1 O 0.49981(18) 0.5456(3) 0.1396(2) 0.108(2) Uani 1 1 d . U . . .
O3_1 O 0.3843(2) 0.6227(3) 0.2296(3) 0.120(3) Uani 1 1 d . U . . .
O4_1 O 0.3459(2) 0.6627(3) 0.1643(3) 0.138(3) Uani 1 1 d . U . . .
O5_1 O 0.4069(5) 0.6540(6) 0.0367(5) 0.288(8) Uani 1 1 d . U . . .
C1_1 C 0.4836(3) 0.5567(4) 0.1695(5) 0.097(3) Uani 1 1 d . U . . .
C2_1 C 0.4525(3) 0.5907(4) 0.1496(4) 0.114(3) Uani 1 1 d . U . . .
C3_1 C 0.4454(4) 0.6103(6) 0.1041(5) 0.161(5) Uani 1 1 d . U . . .
H3_1 H 0.461916 0.605015 0.086393 0.193 Uiso 1 1 calc R U . . .
C4_1 C 0.4155(5) 0.6367(6) 0.0841(6) 0.184(5) Uani 1 1 d . U . . .
C5_1 C 0.3912(4) 0.6464(5) 0.1110(5) 0.162(5) Uani 1 1 d . U . . .
H5_1 H 0.370117 0.665149 0.097280 0.194 Uiso 1 1 calc R U . . .
C6_1 C 0.3991(4) 0.6278(5) 0.1577(5) 0.131(4) Uani 1 1 d . U . . .
C7_1 C 0.4291(3) 0.5998(4) 0.1757(4) 0.109(3) Uani 1 1 d . U . . .
H7_1 H 0.433765 0.586199 0.207045 0.131 Uiso 1 1 calc R U . . .
C8_1 C 0.3753(4) 0.6387(5) 0.1876(5) 0.125(4) Uani 1 1 d . U . . .
O0_2 O 0.3229(2) 0.5792(3) 0.2369(3) 0.116(2) Uani 1 1 d . U . . .
O1_2 O 0.2841(2) 0.6167(4) 0.1723(3) 0.138(3) Uani 1 1 d . U . . .
O2_2 O 0.2022(4) 0.500000 0.0619(6) 0.219(7) Uani 1 2 d S TU P . .
C1_2 C 0.2971(4) 0.5835(5) 0.1949(5) 0.113(4) Uani 1 1 d D U . . .
C2_2 C 0.2786(4) 0.5405(5) 0.1727(5) 0.124(4) Uani 1 1 d D U . . .
C3_2 C 0.2482(4) 0.5422(6) 0.1289(5) 0.149(5) Uani 1 1 d . U . . .
H3_2 H 0.238130 0.569101 0.113038 0.179 Uiso 1 1 calc R U . . .
C4_2 C 0.2334(7) 0.500000 0.1097(9) 0.169(7) Uani 1 2 d S TU P . .
C5_2 C 0.2932(5) 0.500000 0.1946(6) 0.116(5) Uani 1 2 d S TU P . .
H5_2 H 0.313583 0.500000 0.225099 0.139 Uiso 1 2 calc R U P . .
O1_3 O 0.3176(2) 0.6426(3) 0.3017(3) 0.109(2) Uani 1 1 d . U . . .
O2_3 O 0.2784(2) 0.6812(3) 0.2364(3) 0.126(3) Uani 1 1 d . U . . .
O3_3 O 0.29995(18) 0.6482(2) 0.4601(2) 0.0868(19) Uani 1 1 d . U . . .
O4_3 O 0.25377(16) 0.6851(2) 0.4720(2) 0.0827(19) Uani 1 1 d . U . . .
O5_3 O 0.1800(2) 0.7381(3) 0.2964(3) 0.150(3) Uani 1 1 d . U . . .
C1_3 C 0.2887(3) 0.6674(4) 0.2798(5) 0.107(3) Uani 1 1 d . U . . .
C2_3 C 0.2653(3) 0.6786(4) 0.3133(5) 0.096(3) Uani 1 1 d . U . . .
C3_3 C 0.2329(3) 0.7025(4) 0.2909(5) 0.115(4) Uani 1 1 d . U . . .
H3_3 H 0.224782 0.710142 0.256838 0.138 Uiso 1 1 calc R U . . .
C4_3 C 0.2125(3) 0.7150(4) 0.3215(5) 0.116(3) Uani 1 1 d . U . . .
C5_3 C 0.2252(3) 0.7060(3) 0.3704(4) 0.089(3) Uani 1 1 d . U . . .
H5_3 H 0.212013 0.716465 0.390738 0.107 Uiso 1 1 calc R U . . .
C6_3 C 0.2570(3) 0.6817(3) 0.3905(4) 0.080(3) Uani 1 1 d . U . . .
C7_3 C 0.2765(3) 0.6679(3) 0.3623(5) 0.091(3) Uani 1 1 d . U . . .
H7_3 H 0.298293 0.650420 0.376670 0.109 Uiso 1 1 calc R U . . .
C8_3 C 0.2723(3) 0.6719(3) 0.4472(4) 0.076(3) Uani 1 1 d . U . . .
C9_3 C 0.1523(3) 0.7418(5) 0.3195(5) 0.152(3) Uani 1 1 d . U . . .
H9A_3 H 0.158723 0.766693 0.343141 0.182 Uiso 1 1 calc R U . . .
H9B_3 H 0.152173 0.714456 0.338230 0.182 Uiso 1 1 calc R U . . .
C10_3 C 0.1127(4) 0.7494(6) 0.2803(5) 0.167(3) Uani 1 1 d . U . . .
O1_4 O 0.29655(17) 0.5807(2) 0.5231(2) 0.0866(19) Uani 1 1 d . U . . .
O2_4 O 0.24833(17) 0.6173(2) 0.5324(3) 0.099(2) Uani 1 1 d . U . . .
O3_4 O 0.1501(4) 0.500000 0.5094(7) 0.201(7) Uani 1 2 d S TU P . .
C1_4 C 0.2654(3) 0.5830(4) 0.5269(4) 0.088(3) Uani 1 1 d . U . . .
C2_4 C 0.2442(3) 0.5393(3) 0.5213(4) 0.091(3) Uani 1 1 d . U . . .
C3_4 C 0.2069(3) 0.5399(4) 0.5169(5) 0.122(4) Uani 1 1 d . U . . .
H3_4 H 0.194149 0.567068 0.515594 0.146 Uiso 1 1 calc R U . . .
C4_4 C 0.1886(5) 0.500000 0.5144(8) 0.136(6) Uani 1 2 d S TU P . .
C5_4 C 0.2623(4) 0.500000 0.5228(5) 0.085(4) Uani 1 2 d S TU P . .
H5_4 H 0.287750 0.500000 0.524990 0.102 Uiso 1 2 calc R U P . .
O1_5 O 0.35130(16) 0.6910(2) 0.5394(3) 0.0886(19) Uani 1 1 d . U . . .
O2_5 O 0.30367(17) 0.7275(2) 0.5506(2) 0.0851(19) Uani 1 1 d . U . . .
O3_5 O 0.45806(18) 0.7680(2) 0.5238(3) 0.105(2) Uani 1 1 d . U . . .
O4_5 O 0.4587(2) 0.8426(3) 0.5251(3) 0.113(2) Uani 1 1 d . U . . .
O5_5 O 0.35213(19) 0.8862(3) 0.5736(3) 0.117(2) Uani 1 1 d . U . . .
C1_5 C 0.3348(3) 0.7252(3) 0.5452(4) 0.081(3) Uani 1 1 d . U . . .
C2_5 C 0.3568(3) 0.7675(3) 0.5485(4) 0.086(3) Uani 1 1 d . U . . .
C3_5 C 0.3426(3) 0.8077(4) 0.5579(4) 0.090(3) Uani 1 1 d . U . . .
H3_5 H 0.318925 0.808397 0.561920 0.108 Uiso 1 1 calc R U . . .
C4_5 C 0.3620(3) 0.8460(4) 0.5614(4) 0.097(3) Uani 1 1 d . U . . .
C5_5 C 0.3964(3) 0.8443(4) 0.5511(4) 0.100(3) Uani 1 1 d . U . . .
H5_5 H 0.409432 0.870868 0.550497 0.120 Uiso 1 1 calc R U . . .
C6_5 C 0.4100(3) 0.8056(4) 0.5425(4) 0.091(3) Uani 1 1 d . U . . .
C7_5 C 0.3915(3) 0.7668(4) 0.5423(4) 0.090(3) Uani 1 1 d . U . . .
H7_5 H 0.402258 0.739587 0.537933 0.108 Uiso 1 1 calc R U . . .
C8_5 C 0.4452(3) 0.8059(4) 0.5288(5) 0.101(3) Uani 1 1 d . U . . .
C9_5 C 0.3227(3) 0.8868(4) 0.5938(5) 0.117(4) Uani 1 1 d . U . . .
H9A_5 H 0.326788 0.863984 0.619727 0.141 Uiso 1 1 calc R U . . .
H9B_5 H 0.298160 0.881618 0.567639 0.141 Uiso 1 1 calc R U . . .
C10_5 C 0.3244(4) 0.9336(5) 0.6162(7) 0.177(6) Uani 1 1 d . U . . .
O1_6 O 0.4649(2) 0.7664(3) 0.4327(3) 0.117(2) Uani 1 1 d . U . . .
O2_6 O 0.4649(2) 0.8411(3) 0.4320(4) 0.133(3) Uani 1 1 d . U . . .
O3_6 O 0.3764(2) 0.6855(3) 0.2929(3) 0.120(3) Uani 1 1 d . U . . .
O4_6 O 0.3365(3) 0.7241(3) 0.2272(4) 0.138(3) Uani 1 1 d . U . . .
O5_6 O 0.3753(4) 0.8857(5) 0.2658(5) 0.240(6) Uani 1 1 d . U . . .
C1_6 C 0.4539(3) 0.8031(5) 0.4138(5) 0.105(3) Uani 1 1 d D U . . .
C2_6 C 0.4249(3) 0.8030(5) 0.3616(5) 0.116(4) Uani 1 1 d D U . . .
C3_6 C 0.4136(4) 0.8418(5) 0.3370(7) 0.146(4) Uani 1 1 d . U . . .
H3_6 H 0.424969 0.868359 0.352627 0.176 Uiso 1 1 calc R U . . .
C4_6 C 0.3867(5) 0.8446(7) 0.2907(8) 0.169(5) Uani 1 1 d . U . . .
C5_6 C 0.3702(4) 0.8036(6) 0.2673(6) 0.152(5) Uani 1 1 d . U . . .
H5_6 H 0.351608 0.803245 0.235237 0.183 Uiso 1 1 calc R U . . .
C6_6 C 0.3826(4) 0.7647(5) 0.2935(6) 0.118(4) Uani 1 1 d . U . . .
C7_6 C 0.4091(4) 0.7639(5) 0.3399(5) 0.117(4) Uani 1 1 d . U . . .
H7_6 H 0.416539 0.736746 0.356977 0.141 Uiso 1 1 calc R U . . .
C8_6 C 0.3635(4) 0.7214(6) 0.2698(6) 0.116(4) Uani 1 1 d . U . . .
O1_7 O 0.5323(5) 0.500000 0.3180(5) 0.171(6) Uani 1 2 d S T P . .
O2_7 O 0.5459(2) 0.500000 0.0841(3) 0.117(4) Uani 1 2 d S T P . .
O3_7 O 0.3909(2) 0.5892(4) 0.3266(4) 0.196(5) Uani 1 1 d . . . . .
O4_7 O 0.2721(3) 0.7113(4) 0.1309(4) 0.176(4) Uani 1 1 d . . . . .
O5_7 O 0.37309(18) 0.6030(3) 0.5130(4) 0.165(4) Uani 1 1 d . . . . .
O6_7 O 0.22467(19) 0.7053(2) 0.5596(3) 0.103(2) Uani 1 1 d . U . . .
O7_7 O 0.500000 0.6897(4) 0.500000 0.189(7) Uani 1 2 d S T P . .
O8_7 O 0.500000 0.9168(4) 0.500000 0.239(10) Uani 1 2 d S T P . .
N1_7 N 0.1898(4) 0.7098(5) 0.6073(6) 0.191(5) Uani 1 1 d D U . . .
C1_7 C 0.2188(4) 0.6969(5) 0.5921(7) 0.168(5) Uani 1 1 d . U . . .
H1_7 H 0.236338 0.677485 0.614173 0.201 Uiso 1 1 calc R U . . .
C2_7 C 0.1952(5) 0.7058(7) 0.6657(8) 0.238(8) Uani 1 1 d . U . . .
H2A_7 H 0.181639 0.729878 0.674784 0.357 Uiso 1 1 calc R U . . .
H2B_7 H 0.221785 0.707801 0.685595 0.357 Uiso 1 1 calc R U . . .
H2C_7 H 0.185276 0.677461 0.671815 0.357 Uiso 1 1 calc R U . . .
C3_7 C 0.1644(3) 0.7432(4) 0.5842(5) 0.139(5) Uani 1 1 d D U . . .
H3A_7 H 0.146294 0.746696 0.601204 0.167 Uiso 1 1 calc R U . . .
H3B_7 H 0.177850 0.770966 0.585776 0.167 Uiso 1 1 calc R U . . .
H3C_7 H 0.151167 0.735245 0.549567 0.167 Uiso 1 1 calc R U . . .
loop_
_atom_site_aniso_label
_atom_site_aniso_U_11
_atom_site_aniso_U_22
_atom_site_aniso_U_33
_atom_site_aniso_U_23
_atom_site_aniso_U_13
_atom_site_aniso_U_12
Cu1 0.0694(12) 0.1131(16) 0.0799(14) 0.000 0.0465(11) 0.000
Cu2 0.0835(14) 0.1363(19) 0.0829(15) 0.000 0.0534(12) 0.000
Cu3 0.0960(11) 0.1410(16) 0.0992(12) 0.0236(11) 0.0528(10) 0.0424(11)
Cu4 0.1085(13) 0.177(2) 0.1120(14) 0.0397(13) 0.0540(11) 0.0590(13)
Cu5 0.0649(9) 0.0815(10) 0.1180(12) 0.0096(8) 0.0607(8) 0.0119(7)
Cu6 0.0646(9) 0.0863(11) 0.1258(13) 0.0088(9) 0.0609(9) 0.0130(7)
Cu7 0.0757(14) 0.0948(16) 0.162(2) 0.000 0.0754(15) 0.000
Cu8 0.1021(17) 0.0925(17) 0.204(3) 0.000 0.106(2) 0.000
O1 0.069(4) 0.101(5) 0.099(5) -0.013(4) 0.048(4) -0.026(4)
O2 0.088(5) 0.107(5) 0.119(6) -0.011(4) 0.063(4) -0.030(4)
O3 0.088(4) 0.119(5) 0.079(4) -0.007(4) 0.044(4) -0.015(4)
O4 0.109(5) 0.146(6) 0.077(5) 0.002(5) 0.058(4) -0.016(4)
O5 0.269(11) 0.281(12) 0.187(9) -0.049(8) 0.153(9) -0.172(10)
C1 0.084(7) 0.091(7) 0.101(7) -0.023(6) 0.057(6) -0.027(6)
C2 0.095(7) 0.119(8) 0.113(8) -0.005(7) 0.062(6) -0.033(6)
C3 0.149(9) 0.172(10) 0.117(9) -0.026(8) 0.077(8) -0.075(8)
C4 0.199(10) 0.203(10) 0.136(9) -0.030(9) 0.115(8) -0.106(9)
C5 0.169(10) 0.179(11) 0.111(9) -0.023(8) 0.079(8) -0.071(9)
C6 0.102(7) 0.128(8) 0.091(7) -0.009(7) 0.060(6) -0.037(6)
C7 0.091(7) 0.106(8) 0.099(8) -0.010(6) 0.052(6) -0.016(6)
C8 0.082(6) 0.136(8) 0.075(7) 0.007(7) 0.041(6) -0.008(6)
C9 0.34(2) 0.34(2) 0.207(18) -0.037(17) 0.168(17) -0.18(2)
O1_1 0.087(4) 0.129(6) 0.081(5) 0.002(4) 0.056(4) 0.017(4)
O2_1 0.098(5) 0.161(6) 0.087(5) 0.021(4) 0.061(4) 0.033(4)
O3_1 0.105(5) 0.167(7) 0.105(6) 0.046(5) 0.056(5) 0.067(5)
O4_1 0.130(6) 0.189(8) 0.112(6) 0.054(5) 0.063(5) 0.071(6)
O5_1 0.355(17) 0.399(19) 0.183(11) 0.156(12) 0.185(12) 0.167(15)
C1_1 0.077(6) 0.152(8) 0.081(7) 0.005(7) 0.052(6) 0.023(6)
C2_1 0.116(7) 0.160(9) 0.086(7) 0.032(7) 0.060(6) 0.039(7)
C3_1 0.165(10) 0.225(12) 0.128(9) 0.065(9) 0.095(8) 0.076(9)
C4_1 0.197(11) 0.259(13) 0.129(10) 0.079(9) 0.096(9) 0.099(10)
C5_1 0.164(10) 0.230(12) 0.119(9) 0.068(9) 0.084(8) 0.105(9)
C6_1 0.121(8) 0.189(10) 0.102(8) 0.056(7) 0.064(7) 0.069(7)
C7_1 0.107(8) 0.152(9) 0.086(7) 0.036(7) 0.056(6) 0.037(7)
C8_1 0.116(8) 0.171(9) 0.106(8) 0.049(7) 0.063(7) 0.078(7)
O0_2 0.097(5) 0.150(6) 0.100(6) 0.011(5) 0.035(4) 0.024(5)
O1_2 0.133(6) 0.166(8) 0.115(6) 0.042(6) 0.045(5) 0.057(6)
O2_2 0.144(12) 0.34(2) 0.137(12) 0.000 -0.001(10) 0.000
C1_2 0.109(8) 0.157(10) 0.089(8) 0.018(8) 0.055(7) 0.033(8)
C2_2 0.108(8) 0.175(11) 0.097(8) 0.006(8) 0.045(7) 0.015(8)
C3_2 0.114(9) 0.207(14) 0.122(10) 0.003(9) 0.035(8) 0.001(9)
C4_2 0.120(13) 0.25(2) 0.130(14) 0.000 0.038(12) 0.000
C5_2 0.106(11) 0.172(16) 0.079(11) 0.000 0.045(9) 0.000
O1_3 0.101(5) 0.136(6) 0.107(5) 0.032(5) 0.057(4) 0.041(5)
O2_3 0.106(5) 0.174(7) 0.101(6) 0.047(5) 0.041(5) 0.058(5)
O3_3 0.073(4) 0.096(5) 0.112(5) 0.005(4) 0.058(4) 0.020(4)
O4_3 0.057(4) 0.080(4) 0.128(5) -0.001(4) 0.055(4) 0.020(3)
O5_3 0.106(5) 0.214(7) 0.138(5) 0.026(5) 0.052(4) 0.080(5)
C1_3 0.099(7) 0.117(8) 0.107(8) 0.019(7) 0.038(7) 0.041(6)
C2_3 0.083(6) 0.114(7) 0.109(7) 0.008(6) 0.057(6) 0.028(6)
C3_3 0.087(7) 0.135(9) 0.134(9) 0.000(7) 0.053(7) 0.040(7)
C4_3 0.084(7) 0.137(8) 0.130(8) 0.006(7) 0.042(7) 0.043(6)
C5_3 0.071(6) 0.100(7) 0.108(8) 0.007(6) 0.045(6) 0.022(6)
C6_3 0.059(6) 0.080(6) 0.120(7) 0.008(6) 0.053(6) 0.016(5)
C7_3 0.075(6) 0.093(7) 0.116(8) 0.016(6) 0.049(6) 0.023(5)
C8_3 0.055(6) 0.060(6) 0.133(8) 0.014(6) 0.059(6) 0.023(5)
C9_3 0.107(5) 0.216(7) 0.140(6) 0.026(5) 0.053(4) 0.079(5)
C10_3 0.116(5) 0.226(8) 0.155(6) 0.031(6) 0.043(5) 0.072(6)
O1_4 0.062(4) 0.087(4) 0.134(5) 0.002(4) 0.064(4) 0.007(3)
O2_4 0.070(4) 0.094(5) 0.158(6) 0.012(4) 0.071(4) 0.009(4)
O3_4 0.118(10) 0.174(13) 0.37(2) 0.000 0.153(12) 0.000
C1_4 0.063(6) 0.080(7) 0.148(8) 0.030(6) 0.069(5) 0.019(6)
C2_4 0.064(6) 0.080(7) 0.155(8) 0.010(6) 0.070(6) 0.005(5)
C3_4 0.089(7) 0.083(8) 0.218(11) 0.015(7) 0.085(7) 0.002(6)
C4_4 0.085(10) 0.108(12) 0.250(15) 0.000 0.103(10) 0.000
C5_4 0.068(8) 0.072(10) 0.139(11) 0.000 0.064(8) 0.000
O1_5 0.059(4) 0.083(5) 0.146(6) 0.004(4) 0.065(4) 0.009(3)
O2_5 0.067(4) 0.086(4) 0.126(5) 0.002(4) 0.063(4) 0.018(3)
O3_5 0.091(5) 0.084(5) 0.173(6) 0.010(5) 0.085(4) -0.005(4)
O4_5 0.121(5) 0.071(5) 0.189(7) -0.010(5) 0.108(5) -0.005(4)
O5_5 0.092(5) 0.092(5) 0.195(7) -0.022(5) 0.085(5) 0.006(4)
C1_5 0.069(6) 0.070(7) 0.131(7) 0.020(5) 0.068(5) 0.026(5)
C2_5 0.076(6) 0.075(7) 0.133(7) -0.003(6) 0.068(5) 0.009(5)
C3_5 0.069(6) 0.080(7) 0.139(8) 0.002(6) 0.060(6) 0.005(6)
C4_5 0.076(6) 0.082(7) 0.154(8) -0.004(6) 0.065(6) 0.004(6)
C5_5 0.086(7) 0.088(8) 0.146(8) 0.010(7) 0.066(6) 0.001(6)
C6_5 0.070(6) 0.072(7) 0.153(8) -0.002(6) 0.066(6) 0.005(6)
C7_5 0.075(6) 0.083(7) 0.139(8) 0.006(6) 0.072(6) 0.015(6)
C8_5 0.094(7) 0.054(7) 0.177(8) 0.010(7) 0.076(6) 0.013(6)
C9_5 0.078(7) 0.109(8) 0.193(10) -0.027(8) 0.082(7) 0.007(6)
C10_5 0.160(12) 0.141(12) 0.286(18) -0.042(12) 0.149(13) 0.000(10)
O1_6 0.099(5) 0.101(6) 0.171(7) 0.021(5) 0.073(5) 0.012(4)
O2_6 0.127(6) 0.111(6) 0.194(8) 0.035(6) 0.099(6) 0.020(5)
O3_6 0.100(5) 0.162(7) 0.106(6) 0.038(5) 0.043(4) 0.040(5)
O4_6 0.124(6) 0.179(8) 0.125(7) 0.054(6) 0.062(5) 0.059(6)
O5_6 0.243(12) 0.193(12) 0.262(14) 0.119(11) 0.061(10) 0.013(10)
C1_6 0.081(7) 0.089(8) 0.180(9) 0.026(8) 0.090(6) 0.014(7)
C2_6 0.106(8) 0.112(9) 0.155(9) 0.043(8) 0.079(7) 0.034(7)
C3_6 0.133(10) 0.137(10) 0.184(12) 0.027(10) 0.074(9) 0.019(9)
C4_6 0.147(11) 0.171(12) 0.200(13) 0.046(11) 0.074(9) 0.014(10)
C5_6 0.128(9) 0.166(12) 0.177(11) 0.036(10) 0.071(9) 0.033(9)
C6_6 0.113(8) 0.135(9) 0.129(9) 0.047(8) 0.069(7) 0.037(7)
C7_6 0.109(8) 0.130(9) 0.144(10) 0.040(9) 0.083(7) 0.036(8)
C8_6 0.108(8) 0.157(10) 0.107(8) 0.028(8) 0.066(7) 0.051(8)
O1_7 0.331(19) 0.111(9) 0.144(11) 0.000 0.174(13) 0.000
O2_7 0.075(6) 0.198(11) 0.083(7) 0.000 0.033(5) 0.000
O3_7 0.099(6) 0.302(14) 0.167(9) 0.145(9) 0.022(6) 0.019(7)
O4_7 0.157(8) 0.225(11) 0.155(8) 0.084(8) 0.065(6) 0.100(8)
O5_7 0.062(4) 0.169(8) 0.260(11) -0.097(8) 0.051(5) 0.029(5)
O6_7 0.099(5) 0.110(6) 0.141(7) 0.009(5) 0.092(5) 0.005(4)
O7_7 0.36(2) 0.081(8) 0.175(13) 0.000 0.159(14) 0.000
O8_7 0.229(16) 0.126(11) 0.49(3) 0.000 0.29(2) 0.000
N1_7 0.197(10) 0.213(11) 0.256(12) 0.087(10) 0.196(9) 0.076(9)
C1_7 0.163(10) 0.165(10) 0.241(13) 0.082(10) 0.154(9) 0.076(8)
C2_7 0.224(17) 0.26(2) 0.30(2) 0.053(17) 0.180(17) 0.049(16)
C3_7 0.094(8) 0.133(11) 0.214(14) 0.001(10) 0.084(9) 0.019(8)
loop_
_atom_type_symbol
_atom_type_description
_atom_type_scat_dispersion_real
_atom_type_scat_dispersion_imag
_atom_type_scat_source
C C 0.0181 0.0091 'International Tables Vol C Tables 4.2.6.8 and 6.1.1.4'
Cu Cu -1.9646 0.5888 'International Tables Vol C Tables 4.2.6.8 and 6.1.1.4'
H H 0.0000 0.0000 'International Tables Vol C Tables 4.2.6.8 and 6.1.1.4'
N N 0.0311 0.0180 'International Tables Vol C Tables 4.2.6.8 and 6.1.1.4'
O O 0.0492 0.0322 'International Tables Vol C Tables 4.2.6.8 and 6.1.1.4'
loop_
_geom_angle_atom_site_label_1
_geom_angle_atom_site_label_2
_geom_angle_atom_site_label_3
_geom_angle
_geom_angle_site_symmetry_1
_geom_angle_site_symmetry_3
_geom_angle_publ_flag
O1_1 Cu1 O1_1 88.2(4) 6_565 . ?
O1_1 Cu1 O3 168.5(3) 6_565 . ?
O1_1 Cu1 O3 89.9(3) . . ?
O1_1 Cu1 O3 89.9(3) 6_565 6_565 ?
O1_1 Cu1 O3 168.5(3) . 6_565 ?
O3 Cu1 O3 89.8(4) . 6_565 ?
O1_1 Cu1 O1_7 102.1(4) 6_565 . ?
O1_1 Cu1 O1_7 102.1(4) . . ?
O3 Cu1 O1_7 89.3(4) . . ?
O3 Cu1 O1_7 89.3(4) 6_565 . ?
O1_1 Cu1 Cu2 85.2(2) 6_565 . ?
O1_1 Cu1 Cu2 85.2(2) . . ?
O3 Cu1 Cu2 83.4(2) . . ?
O3 Cu1 Cu2 83.4(2) 6_565 . ?
O1_7 Cu1 Cu2 169.7(5) . . ?
O4 Cu2 O4 89.5(4) . 6_565 ?
O4 Cu2 O2_1 169.1(3) . 6_565 ?
O4 Cu2 O2_1 89.4(3) 6_565 6_565 ?
O4 Cu2 O2_1 89.4(3) . . ?
O4 Cu2 O2_1 169.1(3) 6_565 . ?
O2_1 Cu2 O2_1 89.6(5) 6_565 . ?
O4 Cu2 O2_7 94.6(3) . . ?
O4 Cu2 O2_7 94.6(3) 6_565 . ?
O2_1 Cu2 O2_7 96.3(3) 6_565 . ?
O2_1 Cu2 O2_7 96.3(3) . . ?
O4 Cu2 Cu1 85.8(2) . . ?
O4 Cu2 Cu1 85.8(2) 6_565 . ?
O2_1 Cu2 Cu1 83.3(2) 6_565 . ?
O2_1 Cu2 Cu1 83.3(2) . . ?
O2_7 Cu2 Cu1 179.4(3) . . ?
O1_3 Cu3 O3_6 88.3(3) . . ?
O1_3 Cu3 O3_1 170.2(3) . . ?
O3_6 Cu3 O3_1 89.5(3) . . ?
O1_3 Cu3 O0_2 90.0(3) . . ?
O3_6 Cu3 O0_2 168.7(3) . . ?
O3_1 Cu3 O0_2 90.2(3) . . ?
O1_3 Cu3 O3_7 99.3(4) . . ?
O3_6 Cu3 O3_7 97.9(4) . . ?
O3_1 Cu3 O3_7 90.5(4) . . ?
O0_2 Cu3 O3_7 93.4(4) . . ?
O1_3 Cu3 Cu4 84.9(2) . . ?
O3_6 Cu3 Cu4 85.2(2) . . ?
O3_1 Cu3 Cu4 85.3(2) . . ?
O0_2 Cu3 Cu4 83.6(2) . . ?
O3_7 Cu3 Cu4 174.8(4) . . ?
O4_6 Cu4 O2_3 88.2(4) . . ?
O4_6 Cu4 O1_2 169.4(4) . . ?
O2_3 Cu4 O1_2 90.0(4) . . ?
O4_6 Cu4 O4_1 88.4(4) . . ?
O2_3 Cu4 O4_1 168.6(3) . . ?
O1_2 Cu4 O4_1 91.3(4) . . ?
O4_6 Cu4 O4_7 95.0(4) . . ?
O2_3 Cu4 O4_7 98.0(3) . . ?
O1_2 Cu4 O4_7 95.5(4) . . ?
O4_1 Cu4 O4_7 93.2(3) . . ?
O4_6 Cu4 Cu3 84.6(3) . . ?
O2_3 Cu4 Cu3 84.4(2) . . ?
O1_2 Cu4 Cu3 84.9(3) . . ?
O4_1 Cu4 Cu3 84.5(2) . . ?
O4_7 Cu4 Cu3 177.6(3) . . ?
O1_4 Cu5 O1 88.6(3) . 2_656 ?
O1_4 Cu5 O1_5 170.7(3) . . ?
O1 Cu5 O1_5 90.2(3) 2_656 . ?
O1_4 Cu5 O3_3 89.9(3) . . ?
O1 Cu5 O3_3 167.0(3) 2_656 . ?
O1_5 Cu5 O3_3 89.1(3) . . ?
O1_4 Cu5 O5_7 97.8(3) . . ?
O1 Cu5 O5_7 100.7(3) 2_656 . ?
O1_5 Cu5 O5_7 91.5(3) . . ?
O3_3 Cu5 O5_7 92.3(3) . . ?
O1_4 Cu5 Cu6 86.44(18) . . ?
O1 Cu5 Cu6 85.23(18) 2_656 . ?
O1_5 Cu5 Cu6 84.29(18) . . ?
O3_3 Cu5 Cu6 81.78(18) . . ?
O5_7 Cu5 Cu6 172.8(3) . . ?
O4_3 Cu6 O2_5 89.5(3) . . ?
O4_3 Cu6 O2 168.1(3) . 2_656 ?
O2_5 Cu6 O2 89.3(3) . 2_656 ?
O4_3 Cu6 O2_4 89.8(3) . . ?
O2_5 Cu6 O2_4 165.0(3) . . ?
O2 Cu6 O2_4 88.2(3) 2_656 . ?
O4_3 Cu6 O6_7 101.1(3) . . ?
O2_5 Cu6 O6_7 101.6(3) . . ?
O2 Cu6 O6_7 90.7(3) 2_656 . ?
O2_4 Cu6 O6_7 93.2(3) . . ?
O4_3 Cu6 Cu5 85.15(18) . . ?
O2_5 Cu6 Cu5 83.60(17) . . ?
O2 Cu6 Cu5 83.0(2) 2_656 . ?
O2_4 Cu6 Cu5 81.41(19) . . ?
O6_7 Cu6 Cu5 171.8(2) . . ?
O1_6 Cu7 O1_6 170.2(5) 2_656 . ?
O1_6 Cu7 O3_5 88.7(3) 2_656 2_656 ?
O1_6 Cu7 O3_5 90.2(3) . 2_656 ?
O1_6 Cu7 O3_5 90.2(3) 2_656 . ?
O1_6 Cu7 O3_5 88.7(3) . . ?
O3_5 Cu7 O3_5 167.3(5) 2_656 . ?
O1_6 Cu7 O7_7 94.9(3) 2_656 . ?
O1_6 Cu7 O7_7 94.9(3) . . ?
O3_5 Cu7 O7_7 96.3(2) 2_656 . ?
O3_5 Cu7 O7_7 96.3(2) . . ?
O1_6 Cu7 Cu8 85.1(3) 2_656 . ?
O1_6 Cu7 Cu8 85.1(3) . . ?
O3_5 Cu7 Cu8 83.7(2) 2_656 . ?
O3_5 Cu7 Cu8 83.7(2) . . ?
O7_7 Cu7 Cu8 180.0 . . ?
O4_5 Cu8 O4_5 170.2(5) . 2_656 ?
O4_5 Cu8 O2_6 90.1(3) . . ?
O4_5 Cu8 O2_6 88.8(3) 2_656 . ?
O4_5 Cu8 O2_6 88.8(3) . 2_656 ?
O4_5 Cu8 O2_6 90.1(3) 2_656 2_656 ?
O2_6 Cu8 O2_6 167.7(6) . 2_656 ?
O4_5 Cu8 O8_7 94.9(2) . . ?
O4_5 Cu8 O8_7 94.9(2) 2_656 . ?
O2_6 Cu8 O8_7 96.2(3) . . ?
O2_6 Cu8 O8_7 96.2(3) 2_656 . ?
O4_5 Cu8 Cu7 85.1(2) . . ?
O4_5 Cu8 Cu7 85.1(2) 2_656 . ?
O2_6 Cu8 Cu7 83.8(3) . . ?
O2_6 Cu8 Cu7 83.8(3) 2_656 . ?
O8_7 Cu8 Cu7 180.0 . . ?
C1 O1 Cu5 120.1(6) . 2_656 ?
C1 O2 Cu6 122.2(7) . 2_656 ?
C8 O3 Cu1 122.3(7) . . ?
C8 O4 Cu2 121.3(7) . . ?
C4 O5 C9 116.5(13) . . ?
O2 C1 O1 129.2(10) . . ?
O2 C1 C2 115.1(9) . . ?
O1 C1 C2 115.5(9) . . ?
C3 C2 C7 118.1(11) . . ?
C3 C2 C1 120.8(11) . . ?
C7 C2 C1 121.1(10) . . ?
C4 C3 C2 120.3(12) . . ?
C4 C3 H3 119.9 . . ?
C2 C3 H3 119.9 . . ?
C3 C4 O5 121.6(13) . . ?
C3 C4 C5 121.1(12) . . ?
O5 C4 C5 117.2(14) . . ?
C6 C5 C4 118.7(12) . . ?
C6 C5 H5 120.7 . . ?
C4 C5 H5 120.7 . . ?
C7 C6 C5 119.7(11) . . ?
C7 C6 C8 122.4(10) . . ?
C5 C6 C8 117.8(11) . . ?
C6 C7 C2 122.1(10) . . ?
C6 C7 H7 118.9 . . ?
C2 C7 H7 118.9 . . ?
O4 C8 O3 126.5(10) . . ?
O4 C8 C6 119.8(10) . . ?
O3 C8 C6 113.4(10) . . ?
C1_1 O1_1 Cu1 121.5(6) . . ?
C1_1 O2_1 Cu2 122.3(7) . . ?
C8_1 O3_1 Cu3 122.0(7) . . ?
C8_1 O4_1 Cu4 120.1(7) . . ?
O1_1 C1_1 O2_1 127.5(10) . . ?
O1_1 C1_1 C2_1 117.5(9) . . ?
O2_1 C1_1 C2_1 115.0(10) . . ?
C3_1 C2_1 C7_1 118.8(11) . . ?
C3_1 C2_1 C1_1 121.3(11) . . ?
C7_1 C2_1 C1_1 119.7(10) . . ?
C4_1 C3_1 C2_1 121.3(13) . . ?
C4_1 C3_1 H3_1 119.4 . . ?
C2_1 C3_1 H3_1 119.4 . . ?
C3_1 C4_1 O5_1 121.3(14) . . ?
C3_1 C4_1 C5_1 120.3(14) . . ?
O5_1 C4_1 C5_1 118.4(15) . . ?
C6_1 C5_1 C4_1 118.3(12) . . ?
C6_1 C5_1 H5_1 120.9 . . ?
C4_1 C5_1 H5_1 120.9 . . ?
C7_1 C6_1 C5_1 119.4(11) . . ?
C7_1 C6_1 C8_1 120.8(11) . . ?
C5_1 C6_1 C8_1 119.8(12) . . ?
C6_1 C7_1 C2_1 121.8(10) . . ?
C6_1 C7_1 H7_1 119.1 . . ?
C2_1 C7_1 H7_1 119.1 . . ?
O3_1 C8_1 O4_1 128.1(10) . . ?
O3_1 C8_1 C6_1 117.5(11) . . ?
O4_1 C8_1 C6_1 114.3(11) . . ?
C1_2 O0_2 Cu3 121.3(9) . . ?
C1_2 O1_2 Cu4 120.3(10) . . ?
O1_2 C1_2 O0_2 129.3(15) . . ?
O1_2 C1_2 C2_2 116.6(14) . . ?
O0_2 C1_2 C2_2 114.0(14) . . ?
C3_2 C2_2 C5_2 121.2(16) . . ?
C3_2 C2_2 C1_2 118.1(15) . . ?
C5_2 C2_2 C1_2 120.6(14) . . ?
C2_2 C3_2 C4_2 114.3(19) . . ?
C2_2 C3_2 H3_2 122.8 . . ?
C4_2 C3_2 H3_2 122.8 . . ?
C3_2 C4_2 C3_2 127(2) . 6_565 ?
C3_2 C4_2 O2_2 116.4(12) . . ?
C3_2 C4_2 O2_2 116.4(12) 6_565 . ?
C2_2 C5_2 C2_2 121.9(19) 6_565 . ?
C2_2 C5_2 H5_2 119.1 6_565 . ?
C2_2 C5_2 H5_2 119.1 . . ?
C1_3 O1_3 Cu3 120.8(7) . . ?
C1_3 O2_3 Cu4 122.7(7) . . ?
C8_3 O3_3 Cu5 122.4(7) . . ?
C8_3 O4_3 Cu6 121.5(6) . . ?
C4_3 O5_3 C9_3 117.7(10) . . ?
O2_3 C1_3 O1_3 126.8(11) . . ?
O2_3 C1_3 C2_3 119.9(11) . . ?
O1_3 C1_3 C2_3 113.3(11) . . ?
C7_3 C2_3 C3_3 121.1(10) . . ?
C7_3 C2_3 C1_3 123.0(10) . . ?
C3_3 C2_3 C1_3 115.8(11) . . ?
C2_3 C3_3 C4_3 116.4(11) . . ?
C2_3 C3_3 H3_3 121.8 . . ?
C4_3 C3_3 H3_3 121.8 . . ?
C5_3 C4_3 O5_3 125.3(11) . . ?
C5_3 C4_3 C3_3 121.3(10) . . ?
O5_3 C4_3 C3_3 113.3(12) . . ?
C4_3 C5_3 C6_3 119.8(10) . . ?
C4_3 C5_3 H5_3 120.1 . . ?
C6_3 C5_3 H5_3 120.1 . . ?
C7_3 C6_3 C5_3 120.6(10) . . ?
C7_3 C6_3 C8_3 119.2(9) . . ?
C5_3 C6_3 C8_3 120.1(9) . . ?
C6_3 C7_3 C2_3 120.6(10) . . ?
C6_3 C7_3 H7_3 119.7 . . ?
C2_3 C7_3 H7_3 119.7 . . ?
O3_3 C8_3 O4_3 128.4(10) . . ?
O3_3 C8_3 C6_3 113.5(9) . . ?
O4_3 C8_3 C6_3 117.7(9) . . ?
O5_3 C9_3 C10_3 111.1(11) . . ?
O5_3 C9_3 H9A_3 109.4 . . ?
C10_3 C9_3 H9A_3 109.4 . . ?
O5_3 C9_3 H9B_3 109.4 . . ?
C10_3 C9_3 H9B_3 109.4 . . ?
H9A_3 C9_3 H9B_3 108.0 . . ?
C1_4 O1_4 Cu5 120.5(6) . . ?
C1_4 O2_4 Cu6 123.8(6) . . ?
O1_4 C1_4 O2_4 127.7(9) . . ?
O1_4 C1_4 C2_4 115.5(9) . . ?
O2_4 C1_4 C2_4 116.7(8) . . ?
C5_4 C2_4 C3_4 120.4(10) . . ?
C5_4 C2_4 C1_4 120.5(8) . . ?
C3_4 C2_4 C1_4 119.0(9) . . ?
C2_4 C3_4 C4_4 118.4(11) . . ?
C2_4 C3_4 H3_4 120.8 . . ?
C4_4 C3_4 H3_4 120.8 . . ?
C3_4 C4_4 C3_4 121.6(14) . 6_565 ?
C3_4 C4_4 O3_4 119.2(7) . . ?
C3_4 C4_4 O3_4 119.2(7) 6_565 . ?
C2_4 C5_4 C2_4 120.8(12) 6_565 . ?
C2_4 C5_4 H5_4 119.6 6_565 . ?
C2_4 C5_4 H5_4 119.6 . . ?
C1_5 O1_5 Cu5 121.6(6) . . ?
C1_5 O2_5 Cu6 122.8(6) . . ?
C8_5 O3_5 Cu7 122.0(6) . . ?
C8_5 O4_5 Cu8 121.1(7) . . ?
C4_5 O5_5 C9_5 116.5(8) . . ?
O1_5 C1_5 O2_5 127.3(9) . . ?
O1_5 C1_5 C2_5 114.5(8) . . ?
O2_5 C1_5 C2_5 118.1(9) . . ?
C7_5 C2_5 C3_5 119.1(9) . . ?
C7_5 C2_5 C1_5 120.5(9) . . ?
C3_5 C2_5 C1_5 120.4(8) . . ?
C4_5 C3_5 C2_5 121.2(9) . . ?
C4_5 C3_5 H3_5 119.4 . . ?
C2_5 C3_5 H3_5 119.4 . . ?
C3_5 C4_5 O5_5 126.1(9) . . ?
C3_5 C4_5 C5_5 117.9(10) . . ?
O5_5 C4_5 C5_5 116.0(10) . . ?
C6_5 C5_5 C4_5 120.5(10) . . ?
C6_5 C5_5 H5_5 119.8 . . ?
C4_5 C5_5 H5_5 119.8 . . ?
C5_5 C6_5 C7_5 121.3(9) . . ?
C5_5 C6_5 C8_5 118.5(10) . . ?
C7_5 C6_5 C8_5 120.0(10) . . ?
C6_5 C7_5 C2_5 119.7(9) . . ?
C6_5 C7_5 H7_5 120.1 . . ?
C2_5 C7_5 H7_5 120.1 . . ?
O4_5 C8_5 O3_5 127.5(10) . . ?
O4_5 C8_5 C6_5 116.9(10) . . ?
O3_5 C8_5 C6_5 115.5(10) . . ?
O5_5 C9_5 C10_5 104.8(9) . . ?
O5_5 C9_5 H9A_5 110.8 . . ?
C10_5 C9_5 H9A_5 110.8 . . ?
O5_5 C9_5 H9B_5 110.8 . . ?
C10_5 C9_5 H9B_5 110.8 . . ?
H9A_5 C9_5 H9B_5 108.9 . . ?
C1_6 O1_6 Cu7 121.5(9) . . ?
C1_6 O2_6 Cu8 121.3(9) . . ?
C8_6 O3_6 Cu3 121.8(9) . . ?
C8_6 O4_6 Cu4 122.8(10) . . ?
O1_6 C1_6 O2_6 128.0(13) . . ?
O1_6 C1_6 C2_6 116.5(13) . . ?
O2_6 C1_6 C2_6 115.5(14) . . ?
C3_6 C2_6 C7_6 119.8(15) . . ?
C3_6 C2_6 C1_6 120.0(15) . . ?
C7_6 C2_6 C1_6 120.2(14) . . ?
C2_6 C3_6 C4_6 123.5(18) . . ?
C2_6 C3_6 H3_6 118.3 . . ?
C4_6 C3_6 H3_6 118.3 . . ?
C3_6 C4_6 O5_6 122(2) . . ?
C3_6 C4_6 C5_6 117.2(19) . . ?
O5_6 C4_6 C5_6 120.4(19) . . ?
C6_6 C5_6 C4_6 117.6(17) . . ?
C6_6 C5_6 H5_6 121.2 . . ?
C4_6 C5_6 H5_6 121.2 . . ?
C7_6 C6_6 C5_6 122.8(17) . . ?
C7_6 C6_6 C8_6 119.6(14) . . ?
C5_6 C6_6 C8_6 117.5(16) . . ?
C6_6 C7_6 C2_6 119.1(14) . . ?
C6_6 C7_6 H7_6 120.4 . . ?
C2_6 C7_6 H7_6 120.4 . . ?
O3_6 C8_6 O4_6 125.3(15) . . ?
O3_6 C8_6 C6_6 117.1(14) . . ?
O4_6 C8_6 C6_6 117.6(14) . . ?
C1_7 O6_7 Cu6 122.9(10) . . ?
C1_7 N1_7 C3_7 123.6(12) . . ?
C1_7 N1_7 C2_7 118.7(14) . . ?
C3_7 N1_7 C2_7 111.2(12) . . ?
O6_7 C1_7 N1_7 130.4(15) . . ?
O6_7 C1_7 H1_7 114.8 . . ?
N1_7 C1_7 H1_7 114.8 . . ?
N1_7 C2_7 H2A_7 109.5 . . ?
N1_7 C2_7 H2B_7 109.5 . . ?
H2A_7 C2_7 H2B_7 109.5 . . ?
N1_7 C2_7 H2C_7 109.5 . . ?
H2A_7 C2_7 H2C_7 109.5 . . ?
H2B_7 C2_7 H2C_7 109.5 . . ?
N1_7 C3_7 H3A_7 109.5 . . ?
N1_7 C3_7 H3B_7 109.5 . . ?
H3A_7 C3_7 H3B_7 109.5 . . ?
N1_7 C3_7 H3C_7 109.5 . . ?
H3A_7 C3_7 H3C_7 109.5 . . ?
H3B_7 C3_7 H3C_7 109.5 . . ?
loop_
_geom_bond_atom_site_label_1
_geom_bond_atom_site_label_2
_geom_bond_distance
_geom_bond_site_symmetry_2
_geom_bond_publ_flag
Cu1 O1_1 1.946(7) 6_565 ?
Cu1 O1_1 1.946(7) . ?
Cu1 O3 1.948(7) . ?
Cu1 O3 1.948(7) 6_565 ?
Cu1 O1_7 2.145(11) . ?
Cu1 Cu2 2.644(3) . ?
Cu2 O4 1.938(8) . ?
Cu2 O4 1.938(7) 6_565 ?
Cu2 O2_1 1.962(7) 6_565 ?
Cu2 O2_1 1.962(7) . ?
Cu2 O2_7 2.172(9) . ?
Cu3 O1_3 1.921(7) . ?
Cu3 O3_6 1.924(10) . ?
Cu3 O3_1 1.945(7) . ?
Cu3 O0_2 1.951(9) . ?
Cu3 O3_7 2.135(8) . ?
Cu3 Cu4 2.637(2) . ?
Cu4 O4_6 1.909(11) . ?
Cu4 O2_3 1.920(8) . ?
Cu4 O1_2 1.968(11) . ?
Cu4 O4_1 1.970(8) . ?
Cu4 O4_7 2.187(8) . ?
Cu5 O1_4 1.939(6) . ?
Cu5 O1 1.957(7) 2_656 ?
Cu5 O1_5 1.959(6) . ?
Cu5 O3_3 1.980(7) . ?
Cu5 O5_7 2.183(6) . ?
Cu5 Cu6 2.6577(16) . ?
Cu6 O4_3 1.917(7) . ?
Cu6 O2_5 1.950(6) . ?
Cu6 O2 1.972(7) 2_656 ?
Cu6 O2_4 1.975(7) . ?
Cu6 O6_7 2.158(7) . ?
Cu7 O1_6 1.944(9) 2_656 ?
Cu7 O1_6 1.944(9) . ?
Cu7 O3_5 1.961(6) 2_656 ?
Cu7 O3_5 1.961(6) . ?
Cu7 O7_7 2.157(12) . ?
Cu7 Cu8 2.644(3) . ?
Cu8 O4_5 1.956(6) . ?
Cu8 O4_5 1.956(7) 2_656 ?
Cu8 O2_6 1.964(11) . ?
Cu8 O2_6 1.964(11) 2_656 ?
Cu8 O8_7 2.083(14) . ?
O1 C1 1.252(11) . ?
O2 C1 1.243(11) . ?
O3 C8 1.303(11) . ?
O4 C8 1.248(12) . ?
O5 C4 1.373(15) . ?
O5 C9 1.38(2) . ?
C1 C2 1.515(14) . ?
C2 C3 1.382(15) . ?
C2 C7 1.412(14) . ?
C3 C4 1.366(17) . ?
C3 H3 0.9500 . ?
C4 C5 1.419(17) . ?
C5 C6 1.380(15) . ?
C5 H5 0.9500 . ?
C6 C7 1.360(13) . ?
C6 C8 1.512(15) . ?
C7 H7 0.9500 . ?
O1_1 C1_1 1.240(11) . ?
O2_1 C1_1 1.270(11) . ?
O3_1 C8_1 1.236(13) . ?
O4_1 C8_1 1.311(13) . ?
O5_1 C4_1 1.394(17) . ?
C1_1 C2_1 1.524(15) . ?
C2_1 C3_1 1.378(16) . ?
C2_1 C7_1 1.383(14) . ?
C3_1 C4_1 1.349(18) . ?
C3_1 H3_1 0.9500 . ?
C4_1 C5_1 1.432(18) . ?
C5_1 C6_1 1.392(16) . ?
C5_1 H5_1 0.9500 . ?
C6_1 C7_1 1.374(14) . ?
C6_1 C8_1 1.492(16) . ?
C7_1 H7_1 0.9500 . ?
O0_2 C1_2 1.273(14) . ?
O1_2 C1_2 1.208(14) . ?
O2_2 C4_2 1.48(3) . ?
C1_2 C2_2 1.515(12) . ?
C2_2 C3_2 1.386(18) . ?
C2_2 C5_2 1.403(15) . ?
C3_2 C4_2 1.430(17) . ?
C3_2 H3_2 0.9500 . ?
C5_2 H5_2 0.9500 . ?
O1_3 C1_3 1.301(12) . ?
O2_3 C1_3 1.247(12) . ?
O3_3 C8_3 1.226(10) . ?
O4_3 C8_3 1.232(10) . ?
O5_3 C4_3 1.389(13) . ?
O5_3 C9_3 1.434(13) . ?
C1_3 C2_3 1.563(15) . ?
C2_3 C7_3 1.365(13) . ?
C2_3 C3_3 1.385(14) . ?
C3_3 C4_3 1.415(15) . ?
C3_3 H3_3 0.9500 . ?
C4_3 C5_3 1.350(14) . ?
C5_3 C6_3 1.365(13) . ?
C5_3 H5_3 0.9500 . ?
C6_3 C7_3 1.345(13) . ?
C6_3 C8_3 1.560(14) . ?
C7_3 H7_3 0.9500 . ?
C9_3 C10_3 1.557(16) . ?
C9_3 H9A_3 0.9900 . ?
C9_3 H9B_3 0.9900 . ?
O1_4 C1_4 1.232(10) . ?
O2_4 C1_4 1.266(11) . ?
O3_4 C4_4 1.425(19) . ?
C1_4 C2_4 1.531(13) . ?
C2_4 C5_4 1.369(11) . ?
C2_4 C3_4 1.387(13) . ?
C3_4 C4_4 1.387(12) . ?
C3_4 H3_4 0.9500 . ?
C5_4 H5_4 0.9500 . ?
O1_5 C1_5 1.254(10) . ?
O2_5 C1_5 1.253(10) . ?
O3_5 C8_5 1.274(11) . ?
O4_5 C8_5 1.246(12) . ?
O5_5 C4_5 1.359(12) . ?
O5_5 C9_5 1.434(11) . ?
C1_5 C2_5 1.520(13) . ?
C2_5 C7_5 1.397(12) . ?
C2_5 C3_5 1.399(12) . ?
C3_5 C4_5 1.360(13) . ?
C3_5 H3_5 0.9500 . ?
C4_5 C5_5 1.440(13) . ?
C5_5 C6_5 1.342(13) . ?
C5_5 H5_5 0.9500 . ?
C6_5 C7_5 1.371(13) . ?
C6_5 C8_5 1.528(14) . ?
C7_5 H7_5 0.9500 . ?
C9_5 C10_5 1.549(17) . ?
C9_5 H9A_5 0.9900 . ?
C9_5 H9B_5 0.9900 . ?
O1_6 C1_6 1.248(13) . ?
O2_6 C1_6 1.275(14) . ?
O3_6 C8_6 1.283(15) . ?
O4_6 C8_6 1.301(15) . ?
O5_6 C4_6 1.43(2) . ?
C1_6 C2_6 1.527(12) . ?
C2_6 C3_6 1.366(18) . ?
C2_6 C7_6 1.377(17) . ?
C3_6 C4_6 1.37(2) . ?
C3_6 H3_6 0.9500 . ?
C4_6 C5_6 1.45(2) . ?
C5_6 C6_6 1.391(18) . ?
C5_6 H5_6 0.9500 . ?
C6_6 C7_6 1.369(17) . ?
C6_6 C8_6 1.542(19) . ?
C7_6 H7_6 0.9500 . ?
O6_7 C1_7 1.068(15) . ?
N1_7 C1_7 1.380(16) . ?
N1_7 C3_7 1.401(11) . ?
N1_7 C2_7 1.63(2) . ?
C1_7 H1_7 0.9500 . ?
C2_7 H2A_7 0.9800 . ?
C2_7 H2B_7 0.9800 . ?
C2_7 H2C_7 0.9800 . ?
C3_7 H3A_7 0.9800 . ?
C3_7 H3B_7 0.9800 . ?
C3_7 H3C_7 0.9800 . ?
loop_
_geom_torsion_atom_site_label_1
_geom_torsion_atom_site_label_2
_geom_torsion_atom_site_label_3
_geom_torsion_atom_site_label_4
_geom_torsion
_geom_torsion_site_symmetry_1
_geom_torsion_site_symmetry_2
_geom_torsion_site_symmetry_3
_geom_torsion_site_symmetry_4
_geom_torsion_publ_flag
Cu6 O2 C1 O1 6.3(15) 2_656 . . . ?
Cu6 O2 C1 C2 -179.0(7) 2_656 . . . ?
Cu5 O1 C1 O2 -6.5(15) 2_656 . . . ?
Cu5 O1 C1 C2 178.8(7) 2_656 . . . ?
O2 C1 C2 C3 -3.4(16) . . . . ?
O1 C1 C2 C3 172.1(11) . . . . ?
O2 C1 C2 C7 173.8(10) . . . . ?
O1 C1 C2 C7 -10.8(15) . . . . ?
C7 C2 C3 C4 1(2) . . . . ?
C1 C2 C3 C4 178.1(14) . . . . ?
C2 C3 C4 O5 -174.9(15) . . . . ?
C2 C3 C4 C5 0(3) . . . . ?
C9 O5 C4 C3 -6(3) . . . . ?
C9 O5 C4 C5 178.4(19) . . . . ?
C3 C4 C5 C6 -3(3) . . . . ?
O5 C4 C5 C6 172.6(15) . . . . ?
C4 C5 C6 C7 4(2) . . . . ?
C4 C5 C6 C8 -174.1(13) . . . . ?
C5 C6 C7 C2 -3.0(18) . . . . ?
C8 C6 C7 C2 175.1(10) . . . . ?
C3 C2 C7 C6 0.4(18) . . . . ?
C1 C2 C7 C6 -176.8(10) . . . . ?
Cu2 O4 C8 O3 -9.7(16) . . . . ?
Cu2 O4 C8 C6 177.2(7) . . . . ?
Cu1 O3 C8 O4 10.3(16) . . . . ?
Cu1 O3 C8 C6 -176.2(7) . . . . ?
C7 C6 C8 O4 -173.0(11) . . . . ?
C5 C6 C8 O4 5.2(17) . . . . ?
C7 C6 C8 O3 13.1(16) . . . . ?
C5 C6 C8 O3 -168.8(11) . . . . ?
Cu1 O1_1 C1_1 O2_1 -5.7(17) . . . . ?
Cu1 O1_1 C1_1 C2_1 177.9(7) . . . . ?
Cu2 O2_1 C1_1 O1_1 6.9(17) . . . . ?
Cu2 O2_1 C1_1 C2_1 -176.5(7) . . . . ?
O1_1 C1_1 C2_1 C3_1 171.3(13) . . . . ?
O2_1 C1_1 C2_1 C3_1 -5.5(18) . . . . ?
O1_1 C1_1 C2_1 C7_1 -13.7(17) . . . . ?
O2_1 C1_1 C2_1 C7_1 169.4(11) . . . . ?
C7_1 C2_1 C3_1 C4_1 -2(3) . . . . ?
C1_1 C2_1 C3_1 C4_1 172.8(16) . . . . ?
C2_1 C3_1 C4_1 O5_1 -175.5(18) . . . . ?
C2_1 C3_1 C4_1 C5_1 2(3) . . . . ?
C3_1 C4_1 C5_1 C6_1 0(3) . . . . ?
O5_1 C4_1 C5_1 C6_1 177.7(17) . . . . ?
C4_1 C5_1 C6_1 C7_1 -2(2) . . . . ?
C4_1 C5_1 C6_1 C8_1 177.5(16) . . . . ?
C5_1 C6_1 C7_1 C2_1 3(2) . . . . ?
C8_1 C6_1 C7_1 C2_1 -177.1(13) . . . . ?
C3_1 C2_1 C7_1 C6_1 0(2) . . . . ?
C1_1 C2_1 C7_1 C6_1 -175.4(12) . . . . ?
Cu3 O3_1 C8_1 O4_1 2(2) . . . . ?
Cu3 O3_1 C8_1 C6_1 -173.9(9) . . . . ?
Cu4 O4_1 C8_1 O3_1 -4(2) . . . . ?
Cu4 O4_1 C8_1 C6_1 172.4(9) . . . . ?
C7_1 C6_1 C8_1 O3_1 2(2) . . . . ?
C5_1 C6_1 C8_1 O3_1 -177.3(14) . . . . ?
C7_1 C6_1 C8_1 O4_1 -174.4(13) . . . . ?
C5_1 C6_1 C8_1 O4_1 6(2) . . . . ?
Cu4 O1_2 C1_2 O0_2 9.3(17) . . . . ?
Cu4 O1_2 C1_2 C2_2 -175.6(7) . . . . ?
Cu3 O0_2 C1_2 O1_2 -9.5(17) . . . . ?
Cu3 O0_2 C1_2 C2_2 175.3(7) . . . . ?
O1_2 C1_2 C2_2 C3_2 -0.7(17) . . . . ?
O0_2 C1_2 C2_2 C3_2 175.2(11) . . . . ?
O1_2 C1_2 C2_2 C5_2 175.7(12) . . . . ?
O0_2 C1_2 C2_2 C5_2 -8.4(17) . . . . ?
C5_2 C2_2 C3_2 C4_2 1(2) . . . . ?
C1_2 C2_2 C3_2 C4_2 177.7(14) . . . . ?
C2_2 C3_2 C4_2 C3_2 -5(3) . . . 6_565 ?
C2_2 C3_2 C4_2 O2_2 -177.4(14) . . . . ?
C3_2 C2_2 C5_2 C2_2 2(2) . . . 6_565 ?
C1_2 C2_2 C5_2 C2_2 -174.7(9) . . . 6_565 ?
Cu4 O2_3 C1_3 O1_3 -8.4(19) . . . . ?
Cu4 O2_3 C1_3 C2_3 173.5(8) . . . . ?
Cu3 O1_3 C1_3 O2_3 8.0(18) . . . . ?
Cu3 O1_3 C1_3 C2_3 -173.8(7) . . . . ?
O2_3 C1_3 C2_3 C7_3 -174.4(11) . . . . ?
O1_3 C1_3 C2_3 C7_3 7.3(17) . . . . ?
O2_3 C1_3 C2_3 C3_3 2.4(17) . . . . ?
O1_3 C1_3 C2_3 C3_3 -175.9(10) . . . . ?
C7_3 C2_3 C3_3 C4_3 0.1(18) . . . . ?
C1_3 C2_3 C3_3 C4_3 -176.7(11) . . . . ?
C9_3 O5_3 C4_3 C5_3 -19(2) . . . . ?
C9_3 O5_3 C4_3 C3_3 163.2(12) . . . . ?
C2_3 C3_3 C4_3 C5_3 3.5(19) . . . . ?
C2_3 C3_3 C4_3 O5_3 -178.9(11) . . . . ?
O5_3 C4_3 C5_3 C6_3 178.0(11) . . . . ?
C3_3 C4_3 C5_3 C6_3 -4.6(18) . . . . ?
C4_3 C5_3 C6_3 C7_3 2.1(16) . . . . ?
C4_3 C5_3 C6_3 C8_3 178.8(10) . . . . ?
C5_3 C6_3 C7_3 C2_3 1.5(16) . . . . ?
C8_3 C6_3 C7_3 C2_3 -175.3(9) . . . . ?
C3_3 C2_3 C7_3 C6_3 -2.6(17) . . . . ?
C1_3 C2_3 C7_3 C6_3 174.0(10) . . . . ?
Cu5 O3_3 C8_3 O4_3 -11.0(14) . . . . ?
Cu5 O3_3 C8_3 C6_3 176.4(5) . . . . ?
Cu6 O4_3 C8_3 O3_3 9.8(13) . . . . ?
Cu6 O4_3 C8_3 C6_3 -177.8(6) . . . . ?
C7_3 C6_3 C8_3 O3_3 -6.5(13) . . . . ?
C5_3 C6_3 C8_3 O3_3 176.8(9) . . . . ?
C7_3 C6_3 C8_3 O4_3 180.0(9) . . . . ?
C5_3 C6_3 C8_3 O4_3 3.2(13) . . . . ?
C4_3 O5_3 C9_3 C10_3 -155.3(13) . . . . ?
Cu5 O1_4 C1_4 O2_4 4.6(15) . . . . ?
Cu5 O1_4 C1_4 C2_4 -179.1(7) . . . . ?
Cu6 O2_4 C1_4 O1_4 -5.7(16) . . . . ?
Cu6 O2_4 C1_4 C2_4 178.0(7) . . . . ?
O1_4 C1_4 C2_4 C5_4 13.3(16) . . . . ?
O2_4 C1_4 C2_4 C5_4 -169.9(11) . . . . ?
O1_4 C1_4 C2_4 C3_4 -169.5(10) . . . . ?
O2_4 C1_4 C2_4 C3_4 7.3(16) . . . . ?
C5_4 C2_4 C3_4 C4_4 0(2) . . . . ?
C1_4 C2_4 C3_4 C4_4 -176.8(14) . . . . ?
C2_4 C3_4 C4_4 C3_4 1(3) . . . 6_565 ?
C2_4 C3_4 C4_4 O3_4 -179.5(16) . . . . ?
C3_4 C2_4 C5_4 C2_4 -2(2) . . . 6_565 ?
C1_4 C2_4 C5_4 C2_4 175.5(9) . . . 6_565 ?
Cu5 O1_5 C1_5 O2_5 7.1(15) . . . . ?
Cu5 O1_5 C1_5 C2_5 -176.4(6) . . . . ?
Cu6 O2_5 C1_5 O1_5 -8.4(15) . . . . ?
Cu6 O2_5 C1_5 C2_5 175.2(7) . . . . ?
O1_5 C1_5 C2_5 C7_5 3.7(14) . . . . ?
O2_5 C1_5 C2_5 C7_5 -179.4(9) . . . . ?
O1_5 C1_5 C2_5 C3_5 -176.2(10) . . . . ?
O2_5 C1_5 C2_5 C3_5 0.7(15) . . . . ?
C7_5 C2_5 C3_5 C4_5 -0.4(17) . . . . ?
C1_5 C2_5 C3_5 C4_5 179.5(10) . . . . ?
C2_5 C3_5 C4_5 O5_5 -175.2(11) . . . . ?
C2_5 C3_5 C4_5 C5_5 4.9(17) . . . . ?
C9_5 O5_5 C4_5 C3_5 12.8(17) . . . . ?
C9_5 O5_5 C4_5 C5_5 -167.3(10) . . . . ?
C3_5 C4_5 C5_5 C6_5 -5.3(17) . . . . ?
O5_5 C4_5 C5_5 C6_5 174.7(11) . . . . ?
C4_5 C5_5 C6_5 C7_5 1.2(18) . . . . ?
C4_5 C5_5 C6_5 C8_5 176.3(10) . . . . ?
C5_5 C6_5 C7_5 C2_5 3.5(18) . . . . ?
C8_5 C6_5 C7_5 C2_5 -171.6(10) . . . . ?
C3_5 C2_5 C7_5 C6_5 -3.9(16) . . . . ?
C1_5 C2_5 C7_5 C6_5 176.2(10) . . . . ?
Cu8 O4_5 C8_5 O3_5 9.9(18) . . . . ?
Cu8 O4_5 C8_5 C6_5 -172.5(7) . . . . ?
Cu7 O3_5 C8_5 O4_5 -8.5(18) . . . . ?
Cu7 O3_5 C8_5 C6_5 173.9(7) . . . . ?
C5_5 C6_5 C8_5 O4_5 -1.8(17) . . . . ?
C7_5 C6_5 C8_5 O4_5 173.4(11) . . . . ?
C5_5 C6_5 C8_5 O3_5 176.1(11) . . . . ?
C7_5 C6_5 C8_5 O3_5 -8.7(17) . . . . ?
C4_5 O5_5 C9_5 C10_5 166.1(11) . . . . ?
Cu7 O1_6 C1_6 O2_6 5.8(15) . . . . ?
Cu7 O1_6 C1_6 C2_6 -177.0(6) . . . . ?
Cu8 O2_6 C1_6 O1_6 -6.3(15) . . . . ?
Cu8 O2_6 C1_6 C2_6 176.5(6) . . . . ?
O1_6 C1_6 C2_6 C3_6 -175.0(10) . . . . ?
O2_6 C1_6 C2_6 C3_6 2.6(15) . . . . ?
O1_6 C1_6 C2_6 C7_6 7.3(15) . . . . ?
O2_6 C1_6 C2_6 C7_6 -175.2(10) . . . . ?
C7_6 C2_6 C3_6 C4_6 0(2) . . . . ?
C1_6 C2_6 C3_6 C4_6 -177.6(13) . . . . ?
C2_6 C3_6 C4_6 O5_6 179.6(13) . . . . ?
C2_6 C3_6 C4_6 C5_6 -1(2) . . . . ?
C3_6 C4_6 C5_6 C6_6 0(2) . . . . ?
O5_6 C4_6 C5_6 C6_6 180.0(13) . . . . ?
C4_6 C5_6 C6_6 C7_6 1(2) . . . . ?
C4_6 C5_6 C6_6 C8_6 176.6(12) . . . . ?
C5_6 C6_6 C7_6 C2_6 -1.3(18) . . . . ?
C8_6 C6_6 C7_6 C2_6 -177.3(10) . . . . ?
C3_6 C2_6 C7_6 C6_6 0.9(17) . . . . ?
C1_6 C2_6 C7_6 C6_6 178.7(9) . . . . ?
Cu3 O3_6 C8_6 O4_6 -7.0(15) . . . . ?
Cu3 O3_6 C8_6 C6_6 175.7(7) . . . . ?
Cu4 O4_6 C8_6 O3_6 6.7(15) . . . . ?
Cu4 O4_6 C8_6 C6_6 -176.0(7) . . . . ?
C7_6 C6_6 C8_6 O3_6 -7.4(16) . . . . ?
C5_6 C6_6 C8_6 O3_6 176.5(10) . . . . ?
C7_6 C6_6 C8_6 O4_6 175.1(10) . . . . ?
C5_6 C6_6 C8_6 O4_6 -1.1(16) . . . . ?
Cu6 O6_7 C1_7 N1_7 -175.9(15) . . . . ?
C3_7 N1_7 C1_7 O6_7 -10(3) . . . . ?
C2_7 N1_7 C1_7 O6_7 -159(2) . . . . ?
