#------------------------------------------------------------------------------
#$Date: 2020-10-20 04:07:45 +0300 (Tue, 20 Oct 2020) $
#$Revision: 258481 $
#$URL: file:///home/coder/svn-repositories/cod/cif/1/55/93/1559381.cif $
#------------------------------------------------------------------------------
#
# This file is available in the Crystallography Open Database (COD),
# http://www.crystallography.net/
#
# All data on this site have been placed in the public domain by the
# contributors.
#
data_1559381
loop_
_publ_author_name
'Antonio, Alexandra M.'
'Korman, Kyle J.'
'Yap, Glenn'
'Bloch, Eric D.'
_publ_section_title
;
 Porous metal-organic alloys based on soluble coordination cages
;
_journal_name_full               'Chemical Science'
_journal_paper_doi               10.1039/D0SC04941G
_journal_year                    2020
_chemical_formula_moiety
;
C254 H168 Cu24 N8 O144, 6[C9H19], 6[C8H19], 8[C6H15], 4[C7H17], 16[H2]
;
_chemical_formula_sum            'C432 H616 Cu24 N8 O144'
_chemical_formula_weight         9750.25
_space_group_crystal_system      monoclinic
_space_group_IT_number           12
_space_group_name_Hall           '-C 2y'
_space_group_name_H-M_alt        'C 1 2/m 1'
_atom_sites_solution_hydrogens   geom
_atom_sites_solution_primary     iterative
_atom_sites_solution_secondary   difmap
_audit_creation_method           SHELXL-2018/3
_audit_update_record
;
2020-07-23 deposited with the CCDC.	2020-10-19 downloaded from the CCDC.
;
_cell_angle_alpha                90
_cell_angle_beta                 106.633(3)
_cell_angle_gamma                90
_cell_formula_units_Z            2
_cell_length_a                   38.1865(15)
_cell_length_b                   30.1168(12)
_cell_length_c                   26.1698(11)
_cell_measurement_reflns_used    9911
_cell_measurement_temperature    150(2)
_cell_measurement_theta_max      57.56
_cell_measurement_theta_min      2.34
_cell_volume                     28837(2)
_computing_cell_refinement       'Bruker SAINT'
_computing_data_collection       'Bruker APEX2'
_computing_data_reduction        'Bruker SAINT'
_computing_molecular_graphics    'Bruker SHELXTL'
_computing_publication_material  'Bruker SHELXTL'
_computing_structure_refinement  'SHELXL-2018/3 (Sheldrick, 2018)'
_computing_structure_solution    'SHELXS-97 (Sheldrick 2008)'
_diffrn_ambient_temperature      150(2)
_diffrn_detector_area_resol_mean 8.33
_diffrn_measured_fraction_theta_full 0.990
_diffrn_measured_fraction_theta_max 0.990
_diffrn_measurement_device_type  'Bruker AXS APEX diffractometer'
_diffrn_measurement_method       '\f and \w scans'
_diffrn_radiation_type           CuK\a
_diffrn_radiation_wavelength     1.54178
_diffrn_reflns_av_R_equivalents  0.0996
_diffrn_reflns_av_unetI/netI     0.0800
_diffrn_reflns_Laue_measured_fraction_full 0.990
_diffrn_reflns_Laue_measured_fraction_max 0.990
_diffrn_reflns_limit_h_max       42
_diffrn_reflns_limit_h_min       -42
_diffrn_reflns_limit_k_max       33
_diffrn_reflns_limit_k_min       -33
_diffrn_reflns_limit_l_max       28
_diffrn_reflns_limit_l_min       -29
_diffrn_reflns_number            128531
_diffrn_reflns_point_group_measured_fraction_full 0.990
_diffrn_reflns_point_group_measured_fraction_max 0.990
_diffrn_reflns_theta_full        59.387
_diffrn_reflns_theta_max         59.387
_diffrn_reflns_theta_min         2.344
_exptl_absorpt_coefficient_mu    1.496
_exptl_absorpt_correction_T_max  0.7516
_exptl_absorpt_correction_T_min  0.5736
_exptl_absorpt_correction_type   multi-scan
_exptl_absorpt_process_details
; 
PROBLEM: The value of sine(theta_max)/wavelength is less than 0.575 
RESPONSE: As in similar MOPs, this compound consistently deposits 
As weakly diffracting crystals. 
;
_exptl_crystal_colour            blue
_exptl_crystal_density_diffrn    1.123
_exptl_crystal_description       block
_exptl_crystal_F_000             10224
_exptl_crystal_size_max          0.221
_exptl_crystal_size_mid          0.184
_exptl_crystal_size_min          0.162
_refine_diff_density_max         1.351
_refine_diff_density_min         -1.113
_refine_diff_density_rms         0.103
_refine_ls_extinction_method     none
_refine_ls_goodness_of_fit_ref   1.156
_refine_ls_hydrogen_treatment    constr
_refine_ls_matrix_type           full
_refine_ls_number_parameters     997
_refine_ls_number_reflns         21271
_refine_ls_number_restraints     1781
_refine_ls_restrained_S_all      1.125
_refine_ls_R_factor_all          0.1381
_refine_ls_R_factor_gt           0.0980
_refine_ls_shift/su_max          0.001
_refine_ls_shift/su_mean         0.000
_refine_ls_structure_factor_coef Fsqd
_refine_ls_weighting_details
'w=1/[\s^2^(Fo^2^)+(0.2000P)^2^] where P=(Fo^2^+2Fc^2^)/3'
_refine_ls_weighting_scheme      calc
_refine_ls_wR_factor_gt          0.2821
_refine_ls_wR_factor_ref         0.3341
_reflns_Friedel_coverage         0.000
_reflns_number_gt                12370
_reflns_number_total             21271
_reflns_threshold_expression     'I > 2\s(I)'
_cod_data_source_file            d0sc04941g2.cif
_cod_data_source_block           eric333
_cod_original_sg_symbol_H-M      'C 2/m'
_cod_database_code               1559381
_shelx_shelxl_version_number     2018/3
_shelx_space_group_comment
; 
The symmetry employed for this shelxl refinement is uniquely defined 
by the following loop, which should always be used as a source of 
symmetry information in preference to the above space-group names. 
They are only intended as comments. 
;
_shelx_estimated_absorpt_t_min   0.733
_shelx_estimated_absorpt_t_max   0.794
_shelx_res_file
; 
TITL eric333_a.res in C2/m 
    eric333.res 
    created by SHELXL-2018/3 at 20:29:39 on 22-Jul-2020 
REM Old TITL eric333 in C2/m 
REM SHELXT solution in C2/m 
REM R1 0.313, Rweak 0.006, Alpha 0.045, Orientation as input 
REM Formula found by SHELXT: C224 Cu24 N61 O114 
REM ##### 
CELL 1.54178 38.1865 30.1168 26.1698 90 106.633 90 
ZERR 2 0.0015 0.0012 0.0011 0 0.003 0 
LATT 7 
SYMM -X,+Y,-Z 
SFAC C Cu H N O 
UNIT 864 48 1232 16 288 
EADP_8 O1A O1B 
EADP_8 N1A N1B 
EADP_8 C1A C1B 
EADP_8 C2A C2B 
EADP_8 C3A C3B 
SIMU_8 0.002 0.004 2 O1A N1A C1A C2A C3A 
SIMU_9 0.002 0.004 2 O1 N1 C1 C2 C3 
SIMU 0.03 0.06 2 
RIGU 0.03 0.03 
  
L.S. 20 
PLAN  10 
SIZE 0.162 0.184 0.221 
TEMP -123.14 
CONF 
LIST 4 
BOND $H 
MORE -1 
ABIN 
fmap 2 
acta 
OMIT -2 8 3 
OMIT 9 3 0 
OMIT -3 5 2 
OMIT -4 8 2 
OMIT -5 11 1 
OMIT -6 4 9 
OMIT -3 5 6 
OMIT -4 2 5 
OMIT -12 4 6 
OMIT -11 3 1 
OMIT 14 2 4 
OMIT -18 10 4 
OMIT -8 2 5 
OMIT 2 6 4 
OMIT 1 3 5 
OMIT -24 16 4 
OMIT -15 3 4 
OMIT 7 3 6 
OMIT -11 9 4 
OMIT -7 11 1 
OMIT 8 6 4 
OMIT 6 0 3 
OMIT 0 4 6 
OMIT 4 10 0 
OMIT 2 4 4 
OMIT -3 7 2 
OMIT -1 7 4 
OMIT -5 9 2 
OMIT -14 2 4 
OMIT -21 13 8 
OMIT 1 3 0 
OMIT -1 3 4 
OMIT -1 1 3 
OMIT 0 0 2 
OMIT -1 3 1 
OMIT 1 5 0 
OMIT -2 2 2 
OMIT 0 0 1 
OMIT 2 0 1 
OMIT 0 2 0 
OMIT 0 2 1 
OMIT 1 1 0 
OMIT -2 2 1 
OMIT -4 0 6 
OMIT -4 0 5 
OMIT 0 4 0 
OMIT 0 0 4 
OMIT 2 0 0 
OMIT 1 1 1 
OMIT 0 0 3 
OMIT -4 0 2 
OMIT 2 0 7 
OMIT -3 1 2 
OMIT 2 2 0 
OMIT -9 1 2 
OMIT 2 4 3 
REM <olex2.extras> 
REM <HklSrc "%./eric333.hkl"> 
REM </olex2.extras> 
  
SAME_8 0.02 0.04 O1A N1A C1A C2A C3A 
WGHT    0.200000 
FVAR       0.01986   0.53025 
CU1   2    0.500000    0.236492    0.500000    10.50000    0.05537    0.05080 = 
         0.12357    0.00000    0.04759    0.00000 
CU2   2    0.500000    0.149081    0.500000    10.50000    0.06634    0.05113 = 
         0.13594    0.00000    0.05635    0.00000 
CU3   2    0.325965    0.366109    0.533489    11.00000    0.05115    0.04968 = 
         0.09863   -0.00717    0.04369   -0.00906 
CU4   2    0.268936    0.322008    0.546313    11.00000    0.05220    0.05291 = 
         0.10162   -0.00558    0.04508   -0.00847 
CU5   2    0.457958    0.500000    0.778068    10.50000    0.05593    0.08479 = 
         0.08113    0.00000    0.03757    0.00000 
CU6   2    0.444220    0.500000    0.871002    10.50000    0.05691    0.08355 = 
         0.08269    0.00000    0.03763    0.00000 
CU7   2    0.634117    0.631284    0.745616    11.00000    0.07104    0.07855 = 
         0.08742   -0.00561    0.03621   -0.02037 
CU8   2    0.676042    0.675759    0.827062    11.00000    0.07642    0.09141 = 
         0.09163   -0.01152    0.03767   -0.02528 
O1    5    0.500000    0.307287    0.500000    10.50000    0.26718    0.06541 = 
         0.18751    0.00000    0.13185    0.00000 
O2    5    0.500000    0.077404    0.500000    10.50000    0.10930    0.06040 = 
         0.19611    0.00000    0.08286    0.00000 
O3    5    0.460928    0.500000    0.696801    10.50000    0.29794    0.09463 = 
         0.12661    0.00000    0.13352    0.00000 
O4    5    0.437118    0.500000    0.948623    10.50000    0.12728    0.14107 = 
         0.08222    0.00000    0.04805    0.00000 
O5    5    0.599016    0.592652    0.682423    11.00000    0.09941    0.16205 = 
         0.17291   -0.08416    0.02333   -0.01209 
O6    5    0.709904    0.711215    0.895632    11.00000    0.10529    0.14112 = 
         0.11417   -0.03499    0.04320   -0.04662 
  
RESI LIGA 1 
O1    5    0.456950    0.229861    0.525992    11.00000    0.05466    0.05629 = 
         0.13006   -0.00130    0.04865   -0.00161 
O2    5    0.457030    0.155359    0.526285    11.00000    0.07121    0.05315 = 
         0.14786    0.00496    0.06060    0.00245 
O3    5    0.349106    0.308025    0.542307    11.00000    0.05718    0.05174 = 
         0.13105   -0.00438    0.05439   -0.00940 
O4    5    0.301816    0.270410    0.554910    11.00000    0.05265    0.05816 = 
         0.10620    0.00103    0.04581   -0.00909 
O5    5    0.348291    0.111354    0.578272    11.00000    0.08150    0.05725 = 
         0.18599    0.01814    0.07600   -0.00470 
C1    1    0.443165    0.192885    0.529506    11.00000    0.04444    0.04780 = 
         0.13766   -0.00195    0.03177    0.00019 
C2    1    0.389837    0.231183    0.545711    11.00000    0.04820    0.06241 = 
         0.08934    0.00023    0.03471   -0.00572 
AFIX  43 
H2    3    0.400691    0.258659    0.540882    11.00000   -1.20000 
AFIX   0 
C3    1    0.407880    0.192426    0.545230    11.00000    0.05307    0.04518 = 
         0.11379    0.00436    0.04398   -0.00254 
C4    1    0.393816    0.152722    0.556015    11.00000    0.06097    0.05583 = 
         0.12312    0.00075    0.04200    0.00047 
AFIX  43 
H4    3    0.407054    0.125968    0.556319    11.00000   -1.20000 
AFIX   0 
C5    1    0.359395    0.151798    0.566718    11.00000    0.06248    0.05526 = 
         0.12656    0.00699    0.04769   -0.00288 
C6    1    0.339981    0.190820    0.562136    11.00000    0.05394    0.06096 = 
         0.10213    0.00377    0.03709   -0.00524 
AFIX  43 
H6    3    0.315762    0.190246    0.565089    11.00000   -1.20000 
AFIX   0 
C7    1    0.354776    0.230185    0.553466    11.00000    0.05182    0.05102 = 
         0.09774    0.00311    0.03602   -0.00339 
C8    1    0.333060    0.273456    0.548781    11.00000    0.06366    0.05152 = 
         0.10872   -0.02433    0.05797   -0.01103 
C9    1    0.316783    0.109980    0.599156    11.00000    0.08004    0.07029 = 
         0.17511    0.01434    0.06204   -0.01038 
AFIX  23 
H9A   3    0.294159    0.116339    0.570291    11.00000   -1.20000 
H9B   3    0.319399    0.132676    0.627368    11.00000   -1.20000 
AFIX   0 
C10   1    0.314660    0.064824    0.621515    11.00000    0.11348    0.07717 = 
         0.23405    0.02277    0.08267   -0.00526 
AFIX  23 
H10A  3    0.338057    0.057583    0.648364    11.00000   -1.20000 
H10B  3    0.310203    0.042402    0.592701    11.00000   -1.20000 
AFIX   0 
C11   1    0.281777    0.063868    0.648881    11.00000    0.18967    0.22556 = 
         0.43891    0.15250    0.10721    0.01320 
  
RESI LIGA 2 
O1    5    0.327476    0.356181    0.287468    11.00000    0.08114    0.09757 = 
         0.08971   -0.01326    0.04056   -0.03676 
O2    5    0.291357    0.317448    0.218669    11.00000    0.07321    0.11220 = 
         0.09519   -0.01548    0.03110   -0.03308 
O3    5    0.302856    0.350328    0.458465    11.00000    0.06496    0.07433 = 
         0.10076   -0.00790    0.04717   -0.01810 
O4    5    0.255100    0.314406    0.469323    11.00000    0.05270    0.06117 = 
         0.10011    0.00490    0.03946   -0.00612 
O5    5    0.188638    0.264656    0.279713    11.00000    0.08628    0.17832 = 
         0.10507   -0.01962    0.03794   -0.06840 
C1    1    0.300528    0.332215    0.265717    11.00000    0.07660    0.07731 = 
         0.06548   -0.00153    0.02219   -0.02447 
C2    1    0.284914    0.331913    0.352680    11.00000    0.05398    0.05684 = 
         0.10011    0.00937    0.03030   -0.00435 
AFIX  43 
H2    3    0.306771    0.348004    0.368214    11.00000   -1.20000 
AFIX   0 
C3    1    0.274741    0.321816    0.298416    11.00000    0.06230    0.06940 = 
         0.07982    0.00036    0.03225   -0.01468 
C4    1    0.242554    0.298338    0.275191    11.00000    0.07617    0.09166 = 
         0.08300   -0.00412    0.03212   -0.01234 
AFIX  43 
H4    3    0.235761    0.290939    0.238367    11.00000   -1.20000 
AFIX   0 
C5    1    0.220533    0.285953    0.307345    11.00000    0.05865    0.09878 = 
         0.08852    0.00678    0.02539   -0.02563 
C6    1    0.230893    0.294079    0.360778    11.00000    0.06506    0.06590 = 
         0.09624    0.01053    0.04589   -0.00726 
AFIX  43 
H6    3    0.216555    0.283444    0.382468    11.00000   -1.20000 
AFIX   0 
C7    1    0.263211    0.318508    0.383635    11.00000    0.05565    0.05509 = 
         0.09487    0.00593    0.03741    0.00120 
C8    1    0.275617    0.327846    0.443912    11.00000    0.06141    0.03907 = 
         0.08691   -0.01479    0.04682   -0.00945 
C9    1    0.161771    0.258315    0.307007    11.00000    0.09234    0.18417 = 
         0.13007   -0.00555    0.05227   -0.06567 
AFIX  23 
H9A   3    0.160728    0.284715    0.329064    11.00000   -1.20000 
H9B   3    0.168159    0.232205    0.330851    11.00000   -1.20000 
AFIX   0 
C10   1    0.123846    0.250888    0.265080    11.00000    0.13142    0.36652 = 
         0.21485   -0.10777    0.07579   -0.15201 
  
RESI LIGA 3 
O1    5    0.295197    0.418874    0.525834    11.00000    0.06067    0.05556 = 
         0.11796   -0.00383    0.04682   -0.00448 
O2    5    0.247037    0.382383    0.536256    11.00000    0.06466    0.05180 = 
         0.13589   -0.01173    0.05858   -0.01234 
O5    5    0.152346    0.500000    0.519832    10.50000    0.07016    0.09255 = 
         0.29637    0.00000    0.08282    0.00000 
C1    1    0.263206    0.416451    0.530271    11.00000    0.06962    0.04944 = 
         0.12549   -0.02714    0.05910   -0.01083 
C2    1    0.260974    0.500000    0.525399    10.50000    0.05485    0.06387 = 
         0.09403    0.00000    0.04361    0.00000 
AFIX  43 
H2    3    0.285750    0.500000    0.524892    10.50000   -1.20000 
AFIX   0 
C3    1    0.243072    0.460119    0.525765    11.00000    0.05922    0.05832 = 
         0.11738   -0.00879    0.05039   -0.00656 
C4    1    0.205870    0.459508    0.523150    11.00000    0.06494    0.06748 = 
         0.15557   -0.01257    0.05469   -0.00985 
AFIX  43 
H4    3    0.193106    0.432282    0.522015    11.00000   -1.20000 
AFIX   0 
C5    1    0.188300    0.500000    0.522273    10.50000    0.06367    0.06290 = 
         0.21510    0.00000    0.07780    0.00000 
C9    1    0.126812    0.464536    0.494261    10.50000    0.11741    0.10569 = 
         0.30169   -0.06129    0.11220   -0.02108 
  
RESI LIGA 4 
O1    5    0.339455    0.373924    0.610832    11.00000    0.06520    0.07596 = 
         0.09254   -0.01071    0.04126   -0.01773 
O2    5    0.291210    0.337204    0.621445    11.00000    0.06828    0.08117 = 
         0.11191   -0.01884    0.04796   -0.02770 
O3    5    0.419922    0.454497    0.760837    11.00000    0.07099    0.10222 = 
         0.07979   -0.00421    0.03738   -0.01302 
O4    5    0.407689    0.454744    0.840168    11.00000    0.07545    0.11200 = 
         0.07401   -0.00587    0.03272   -0.01551 
O5    5    0.308676    0.344784    0.820938    11.00000    0.25941    0.24038 = 
         0.15545   -0.05370    0.12190   -0.17058 
C1    1    0.318891    0.359687    0.636995    11.00000    0.08266    0.06975 = 
         0.09010   -0.02985    0.05576   -0.02372 
C2    1    0.361636    0.397790    0.718115    11.00000    0.06826    0.07635 = 
         0.08941    0.00508    0.03671   -0.00253 
AFIX  43 
H2    3    0.374525    0.409944    0.695260    11.00000   -1.20000 
AFIX   0 
C3    1    0.332877    0.369237    0.697194    11.00000    0.07977    0.08635 = 
         0.09961   -0.01115    0.04856   -0.03152 
C4    1    0.313718    0.350942    0.730173    11.00000    0.15456    0.13251 = 
         0.12155   -0.03372    0.07398   -0.07556 
AFIX  43 
H4    3    0.293292    0.332052    0.716197    11.00000   -1.20000 
AFIX   0 
C5    1    0.325449    0.361215    0.783906    11.00000    0.17105    0.15453 = 
         0.11118   -0.03022    0.07385   -0.09593 
C6    1    0.353939    0.391961    0.804777    11.00000    0.11942    0.13969 = 
         0.08407   -0.01726    0.05030   -0.03787 
AFIX  43 
H6    3    0.360251    0.400462    0.841240    11.00000   -1.20000 
AFIX   0 
C7    1    0.372168    0.409159    0.771471    11.00000    0.07727    0.09127 = 
         0.06830   -0.00655    0.02910   -0.01933 
C8    1    0.401828    0.443115    0.792439    11.00000    0.04760    0.11803 = 
         0.06870   -0.00198    0.02023    0.00207 
  
RESI LIGA 5 
O1    5    0.494992    0.545917    0.809496    11.00000    0.06297    0.09700 = 
         0.08455   -0.00356    0.03677   -0.01095 
O2    5    0.482397    0.545656    0.888682    11.00000    0.06849    0.09119 = 
         0.09542   -0.00295    0.04078   -0.00863 
O3    5    0.601555    0.624539    0.790680    11.00000    0.07849    0.10539 = 
         0.09082   -0.01978    0.03463   -0.03166 
O4    5    0.637039    0.662224    0.859881    11.00000    0.09003    0.11458 = 
         0.10143   -0.01239    0.04773   -0.03489 
O5    5    0.577726    0.649301    1.002894    11.00000    0.13567    0.16142 = 
         0.11382   -0.02166    0.07037   -0.04911 
C1    1    0.499839    0.556473    0.855288    11.00000    0.04438    0.09037 = 
         0.07379    0.00075    0.02523   -0.00266 
C2    1    0.553866    0.601285    0.848167    11.00000    0.06842    0.07905 = 
         0.09519    0.00067    0.03849    0.00256 
AFIX  43 
H2    3    0.549258    0.590743    0.812640    11.00000   -1.20000 
AFIX   0 
C3    1    0.531270    0.589774    0.878268    11.00000    0.06929    0.08263 = 
         0.09759    0.00305    0.04331   -0.00047 
C4    1    0.538380    0.604494    0.929835    11.00000    0.07660    0.10984 = 
         0.10523   -0.00512    0.05039   -0.01008 
AFIX  43 
H4    3    0.522760    0.595997    0.950609    11.00000   -1.20000 
AFIX   0 
C5    1    0.568088    0.631586    0.951803    11.00000    0.09197    0.10950 = 
         0.09597   -0.02801    0.04368   -0.02843 
C6    1    0.590453    0.643437    0.920391    11.00000    0.08436    0.10666 = 
         0.09028   -0.01767    0.03874   -0.01991 
AFIX  43 
H6    3    0.610827    0.662317    0.934756    11.00000   -1.20000 
AFIX   0 
C7    1    0.583783    0.628757    0.870493    11.00000    0.07388    0.09044 = 
         0.09640   -0.01152    0.04250   -0.01821 
C8    1    0.610058    0.637699    0.836537    11.00000    0.07498    0.09102 = 
         0.07676    0.00085    0.02686   -0.03849 
C9    1    0.555765    0.639508    1.037968    11.00000    0.12098    0.21785 = 
         0.11673   -0.00988    0.04719   -0.04404 
AFIX  23 
H9A   3    0.558455    0.607859    1.048597    11.00000   -1.20000 
H9B   3    0.529673    0.645344    1.019638    11.00000   -1.20000 
AFIX   0 
C10   1    0.568432    0.668395    1.085849    11.00000    0.16340    0.28242 = 
         0.10760    0.00135    0.05712   -0.02889 
AFIX  23 
H10A  3    0.573669    0.698045    1.073435    11.00000   -1.20000 
H10B  3    0.591973    0.656229    1.108001    11.00000   -1.20000 
AFIX   0 
C11   1    0.540582    0.676311    1.127518    11.00000    0.26803    0.39348 = 
         0.27375    0.02285    0.07487   -0.14835 
  
RESI LIGA 6 
O1    5    0.613279    0.689315    0.722347    11.00000    0.08808    0.08508 = 
         0.08904   -0.00821    0.02460   -0.02094 
O2    5    0.648681    0.727076    0.792414    11.00000    0.10037    0.09164 = 
         0.09986   -0.01257    0.03593   -0.01338 
O3    5    0.531627    0.769672    0.571793    11.00000    0.07469    0.06181 = 
         0.12705    0.00323    0.03840    0.00208 
O4    5    0.532160    0.844741    0.573207    11.00000    0.08973    0.07009 = 
         0.12745   -0.00498    0.04687   -0.00700 
O5    5    0.608729    0.885871    0.754265    11.00000    0.30553    0.09602 = 
         0.19858   -0.04321   -0.02546    0.01837 
C1    1    0.624660    0.723265    0.746481    11.00000    0.08459    0.08395 = 
         0.07281   -0.00366    0.03515   -0.02206 
C2    1    0.582940    0.766610    0.672577    11.00000    0.07799    0.08257 = 
         0.10581   -0.00480    0.05014   -0.01490 
AFIX  43 
H2    3    0.576423    0.739288    0.654166    11.00000   -1.20000 
AFIX   0 
C3    1    0.606440    0.767816    0.721593    11.00000    0.07211    0.08862 = 
         0.08702   -0.01465    0.04133   -0.01608 
C4    1    0.616470    0.808053    0.748795    11.00000    0.11050    0.11562 = 
         0.13308   -0.02276    0.03039   -0.01071 
AFIX  43 
H4    3    0.633575    0.808527    0.783245    11.00000   -1.20000 
AFIX   0 
C5    1    0.601120    0.846837    0.724746    11.00000    0.14826    0.07915 = 
         0.17137   -0.00813    0.01914   -0.00497 
C6    1    0.577888    0.846363    0.676698    11.00000    0.10788    0.08290 = 
         0.13602   -0.00411    0.03181    0.01210 
AFIX  43 
H6    3    0.567655    0.873528    0.660770    11.00000   -1.20000 
AFIX   0 
C7    1    0.568123    0.807311    0.649070    11.00000    0.07586    0.07043 = 
         0.10983   -0.00285    0.05263   -0.00098 
C8    1    0.541916    0.806550    0.591869    11.00000    0.05329    0.05714 = 
         0.11811    0.00776    0.04126    0.00380 
C9    1    0.277964    0.314087    0.796539    11.00000    0.39508    0.31195 = 
         0.20604   -0.07728    0.17321   -0.24073 
  
RESI LIGA 7 
O1    5    0.661926    0.580267    0.781317    11.00000    0.08480    0.08565 = 
         0.09681    0.00290    0.02492   -0.01154 
O2    5    0.697698    0.618006    0.850604    11.00000    0.09225    0.09079 = 
         0.09217   -0.01703    0.03043   -0.02162 
O5    5    0.773694    0.500000    0.967762    10.50000    0.17728    0.15282 = 
         0.15957    0.00000   -0.01197    0.00000 
C1    1    0.685899    0.583845    0.824741    11.00000    0.09667    0.08251 = 
         0.07370    0.00611    0.04114   -0.02405 
C2    1    0.689920    0.500000    0.823857    10.50000    0.07558    0.11617 = 
         0.07577    0.00000    0.03720    0.00000 
AFIX  43 
H2    3    0.672417    0.500000    0.789733    10.50000   -1.20000 
AFIX   0 
C3    1    0.703571    0.539597    0.850471    11.00000    0.08136    0.10056 = 
         0.08951   -0.00852    0.03362   -0.01320 
C4    1    0.730912    0.539855    0.895574    11.00000    0.11343    0.10413 = 
         0.10892   -0.02166    0.03190   -0.01448 
AFIX  43 
H4    3    0.740329    0.567231    0.911830    11.00000   -1.20000 
AFIX   0 
C5    1    0.745573    0.500000    0.918700    10.50000    0.10296    0.10892 = 
         0.12066    0.00000   -0.01012    0.00000 
  
RESI DMF 8 
PART 1 
O1A   5    0.222941    0.293804    0.560408    21.00000    0.05821    0.07387 = 
         0.10221    0.00049    0.05395   -0.01213 
N1A   4    0.188855    0.286396    0.626777    21.00000    0.06590    0.08183 = 
         0.10894   -0.00232    0.04825   -0.01367 
C1A   1    0.219623    0.298794    0.612665    21.00000    0.06334    0.07805 = 
         0.10680   -0.00187    0.04928   -0.01301 
AFIX  43 
H1A   3    0.239553    0.311286    0.639285    21.00000   -1.20000 
AFIX   0 
C2A   1    0.155934    0.260035    0.582129    21.00000    0.06900    0.08824 = 
         0.11242   -0.00389    0.04123   -0.01729 
AFIX  33 
H2AA  3    0.135939    0.253329    0.597469    21.00000   -1.50000 
H2AB  3    0.146796    0.278848    0.550557    21.00000   -1.50000 
H2AC  3    0.165560    0.232306    0.571904    21.00000   -1.50000 
AFIX   0 
C3A   1    0.187237    0.293587    0.679799    21.00000    0.07808    0.09086 = 
         0.11534   -0.00462    0.04400   -0.01109 
AFIX  33 
H3AA  3    0.163720    0.282989    0.683112    21.00000   -1.50000 
H3AB  3    0.207136    0.277341    0.704805    21.00000   -1.50000 
H3AC  3    0.189740    0.325384    0.687993    21.00000   -1.50000 
AFIX   0 
PART 2 
O1B   5    0.220323    0.294542    0.568822   -21.00000    0.05821    0.07387 = 
         0.10221    0.00049    0.05395   -0.01213 
N1B   4    0.170006    0.308137    0.589701   -21.00000    0.06590    0.08183 = 
         0.10894   -0.00232    0.04825   -0.01367 
C1B   1    0.196179    0.321149    0.569914   -21.00000    0.06334    0.07805 = 
         0.10680   -0.00187    0.04928   -0.01301 
AFIX  43 
H1B   3    0.196470    0.350492    0.556718   -21.00000   -1.20000 
AFIX   0 
C2B   1    0.164836    0.263376    0.602294   -21.00000    0.06900    0.08824 = 
         0.11242   -0.00389    0.04123   -0.01729 
AFIX  33 
H2BA  3    0.143767    0.261307    0.616492   -21.00000   -1.20000 
H2BB  3    0.160411    0.245176    0.570027   -21.00000   -1.20000 
H2BC  3    0.186750    0.252646    0.629086   -21.00000   -1.20000 
AFIX   0 
C3B   1    0.143937    0.336858    0.596260   -21.00000    0.07808    0.09086 = 
         0.11534   -0.00462    0.04400   -0.01109 
AFIX  33 
H3BA  3    0.126906    0.320926    0.611489   -21.00000   -1.50000 
H3BB  3    0.155660    0.360876    0.620384   -21.00000   -1.50000 
H3BC  3    0.130544    0.349375    0.561610   -21.00000   -1.50000 
AFIX   6 
  
RESI DMF 9 
O1    5    0.372604    0.395607    0.513255    11.00000    0.13441    0.14638 = 
         0.26642    0.00584    0.13808   -0.02545 
N1    4    0.406394    0.373589    0.457819    11.00000    0.15734    0.15897 = 
         0.27713   -0.00155    0.12519   -0.02066 
C1    1    0.381166    0.368053    0.485026    11.00000    0.14726    0.15349 = 
         0.27277    0.00309    0.12962   -0.02335 
AFIX  43 
H1    3    0.369161    0.340119    0.481643    11.00000   -1.20000 
AFIX   5 
C2    1    0.426009    0.415319    0.460791    11.00000    0.17422    0.16934 = 
         0.28638   -0.00155    0.11598   -0.02194 
AFIX  33 
H2A   3    0.442927    0.413393    0.438911    11.00000   -1.50000 
H2B   3    0.408531    0.439429    0.447546    11.00000   -1.50000 
H2C   3    0.439791    0.421267    0.497919    11.00000   -1.50000 
AFIX   5 
C3    1    0.414721    0.338527    0.425126    11.00000    0.16815    0.16289 = 
         0.28144   -0.01084    0.11870   -0.01145 
AFIX  33 
H3A   3    0.433439    0.348877    0.408953    11.00000   -1.50000 
H3B   3    0.423808    0.312448    0.447365    11.00000   -1.50000 
H3C   3    0.392541    0.330568    0.396973    11.00000   -1.50000 
AFIX   0 
HKLF 4 
  
  
  
  
REM  eric333_a.res in C2/m 
REM wR2 = 0.334118, GooF = S = 1.15631, Restrained GooF = 1.12533 for all data 
REM R1 = 0.098024 for 12370 Fo > 4sig(Fo) and 0.138097 for all 21271 data 
REM 997 parameters refined using 1781 restraints 
  
END 
  
WGHT      0.2000      0.0000 
  
REM Highest difference peak  1.351,  deepest hole -1.113,  1-sigma level  0.103 
Q1    1   0.3707  0.4079  0.5342  11.00000  0.05    1.10 
Q2    1   0.4767  0.5000  0.9898  10.50000  0.05    0.99 
Q3    1   0.4534  0.5000  0.9084  10.50000  0.05    0.97 
Q4    1   0.4708  0.5000  0.8177  10.50000  0.05    0.85 
Q5    1   0.6460  0.6316  0.7897  11.00000  0.05    0.85 
Q6    1   0.3344  0.3681  0.5662  11.00000  0.05    0.78 
Q7    1   0.6852  0.6760  0.8659  11.00000  0.05    0.76 
Q8    1   0.1428  0.3859  0.5864  11.00000  0.05    0.75 
Q9    1   0.3439  0.0599  0.6699  11.00000  0.05    0.70 
Q10   1   0.0965  0.4812  0.4842  11.00000  0.05    0.66 
;
_shelx_res_checksum              41777
_shelx_fab_file
; 
-42 0 4 2.2666 -0.8545 
-42 0 5 1.0006 0.1702 
-42 0 6 -3.7410 0.4947 
-42 0 7 0.1272 0.9986 
-42 0 8 3.5233 -0.1713 
-42 0 9 -5.7540 -0.6718 
-42 0 10 -5.6091 -0.4046 
-42 0 11 -3.1113 0.4140 
-42 0 12 -6.4527 0.0267 
-42 2 5 5.3644 -0.2041 
-42 2 6 -8.6048 -0.2154 
-42 2 7 3.8478 0.0512 
-42 2 8 0.4099 0.1922 
-42 2 9 -11.4031 0.2131 
-42 2 10 -3.9044 0.3557 
-42 2 11 -1.9929 -0.3827 
-42 2 12 4.0750 -0.1752 
-42 4 6 -0.7401 0.2789 
-42 4 7 0.7021 0.0662 
-42 4 8 6.4106 -0.0661 
-42 4 9 -6.2704 0.2508 
-42 4 10 -2.1178 -0.1215 
-41 1 1 7.0684 -0.0253 
-41 1 2 -0.0930 -0.2305 
-41 1 3 -1.2891 -0.2118 
-41 1 4 12.0480 -0.2420 
-41 1 5 -3.7404 0.4221 
-41 1 6 19.1858 -0.1822 
-41 1 7 6.4532 -0.2181 
-41 1 8 -4.7757 -0.0330 
-41 1 9 4.1043 0.3721 
-41 1 10 17.8684 0.0143 
-41 1 11 0.6864 -0.2515 
-41 1 12 5.6156 -0.2349 
-41 1 13 -11.4531 0.1639 
-41 1 14 -4.7410 0.3999 
-41 1 15 6.3157 0.0441 
-41 3 2 1.2172 0.1675 
-41 3 3 -2.5028 -0.2382 
-41 3 4 5.0883 0.0405 
-41 3 5 -2.6977 -0.2267 
-41 3 6 -4.3830 0.3895 
-41 3 7 -2.1800 -0.1661 
-41 3 8 -2.8445 -0.2832 
-41 3 9 -4.9688 0.0704 
-41 3 10 3.5991 0.3730 
-41 3 11 1.2012 -0.0021 
-41 3 12 6.2294 -0.5168 
-41 3 13 -3.2370 -0.1021 
-41 3 14 2.3628 0.4123 
-41 5 2 12.7449 0.4211 
-41 5 3 0.5614 -0.5445 
-41 5 4 -2.2061 -0.1971 
-41 5 5 5.0223 -0.3728 
-41 5 6 2.7726 0.6231 
-41 5 7 -0.3690 0.2913 
-41 5 8 6.1641 -0.0375 
-41 5 9 1.4145 -0.4312 
-41 5 10 2.1275 -0.1109 
-41 5 11 12.9224 -0.1543 
-41 5 12 6.2989 -0.3013 
-41 5 13 -12.1935 0.4372 
-41 5 14 0.9150 0.1743 
-41 7 4 -4.3258 0.0797 
-41 7 5 1.0441 0.1037 
-41 7 6 -0.5847 0.0866 
-41 7 7 -10.4768 0.1544 
-41 7 8 1.7217 0.4274 
-41 7 9 -0.1119 -0.2847 
-41 7 10 -4.4151 -0.2526 
-41 7 11 2.4575 -0.1163 
-41 7 12 -10.9894 0.1240 
-40 0 1 -4.7460 1.6697 
-40 0 2 -16.5361 -0.9718 
-40 0 3 7.9827 0.5205 
-40 0 4 -1.2980 -0.1833 
-40 0 5 -1.1617 0.9346 
-40 0 6 0.3959 -0.8377 
-40 0 7 -2.8871 0.0701 
-40 0 8 -0.5249 -0.1654 
-40 0 9 -6.6948 0.7570 
-40 0 10 -10.1800 -0.6895 
-40 0 11 1.6532 -0.2633 
-40 0 12 1.6266 -0.7423 
-40 0 13 -7.6687 0.7385 
-40 0 14 -9.4356 0.5647 
-40 0 15 -3.3605 0.8828 
-40 0 16 6.0562 -0.6362 
-40 0 17 -7.5126 -0.5033 
-40 2 1 1.7134 0.0411 
-40 2 2 -7.7241 -0.5523 
-40 2 3 -2.0178 -0.1239 
-40 2 4 0.9551 -0.1283 
-40 2 5 3.5315 0.6991 
-40 2 6 0.1148 -0.2443 
-40 2 7 3.5338 -0.2302 
-40 2 8 7.8901 -0.3330 
-40 2 9 6.1302 0.2898 
-40 2 10 -0.2017 0.1927 
-40 2 11 11.4499 -0.0384 
-40 2 12 9.8956 -0.0365 
-40 2 13 -3.0702 0.2392 
-40 2 14 -2.7346 -0.1606 
-40 2 15 -6.6033 -0.0641 
-40 2 16 0.3007 0.0950 
-40 2 17 4.9975 -0.5807 
-40 4 1 1.7769 -0.5045 
-40 4 2 -2.9937 0.0957 
-40 4 3 -3.3576 -0.0959 
-40 4 4 -2.3112 0.0813 
-40 4 5 1.5531 -0.1244 
-40 4 6 -4.6364 0.3212 
-40 4 7 -5.1672 0.0591 
-40 4 8 0.4003 -0.0767 
-40 4 9 -2.3344 -0.1960 
-40 4 10 -3.3202 -0.1335 
-40 4 11 7.3118 -0.1037 
-40 4 12 0.1712 -0.0115 
-40 4 13 -3.2183 0.2119 
-40 4 14 -3.1522 0.2262 
-40 4 15 -6.9927 0.0266 
-40 4 16 5.3863 -0.4767 
-40 6 1 -3.8090 -0.0014 
-40 6 2 2.4387 -0.4948 
-40 6 3 4.3367 0.0252 
-40 6 4 7.1691 0.0612 
-40 6 5 2.5345 0.1124 
-40 6 6 1.5728 -0.1777 
-40 6 7 2.2166 0.0864 
-40 6 8 2.3171 0.0689 
-40 6 9 0.5308 0.0284 
-40 6 10 -0.3188 0.0231 
-40 6 11 2.7890 -0.2325 
-40 6 12 3.8070 -0.1359 
-40 6 13 0.1531 -0.0069 
-40 6 14 0.1737 0.4171 
-40 6 15 -12.7679 0.3187 
-40 8 2 12.1471 -0.4906 
-40 8 3 -1.6678 -0.3496 
-40 8 4 6.9984 0.0271 
-40 8 5 -3.4264 0.5591 
-40 8 6 -7.1666 0.0648 
-40 8 7 0.5031 0.1011 
-40 8 8 3.9665 -0.1973 
-40 8 9 -0.9697 0.0478 
-40 8 10 2.1865 -0.0273 
-40 8 11 8.7168 -0.1031 
-40 8 12 5.9556 0.2940 
-40 8 13 3.4270 0.0179 
-40 8 14 9.5539 0.2136 
-40 10 4 2.4866 0.2725 
-40 10 5 -7.9988 -0.0745 
-40 10 6 -0.8565 0.3417 
-40 10 7 7.7513 -0.0143 
-40 10 8 3.4797 0.1857 
-40 10 9 2.5627 -0.1636 
-40 10 10 0.3706 0.1545 
-40 10 11 3.9489 -0.1568 
-40 10 12 -6.7972 -0.1513 
-39 1 1 3.7883 -0.0482 
-39 1 2 0.6308 -0.3614 
-39 1 3 0.7478 0.2777 
-39 1 4 -5.8016 -0.1473 
-39 1 5 -2.3944 0.4707 
-39 1 6 23.6509 -0.3399 
-39 1 7 -4.1847 0.1592 
-39 1 8 6.8152 -0.5390 
-39 1 9 6.4948 0.4790 
-39 1 10 -0.6626 0.1113 
-39 1 11 -2.1776 0.0128 
-39 1 12 8.8473 -0.5901 
-39 1 13 -17.1623 0.2372 
-39 1 14 -4.8104 0.4389 
-39 1 15 4.5207 0.1120 
-39 1 16 8.0915 -0.5272 
-39 1 17 8.3062 0.0362 
-39 1 18 19.2722 0.3409 
-39 3 1 -15.4381 -0.0466 
-39 3 2 3.3265 -0.3259 
-39 3 3 -1.6125 -0.0644 
-39 3 4 8.1737 0.1393 
-39 3 5 2.8086 0.0313 
-39 3 6 4.1473 0.2185 
-39 3 7 -3.4789 0.0540 
-39 3 8 12.3320 -0.1390 
-39 3 9 7.1438 -0.2781 
-39 3 10 -0.9056 0.0807 
-39 3 11 -3.9926 0.1592 
-39 3 12 -6.7600 0.1419 
-39 3 13 -12.5476 -0.1308 
-39 3 14 -12.7336 0.1650 
-39 3 15 -8.7049 -0.0088 
-39 3 16 13.0989 -0.3104 
-39 3 17 1.3718 -0.1166 
-39 3 18 2.4198 -0.0213 
-39 5 1 -2.8577 -0.1498 
-39 5 2 -3.5515 -0.2727 
-39 5 3 -4.3872 -0.0427 
-39 5 4 -0.6344 0.1737 
-39 5 5 -8.9625 0.0485 
-39 5 6 0.6536 0.0050 
-39 5 7 6.5376 -0.1478 
-39 5 8 2.2377 0.3493 
-39 5 9 -2.4113 -0.2016 
-39 5 10 -4.7302 -0.1057 
-39 5 11 -0.1238 -0.1278 
-39 5 12 6.9387 0.1322 
-39 5 13 -7.7159 0.0781 
-39 5 14 -10.8960 0.0869 
-39 5 15 -4.4943 -0.0719 
-39 5 16 3.6769 0.0842 
-39 5 17 2.4581 -0.4159 
-39 7 1 4.0798 -0.2425 
-39 7 2 -12.8571 -0.1557 
-39 7 3 -3.3433 -0.0002 
-39 7 4 2.3157 -0.0256 
-39 7 5 -1.5828 0.4989 
-39 7 6 -1.7358 -0.1570 
-39 7 7 2.2781 -0.2562 
-39 7 8 1.5132 -0.0668 
-39 7 9 -2.6713 0.1992 
-39 7 10 1.5012 0.0147 
-39 7 11 -4.1510 -0.1062 
-39 7 12 10.8955 0.2894 
-39 7 13 -9.2789 -0.0970 
-39 7 14 -8.9119 0.1166 
-39 7 15 -1.3228 -0.2439 
-39 7 16 4.1800 0.1600 
-39 7 17 0.5210 -0.0978 
-39 9 1 0.7261 -0.0930 
-39 9 2 -0.3087 0.0364 
-39 9 3 1.6952 -0.2543 
-39 9 4 2.7551 0.0188 
-39 9 5 -3.1057 0.0301 
-39 9 6 -6.2369 0.5788 
-39 9 7 -1.1234 -0.1018 
-39 9 8 1.8085 0.0569 
-39 9 9 -9.0590 -0.1405 
-39 9 10 5.5416 0.0158 
-39 9 11 -5.9014 -0.2621 
-39 9 12 3.7467 -0.0022 
-39 9 13 -1.8554 0.4900 
-39 9 14 4.0858 0.3616 
-39 9 15 -5.2377 -0.5103 
-39 11 2 10.4135 -0.6736 
-39 11 3 -5.8615 0.5575 
-39 11 4 10.8053 0.3130 
-39 11 5 1.4726 -0.2527 
-39 11 6 2.7972 0.3825 
-39 11 7 4.3015 -0.4859 
-39 11 8 0.6217 0.3381 
-39 11 9 0.1103 -0.3169 
-39 11 10 4.2685 0.4920 
-39 11 11 -6.6584 -0.3641 
-39 11 12 0.2197 -0.3005 
-39 11 13 3.6940 -0.2526 
-39 13 6 -10.3370 0.6423 
-39 13 7 4.7561 -0.0553 
-39 13 8 11.6847 0.1013 
-39 13 9 11.9392 -0.6086 
-38 0 1 4.6783 0.3337 
-38 0 2 -2.3838 -1.6956 
-38 0 3 2.1559 -0.2235 
-38 0 4 0.3102 -0.0731 
-38 0 5 -9.4000 1.8466 
-38 0 6 -3.4452 0.1892 
-38 0 7 1.6455 -0.7125 
-38 0 8 -6.0392 -1.7344 
-38 0 9 3.4378 0.9458 
-38 0 10 -5.0176 0.2768 
-38 0 11 -1.6351 0.3735 
-38 0 12 5.5020 -1.0639 
-38 0 13 3.6846 0.9558 
-38 0 14 -2.5011 -0.1178 
-38 0 15 4.3734 0.3229 
-38 0 16 11.1955 -1.0879 
-38 0 17 -3.5853 0.5793 
-38 0 18 -9.3123 -0.2436 
-38 0 19 -7.8171 0.1805 
-38 2 1 5.7227 0.1494 
-38 2 2 3.5047 0.2548 
-38 2 3 0.7895 -0.1407 
-38 2 4 4.6890 -0.4774 
-38 2 5 -6.8321 0.2280 
-38 2 6 2.0419 -0.0391 
-38 2 7 1.7136 0.1636 
-38 2 8 -3.6785 -0.3025 
-38 2 9 8.4705 0.5395 
-38 2 10 -5.1587 0.0016 
-38 2 11 -2.7664 -0.1929 
-38 2 12 0.4957 -0.4333 
-38 2 13 -0.8363 0.3561 
-38 2 14 -3.6192 0.1751 
-38 2 15 -2.9112 -0.0702 
-38 2 16 5.8628 -0.2981 
-38 2 17 4.6915 0.0296 
-38 2 18 -4.0241 0.2214 
-38 2 19 -4.3702 0.5278 
-38 4 1 -0.2315 -0.1323 
-38 4 2 2.5874 -0.0940 
-38 4 3 1.1881 -0.2002 
-38 4 4 8.3344 0.0753 
-38 4 5 -0.0422 0.0440 
-38 4 6 1.3468 0.3613 
-38 4 7 5.0291 -0.1911 
-38 4 8 3.3446 -0.1959 
-38 4 9 9.3614 -0.0139 
-38 4 10 -4.1996 0.0847 
-38 4 11 0.7488 0.1008 
-38 4 12 2.0566 -0.0406 
-38 4 13 -3.9107 -0.0242 
-38 4 14 -7.2313 0.1029 
-38 4 15 0.3828 0.0069 
-38 4 16 14.5779 -0.2363 
-38 4 17 8.3626 -0.1050 
-38 4 18 -7.6523 0.1766 
-38 4 19 -3.0789 0.1301 
-38 6 1 -4.8519 0.2456 
-38 6 2 -7.7109 -0.3461 
-38 6 3 -5.5218 0.2986 
-38 6 4 -0.2677 -0.4106 
-38 6 5 -3.3289 0.1724 
-38 6 6 -1.7425 -0.0719 
-38 6 7 -0.3605 0.1724 
-38 6 8 -2.8576 -0.1895 
-38 6 9 13.0968 0.0558 
-38 6 10 5.1652 -0.0774 
-38 6 11 -2.0094 0.0710 
-38 6 12 0.3886 0.0981 
-38 6 13 -12.2851 0.1215 
-38 6 14 -5.4598 -0.1618 
-38 6 15 3.5749 -0.1665 
-38 6 16 4.2701 -0.0753 
-38 6 17 3.0865 0.0650 
-38 6 18 1.9039 0.1879 
-38 8 1 2.4198 -0.1133 
-38 8 2 -2.6721 -0.2306 
-38 8 3 5.7847 0.2165 
-38 8 4 4.4631 -0.0369 
-38 8 5 0.4888 0.3473 
-38 8 6 5.7639 -0.2060 
-38 8 7 0.4787 0.1482 
-38 8 8 -1.1282 -0.1876 
-38 8 9 -0.8557 0.2579 
-38 8 10 6.5172 -0.1981 
-38 8 11 11.5708 -0.0431 
-38 8 12 3.1108 0.0572 
-38 8 13 -7.1318 0.1189 
-38 8 14 -1.8444 0.1910 
-38 8 15 1.8196 0.0217 
-38 8 16 9.1383 -0.4461 
-38 8 17 -6.5327 0.0716 
-38 10 1 -2.0259 0.1791 
-38 10 2 -19.9184 -0.4434 
-38 10 3 4.5986 0.0309 
-38 10 4 4.0947 0.1614 
-38 10 5 -5.9207 0.2023 
-38 10 6 8.4980 0.0808 
-38 10 7 -6.9624 -0.1041 
-38 10 8 -0.9080 0.1053 
-38 10 9 -0.2941 -0.0975 
-38 10 10 -2.1208 0.1086 
-38 10 11 3.7584 -0.2680 
-38 10 12 0.8419 -0.0394 
-38 10 13 -4.9583 0.0450 
-38 10 14 -5.7194 0.2730 
-38 10 15 14.3003 0.0102 
-38 10 16 -7.1233 0.1303 
-38 12 1 16.3694 -0.0381 
-38 12 2 -3.7048 -0.6520 
-38 12 3 1.1786 0.1092 
-38 12 4 1.1149 0.3935 
-38 12 5 -3.4236 0.2668 
-38 12 6 8.7930 -0.2431 
-38 12 7 -7.2607 -0.1724 
-38 12 8 -11.7340 0.1601 
-38 12 9 2.5744 -0.1050 
-38 12 10 4.2699 -0.1073 
-38 12 11 10.6591 -0.1267 
-38 12 12 1.3709 0.3892 
-38 12 13 4.2113 -0.3952 
-38 12 14 -11.4460 0.6242 
-38 14 3 8.1803 -0.6274 
-38 14 4 2.0346 0.2317 
-38 14 5 0.9666 -0.1650 
-38 14 6 -7.1794 0.4259 
-38 14 7 -1.2308 -0.1295 
-38 14 8 4.1106 0.1084 
-38 14 9 7.3620 -0.0812 
-38 14 10 6.5045 -0.4679 
-38 14 11 5.6168 -0.0486 
-37 1 1 0.0309 0.1489 
-37 1 2 -5.7423 -0.3659 
-37 1 3 -3.8780 -0.5841 
-37 1 4 4.3666 0.2138 
-37 1 5 8.4254 0.3069 
-37 1 6 0.1166 -0.3683 
-37 1 7 -8.4651 -0.4051 
-37 1 8 5.1339 -0.0237 
-37 1 9 0.2452 0.6322 
-37 1 10 -8.2216 0.2036 
-37 1 11 -14.8431 -0.1349 
-37 1 12 10.0372 -0.6775 
-37 1 13 -10.6306 0.2171 
-37 1 14 -6.5992 0.0185 
-37 1 15 4.9192 0.2791 
-37 1 16 9.8263 -0.4239 
-37 1 17 4.7926 -0.0446 
-37 1 18 1.1972 0.1611 
-37 1 19 -3.1097 0.7622 
-37 1 20 -3.0753 -0.6081 
-37 3 1 -2.7440 0.0103 
-37 3 2 0.7034 0.4622 
-37 3 3 -10.4175 -0.4311 
-37 3 4 3.2533 0.1286 
-37 3 5 0.9150 -0.3443 
-37 3 6 -5.5421 0.4942 
-37 3 7 -12.9755 -0.2621 
-37 3 8 6.7980 0.1836 
-37 3 9 6.0513 -0.1183 
-37 3 10 -3.5749 0.0658 
-37 3 11 -4.3800 -0.1071 
-37 3 12 8.7145 0.1904 
-37 3 13 3.1831 -0.0995 
-37 3 14 1.9638 -0.1197 
-37 3 15 -3.4956 -0.0360 
-37 3 16 5.2596 0.1743 
-37 3 17 7.4515 0.0250 
-37 3 18 -3.7873 -0.0477 
-37 3 19 1.1028 0.2020 
-37 3 20 8.0645 -0.1598 
-37 5 1 4.2485 0.1349 
-37 5 2 -2.0738 0.0963 
-37 5 3 -8.6678 0.1750 
-37 5 4 0.2818 -0.2097 
-37 5 5 -6.6201 -0.3198 
-37 5 6 4.5536 0.3128 
-37 5 7 1.8907 -0.2123 
-37 5 8 3.0314 0.1078 
-37 5 9 -0.5991 -0.1289 
-37 5 10 -12.0838 0.2326 
-37 5 11 9.0776 -0.1215 
-37 5 12 19.8506 0.0470 
-37 5 13 -3.6311 0.1233 
-37 5 14 11.5321 -0.2261 
-37 5 15 9.3286 -0.0068 
-37 5 16 3.4078 0.0087 
-37 5 17 3.1483 0.0748 
-37 5 18 -9.8537 -0.0005 
-37 5 19 1.0705 -0.3693 
-37 5 20 0.2120 0.7881 
-37 7 1 5.7459 0.0833 
-37 7 2 -8.0824 0.0199 
-37 7 3 -8.4905 -0.0231 
-37 7 4 1.5497 -0.3911 
-37 7 5 -3.4437 0.2216 
-37 7 6 1.8109 0.0370 
-37 7 7 4.3045 0.4186 
-37 7 8 9.2763 -0.4597 
-37 7 9 4.3215 0.1377 
-37 7 10 -3.9704 -0.0201 
-37 7 11 -8.2739 0.0556 
-37 7 12 11.0039 0.0522 
-37 7 13 -6.6956 -0.0076 
-37 7 14 7.2747 0.1023 
-37 7 15 6.2244 -0.1495 
-37 7 16 5.5534 -0.3966 
-37 7 17 6.0460 0.1693 
-37 7 18 -4.5298 0.2595 
-37 7 19 3.6878 0.1260 
-37 9 1 -11.4501 -0.2080 
-37 9 2 0.2299 0.0089 
-37 9 3 1.2134 0.0633 
-37 9 4 -1.7140 0.2186 
-37 9 5 -10.1901 0.0209 
-37 9 6 2.0522 -0.2227 
-37 9 7 3.0418 0.1493 
-37 9 8 12.5826 -0.0558 
-37 9 9 -2.7621 0.1702 
-37 9 10 2.1676 0.0411 
-37 9 11 -0.0311 0.0085 
-37 9 12 8.0500 -0.2721 
-37 9 13 -17.5781 -0.0313 
-37 9 14 0.5569 0.3841 
-37 9 15 6.1764 -0.0931 
-37 9 16 9.1731 -0.1149 
-37 9 17 20.5106 -0.1545 
-37 9 18 7.7244 -0.2113 
-37 11 1 -4.3966 0.2485 
-37 11 2 10.1647 -0.7088 
-37 11 3 7.6540 -0.0979 
-37 11 4 7.5213 0.1150 
-37 11 5 -15.9785 0.4435 
-37 11 6 5.0359 -0.0829 
-37 11 7 -2.0311 -0.0745 
-37 11 8 3.6193 0.1241 
-37 11 9 3.0774 -0.2140 
-37 11 10 5.4084 0.0401 
-37 11 11 -0.9809 -0.0899 
-37 11 12 12.0475 0.2854 
-37 11 13 -7.3988 -0.1789 
-37 11 14 -9.2306 0.2025 
-37 11 15 10.5840 -0.5600 
-37 11 16 2.2391 0.4277 
-37 11 17 3.2499 -0.3010 
-37 13 1 -8.4944 0.1272 
-37 13 2 8.7010 -0.1293 
-37 13 3 25.8025 0.1800 
-37 13 4 9.2157 0.1160 
-37 13 5 -13.2122 0.1715 
-37 13 6 0.2480 -0.1123 
-37 13 7 3.6544 -0.4939 
-37 13 8 7.5118 0.3993 
-37 13 9 0.2376 0.0634 
-37 13 10 -5.7104 -0.0929 
-37 13 11 -9.6550 -0.4735 
-37 13 12 1.2828 0.2941 
-37 13 13 6.8300 0.4657 
-37 13 14 -7.4284 0.4031 
-37 13 15 2.7225 -0.2955 
-37 15 2 5.5309 0.1195 
-37 15 3 8.9934 0.0203 
-37 15 4 -3.1619 0.2493 
-37 15 5 -12.5113 0.0071 
-37 15 6 -5.7931 0.4324 
-37 15 7 0.7925 -0.3989 
-37 15 8 4.3972 0.1454 
-37 15 9 -3.4366 -0.2607 
-37 15 10 4.6591 0.0974 
-37 15 11 2.8142 -0.3286 
-37 15 12 9.8919 -0.0296 
-36 0 1 -4.7348 0.4970 
-36 0 2 14.8109 -0.4426 
-36 0 3 -1.5788 0.9148 
-36 0 4 -3.7764 -0.5092 
-36 0 5 -29.2857 0.7893 
-36 0 6 -16.1844 -0.4077 
-36 0 7 6.1479 -0.4562 
-36 0 8 -2.7498 -0.7418 
-36 0 9 5.9863 0.2702 
-36 0 10 11.9553 -0.1541 
-36 0 11 -0.3535 0.3582 
-36 0 12 10.8125 -0.2046 
-36 0 13 -6.1475 1.2651 
-36 0 14 -3.3123 0.1284 
-36 0 15 7.2561 -0.4059 
-36 0 16 3.5697 -2.3916 
-36 0 17 -14.5360 0.4781 
-36 0 18 -6.0920 0.9903 
-36 0 19 -9.9299 1.6962 
-36 0 20 9.6888 -1.0393 
-36 0 21 10.2749 -0.1957 
-36 2 1 -4.6633 -0.5732 
-36 2 2 13.3202 0.3332 
-36 2 3 -3.4910 0.1920 
-36 2 4 -11.8510 -0.3527 
-36 2 5 -21.4889 -0.0154 
-36 2 6 -0.6066 -0.1297 
-36 2 7 -2.1237 0.1360 
-36 2 8 -3.2118 -0.1855 
-36 2 9 5.1695 0.3436 
-36 2 10 5.4097 0.4927 
-36 2 11 -9.6612 -0.1114 
-36 2 12 4.5405 -0.7734 
-36 2 13 -0.7907 -0.1749 
-36 2 14 -1.1966 0.2123 
-36 2 15 4.0488 0.4861 
-36 2 16 1.6509 -0.2340 
-36 2 17 -3.8676 0.0272 
-36 2 18 -0.8266 0.0171 
-36 2 19 -2.5233 0.1045 
-36 2 20 6.5906 -0.1291 
-36 2 21 -0.4204 0.1687 
-36 4 1 -18.4563 0.1674 
-36 4 2 10.9910 0.4671 
-36 4 3 -1.7276 -0.0577 
-36 4 4 -4.3448 -0.0189 
-36 4 5 -7.0067 -0.5456 
-36 4 6 2.3650 0.4081 
-36 4 7 1.1833 0.2539 
-36 4 8 10.1793 -0.1343 
-36 4 9 1.7644 -0.4557 
-36 4 10 -2.9741 0.0803 
-36 4 11 -2.6758 0.3768 
-36 4 12 4.7396 0.1627 
-36 4 13 1.9418 -0.2291 
-36 4 14 -2.8244 -0.1076 
-36 4 15 -5.3890 0.0370 
-36 4 16 2.4946 0.0133 
-36 4 17 -2.9141 0.0752 
-36 4 18 -10.2667 0.1038 
-36 4 19 -0.6225 0.1441 
-36 4 20 3.5295 -0.0147 
-36 4 21 3.1762 -0.3382 
-36 6 1 -6.3108 0.0276 
-36 6 2 4.8868 0.1896 
-36 6 3 -6.7830 0.1728 
-36 6 4 -4.7980 -0.2199 
-36 6 5 -5.4590 -0.1458 
-36 6 6 0.9672 -0.0694 
-36 6 7 -0.5115 0.3660 
-36 6 8 3.2708 -0.1006 
-36 6 9 1.4680 0.0991 
-36 6 10 -8.8425 -0.1290 
-36 6 11 -0.2327 0.2940 
-36 6 12 8.5736 -0.2147 
-36 6 13 -4.7052 -0.1145 
-36 6 14 8.1299 -0.0901 
-36 6 15 2.5704 0.2701 
-36 6 16 -0.6856 0.0139 
-36 6 17 -5.7041 -0.0973 
-36 6 18 0.1706 -0.0929 
-36 6 19 -3.4341 0.1609 
-36 6 20 -9.1446 -0.1471 
-36 6 21 -0.0807 -0.3750 
-36 8 1 -4.4723 0.1481 
-36 8 2 0.7074 0.1984 
-36 8 3 0.6189 -0.2292 
-36 8 4 3.4666 -0.2231 
-36 8 5 -5.5404 0.1365 
-36 8 6 -0.0034 0.0932 
-36 8 7 -2.6164 0.0624 
-36 8 8 -2.4609 -0.2759 
-36 8 9 6.5468 0.2678 
-36 8 10 1.9974 -0.1529 
-36 8 11 2.2512 0.3798 
-36 8 12 -0.6477 -0.2528 
-36 8 13 -12.1593 0.1720 
-36 8 14 -0.3426 -0.0655 
-36 8 15 -25.8223 -0.0692 
-36 8 16 -4.1587 -0.1728 
-36 8 17 -3.4044 0.1523 
-36 8 18 -8.6248 -0.0141 
-36 8 19 -0.8338 0.2700 
-36 8 20 3.7429 -0.7284 
-36 10 1 -7.8204 0.0339 
-36 10 2 0.8562 -0.1358 
-36 10 3 -10.1024 -0.0137 
-36 10 4 -5.2232 -0.0298 
-36 10 5 -4.9851 0.2348 
-36 10 6 4.7422 -0.0960 
-36 10 7 -0.2104 -0.1363 
-36 10 8 3.5990 0.1054 
-36 10 9 7.4392 0.1654 
-36 10 10 0.0308 0.1245 
-36 10 11 4.2170 -0.2216 
-36 10 12 2.6419 -0.0905 
-36 10 13 -4.1431 0.2724 
-36 10 14 19.6193 -0.2181 
-36 10 15 -1.6204 -0.0091 
-36 10 16 -14.5727 -0.0448 
-36 10 17 -5.6385 -0.0448 
-36 10 18 6.4652 0.4622 
-36 10 19 9.2784 -0.2526 
-36 12 1 -1.5422 0.3502 
-36 12 2 -6.8669 -0.2163 
-36 12 3 -16.8102 -0.1455 
-36 12 4 -2.9832 -0.0029 
-36 12 5 -1.7230 0.3748 
-36 12 6 8.4824 -0.2983 
-36 12 7 7.8458 0.0612 
-36 12 8 -0.9314 -0.0888 
-36 12 9 5.9209 0.1649 
-36 12 10 1.3148 -0.0537 
-36 12 11 -6.2979 -0.2169 
-36 12 12 -14.6914 0.3593 
-36 12 13 -5.2879 0.0192 
-36 12 14 1.2048 0.2474 
-36 12 15 1.4786 -0.4335 
-36 12 16 3.6495 -0.2320 
-36 12 17 -1.8801 0.3451 
-36 14 1 -7.1156 -0.1581 
-36 14 2 -1.5656 -0.2067 
-36 14 3 -10.6620 0.2603 
-36 14 4 -5.9798 0.2990 
-36 14 5 5.4866 -0.0071 
-36 14 6 -3.2311 -0.1062 
-36 14 7 1.4933 -0.1367 
-36 14 8 -2.4431 -0.0071 
-36 14 9 -10.9508 0.2662 
-36 14 10 -7.0948 -0.0348 
-36 14 11 3.2460 -0.0906 
-36 14 12 -4.6490 -0.0848 
-36 14 13 -1.4444 0.1725 
-36 14 14 -3.3540 0.4020 
-36 14 15 -14.7845 0.0984 
-36 14 16 -6.0338 -0.1633 
-36 16 1 -1.0290 -0.3106 
-36 16 2 -2.6922 -0.0420 
-36 16 3 1.1107 0.0046 
-36 16 4 3.5797 0.1464 
-36 16 5 -4.5909 -0.0259 
-36 16 6 -3.5269 0.3007 
-36 16 7 -0.1403 -0.0041 
-36 16 8 -1.6983 -0.1084 
-36 16 9 -1.5507 -0.4213 
-36 16 10 -1.8266 -0.0740 
-36 16 11 -27.1896 0.1702 
-36 16 12 -12.2687 0.2934 
-36 16 13 -2.3174 0.1290 
-35 1 1 -0.6976 -0.1475 
-35 1 2 -3.5422 -0.2054 
-35 1 3 1.8936 0.1316 
-35 1 4 -9.0702 0.1685 
-35 1 5 11.9651 0.5675 
-35 1 6 14.5826 -0.3266 
-35 1 7 -6.6463 -0.2364 
-35 1 8 8.7770 -0.2499 
-35 1 9 -5.1130 0.6416 
-35 1 10 -1.0726 -0.1845 
-35 1 11 1.0176 -0.3320 
-35 1 12 4.6842 -0.1418 
-35 1 13 3.5692 0.4905 
-35 1 14 2.5288 0.1825 
-35 1 15 -7.7138 -0.3174 
-35 1 16 -26.6346 -0.4457 
-35 1 17 -3.1381 0.1370 
-35 1 18 -6.2878 0.3860 
-35 1 19 -15.9334 0.0403 
-35 1 20 4.9042 -0.1250 
-35 1 21 -2.0128 0.1392 
-35 1 22 -2.3232 -0.0501 
-35 3 1 -10.9414 -0.1909 
-35 3 2 0.8871 0.2862 
-35 3 3 2.3834 -0.1187 
-35 3 4 -9.0861 0.2522 
-35 3 5 -4.3194 -0.5742 
-35 3 6 6.0871 0.2208 
-35 3 7 -12.8102 -0.1175 
-35 3 8 1.7192 0.2659 
-35 3 9 -1.1270 -0.0380 
-35 3 10 -2.2804 0.2059 
-35 3 11 -9.7649 -0.2040 
-35 3 12 0.4331 0.0495 
-35 3 13 9.0408 -0.3286 
-35 3 14 4.5020 0.4449 
-35 3 15 0.1069 -0.2374 
-35 3 16 -4.1929 0.1143 
-35 3 17 6.0070 0.0086 
-35 3 18 -4.9704 0.0841 
-35 3 19 -10.6665 -0.1719 
-35 3 20 4.2182 0.0661 
-35 3 21 -7.6692 0.0494 
-35 3 22 -6.1701 0.5453 
-35 5 1 0.9768 -0.1809 
-35 5 2 5.0052 0.1072 
-35 5 3 -0.1075 0.1921 
-35 5 4 0.3314 -0.0422 
-35 5 5 -7.5283 -0.2424 
-35 5 6 -2.4234 0.5587 
-35 5 7 -4.2639 -0.0859 
-35 5 8 7.6665 0.0541 
-35 5 9 1.5129 -0.6401 
-35 5 10 0.6172 0.4347 
-35 5 11 7.2872 0.2359 
-35 5 12 0.9665 0.0185 
-35 5 13 5.3104 -0.2975 
-35 5 14 11.1643 -0.1698 
-35 5 15 -1.3478 0.2135 
-35 5 16 6.1011 0.1439 
-35 5 17 -9.2037 0.0545 
-35 5 18 -3.5842 0.1015 
-35 5 19 -0.0150 -0.1571 
-35 5 20 -7.6878 -0.0081 
-35 5 21 -7.6578 0.0939 
-35 5 22 -1.6894 -0.2414 
-35 7 1 -6.3170 -0.0978 
-35 7 2 -1.2862 0.4595 
-35 7 3 5.0149 0.0777 
-35 7 4 3.2664 -0.3350 
-35 7 5 -1.2597 -0.3440 
-35 7 6 3.7295 0.0082 
-35 7 7 7.0038 0.3654 
-35 7 8 -1.7866 -0.0263 
-35 7 9 2.1230 -0.0243 
-35 7 10 5.5571 -0.0011 
-35 7 11 -3.4551 0.1027 
-35 7 12 6.7729 -0.1287 
-35 7 13 0.2551 -0.1146 
-35 7 14 8.0365 -0.0005 
-35 7 15 -4.8023 0.3831 
-35 7 16 12.7851 -0.2489 
-35 7 17 -2.4565 -0.0405 
-35 7 18 -1.2674 -0.0453 
-35 7 19 2.0697 0.2619 
-35 7 20 5.8515 -0.2585 
-35 7 21 -2.7567 0.0892 
-35 9 1 -2.5047 0.1409 
-35 9 2 0.1312 0.1498 
-35 9 3 -2.6226 -0.2807 
-35 9 4 -5.2598 0.0660 
-35 9 5 -4.5986 0.0586 
-35 9 6 -5.2600 0.0819 
-35 9 7 -1.9139 -0.1566 
-35 9 8 3.1408 -0.0861 
-35 9 9 6.3113 -0.0019 
-35 9 10 -1.4290 0.1179 
-35 9 11 -2.7390 0.1191 
-35 9 12 16.9335 -0.0093 
-35 9 13 -0.0478 0.0104 
-35 9 14 25.0688 -0.1763 
-35 9 15 4.7349 0.0811 
-35 9 16 12.3933 -0.0847 
-35 9 17 -9.3198 0.2306 
-35 9 18 -7.9824 0.1005 
-35 9 19 6.0750 0.0248 
-35 9 20 1.8889 0.2663 
-35 11 1 4.6335 0.1335 
-35 11 2 5.4779 0.1958 
-35 11 3 -10.5910 -0.2259 
-35 11 4 9.0420 -0.0807 
-35 11 5 6.1153 0.0597 
-35 11 6 -3.8575 -0.0889 
-35 11 7 -4.2082 -0.0895 
-35 11 8 -0.7829 0.1509 
-35 11 9 -7.9644 0.2252 
-35 11 10 -7.6402 0.0110 
-35 11 11 2.1241 -0.3622 
-35 11 12 15.7818 0.1454 
-35 11 13 -10.3410 0.0419 
-35 11 14 -1.8833 0.2077 
-35 11 15 -1.0707 -0.3633 
-35 11 16 5.2314 0.1594 
-35 11 17 -5.5642 -0.0601 
-35 11 18 7.9435 0.0819 
-35 11 19 -2.1671 0.5868 
-35 13 1 -10.9191 0.0149 
-35 13 2 1.0455 -0.0585 
-35 13 3 -1.6854 -0.0679 
-35 13 4 -3.7893 0.0215 
-35 13 5 3.9883 0.1734 
-35 13 6 0.9590 0.0805 
-35 13 7 -10.0900 -0.2950 
-35 13 8 -6.8540 -0.0434 
-35 13 9 -5.5876 0.0672 
-35 13 10 0.5100 0.1700 
-35 13 11 4.9118 0.0671 
-35 13 12 1.9974 0.0858 
-35 13 13 4.3840 -0.0886 
-35 13 14 -9.6208 0.1770 
-35 13 15 -3.5046 -0.2246 
-35 13 16 7.6980 0.0579 
-35 13 17 -11.8071 0.0212 
-35 13 18 -2.6509 0.3554 
-35 15 1 -6.9302 0.0290 
-35 15 2 -3.0746 -0.1941 
-35 15 3 2.8306 0.1045 
-35 15 4 -4.7505 0.0836 
-35 15 5 3.9966 -0.1269 
-35 15 6 3.6648 0.0437 
-35 15 7 -11.5085 0.0048 
-35 15 8 -4.8956 0.0640 
-35 15 9 -8.0049 -0.0149 
-35 15 10 5.2440 0.0157 
-35 15 11 10.7114 0.1296 
-35 15 12 -4.5991 0.0255 
-35 15 13 -6.6746 0.1253 
-35 15 14 -3.3785 0.0044 
-35 15 15 1.4929 -0.1610 
-35 15 16 -1.7291 0.1322 
-35 17 1 11.4098 0.0504 
-35 17 2 1.1668 -0.0131 
-35 17 3 -0.3353 0.1084 
-35 17 4 8.4443 0.1676 
-35 17 5 7.4867 0.0725 
-35 17 6 16.6228 -0.1777 
-35 17 7 -5.3035 -0.0232 
-35 17 8 -6.2714 0.0350 
-35 17 9 -1.9263 -0.0200 
-35 17 10 1.2189 -0.2528 
-35 17 11 4.9651 -0.1777 
-35 17 12 -0.8151 0.4490 
-35 17 13 -3.0896 0.2872 
-34 0 1 -14.3691 1.7247 
-34 0 2 13.3713 -2.7635 
-34 0 3 -9.9263 2.7698 
-34 0 4 -0.9666 1.3579 
-34 0 5 -9.5101 0.4809 
-34 0 6 -16.9771 -2.1967 
-34 0 7 -7.1978 -0.4611 
-34 0 8 6.1048 0.0979 
-34 0 9 -7.8384 1.5017 
-34 0 10 -7.2863 -0.3965 
-34 0 11 -5.3005 0.0621 
-34 0 12 0.6934 -0.7309 
-34 0 13 -1.6075 1.0049 
-34 0 14 0.6938 -0.1930 
-34 0 15 -4.7442 0.2416 
-34 0 16 24.4534 -1.1084 
-34 0 17 5.7746 0.1386 
-34 0 18 -3.0936 0.0232 
-34 0 19 -11.4476 1.0148 
-34 0 20 -3.5368 -0.1355 
-34 0 21 1.2142 0.3400 
-34 0 22 -7.8063 -0.5361 
-34 0 23 -3.3151 0.3420 
-34 2 1 -17.8281 0.1078 
-34 2 2 2.1401 -1.5206 
-34 2 3 -2.9226 0.3210 
-34 2 4 2.3858 -0.0894 
-34 2 5 6.9992 0.4354 
-34 2 6 5.2266 -0.4989 
-34 2 7 -16.1270 0.5934 
-34 2 8 -4.4812 0.0715 
-34 2 9 0.6388 -0.1453 
-34 2 10 6.9141 -0.6106 
-34 2 11 0.8965 0.2003 
-34 2 12 13.8181 0.1820 
-34 2 13 5.9599 0.0976 
-34 2 14 -6.0441 -0.2279 
-34 2 15 -1.1983 0.2044 
-34 2 16 9.3171 0.0195 
-34 2 17 -7.7086 -0.0683 
-34 2 18 -7.8315 -0.0497 
-34 2 19 -10.8319 0.0107 
-34 2 20 -6.1402 -0.1721 
-34 2 21 -5.4690 -0.1574 
-34 2 22 -3.5130 0.3408 
-34 2 23 3.9065 -0.1045 
-34 4 1 -6.0624 -0.2670 
-34 4 2 8.5938 0.0967 
-34 4 3 -3.3676 0.4384 
-34 4 4 6.0340 0.1314 
-34 4 5 -2.0046 -0.1883 
-34 4 6 3.8017 -0.3329 
-34 4 7 -8.9388 0.0626 
-34 4 8 -0.3129 0.2716 
-34 4 9 -1.8953 -0.0935 
-34 4 10 3.6392 -0.0183 
-34 4 11 -3.5480 0.1258 
-34 4 12 2.5403 0.2596 
-34 4 13 4.4285 -0.4537 
-34 4 14 -26.5972 -0.0791 
-34 4 15 -16.8140 0.2176 
-34 4 16 7.0428 0.3311 
-34 4 17 -5.4626 -0.3379 
-34 4 18 -4.6587 -0.0487 
-34 4 19 -9.1773 0.0626 
-34 4 20 -2.5667 0.1740 
-34 4 21 2.8103 0.0748 
-34 4 22 -5.5045 -0.4225 
-34 4 23 -1.4113 -0.3478 
-34 6 1 11.8429 -0.1617 
-34 6 2 4.3257 0.2374 
-34 6 3 -10.1455 -0.1972 
-34 6 4 1.6709 -0.3650 
-34 6 5 1.5919 0.1298 
-34 6 6 1.7646 0.1816 
-34 6 7 -4.9918 0.4069 
-34 6 8 5.5838 -0.2731 
-34 6 9 -5.2620 -0.1923 
-34 6 10 1.0579 -0.0071 
-34 6 11 2.6171 0.1205 
-34 6 12 -0.2028 0.0739 
-34 6 13 4.4303 -0.1588 
-34 6 14 -0.6987 -0.1957 
-34 6 15 2.4103 0.1584 
-34 6 16 3.7583 0.0920 
-34 6 17 -15.1690 0.1923 
-34 6 18 4.9878 -0.1927 
-34 6 19 4.2056 -0.0838 
-34 6 20 7.0651 0.0750 
-34 6 21 8.1346 0.1307 
-34 6 22 -3.8395 -0.1685 
-34 8 1 -2.0743 -0.0665 
-34 8 2 3.5951 0.5069 
-34 8 3 13.7278 0.0776 
-34 8 4 -2.5233 -0.1534 
-34 8 5 -8.2496 -0.3220 
-34 8 6 1.7580 0.1212 
-34 8 7 -2.5104 -0.0123 
-34 8 8 3.1725 -0.1820 
-34 8 9 -2.6418 0.1760 
-34 8 10 -8.1790 0.0380 
-34 8 11 -5.8873 0.0889 
-34 8 12 7.7980 -0.3812 
-34 8 13 -3.1187 0.1359 
-34 8 14 0.3092 0.0920 
-34 8 15 -9.8546 0.0148 
-34 8 16 12.7741 -0.1623 
-34 8 17 3.9583 0.2081 
-34 8 18 -0.3248 -0.0914 
-34 8 19 3.4701 0.3941 
-34 8 20 5.8331 -0.3860 
-34 8 21 2.4971 -0.1829 
-34 8 22 0.8693 -0.0189 
-34 10 1 -2.0517 -0.0321 
-34 10 2 2.4697 0.1367 
-34 10 3 -2.7321 -0.1911 
-34 10 4 -10.4076 -0.0769 
-34 10 5 -0.0997 -0.1005 
-34 10 6 2.3593 0.3348 
-34 10 7 -9.0514 -0.1548 
-34 10 8 3.6828 0.0194 
-34 10 9 -8.6961 -0.0422 
-34 10 10 -13.7740 0.1426 
-34 10 11 -0.4658 -0.0559 
-34 10 12 7.3272 -0.1260 
-34 10 13 -20.5476 0.0347 
-34 10 14 1.4264 -0.0521 
-34 10 15 -0.3950 0.1193 
-34 10 16 -6.3765 -0.1526 
-34 10 17 -16.9048 0.2975 
-34 10 18 -4.4513 0.1731 
-34 10 19 -1.6008 -0.0367 
-34 10 20 -3.5669 -0.1525 
-34 10 21 -6.1346 -0.0073 
-34 12 1 6.6101 0.0011 
-34 12 2 2.4612 0.0395 
-34 12 3 10.5413 -0.0798 
-34 12 4 -1.2839 0.0129 
-34 12 5 -14.2867 0.0522 
-34 12 6 -3.0144 -0.0436 
-34 12 7 -0.3936 -0.2049 
-34 12 8 -3.5199 0.0740 
-34 12 9 -3.8378 0.1488 
-34 12 10 5.2693 0.0664 
-34 12 11 0.2367 -0.0893 
-34 12 12 -9.1699 -0.0006 
-34 12 13 -11.0310 -0.0460 
-34 12 14 -3.0195 0.2234 
-34 12 15 7.9194 -0.1915 
-34 12 16 1.6893 0.0495 
-34 12 17 -10.0482 -0.0107 
-34 12 18 3.4187 0.0187 
-34 12 19 -1.4027 0.1003 
-34 12 20 -1.1670 -0.5785 
-34 14 1 1.2134 0.2469 
-34 14 2 0.2519 -0.2281 
-34 14 3 1.5033 0.0331 
-34 14 4 2.5603 -0.1260 
-34 14 5 0.6286 0.1534 
-34 14 6 -3.4778 -0.0001 
-34 14 7 3.6858 -0.1430 
-34 14 8 -6.0135 0.1056 
-34 14 9 -8.3335 -0.0362 
-34 14 10 -1.6903 0.1127 
-34 14 11 6.9402 0.1763 
-34 14 12 -3.8014 -0.0325 
-34 14 13 -0.3774 0.0203 
-34 14 14 4.2463 -0.1111 
-34 14 15 -1.8947 -0.0022 
-34 14 16 0.6263 0.1266 
-34 14 17 4.4392 -0.0471 
-34 14 18 0.2273 0.1806 
-34 16 1 0.5752 0.0843 
-34 16 2 1.2269 0.0435 
-34 16 3 -9.6398 0.0932 
-34 16 4 3.6270 0.1203 
-34 16 5 5.1474 -0.1271 
-34 16 6 3.3830 -0.0785 
-34 16 7 9.5868 -0.0039 
-34 16 8 -4.4654 0.1870 
-34 16 9 10.7789 -0.0677 
-34 16 10 9.5987 -0.0212 
-34 16 11 -11.2443 -0.0003 
-34 16 12 11.2381 0.1846 
-34 16 13 4.6436 0.2046 
-34 16 14 -4.6400 -0.1859 
-34 16 15 0.6420 -0.1324 
-34 16 16 -4.0117 -0.0606 
-34 18 1 -5.6227 -0.1248 
-34 18 2 3.8054 0.0651 
-34 18 3 -0.7945 0.0741 
-34 18 4 9.0810 0.2365 
-34 18 5 7.5668 -0.2249 
-34 18 6 15.8510 0.2112 
-34 18 7 3.0382 -0.3349 
-34 18 8 -5.7524 -0.0055 
-34 18 9 14.7161 0.0118 
-34 18 10 3.2641 0.0471 
-34 18 11 -5.7335 -0.0934 
-34 18 12 0.5439 0.2345 
-34 18 13 -1.4050 0.0667 
-34 18 14 -12.0600 0.3378 
-34 20 6 -2.5673 0.4872 
-34 20 7 -2.5377 -0.3095 
-34 20 8 10.7965 -0.2957 
-33 1 1 -9.3099 -1.0117 
-33 1 2 -7.7546 -0.7172 
-33 1 3 1.4645 0.2829 
-33 1 4 -0.7942 -0.2553 
-33 1 5 -1.2945 0.6454 
-33 1 6 -12.0503 -0.6027 
-33 1 7 -6.5194 0.4331 
-33 1 8 -5.6110 0.0854 
-33 1 9 -6.4154 0.6673 
-33 1 10 -0.9048 -0.8395 
-33 1 11 6.9168 -0.3785 
-33 1 12 -4.0866 -0.3250 
-33 1 13 15.5454 1.0007 
-33 1 14 -8.6301 0.0952 
-33 1 15 -12.3851 0.0038 
-33 1 16 7.1179 -0.6261 
-33 1 17 -9.8522 0.3152 
-33 1 18 6.5674 0.1852 
-33 1 19 -4.9953 -0.0918 
-33 1 20 1.8728 -0.3062 
-33 1 21 -9.3959 0.2363 
-33 1 22 -7.2078 0.1927 
-33 1 23 9.0082 -0.1507 
-33 1 24 1.3778 0.3181 
-33 3 1 6.6327 -0.5069 
-33 3 2 6.0663 -0.0967 
-33 3 3 10.1956 -0.2201 
-33 3 4 -0.3511 0.5629 
-33 3 5 7.1113 -0.0393 
-33 3 6 -1.3509 -0.0981 
-33 3 7 -9.5148 -0.3027 
-33 3 8 -14.0883 -0.1400 
-33 3 9 -5.6800 0.0236 
-33 3 10 -2.9002 0.1979 
-33 3 11 -1.7536 0.0626 
-33 3 12 3.4017 0.0678 
-33 3 13 1.7506 -0.3966 
-33 3 14 -3.9209 0.1693 
-33 3 15 -1.5295 -0.0142 
-33 3 16 -1.9153 0.3745 
-33 3 17 7.4950 -0.2049 
-33 3 18 9.8568 0.1062 
-33 3 19 -3.2598 -0.2208 
-33 3 20 11.3466 -0.2119 
-33 3 21 -1.6030 -0.0468 
-33 3 22 1.1951 0.0798 
-33 3 23 -2.4049 -0.1558 
-33 5 1 8.5009 0.2880 
-33 5 2 1.8888 0.1442 
-33 5 3 -5.5605 -0.1196 
-33 5 4 5.8738 -0.1482 
-33 5 5 2.8337 -0.3551 
-33 5 6 -20.5105 0.2896 
-33 5 7 0.3646 0.2318 
-33 5 8 -0.8062 0.3671 
-33 5 9 -14.1041 -0.6284 
-33 5 10 4.9913 0.1057 
-33 5 11 5.1191 0.0718 
-33 5 12 -3.6607 0.2832 
-33 5 13 0.4418 -0.2705 
-33 5 14 -8.6823 -0.0989 
-33 5 15 -4.3935 0.1998 
-33 5 16 9.5299 0.0521 
-33 5 17 0.5064 -0.2119 
-33 5 18 2.3478 0.0254 
-33 5 19 -8.0345 0.1144 
-33 5 20 -1.6009 0.1845 
-33 5 21 -0.9632 -0.0808 
-33 5 22 -1.5000 -0.2100 
-33 5 23 -6.8300 -0.0013 
-33 7 1 9.7509 0.1132 
-33 7 2 0.5644 -0.1006 
-33 7 3 -5.4278 0.1017 
-33 7 4 1.5947 -0.0664 
-33 7 5 10.0714 0.1027 
-33 7 6 -8.8293 0.0084 
-33 7 7 0.2339 -0.0552 
-33 7 8 -20.6260 -0.1390 
-33 7 9 -12.7148 0.0005 
-33 7 10 6.9889 0.0869 
-33 7 11 -2.8972 0.0207 
-33 7 12 -0.1669 -0.0573 
-33 7 13 -2.1586 -0.2249 
-33 7 14 -6.7731 0.0082 
-33 7 15 -5.6386 0.2742 
-33 7 16 10.6708 -0.0404 
-33 7 17 5.6852 0.0494 
-33 7 18 4.9796 -0.3593 
-33 7 19 -12.2106 0.3295 
-33 7 20 -8.8856 -0.0618 
-33 7 21 -7.3097 -0.2411 
-33 7 22 0.7063 0.0366 
-33 7 23 -4.5985 -0.3597 
-33 9 1 5.0378 0.1630 
-33 9 2 5.4089 0.0909 
-33 9 3 -5.1866 0.1091 
-33 9 4 -15.5789 -0.2811 
-33 9 5 1.8659 -0.1162 
-33 9 6 0.9342 0.1730 
-33 9 7 -8.8035 -0.1205 
-33 9 8 -8.1658 0.2112 
-33 9 9 14.6478 0.0058 
-33 9 10 -0.6347 0.0184 
-33 9 11 -0.1073 -0.1099 
-33 9 12 9.0252 -0.0513 
-33 9 13 0.0731 0.0003 
-33 9 14 7.0350 0.0771 
-33 9 15 -7.8895 -0.0765 
-33 9 16 9.2277 -0.0901 
-33 9 17 -0.9172 0.1908 
-33 9 18 5.4952 0.1096 
-33 9 19 -6.9603 0.0302 
-33 9 20 -14.2850 -0.0951 
-33 9 21 -6.8492 -0.0496 
-33 9 22 -6.4810 -0.3296 
-33 11 1 -3.5991 -0.1593 
-33 11 2 -9.0787 0.0201 
-33 11 3 -21.6541 -0.1182 
-33 11 4 -9.6400 0.1513 
-33 11 5 2.8024 -0.0361 
-33 11 6 -1.2642 0.1417 
-33 11 7 -2.2370 -0.1811 
-33 11 8 -6.1706 0.0873 
-33 11 9 -11.8680 0.0158 
-33 11 10 -3.1086 0.1613 
-33 11 11 8.7174 -0.2313 
-33 11 12 0.7573 0.0752 
-33 11 13 -3.3780 -0.1765 
-33 11 14 4.2265 0.3749 
-33 11 15 -3.8108 -0.3552 
-33 11 16 0.2205 0.2914 
-33 11 17 2.0994 -0.1012 
-33 11 18 17.8105 0.0981 
-33 11 19 -3.8813 -0.2075 
-33 11 20 2.9198 -0.2851 
-33 11 21 0.8513 0.6499 
-33 13 1 -4.1665 0.0534 
-33 13 2 -7.3871 -0.0384 
-33 13 3 -6.9055 -0.0048 
-33 13 4 -5.2606 -0.0616 
-33 13 5 9.4750 -0.0426 
-33 13 6 2.5872 -0.0156 
-33 13 7 -9.8228 0.0024 
-33 13 8 -2.1150 0.0861 
-33 13 9 7.6908 -0.0746 
-33 13 10 -2.6750 0.2256 
-33 13 11 -4.9824 -0.2497 
-33 13 12 10.4607 0.1726 
-33 13 13 26.7335 -0.1800 
-33 13 14 -0.2170 0.2671 
-33 13 15 -1.2320 -0.2716 
-33 13 16 2.4972 0.0003 
-33 13 17 -6.8929 -0.0861 
-33 13 18 -3.0412 0.5331 
-33 13 19 -7.5439 -0.2137 
-33 13 20 2.5258 0.1075 
-33 15 1 0.0402 0.0264 
-33 15 2 -0.2482 -0.1156 
-33 15 3 0.1156 0.1345 
-33 15 4 -5.5104 0.0551 
-33 15 5 -0.1054 -0.0078 
-33 15 6 -6.4343 -0.0391 
-33 15 7 3.0063 0.0591 
-33 15 8 11.8735 0.0607 
-33 15 9 16.5262 -0.0324 
-33 15 10 -1.4012 0.1381 
-33 15 11 1.9034 -0.0931 
-33 15 12 12.4332 0.0369 
-33 15 13 1.4634 -0.0470 
-33 15 14 1.6593 0.0208 
-33 15 15 -3.9499 -0.1113 
-33 15 16 -12.3473 0.2627 
-33 15 17 -1.6888 0.0257 
-33 15 18 -0.5938 0.0070 
-33 17 1 3.0374 0.0948 
-33 17 2 -0.7217 0.0540 
-33 17 3 -2.6751 0.0250 
-33 17 4 5.4328 -0.0375 
-33 17 5 -4.7682 -0.0438 
-33 17 6 1.1030 0.1122 
-33 17 7 9.6442 -0.0801 
-33 17 8 0.3040 0.0425 
-33 17 9 4.8568 -0.2741 
-33 17 10 1.9179 0.2823 
-33 17 11 7.4501 0.0830 
-33 17 12 10.3083 0.0551 
-33 17 13 -4.0449 -0.1136 
-33 17 14 6.1761 -0.1377 
-33 17 15 -2.2798 -0.1990 
-33 17 16 -11.6097 0.2216 
-33 19 1 -0.8435 0.1995 
-33 19 2 8.0458 0.2184 
-33 19 3 -8.5943 -0.0820 
-33 19 4 -2.7594 -0.0657 
-33 19 5 -4.0956 -0.0233 
-33 19 6 0.0975 0.1821 
-33 19 7 -4.1853 -0.1724 
-33 19 8 -2.6176 -0.1171 
-33 19 9 1.2044 -0.1219 
-33 19 10 -8.7088 0.0608 
-33 19 11 7.4627 -0.0276 
-33 19 12 3.9089 0.2685 
-33 19 13 -3.3250 0.0474 
-33 19 14 5.0256 0.2162 
-33 21 5 14.9050 -0.1473 
-33 21 6 8.2777 -0.0522 
-33 21 7 10.7731 -0.2130 
-33 21 8 -11.1263 0.3589 
-32 0 1 1.4287 -0.3279 
-32 0 2 5.1094 -2.4491 
-32 0 3 -5.1913 0.3616 
-32 0 4 12.5732 0.6663 
-32 0 5 6.5695 1.1687 
-32 0 6 4.3816 -1.6387 
-32 0 7 -8.2538 -0.7639 
-32 0 8 -17.2627 0.0608 
-32 0 9 -10.2884 1.8746 
-32 0 10 1.9842 -0.4861 
-32 0 11 4.3085 0.5820 
-32 0 12 -2.8766 -0.0768 
-32 0 13 -8.2752 0.9041 
-32 0 14 13.1021 -2.2975 
-32 0 15 -8.6796 -0.4447 
-32 0 16 -0.0759 -0.0609 
-32 0 17 -7.9231 2.4535 
-32 0 18 7.8677 -0.1154 
-32 0 19 3.7527 -0.2543 
-32 0 20 1.7498 -1.2180 
-32 0 21 20.4104 0.6549 
-32 0 22 9.4339 -0.1429 
-32 0 23 3.8940 0.1383 
-32 0 24 -9.0875 -0.1417 
-32 2 1 -1.3684 -0.2575 
-32 2 2 -3.9593 0.1204 
-32 2 3 -3.6853 -0.1622 
-32 2 4 3.6695 0.0398 
-32 2 5 1.3653 0.5243 
-32 2 6 -2.8300 -0.7768 
-32 2 7 -2.5943 0.2497 
-32 2 8 -0.1478 0.2496 
-32 2 9 9.4857 0.5552 
-32 2 10 3.8486 -0.9655 
-32 2 11 -1.5166 -0.6549 
-32 2 12 3.4936 -0.0106 
-32 2 13 -12.4010 1.1008 
-32 2 14 1.9449 -0.1883 
-32 2 15 -2.5773 0.1243 
-32 2 16 0.3567 -0.2602 
-32 2 17 -0.4911 0.2835 
-32 2 18 9.4702 -0.4837 
-32 2 19 5.2847 -0.1264 
-32 2 20 -3.5901 0.2615 
-32 2 21 7.3412 0.1084 
-32 2 22 -2.5453 -0.0220 
-32 2 23 -10.8719 -0.5142 
-32 2 24 -9.5954 -0.0463 
-32 4 1 10.3750 0.0498 
-32 4 2 5.8478 -0.0673 
-32 4 3 2.4679 -0.3350 
-32 4 4 11.9928 0.2372 
-32 4 5 1.0435 0.2338 
-32 4 6 -5.0140 0.0703 
-32 4 7 -3.9656 -0.4090 
-32 4 8 -4.2622 -0.2996 
-32 4 9 3.8166 0.3167 
-32 4 10 -5.3335 0.2216 
-32 4 11 -7.9522 0.1864 
-32 4 12 0.8412 -0.0273 
-32 4 13 3.4874 -0.2163 
-32 4 14 3.3700 -0.2947 
-32 4 15 -5.6869 -0.1314 
-32 4 16 -4.2766 0.4832 
-32 4 17 -0.1668 0.1238 
-32 4 18 -3.8412 -0.0315 
-32 4 19 0.9698 -0.2214 
-32 4 20 -5.0041 0.1747 
-32 4 21 -1.9214 -0.0759 
-32 4 22 8.1478 -0.2162 
-32 4 23 5.4863 -0.2623 
-32 4 24 7.2744 -0.5316 
-32 6 1 4.1547 0.1992 
-32 6 2 7.0702 0.2190 
-32 6 3 1.3294 0.1338 
-32 6 4 -2.4481 -0.5315 
-32 6 5 -0.5020 0.0530 
-32 6 6 -3.2557 0.1908 
-32 6 7 0.7901 0.3676 
-32 6 8 2.7953 -0.2699 
-32 6 9 -11.1265 -0.0152 
-32 6 10 -2.2103 -0.2264 
-32 6 11 3.5674 0.1381 
-32 6 12 -9.3579 -0.1319 
-32 6 13 -4.7563 0.0840 
-32 6 14 -7.5446 0.2611 
-32 6 15 -1.4966 0.1514 
-32 6 16 -4.1079 -0.2137 
-32 6 17 -6.6327 -0.2365 
-32 6 18 -5.9983 -0.0498 
-32 6 19 3.7538 0.2186 
-32 6 20 -0.6164 0.0642 
-32 6 21 -15.4517 -0.0959 
-32 6 22 -9.7573 -0.0038 
-32 6 23 -8.6173 -0.1987 
-32 8 1 -11.9224 -0.1475 
-32 8 2 0.0890 -0.2289 
-32 8 3 34.9808 0.2872 
-32 8 4 18.7303 -0.1946 
-32 8 5 -1.6871 0.1717 
-32 8 6 11.6237 -0.2606 
-32 8 7 -7.4115 0.1583 
-32 8 8 -9.9509 -0.2383 
-32 8 9 -1.1936 0.1563 
-32 8 10 -1.6195 -0.0510 
-32 8 11 8.0449 0.4065 
-32 8 12 7.7390 -0.3567 
-32 8 13 -1.3310 -0.0968 
-32 8 14 -10.6034 -0.0423 
-32 8 15 -17.1494 0.2859 
-32 8 16 -4.3216 -0.1086 
-32 8 17 5.6317 -0.1355 
-32 8 18 -11.4030 0.2448 
-32 8 19 3.9191 0.0348 
-32 8 20 13.2068 -0.2781 
-32 8 21 3.9583 0.0800 
-32 8 22 11.0137 -0.3057 
-32 8 23 -5.5013 -0.0939 
-32 10 1 12.3955 0.1394 
-32 10 2 -8.4483 0.0258 
-32 10 3 4.4278 -0.0635 
-32 10 4 27.5023 -0.0256 
-32 10 5 5.2380 0.0105 
-32 10 6 1.3302 -0.0916 
-32 10 7 -17.8516 0.1625 
-32 10 8 3.8617 0.1508 
-32 10 9 10.6881 -0.0168 
-32 10 10 -2.7084 -0.1207 
-32 10 11 -2.6647 -0.0800 
-32 10 12 -4.4087 0.0683 
-32 10 13 -2.1326 0.1303 
-32 10 14 7.1435 -0.0028 
-32 10 15 2.1156 0.1666 
-32 10 16 -1.4251 -0.2924 
-32 10 17 -3.4395 0.0988 
-32 10 18 -4.2943 0.0436 
-32 10 19 0.7000 -0.2193 
-32 10 20 1.6774 0.1136 
-32 10 21 -5.1677 -0.1360 
-32 10 22 2.0111 0.3162 
-32 12 1 5.6534 -0.1254 
-32 12 2 -0.3540 -0.1536 
-32 12 3 3.1879 -0.0510 
-32 12 4 13.5393 0.1616 
-32 12 5 -6.9335 -0.0084 
-32 12 6 5.7759 -0.0794 
-32 12 7 2.9230 -0.0916 
-32 12 8 0.4925 0.0724 
-32 12 9 3.9454 0.1757 
-32 12 10 15.2956 0.0163 
-32 12 11 9.8362 -0.2381 
-32 12 12 -0.5331 0.0516 
-32 12 13 6.9830 -0.0438 
-32 12 14 -0.1451 0.1632 
-32 12 15 6.6424 -0.1483 
-32 12 16 4.9830 0.1312 
-32 12 17 1.2110 -0.0670 
-32 12 18 -1.0970 -0.0601 
-32 12 19 -7.9387 0.1002 
-32 12 20 5.7049 -0.2130 
-32 12 21 9.2253 -0.3472 
-32 14 1 2.1073 0.0203 
-32 14 2 9.4737 -0.1238 
-32 14 3 6.1386 0.0879 
-32 14 4 -2.0335 -0.0696 
-32 14 5 -7.3275 0.0244 
-32 14 6 -0.1006 0.0387 
-32 14 7 3.2394 0.0854 
-32 14 8 4.9436 0.0299 
-32 14 9 1.6229 -0.0876 
-32 14 10 -6.7846 0.0671 
-32 14 11 2.7645 -0.0056 
-32 14 12 2.1396 -0.0340 
-32 14 13 1.0800 -0.1368 
-32 14 14 -1.2924 0.0548 
-32 14 15 -1.5955 -0.1405 
-32 14 16 0.1213 0.0416 
-32 14 17 -2.1923 0.1704 
-32 14 18 -2.2856 -0.0499 
-32 14 19 12.1723 0.1468 
-32 14 20 7.5986 0.0523 
-32 16 1 8.9816 -0.1662 
-32 16 2 -2.3108 0.0640 
-32 16 3 -8.1119 -0.0654 
-32 16 4 -0.3031 0.0917 
-32 16 5 5.8794 -0.1400 
-32 16 6 -11.0292 0.0418 
-32 16 7 -1.3671 0.0927 
-32 16 8 2.9238 0.1869 
-32 16 9 2.8341 -0.1455 
-32 16 10 -0.5050 0.1900 
-32 16 11 -11.3067 -0.2308 
-32 16 12 10.8058 -0.0093 
-32 16 13 -3.0823 -0.1394 
-32 16 14 0.6953 0.1018 
-32 16 15 10.4016 -0.0030 
-32 16 16 3.7593 0.1743 
-32 16 17 0.5083 0.3461 
-32 16 18 9.3073 -0.2337 
-32 18 1 -13.1098 0.0990 
-32 18 2 -7.3486 0.1656 
-32 18 3 -0.9429 -0.1954 
-32 18 4 1.5342 -0.0643 
-32 18 5 1.0391 -0.0627 
-32 18 6 -5.0890 0.3606 
-32 18 7 -10.3010 -0.1562 
-32 18 8 1.5773 -0.1075 
-32 18 9 -4.7103 -0.4358 
-32 18 10 -1.0797 0.4585 
-32 18 11 -2.2620 -0.0314 
-32 18 12 9.3557 0.1836 
-32 18 13 7.0605 -0.3873 
-32 18 14 1.3894 0.0755 
-32 18 15 3.2980 -0.4387 
-32 18 16 -4.9727 -0.1842 
-32 20 1 -5.8880 0.2251 
-32 20 2 4.3570 -0.2279 
-32 20 3 -2.9723 0.3406 
-32 20 4 1.2253 0.0763 
-32 20 5 -8.6515 -0.4087 
-32 20 6 -8.4620 0.1201 
-32 20 7 -4.9700 0.0070 
-32 20 8 4.4375 0.0992 
-32 20 9 5.9362 -0.1462 
-32 20 10 -2.0920 0.0594 
-32 20 11 6.7227 -0.1238 
-32 20 12 2.0682 0.2877 
-32 20 13 -7.0508 -0.2266 
-32 20 14 -5.4737 0.6492 
-32 22 6 -11.3572 -0.1205 
-32 22 7 3.5747 -0.2296 
-31 1 1 -0.9553 -0.3429 
-31 1 2 4.9215 -0.6629 
-31 1 3 2.0420 0.4981 
-31 1 4 -1.7859 0.8552 
-31 1 5 12.7495 -0.3463 
-31 1 6 6.9192 -0.8344 
-31 1 7 7.7545 0.3932 
-31 1 8 11.5019 0.3621 
-31 1 9 3.9844 0.3575 
-31 1 10 -1.3318 -0.6071 
-31 1 11 3.2054 -0.0124 
-31 1 12 -1.8525 -0.0121 
-31 1 13 5.9643 0.6318 
-31 1 14 -2.5423 -0.4157 
-31 1 15 -12.6746 0.0717 
-31 1 16 16.7880 -0.3509 
-31 1 17 7.9207 0.6051 
-31 1 18 2.2375 -0.3613 
-31 1 19 10.5423 0.1156 
-31 1 20 9.7424 -0.4948 
-31 1 21 2.4217 0.4674 
-31 1 22 -4.5758 0.0891 
-31 1 23 -11.0830 -0.1660 
-31 1 24 -1.1007 -0.3802 
-31 1 25 2.5631 0.4866 
-31 3 1 -7.3338 -0.0785 
-31 3 2 3.0107 0.3929 
-31 3 3 -4.0857 -0.6053 
-31 3 4 -18.0886 0.3845 
-31 3 5 12.3857 -0.4396 
-31 3 6 15.2084 0.5634 
-31 3 7 2.5923 -0.2019 
-31 3 8 -4.2690 0.1272 
-31 3 9 -4.7512 -0.1862 
-31 3 10 -2.9288 -0.0669 
-31 3 11 2.1810 -0.0760 
-31 3 12 13.0741 0.2957 
-31 3 13 -3.9587 -0.2421 
-31 3 14 2.8494 0.0258 
-31 3 15 6.6401 -0.2151 
-31 3 16 -1.9680 0.1544 
-31 3 17 0.7579 -0.0679 
-31 3 18 -4.0467 0.1003 
-31 3 19 9.7511 0.1426 
-31 3 20 14.1487 0.0593 
-31 3 21 7.9016 -0.2851 
-31 3 22 7.3176 -0.0398 
-31 3 23 -6.4875 -0.0740 
-31 3 24 -5.9474 -0.3662 
-31 3 25 -9.6509 0.5990 
-31 5 1 -5.9346 0.1869 
-31 5 2 -2.1058 0.2756 
-31 5 3 -2.5167 -0.0163 
-31 5 4 1.3871 -0.0735 
-31 5 5 9.8274 -0.0056 
-31 5 6 -9.3199 0.4066 
-31 5 7 -3.0444 -0.6760 
-31 5 8 -2.3096 0.3295 
-31 5 9 -6.3061 -0.2220 
-31 5 10 5.7019 0.5444 
-31 5 11 -19.8902 -0.1622 
-31 5 12 1.5259 -0.0945 
-31 5 13 3.8769 -0.1924 
-31 5 14 -12.1596 0.0310 
-31 5 15 -1.2429 0.2136 
-31 5 16 2.6825 0.1622 
-31 5 17 1.6484 -0.3093 
-31 5 18 -1.4530 -0.0571 
-31 5 19 5.8462 -0.0419 
-31 5 20 7.8876 0.2464 
-31 5 21 4.6467 -0.0115 
-31 5 22 12.7782 -0.1365 
-31 5 23 9.9051 -0.0211 
-31 5 24 8.7535 0.2922 
-31 7 1 0.3740 0.1917 
-31 7 2 -0.7791 -0.1514 
-31 7 3 -1.3625 -0.0806 
-31 7 4 -1.2802 -0.5125 
-31 7 5 6.9673 0.3825 
-31 7 6 -12.8591 0.2043 
-31 7 7 15.4781 0.1137 
-31 7 8 -0.0481 -0.3380 
-31 7 9 -5.1228 -0.1515 
-31 7 10 0.7947 -0.0363 
-31 7 11 -16.0877 0.0451 
-31 7 12 -0.0065 0.0527 
-31 7 13 -5.4482 0.1599 
-31 7 14 -2.3529 -0.0368 
-31 7 15 -5.4127 0.0981 
-31 7 16 -4.9556 -0.0740 
-31 7 17 0.6395 -0.0463 
-31 7 18 -4.2217 -0.0647 
-31 7 19 -2.2573 0.0763 
-31 7 20 -0.6883 0.0534 
-31 7 21 -5.4728 -0.0033 
-31 7 22 6.4853 -0.0876 
-31 7 23 -0.2533 -0.3772 
-31 7 24 -0.1971 -0.0135 
-31 9 1 -3.0664 -0.0024 
-31 9 2 12.2911 -0.0081 
-31 9 3 8.8445 0.1929 
-31 9 4 3.9386 -0.0096 
-31 9 5 7.3733 0.0113 
-31 9 6 -11.3727 -0.3072 
-31 9 7 0.0668 0.0091 
-31 9 8 -9.3774 -0.0454 
-31 9 9 6.4031 0.2814 
-31 9 10 -22.2735 0.0199 
-31 9 11 -9.9683 -0.0028 
-31 9 12 7.9302 -0.1632 
-31 9 13 -8.1842 0.0322 
-31 9 14 11.2316 0.0820 
-31 9 15 -2.0269 0.1043 
-31 9 16 17.1641 -0.1620 
-31 9 17 5.2038 0.0638 
-31 9 18 -9.8887 0.0881 
-31 9 19 1.6899 -0.2211 
-31 9 20 0.5884 0.0255 
-31 9 21 -2.0810 0.0860 
-31 9 22 1.9541 0.0066 
-31 9 23 -0.0265 -0.2006 
-31 11 1 16.9221 -0.1422 
-31 11 2 14.5514 -0.2735 
-31 11 3 1.1625 -0.1492 
-31 11 4 16.1672 0.2571 
-31 11 5 -2.4440 -0.0588 
-31 11 6 -15.1738 0.0708 
-31 11 7 34.8965 0.0782 
-31 11 8 -1.1115 0.0282 
-31 11 9 -7.6590 -0.0159 
-31 11 10 1.2656 -0.1534 
-31 11 11 3.4836 -0.1303 
-31 11 12 -2.5011 0.1074 
-31 11 13 -11.8907 0.1056 
-31 11 14 1.3127 0.2895 
-31 11 15 -9.3717 -0.2323 
-31 11 16 -1.9885 0.1128 
-31 11 17 0.7389 -0.1524 
-31 11 18 -3.4564 0.1638 
-31 11 19 7.0104 -0.0846 
-31 11 20 13.4546 -0.3313 
-31 11 21 -8.2399 -0.1086 
-31 11 22 -10.7008 -0.1584 
-31 13 1 -3.9534 -0.1691 
-31 13 2 9.3913 -0.2049 
-31 13 3 8.6383 0.2643 
-31 13 4 3.8857 0.0882 
-31 13 5 -4.2184 -0.0565 
-31 13 6 -8.8245 -0.3913 
-31 13 7 9.3452 0.0854 
-31 13 8 -8.8982 0.1268 
-31 13 9 3.7610 0.1587 
-31 13 10 0.9324 0.0494 
-31 13 11 -11.1998 -0.1362 
-31 13 12 1.9792 -0.0300 
-31 13 13 7.6034 -0.1840 
-31 13 14 -2.0740 0.0850 
-31 13 15 9.6137 0.0282 
-31 13 16 6.3504 0.0349 
-31 13 17 2.4341 -0.1365 
-31 13 18 -4.4643 0.1021 
-31 13 19 -2.6406 -0.0891 
-31 13 20 0.6859 0.2343 
-31 13 21 0.1194 -0.4389 
-31 15 1 -14.2692 0.1318 
-31 15 2 2.4273 -0.2082 
-31 15 3 -3.1589 -0.1233 
-31 15 4 -1.3315 -0.0964 
-31 15 5 6.1453 0.1545 
-31 15 6 -3.0503 0.0945 
-31 15 7 -4.8153 0.2730 
-31 15 8 -11.6007 -0.0071 
-31 15 9 3.1561 -0.1776 
-31 15 10 -7.1853 -0.1275 
-31 15 11 -2.2115 0.1481 
-31 15 12 11.7196 -0.0123 
-31 15 13 -6.3652 -0.0802 
-31 15 14 -4.9664 -0.0434 
-31 15 15 -3.2310 0.0186 
-31 15 16 -5.0369 0.1351 
-31 15 17 2.0018 0.2693 
-31 15 18 -3.7285 -0.3510 
-31 15 19 -4.4995 0.0432 
-31 15 20 -0.7834 -0.1533 
-31 17 1 6.2394 0.0355 
-31 17 2 6.1885 0.1009 
-31 17 3 -13.0085 0.0258 
-31 17 4 -6.8382 -0.0734 
-31 17 5 0.2647 -0.2077 
-31 17 6 8.3897 0.0127 
-31 17 7 4.1760 0.0475 
-31 17 8 -1.7380 0.2150 
-31 17 9 -4.9760 -0.0908 
-31 17 10 1.4421 0.2086 
-31 17 11 -5.4278 -0.2325 
-31 17 12 -6.6822 -0.0509 
-31 17 13 -3.3099 -0.1653 
-31 17 14 7.0626 0.1589 
-31 17 15 1.2899 -0.2017 
-31 17 16 5.9294 0.1068 
-31 17 17 -9.6119 0.4390 
-31 17 18 -4.3511 -0.1482 
-31 19 1 4.1870 0.0471 
-31 19 2 11.9169 -0.0345 
-31 19 3 -10.2691 -0.2042 
-31 19 4 -1.9407 0.0620 
-31 19 5 -8.0798 0.0237 
-31 19 6 3.6174 0.3313 
-31 19 7 -13.4025 -0.1031 
-31 19 8 5.9769 -0.1481 
-31 19 9 -9.2997 -0.1643 
-31 19 10 -3.6599 0.0567 
-31 19 11 0.3354 0.0367 
-31 19 12 -24.6853 0.1854 
-31 19 13 -7.2400 -0.4396 
-31 19 14 9.9131 0.1185 
-31 19 15 -4.6680 -0.4316 
-31 19 16 0.5672 0.5836 
-31 21 1 -2.0262 -0.0739 
-31 21 2 3.7752 -0.1077 
-31 21 3 0.1005 0.0627 
-31 21 4 7.2696 0.0074 
-31 21 5 6.5982 -0.1058 
-31 21 6 24.1867 0.0359 
-31 21 7 6.9204 -0.1565 
-31 21 8 3.2048 0.2955 
-31 21 9 -7.1196 0.0383 
-31 21 10 0.3086 0.0586 
-31 21 11 5.1834 0.1121 
-31 21 12 3.0624 0.0596 
-31 21 13 13.0141 -0.1353 
-30 0 1 -5.0119 4.7157 
-30 0 2 16.5696 0.6067 
-30 0 3 -3.1103 1.9297 
-30 0 4 8.8597 -2.0837 
-30 0 5 -5.3920 -1.2973 
-30 0 6 7.1182 -0.8466 
-30 0 7 13.5754 1.0574 
-30 0 8 12.2567 1.3530 
-30 0 9 4.6674 0.7877 
-30 0 10 -4.1243 -1.2898 
-30 0 11 -10.1395 -0.0840 
-30 0 12 6.4043 0.1730 
-30 0 13 10.3959 1.4819 
-30 0 14 3.7131 -1.0484 
-30 0 15 -3.0384 -1.0373 
-30 0 16 3.3920 -0.8232 
-30 0 17 6.6360 1.7520 
-30 0 18 -6.5557 0.5932 
-30 0 19 6.4355 0.2476 
-30 0 20 27.0267 -1.3588 
-30 0 21 5.8056 0.5058 
-30 0 22 10.4392 -0.9592 
-30 0 23 10.8711 0.3592 
-30 0 24 11.4252 -0.6103 
-30 0 25 -13.7476 1.9931 
-30 2 1 0.7439 -1.2486 
-30 2 2 4.1108 -0.4981 
-30 2 3 0.2220 0.4136 
-30 2 4 15.4048 0.0496 
-30 2 5 0.6547 0.7424 
-30 2 6 -2.7731 -0.2181 
-30 2 7 11.2698 -0.2828 
-30 2 8 8.2326 -0.4190 
-30 2 9 9.6779 0.2494 
-30 2 10 0.0543 0.2617 
-30 2 11 -17.5758 -0.0957 
-30 2 12 1.8650 -0.2707 
-30 2 13 -3.0367 0.3164 
-30 2 14 -12.0836 0.1196 
-30 2 15 -5.3492 -0.0795 
-30 2 16 -2.7843 -0.2488 
-30 2 17 9.6658 0.3966 
-30 2 18 2.6142 -0.2452 
-30 2 19 -5.6569 -0.2961 
-30 2 20 9.2537 -0.2681 
-30 2 21 1.3360 0.7939 
-30 2 22 -2.0530 0.3102 
-30 2 23 4.4947 -0.4579 
-30 2 24 19.2479 -0.3039 
-30 2 25 -5.6062 -0.1045 
-30 4 1 -3.4528 0.2694 
-30 4 2 -14.4032 0.7997 
-30 4 3 0.1273 -0.3035 
-30 4 4 7.3003 -0.5454 
-30 4 5 5.0892 -0.4708 
-30 4 6 4.1506 0.6248 
-30 4 7 6.2389 0.0729 
-30 4 8 0.6414 -0.1111 
-30 4 9 10.5371 -0.1340 
-30 4 10 6.7324 0.4637 
-30 4 11 -11.4065 -0.0432 
-30 4 12 6.5657 -0.1668 
-30 4 13 1.3506 -0.2750 
-30 4 14 -0.3051 0.3361 
-30 4 15 1.3210 -0.2422 
-30 4 16 -5.6880 -0.1406 
-30 4 17 13.8806 -0.0954 
-30 4 18 7.1936 0.3482 
-30 4 19 1.9293 -0.0007 
-30 4 20 8.7712 -0.1476 
-30 4 21 2.6963 -0.0345 
-30 4 22 9.0844 0.0787 
-30 4 23 -9.8132 -0.0117 
-30 4 24 -6.3154 0.0679 
-30 4 25 -3.3234 -0.0575 
-30 6 1 5.9152 -0.0662 
-30 6 2 4.4139 -0.2704 
-30 6 3 2.0961 -0.0607 
-30 6 4 -7.3076 0.0244 
-30 6 5 12.7382 0.3190 
-30 6 6 -11.3669 0.1633 
-30 6 7 -7.2278 -0.0734 
-30 6 8 -1.6127 -0.4585 
-30 6 9 -11.1964 -0.0476 
-30 6 10 11.9483 0.2010 
-30 6 11 -4.1721 0.1311 
-30 6 12 1.4619 -0.2021 
-30 6 13 -1.9914 -0.1142 
-30 6 14 -7.3946 0.2176 
-30 6 15 12.1459 0.3629 
-30 6 16 3.5376 -0.1916 
-30 6 17 5.1245 -0.2207 
-30 6 18 2.9013 -0.1026 
-30 6 19 8.5973 0.0739 
-30 6 20 12.2189 0.0439 
-30 6 21 -7.5494 0.0046 
-30 6 22 -0.8480 0.0800 
-30 6 23 -7.6524 -0.1251 
-30 6 24 0.2216 0.0453 
-30 6 25 -2.0349 0.4764 
-30 8 1 -16.9495 0.4152 
-30 8 2 -1.3679 -0.0773 
-30 8 3 7.3062 -0.0500 
-30 8 4 -15.1006 -0.2770 
-30 8 5 1.8739 0.1405 
-30 8 6 1.0332 -0.1675 
-30 8 7 2.6570 0.1975 
-30 8 8 9.4373 -0.2479 
-30 8 9 1.7053 0.2549 
-30 8 10 8.2301 -0.3443 
-30 8 11 -11.1633 0.3018 
-30 8 12 -13.7530 -0.1823 
-30 8 13 -5.4148 0.2587 
-30 8 14 6.8123 -0.3555 
-30 8 15 -1.9807 0.2244 
-30 8 16 -9.5126 -0.0836 
-30 8 17 0.9022 -0.0489 
-30 8 18 -9.6230 0.0497 
-30 8 19 0.4139 0.1433 
-30 8 20 7.3825 0.0592 
-30 8 21 -2.6303 -0.1061 
-30 8 22 16.6376 -0.2361 
-30 8 23 -2.3503 0.1818 
-30 8 24 -3.6327 -0.7309 
-30 10 1 0.0277 -0.2924 
-30 10 2 10.5047 -0.0873 
-30 10 3 15.9429 0.0931 
-30 10 4 9.2617 0.2801 
-30 10 5 8.6859 0.0580 
-30 10 6 -2.5880 -0.2013 
-30 10 7 3.2593 -0.0842 
-30 10 8 6.9897 0.1491 
-30 10 9 -13.3586 0.1342 
-30 10 10 -2.9559 -0.1876 
-30 10 11 -4.6278 -0.0510 
-30 10 12 -1.2986 -0.0962 
-30 10 13 -5.6408 0.3515 
-30 10 14 4.8543 -0.1904 
-30 10 15 -0.0962 0.1328 
-30 10 16 -5.0257 -0.1358 
-30 10 17 -2.8642 0.2771 
-30 10 18 0.1951 -0.2986 
-30 10 19 4.4997 0.0805 
-30 10 20 4.7066 -0.0387 
-30 10 21 -7.4192 -0.2804 
-30 10 22 9.9086 0.2416 
-30 10 23 0.9541 -0.2859 
-30 12 1 -13.1015 -0.1300 
-30 12 2 1.7311 -0.1096 
-30 12 3 -5.4458 -0.0731 
-30 12 4 3.7859 0.1515 
-30 12 5 14.6421 -0.0670 
-30 12 6 2.9721 -0.1111 
-30 12 7 7.3567 0.0852 
-30 12 8 0.7469 0.0145 
-30 12 9 -11.8609 0.0306 
-30 12 10 16.0930 -0.0793 
-30 12 11 8.7166 0.0697 
-30 12 12 3.6593 -0.1011 
-30 12 13 -1.0509 0.1382 
-30 12 14 1.6344 -0.0723 
-30 12 15 1.4190 -0.0652 
-30 12 16 4.7524 0.0594 
-30 12 17 8.0807 0.2303 
-30 12 18 1.0006 -0.0805 
-30 12 19 -4.9994 -0.1131 
-30 12 20 4.3637 -0.1556 
-30 12 21 -8.2630 -0.0293 
-30 12 22 -3.1107 -0.0988 
-30 14 1 -3.1426 -0.0247 
-30 14 2 11.7296 -0.0877 
-30 14 3 -1.3315 0.0639 
-30 14 4 -9.9257 0.0990 
-30 14 5 6.4477 -0.0625 
-30 14 6 1.4050 -0.2400 
-30 14 7 -13.5514 0.2509 
-30 14 8 12.8834 -0.0167 
-30 14 9 9.1875 0.1545 
-30 14 10 -8.7962 -0.3048 
-30 14 11 -6.6497 0.1951 
-30 14 12 -4.6863 -0.1970 
-30 14 13 -3.2296 0.1924 
-30 14 14 0.7317 -0.0249 
-30 14 15 -9.7012 0.0258 
-30 14 16 5.8545 -0.1243 
-30 14 17 -0.0903 0.1845 
-30 14 18 -4.0311 -0.1936 
-30 14 19 3.5492 -0.0967 
-30 14 20 -0.7084 0.0078 
-30 14 21 3.4437 0.3617 
-30 16 1 1.5670 0.0956 
-30 16 2 4.3953 -0.1895 
-30 16 3 -1.4359 -0.1597 
-30 16 4 -7.8692 0.0058 
-30 16 5 4.6301 0.1170 
-30 16 6 -1.3944 0.0614 
-30 16 7 -13.7897 0.0907 
-30 16 8 -0.7939 -0.0961 
-30 16 9 -0.7650 0.1159 
-30 16 10 -4.3318 -0.0920 
-30 16 11 -4.2802 0.1673 
-30 16 12 1.8070 -0.1174 
-30 16 13 -3.7282 -0.1020 
-30 16 14 10.5299 -0.0528 
-30 16 15 2.4922 0.1555 
-30 16 16 12.8131 0.1269 
-30 16 17 4.5923 0.1367 
-30 16 18 10.7346 0.0128 
-30 16 19 7.2121 0.0265 
-30 16 20 -5.0393 -0.5794 
-30 18 1 -6.0196 0.1841 
-30 18 2 9.8414 -0.0444 
-30 18 3 13.4208 0.1675 
-30 18 4 -2.6454 -0.2392 
-30 18 5 -0.6031 0.0029 
-30 18 6 -1.3342 -0.0764 
-30 18 7 -13.7251 0.0539 
-30 18 8 13.2052 0.2368 
-30 18 9 1.6039 -0.0677 
-30 18 10 6.0608 -0.0215 
-30 18 11 -3.3327 -0.2030 
-30 18 12 7.9752 -0.0091 
-30 18 13 10.4642 -0.0371 
-30 18 14 1.9698 -0.0168 
-30 18 15 -4.2815 0.0289 
-30 18 16 8.4761 0.2790 
-30 18 17 5.1158 -0.3749 
-30 18 18 3.8643 0.3350 
-30 20 1 -8.9577 0.0814 
-30 20 2 1.6277 -0.4121 
-30 20 3 -7.3606 0.0998 
-30 20 4 -1.4127 -0.2528 
-30 20 5 -0.4806 0.4690 
-30 20 6 -1.0230 0.0184 
-30 20 7 -12.4635 -0.0862 
-30 20 8 4.2998 0.0903 
-30 20 9 3.1857 -0.0707 
-30 20 10 4.5904 0.1143 
-30 20 11 3.1310 -0.1343 
-30 20 12 4.4957 0.2585 
-30 20 13 3.3609 -0.2966 
-30 20 14 2.9373 -0.4649 
-30 20 15 -6.2811 0.0908 
-30 20 16 -0.5980 0.0409 
-30 22 1 -8.5062 0.6761 
-30 22 2 0.0274 -0.0651 
-30 22 3 -17.2115 0.0161 
-30 22 4 -2.5739 -0.3452 
-30 22 5 -5.1340 -0.0188 
-30 22 6 1.1903 -0.0156 
-30 22 7 0.4239 0.1603 
-30 22 8 8.0633 0.2079 
-30 22 9 8.2876 -0.0965 
-30 22 10 -6.0044 0.2588 
-30 22 11 -1.1794 -0.3321 
-30 22 12 2.4376 0.4250 
-30 22 13 1.7042 -0.2956 
-29 1 1 0.8540 -1.3069 
-29 1 2 17.7110 -0.0872 
-29 1 3 -7.2239 1.1063 
-29 1 4 3.7846 -0.1529 
-29 1 5 -3.0801 0.1873 
-29 1 6 11.6047 -0.9125 
-29 1 7 9.0937 0.5306 
-29 1 8 10.9720 0.2663 
-29 1 9 10.7042 -0.2163 
-29 1 10 7.7056 -1.0071 
-29 1 11 -7.2811 0.4369 
-29 1 12 -2.4349 0.7650 
-29 1 13 4.6553 0.5501 
-29 1 14 9.8170 -0.9071 
-29 1 15 0.0333 -0.1874 
-29 1 16 7.5070 0.1610 
-29 1 17 -10.0961 0.4320 
-29 1 18 9.1613 -0.2799 
-29 1 19 1.1626 -0.1551 
-29 1 20 -1.9897 -0.0680 
-29 1 21 -8.1365 0.4701 
-29 1 22 -3.3974 -0.2228 
-29 1 23 -9.8254 -0.0727 
-29 1 24 0.1525 0.0006 
-29 1 25 -10.7098 0.1804 
-29 1 26 1.0855 -0.0375 
-29 3 1 -7.0378 -0.5546 
-29 3 2 3.7656 0.5017 
-29 3 3 -17.6328 -0.1127 
-29 3 4 17.5800 0.4076 
-29 3 5 -0.7130 -0.8214 
-29 3 6 -2.2577 0.1050 
-29 3 7 12.6289 -0.3218 
-29 3 8 13.5409 0.4484 
-29 3 9 5.6090 0.0829 
-29 3 10 3.5108 0.1443 
-29 3 11 -1.9844 -0.3357 
-29 3 12 5.7798 0.0824 
-29 3 13 -1.6245 -0.1792 
-29 3 14 12.4492 0.4085 
-29 3 15 -0.1357 -0.1863 
-29 3 16 -4.9143 0.2453 
-29 3 17 -6.0259 -0.4359 
-29 3 18 5.8827 0.0176 
-29 3 19 1.1646 -0.2274 
-29 3 20 3.8088 0.3678 
-29 3 21 0.4142 0.0752 
-29 3 22 0.2862 0.0198 
-29 3 23 -0.8633 0.0014 
-29 3 24 3.0785 0.1120 
-29 3 25 -12.8343 0.2779 
-29 5 1 0.6522 0.2543 
-29 5 2 8.8716 0.0487 
-29 5 3 -6.8250 -0.3891 
-29 5 4 24.3618 -0.0913 
-29 5 5 1.7452 -0.1508 
-29 5 6 5.4983 0.9671 
-29 5 7 19.0884 -0.6116 
-29 5 8 8.6096 0.0005 
-29 5 9 2.6962 -0.5978 
-29 5 10 4.6678 0.8912 
-29 5 11 -16.8194 -0.3071 
-29 5 12 8.9009 0.1248 
-29 5 13 -4.1769 -0.3005 
-29 5 14 6.3602 0.2803 
-29 5 15 10.0472 -0.2030 
-29 5 16 12.6570 0.0082 
-29 5 17 0.3802 -0.0722 
-29 5 18 -7.1037 0.3026 
-29 5 19 -4.7686 -0.1859 
-29 5 20 5.7918 -0.1276 
-29 5 21 3.8169 -0.0830 
-29 5 22 -5.2238 0.1197 
-29 5 23 -6.7660 0.0158 
-29 5 24 3.3242 0.1746 
-29 5 25 -2.9671 0.2117 
-29 7 1 -15.4034 0.1175 
-29 7 2 0.6119 0.1068 
-29 7 3 -8.4721 0.0188 
-29 7 4 8.5784 -0.1752 
-29 7 5 -4.7213 -0.0863 
-29 7 6 12.8040 0.1785 
-29 7 7 42.3643 0.0262 
-29 7 8 3.8088 -0.2045 
-29 7 9 -22.4655 -0.0384 
-29 7 10 5.5870 0.3130 
-29 7 11 5.5577 -0.2443 
-29 7 12 32.5949 -0.0479 
-29 7 13 5.3370 -0.0457 
-29 7 14 7.0213 0.3547 
-29 7 15 0.3808 0.0813 
-29 7 16 3.2263 -0.3126 
-29 7 17 3.9770 -0.0398 
-29 7 18 8.8495 -0.0554 
-29 7 19 -2.7218 0.2149 
-29 7 20 5.4079 -0.0283 
-29 7 21 16.6584 0.0533 
-29 7 22 15.4336 0.1262 
-29 7 23 7.9987 -0.2371 
-29 7 24 -5.0095 -0.2216 
-29 7 25 -10.1266 0.3705 
-29 9 1 0.7223 -0.0570 
-29 9 2 -5.3540 0.0802 
-29 9 3 -16.0016 -0.2442 
-29 9 4 -13.3721 0.2132 
-29 9 5 -3.2039 -0.0077 
-29 9 6 1.0568 0.0772 
-29 9 7 0.9308 -0.0543 
-29 9 8 -0.0142 0.0056 
-29 9 9 0.5289 -0.1437 
-29 9 10 2.2242 0.1403 
-29 9 11 -2.8771 0.1292 
-29 9 12 13.5258 0.0076 
-29 9 13 -9.4665 -0.1504 
-29 9 14 -3.4859 -0.1246 
-29 9 15 -16.0994 -0.0193 
-29 9 16 -0.3688 -0.0895 
-29 9 17 -0.5338 0.2724 
-29 9 18 10.0372 0.0221 
-29 9 19 1.8849 0.1135 
-29 9 20 1.7959 -0.2440 
-29 9 21 6.8251 -0.0891 
-29 9 22 7.7373 0.0989 
-29 9 23 -1.2336 0.1080 
-29 9 24 -2.6739 0.1304 
-29 11 1 5.8017 -0.1756 
-29 11 2 -18.9028 0.1690 
-29 11 3 -9.1886 -0.1054 
-29 11 4 -0.5473 0.2848 
-29 11 5 0.8582 -0.1942 
-29 11 6 -5.0435 0.0057 
-29 11 7 11.8781 -0.2130 
-29 11 8 -3.5116 0.4402 
-29 11 9 -8.8551 -0.1711 
-29 11 10 13.2523 -0.0700 
-29 11 11 -16.0434 -0.0737 
-29 11 12 -12.2658 0.1375 
-29 11 13 -6.0427 -0.0026 
-29 11 14 3.5545 0.0677 
-29 11 15 -1.9855 -0.1078 
-29 11 16 -6.2585 0.1017 
-29 11 17 1.7591 -0.1138 
-29 11 18 4.2731 -0.0405 
-29 11 19 -4.0551 0.0793 
-29 11 20 2.8960 -0.0116 
-29 11 21 -9.9462 0.1030 
-29 11 22 7.3789 -0.2017 
-29 11 23 2.2655 -0.1144 
-29 13 1 -0.5152 0.0062 
-29 13 2 10.0940 -0.1205 
-29 13 3 11.7881 -0.0662 
-29 13 4 -4.2690 0.0666 
-29 13 5 11.3611 0.1334 
-29 13 6 5.9949 -0.1045 
-29 13 7 -0.0521 -0.0529 
-29 13 8 -0.7811 -0.0452 
-29 13 9 -15.9554 0.0408 
-29 13 10 5.9372 -0.1313 
-29 13 11 -16.0288 0.1149 
-29 13 12 -16.5377 0.0637 
-29 13 13 13.4705 0.0093 
-29 13 14 -4.2674 -0.1747 
-29 13 15 1.9153 0.0250 
-29 13 16 -4.4244 0.1067 
-29 13 17 -9.3884 0.1481 
-29 13 18 -6.0060 -0.0419 
-29 13 19 -3.8870 -0.2910 
-29 13 20 6.8798 0.2442 
-29 13 21 3.8012 -0.1003 
-29 13 22 8.5989 0.0204 
-29 15 1 0.0741 0.1496 
-29 15 2 3.6949 -0.1143 
-29 15 3 0.7545 0.0802 
-29 15 4 17.1163 0.0097 
-29 15 5 7.2233 0.0217 
-29 15 6 7.1745 -0.2239 
-29 15 7 4.3049 0.0627 
-29 15 8 5.8118 0.0477 
-29 15 9 1.6140 0.2141 
-29 15 10 -3.4585 -0.3113 
-29 15 11 1.7050 0.0711 
-29 15 12 0.3943 -0.2355 
-29 15 13 -0.3322 0.3834 
-29 15 14 -6.5778 -0.0717 
-29 15 15 0.2639 0.0412 
-29 15 16 8.1683 -0.1983 
-29 15 17 -0.7568 0.1146 
-29 15 18 -6.5407 0.0485 
-29 15 19 3.3266 -0.1297 
-29 15 20 -0.2215 -0.1387 
-29 15 21 -16.1014 0.0403 
-29 17 1 10.3933 -0.0573 
-29 17 2 5.0824 -0.1806 
-29 17 3 -7.8668 -0.1342 
-29 17 4 10.5537 -0.0300 
-29 17 5 -11.5013 0.2997 
-29 17 6 1.7892 -0.0173 
-29 17 7 1.2585 -0.0822 
-29 17 8 -9.6353 -0.1263 
-29 17 9 -2.7596 0.1076 
-29 17 10 -8.2042 0.0340 
-29 17 11 -16.0075 -0.0491 
-29 17 12 -9.5014 -0.0535 
-29 17 13 -6.2411 0.0315 
-29 17 14 10.3782 -0.1177 
-29 17 15 4.1157 0.1202 
-29 17 16 -1.3596 0.0601 
-29 17 17 -14.5820 0.1712 
-29 17 18 2.3736 -0.0166 
-29 17 19 10.6312 -0.3139 
-29 17 20 -0.6496 0.4464 
-29 19 1 -5.1086 -0.0263 
-29 19 2 10.3185 0.0943 
-29 19 3 -4.6061 0.0324 
-29 19 4 4.3927 -0.1737 
-29 19 5 0.1799 -0.0715 
-29 19 6 25.7799 -0.0594 
-29 19 7 -7.4069 0.2014 
-29 19 8 -6.6901 0.0379 
-29 19 9 1.1034 0.1372 
-29 19 10 6.2340 -0.1739 
-29 19 11 3.2785 -0.2487 
-29 19 12 -7.5608 0.1198 
-29 19 13 -2.8501 -0.0912 
-29 19 14 14.0841 -0.1805 
-29 19 15 -2.1339 -0.1086 
-29 19 16 -3.8219 0.3102 
-29 19 17 -10.1783 0.2734 
-29 19 18 3.4317 -0.4092 
-29 21 1 -26.5954 -0.0797 
-29 21 2 19.0046 -0.3409 
-29 21 3 -1.4821 -0.0114 
-29 21 4 -7.9933 -0.0403 
-29 21 5 4.6811 0.2981 
-29 21 6 6.4834 -0.1781 
-29 21 7 -19.7953 0.2938 
-29 21 8 7.2839 -0.0945 
-29 21 9 7.0613 0.1158 
-29 21 10 -3.0924 0.0035 
-29 21 11 1.4110 -0.1648 
-29 21 12 -2.6530 0.2370 
-29 21 13 1.9956 -0.1753 
-29 21 14 3.0750 -0.2395 
-29 21 15 -0.4859 -0.1227 
-29 21 16 2.4628 0.2503 
-29 23 1 -6.2878 0.0709 
-29 23 2 11.1230 0.1570 
-29 23 3 -2.7496 0.7008 
-29 23 4 8.3525 -0.4576 
-29 23 5 20.7464 -0.2394 
-29 23 6 16.0115 -0.1426 
-29 23 7 -15.8344 0.3687 
-29 23 8 8.8034 0.0009 
-29 23 9 -3.1514 0.1510 
-29 23 10 3.4191 0.0199 
-29 23 11 9.2971 -0.1336 
-29 23 12 1.0331 -0.0997 
-28 0 1 5.1356 -0.4184 
-28 0 2 -17.7382 -2.0465 
-28 0 3 -7.0522 4.4885 
-28 0 4 -5.4742 -0.9067 
-28 0 5 1.5298 -1.4806 
-28 0 6 7.7376 -2.3396 
-28 0 7 -5.5563 2.0541 
-28 0 8 -2.4359 1.0345 
-28 0 9 -1.9241 1.1142 
-28 0 10 12.7937 -1.2446 
-28 0 11 12.2486 0.3252 
-28 0 12 1.6906 -1.4686 
-28 0 13 0.4688 -0.1889 
-28 0 14 8.0826 -0.7207 
-28 0 15 6.2398 1.4021 
-28 0 16 4.5606 0.5714 
-28 0 17 -9.7566 0.5014 
-28 0 18 7.4436 -1.2747 
-28 0 19 -10.5609 -0.3332 
-28 0 20 9.9412 -0.4166 
-28 0 21 -2.9306 0.9276 
-28 0 22 9.6547 -0.0039 
-28 0 23 -2.9479 -0.1569 
-28 0 24 -6.4629 -0.9189 
-28 0 25 4.4000 0.8265 
-28 0 26 -2.1818 0.3227 
-28 2 1 5.1829 -1.2073 
-28 2 2 -12.1772 -0.0888 
-28 2 3 2.6236 1.3436 
-28 2 4 1.8524 -0.7349 
-28 2 5 -4.5965 0.0557 
-28 2 6 5.2215 -0.3968 
-28 2 7 15.8931 1.3081 
-28 2 8 8.4909 -0.6877 
-28 2 9 0.9087 -0.8049 
-28 2 10 11.3055 -0.5926 
-28 2 11 5.5652 0.9557 
-28 2 12 5.5413 0.5752 
-28 2 13 5.2240 0.2151 
-28 2 14 -2.8085 -0.5334 
-28 2 15 0.5772 0.1942 
-28 2 16 12.6262 -0.4834 
-28 2 17 -4.1508 0.0825 
-28 2 18 0.2678 0.1982 
-28 2 19 -31.4033 0.1243 
-28 2 20 -6.3013 -0.0842 
-28 2 21 -8.4268 -0.2536 
-28 2 22 -5.8609 0.3903 
-28 2 23 6.5910 0.0655 
-28 2 24 7.9313 0.1259 
-28 2 25 -5.1685 -0.1111 
-28 2 26 5.5071 0.3388 
-28 4 1 13.8778 -0.3297 
-28 4 2 -4.2357 0.4355 
-28 4 3 8.0041 0.1046 
-28 4 4 -5.7074 0.1979 
-28 4 5 0.1621 -0.3687 
-28 4 6 11.6736 -0.1570 
-28 4 7 7.3869 0.0071 
-28 4 8 2.6625 0.1378 
-28 4 9 8.0974 0.1653 
-28 4 10 3.0204 0.2278 
-28 4 11 2.4322 -0.1667 
-28 4 12 7.3714 -0.3509 
-28 4 13 2.0679 -0.4479 
-28 4 14 17.2058 0.4452 
-28 4 15 -6.9478 0.3485 
-28 4 16 -6.0740 0.1220 
-28 4 17 -11.3859 -0.5130 
-28 4 18 0.1024 0.1670 
-28 4 19 4.7839 -0.0255 
-28 4 20 5.9560 0.0462 
-28 4 21 0.8172 -0.3315 
-28 4 22 9.7916 0.3185 
-28 4 23 6.4232 0.0215 
-28 4 24 5.8216 0.2252 
-28 4 25 -15.4212 0.1807 
-28 4 26 3.1197 0.2118 
-28 6 1 8.9330 0.5358 
-28 6 2 6.0882 -0.0830 
-28 6 3 2.4590 -0.5153 
-28 6 4 -11.3367 -0.0706 
-28 6 5 5.4810 0.3448 
-28 6 6 -3.1928 0.1956 
-28 6 7 -0.1188 0.0261 
-28 6 8 18.4959 -0.4738 
-28 6 9 14.2605 -0.0145 
-28 6 10 -5.0454 0.0802 
-28 6 11 0.2287 0.2618 
-28 6 12 21.6548 0.0184 
-28 6 13 -1.1988 -0.0239 
-28 6 14 0.3358 0.0728 
-28 6 15 -6.6499 -0.1419 
-28 6 16 -0.2895 -0.0777 
-28 6 17 -3.8108 -0.1152 
-28 6 18 2.9350 0.1266 
-28 6 19 7.1317 0.3109 
-28 6 20 1.6754 -0.0566 
-28 6 21 -6.4648 -0.1409 
-28 6 22 4.4466 -0.0091 
-28 6 23 12.3934 0.0013 
-28 6 24 11.5206 0.0208 
-28 6 25 -9.7481 0.0804 
-28 8 1 -5.9021 0.1359 
-28 8 2 -2.4783 0.1954 
-28 8 3 1.8239 0.0004 
-28 8 4 3.8428 -0.0957 
-28 8 5 8.7304 -0.0327 
-28 8 6 8.3161 -0.0226 
-28 8 7 4.6629 0.1122 
-28 8 8 3.9825 -0.1954 
-28 8 9 0.7995 0.4061 
-28 8 10 -6.3366 -0.1312 
-28 8 11 -6.6856 0.1650 
-28 8 12 1.3833 -0.4018 
-28 8 13 4.6624 0.2469 
-28 8 14 9.4073 -0.1300 
-28 8 15 -8.4840 0.1073 
-28 8 16 14.2704 0.0455 
-28 8 17 14.7818 0.0335 
-28 8 18 1.1744 -0.1072 
-28 8 19 -1.5143 0.0317 
-28 8 20 0.4582 -0.0391 
-28 8 21 -9.5029 0.2473 
-28 8 22 10.6159 -0.2033 
-28 8 23 1.2721 0.4692 
-28 8 24 -15.9483 -0.2622 
-28 8 25 -4.2392 0.3109 
-28 10 1 -1.8577 -0.1027 
-28 10 2 -6.7768 0.0463 
-28 10 3 -0.4428 -0.0953 
-28 10 4 6.6571 0.0458 
-28 10 5 -5.0608 -0.0207 
-28 10 6 -2.7024 0.2437 
-28 10 7 6.1259 -0.2735 
-28 10 8 -11.1044 0.0930 
-28 10 9 -6.0678 -0.2113 
-28 10 10 4.1330 0.2990 
-28 10 11 -3.4690 -0.0994 
-28 10 12 13.5429 0.1417 
-28 10 13 16.2883 0.0185 
-28 10 14 9.6585 -0.1789 
-28 10 15 -4.5453 -0.0470 
-28 10 16 5.6618 -0.2559 
-28 10 17 -9.7061 0.3762 
-28 10 18 -7.8506 -0.1421 
-28 10 19 -5.6843 0.1083 
-28 10 20 3.5005 -0.1859 
-28 10 21 -2.2155 0.3671 
-28 10 22 13.6381 0.0289 
-28 10 23 6.9384 -0.2552 
-28 10 24 -0.7509 0.1003 
-28 12 1 -4.5674 -0.0890 
-28 12 2 -6.2025 0.0884 
-28 12 3 -5.3736 0.1301 
-28 12 4 4.5149 0.0490 
-28 12 5 -6.8573 -0.1761 
-28 12 6 9.2531 0.0647 
-28 12 7 31.0595 -0.1467 
-28 12 8 5.3196 0.3039 
-28 12 9 0.0579 -0.2533 
-28 12 10 11.2211 0.0585 
-28 12 11 -14.0665 -0.1583 
-28 12 12 -6.4095 0.2362 
-28 12 13 -5.6931 -0.0062 
-28 12 14 -5.1577 0.0723 
-28 12 15 -7.7374 0.0060 
-28 12 16 3.6420 -0.2100 
-28 12 17 1.5683 0.1079 
-28 12 18 -1.0421 0.0202 
-28 12 19 -7.0415 -0.0289 
-28 12 20 9.6272 0.0008 
-28 12 21 0.0879 0.3176 
-28 12 22 3.3434 -0.3230 
-28 12 23 6.6695 -0.0419 
-28 14 1 -8.1599 0.0663 
-28 14 2 2.9895 -0.0371 
-28 14 3 0.5063 -0.1525 
-28 14 4 -5.1235 0.1109 
-28 14 5 -1.5067 0.1367 
-28 14 6 18.1619 -0.0909 
-28 14 7 0.1596 -0.1781 
-28 14 8 -0.0027 -0.0330 
-28 14 9 5.1160 0.1164 
-28 14 10 -3.6521 -0.1385 
-28 14 11 -7.6454 0.0689 
-28 14 12 5.7298 -0.0771 
-28 14 13 -1.4143 0.0362 
-28 14 14 3.3271 -0.1617 
-28 14 15 3.8047 0.1942 
-28 14 16 6.2294 -0.1231 
-28 14 17 -2.0533 0.1193 
-28 14 18 1.0689 -0.0269 
-28 14 19 -4.2434 0.0562 
-28 14 20 3.4289 -0.2175 
-28 14 21 5.3598 0.0331 
-28 14 22 -4.4994 0.0163 
-28 16 1 -6.2060 -0.0132 
-28 16 2 1.6314 0.1150 
-28 16 3 0.6081 -0.1902 
-28 16 4 -4.1762 -0.0389 
-28 16 5 -1.2103 0.1662 
-28 16 6 10.2210 -0.0379 
-28 16 7 4.6807 -0.0093 
-28 16 8 -2.3088 -0.2169 
-28 16 9 8.9193 0.2119 
-28 16 10 -0.9054 -0.2020 
-28 16 11 -5.8259 0.0026 
-28 16 12 0.8416 -0.0143 
-28 16 13 -9.9393 0.2514 
-28 16 14 9.2768 -0.0703 
-28 16 15 -3.8748 -0.0475 
-28 16 16 4.9057 -0.1552 
-28 16 17 7.1749 0.0745 
-28 16 18 2.5427 -0.1502 
-28 16 19 -1.6775 0.0448 
-28 16 20 -3.2405 0.0126 
-28 16 21 6.2500 -0.3429 
-28 18 1 -10.5157 0.0116 
-28 18 2 0.4828 -0.2073 
-28 18 3 -1.5438 -0.0395 
-28 18 4 0.6463 0.0262 
-28 18 5 6.6999 0.1930 
-28 18 6 -4.7411 -0.1674 
-28 18 7 -2.7466 0.0426 
-28 18 8 -0.4197 -0.1219 
-28 18 9 -0.9617 0.1638 
-28 18 10 10.4183 0.0130 
-28 18 11 2.3109 -0.1429 
-28 18 12 16.5412 -0.1708 
-28 18 13 -3.6888 0.1940 
-28 18 14 3.8164 -0.1843 
-28 18 15 2.7816 -0.1068 
-28 18 16 15.7147 0.2427 
-28 18 17 13.1736 0.3225 
-28 18 18 -8.0792 -0.3307 
-28 18 19 -5.7748 -0.2209 
-28 18 20 8.2945 0.3310 
-28 20 1 0.2024 0.1248 
-28 20 2 3.8402 -0.1582 
-28 20 3 -4.0742 0.0401 
-28 20 4 -5.3338 -0.1534 
-28 20 5 -10.0932 0.1283 
-28 20 6 3.3450 -0.2247 
-28 20 7 -3.9735 0.2926 
-28 20 8 -12.6838 -0.0410 
-28 20 9 -13.4962 0.0457 
-28 20 10 -2.0878 -0.1601 
-28 20 11 -14.6587 -0.0568 
-28 20 12 -1.3889 -0.0001 
-28 20 13 -7.4683 0.1645 
-28 20 14 5.2443 -0.1447 
-28 20 15 0.4922 -0.2811 
-28 20 16 1.0421 -0.1488 
-28 20 17 1.2425 0.5711 
-28 20 18 5.7885 -0.4779 
-28 22 1 9.5763 -0.0758 
-28 22 2 5.6117 -0.4150 
-28 22 3 -3.5807 0.4375 
-28 22 4 -7.9733 0.0158 
-28 22 5 -14.4632 -0.0653 
-28 22 6 9.3808 -0.1414 
-28 22 7 -8.3756 0.3597 
-28 22 8 -6.3726 -0.0071 
-28 22 9 -1.8691 0.1891 
-28 22 10 -2.1225 -0.0497 
-28 22 11 -7.8662 -0.0588 
-28 22 12 0.3387 -0.2108 
-28 22 13 -5.7185 -0.1265 
-28 22 14 5.8479 -0.1048 
-28 22 15 -9.6640 0.0649 
-28 24 1 -0.3916 -0.4179 
-28 24 2 -13.8560 -0.1285 
-28 24 3 1.4615 0.3425 
-28 24 4 8.8729 -0.0073 
-28 24 5 -0.0452 -0.1375 
-28 24 6 7.5515 -0.2035 
-28 24 7 -12.0456 0.3677 
-28 24 8 1.4257 0.0902 
-28 24 9 -1.9040 -0.2760 
-28 24 10 -3.7763 0.0737 
-28 24 11 -4.0256 0.1983 
-27 1 1 12.2899 -1.2306 
-27 1 2 11.7415 -0.2084 
-27 1 3 -8.5177 0.7624 
-27 1 4 12.0807 -0.2973 
-27 1 5 -7.1048 0.0803 
-27 1 6 -4.8720 -0.7439 
-27 1 7 -14.4386 1.2510 
-27 1 8 -4.3952 -0.2348 
-27 1 9 -7.7335 0.3616 
-27 1 10 2.2853 -1.4551 
-27 1 11 1.3354 0.6019 
-27 1 12 9.3305 0.1647 
-27 1 13 -7.7080 0.7510 
-27 1 14 -1.2162 -0.9414 
-27 1 15 -10.9545 0.0358 
-27 1 16 19.6388 -0.1025 
-27 1 17 -5.5418 0.6291 
-27 1 18 -5.7299 -0.5640 
-27 1 19 -9.2699 -0.1807 
-27 1 20 -3.8481 0.1792 
-27 1 21 10.3960 0.5433 
-27 1 22 -2.6480 -0.0986 
-27 1 23 -0.2325 -0.6092 
-27 1 24 10.4156 -0.0547 
-27 1 25 -1.6032 0.4421 
-27 1 26 -0.0485 0.1030 
-27 3 1 6.1190 -0.8239 
-27 3 2 12.3636 0.5060 
-27 3 3 -16.9669 -0.0064 
-27 3 4 8.8262 0.7659 
-27 3 5 -6.4055 -0.3559 
-27 3 6 -4.4759 0.2577 
-27 3 7 1.5746 -0.2348 
-27 3 8 4.2124 -0.2397 
-27 3 9 4.5253 0.2380 
-27 3 10 0.1882 0.0575 
-27 3 11 2.7142 0.1119 
-27 3 12 10.6549 -0.1296 
-27 3 13 0.0685 -0.1607 
-27 3 14 11.0234 0.1508 
-27 3 15 3.5493 -0.0763 
-27 3 16 31.4922 0.3676 
-27 3 17 0.3912 0.0151 
-27 3 18 0.9485 0.0219 
-27 3 19 -3.9221 -0.3765 
-27 3 20 -8.8211 0.1876 
-27 3 21 9.8047 -0.2147 
-27 3 22 8.3704 0.4656 
-27 3 23 10.5609 -0.2300 
-27 3 24 -4.3995 0.1527 
-27 3 25 -18.4717 0.4194 
-27 3 26 4.8653 -0.3831 
-27 5 1 -13.2458 0.2818 
-27 5 2 6.3127 0.0217 
-27 5 3 -11.6087 -0.1688 
-27 5 4 3.9448 -0.1004 
-27 5 5 6.6569 -0.2149 
-27 5 6 0.4313 0.3648 
-27 5 7 -13.3777 -0.2127 
-27 5 8 -2.1111 0.4174 
-27 5 9 18.1896 -0.4374 
-27 5 10 -0.0411 0.5223 
-27 5 11 7.7490 -0.4326 
-27 5 12 21.3404 -0.0765 
-27 5 13 -7.0391 -0.1435 
-27 5 14 6.2223 0.5128 
-27 5 15 -10.6880 -0.1846 
-27 5 16 11.0594 -0.1585 
-27 5 17 -2.4733 -0.4350 
-27 5 18 -0.6629 0.5045 
-27 5 19 1.3561 0.2018 
-27 5 20 -7.2138 0.0868 
-27 5 21 -3.6943 -0.3371 
-27 5 22 -9.2877 0.0323 
-27 5 23 -0.4715 -0.0520 
-27 5 24 8.5134 0.2126 
-27 5 25 2.6627 -0.0019 
-27 5 26 11.2755 0.2512 
-27 7 1 -10.2931 0.2371 
-27 7 2 5.9330 -0.2067 
-27 7 3 -11.0649 -0.0436 
-27 7 4 -5.1819 0.1152 
-27 7 5 -16.6402 0.3390 
-27 7 6 1.4767 -0.1837 
-27 7 7 7.7503 -0.1035 
-27 7 8 2.5203 -0.1713 
-27 7 9 8.1157 -0.0396 
-27 7 10 12.4503 0.3127 
-27 7 11 -0.9821 0.2554 
-27 7 12 5.0520 -0.0424 
-27 7 13 -5.6426 -0.3056 
-27 7 14 6.4489 0.0730 
-27 7 15 5.3031 0.0873 
-27 7 16 7.1226 0.1089 
-27 7 17 -14.4110 -0.0812 
-27 7 18 -4.1078 0.0800 
-27 7 19 -5.9906 0.0286 
-27 7 20 4.4050 -0.1159 
-27 7 21 -2.1161 -0.0009 
-27 7 22 -1.6969 0.2135 
-27 7 23 4.1421 0.2833 
-27 7 24 -5.1827 -0.1338 
-27 7 25 -2.6956 -0.2941 
-27 7 26 3.2069 0.2357 
-27 9 1 -6.5324 0.2291 
-27 9 2 -2.1571 0.2921 
-27 9 3 0.5099 -0.1627 
-27 9 4 8.0975 -0.2128 
-27 9 5 -10.3847 -0.2774 
-27 9 6 5.9078 0.1680 
-27 9 7 -15.3543 0.1425 
-27 9 8 -6.6089 0.2376 
-27 9 9 13.4179 -0.0989 
-27 9 10 10.7241 -0.1582 
-27 9 11 -0.6939 -0.1609 
-27 9 12 3.1237 0.1991 
-27 9 13 5.8978 -0.0468 
-27 9 14 7.8467 0.0555 
-27 9 15 1.4595 -0.0457 
-27 9 16 8.6249 0.0566 
-27 9 17 -16.0408 -0.1655 
-27 9 18 -0.7090 0.0164 
-27 9 19 -1.8506 0.1216 
-27 9 20 6.0159 -0.0176 
-27 9 21 -4.8601 0.0945 
-27 9 22 3.6680 0.0003 
-27 9 23 3.3151 0.1804 
-27 9 24 5.5274 0.1646 
-27 9 25 8.0038 0.1055 
-27 11 1 6.8064 -0.2457 
-27 11 2 -17.3574 0.0918 
-27 11 3 -3.0086 0.0815 
-27 11 4 -4.7391 0.2332 
-27 11 5 -30.9475 -0.1235 
-27 11 6 3.7861 0.1903 
-27 11 7 -12.4840 -0.3798 
-27 11 8 -3.3178 0.0661 
-27 11 9 16.2136 -0.2680 
-27 11 10 -3.6029 0.3888 
-27 11 11 7.4300 -0.1190 
-27 11 12 8.6338 0.3896 
-27 11 13 -1.0874 -0.2977 
-27 11 14 0.8972 0.0807 
-27 11 15 -6.0204 -0.2646 
-27 11 16 -1.2675 0.3126 
-27 11 17 -5.7389 -0.1442 
-27 11 18 1.3352 0.0391 
-27 11 19 7.1413 -0.2073 
-27 11 20 8.4805 0.1824 
-27 11 21 -18.8998 0.2772 
-27 11 22 2.5893 -0.0741 
-27 11 23 1.0248 -0.0343 
-27 11 24 2.3282 -0.3557 
-27 13 1 -1.8967 0.1326 
-27 13 2 -1.1219 0.1608 
-27 13 3 -5.3075 0.0073 
-27 13 4 -3.1225 -0.2277 
-27 13 5 2.3840 -0.1616 
-27 13 6 -3.8084 0.1833 
-27 13 7 -43.2267 0.0960 
-27 13 8 -3.2973 0.1052 
-27 13 9 -2.7965 -0.1237 
-27 13 10 -5.7409 0.0599 
-27 13 11 9.4532 -0.3481 
-27 13 12 -11.1465 0.1820 
-27 13 13 5.1801 0.0703 
-27 13 14 -7.6910 0.1022 
-27 13 15 -11.4275 -0.1425 
-27 13 16 0.1272 0.0630 
-27 13 17 4.1275 -0.0034 
-27 13 18 6.5625 0.1180 
-27 13 19 -7.8067 -0.1337 
-27 13 20 -1.0572 0.1740 
-27 13 21 -6.1895 -0.1472 
-27 13 22 7.0696 0.1732 
-27 13 23 4.3256 -0.1954 
-27 15 1 4.9358 -0.0776 
-27 15 2 -7.3691 -0.0416 
-27 15 3 -4.4628 -0.0419 
-27 15 4 2.2851 0.0513 
-27 15 5 0.6989 0.2735 
-27 15 6 17.8404 0.0598 
-27 15 7 -14.5717 -0.3899 
-27 15 8 9.1578 -0.2351 
-27 15 9 8.6645 0.0576 
-27 15 10 -6.5902 0.2863 
-27 15 11 18.9936 0.0188 
-27 15 12 9.6428 -0.1324 
-27 15 13 4.9901 0.0054 
-27 15 14 0.7260 0.0231 
-27 15 15 -2.0346 -0.0105 
-27 15 16 2.5344 -0.1687 
-27 15 17 6.1462 0.0731 
-27 15 18 -7.4448 -0.0252 
-27 15 19 -11.9520 -0.0212 
-27 15 20 9.1728 -0.1307 
-27 15 21 -7.3973 0.0166 
-27 15 22 0.5247 -0.0250 
-27 17 1 3.4438 0.0856 
-27 17 2 -2.6865 0.2255 
-27 17 3 2.0617 -0.3445 
-27 17 4 6.7179 -0.0222 
-27 17 5 0.4049 0.0029 
-27 17 6 8.9697 0.1278 
-27 17 7 -3.1280 0.0135 
-27 17 8 -4.1120 0.0548 
-27 17 9 6.7030 0.0168 
-27 17 10 5.3011 -0.0446 
-27 17 11 2.7794 -0.1132 
-27 17 12 2.2276 -0.0714 
-27 17 13 -12.7819 0.1053 
-27 17 14 -2.7407 0.3094 
-27 17 15 -4.7161 -0.1940 
-27 17 16 -11.6603 -0.1592 
-27 17 17 -4.4928 0.1096 
-27 17 18 0.0334 -0.0673 
-27 17 19 -9.6099 -0.0694 
-27 17 20 3.0513 -0.0964 
-27 17 21 -6.2518 -0.0344 
-27 19 1 -5.1138 -0.2152 
-27 19 2 -11.5283 -0.0652 
-27 19 3 -9.2453 -0.1341 
-27 19 4 -3.9291 0.4244 
-27 19 5 -5.3236 -0.0488 
-27 19 6 16.6761 -0.0501 
-27 19 7 6.6980 -0.1547 
-27 19 8 -1.3079 -0.0899 
-27 19 9 5.2250 0.0907 
-27 19 10 22.5338 0.0209 
-27 19 11 -1.4779 0.0268 
-27 19 12 3.9575 -0.0481 
-27 19 13 5.5742 0.1751 
-27 19 14 2.3260 -0.0031 
-27 19 15 -4.7918 -0.3868 
-27 19 16 -2.7476 0.1663 
-27 19 17 -4.5710 0.2048 
-27 19 18 5.4371 -0.1377 
-27 19 19 0.3818 0.1568 
-27 21 1 -9.7585 0.1832 
-27 21 2 12.8382 -0.1875 
-27 21 3 2.1443 0.0174 
-27 21 4 7.5257 -0.0280 
-27 21 5 -7.1010 0.0251 
-27 21 6 5.5788 -0.1442 
-27 21 7 0.2134 0.3220 
-27 21 8 -2.1707 0.0598 
-27 21 9 -11.9789 0.1148 
-27 21 10 -5.8046 -0.3139 
-27 21 11 -8.4143 0.0039 
-27 21 12 -5.2607 -0.1336 
-27 21 13 -3.8750 0.2907 
-27 21 14 -4.3639 -0.2833 
-27 21 15 4.5360 0.1105 
-27 21 16 17.8914 0.2300 
-27 21 17 -3.0232 -0.3622 
-27 23 1 -13.9565 -0.1716 
-27 23 2 -16.4813 -0.4613 
-27 23 3 1.6914 0.4841 
-27 23 4 13.4883 -0.0453 
-27 23 5 -23.8190 0.1686 
-27 23 6 3.0293 -0.3647 
-27 23 7 -9.5563 0.2553 
-27 23 8 -3.6958 0.1390 
-27 23 9 6.5724 0.0305 
-27 23 10 -1.1559 -0.0948 
-27 23 11 -3.9589 0.3772 
-27 23 12 1.8533 -0.1365 
-27 23 13 -7.2406 -0.0310 
-27 23 14 0.8408 -0.8256 
-27 23 15 -15.2202 1.0014 
-27 25 1 6.2014 0.1623 
-27 25 2 4.5254 0.0255 
-27 25 3 -6.3161 0.0923 
-27 25 4 6.7236 -0.4989 
-27 25 5 -11.8677 0.0195 
-27 25 6 3.9205 -0.2378 
-27 25 7 -5.7076 0.6621 
-27 25 8 0.0968 0.1784 
-27 25 9 10.5630 -0.2508 
-27 25 10 -5.5041 -0.3213 
-26 0 1 22.0057 0.9740 
-26 0 2 1.3378 -4.9579 
-26 0 3 14.7764 0.1941 
-26 0 4 -10.0423 -1.0825 
-26 0 5 -8.2715 0.1919 
-26 0 6 3.5880 0.1068 
-26 0 7 -4.2820 2.1258 
-26 0 8 -9.4348 0.0211 
-26 0 9 9.3805 -0.5555 
-26 0 10 4.5734 -2.2680 
-26 0 11 0.0157 2.0201 
-26 0 12 8.2430 0.1390 
-26 0 13 10.6631 -0.3249 
-26 0 14 14.0969 -2.7815 
-26 0 15 -11.8688 1.1824 
-26 0 16 1.9017 1.4260 
-26 0 17 -14.1168 1.4878 
-26 0 18 6.5456 -1.6387 
-26 0 19 10.5425 -0.5439 
-26 0 20 -8.9753 -0.9304 
-26 0 21 -1.1563 0.7103 
-26 0 22 8.2521 -0.2416 
-26 0 23 -12.6250 1.0236 
-26 0 24 5.7486 -0.0667 
-26 0 25 -4.6481 0.3363 
-26 0 26 -3.0229 -1.2241 
-26 0 27 8.0811 -0.6484 
-26 2 1 10.4283 -0.2923 
-26 2 2 -11.4999 0.0156 
-26 2 3 4.6903 1.1352 
-26 2 4 -4.5424 0.4406 
-26 2 5 -4.7649 -0.3572 
-26 2 6 -1.4931 -1.2153 
-26 2 7 -10.4541 0.5434 
-26 2 8 -11.4408 0.5786 
-26 2 9 3.2134 0.2674 
-26 2 10 1.9600 -1.0478 
-26 2 11 -11.7276 0.4647 
-26 2 12 1.1149 0.1668 
-26 2 13 18.2311 0.5656 
-26 2 14 -0.6320 -0.7962 
-26 2 15 -14.3824 0.5492 
-26 2 16 11.2129 -0.0942 
-26 2 17 -7.3391 -0.0989 
-26 2 18 2.7181 -0.7046 
-26 2 19 -10.8767 0.6681 
-26 2 20 -11.8368 0.5940 
-26 2 21 1.3799 0.1776 
-26 2 22 15.0119 -0.6590 
-26 2 23 9.9662 -0.2181 
-26 2 24 13.6908 0.0859 
-26 2 25 -9.3777 0.0217 
-26 2 26 -3.8043 0.1326 
-26 2 27 -0.9338 -0.0006 
-26 4 1 8.9767 -0.1784 
-26 4 2 -10.1606 -0.2620 
-26 4 3 2.5082 -0.5474 
-26 4 4 -12.0993 0.2935 
-26 4 5 -7.7047 0.2237 
-26 4 6 -8.8970 0.0640 
-26 4 7 -21.4062 -0.2508 
-26 4 8 -16.2500 0.1645 
-26 4 9 6.8432 0.2034 
-26 4 10 7.1381 -0.0422 
-26 4 11 -1.6869 -0.1391 
-26 4 12 -8.0977 -0.0033 
-26 4 13 -5.2458 -0.1074 
-26 4 14 4.7563 -0.1372 
-26 4 15 -4.5718 -0.0774 
-26 4 16 6.8205 0.3526 
-26 4 17 -6.4711 0.0618 
-26 4 18 2.0505 0.0427 
-26 4 19 -0.3392 -0.0719 
-26 4 20 2.6217 -0.0201 
-26 4 21 2.4895 -0.2452 
-26 4 22 4.9083 0.0738 
-26 4 23 -12.5429 0.2075 
-26 4 24 1.4195 0.2794 
-26 4 25 -8.7131 -0.1920 
-26 4 26 5.4732 -0.1443 
-26 6 1 4.6318 0.1209 
-26 6 2 -7.3093 0.2820 
-26 6 3 -5.3956 0.1071 
-26 6 4 -15.4935 -0.4459 
-26 6 5 -0.5010 0.4939 
-26 6 6 -6.0252 -0.2981 
-26 6 7 5.2214 0.0295 
-26 6 8 9.4085 -0.3533 
-26 6 9 -0.2923 0.4677 
-26 6 10 -8.1865 -0.0827 
-26 6 11 4.3648 0.0787 
-26 6 12 8.2904 -0.1469 
-26 6 13 -12.5468 0.1626 
-26 6 14 -1.1227 0.1153 
-26 6 15 1.0858 -0.0929 
-26 6 16 5.8555 -0.2400 
-26 6 17 -1.6804 0.0021 
-26 6 18 -7.2682 0.0079 
-26 6 19 -18.6148 0.1536 
-26 6 20 -6.6528 0.1341 
-26 6 21 -1.8254 0.0078 
-26 6 22 -0.4672 0.0485 
-26 6 23 -4.4538 -0.1508 
-26 6 24 13.0870 0.0130 
-26 6 25 -19.9542 -0.0612 
-26 6 26 -14.8215 0.0415 
-26 8 1 9.6299 0.0883 
-26 8 2 -0.9219 -0.2629 
-26 8 3 -6.1337 0.0965 
-26 8 4 -0.3632 -0.2968 
-26 8 5 -8.4114 0.3912 
-26 8 6 -14.6544 -0.2321 
-26 8 7 16.4222 0.3408 
-26 8 8 -2.4910 -0.3914 
-26 8 9 7.1372 0.4027 
-26 8 10 20.9680 -0.3171 
-26 8 11 11.6117 0.4200 
-26 8 12 -2.2662 -0.6154 
-26 8 13 -2.5179 0.3110 
-26 8 14 9.8381 -0.1481 
-26 8 15 -14.3404 0.2152 
-26 8 16 3.4320 -0.0250 
-26 8 17 -0.4938 0.1440 
-26 8 18 -9.5843 0.0678 
-26 8 19 -3.3849 -0.2041 
-26 8 20 -0.8118 -0.1360 
-26 8 21 1.2861 0.1168 
-26 8 22 10.6043 0.1658 
-26 8 23 -10.9295 0.1368 
-26 8 24 4.9599 -0.1254 
-26 8 25 0.5105 0.1590 
-26 8 26 -5.9001 -0.0897 
-26 10 1 -10.3101 0.1406 
-26 10 2 -7.7110 0.0546 
-26 10 3 -7.3488 0.2128 
-26 10 4 -1.6608 -0.1665 
-26 10 5 -13.0648 -0.2315 
-26 10 6 3.6149 -0.0359 
-26 10 7 59.3257 0.2601 
-26 10 8 10.0590 -0.0390 
-26 10 9 21.0251 -0.2594 
-26 10 10 12.9956 -0.0267 
-26 10 11 -2.8353 0.1423 
-26 10 12 1.2578 0.1094 
-26 10 13 -7.1205 -0.1070 
-26 10 14 9.8510 -0.0164 
-26 10 15 -5.8321 0.0899 
-26 10 16 10.4933 -0.1394 
-26 10 17 0.8653 -0.0384 
-26 10 18 -2.1039 0.0135 
-26 10 19 -3.0600 0.1273 
-26 10 20 -13.9809 -0.0980 
-26 10 21 0.0688 0.0729 
-26 10 22 4.1433 0.0830 
-26 10 23 -10.8256 -0.1487 
-26 10 24 5.4037 0.2475 
-26 10 25 -5.2263 -0.1392 
-26 12 1 -11.5030 -0.2294 
-26 12 2 -6.0693 0.0486 
-26 12 3 6.9577 0.1715 
-26 12 4 6.5324 -0.0503 
-26 12 5 -15.1739 -0.0824 
-26 12 6 -5.7808 0.1133 
-26 12 7 20.1030 0.0156 
-26 12 8 -20.6639 0.0095 
-26 12 9 -2.1108 -0.0939 
-26 12 10 8.4992 0.1415 
-26 12 11 1.8229 -0.0248 
-26 12 12 0.3248 0.0648 
-26 12 13 -0.2039 -0.2722 
-26 12 14 17.3255 0.1195 
-26 12 15 -5.6453 0.1154 
-26 12 16 12.6857 0.1922 
-26 12 17 13.2414 -0.1265 
-26 12 18 1.0371 -0.0171 
-26 12 19 3.7835 -0.0402 
-26 12 20 -1.2435 0.1749 
-26 12 21 -2.9952 -0.0491 
-26 12 22 -4.0160 0.0034 
-26 12 23 -11.3653 0.1564 
-26 12 24 -3.5856 -0.5421 
-26 14 1 -6.4157 0.0806 
-26 14 2 -0.8902 0.1717 
-26 14 3 -1.3745 0.0174 
-26 14 4 -11.9199 -0.2800 
-26 14 5 -6.7829 -0.0643 
-26 14 6 12.0406 0.1458 
-26 14 7 0.7214 0.0349 
-26 14 8 -1.5832 -0.1529 
-26 14 9 8.9140 -0.0030 
-26 14 10 1.7527 0.0379 
-26 14 11 0.5275 0.0041 
-26 14 12 7.2536 0.0264 
-26 14 13 0.2717 0.1232 
-26 14 14 6.4892 -0.0703 
-26 14 15 -8.5593 -0.1060 
-26 14 16 1.8781 -0.0657 
-26 14 17 1.8832 0.1176 
-26 14 18 -4.7382 0.0079 
-26 14 19 -4.8904 0.1552 
-26 14 20 7.0987 -0.1083 
-26 14 21 6.8047 -0.1060 
-26 14 22 4.1374 -0.0027 
-26 14 23 2.2680 -0.0957 
-26 16 1 -7.2648 -0.0273 
-26 16 2 -0.7023 0.0721 
-26 16 3 0.6916 -0.1292 
-26 16 4 -15.9452 0.0683 
-26 16 5 -13.5253 0.1247 
-26 16 6 -1.9693 0.0911 
-26 16 7 -11.2023 -0.1802 
-26 16 8 -19.7356 -0.1600 
-26 16 9 5.1127 0.1348 
-26 16 10 -1.8372 0.1930 
-26 16 11 -3.8409 -0.0198 
-26 16 12 8.7511 -0.3114 
-26 16 13 4.0854 0.1652 
-26 16 14 5.8870 0.1715 
-26 16 15 -18.9318 -0.0956 
-26 16 16 -1.1224 -0.0889 
-26 16 17 -3.5047 0.0286 
-26 16 18 1.8102 -0.0362 
-26 16 19 0.1853 -0.0643 
-26 16 20 -12.2115 -0.1630 
-26 16 21 -3.6197 0.2121 
-26 16 22 -1.6487 -0.2803 
-26 18 1 2.4428 0.1301 
-26 18 2 3.4882 0.0291 
-26 18 3 -6.2433 -0.1997 
-26 18 4 -6.6269 0.0833 
-26 18 5 9.7028 -0.0735 
-26 18 6 12.0900 0.1954 
-26 18 7 5.6971 -0.1956 
-26 18 8 -13.9295 0.1278 
-26 18 9 12.4586 -0.1287 
-26 18 10 8.6478 0.1889 
-26 18 11 -13.9921 -0.0564 
-26 18 12 5.2946 -0.0331 
-26 18 13 -5.2739 0.2349 
-26 18 14 4.1663 0.0032 
-26 18 15 0.0806 -0.0619 
-26 18 16 0.4664 -0.1711 
-26 18 17 -13.3562 0.1337 
-26 18 18 0.3527 0.3285 
-26 18 19 2.8864 -0.3289 
-26 18 20 0.5742 -0.1096 
-26 18 21 -3.1473 0.2294 
-26 20 1 1.8089 -0.0804 
-26 20 2 -10.1809 -0.0900 
-26 20 3 5.5185 -0.0697 
-26 20 4 8.2386 0.3043 
-26 20 5 -9.2593 0.0128 
-26 20 6 13.1168 -0.0292 
-26 20 7 -10.6081 -0.1381 
-26 20 8 -20.3447 0.0563 
-26 20 9 2.4816 -0.0161 
-26 20 10 3.1996 -0.0071 
-26 20 11 -20.9396 -0.1522 
-26 20 12 -5.6361 0.0519 
-26 20 13 -8.0425 0.0844 
-26 20 14 -3.3363 0.0676 
-26 20 15 2.1006 0.0799 
-26 20 16 0.4507 -0.2114 
-26 20 17 -4.1799 0.1223 
-26 20 18 10.4232 -0.0569 
-26 20 19 -4.5746 -0.4644 
-26 22 1 13.7894 0.0703 
-26 22 2 -15.4310 -0.0841 
-26 22 3 -8.8287 0.0703 
-26 22 4 12.0022 -0.0438 
-26 22 5 -8.0953 0.0129 
-26 22 6 15.1682 -0.1117 
-26 22 7 -8.6825 0.1591 
-26 22 8 7.7035 0.1263 
-26 22 9 4.8825 0.1143 
-26 22 10 2.8237 -0.3179 
-26 22 11 3.5903 0.1345 
-26 22 12 -1.2396 0.2146 
-26 22 13 2.2758 -0.0221 
-26 22 14 8.2561 -0.3701 
-26 22 15 -4.3497 0.3009 
-26 22 16 -0.1094 -0.0717 
-26 22 17 -8.1805 0.7267 
-26 24 1 13.8742 -0.3166 
-26 24 2 1.8999 -0.0149 
-26 24 3 -3.5321 0.0290 
-26 24 4 7.7698 0.0827 
-26 24 5 -3.4698 0.0070 
-26 24 6 9.6745 -0.2768 
-26 24 7 -8.2921 0.2536 
-26 24 8 5.7532 0.1386 
-26 24 9 0.8483 -0.0201 
-26 24 10 -6.9498 -0.2340 
-26 24 11 -0.3868 -0.0453 
-26 24 12 5.8491 0.3799 
-26 24 13 -14.5654 0.0008 
-26 24 14 7.3239 -0.5307 
-26 26 1 1.1320 0.2458 
-26 26 2 7.7643 0.1546 
-26 26 3 -2.7494 0.3590 
-26 26 4 4.9613 -0.4603 
-26 26 5 3.7340 -0.1549 
-26 26 6 6.4917 -0.0649 
-26 26 7 -8.9338 0.4016 
-26 26 8 -5.6591 -0.0229 
-26 26 9 -0.4637 0.1065 
-25 1 1 6.5763 -0.6342 
-25 1 2 4.9759 0.0753 
-25 1 3 -7.4483 0.8337 
-25 1 4 3.6149 -0.7639 
-25 1 5 -12.6866 -0.5689 
-25 1 6 1.9674 -0.0772 
-25 1 7 2.0692 0.5745 
-25 1 8 -14.4459 -0.4074 
-25 1 9 -12.2375 -0.3715 
-25 1 10 -9.3333 -0.0010 
-25 1 11 -5.1630 0.8790 
-25 1 12 -7.0496 -0.2280 
-25 1 13 3.3558 -0.0396 
-25 1 14 0.7655 -0.9158 
-25 1 15 -16.8683 0.7074 
-25 1 16 0.8093 -0.1374 
-25 1 17 -1.0687 0.4370 
-25 1 18 0.1471 -0.7462 
-25 1 19 -5.8869 0.2469 
-25 1 20 3.4925 -0.1443 
-25 1 21 0.5555 0.7693 
-25 1 22 -5.6266 -0.4727 
-25 1 23 -9.9070 0.1448 
-25 1 24 5.4764 -0.6248 
-25 1 25 -4.2872 0.3702 
-25 1 26 3.5448 -0.1043 
-25 1 27 1.5306 -0.2454 
-25 3 1 -13.9161 -0.3280 
-25 3 2 -4.3870 0.7713 
-25 3 3 -0.1779 -0.5476 
-25 3 4 7.5770 0.3632 
-25 3 5 -18.2931 -0.7725 
-25 3 6 -8.7533 0.6459 
-25 3 7 1.9194 -0.1648 
-25 3 8 -7.5487 0.5318 
-25 3 9 5.8290 -0.5742 
-25 3 10 -11.4405 0.1333 
-25 3 11 -5.0317 0.0145 
-25 3 12 12.3084 0.2459 
-25 3 13 14.3818 -0.1198 
-25 3 14 -7.1361 0.0456 
-25 3 15 -19.6200 -0.1370 
-25 3 16 6.3887 -0.1012 
-25 3 17 -6.7821 -0.0580 
-25 3 18 -4.8207 0.3995 
-25 3 19 -6.2313 0.0795 
-25 3 20 -2.7102 0.0337 
-25 3 21 -9.4001 -0.1127 
-25 3 22 -3.8393 -0.0597 
-25 3 23 -5.5036 0.0633 
-25 3 24 -4.2597 -0.1383 
-25 3 25 -4.6405 0.0484 
-25 3 26 2.9158 -0.2003 
-25 3 27 -3.2003 0.0174 
-25 5 1 0.8678 0.3493 
-25 5 2 -2.6387 -0.2447 
-25 5 3 -6.0385 -0.4333 
-25 5 4 -9.1795 0.4609 
-25 5 5 -2.2702 0.0858 
-25 5 6 -7.2234 0.0412 
-25 5 7 -15.3536 -0.9684 
-25 5 8 -11.4312 0.6728 
-25 5 9 7.3628 -0.1312 
-25 5 10 -4.9764 0.5955 
-25 5 11 2.0169 -0.5772 
-25 5 12 1.5771 0.0747 
-25 5 13 -4.9479 -0.3104 
-25 5 14 9.2255 0.3758 
-25 5 15 -8.4697 -0.0213 
-25 5 16 -2.9614 0.1910 
-25 5 17 -6.9970 -0.2636 
-25 5 18 0.3263 0.0886 
-25 5 19 -3.7127 -0.1696 
-25 5 20 -0.1778 0.0528 
-25 5 21 -10.9052 -0.0373 
-25 5 22 -5.8425 0.2466 
-25 5 23 6.0121 -0.0791 
-25 5 24 11.1254 0.0516 
-25 5 25 6.3718 -0.3348 
-25 5 26 -1.8641 -0.0273 
-25 5 27 -6.2787 -0.1828 
-25 7 1 -0.9646 0.3716 
-25 7 2 -6.8991 -0.2819 
-25 7 3 3.6554 -0.1153 
-25 7 4 -2.3106 -0.0481 
-25 7 5 -14.1703 0.3837 
-25 7 6 -6.3656 0.0413 
-25 7 7 -3.4708 -0.0067 
-25 7 8 1.7304 -0.0722 
-25 7 9 -3.9109 0.1167 
-25 7 10 12.2868 -0.2377 
-25 7 11 0.2326 0.0152 
-25 7 12 9.2941 0.1700 
-25 7 13 1.4134 0.2541 
-25 7 14 -14.6546 -0.0722 
-25 7 15 2.4479 -0.1879 
-25 7 16 6.7890 -0.1224 
-25 7 17 -3.3373 0.0847 
-25 7 18 8.6505 0.0918 
-25 7 19 -17.4205 0.1652 
-25 7 20 -0.5723 0.0641 
-25 7 21 -8.1697 -0.2018 
-25 7 22 -0.2313 0.1528 
-25 7 23 10.5861 -0.1027 
-25 7 24 -5.1045 0.1101 
-25 7 25 5.4141 -0.2132 
-25 7 26 8.3842 -0.0647 
-25 9 1 10.5616 -0.2113 
-25 9 2 -2.2572 -0.0639 
-25 9 3 -1.8090 0.3001 
-25 9 4 4.5964 -0.0847 
-25 9 5 -12.5655 -0.0264 
-25 9 6 -4.4727 -0.1896 
-25 9 7 -13.7292 -0.0395 
-25 9 8 -5.6048 -0.0260 
-25 9 9 -7.6744 0.4027 
-25 9 10 1.8511 -0.0998 
-25 9 11 -9.6835 -0.1163 
-25 9 12 -4.8019 -0.1887 
-25 9 13 4.0447 -0.0516 
-25 9 14 -3.9791 -0.0585 
-25 9 15 -7.3318 0.2201 
-25 9 16 -1.1510 0.2198 
-25 9 17 3.9628 0.0072 
-25 9 18 17.8559 -0.1232 
-25 9 19 -9.1430 -0.1357 
-25 9 20 8.0349 0.0815 
-25 9 21 -9.8316 0.0044 
-25 9 22 -4.6593 0.0499 
-25 9 23 13.3064 -0.2077 
-25 9 24 1.9132 0.0943 
-25 9 25 -1.6049 0.0353 
-25 9 26 7.1689 0.0772 
-25 11 1 8.2645 -0.2550 
-25 11 2 -15.0641 0.1321 
-25 11 3 3.7281 0.1700 
-25 11 4 9.8675 -0.1919 
-25 11 5 -10.5267 -0.2175 
-25 11 6 2.0978 0.1680 
-25 11 7 -20.4709 0.3516 
-25 11 8 -0.6575 -0.1182 
-25 11 9 20.6388 -0.3288 
-25 11 10 1.7697 -0.0459 
-25 11 11 11.2383 0.1609 
-25 11 12 -1.2929 0.2498 
-25 11 13 -11.5821 -0.1741 
-25 11 14 16.4081 0.0658 
-25 11 15 -3.1913 -0.3084 
-25 11 16 -10.7181 0.2005 
-25 11 17 8.4934 -0.0675 
-25 11 18 9.4638 0.1991 
-25 11 19 6.3776 -0.1209 
-25 11 20 8.8568 0.2072 
-25 11 21 -6.4995 -0.0800 
-25 11 22 7.5051 0.0120 
-25 11 23 4.0989 -0.0287 
-25 11 24 0.4823 -0.0464 
-25 11 25 -4.8973 0.4824 
-25 13 1 8.2219 -0.0764 
-25 13 2 2.8031 -0.0096 
-25 13 3 -2.9621 0.3241 
-25 13 4 8.9581 -0.1066 
-25 13 5 -5.5979 -0.2265 
-25 13 6 -14.2642 -0.1756 
-25 13 7 -10.1585 0.2764 
-25 13 8 8.5446 -0.0288 
-25 13 9 -8.1511 0.0039 
-25 13 10 1.2925 0.1135 
-25 13 11 6.5620 0.0519 
-25 13 12 -4.1429 -0.2250 
-25 13 13 1.9123 -0.1898 
-25 13 14 7.8279 0.1856 
-25 13 15 3.1748 0.0897 
-25 13 16 -1.8934 0.1798 
-25 13 17 0.3975 -0.1581 
-25 13 18 0.7080 0.1616 
-25 13 19 -6.0315 -0.0965 
-25 13 20 -0.9655 0.0530 
-25 13 21 5.3009 -0.0091 
-25 13 22 3.1357 0.2331 
-25 13 23 -2.0917 -0.3002 
-25 13 24 7.7240 0.4593 
-25 15 1 4.1395 0.2838 
-25 15 2 -7.0367 -0.0558 
-25 15 3 4.6860 -0.0092 
-25 15 4 2.5894 -0.3443 
-25 15 5 -13.0615 0.1034 
-25 15 6 5.0699 0.1183 
-25 15 7 -1.5451 0.0872 
-25 15 8 2.7095 -0.2333 
-25 15 9 -0.2135 -0.1741 
-25 15 10 3.4357 0.0977 
-25 15 11 3.9363 0.1405 
-25 15 12 6.2216 -0.0007 
-25 15 13 -2.7970 -0.0016 
-25 15 14 1.2766 -0.0177 
-25 15 15 3.4031 -0.0670 
-25 15 16 -0.2428 -0.2144 
-25 15 17 -3.1035 -0.0550 
-25 15 18 -0.3561 0.3662 
-25 15 19 12.5182 0.0748 
-25 15 20 23.7920 -0.1032 
-25 15 21 5.1654 -0.0425 
-25 15 22 -2.5732 -0.1192 
-25 15 23 2.3391 0.1570 
-25 17 1 4.8094 -0.0876 
-25 17 2 -6.2995 0.0170 
-25 17 3 19.0877 0.0270 
-25 17 4 11.2656 0.0968 
-25 17 5 -7.7383 -0.0157 
-25 17 6 -6.2897 0.0270 
-25 17 7 -1.7155 -0.2357 
-25 17 8 -2.0480 0.0754 
-25 17 9 0.5241 0.0913 
-25 17 10 -0.6147 0.2876 
-25 17 11 0.1862 -0.1814 
-25 17 12 -9.0131 -0.1308 
-25 17 13 -28.4644 -0.0907 
-25 17 14 -13.3351 0.1621 
-25 17 15 -7.6688 0.1045 
-25 17 16 8.5446 -0.0041 
-25 17 17 3.8849 -0.1705 
-25 17 18 5.4358 0.1864 
-25 17 19 -0.2707 -0.2192 
-25 17 20 6.7775 0.1384 
-25 17 21 3.3939 0.0292 
-25 17 22 3.8777 -0.3774 
-25 19 1 0.5422 0.1926 
-25 19 2 -9.1923 -0.0317 
-25 19 3 13.3505 -0.3172 
-25 19 4 -9.9969 0.0307 
-25 19 5 -8.5924 0.0273 
-25 19 6 7.8353 0.1965 
-25 19 7 11.3821 -0.2220 
-25 19 8 -3.8308 0.0754 
-25 19 9 -6.4123 -0.1931 
-25 19 10 2.9331 0.1686 
-25 19 11 -5.3109 -0.2345 
-25 19 12 12.7492 0.2682 
-25 19 13 16.3465 0.0054 
-25 19 14 11.0048 0.1416 
-25 19 15 1.2656 -0.3210 
-25 19 16 12.2203 0.0504 
-25 19 17 -4.2132 0.1288 
-25 19 18 -1.5848 0.1132 
-25 19 19 -6.7638 -0.0373 
-25 19 20 2.8440 0.1488 
-25 21 1 -0.6986 0.1190 
-25 21 2 29.3291 -0.0370 
-25 21 3 10.0510 0.0777 
-25 21 4 -6.5945 0.0775 
-25 21 5 1.0324 0.1155 
-25 21 6 -2.7089 -0.1916 
-25 21 7 6.8298 -0.0805 
-25 21 8 2.1152 0.1083 
-25 21 9 8.8845 0.0970 
-25 21 10 33.9676 -0.1020 
-25 21 11 4.8798 -0.1105 
-25 21 12 -0.1586 0.0022 
-25 21 13 -2.9063 0.1315 
-25 21 14 -3.8639 -0.0289 
-25 21 15 0.9908 -0.1708 
-25 21 16 6.1315 0.1842 
-25 21 17 -10.8692 -0.2080 
-25 21 18 0.0957 -0.1403 
-25 21 19 0.8879 -0.4860 
-25 23 1 -17.3418 0.1490 
-25 23 2 8.2489 -0.1035 
-25 23 3 -6.2182 0.0490 
-25 23 4 -0.6032 -0.0458 
-25 23 5 5.8341 0.0504 
-25 23 6 6.9987 -0.0683 
-25 23 7 10.5866 0.0949 
-25 23 8 -3.9877 0.0779 
-25 23 9 6.4180 -0.0483 
-25 23 10 10.3535 -0.2363 
-25 23 11 -7.6557 0.0593 
-25 23 12 5.7758 0.1988 
-25 23 13 -1.6934 0.1914 
-25 23 14 3.7390 -0.3020 
-25 23 15 -7.2636 0.2478 
-25 23 16 7.5078 0.0004 
-25 25 1 5.2236 -0.5192 
-25 25 2 23.7140 0.0968 
-25 25 3 -12.1529 0.1806 
-25 25 4 -0.3196 0.0819 
-25 25 5 6.4603 -0.0208 
-25 25 6 0.4521 -0.1521 
-25 25 7 6.9632 0.0071 
-25 25 8 -6.6721 -0.0425 
-25 25 9 2.9224 0.1852 
-25 25 10 0.7855 0.0196 
-25 25 11 -9.6928 -0.2616 
-25 25 12 10.6798 -0.1973 
-25 25 13 -6.4162 -0.0800 
-25 27 4 4.3311 -0.5042 
-25 27 5 3.8368 -0.0521 
-25 27 6 -3.6739 0.1456 
-24 0 1 -17.5267 3.7963 
-24 0 2 -20.8186 0.1588 
-24 0 3 -9.9428 0.6998 
-24 0 4 -5.6616 -3.5952 
-24 0 5 8.6988 0.0233 
-24 0 6 -15.4829 0.4579 
-24 0 7 -16.3773 2.7906 
-24 0 8 -24.2987 0.0415 
-24 0 9 -12.3015 -0.7011 
-24 0 10 -0.8788 -2.8553 
-24 0 11 0.4357 0.0021 
-24 0 12 -10.1467 0.2598 
-24 0 13 -12.7219 1.2924 
-24 0 14 10.0821 -0.2439 
-24 0 15 1.1100 0.5094 
-24 0 16 4.8350 -0.2803 
-24 0 17 4.7877 0.1473 
-24 0 18 3.5290 -1.5347 
-24 0 19 -14.2067 0.4649 
-24 0 20 12.1841 0.3205 
-24 0 21 -17.4594 1.1480 
-24 0 22 -2.5760 -1.4449 
-24 0 23 1.6935 -0.0061 
-24 0 24 17.9391 0.2547 
-24 0 25 -3.2992 1.7308 
-24 0 26 12.0892 -1.2578 
-24 0 27 12.5934 -0.3531 
-24 2 1 -13.7570 -1.1390 
-24 2 2 1.8097 0.9972 
-24 2 3 1.6691 0.0640 
-24 2 4 -8.6729 -0.1354 
-24 2 5 -0.4280 1.0030 
-24 2 6 -2.1511 -0.6714 
-24 2 7 -4.7247 -0.6314 
-24 2 8 -8.0791 -0.5706 
-24 2 9 -26.0745 0.6078 
-24 2 10 -12.3328 0.7519 
-24 2 11 10.4163 0.3040 
-24 2 12 -7.5927 -0.0444 
-24 2 13 -1.2172 -0.1459 
-24 2 14 -1.6722 -0.7814 
-24 2 15 -7.2363 -0.0371 
-24 2 16 7.6309 0.1832 
-24 2 17 -3.0513 0.7762 
-24 2 18 2.2623 -0.5535 
-24 2 19 -10.0732 -0.2193 
-24 2 20 21.3498 0.0260 
-24 2 21 -3.9991 0.7301 
-24 2 22 0.4091 -0.3722 
-24 2 23 -3.9491 -0.1694 
-24 2 24 9.2332 -0.2581 
-24 2 25 -10.5508 0.0633 
-24 2 26 -13.4140 -0.1515 
-24 2 27 -18.4340 -0.4545 
-24 4 1 -36.1998 0.3004 
-24 4 2 -0.2299 0.5593 
-24 4 3 8.3397 -0.6565 
-24 4 4 -0.2968 -0.1746 
-24 4 5 -5.4421 -0.2104 
-24 4 6 1.5014 0.5031 
-24 4 7 -14.1462 -0.1142 
-24 4 8 -2.0899 0.3256 
-24 4 9 -14.0236 -0.0760 
-24 4 10 -23.1754 0.0592 
-24 4 11 5.0004 -0.9193 
-24 4 12 -16.7611 0.1833 
-24 4 13 -6.5036 0.3897 
-24 4 14 7.9835 0.5821 
-24 4 15 -4.0184 -0.4306 
-24 4 16 0.0615 -0.1747 
-24 4 17 -7.7480 0.0425 
-24 4 18 0.6107 0.1828 
-24 4 19 -19.8141 -0.1508 
-24 4 20 3.3146 0.0971 
-24 4 21 -13.7551 0.0027 
-24 4 22 4.9405 -0.0296 
-24 4 23 7.1425 -0.1115 
-24 4 24 8.3094 0.1073 
-24 4 25 7.2447 -0.0851 
-24 4 26 7.0348 -0.2263 
-24 4 27 -9.1017 -0.6215 
-24 6 1 -22.6418 -0.1192 
-24 6 2 3.5491 -0.7297 
-24 6 3 -6.8251 0.0394 
-24 6 4 -6.5931 0.5416 
-24 6 5 0.6927 0.4538 
-24 6 6 -9.0586 -0.2389 
-24 6 7 -9.9044 -0.3935 
-24 6 8 23.9631 -0.2241 
-24 6 9 -14.3174 0.4405 
-24 6 10 -19.1593 0.1743 
-24 6 11 5.7189 -0.0236 
-24 6 12 6.2408 -0.2654 
-24 6 13 11.2180 0.1542 
-24 6 14 12.4359 0.1091 
-24 6 15 2.3863 -0.0395 
-24 6 16 1.1695 -0.2184 
-24 6 17 0.8466 0.1714 
-24 6 18 10.9304 0.1556 
-24 6 19 -7.5102 -0.0365 
-24 6 20 11.4279 -0.2222 
-24 6 21 -12.9951 0.0253 
-24 6 22 -16.6591 0.3154 
-24 6 23 -9.5025 -0.0468 
-24 6 24 -1.9409 -0.2641 
-24 6 25 -2.5612 -0.1328 
-24 6 26 10.2348 -0.0121 
-24 6 27 5.5197 0.1160 
-24 8 1 -11.4306 0.1546 
-24 8 2 -0.4203 -0.0660 
-24 8 3 -11.6476 -0.0387 
-24 8 4 2.2636 -0.1502 
-24 8 5 3.6522 0.1408 
-24 8 6 -7.7753 -0.1652 
-24 8 7 -14.7177 0.3549 
-24 8 8 -5.9390 -0.1038 
-24 8 9 -5.9084 0.2705 
-24 8 10 14.9893 -0.5891 
-24 8 11 -8.2974 0.4111 
-24 8 12 -10.7428 -0.3777 
-24 8 13 -1.0005 0.5522 
-24 8 14 2.9443 -0.3921 
-24 8 15 -3.0147 0.3387 
-24 8 16 11.9221 -0.2653 
-24 8 17 6.8236 0.0790 
-24 8 18 7.9731 0.0698 
-24 8 19 1.6035 0.1421 
-24 8 20 -1.4012 -0.0562 
-24 8 21 -13.0410 -0.1224 
-24 8 22 7.4417 0.1724 
-24 8 23 -8.2343 0.0065 
-24 8 24 -5.2570 -0.3196 
-24 8 25 3.4071 0.2743 
-24 8 26 -0.7584 -0.7524 
-24 10 1 -3.0576 -0.4431 
-24 10 2 11.3183 0.1355 
-24 10 3 -0.0413 0.1474 
-24 10 4 1.3562 0.0898 
-24 10 5 2.1813 -0.1434 
-24 10 6 -3.6651 -0.1810 
-24 10 7 -1.3168 0.1231 
-24 10 8 -22.6916 -0.0810 
-24 10 9 -13.4810 0.0926 
-24 10 10 -5.8314 -0.1115 
-24 10 11 -7.7614 0.2381 
-24 10 12 20.8678 -0.0565 
-24 10 13 9.1734 -0.1833 
-24 10 14 9.4179 -0.3003 
-24 10 15 9.1760 0.3453 
-24 10 16 6.1237 0.0950 
-24 10 17 -4.9431 0.0816 
-24 10 18 4.0992 -0.2690 
-24 10 19 -0.9474 0.2675 
-24 10 20 0.4127 -0.0476 
-24 10 21 -0.0085 -0.0317 
-24 10 22 7.7285 -0.0095 
-24 10 23 -2.8939 -0.1707 
-24 10 24 -0.3685 0.2278 
-24 10 25 0.1280 -0.1735 
-24 10 26 10.5079 0.0649 
-24 12 1 -3.4340 -0.1372 
-24 12 2 -1.3873 0.2172 
-24 12 3 9.8647 0.0495 
-24 12 4 15.2734 -0.0925 
-24 12 5 1.3954 -0.2633 
-24 12 6 -17.4004 -0.0033 
-24 12 7 -9.7659 0.4235 
-24 12 8 -3.3672 -0.0232 
-24 12 9 1.4069 -0.1670 
-24 12 10 6.2802 -0.2055 
-24 12 11 -2.7306 0.2517 
-24 12 12 3.0466 0.0792 
-24 12 13 4.6672 -0.0134 
-24 12 14 -4.4419 -0.2009 
-24 12 15 -3.7990 0.0470 
-24 12 16 5.6277 0.1404 
-24 12 17 -6.5241 -0.0530 
-24 12 18 1.1930 -0.1273 
-24 12 19 1.6577 0.1256 
-24 12 20 -4.6144 0.0795 
-24 12 21 -6.3346 0.1864 
-24 12 22 -6.8000 -0.1067 
-24 12 23 -6.3793 0.1368 
-24 12 24 6.2159 0.1827 
-24 12 25 3.3160 -0.5161 
-24 14 1 2.2413 -0.0014 
-24 14 2 -6.8197 -0.1581 
-24 14 3 -0.2189 0.3308 
-24 14 4 0.2662 -0.2032 
-24 14 5 -8.1491 -0.0483 
-24 14 6 -7.8895 -0.2047 
-24 14 7 -8.1917 0.2515 
-24 14 8 5.2886 -0.2042 
-24 14 9 -1.9976 0.1591 
-24 14 10 5.7709 -0.0563 
-24 14 11 1.1943 0.1183 
-24 14 12 -4.6438 -0.2783 
-24 14 13 -2.1050 0.0485 
-24 14 14 -0.6493 -0.1016 
-24 14 15 2.6404 0.2227 
-24 14 16 11.2964 -0.1446 
-24 14 17 2.6657 0.0988 
-24 14 18 2.7262 0.0209 
-24 14 19 -6.6147 0.1407 
-24 14 20 -1.9088 -0.0365 
-24 14 21 -1.6239 0.2138 
-24 14 22 -0.3782 -0.2088 
-24 14 23 1.7965 0.2270 
-24 14 24 -0.8918 -0.1579 
-24 16 1 -4.3637 0.1720 
-24 16 2 -4.3545 -0.1066 
-24 16 3 10.9506 0.0419 
-24 16 5 -23.7410 0.0535 
-24 16 6 1.8817 -0.0079 
-24 16 7 15.0136 0.0796 
-24 16 8 -6.8010 -0.2147 
-24 16 9 -4.7256 0.1016 
-24 16 10 2.5275 0.0321 
-24 16 11 -0.0735 0.2014 
-24 16 12 -5.4385 -0.2424 
-24 16 13 3.2598 0.1115 
-24 16 14 12.0836 -0.0678 
-24 16 15 -2.5309 0.0126 
-24 16 16 15.1874 -0.3205 
-24 16 17 2.5633 0.0898 
-24 16 18 1.0720 0.1729 
-24 16 19 1.1950 0.0471 
-24 16 20 -2.7147 0.0520 
-24 16 21 3.1978 -0.0071 
-24 16 22 -8.7377 -0.1358 
-24 16 23 -8.1061 0.2847 
-24 18 1 -4.7264 0.0971 
-24 18 2 0.6440 -0.0275 
-24 18 3 7.0329 -0.1550 
-24 18 4 0.5413 0.0337 
-24 18 5 -0.7320 0.0242 
-24 18 6 1.7188 0.0886 
-24 18 7 11.1952 -0.2576 
-24 18 8 -7.4792 0.2766 
-24 18 9 2.9104 -0.0982 
-24 18 10 -2.2372 0.1665 
-24 18 11 3.8547 -0.2393 
-24 18 12 -2.2577 -0.0084 
-24 18 13 -3.4978 0.0106 
-24 18 14 12.9680 0.1984 
-24 18 15 -6.6758 -0.0007 
-24 18 16 -1.1404 -0.1964 
-24 18 17 -1.0147 0.1133 
-24 18 18 -0.5467 0.0698 
-24 18 19 -6.6648 0.0540 
-24 18 20 -4.6240 0.1251 
-24 18 21 4.7613 -0.2545 
-24 18 22 7.4949 0.5247 
-24 20 1 -14.4311 0.1788 
-24 20 2 -7.1340 0.0856 
-24 20 3 13.1431 -0.1935 
-24 20 4 -6.9742 -0.0215 
-24 20 5 -11.9810 0.0541 
-24 20 6 9.3828 0.0563 
-24 20 7 11.1104 -0.2530 
-24 20 8 2.6810 0.0463 
-24 20 9 -6.2916 -0.0351 
-24 20 10 -2.0141 0.1910 
-24 20 11 4.6537 -0.1425 
-24 20 12 -1.2493 0.2909 
-24 20 13 -4.5209 -0.1948 
-24 20 14 -5.3011 0.0626 
-24 20 15 -9.6539 -0.4274 
-24 20 16 -6.4849 0.2797 
-24 20 17 2.9927 -0.0259 
-24 20 18 7.6397 -0.1848 
-24 20 19 -6.1275 0.3918 
-24 20 20 7.1025 -0.5032 
-24 22 1 2.6294 -0.0112 
-24 22 2 -1.6133 0.0836 
-24 22 3 8.7855 -0.0092 
-24 22 4 -2.8423 0.0576 
-24 22 5 -10.6441 0.0710 
-24 22 6 18.0998 -0.0430 
-24 22 7 14.4792 -0.0017 
-24 22 8 0.7473 0.1125 
-24 22 9 -20.8915 0.0009 
-24 22 10 -3.5965 -0.1781 
-24 22 11 -5.8100 -0.1193 
-24 22 12 -23.3284 0.1409 
-24 22 13 0.6015 0.1638 
-24 22 14 -0.1977 0.0234 
-24 22 15 0.3730 -0.1367 
-24 22 16 11.5552 0.1216 
-24 22 17 6.4521 -0.4214 
-24 22 18 9.9099 -0.1164 
-24 24 1 8.3279 -0.0651 
-24 24 2 3.6400 0.0609 
-24 24 3 6.8023 -0.0782 
-24 24 4 -3.9510 0.2464 
-24 24 5 -10.6853 -0.1443 
-24 24 6 -5.1176 0.0215 
-24 24 7 -6.5037 -0.1071 
-24 24 8 0.4080 0.0536 
-24 24 9 6.5003 -0.0150 
-24 24 10 3.5445 0.1671 
-24 24 11 1.0034 -0.0939 
-24 24 12 3.7215 0.0073 
-24 24 13 2.4383 -0.1191 
-24 24 14 -1.6396 0.1221 
-24 24 15 0.8956 -0.0099 
-24 24 16 -2.3760 0.4966 
-24 26 1 6.2424 -0.3207 
-24 26 2 6.0571 -0.1776 
-24 26 3 2.6516 0.0823 
-24 26 4 -10.5099 0.0350 
-24 26 5 5.4474 -0.0408 
-24 26 6 3.2894 0.2566 
-24 26 7 -5.9885 0.0032 
-24 26 8 6.0420 -0.1896 
-24 26 9 9.5669 -0.2182 
-24 26 10 9.3431 0.1174 
-24 26 11 0.0079 0.0944 
-24 26 12 1.1917 -0.2146 
-23 1 1 -4.1395 -1.0000 
-23 1 2 -17.0132 0.9756 
-23 1 3 -7.4332 1.2633 
-23 1 4 1.1566 -0.7897 
-23 1 5 0.5111 0.0305 
-23 1 6 -12.7422 -0.2827 
-23 1 7 2.1394 1.2901 
-23 1 8 16.3877 -1.0254 
-23 1 9 -11.3478 -0.4544 
-23 1 10 -17.0577 -0.3624 
-23 1 11 -5.3133 1.5491 
-23 1 12 -20.0645 0.0713 
-23 1 13 7.6278 -0.6579 
-23 1 14 0.9339 -0.7641 
-23 1 15 -5.3067 0.6217 
-23 1 16 -5.2704 0.3266 
-23 1 17 -4.0721 0.0814 
-23 1 18 13.8088 -0.5417 
-23 1 19 -2.1191 0.3719 
-23 1 20 4.3939 -0.0518 
-23 1 21 -6.4369 0.1767 
-23 1 22 -3.1376 -0.5308 
-23 1 23 1.0524 0.0527 
-23 1 24 9.7206 0.0977 
-23 1 25 18.2931 0.3215 
-23 1 26 -9.1557 -0.2188 
-23 1 27 -5.6839 -0.1613 
-23 1 28 6.0776 -0.2345 
-23 3 1 -8.7159 -0.0166 
-23 3 2 -7.4835 0.7867 
-23 3 3 5.1238 -0.3884 
-23 3 4 -7.0536 0.4669 
-23 3 5 3.1072 -0.8492 
-23 3 6 5.2355 0.0894 
-23 3 7 -19.7646 -0.0675 
-23 3 8 14.2666 0.6145 
-23 3 9 22.1254 -0.0560 
-23 3 10 -12.5102 -0.0020 
-23 3 11 -6.7776 -0.3742 
-23 3 12 -18.0503 0.2424 
-23 3 13 2.9298 -0.2340 
-23 3 14 -8.8734 0.6334 
-23 3 15 -4.1142 -0.1808 
-23 3 16 17.1791 0.1384 
-23 3 17 -5.2331 -0.4684 
-23 3 18 -2.5924 0.0351 
-23 3 19 -4.2688 -0.1117 
-23 3 20 -7.6321 0.3913 
-23 3 21 -16.8388 -0.1781 
-23 3 22 -10.9597 0.1222 
-23 3 23 -12.1178 -0.2336 
-23 3 24 -15.2611 0.0551 
-23 3 25 1.3020 -0.1470 
-23 3 26 8.7489 -0.3850 
-23 3 27 3.1358 -0.0551 
-23 5 1 -11.7401 -0.2732 
-23 5 2 -5.8601 -0.2612 
-23 5 3 4.7559 -0.5180 
-23 5 4 -13.8396 0.3239 
-23 5 5 16.6739 0.2984 
-23 5 6 3.0384 0.6052 
-23 5 7 -27.6720 -0.7798 
-23 5 8 5.6529 0.3780 
-23 5 9 -12.1165 -0.4309 
-23 5 10 -27.1787 0.4269 
-23 5 11 0.1023 -0.6897 
-23 5 12 -16.4833 0.6303 
-23 5 13 1.4999 -0.2233 
-23 5 14 -1.8140 0.3037 
-23 5 15 -28.6744 -0.6253 
-23 5 16 -2.1219 0.3279 
-23 5 17 4.5100 0.0093 
-23 5 18 4.9274 0.4388 
-23 5 19 10.7540 -0.3094 
-23 5 20 11.2210 -0.0210 
-23 5 21 1.2689 -0.2448 
-23 5 22 0.3556 0.2233 
-23 5 23 7.8261 0.0258 
-23 5 24 5.9765 0.0006 
-23 5 25 0.0969 -0.2894 
-23 5 26 2.9227 -0.0081 
-23 5 27 -6.1760 -0.4548 
-23 7 1 5.7653 -0.2313 
-23 7 2 8.0315 0.1245 
-23 7 3 33.8181 -0.0565 
-23 7 4 7.5409 0.1255 
-23 7 5 2.3890 0.0041 
-23 7 6 -0.5794 -0.1391 
-23 7 7 -17.3484 -0.3531 
-23 7 8 5.0494 0.1920 
-23 7 9 -16.9050 0.4046 
-23 7 10 -10.0552 0.2118 
-23 7 11 -13.0927 -0.5603 
-23 7 12 -6.7213 -0.1345 
-23 7 13 -2.9464 0.2776 
-23 7 14 -8.5516 0.3368 
-23 7 15 0.7630 -0.1587 
-23 7 16 3.7791 -0.1701 
-23 7 17 -2.6088 0.0262 
-23 7 18 0.0576 0.0183 
-23 7 19 -4.6692 -0.0255 
-23 7 20 1.8424 0.0208 
-23 7 21 -0.1516 0.0649 
-23 7 22 -9.7086 0.0069 
-23 7 23 0.7741 -0.0287 
-23 7 24 8.0054 -0.2144 
-23 7 25 6.2628 0.0875 
-23 7 26 1.2740 -0.1195 
-23 7 27 -4.5796 -0.0635 
-23 9 1 -1.0998 -0.1490 
-23 9 2 -10.1104 -0.1510 
-23 9 3 10.2845 -0.3316 
-23 9 4 8.1592 0.2031 
-23 9 5 -12.7823 0.0150 
-23 9 6 12.6702 0.2400 
-23 9 7 -1.8081 -0.0055 
-23 9 8 -9.1859 -0.1981 
-23 9 9 -9.7475 -0.3453 
-23 9 10 -10.5857 0.1754 
-23 9 11 -12.2520 0.1249 
-23 9 12 -1.2801 0.0758 
-23 9 13 -0.9431 -0.0269 
-23 9 14 -2.2833 -0.1634 
-23 9 15 -9.5313 -0.0785 
-23 9 16 0.6085 0.0639 
-23 9 17 -0.5834 0.2548 
-23 9 18 -4.4311 -0.0088 
-23 9 19 -9.0770 -0.0646 
-23 9 20 6.1637 -0.1624 
-23 9 21 -1.1413 0.1297 
-23 9 22 -7.8348 0.1040 
-23 9 23 -0.1223 -0.0561 
-23 9 24 -5.7976 -0.1306 
-23 9 25 2.9402 0.0057 
-23 9 26 5.1242 -0.5108 
-23 11 1 -4.1619 -0.2403 
-23 11 2 -5.9189 0.3207 
-23 11 3 13.0089 0.1018 
-23 11 4 12.8349 0.2602 
-23 11 5 -6.9355 -0.5972 
-23 11 6 12.7163 -0.0070 
-23 11 7 -7.0299 -0.0379 
-23 11 8 -2.4435 0.3735 
-23 11 9 15.0569 -0.1741 
-23 11 10 -0.0948 0.1511 
-23 11 11 6.4754 -0.0584 
-23 11 12 -3.0816 0.0009 
-23 11 13 -17.2521 -0.2438 
-23 11 14 1.8740 0.1112 
-23 11 15 -5.1922 0.1473 
-23 11 16 7.9707 0.0782 
-23 11 17 16.3736 -0.3061 
-23 11 18 12.0216 0.0024 
-23 11 19 3.8325 0.0984 
-23 11 20 -10.7929 0.0760 
-23 11 21 -5.2536 -0.0262 
-23 11 22 2.3382 -0.0547 
-23 11 23 0.4394 -0.0144 
-23 11 24 0.3154 -0.0599 
-23 11 25 5.3914 0.0302 
-23 11 26 3.0993 0.3845 
-23 13 1 -6.2221 -0.0142 
-23 13 2 -9.5853 -0.1237 
-23 13 3 -16.9006 -0.0771 
-23 13 4 7.6669 -0.0132 
-23 13 5 -0.4508 0.0126 
-23 13 6 13.4218 0.1367 
-23 13 7 36.1981 0.0909 
-23 13 8 19.3934 -0.0065 
-23 13 9 -15.9835 -0.2938 
-23 13 10 9.1998 -0.1057 
-23 13 11 1.7568 0.2049 
-23 13 12 -4.7678 0.2003 
-23 13 13 5.9492 -0.1079 
-23 13 14 4.1109 -0.1964 
-23 13 15 3.9540 0.1427 
-23 13 16 -2.2708 0.0438 
-23 13 17 -7.9090 -0.0861 
-23 13 18 7.0124 0.0550 
-23 13 19 -0.3813 0.0222 
-23 13 20 -3.9960 0.0650 
-23 13 21 14.8761 0.0079 
-23 13 22 2.8726 0.0603 
-23 13 23 5.5080 0.1406 
-23 13 24 -1.4377 0.3836 
-23 13 25 -13.5798 -0.6159 
-23 15 1 -2.0130 0.1194 
-23 15 2 -7.4118 -0.0039 
-23 15 3 -5.4616 0.2988 
-23 15 4 0.9887 -0.1102 
-23 15 5 2.7295 -0.0628 
-23 15 6 3.7317 -0.3623 
-23 15 7 5.9501 0.1892 
-23 15 8 -0.1618 0.0886 
-23 15 9 -15.0710 0.2995 
-23 15 10 11.3082 -0.1448 
-23 15 11 -2.1155 0.0213 
-23 15 12 -2.5035 -0.0881 
-23 15 13 -0.8177 -0.0741 
-23 15 14 -0.6851 -0.0481 
-23 15 15 -0.3731 0.1028 
-23 15 16 1.8701 -0.0618 
-23 15 17 6.0686 0.0721 
-23 15 18 1.0120 -0.1710 
-23 15 19 -0.0920 0.1871 
-23 15 20 7.4159 0.1769 
-23 15 21 1.1701 -0.0807 
-23 15 22 -0.1087 -0.0036 
-23 15 23 11.3204 0.1385 
-23 15 24 3.6300 -0.1555 
-23 17 1 -0.5893 0.1084 
-23 17 2 3.4366 -0.1494 
-23 17 3 9.0583 -0.1913 
-23 17 4 1.0455 0.0347 
-23 17 5 10.9769 0.2015 
-23 17 6 -2.3699 0.0779 
-23 17 7 2.4532 0.0078 
-23 17 8 -0.9711 -0.1220 
-23 17 9 -11.9583 0.0581 
-23 17 10 -0.8804 -0.0874 
-23 17 11 5.7226 0.0430 
-23 17 12 -5.2195 0.0852 
-23 17 13 3.7789 0.1091 
-23 17 14 14.4911 0.0274 
-23 17 15 -4.5260 -0.1835 
-23 17 16 -2.1398 -0.0281 
-23 17 17 -2.2989 0.0288 
-23 17 18 5.3936 0.0851 
-23 17 19 12.0777 0.0288 
-23 17 20 5.3455 0.0680 
-23 17 21 -3.8345 0.1058 
-23 17 22 1.4609 0.1830 
-23 17 23 6.8145 -0.5745 
-23 19 1 2.0716 0.1898 
-23 19 2 4.9265 0.0520 
-23 19 3 1.8704 0.0388 
-23 19 4 -30.3958 -0.0912 
-23 19 5 -4.1357 -0.0010 
-23 19 6 -6.0881 -0.1763 
-23 19 7 -2.1811 -0.0826 
-23 19 8 -0.2952 0.1645 
-23 19 9 -1.4786 0.1932 
-23 19 10 1.0042 0.1339 
-23 19 11 -7.6907 -0.2358 
-23 19 12 -8.4081 0.0185 
-23 19 13 1.9355 -0.0269 
-23 19 14 6.0137 0.2521 
-23 19 15 -4.0092 -0.3056 
-23 19 16 4.7741 0.1115 
-23 19 17 3.8197 -0.0312 
-23 19 18 4.5730 0.1353 
-23 19 19 2.1253 0.0093 
-23 19 20 5.4438 0.0782 
-23 19 21 -11.7404 0.1309 
-23 21 1 -5.1313 0.1250 
-23 21 2 4.3649 -0.0634 
-23 21 3 9.4816 0.0521 
-23 21 4 -5.0862 -0.1783 
-23 21 5 10.1962 0.2675 
-23 21 6 -13.4235 0.0000 
-23 21 7 0.3338 -0.0179 
-23 21 8 7.7574 -0.1789 
-23 21 9 -2.5880 0.0155 
-23 21 10 17.9908 -0.0067 
-23 21 11 -3.0572 0.2010 
-23 21 12 3.1781 -0.0167 
-23 21 13 -1.5330 0.1790 
-23 21 14 3.7834 -0.1709 
-23 21 15 -0.0270 -0.0260 
-23 21 16 -6.1569 0.0330 
-23 21 17 -2.0539 -0.2420 
-23 21 18 7.8740 0.1237 
-23 21 19 -6.8704 -0.1652 
-23 21 20 5.0704 0.4670 
-23 23 1 -5.5625 0.0677 
-23 23 2 -5.6069 -0.0055 
-23 23 3 13.1438 0.0748 
-23 23 4 -1.4697 -0.0359 
-23 23 5 8.9613 -0.1042 
-23 23 6 -4.6818 0.0483 
-23 23 7 0.3337 -0.0153 
-23 23 8 0.3886 0.1497 
-23 23 9 -16.9290 0.0253 
-23 23 10 0.0476 0.0066 
-23 23 11 -3.0268 -0.0055 
-23 23 12 9.6395 0.0317 
-23 23 13 5.8978 0.0170 
-23 23 14 5.8333 -0.0168 
-23 23 15 -3.4686 0.3533 
-23 23 16 -0.3038 -0.4654 
-23 23 17 -0.7006 0.0505 
-23 23 18 -3.0775 -0.4039 
-23 25 1 -10.4195 -0.0853 
-23 25 2 -8.9490 0.0376 
-23 25 3 -9.3959 -0.0914 
-23 25 4 -14.9619 0.2721 
-23 25 5 9.3354 -0.1587 
-23 25 6 3.6466 0.1789 
-23 25 7 1.4754 -0.1213 
-23 25 8 -2.2525 -0.1284 
-23 25 9 0.0607 -0.2029 
-23 25 10 11.5331 0.2164 
-23 25 11 -10.7916 0.1630 
-23 25 12 -9.0924 0.0461 
-23 25 13 -8.0325 -0.3584 
-23 25 14 -7.3437 0.4132 
-23 25 15 -2.5267 -0.3006 
-23 27 1 4.9633 -0.1457 
-23 27 2 -2.7692 0.0183 
-23 27 3 -6.2449 -0.0295 
-23 27 4 -6.1221 -0.0368 
-23 27 5 10.0291 -0.3058 
-23 27 6 4.7853 0.0480 
-23 27 7 3.6718 0.3856 
-23 27 8 -4.2882 0.1390 
-23 27 9 -14.6461 -0.2415 
-23 27 10 0.9433 -0.2890 
-23 27 11 -6.6445 0.1933 
-22 0 1 -4.7881 2.7726 
-22 0 2 -10.6800 -2.5745 
-22 0 3 -21.9573 3.6587 
-22 0 4 15.1348 -2.0519 
-22 0 5 -16.8574 1.7713 
-22 0 6 -10.0713 0.1508 
-22 0 7 -30.8468 1.2207 
-22 0 8 -24.9929 -3.0053 
-22 0 9 5.5505 1.1647 
-22 0 10 17.2321 0.0635 
-22 0 11 -11.4845 1.5356 
-22 0 12 -1.9509 -2.9544 
-22 0 13 9.0062 -0.3037 
-22 0 14 -8.2428 0.8508 
-22 0 15 -17.0304 2.5277 
-22 0 16 -11.3919 0.1464 
-22 0 17 2.0825 -0.8710 
-22 0 18 14.7601 -2.0348 
-22 0 19 -4.6149 0.0896 
-22 0 20 17.3344 0.7395 
-22 0 21 -25.2329 1.7207 
-22 0 22 1.3374 -0.1025 
-22 0 23 13.7883 -0.3574 
-22 0 24 -10.8606 -0.9074 
-22 0 25 -12.3818 0.3811 
-22 0 26 4.6336 -0.1695 
-22 0 27 -1.1766 0.1327 
-22 0 28 -8.8606 0.1579 
-22 2 1 -12.4743 0.2512 
-22 2 2 -5.4886 0.4584 
-22 2 3 -3.8128 0.7484 
-22 2 4 12.5020 -2.1565 
-22 2 5 -20.9446 0.0627 
-22 2 6 7.9344 0.4303 
-22 2 7 -1.8174 1.3739 
-22 2 8 22.8141 -1.2877 
-22 2 9 -2.8246 -0.3323 
-22 2 10 -17.2517 -0.1005 
-22 2 11 -9.1736 1.0782 
-22 2 12 -1.2717 -0.4684 
-22 2 13 23.7076 0.2455 
-22 2 14 -3.0258 -0.1696 
-22 2 15 -12.8149 -0.0385 
-22 2 16 5.4818 -0.5219 
-22 2 17 6.6132 0.2975 
-22 2 18 10.2685 0.6034 
-22 2 19 -11.7688 0.1567 
-22 2 20 8.8330 -0.5374 
-22 2 21 -12.3998 -0.2453 
-22 2 22 -5.9722 -0.2002 
-22 2 23 2.1313 0.0176 
-22 2 24 4.2409 0.2284 
-22 2 25 4.6693 0.3328 
-22 2 26 8.9331 -0.0646 
-22 2 27 -1.9839 -0.5272 
-22 2 28 0.9088 -0.0750 
-22 4 1 -18.8921 -0.7240 
-22 4 2 21.4502 0.0077 
-22 4 3 1.7951 0.2184 
-22 4 4 -2.2115 0.2475 
-22 4 5 -8.5359 0.0237 
-22 4 6 27.5283 -0.1093 
-22 4 7 -27.1719 -0.0957 
-22 4 8 -1.4922 0.0048 
-22 4 9 5.9853 0.1071 
-22 4 10 -18.8195 0.1667 
-22 4 11 2.5406 -0.2390 
-22 4 12 -14.0155 -0.2855 
-22 4 13 -10.4847 -0.2211 
-22 4 14 -8.4291 0.7712 
-22 4 15 -8.9267 0.0110 
-22 4 16 -2.1828 -0.0755 
-22 4 17 8.2537 -0.3560 
-22 4 18 15.8037 0.2356 
-22 4 19 0.1996 -0.3061 
-22 4 20 11.9974 0.0539 
-22 4 21 -14.2511 0.0487 
-22 4 22 1.6037 0.5071 
-22 4 23 11.0306 -0.3374 
-22 4 24 -3.8814 -0.2602 
-22 4 25 4.6225 -0.0714 
-22 4 26 8.4093 -0.0453 
-22 4 27 -1.2000 0.0071 
-22 6 1 -12.2534 0.1193 
-22 6 2 20.2747 -0.3605 
-22 6 3 -14.5988 -0.2224 
-22 6 4 14.5410 -0.0343 
-22 6 5 18.3594 0.1774 
-22 6 6 10.4765 -0.2483 
-22 6 7 -15.8492 0.1527 
-22 6 8 4.0898 -0.0901 
-22 6 9 -23.5308 0.2414 
-22 6 10 -6.5641 -0.1863 
-22 6 11 8.1210 -0.0026 
-22 6 12 -6.7139 0.1501 
-22 6 13 -7.6348 0.0130 
-22 6 14 0.5944 -0.0243 
-22 6 15 7.6934 -0.3319 
-22 6 16 3.1932 -0.1037 
-22 6 17 1.6164 0.2394 
-22 6 18 7.8385 0.3423 
-22 6 19 4.1380 0.0423 
-22 6 20 12.8872 -0.3394 
-22 6 21 -7.8309 -0.1738 
-22 6 22 -10.6961 -0.0557 
-22 6 23 5.5827 0.2288 
-22 6 24 -3.2829 -0.1304 
-22 6 25 -11.5842 0.0042 
-22 6 26 6.2900 -0.0393 
-22 6 27 -3.9895 -0.3258 
-22 8 1 -7.3624 0.0229 
-22 8 2 -12.5563 -0.1989 
-22 8 3 -20.7875 -0.0074 
-22 8 4 24.9978 0.2311 
-22 8 5 -3.4874 0.1916 
-22 8 6 -0.1483 -0.3636 
-22 8 7 -10.2789 -0.0392 
-22 8 8 2.3601 -0.1494 
-22 8 9 -9.0036 0.3565 
-22 8 10 4.4686 -0.2985 
-22 8 11 -1.9086 0.0238 
-22 8 12 -3.9530 -0.2780 
-22 8 13 -1.3140 0.4381 
-22 8 14 1.5607 -0.1266 
-22 8 15 -15.4936 0.2120 
-22 8 16 2.9432 -0.1035 
-22 8 17 5.2515 -0.0008 
-22 8 18 10.9388 -0.2140 
-22 8 19 5.7792 0.0065 
-22 8 20 -8.3942 -0.0327 
-22 8 21 -8.8187 0.2014 
-22 8 22 -9.3479 -0.1621 
-22 8 23 -8.2224 0.2351 
-22 8 24 0.3673 -0.2657 
-22 8 25 0.4191 0.0981 
-22 8 26 4.2001 -0.4190 
-22 8 27 -4.1689 0.2531 
-22 10 1 -9.8282 -0.0195 
-22 10 2 22.4028 0.0502 
-22 10 3 4.7604 -0.1916 
-22 10 4 6.8040 0.0529 
-22 10 5 -7.2275 -0.0830 
-22 10 6 11.8443 0.2240 
-22 10 7 2.0406 -0.1026 
-22 10 8 2.1755 0.0349 
-22 10 9 -3.4866 -0.1698 
-22 10 10 -7.2363 0.1532 
-22 10 11 -7.8201 -0.0278 
-22 10 12 -9.3376 0.1875 
-22 10 13 -5.0393 -0.0510 
-22 10 14 15.9480 -0.2876 
-22 10 15 7.9467 -0.0321 
-22 10 16 2.9522 0.0982 
-22 10 17 -13.5598 0.1894 
-22 10 18 1.9733 -0.2129 
-22 10 19 1.7358 0.0472 
-22 10 20 2.8388 -0.0328 
-22 10 21 -4.3473 0.0942 
-22 10 22 -2.0418 -0.2130 
-22 10 23 8.3792 -0.0037 
-22 10 24 -3.0744 0.0455 
-22 10 25 -6.8083 -0.2127 
-22 10 26 4.6567 0.2183 
-22 12 1 -8.5200 -0.1236 
-22 12 2 -13.0458 0.1789 
-22 12 3 -2.6152 -0.0023 
-22 12 4 8.0647 0.2065 
-22 12 5 0.4595 -0.3086 
-22 12 6 12.6628 0.1376 
-22 12 7 -16.0792 -0.1102 
-22 12 8 -20.6549 0.1624 
-22 12 9 -25.8933 -0.2362 
-22 12 10 -13.5118 0.0862 
-22 12 11 -1.8397 -0.1068 
-22 12 12 4.9251 0.0772 
-22 12 13 22.2156 0.0026 
-22 12 14 4.2459 0.0441 
-22 12 15 -9.9715 0.0948 
-22 12 16 -3.1670 0.0034 
-22 12 17 -13.7318 -0.0553 
-22 12 18 12.9312 -0.1354 
-22 12 19 7.5024 0.0004 
-22 12 20 -6.7603 0.1025 
-22 12 21 -6.2793 0.0106 
-22 12 22 -7.4889 -0.0486 
-22 12 23 -1.8587 -0.1589 
-22 12 24 -5.8334 0.0427 
-22 12 25 1.7464 0.0365 
-22 12 26 2.8782 -0.4168 
-22 14 1 -2.2422 0.1241 
-22 14 2 -4.5305 -0.1164 
-22 14 3 13.0372 -0.0979 
-22 14 4 13.4371 -0.0990 
-22 14 5 3.6438 0.1667 
-22 14 6 5.9933 -0.0551 
-22 14 7 -26.3253 0.1381 
-22 14 8 -2.2038 -0.0728 
-22 14 9 -11.9849 0.0060 
-22 14 10 -11.5207 -0.0885 
-22 14 11 2.3560 0.2454 
-22 14 12 -8.0314 -0.0689 
-22 14 13 8.2686 -0.0457 
-22 14 14 8.5499 -0.1213 
-22 14 15 -6.2073 0.0955 
-22 14 16 4.4851 -0.0941 
-22 14 17 -1.9000 0.1853 
-22 14 18 2.7175 -0.1216 
-22 14 19 -12.2385 0.1226 
-22 14 20 -14.1042 -0.1399 
-22 14 21 -6.3126 0.0828 
-22 14 22 0.1119 0.0704 
-22 14 23 -4.0638 0.0015 
-22 14 24 -4.8242 0.2594 
-22 14 25 12.2004 0.3638 
-22 16 1 -11.9088 0.0169 
-22 16 2 8.6291 0.0632 
-22 16 3 -1.1966 -0.0040 
-22 16 4 1.5003 0.1360 
-22 16 5 12.5799 -0.0371 
-22 16 6 13.9834 -0.1260 
-22 16 7 -4.0659 -0.0023 
-22 16 8 3.6367 0.1064 
-22 16 9 5.0198 0.2525 
-22 16 10 -4.5317 -0.3411 
-22 16 11 6.2971 0.1348 
-22 16 12 -7.8246 -0.1450 
-22 16 13 -4.4468 0.2625 
-22 16 14 7.3683 -0.1498 
-22 16 15 -3.9352 0.1265 
-22 16 16 6.3104 -0.0940 
-22 16 17 -0.4474 0.0230 
-22 16 18 -0.5678 -0.0318 
-22 16 19 -2.6194 0.1936 
-22 16 20 -7.7631 -0.1646 
-22 16 21 -9.3453 0.2870 
-22 16 22 -2.3566 -0.0881 
-22 16 23 -3.6380 -0.0908 
-22 16 24 -8.8196 0.0003 
-22 18 1 -11.9182 0.0019 
-22 18 2 12.6966 -0.0564 
-22 18 3 -9.4898 -0.1874 
-22 18 4 -0.1672 0.0995 
-22 18 5 4.0555 0.0023 
-22 18 6 -3.8843 0.1163 
-22 18 7 -2.6054 -0.2831 
-22 18 8 5.4894 0.2005 
-22 18 9 -3.7435 0.0124 
-22 18 10 -15.4712 0.0907 
-22 18 11 11.4180 -0.1453 
-22 18 12 -9.1721 0.0714 
-22 18 13 -7.1004 0.0353 
-22 18 14 -2.9417 -0.0694 
-22 18 15 1.4008 0.0743 
-22 18 16 6.3752 -0.0801 
-22 18 17 7.6751 0.0485 
-22 18 18 5.2302 -0.0117 
-22 18 19 -2.4053 0.0914 
-22 18 20 4.3407 0.1402 
-22 18 21 3.5606 0.0620 
-22 18 22 3.7997 -0.0415 
-22 20 1 -2.5462 -0.0229 
-22 20 2 -10.4870 0.0296 
-22 20 3 -5.2655 0.1388 
-22 20 4 -0.9533 -0.0120 
-22 20 5 -10.2567 -0.0516 
-22 20 6 2.5832 -0.0861 
-22 20 7 4.4093 -0.0115 
-22 20 8 0.9334 0.0363 
-22 20 9 -11.0822 0.0931 
-22 20 10 1.3633 0.0335 
-22 20 11 6.2839 -0.1543 
-22 20 12 -1.0499 0.1607 
-22 20 13 7.9786 -0.0094 
-22 20 14 2.9872 0.0673 
-22 20 15 19.0339 -0.1195 
-22 20 16 1.0641 0.0400 
-22 20 17 -7.5882 0.0134 
-22 20 18 -0.4532 -0.0094 
-22 20 19 4.8669 0.0830 
-22 20 20 14.2188 0.1992 
-22 20 21 -3.4652 0.0697 
-22 22 1 -4.4870 0.0242 
-22 22 2 -8.0962 -0.0219 
-22 22 3 4.2404 -0.0204 
-22 22 4 8.6673 -0.1142 
-22 22 5 -10.7811 0.0154 
-22 22 6 12.2612 -0.0438 
-22 22 7 -0.1391 0.1532 
-22 22 8 -18.2207 -0.1431 
-22 22 9 -10.8578 0.0335 
-22 22 10 19.2384 0.0373 
-22 22 11 5.6113 0.1491 
-22 22 12 -8.4574 -0.0470 
-22 22 13 7.8629 0.0798 
-22 22 14 -2.3774 -0.1237 
-22 22 15 -7.8041 0.1252 
-22 22 16 -6.3765 -0.1231 
-22 22 17 -11.6817 -0.0373 
-22 22 18 2.1937 -0.1230 
-22 22 19 6.5514 -0.0272 
-22 24 1 -1.7369 0.0926 
-22 24 2 -3.5296 0.0805 
-22 24 3 -13.1633 0.0337 
-22 24 4 -1.1621 -0.0409 
-22 24 5 -11.6042 -0.0689 
-22 24 6 1.4882 0.0638 
-22 24 7 0.6573 -0.1075 
-22 24 8 -6.6500 0.0166 
-22 24 9 2.0155 -0.0904 
-22 24 10 -0.3895 0.0499 
-22 24 11 2.8198 0.1025 
-22 24 12 1.1052 0.0337 
-22 24 13 3.8954 -0.0092 
-22 24 14 11.2093 0.2046 
-22 24 15 2.7473 -0.0183 
-22 24 16 -1.3054 -0.0104 
-22 24 17 -3.2717 -0.5543 
-22 26 1 -6.1503 0.0401 
-22 26 2 0.8047 0.0102 
-22 26 3 15.3962 0.0827 
-22 26 4 17.9639 0.0010 
-22 26 5 1.2972 -0.1641 
-22 26 6 9.6201 0.1077 
-22 26 7 1.7293 0.0061 
-22 26 8 -0.7608 0.1273 
-22 26 9 5.5604 -0.2443 
-22 26 10 -1.7178 -0.1552 
-22 26 11 1.2723 0.2306 
-22 26 12 -5.1429 -0.1897 
-22 26 13 0.0832 0.1792 
-22 26 14 3.6107 0.0254 
-22 28 1 -0.8287 0.1799 
-22 28 2 -9.0088 -0.3437 
-22 28 3 0.6417 0.0201 
-22 28 4 -3.5546 0.1645 
-22 28 5 -13.6036 -0.0137 
-22 28 6 0.5125 -0.0750 
-22 28 7 -0.3245 -0.2777 
-22 28 8 -6.9329 0.1644 
-22 28 9 13.0559 -0.2778 
-21 1 1 0.7317 -0.9082 
-21 1 2 6.2690 0.1042 
-21 1 3 -9.4863 -0.1244 
-21 1 4 -5.3083 -1.2663 
-21 1 5 7.0590 0.6784 
-21 1 6 7.1081 -0.3302 
-21 1 7 -3.4200 1.0635 
-21 1 8 1.9995 -0.5598 
-21 1 9 0.7331 0.4179 
-21 1 10 19.6274 -0.6551 
-21 1 11 -8.6028 0.9835 
-21 1 12 -14.0329 -0.9035 
-21 1 13 -5.3800 0.2279 
-21 1 14 -8.2291 -0.8332 
-21 1 15 4.3098 1.1714 
-21 1 16 -2.3370 -0.1237 
-21 1 17 6.6480 -0.0773 
-21 1 18 -2.9942 -0.6856 
-21 1 19 -0.6074 0.6317 
-21 1 20 3.0561 0.4087 
-21 1 21 -4.1694 0.0507 
-21 1 22 5.6778 -0.8875 
-21 1 23 2.5928 0.1720 
-21 1 24 -16.1055 0.3471 
-21 1 25 -2.0717 0.4154 
-21 1 26 0.6354 -0.4013 
-21 1 27 7.8534 -0.1093 
-21 1 28 9.1851 0.3593 
-21 3 1 -13.3587 -0.1766 
-21 3 2 -10.0003 0.7236 
-21 3 3 16.5589 -0.3614 
-21 3 4 -1.6629 0.4981 
-21 3 5 -15.0203 -0.2587 
-21 3 6 24.2700 0.4532 
-21 3 7 -18.5949 -0.6421 
-21 3 8 -4.0468 -0.1276 
-21 3 9 10.1868 0.0070 
-21 3 10 -6.1213 0.0083 
-21 3 11 11.4034 0.0760 
-21 3 12 -0.0169 0.0238 
-21 3 13 -5.8289 -0.0136 
-21 3 14 6.6026 -0.1930 
-21 3 15 3.4964 -0.1335 
-21 3 16 -4.7643 0.3598 
-21 3 17 0.8493 -0.0024 
-21 3 18 5.5789 0.1335 
-21 3 19 14.9683 -0.4132 
-21 3 20 2.8897 0.1726 
-21 3 21 -0.9949 -0.3621 
-21 3 22 6.2572 0.2856 
-21 3 23 -1.2591 -0.2336 
-21 3 24 -1.6707 0.1100 
-21 3 25 15.4607 0.1804 
-21 3 26 3.8979 -0.2755 
-21 3 27 -14.2534 0.1000 
-21 3 28 -6.6817 -0.0898 
-21 5 1 11.8107 -0.1217 
-21 5 2 -16.0888 -0.2369 
-21 5 3 18.5519 0.2298 
-21 5 4 22.7570 0.0935 
-21 5 5 10.3597 -0.5914 
-21 5 6 -1.3022 0.1948 
-21 5 7 -18.5880 -0.1238 
-21 5 8 9.4399 0.7390 
-21 5 9 -2.6134 -0.2448 
-21 5 10 -9.0655 0.0938 
-21 5 11 9.4054 -0.6295 
-21 5 12 -18.9380 0.3623 
-21 5 13 -2.5196 0.1011 
-21 5 14 17.0659 0.4504 
-21 5 15 -2.1244 -0.5483 
-21 5 16 -2.1123 -0.0215 
-21 5 17 -3.4532 -0.1980 
-21 5 18 3.6552 0.4601 
-21 5 19 17.8248 -0.2449 
-21 5 20 9.6724 0.0139 
-21 5 21 8.8527 -0.0976 
-21 5 22 4.3047 0.3060 
-21 5 23 -19.0391 -0.3898 
-21 5 24 -12.1217 0.0356 
-21 5 25 2.5685 0.0198 
-21 5 26 6.7484 0.1974 
-21 5 27 -3.7722 -0.1385 
-21 5 28 -3.7193 0.4156 
-21 7 1 5.4018 0.2565 
-21 7 2 -20.0844 -0.5109 
-21 7 3 24.8631 0.1388 
-21 7 4 3.9978 0.2316 
-21 7 5 -6.9914 0.1190 
-21 7 6 10.8147 -0.2716 
-21 7 7 18.5985 -0.1682 
-21 7 8 7.9667 -0.1811 
-21 7 9 -13.0523 0.0271 
-21 7 10 -4.6531 0.2558 
-21 7 11 -8.1842 0.0431 
-21 7 12 -9.1323 0.0230 
-21 7 13 -6.4939 -0.3146 
-21 7 14 -0.7067 0.0888 
-21 7 15 -0.2988 -0.1111 
-21 7 16 -5.9591 -0.0058 
-21 7 17 -11.0725 0.2603 
-21 7 18 -0.9815 0.2325 
-21 7 19 -0.0419 -0.2387 
-21 7 20 0.5275 -0.3754 
-21 7 21 15.7515 0.1493 
-21 7 22 -0.4792 0.1100 
-21 7 23 5.6858 0.0487 
-21 7 24 1.0065 -0.1382 
-21 7 25 -8.5311 -0.0859 
-21 7 26 3.7713 0.0764 
-21 7 27 -9.0101 -0.4094 
-21 9 1 13.8002 0.1842 
-21 9 2 -13.1646 0.0356 
-21 9 3 13.5078 -0.0684 
-21 9 4 -5.6374 -0.0922 
-21 9 5 -1.3268 -0.0193 
-21 9 6 28.6106 0.0252 
-21 9 7 -1.0615 0.2394 
-21 9 8 -44.6975 0.1441 
-21 9 9 -20.6341 -0.2731 
-21 9 10 -1.6473 -0.0177 
-21 9 11 -0.2794 -0.1986 
-21 9 12 -4.9953 0.2045 
-21 9 13 4.4437 -0.0315 
-21 9 14 5.8696 0.3418 
-21 9 15 -12.9928 -0.0096 
-21 9 16 -1.9016 -0.1676 
-21 9 17 -3.7764 -0.2283 
-21 9 18 -2.7933 -0.0187 
-21 9 19 6.6826 0.0850 
-21 9 20 8.5143 0.0313 
-21 9 21 4.9467 -0.0040 
-21 9 22 -11.0963 -0.0825 
-21 9 23 10.0073 0.0417 
-21 9 24 -11.2445 -0.0573 
-21 9 25 -12.6222 0.0861 
-21 9 26 5.1001 0.1122 
-21 9 27 -5.8987 -0.3528 
-21 11 1 0.5905 0.1345 
-21 11 2 3.9475 0.1263 
-21 11 3 2.5235 -0.3121 
-21 11 4 0.2397 0.1948 
-21 11 5 19.7841 0.0106 
-21 11 6 4.9992 0.3365 
-21 11 7 -5.8287 -0.4925 
-21 11 8 2.3916 0.1278 
-21 11 9 2.5486 -0.3229 
-21 11 10 -2.2331 0.4818 
-21 11 11 15.1226 -0.0335 
-21 11 12 -0.8797 0.2495 
-21 11 13 -3.0252 -0.5359 
-21 11 14 6.8164 0.0747 
-21 11 15 -19.3066 -0.1509 
-21 11 16 -9.5756 0.4352 
-21 11 17 -1.4264 -0.1510 
-21 11 18 -15.5088 0.0163 
-21 11 19 -2.0915 -0.0805 
-21 11 20 -6.7978 0.1680 
-21 11 21 12.1167 -0.1763 
-21 11 22 0.3505 0.0817 
-21 11 23 -5.1008 -0.1451 
-21 11 24 -0.3141 -0.2068 
-21 11 25 6.4065 0.0460 
-21 11 26 5.0995 -0.8224 
-21 13 1 5.8474 0.1819 
-21 13 2 -3.9466 0.2013 
-21 13 3 -8.3413 -0.1503 
-21 13 4 2.2200 -0.1433 
-21 13 5 6.8797 -0.0855 
-21 13 6 -9.4039 0.2462 
-21 13 7 9.8376 -0.0316 
-21 13 8 46.8994 0.1866 
-21 13 9 -0.3954 -0.2414 
-21 13 10 2.9280 -0.0771 
-21 13 11 6.1419 -0.2296 
-21 13 12 -22.5885 0.1774 
-21 13 13 -13.8838 0.0775 
-21 13 14 -8.7642 0.2229 
-21 13 15 -11.4605 -0.1974 
-21 13 16 5.2636 0.2014 
-21 13 17 3.9015 -0.3070 
-21 13 18 1.6398 0.0592 
-21 13 19 11.3622 0.0131 
-21 13 20 -5.2138 0.1952 
-21 13 21 10.2305 -0.1250 
-21 13 22 -2.8824 -0.0501 
-21 13 23 -5.0563 -0.3122 
-21 13 24 1.0853 0.5379 
-21 13 25 -6.4779 0.1127 
-21 15 1 -4.5760 -0.0755 
-21 15 2 1.8592 -0.1441 
-21 15 3 1.3948 0.0488 
-21 15 4 -4.1148 0.0281 
-21 15 5 13.9345 0.2436 
-21 15 6 9.9462 -0.0752 
-21 15 7 -3.3817 -0.0974 
-21 15 8 16.4048 -0.1932 
-21 15 9 -19.7595 0.2747 
-21 15 10 -9.6056 0.0491 
-21 15 11 0.2860 0.0080 
-21 15 12 -2.1102 -0.0131 
-21 15 13 5.4522 0.0287 
-21 15 14 0.9160 -0.1548 
-21 15 15 -11.6117 -0.1324 
-21 15 16 2.3548 0.1689 
-21 15 17 -6.4750 0.1777 
-21 15 18 -15.0383 0.0339 
-21 15 19 5.2043 -0.1125 
-21 15 20 16.9518 -0.1318 
-21 15 21 3.5012 0.1229 
-21 15 22 -0.5151 0.0510 
-21 15 23 -3.0936 -0.0141 
-21 15 24 8.6590 0.1478 
-21 17 1 -9.6615 -0.0966 
-21 17 2 6.8027 0.0823 
-21 17 3 -10.7313 -0.1072 
-21 17 4 -21.2317 0.0959 
-21 17 5 -6.8329 -0.0883 
-21 17 6 0.9751 -0.0191 
-21 17 7 -1.0473 -0.0566 
-21 17 8 2.8629 0.1777 
-21 17 9 -3.5449 0.1427 
-21 17 10 -2.0391 -0.2420 
-21 17 11 9.6613 -0.2759 
-21 17 12 -0.5927 0.0523 
-21 17 13 -2.6953 0.2570 
-21 17 14 -9.7447 0.0173 
-21 17 15 -17.0602 -0.0579 
-21 17 16 -0.2375 -0.0984 
-21 17 17 -5.9834 0.0327 
-21 17 18 5.9180 0.1176 
-21 17 19 -0.4805 -0.1165 
-21 17 20 2.9730 0.0709 
-21 17 21 4.2565 0.3054 
-21 17 22 3.1185 0.0027 
-21 17 23 1.3598 0.3029 
-21 19 1 -13.5737 -0.1479 
-21 19 2 -0.2324 -0.2136 
-21 19 3 7.9343 0.0379 
-21 19 4 15.0649 0.2131 
-21 19 5 15.0848 0.0771 
-21 19 6 4.2709 -0.1245 
-21 19 7 -10.4812 -0.1712 
-21 19 8 -4.3079 -0.0075 
-21 19 9 4.9742 0.1512 
-21 19 10 -12.6778 0.0600 
-21 19 11 -7.4971 -0.0219 
-21 19 12 3.4789 0.0358 
-21 19 13 -3.1271 -0.1640 
-21 19 14 -5.3670 0.0168 
-21 19 15 -3.8701 -0.1141 
-21 19 16 -1.7383 0.1415 
-21 19 17 -1.7999 0.0056 
-21 19 18 11.5331 0.0223 
-21 19 19 -8.8759 -0.0987 
-21 19 20 -6.3234 0.2686 
-21 19 21 1.4529 0.0420 
-21 19 22 9.1515 -0.2728 
-21 21 1 -5.8150 0.0640 
-21 21 2 7.6949 0.0187 
-21 21 3 5.4973 0.1074 
-21 21 4 7.0348 -0.1252 
-21 21 5 -3.2033 -0.1732 
-21 21 6 0.5984 -0.0489 
-21 21 7 3.3611 0.2734 
-21 21 8 -9.4957 -0.0167 
-21 21 9 -8.7467 0.1207 
-21 21 10 -4.7750 -0.3286 
-21 21 11 -11.3301 0.2226 
-21 21 12 -4.3477 -0.2207 
-21 21 13 -33.8119 0.2677 
-21 21 14 -1.2639 -0.2082 
-21 21 15 3.3433 0.1747 
-21 21 16 2.3328 -0.0710 
-21 21 17 6.8354 -0.1391 
-21 21 18 12.0143 0.0132 
-21 21 19 -3.7634 -0.0550 
-21 21 20 -0.1723 0.5230 
-21 23 1 -4.9062 0.0170 
-21 23 2 -5.7701 -0.0543 
-21 23 3 -0.9484 0.0197 
-21 23 4 6.0951 0.0231 
-21 23 5 -5.3841 -0.0762 
-21 23 6 -2.2257 -0.0743 
-21 23 7 -1.9063 0.0127 
-21 23 8 3.3851 -0.1235 
-21 23 9 -1.8849 -0.0794 
-21 23 10 2.2970 0.0568 
-21 23 11 -7.4580 0.2467 
-21 23 12 -2.6960 -0.0311 
-21 23 13 -6.1838 -0.0063 
-21 23 14 5.7332 -0.2785 
-21 23 15 -9.0608 0.4155 
-21 23 16 1.8400 -0.3029 
-21 23 17 0.7903 0.0935 
-21 23 18 1.1964 -0.2110 
-21 25 1 -7.4316 -0.0241 
-21 25 2 3.1961 0.2067 
-21 25 3 -0.9028 -0.0867 
-21 25 4 4.9588 -0.0352 
-21 25 5 -3.3388 -0.0649 
-21 25 6 -1.0088 0.0340 
-21 25 7 -3.2346 0.1311 
-21 25 8 1.6198 0.0693 
-21 25 9 -7.4428 -0.1765 
-21 25 10 -10.6318 0.0071 
-21 25 11 -5.1514 -0.2048 
-21 25 12 12.3767 0.0916 
-21 25 13 9.8536 -0.0737 
-21 25 14 1.0843 0.3234 
-21 25 15 -6.1926 0.2638 
-21 25 16 0.7594 -0.3462 
-21 27 1 10.0080 -0.2022 
-21 27 2 -1.0220 0.1339 
-21 27 3 -5.4564 -0.1105 
-21 27 4 -0.6976 -0.0534 
-21 27 5 0.0821 0.2662 
-21 27 6 -9.7329 -0.1426 
-21 27 7 -3.6030 -0.1513 
-21 27 8 11.9498 -0.0550 
-21 27 9 -5.1855 0.0490 
-21 27 10 -10.6492 0.1495 
-21 27 11 2.6953 -0.2800 
-21 27 12 -3.9255 0.1482 
-21 27 13 -2.4479 -0.2223 
-21 29 2 -3.9013 -0.2255 
-21 29 3 1.5239 -0.1138 
-21 29 4 -4.5714 -0.0683 
-21 29 5 3.7139 0.5333 
-21 29 6 -8.1652 0.0901 
-20 0 1 12.8687 -2.1114 
-20 0 2 27.4148 -4.0957 
-20 0 3 -14.5726 0.1061 
-20 0 4 37.0940 -1.6123 
-20 0 5 13.0523 2.4798 
-20 0 6 0.9508 1.7616 
-20 0 7 17.0743 2.2859 
-20 0 8 13.9159 -3.7684 
-20 0 9 3.1711 -1.8203 
-20 0 10 35.5314 -0.6101 
-20 0 11 -8.5019 4.2337 
-20 0 12 17.6403 0.1870 
-20 0 13 -1.7688 -0.3367 
-20 0 14 9.7616 -1.4915 
-20 0 15 -6.9299 1.7102 
-20 0 16 -13.8688 -1.1915 
-20 0 17 0.4176 -0.0799 
-20 0 18 -8.5652 -0.9570 
-20 0 19 0.7089 1.9361 
-20 0 20 15.9730 -0.3452 
-20 0 21 -31.9891 0.1100 
-20 0 22 -2.2310 -0.7480 
-20 0 23 -14.5341 1.2788 
-20 0 24 -15.2116 -0.0631 
-20 0 25 8.4291 -0.3987 
-20 0 26 5.0645 -1.2313 
-20 0 27 5.8746 0.5456 
-20 0 28 11.2135 0.4193 
-20 2 1 -3.0952 -0.4928 
-20 2 2 -7.4764 1.4593 
-20 2 3 -3.7933 0.9641 
-20 2 4 17.1925 -0.5585 
-20 2 5 -14.3506 -1.0263 
-20 2 6 -0.0744 -0.9801 
-20 2 7 14.9956 1.2120 
-20 2 8 25.5786 0.3714 
-20 2 9 -20.0616 0.2907 
-20 2 10 5.6065 -0.2628 
-20 2 11 -3.5745 0.5483 
-20 2 12 -3.0955 -1.1825 
-20 2 13 -19.0876 -0.4529 
-20 2 14 -0.4841 -0.2884 
-20 2 15 -6.0825 1.5332 
-20 2 16 6.3955 -0.3604 
-20 2 17 -1.4783 -0.3591 
-20 2 18 -26.4171 -0.5031 
-20 2 19 -9.4861 0.8323 
-20 2 20 28.3954 -0.0420 
-20 2 21 12.3505 -0.1269 
-20 2 22 8.1345 -0.6191 
-20 2 23 1.8915 0.4336 
-20 2 24 3.5958 -0.1903 
-20 2 25 -4.3770 0.3702 
-20 2 26 -3.7774 0.1219 
-20 2 27 -3.3887 -0.1061 
-20 2 28 12.9909 0.5380 
-20 4 1 -15.4719 -0.0367 
-20 4 2 19.8956 -0.2803 
-20 4 3 2.6758 -0.3620 
-20 4 4 -4.2533 0.6353 
-20 4 5 -4.4092 0.1014 
-20 4 6 12.6869 0.0729 
-20 4 7 -29.7333 0.0823 
-20 4 8 3.0762 0.0002 
-20 4 9 -0.7184 -0.7489 
-20 4 10 -5.1731 -0.2579 
-20 4 11 7.3857 0.5435 
-20 4 12 12.1366 0.6602 
-20 4 13 -6.2381 -0.0261 
-20 4 14 15.9247 -0.4352 
-20 4 15 0.5749 -0.1109 
-20 4 16 5.3302 0.0879 
-20 4 17 12.2496 -0.0414 
-20 4 18 -16.2154 0.1870 
-20 4 19 -22.6612 -0.0240 
-20 4 20 8.5466 -0.1972 
-20 4 21 -0.6884 -0.3136 
-20 4 22 8.0661 0.3421 
-20 4 23 7.6079 0.0352 
-20 4 24 -2.0300 -0.0885 
-20 4 25 -11.5060 -0.1244 
-20 4 26 -6.5280 0.0443 
-20 4 27 -3.6211 0.0739 
-20 4 28 5.6443 0.2808 
-20 6 1 19.4749 0.2291 
-20 6 2 13.0260 -0.0549 
-20 6 3 -34.4403 0.5074 
-20 6 4 2.4955 -0.1940 
-20 6 5 17.4272 -0.0723 
-20 6 6 -0.4938 -0.7409 
-20 6 7 5.0991 0.1446 
-20 6 8 43.2969 0.3374 
-20 6 9 -2.4887 0.6718 
-20 6 10 6.3855 -0.4459 
-20 6 11 -8.7700 -0.2937 
-20 6 12 8.2263 -0.0688 
-20 6 13 6.2220 0.2182 
-20 6 14 8.5638 -0.1157 
-20 6 15 -5.7671 0.0524 
-20 6 16 -7.2269 -0.0439 
-20 6 17 3.3772 0.0996 
-20 6 18 8.2785 -0.0419 
-20 6 19 -4.9625 -0.0241 
-20 6 20 9.7768 -0.1077 
-20 6 21 -7.5169 0.0962 
-20 6 22 -12.0953 0.1190 
-20 6 23 10.2074 -0.1026 
-20 6 24 15.8578 -0.1391 
-20 6 25 -2.0430 0.0419 
-20 6 26 10.2050 0.2610 
-20 6 27 1.9872 -0.1270 
-20 6 28 -2.3022 -0.1302 
-20 8 1 20.0723 0.1923 
-20 8 2 -4.6603 -0.4845 
-20 8 3 14.4245 0.1545 
-20 8 4 23.9964 -0.3055 
-20 8 5 -18.6768 0.5350 
-20 8 6 20.4976 -0.1372 
-20 8 7 4.6351 0.1459 
-20 8 8 17.3814 -0.6693 
-20 8 9 1.0770 0.3556 
-20 8 10 7.7174 -0.3810 
-20 8 11 -6.6039 0.4515 
-20 8 12 -1.6274 -0.2953 
-20 8 13 -2.7012 0.4181 
-20 8 14 4.2382 -0.2818 
-20 8 15 -13.1868 -0.0158 
-20 8 16 8.1466 -0.1789 
-20 8 17 1.4606 0.3264 
-20 8 18 4.8682 -0.0914 
-20 8 19 -18.0676 -0.0807 
-20 8 20 -5.1529 -0.1245 
-20 8 21 9.0528 0.0845 
-20 8 22 0.8894 0.0311 
-20 8 23 1.7091 -0.0826 
-20 8 24 2.0452 0.0092 
-20 8 25 -5.7200 0.2639 
-20 8 26 -0.8212 -0.2736 
-20 8 27 -0.4267 -0.0512 
-20 10 1 6.0204 0.1196 
-20 10 2 0.4762 0.0668 
-20 10 3 -22.9193 0.1236 
-20 10 4 -19.5510 -0.2821 
-20 10 5 -14.2826 0.0621 
-20 10 6 19.2549 -0.0112 
-20 10 7 -6.6383 0.1666 
-20 10 8 16.8032 -0.1241 
-20 10 9 4.4550 0.1076 
-20 10 10 -3.5743 0.1298 
-20 10 11 -9.3387 -0.0354 
-20 10 12 -13.4334 -0.2444 
-20 10 13 -3.7497 0.0455 
-20 10 14 1.0697 0.2258 
-20 10 15 -9.0353 0.0583 
-20 10 16 7.9518 -0.1507 
-20 10 17 1.3748 0.0097 
-20 10 18 11.5127 -0.1037 
-20 10 19 -2.2796 0.0548 
-20 10 20 13.0527 0.0174 
-20 10 21 1.2036 0.1004 
-20 10 22 2.2268 -0.0568 
-20 10 23 2.9148 -0.2183 
-20 10 24 -5.8665 0.0127 
-20 10 25 -3.5048 0.0031 
-20 10 26 4.1867 0.1508 
-20 10 27 -4.8809 0.0605 
-20 12 1 -2.2417 0.1867 
-20 12 2 -9.0667 0.0886 
-20 12 3 -15.7891 -0.1910 
-20 12 4 5.3546 -0.2540 
-20 12 5 -3.3037 0.1811 
-20 12 6 9.5198 0.3214 
-20 12 7 -6.3590 -0.1580 
-20 12 8 5.6649 -0.1815 
-20 12 9 -20.2545 -0.1669 
-20 12 10 -9.4681 0.1876 
-20 12 11 -2.8567 0.0327 
-20 12 12 -2.8017 -0.0132 
-20 12 13 9.8559 -0.1930 
-20 12 14 -2.4616 0.1207 
-20 12 15 -12.3692 -0.0540 
-20 12 16 -3.5330 0.0410 
-20 12 17 -3.6414 -0.1474 
-20 12 18 4.3745 0.2186 
-20 12 19 -1.4946 -0.0174 
-20 12 20 5.7905 0.0076 
-20 12 21 6.5766 0.0012 
-20 12 22 -3.1101 0.0140 
-20 12 23 -2.9322 -0.0152 
-20 12 24 -2.5044 0.0735 
-20 12 25 -5.0996 0.0712 
-20 12 26 -2.1298 -0.8097 
-20 14 1 1.4593 0.1538 
-20 14 2 -1.9288 0.0990 
-20 14 3 -4.5699 0.0818 
-20 14 4 -1.3561 -0.2789 
-20 14 5 -20.4710 0.2509 
-20 14 6 -3.3314 -0.0700 
-20 14 7 -10.5600 0.1822 
-20 14 8 7.1682 -0.1866 
-20 14 9 -17.0224 0.1089 
-20 14 10 10.7967 -0.1317 
-20 14 11 9.2298 -0.0139 
-20 14 12 -16.0495 0.0228 
-20 14 13 -6.3420 0.1278 
-20 14 14 4.5959 -0.0041 
-20 14 15 4.1561 0.0051 
-20 14 16 9.9237 -0.0153 
-20 14 17 10.8884 -0.0027 
-20 14 18 4.2603 0.0446 
-20 14 19 -10.9098 0.0155 
-20 14 20 -4.3924 -0.0196 
-20 14 21 1.2960 -0.1269 
-20 14 22 -6.4501 -0.0835 
-20 14 23 -2.7144 0.1485 
-20 14 24 0.6256 -0.1998 
-20 14 25 -1.8719 0.0344 
-20 16 1 9.9997 -0.1008 
-20 16 2 5.1774 -0.0627 
-20 16 3 -13.0824 -0.0579 
-20 16 4 14.0982 0.1981 
-20 16 5 -0.5336 -0.0177 
-20 16 6 8.3887 0.0181 
-20 16 7 6.9393 -0.1147 
-20 16 8 -0.2535 -0.0260 
-20 16 9 0.4061 0.2714 
-20 16 10 10.5972 -0.0757 
-20 16 11 8.4858 -0.0818 
-20 16 12 9.7656 -0.0671 
-20 16 13 -5.9868 0.1556 
-20 16 14 6.4688 -0.2310 
-20 16 15 8.1907 0.0450 
-20 16 16 2.9429 -0.0032 
-20 16 17 -2.1074 0.1995 
-20 16 18 5.0945 -0.1129 
-20 16 19 19.7033 -0.0069 
-20 16 20 13.0825 -0.0464 
-20 16 21 -5.5013 0.1663 
-20 16 22 4.1067 0.1178 
-20 16 23 0.8041 0.1827 
-20 16 24 -3.3047 -0.2550 
-20 18 1 -8.9384 -0.2042 
-20 18 2 4.3232 -0.0201 
-20 18 3 -11.8786 -0.1120 
-20 18 4 11.0688 0.3260 
-20 18 5 -2.2838 -0.1582 
-20 18 6 -1.3072 0.1410 
-20 18 7 -2.1527 -0.3037 
-20 18 8 9.3818 0.2740 
-20 18 9 5.2780 -0.1265 
-20 18 10 2.8980 0.0774 
-20 18 11 7.3392 -0.3741 
-20 18 12 1.8589 0.2578 
-20 18 13 -2.8212 0.1415 
-20 18 14 -2.4715 -0.0239 
-20 18 15 9.4442 -0.1501 
-20 18 16 -4.4167 -0.0316 
-20 18 17 -14.5733 0.2482 
-20 18 18 -4.0392 -0.1534 
-20 18 19 -2.4010 -0.0625 
-20 18 20 -2.9256 0.0260 
-20 18 21 -11.5053 0.2069 
-20 18 22 -3.4420 0.0920 
-20 18 23 -4.3184 -0.1410 
-20 20 1 -1.0079 -0.0711 
-20 20 2 10.4576 -0.0317 
-20 20 3 -5.1192 -0.0191 
-20 20 4 5.7203 0.1698 
-20 20 5 -1.5206 -0.1075 
-20 20 6 -0.9364 -0.0610 
-20 20 7 -4.6516 -0.0073 
-20 20 8 3.8187 0.2507 
-20 20 9 -11.7798 0.0202 
-20 20 10 -4.1096 0.0407 
-20 20 11 5.5782 -0.0640 
-20 20 12 20.7181 0.0483 
-20 20 13 10.5777 -0.1479 
-20 20 14 3.2173 -0.0247 
-20 20 15 4.1699 -0.0464 
-20 20 16 -19.5358 0.1181 
-20 20 17 -9.8523 0.0058 
-20 20 18 6.9471 -0.1247 
-20 20 19 -3.9926 -0.0716 
-20 20 20 -8.1344 0.0892 
-20 20 21 -8.5306 0.5597 
-20 20 22 7.5907 -0.3933 
-20 22 1 -5.7519 0.0689 
-20 22 2 13.0686 -0.0577 
-20 22 3 -5.6255 0.0223 
-20 22 4 7.4172 0.0063 
-20 22 5 -9.1671 -0.0862 
-20 22 6 -4.6687 -0.0020 
-20 22 7 -2.8225 0.1042 
-20 22 8 3.0235 -0.0592 
-20 22 9 10.4975 -0.1113 
-20 22 10 11.3651 -0.0661 
-20 22 11 -5.2551 0.1844 
-20 22 12 2.5144 -0.0578 
-20 22 13 -7.7469 0.0888 
-20 22 14 0.8283 -0.0883 
-20 22 15 -11.0563 0.1931 
-20 22 16 -15.1151 -0.0937 
-20 22 17 -9.9715 -0.0073 
-20 22 18 -5.1477 -0.0893 
-20 22 19 -3.8151 0.2061 
-20 22 20 -1.8796 0.0610 
-20 24 1 -8.5978 -0.0225 
-20 24 2 14.8831 -0.0136 
-20 24 3 -13.2980 0.0482 
-20 24 4 8.4717 -0.0866 
-20 24 5 -3.9687 0.0188 
-20 24 6 0.9043 -0.0419 
-20 24 7 3.0479 0.0739 
-20 24 8 -6.2708 -0.0198 
-20 24 9 7.8969 -0.0144 
-20 24 10 0.3505 0.1478 
-20 24 11 -8.5570 0.0100 
-20 24 12 0.6399 -0.1188 
-20 24 13 -26.6800 -0.2708 
-20 24 14 0.1915 0.2098 
-20 24 15 5.5335 0.1934 
-20 24 16 -2.6108 0.0039 
-20 24 17 9.0603 -0.4164 
-20 24 18 -5.2644 -0.0312 
-20 26 1 -10.2127 0.0712 
-20 26 2 5.0551 0.0559 
-20 26 3 -5.0798 -0.0757 
-20 26 4 -2.9726 -0.0734 
-20 26 5 -1.3603 -0.0103 
-20 26 6 9.8513 -0.0026 
-20 26 7 -0.5190 0.1884 
-20 26 8 4.0218 -0.0283 
-20 26 9 13.5630 0.0627 
-20 26 10 -0.4765 -0.0956 
-20 26 11 -0.6203 -0.0429 
-20 26 12 0.6299 -0.0525 
-20 26 13 -15.4623 0.0400 
-20 26 14 0.3022 0.3163 
-20 26 15 -10.0604 -0.0055 
-20 28 1 -16.1004 0.3438 
-20 28 2 5.2471 -0.2157 
-20 28 3 1.0218 -0.2029 
-20 28 4 -0.4946 -0.1645 
-20 28 5 8.0977 0.4802 
-20 28 6 12.9026 0.0375 
-20 28 7 8.2107 -0.1279 
-20 28 8 -2.2077 -0.3401 
-20 28 9 0.3277 0.0141 
-20 28 10 -5.7872 0.0349 
-20 28 11 2.2884 0.2643 
-19 1 1 33.4494 0.7843 
-19 1 2 6.4784 0.3725 
-19 1 3 -2.5658 -0.9269 
-19 1 4 27.2745 -0.4693 
-19 1 5 33.9810 0.2861 
-19 1 6 -24.6381 0.5003 
-19 1 7 26.0921 -0.1150 
-19 1 8 51.6301 -1.0930 
-19 1 9 -41.4771 0.7307 
-19 1 10 20.4504 0.9689 
-19 1 11 -6.7279 0.5364 
-19 1 12 20.5611 -1.2780 
-19 1 13 6.3455 -0.1967 
-19 1 14 -0.4143 0.0979 
-19 1 15 13.9177 1.0784 
-19 1 16 -1.5434 -0.4169 
-19 1 17 4.2313 0.0471 
-19 1 18 5.1834 -0.8374 
-19 1 19 10.0864 0.7062 
-19 1 20 12.6692 -0.1408 
-19 1 21 8.4724 0.5048 
-19 1 22 4.6229 -0.7577 
-19 1 23 -3.7026 0.5690 
-19 1 24 5.6812 -0.0549 
-19 1 25 -0.5625 0.5761 
-19 1 26 -9.1723 -0.5731 
-19 1 27 0.1380 -0.0352 
-19 1 28 -6.9218 0.5026 
-19 3 1 35.1929 -0.0688 
-19 3 2 -10.8477 0.9211 
-19 3 3 -6.3075 -1.0538 
-19 3 4 -10.2959 0.5622 
-19 3 5 6.4474 -0.9795 
-19 3 6 19.0376 0.9358 
-19 3 7 -3.3315 -0.3428 
-19 3 8 34.1533 0.3982 
-19 3 9 13.1867 -0.6463 
-19 3 10 20.8440 0.1585 
-19 3 11 -0.7271 -0.1492 
-19 3 12 5.3493 0.3508 
-19 3 13 -4.9669 -0.1327 
-19 3 14 12.6471 0.1971 
-19 3 15 1.5112 -0.4261 
-19 3 16 -2.0008 -0.1556 
-19 3 17 2.5754 0.0173 
-19 3 18 7.9212 0.4150 
-19 3 19 9.7751 -0.0934 
-19 3 20 9.6535 -0.1062 
-19 3 21 3.7620 -0.1638 
-19 3 22 -4.1340 0.0784 
-19 3 23 0.7580 0.0328 
-19 3 24 -8.6028 -0.1172 
-19 3 25 1.4464 0.1810 
-19 3 26 0.9411 -0.0050 
-19 3 27 4.0936 0.0755 
-19 3 28 7.9775 0.2118 
-19 5 1 -1.4673 -0.2605 
-19 5 2 18.1203 -0.1764 
-19 5 3 -7.5452 0.1426 
-19 5 4 -9.5916 0.7812 
-19 5 5 14.0882 -0.3404 
-19 5 6 8.5895 -0.2022 
-19 5 7 5.4841 -0.5415 
-19 5 8 5.9736 0.7452 
-19 5 9 -18.7210 -0.4406 
-19 5 10 27.0792 0.4990 
-19 5 11 11.3503 -0.4826 
-19 5 12 0.9919 0.3611 
-19 5 13 -8.2180 -0.2612 
-19 5 14 -7.2947 0.2116 
-19 5 15 -1.0944 -0.1753 
-19 5 16 9.9392 0.2961 
-19 5 17 -8.2716 -0.1333 
-19 5 18 3.8218 0.1486 
-19 5 19 0.6446 -0.3797 
-19 5 20 10.9612 0.0341 
-19 5 21 5.8697 0.0448 
-19 5 22 -3.0807 0.3827 
-19 5 23 4.1129 -0.1733 
-19 5 24 -1.4124 -0.1842 
-19 5 25 -5.0227 -0.1370 
-19 5 26 -5.7328 0.4054 
-19 5 27 -11.3395 -0.1925 
-19 5 28 -2.3794 0.1513 
-19 7 1 -0.6340 0.1674 
-19 7 2 1.2766 -0.3765 
-19 7 3 -11.5825 0.1128 
-19 7 4 -6.4646 -0.1723 
-19 7 5 8.9685 -0.0622 
-19 7 6 -8.5965 -0.2898 
-19 7 7 24.0450 0.3056 
-19 7 8 15.4460 0.2063 
-19 7 9 -10.5063 -0.1214 
-19 7 10 26.3521 -0.4536 
-19 7 11 1.7039 -0.0305 
-19 7 12 2.3608 0.2361 
-19 7 13 -7.9922 0.1050 
-19 7 14 8.5821 -0.1863 
-19 7 15 2.3943 -0.1971 
-19 7 16 -4.9216 -0.0192 
-19 7 17 -3.8468 0.0273 
-19 7 18 1.5753 0.0549 
-19 7 19 -14.2076 0.1028 
-19 7 20 16.1672 -0.1319 
-19 7 21 18.1913 -0.1399 
-19 7 22 -0.6127 0.1244 
-19 7 23 12.6492 0.0466 
-19 7 24 -9.6310 0.1053 
-19 7 25 -20.5287 0.1359 
-19 7 26 8.7488 0.0180 
-19 7 27 -6.6320 0.0548 
-19 7 28 -4.8701 0.1302 
-19 9 1 -16.4587 -0.1858 
-19 9 2 10.3684 0.0292 
-19 9 3 9.7994 0.2417 
-19 9 4 -9.0702 -0.0521 
-19 9 5 0.7613 0.1540 
-19 9 6 -7.3420 -0.1940 
-19 9 7 -3.6375 -0.1450 
-19 9 8 1.3648 -0.1820 
-19 9 9 21.7696 0.2018 
-19 9 10 7.6965 0.0150 
-19 9 11 -10.0452 0.1852 
-19 9 12 0.8960 -0.1586 
-19 9 13 1.0995 -0.0773 
-19 9 14 8.6124 -0.1074 
-19 9 15 5.1439 0.1823 
-19 9 16 0.2492 0.1624 
-19 9 17 -6.8679 -0.1473 
-19 9 18 -0.6617 -0.1217 
-19 9 19 -5.8748 0.0541 
-19 9 20 20.7103 0.0425 
-19 9 21 3.9127 -0.0021 
-19 9 22 0.3162 0.0471 
-19 9 23 20.5524 -0.2862 
-19 9 24 2.1892 0.0618 
-19 9 25 -9.5603 -0.1115 
-19 9 26 11.6167 0.0424 
-19 9 27 -7.2455 0.4801 
-19 11 1 -10.5503 0.1182 
-19 11 2 30.4320 0.3672 
-19 11 3 -17.4427 -0.2288 
-19 11 4 -10.8891 -0.4173 
-19 11 5 9.6378 -0.1541 
-19 11 6 -9.5842 0.5522 
-19 11 7 15.6257 0.0236 
-19 11 8 9.1909 0.0050 
-19 11 9 5.4677 -0.1784 
-19 11 10 -6.0507 0.1528 
-19 11 11 3.8820 -0.2353 
-19 11 12 -4.4716 0.0740 
-19 11 13 -20.3250 -0.1065 
-19 11 14 -5.9644 0.1759 
-19 11 15 8.4271 -0.1514 
-19 11 16 -0.9619 0.0297 
-19 11 17 -0.2343 -0.1922 
-19 11 18 4.3780 0.1681 
-19 11 19 4.4239 -0.0724 
-19 11 20 6.6774 0.1976 
-19 11 21 -15.7365 -0.1596 
-19 11 22 -2.7363 -0.0551 
-19 11 23 0.1623 0.0601 
-19 11 24 -1.2400 0.3194 
-19 11 25 -9.2800 0.0926 
-19 11 26 5.9844 -0.1701 
-19 13 1 23.2043 0.0276 
-19 13 2 4.0342 0.0752 
-19 13 3 -16.4971 0.1335 
-19 13 4 1.1840 -0.1457 
-19 13 5 -9.6204 0.0891 
-19 13 6 -12.2842 0.1385 
-19 13 7 4.5539 -0.1134 
-19 13 8 8.7464 -0.4139 
-19 13 9 -7.7253 0.0295 
-19 13 10 -11.9016 0.3979 
-19 13 11 -8.6106 -0.0254 
-19 13 12 -5.7169 -0.1547 
-19 13 13 3.5290 -0.0981 
-19 13 14 0.3832 0.1580 
-19 13 15 4.3146 -0.0504 
-19 13 16 -20.5687 0.0315 
-19 13 17 -27.0718 -0.1320 
-19 13 18 7.2275 0.2019 
-19 13 19 6.7744 -0.2158 
-19 13 20 8.1499 0.1959 
-19 13 21 5.3783 -0.1078 
-19 13 22 13.9130 -0.0169 
-19 13 23 14.4580 0.1042 
-19 13 24 1.0150 -0.0869 
-19 13 25 -8.3539 -0.1682 
-19 13 26 7.7340 0.5566 
-19 15 1 15.1318 0.2041 
-19 15 2 -11.9492 -0.0830 
-19 15 3 -6.3453 0.1176 
-19 15 4 5.7817 -0.3181 
-19 15 5 -10.6571 0.2010 
-19 15 6 -9.8385 -0.0183 
-19 15 7 -12.2621 0.3561 
-19 15 8 -3.3722 -0.2104 
-19 15 9 -3.8728 0.1661 
-19 15 10 -2.4486 -0.1189 
-19 15 11 -5.0452 -0.0770 
-19 15 12 2.1459 -0.0661 
-19 15 13 -10.9283 0.1642 
-19 15 14 -8.3951 0.0569 
-19 15 15 1.1534 -0.1123 
-19 15 16 -7.5095 -0.1312 
-19 15 17 -6.8499 0.1942 
-19 15 18 6.8758 0.0530 
-19 15 19 -8.4188 -0.0740 
-19 15 20 6.8591 -0.0817 
-19 15 21 -7.6155 -0.0455 
-19 15 22 3.0126 0.1060 
-19 15 23 0.4318 0.0378 
-19 15 24 7.0224 -0.3029 
-19 15 25 8.5336 0.1265 
-19 17 1 1.1168 -0.1764 
-19 17 2 2.4104 -0.0795 
-19 17 3 -9.1689 0.0854 
-19 17 4 -0.0908 0.2613 
-19 17 5 -4.9028 -0.0123 
-19 17 6 -0.1854 -0.1313 
-19 17 7 4.3059 -0.2716 
-19 17 8 -0.9908 0.0663 
-19 17 9 -10.6550 0.1146 
-19 17 10 -7.8280 0.0795 
-19 17 11 6.4060 -0.1300 
-19 17 12 9.8134 0.0395 
-19 17 13 -0.5872 0.0771 
-19 17 14 8.7084 0.0421 
-19 17 15 -4.8133 -0.1651 
-19 17 16 -12.9085 0.0601 
-19 17 17 -8.8841 0.0690 
-19 17 18 8.5157 0.0288 
-19 17 19 -5.6844 -0.1178 
-19 17 20 0.7955 -0.1203 
-19 17 21 -5.3762 0.1388 
-19 17 22 -1.8997 0.2494 
-19 17 23 0.0076 -0.2104 
-19 17 24 1.3799 0.4405 
-19 19 1 1.0834 0.0095 
-19 19 2 2.6889 -0.0863 
-19 19 3 6.8733 -0.1441 
-19 19 4 2.0103 0.0720 
-19 19 5 -9.3094 0.0006 
-19 19 6 -13.4678 0.0598 
-19 19 7 -9.4577 0.0737 
-19 19 8 12.6313 0.2012 
-19 19 9 2.3540 -0.0950 
-19 19 10 1.3442 -0.0948 
-19 19 11 -3.8055 -0.1938 
-19 19 12 -11.5157 0.2662 
-19 19 13 -21.6028 -0.0548 
-19 19 14 -8.0427 0.1366 
-19 19 15 -3.5303 -0.1989 
-19 19 16 2.9122 0.1492 
-19 19 17 5.2087 -0.0127 
-19 19 18 0.1664 0.1187 
-19 19 19 -11.2320 -0.2278 
-19 19 20 0.8027 0.0683 
-19 19 21 3.9481 0.2137 
-19 19 22 2.0553 0.1693 
-19 19 23 -4.4183 -0.3475 
-19 21 1 7.0495 -0.0005 
-19 21 2 -3.3915 -0.0348 
-19 21 3 -8.7150 -0.0004 
-19 21 4 1.1671 0.2009 
-19 21 5 -3.9650 -0.0222 
-19 21 6 10.0171 -0.1489 
-19 21 7 9.6370 -0.0687 
-19 21 8 -9.2196 0.0517 
-19 21 9 -10.6249 0.1070 
-19 21 10 4.1428 -0.0404 
-19 21 11 -0.5066 0.2355 
-19 21 12 11.1806 -0.1007 
-19 21 13 -10.2549 -0.0191 
-19 21 14 13.7972 -0.1835 
-19 21 15 -0.2695 0.1898 
-19 21 16 0.8190 0.0353 
-19 21 17 -5.0875 0.0305 
-19 21 18 -1.7130 -0.1852 
-19 21 19 3.0141 -0.0919 
-19 21 20 9.8311 0.2577 
-19 21 21 4.1915 -0.2249 
-19 23 1 -1.4666 0.0094 
-19 23 2 -4.3384 -0.0257 
-19 23 3 -7.0265 -0.1596 
-19 23 4 14.4549 -0.0620 
-19 23 5 1.0266 0.0563 
-19 23 6 -0.6393 0.1038 
-19 23 7 4.4571 0.0818 
-19 23 8 1.0636 0.0195 
-19 23 9 -4.2507 -0.1025 
-19 23 10 2.7266 -0.0447 
-19 23 11 -11.3152 0.0282 
-19 23 12 2.9890 -0.0335 
-19 23 13 2.2519 -0.0649 
-19 23 14 4.8778 -0.0265 
-19 23 15 -1.7033 0.2993 
-19 23 16 7.9703 0.0637 
-19 23 17 -4.6511 -0.0042 
-19 23 18 6.6565 -0.4198 
-19 23 19 -5.0743 1.1869 
-19 25 1 3.4152 0.0023 
-19 25 2 0.3154 0.1210 
-19 25 3 -3.8068 -0.0320 
-19 25 4 8.7352 0.0075 
-19 25 5 -3.7226 -0.1458 
-19 25 6 -0.0823 -0.0003 
-19 25 7 2.2331 -0.0571 
-19 25 8 -0.1060 0.1385 
-19 25 9 -7.4595 0.0549 
-19 25 10 -5.3018 0.1567 
-19 25 11 0.2549 0.0701 
-19 25 12 8.4235 -0.1205 
-19 25 13 -4.8812 -0.1385 
-19 25 14 -5.5257 0.1856 
-19 25 15 2.2683 -0.1353 
-19 25 16 0.1979 0.0857 
-19 25 17 -7.1728 -0.3888 
-19 27 1 0.5604 0.0575 
-19 27 2 -4.4976 0.0377 
-19 27 3 -1.5927 -0.1413 
-19 27 4 -0.9961 -0.0999 
-19 27 5 -7.8229 -0.0887 
-19 27 6 -11.2887 0.1858 
-19 27 7 -1.6076 0.0681 
-19 27 8 5.9095 -0.0087 
-19 27 9 0.4769 -0.0735 
-19 27 10 10.8179 0.0292 
-19 27 11 14.6063 0.1229 
-19 27 12 -5.1893 -0.0938 
-19 27 13 2.7033 0.1551 
-19 27 14 13.1527 0.3230 
-19 29 1 -6.3712 0.0776 
-19 29 2 16.0249 0.0165 
-19 29 3 9.1121 -0.0953 
-19 29 4 -5.4313 -0.1145 
-19 29 5 -6.2664 0.1215 
-19 29 6 -10.6881 0.0820 
-19 29 7 0.6948 -0.0862 
-19 29 8 -18.5810 -0.1471 
-19 29 9 -13.1238 -0.1331 
-19 29 10 -4.6265 -0.0913 
-18 0 1 41.0437 6.2717 
-18 0 2 8.7510 -1.1291 
-18 0 3 -40.1776 1.7431 
-18 0 4 -13.0597 -1.3032 
-18 0 5 48.8804 1.2595 
-18 0 6 12.8887 -1.8394 
-18 0 7 10.8737 1.1678 
-18 0 8 -34.9693 -0.5990 
-18 0 9 -17.6392 1.0882 
-18 0 10 50.6559 -1.9681 
-18 0 11 -38.4090 0.7292 
-18 0 12 29.4921 0.0058 
-18 0 13 28.4348 1.6072 
-18 0 14 -9.4835 0.5891 
-18 0 15 14.4423 0.7997 
-18 0 16 20.6536 -2.0653 
-18 0 17 -1.3337 -1.2624 
-18 0 18 7.8465 -0.8531 
-18 0 19 10.1287 3.0815 
-18 0 20 16.4628 0.8930 
-18 0 21 2.2086 -0.0473 
-18 0 22 26.6473 -2.3189 
-18 0 23 9.2896 0.0327 
-18 0 24 10.5837 0.4851 
-18 0 25 -3.1077 0.7962 
-18 0 26 -6.9107 -0.7820 
-18 0 27 13.8590 0.6161 
-18 0 28 9.4980 0.0361 
-18 2 1 16.5016 0.5753 
-18 2 2 8.1993 -1.4129 
-18 2 3 20.3526 -0.8565 
-18 2 4 2.1220 0.1631 
-18 2 5 28.6729 1.5151 
-18 2 6 1.8314 -0.8038 
-18 2 7 32.8021 -0.7932 
-18 2 8 36.4963 -0.3415 
-18 2 9 17.8834 0.5593 
-18 2 10 48.5619 0.1166 
-18 2 11 -28.5697 0.3690 
-18 2 12 16.4986 -0.0947 
-18 2 13 12.0983 -0.5529 
-18 2 14 -19.0423 -0.7757 
-18 2 15 -5.3201 0.6085 
-18 2 16 10.4559 0.6872 
-18 2 17 -4.2443 0.2378 
-18 2 18 2.9480 -0.8510 
-18 2 19 -5.4747 -0.0088 
-18 2 20 -1.0106 -0.2404 
-18 2 21 -9.2394 0.3175 
-18 2 22 -13.5864 -0.3240 
-18 2 23 -8.9651 0.8353 
-18 2 24 -1.0023 0.1831 
-18 2 25 -7.0285 -0.0457 
-18 2 26 4.9079 -0.5077 
-18 2 27 1.8482 0.0175 
-18 2 28 -0.1383 0.5510 
-18 4 1 18.4239 0.2172 
-18 4 2 17.8611 0.3914 
-18 4 3 -15.1686 -0.0111 
-18 4 4 -25.2172 0.0659 
-18 4 5 22.5341 -0.5023 
-18 4 6 24.2864 -0.1214 
-18 4 7 22.9563 -0.0186 
-18 4 8 41.1209 0.8043 
-18 4 9 16.7409 -0.2319 
-18 4 10 31.0375 -0.4795 
-18 4 11 0.3988 -0.7023 
-18 4 12 18.8154 0.9162 
-18 4 13 6.7800 0.4114 
-18 4 14 9.4227 -0.0190 
-18 4 15 0.3420 -0.6430 
-18 4 16 -16.2484 0.0585 
-18 4 17 -9.2270 0.0136 
-18 4 18 1.2637 0.0283 
-18 4 19 -11.7692 -0.0094 
-18 4 20 9.9459 0.3654 
-18 4 21 8.0561 0.0566 
-18 4 22 -1.2485 -0.1778 
-18 4 23 -18.4088 -0.1972 
-18 4 24 -7.4970 0.0136 
-18 4 25 -1.5409 0.0015 
-18 4 26 -3.4237 0.1538 
-18 4 27 -1.7766 0.0738 
-18 4 28 6.8131 0.2692 
-18 6 1 23.0680 -0.6530 
-18 6 2 0.3449 -0.5280 
-18 6 3 -27.8460 0.3086 
-18 6 4 11.6971 0.3026 
-18 6 5 4.7342 0.1943 
-18 6 6 -37.8834 -0.4500 
-18 6 7 21.0338 0.1147 
-18 6 8 49.0540 -0.0651 
-18 6 9 -24.2941 0.1318 
-18 6 10 19.8124 -0.0270 
-18 6 11 -5.3104 0.0112 
-18 6 12 9.8533 -0.0398 
-18 6 13 6.2252 -0.0797 
-18 6 14 8.2932 -0.1908 
-18 6 15 -0.8343 -0.1326 
-18 6 16 2.9630 0.2603 
-18 6 17 3.4348 0.3689 
-18 6 18 -3.6837 -0.1765 
-18 6 19 -15.3409 -0.3670 
-18 6 20 9.9250 -0.1988 
-18 6 21 6.3436 0.2734 
-18 6 22 5.4315 0.1791 
-18 6 23 -9.3069 0.1267 
-18 6 24 -4.1470 -0.0428 
-18 6 25 5.2588 0.3033 
-18 6 26 8.8408 -0.0463 
-18 6 27 -0.1392 -0.0180 
-18 6 28 11.5312 0.2776 
-18 8 1 1.8358 -0.1209 
-18 8 2 -35.3928 0.2139 
-18 8 3 17.9609 0.2923 
-18 8 4 2.2413 -0.3305 
-18 8 5 -44.8181 -0.0311 
-18 8 6 10.0609 -0.3817 
-18 8 7 7.1249 0.5052 
-18 8 8 0.3299 -0.2498 
-18 8 9 -8.3702 0.1305 
-18 8 10 24.7037 -0.5445 
-18 8 11 6.6901 0.6322 
-18 8 12 6.2916 -0.5167 
-18 8 13 -3.6377 0.5034 
-18 8 14 21.7372 -0.2812 
-18 8 15 -13.9078 0.1349 
-18 8 16 8.1175 -0.3745 
-18 8 17 -3.2191 0.0208 
-18 8 18 1.8368 0.0965 
-18 8 19 -4.0697 0.2088 
-18 8 20 14.0185 -0.1123 
-18 8 21 14.0354 0.1114 
-18 8 22 6.5571 -0.0628 
-18 8 23 2.4452 -0.1712 
-18 8 24 -1.7167 -0.1479 
-18 8 25 4.4156 0.3526 
-18 8 26 -2.0354 -0.0998 
-18 8 27 -0.6835 0.6130 
-18 10 1 2.9605 -0.2694 
-18 10 2 15.7634 0.2818 
-18 10 3 -15.4044 -0.0989 
-18 10 5 -4.0561 0.1374 
-18 10 6 25.0665 0.0147 
-18 10 7 -5.9855 0.1739 
-18 10 8 -0.2245 -0.2680 
-18 10 9 9.6992 0.1226 
-18 10 10 4.4972 0.1595 
-18 10 11 -8.5759 0.2676 
-18 10 12 1.1485 -0.4799 
-18 10 13 -11.8447 -0.1001 
-18 10 14 12.5001 -0.1428 
-18 10 15 -14.0005 0.5184 
-18 10 16 -3.6136 -0.2421 
-18 10 17 -7.7242 0.0366 
-18 10 18 -0.9464 -0.0773 
-18 10 19 -18.5895 0.1879 
-18 10 20 8.1079 -0.1472 
-18 10 21 2.0809 -0.0419 
-18 10 22 11.2543 0.0966 
-18 10 23 11.5146 0.0662 
-18 10 24 0.3852 0.0692 
-18 10 25 -4.8898 -0.1927 
-18 10 26 3.0317 0.1660 
-18 10 27 8.4436 0.0093 
-18 12 1 1.4538 0.0789 
-18 12 2 10.1445 0.4014 
-18 12 3 -3.5669 -0.1292 
-18 12 4 4.2273 -0.2765 
-18 12 5 -7.5526 -0.1524 
-18 12 6 -15.2034 0.3381 
-18 12 7 -5.9723 -0.0060 
-18 12 8 16.1557 -0.2677 
-18 12 9 11.3682 -0.0016 
-18 12 10 5.2802 0.1190 
-18 12 11 0.3196 0.1479 
-18 12 12 8.1714 -0.0982 
-18 12 13 -10.9092 -0.0651 
-18 12 14 9.9566 0.0433 
-18 12 15 1.1803 0.1772 
-18 12 16 4.2561 -0.3062 
-18 12 17 7.9256 -0.0894 
-18 12 18 3.6441 -0.0464 
-18 12 19 -12.4666 0.2594 
-18 12 20 6.5294 0.0077 
-18 12 21 4.7388 -0.2285 
-18 12 22 -2.8578 -0.0372 
-18 12 23 -7.0141 0.0927 
-18 12 24 5.1722 0.2747 
-18 12 25 0.5347 0.2860 
-18 12 26 1.5120 0.3670 
-18 14 1 8.5932 -0.0309 
-18 14 2 -17.2796 -0.0408 
-18 14 3 -6.4267 0.2549 
-18 14 4 -12.0390 -0.1925 
-18 14 5 -11.0664 0.0922 
-18 14 6 -6.1245 0.0422 
-18 14 7 -9.6130 0.1667 
-18 14 8 15.1549 -0.3946 
-18 14 9 1.9500 0.3187 
-18 14 10 8.1916 -0.0431 
-18 14 11 -10.0371 0.0688 
-18 14 12 -8.7084 -0.2841 
-18 14 13 -2.3959 0.1749 
-18 14 14 6.0531 -0.0614 
-18 14 15 -3.1614 0.1363 
-18 14 16 -11.5231 -0.1894 
-18 14 17 -5.5451 0.1789 
-18 14 18 -2.7454 -0.1554 
-18 14 19 -14.8358 0.1461 
-18 14 20 7.3681 -0.0626 
-18 14 21 3.7972 0.0354 
-18 14 22 -1.9720 -0.0539 
-18 14 23 -0.2818 0.1801 
-18 14 24 -0.7427 -0.1116 
-18 14 25 -4.8631 -0.3961 
-18 16 1 6.9958 0.1101 
-18 16 2 0.7963 0.0619 
-18 16 3 -10.1949 0.0250 
-18 16 4 -3.9927 0.0062 
-18 16 5 -1.3040 -0.0778 
-18 16 6 -3.3224 -0.0167 
-18 16 7 -3.7913 0.0079 
-18 16 8 3.0211 -0.0179 
-18 16 9 4.3082 0.0962 
-18 16 10 6.6358 -0.1121 
-18 16 11 -8.1594 0.0677 
-18 16 12 -6.3809 -0.1126 
-18 16 13 -17.3555 0.3426 
-18 16 14 -11.4125 -0.1579 
-18 16 15 -3.8670 -0.1923 
-18 16 16 -8.1571 -0.0829 
-18 16 17 -14.2982 0.2964 
-18 16 18 -11.7766 -0.0967 
-18 16 19 -6.6939 -0.1211 
-18 16 20 -0.3111 -0.2245 
-18 16 21 -12.3176 0.2976 
-18 16 22 6.9040 -0.2096 
-18 16 23 5.5963 0.0004 
-18 16 24 7.0130 -0.0163 
-18 16 25 -10.2102 0.2831 
-18 18 1 3.6846 -0.1581 
-18 18 2 8.7260 -0.0648 
-18 18 3 -8.7309 -0.0700 
-18 18 4 -6.2423 0.2372 
-18 18 5 1.2789 -0.0658 
-18 18 6 2.3238 -0.0434 
-18 18 7 0.9396 -0.1549 
-18 18 8 10.4131 0.2735 
-18 18 9 -7.4191 -0.2160 
-18 18 10 11.2599 0.0545 
-18 18 11 1.6811 -0.2844 
-18 18 12 1.2689 0.1978 
-18 18 13 9.9591 0.0419 
-18 18 14 -1.5547 0.0911 
-18 18 15 13.1093 -0.1684 
-18 18 16 -2.9455 0.1036 
-18 18 17 -9.5233 0.0745 
-18 18 18 1.0094 0.0296 
-18 18 19 -2.6972 -0.0937 
-18 18 20 15.5715 0.0396 
-18 18 21 2.7277 0.1072 
-18 18 22 0.5143 0.1122 
-18 18 23 -1.2585 -0.2721 
-18 20 1 0.2848 0.0695 
-18 20 2 -18.4424 -0.0822 
-18 20 3 -10.2254 -0.0757 
-18 20 4 -4.9311 0.0968 
-18 20 5 -8.0723 0.0517 
-18 20 6 -2.9649 -0.0977 
-18 20 7 0.3395 0.0067 
-18 20 8 11.7692 0.0339 
-18 20 9 -16.3224 0.0200 
-18 20 10 5.6807 -0.0080 
-18 20 11 -7.1449 -0.0429 
-18 20 12 -3.3050 0.1844 
-18 20 13 -9.6721 -0.2169 
-18 20 14 -8.5083 0.0910 
-18 20 15 4.3463 -0.0820 
-18 20 16 -8.3281 0.0989 
-18 20 17 2.6696 -0.0174 
-18 20 18 4.2070 0.0575 
-18 20 19 -5.6122 -0.1162 
-18 20 20 9.0014 -0.1138 
-18 20 21 -0.6898 -0.0883 
-18 20 22 9.2750 0.3590 
-18 22 1 5.3897 0.0847 
-18 22 2 -4.5050 -0.1292 
-18 22 3 -2.6085 -0.0269 
-18 22 4 1.6048 -0.0524 
-18 22 5 -9.8226 0.0945 
-18 22 6 8.2237 0.0710 
-18 22 7 8.1333 -0.0432 
-18 22 8 14.2093 -0.0994 
-18 22 9 11.2193 0.0402 
-18 22 10 16.6574 -0.0485 
-18 22 11 -4.2266 0.1185 
-18 22 12 4.1240 -0.1079 
-18 22 13 -8.0666 -0.1392 
-18 22 14 -6.3850 0.0274 
-18 22 15 -9.2973 0.2004 
-18 22 16 -0.9432 -0.0003 
-18 22 17 -3.6820 -0.1121 
-18 22 18 -5.7431 -0.2168 
-18 22 19 -5.0320 0.4882 
-18 22 20 6.1160 0.0852 
-18 24 1 -3.8301 0.0161 
-18 24 2 10.3246 0.0540 
-18 24 3 -4.8728 -0.0998 
-18 24 4 2.6759 -0.1328 
-18 24 5 -9.2212 -0.0400 
-18 24 6 3.6252 0.0694 
-18 24 7 0.7170 0.0559 
-18 24 8 2.7376 0.0201 
-18 24 9 5.0783 -0.0651 
-18 24 10 4.7925 0.0801 
-18 24 11 -10.2985 0.0867 
-18 24 12 10.7953 -0.0173 
-18 24 13 -0.6651 -0.2289 
-18 24 14 7.0957 0.0133 
-18 24 15 5.3244 0.0885 
-18 24 16 -10.1476 0.2785 
-18 24 17 -0.3705 -0.1710 
-18 24 18 -3.5067 0.1197 
-18 26 1 -3.4708 0.0780 
-18 26 2 -1.6235 0.0409 
-18 26 3 3.4051 0.0275 
-18 26 4 4.7162 0.0515 
-18 26 5 -9.5648 -0.1353 
-18 26 6 -2.1200 0.0218 
-18 26 7 -5.0466 -0.1389 
-18 26 8 7.9842 0.0869 
-18 26 9 -10.3639 0.0441 
-18 26 10 -2.3343 0.0758 
-18 26 11 0.3727 0.0321 
-18 26 12 5.1515 -0.0284 
-18 26 13 -1.2675 0.1852 
-18 26 14 -8.7426 -0.0789 
-18 26 15 -1.9530 -0.2726 
-18 26 16 1.3644 -0.2101 
-18 28 1 -1.6594 0.1687 
-18 28 2 0.4800 -0.1325 
-18 28 3 0.2520 0.1857 
-18 28 4 9.3130 -0.2794 
-18 28 5 -2.1997 0.0063 
-18 28 6 -2.7033 -0.1565 
-18 28 7 1.0502 0.0758 
-18 28 8 5.8898 0.0726 
-18 28 9 -7.2206 0.0063 
-18 28 10 0.4239 0.0232 
-18 28 11 -0.2199 0.0790 
-18 28 12 0.0001 -0.2286 
-18 28 13 -7.0253 0.2425 
-18 30 1 -0.3674 0.3040 
-18 30 2 -10.1036 -0.4034 
-18 30 3 -8.1964 0.0748 
-18 30 4 14.8496 0.2038 
-18 30 5 8.4913 0.4607 
-18 30 6 1.5945 -0.2547 
-18 30 7 1.5894 -0.4497 
-17 1 1 -12.9085 -0.3613 
-17 1 2 7.4363 -0.2240 
-17 1 3 -7.3563 0.8094 
-17 1 4 -35.2433 -1.1331 
-17 1 5 9.8003 1.1115 
-17 1 6 27.2250 0.2312 
-17 1 7 11.3924 0.5289 
-17 1 8 -11.9413 -1.6361 
-17 1 9 21.1301 0.3011 
-17 1 10 33.8687 0.4745 
-17 1 11 -22.0712 0.5496 
-17 1 12 3.2446 -1.2803 
-17 1 13 -3.7971 -0.2200 
-17 1 14 2.1472 0.6339 
-17 1 15 -0.4946 0.8307 
-17 1 16 11.7397 -0.5615 
-17 1 17 5.3275 -0.5160 
-17 1 18 -7.4835 0.0963 
-17 1 19 -6.2536 0.6726 
-17 1 20 0.2904 -0.4781 
-17 1 21 4.1257 -0.3534 
-17 1 22 4.9383 -0.3123 
-17 1 23 -2.5472 0.9463 
-17 1 24 3.5194 0.2329 
-17 1 25 -4.1945 -0.0049 
-17 1 26 -3.0096 -0.5570 
-17 1 27 5.0486 0.2256 
-17 1 28 4.4639 0.2264 
-17 3 1 -5.4458 0.3880 
-17 3 2 1.5531 0.0441 
-17 3 3 31.0352 -0.5655 
-17 3 4 5.7384 0.4076 
-17 3 5 -4.5103 -0.6915 
-17 3 6 22.6654 0.3115 
-17 3 7 28.9172 -0.4078 
-17 3 8 6.4941 0.3192 
-17 3 9 17.3086 -0.3939 
-17 3 10 1.1023 0.3110 
-17 3 11 -4.8376 -0.2965 
-17 3 12 4.3993 0.2028 
-17 3 13 -10.2323 -0.4272 
-17 3 14 23.1977 0.5703 
-17 3 15 11.0073 -0.2187 
-17 3 16 18.5547 0.2318 
-17 3 17 12.9184 -0.5061 
-17 3 18 0.6556 0.1797 
-17 3 19 -5.9431 -0.1749 
-17 3 20 -0.8284 0.3187 
-17 3 21 2.4517 -0.0827 
-17 3 22 -0.4354 0.2410 
-17 3 23 20.1512 -0.1896 
-17 3 24 14.0162 0.1017 
-17 3 25 5.1634 -0.1573 
-17 3 26 -8.3765 0.1387 
-17 3 27 -2.4384 0.2012 
-17 3 28 9.3084 -0.0663 
-17 5 1 -10.6331 -0.2004 
-17 5 2 -13.5938 -0.2183 
-17 5 3 -24.6296 -0.1033 
-17 5 4 -0.1203 0.3729 
-17 5 5 5.7862 -0.0599 
-17 5 6 -2.0344 0.2388 
-17 5 7 9.4923 -0.2370 
-17 5 8 -8.1457 0.7470 
-17 5 9 7.6465 -0.8742 
-17 5 10 16.2105 0.1993 
-17 5 11 -7.4195 -0.3648 
-17 5 12 2.6282 0.9943 
-17 5 13 -3.6527 -0.3174 
-17 5 14 -9.6323 -0.1320 
-17 5 15 4.1671 -0.6015 
-17 5 16 -10.9718 0.4480 
-17 5 17 -16.0613 0.0476 
-17 5 18 8.4379 0.2518 
-17 5 19 -10.7302 -0.3186 
-17 5 20 -8.1925 -0.0107 
-17 5 21 4.9147 -0.0275 
-17 5 22 -1.6568 0.2852 
-17 5 23 2.6507 -0.1096 
-17 5 24 11.8335 0.2556 
-17 5 25 0.7340 -0.0868 
-17 5 26 0.4885 0.1720 
-17 5 27 5.1500 -0.0945 
-17 5 28 6.1264 0.4757 
-17 7 1 -13.3705 -0.4260 
-17 7 2 9.8639 0.1586 
-17 7 3 -14.4774 0.3376 
-17 7 4 -25.3399 -0.0003 
-17 7 5 -17.0770 -0.1656 
-17 7 6 -37.6515 -0.4129 
-17 7 7 14.4396 -0.0561 
-17 7 8 18.6449 0.4239 
-17 7 9 -5.1370 0.1618 
-17 7 10 20.5139 -0.1852 
-17 7 11 -0.7504 -0.3447 
-17 7 12 1.0935 0.2722 
-17 7 13 16.5175 -0.0918 
-17 7 14 12.5975 -0.0704 
-17 7 15 4.2807 -0.0001 
-17 7 16 0.3143 0.2301 
-17 7 17 7.3265 0.0333 
-17 7 18 14.3003 -0.2629 
-17 7 19 -7.8254 -0.0783 
-17 7 20 -11.7690 0.0747 
-17 7 21 -11.9459 0.3078 
-17 7 22 -3.1994 -0.1103 
-17 7 23 8.2463 -0.1080 
-17 7 24 6.4859 -0.1482 
-17 7 25 -1.4080 0.4696 
-17 7 26 4.1248 0.0772 
-17 7 27 -0.8808 0.0600 
-17 7 28 -4.7803 0.1289 
-17 9 1 -25.7073 -0.2754 
-17 9 2 27.5646 0.1438 
-17 9 3 2.7476 -0.1005 
-17 9 4 -31.8319 0.1054 
-17 9 5 -5.4143 0.0100 
-17 9 6 7.6812 0.3569 
-17 9 7 -3.9370 -0.1166 
-17 9 8 -10.4200 -0.1686 
-17 9 9 7.8397 -0.1166 
-17 9 10 9.8589 0.1227 
-17 9 11 7.4984 0.0704 
-17 9 12 6.9491 0.1661 
-17 9 13 1.4022 -0.0192 
-17 9 14 -7.8462 -0.1316 
-17 9 15 -7.0621 -0.0983 
-17 9 16 -6.7668 -0.1380 
-17 9 17 -10.0811 0.1247 
-17 9 18 3.6342 0.0728 
-17 9 19 -16.1291 0.1217 
-17 9 20 4.3932 0.0393 
-17 9 21 -0.9643 -0.0220 
-17 9 22 -7.0366 -0.0272 
-17 9 23 -1.9711 0.1224 
-17 9 24 -0.0146 -0.0896 
-17 9 25 0.7802 0.0793 
-17 9 26 5.9166 -0.1133 
-17 9 27 9.4712 -0.1290 
-17 11 1 -19.0575 -0.2569 
-17 11 2 -2.1542 0.4280 
-17 11 3 -42.8824 -0.1037 
-17 11 4 13.3948 0.2265 
-17 11 5 13.0579 -0.5726 
-17 11 6 -8.2611 0.3297 
-17 11 7 29.8780 -0.3416 
-17 11 8 0.0863 0.2546 
-17 11 9 4.3554 0.0131 
-17 11 10 5.8493 0.5358 
-17 11 11 3.4295 -0.3288 
-17 11 12 -8.8172 -0.1698 
-17 11 13 -8.8485 -0.3851 
-17 11 14 20.8112 0.5345 
-17 11 15 10.9447 0.0786 
-17 11 16 5.9382 0.0014 
-17 11 17 8.5919 -0.2411 
-17 11 18 -0.6327 -0.0305 
-17 11 19 -18.0946 0.0614 
-17 11 20 -1.6047 0.0717 
-17 11 21 1.3473 -0.1624 
-17 11 22 5.8834 0.1013 
-17 11 23 0.1673 -0.0931 
-17 11 24 12.1140 0.2487 
-17 11 25 9.5697 0.1380 
-17 11 26 1.0975 0.0429 
-17 11 27 -5.1289 0.3967 
-17 13 1 1.5382 0.0709 
-17 13 2 1.9105 0.0786 
-17 13 3 -0.7720 -0.1735 
-17 13 4 23.6836 -0.0913 
-17 13 5 -9.9121 0.0355 
-17 13 6 -37.1986 0.3951 
-17 13 7 13.1130 -0.0950 
-17 13 8 0.2321 -0.2153 
-17 13 9 -0.9728 -0.3338 
-17 13 10 14.0007 0.1602 
-17 13 11 4.7698 0.2590 
-17 13 12 5.0890 0.0015 
-17 13 13 -5.3618 -0.0309 
-17 13 14 -1.2120 0.1259 
-17 13 15 -21.5547 -0.1293 
-17 13 16 -10.9615 -0.1204 
-17 13 17 -6.0953 -0.1573 
-17 13 18 4.6523 0.2763 
-17 13 19 -10.6524 0.0543 
-17 13 20 -6.6661 -0.0755 
-17 13 21 4.2356 -0.0776 
-17 13 22 0.3718 0.1512 
-17 13 23 6.1764 -0.1061 
-17 13 24 5.5200 0.3368 
-17 13 25 -5.3572 -0.3174 
-17 13 26 -5.1627 0.3121 
-17 15 1 -5.0497 0.0827 
-17 15 2 -0.9315 0.1347 
-17 15 3 17.1331 0.2534 
-17 15 4 4.4790 -0.1501 
-17 15 5 4.4918 -0.0334 
-17 15 6 8.7663 -0.3939 
-17 15 7 41.5462 0.3067 
-17 15 8 8.1881 0.0256 
-17 15 9 -9.1124 0.2423 
-17 15 10 -8.9465 -0.1554 
-17 15 11 -16.4318 0.0845 
-17 15 12 12.8415 -0.2615 
-17 15 13 -4.5344 0.0636 
-17 15 14 12.5086 0.0257 
-17 15 15 14.3568 0.1633 
-17 15 16 21.7166 -0.1639 
-17 15 17 12.4232 0.0241 
-17 15 18 -0.8461 -0.0672 
-17 15 19 -9.5736 0.0084 
-17 15 20 9.3357 -0.0969 
-17 15 21 -4.7816 0.1114 
-17 15 22 -1.2439 -0.0505 
-17 15 23 -8.5747 0.0828 
-17 15 24 -2.4185 0.0144 
-17 15 25 -2.2148 -0.0510 
-17 17 1 7.9126 -0.0278 
-17 17 2 13.1002 -0.1425 
-17 17 3 7.2487 -0.0538 
-17 17 4 0.1622 0.1560 
-17 17 5 -10.5195 0.0191 
-17 17 6 -18.0997 0.0182 
-17 17 7 3.8313 0.0513 
-17 17 8 -1.6589 -0.0848 
-17 17 9 8.5171 -0.1927 
-17 17 10 -4.6509 -0.1377 
-17 17 11 -16.2792 0.1032 
-17 17 12 -0.7232 0.2388 
-17 17 13 -10.7334 0.1095 
-17 17 14 -0.7403 -0.1584 
-17 17 15 -0.6857 -0.2142 
-17 17 16 4.2168 0.0629 
-17 17 17 -3.0719 0.0190 
-17 17 18 -11.0461 0.0832 
-17 17 19 -4.7992 -0.1152 
-17 17 20 14.3460 0.0437 
-17 17 21 -7.3159 -0.0047 
-17 17 22 6.1476 -0.0697 
-17 17 23 5.8563 -0.0422 
-17 17 24 -7.4369 -0.5512 
-17 19 1 3.2190 -0.0447 
-17 19 2 -8.5499 0.0250 
-17 19 3 -2.9167 0.1273 
-17 19 4 -11.7907 0.0407 
-17 19 5 1.1184 -0.0937 
-17 19 6 12.6605 -0.2060 
-17 19 7 1.1798 0.0437 
-17 19 8 10.2918 0.1639 
-17 19 9 -5.9410 0.0762 
-17 19 10 -12.3563 -0.0619 
-17 19 11 -8.4011 -0.1911 
-17 19 12 3.3675 0.0926 
-17 19 13 0.3027 -0.1721 
-17 19 14 -3.1395 0.1089 
-17 19 15 2.4214 -0.0809 
-17 19 16 10.6168 0.3090 
-17 19 17 20.1789 -0.1438 
-17 19 18 -0.0467 0.0521 
-17 19 19 -12.7224 -0.2341 
-17 19 20 -2.7964 0.3341 
-17 19 21 -19.9252 -0.1711 
-17 19 22 -7.1253 0.0770 
-17 19 23 -0.2657 0.0076 
-17 21 1 14.3684 0.1396 
-17 21 2 6.8050 -0.1582 
-17 21 3 9.3776 -0.0285 
-17 21 4 -2.0365 -0.0780 
-17 21 5 -6.4707 0.2738 
-17 21 6 14.0421 0.0325 
-17 21 7 -0.5445 -0.0035 
-17 21 8 -0.3301 -0.1923 
-17 21 9 0.2393 -0.0309 
-17 21 10 6.8441 -0.0562 
-17 21 11 8.1245 0.1879 
-17 21 12 2.7888 -0.0719 
-17 21 13 -5.1828 0.1174 
-17 21 14 11.1720 -0.1463 
-17 21 15 -2.7395 -0.0258 
-17 21 16 -6.2962 -0.0318 
-17 21 17 -10.5093 -0.0665 
-17 21 18 -1.9697 -0.0334 
-17 21 19 -3.8861 -0.0882 
-17 21 20 -2.3305 0.4451 
-17 21 21 -5.2745 -0.8198 
-17 21 22 -0.9153 0.2652 
-17 23 1 2.3802 0.0735 
-17 23 2 -4.1640 0.0243 
-17 23 3 -9.9867 -0.0003 
-17 23 4 1.9858 -0.2215 
-17 23 5 -1.5714 0.0935 
-17 23 6 -3.6655 -0.0144 
-17 23 7 -3.6056 0.0239 
-17 23 8 -4.4558 -0.1413 
-17 23 9 -3.3302 0.1681 
-17 23 10 22.6856 0.1089 
-17 23 11 2.7049 -0.0649 
-17 23 12 -5.0341 -0.2298 
-17 23 13 3.2301 -0.0062 
-17 23 14 -3.3181 0.0230 
-17 23 15 -0.0150 0.1757 
-17 23 16 20.9440 -0.0194 
-17 23 17 -4.2594 -0.0061 
-17 23 18 10.2785 -0.2087 
-17 23 19 1.8949 0.2788 
-17 23 20 1.2094 -0.0480 
-17 25 1 -2.7011 0.0161 
-17 25 2 3.3152 0.0070 
-17 25 3 -4.2836 -0.0106 
-17 25 4 -2.1173 -0.0123 
-17 25 5 4.9971 -0.0228 
-17 25 6 11.4493 0.1265 
-17 25 7 3.7285 -0.0715 
-17 25 8 -3.9917 -0.0644 
-17 25 9 4.0038 -0.0027 
-17 25 10 8.3439 0.0647 
-17 25 11 -5.3402 0.0292 
-17 25 12 0.8836 0.0640 
-17 25 13 -5.8782 -0.0223 
-17 25 14 -7.8585 -0.0970 
-17 25 15 1.0945 -0.0379 
-17 25 16 12.3624 -0.0702 
-17 25 17 -2.2538 -0.0149 
-17 25 18 0.8656 0.4682 
-17 27 1 10.1015 0.1018 
-17 27 2 4.4460 -0.0562 
-17 27 3 -9.1874 0.1042 
-17 27 4 -2.8108 0.0642 
-17 27 5 7.4778 -0.0884 
-17 27 6 15.8718 -0.0841 
-17 27 7 2.3762 -0.0719 
-17 27 8 -5.5500 0.0592 
-17 27 9 18.0520 0.0203 
-17 27 10 10.2729 0.0789 
-17 27 11 -3.4448 -0.0750 
-17 27 12 1.2576 -0.0063 
-17 27 13 11.6572 0.0942 
-17 27 14 6.5939 -0.1376 
-17 27 15 -0.7433 0.4769 
-17 29 1 -2.2435 -0.0736 
-17 29 2 5.5094 -0.0299 
-17 29 3 -6.4165 0.1978 
-17 29 4 5.2580 -0.0037 
-17 29 5 -6.3545 -0.0033 
-17 29 6 -12.9145 -0.3434 
-17 29 7 -5.9064 0.1191 
-17 29 8 -11.7765 -0.0809 
-17 29 9 15.5565 0.0195 
-17 29 10 -1.6091 0.3645 
-17 29 11 -11.0713 -0.1046 
-16 0 1 -28.3768 3.2702 
-16 0 2 16.9851 -2.5664 
-16 0 3 34.6768 2.3016 
-16 0 4 -37.7595 -0.1374 
-16 0 5 -43.3874 4.5560 
-16 0 6 -27.5974 -2.5029 
-16 0 7 92.9063 -2.5030 
-16 0 8 52.1046 -4.4492 
-16 0 9 -11.2973 5.4767 
-16 0 10 -24.3928 2.7251 
-16 0 11 50.2670 1.0411 
-16 0 12 43.6679 -3.9127 
-16 0 13 -12.2419 0.2205 
-16 0 14 2.3511 -0.3763 
-16 0 15 -17.4156 1.1824 
-16 0 16 12.4219 -0.9331 
-16 0 17 -3.0392 0.6680 
-16 0 18 -4.4646 -0.7693 
-16 0 19 -20.1595 0.9729 
-16 0 20 -21.9472 -0.1968 
-16 0 21 -1.9728 0.0609 
-16 0 22 -7.2014 -1.0425 
-16 0 23 -39.8686 0.1297 
-16 0 24 9.6732 -0.0767 
-16 0 25 18.2038 0.0045 
-16 0 26 -9.9325 -0.2550 
-16 0 27 -9.9905 0.9754 
-16 0 28 -9.8416 0.4492 
-16 0 29 7.1632 0.5575 
-16 2 1 -12.1226 1.1176 
-16 2 2 -24.0919 -0.3828 
-16 2 3 -0.8406 -0.8071 
-16 2 4 -1.8519 -1.9725 
-16 2 5 7.4838 1.5266 
-16 2 6 -69.4066 0.5451 
-16 2 7 -10.0258 1.1010 
-16 2 8 16.7987 -1.1361 
-16 2 9 41.8634 0.6395 
-16 2 10 -29.8438 -0.9319 
-16 2 11 -12.6400 -0.5487 
-16 2 12 3.2332 -0.7681 
-16 2 13 -17.5289 1.6463 
-16 2 14 21.1626 0.2691 
-16 2 15 -14.7258 -0.2133 
-16 2 16 4.7879 -0.6847 
-16 2 17 -12.2623 0.3245 
-16 2 18 1.9156 0.2215 
-16 2 19 -7.5266 0.0074 
-16 2 20 -16.6123 -0.2731 
-16 2 21 -7.7901 0.0590 
-16 2 22 0.4628 -0.1967 
-16 2 23 0.1948 0.2541 
-16 2 24 1.1511 0.3359 
-16 2 25 3.7936 0.2105 
-16 2 26 6.9250 -0.4308 
-16 2 27 -3.8218 -0.1782 
-16 2 28 4.4986 0.2285 
-16 4 1 -1.2569 -0.4302 
-16 4 2 -24.6978 0.0117 
-16 4 3 -5.9874 0.3704 
-16 4 4 22.0406 0.4318 
-16 4 5 25.1613 0.0933 
-16 4 6 6.0051 -0.2533 
-16 4 7 -12.4137 -0.6170 
-16 4 8 -38.6706 -0.2672 
-16 4 9 14.6594 0.4328 
-16 4 10 -29.3680 0.5081 
-16 4 11 19.6115 0.0665 
-16 4 12 25.8234 -0.1631 
-16 4 13 -14.2927 0.0064 
-16 4 14 20.2861 -0.1521 
-16 4 15 -3.4613 -0.3508 
-16 4 16 17.1502 0.2028 
-16 4 17 6.7832 0.1976 
-16 4 18 3.0550 0.1680 
-16 4 19 -15.6436 -0.5575 
-16 4 20 -5.6304 0.1378 
-16 4 21 -4.8397 0.2856 
-16 4 22 3.6145 0.3325 
-16 4 23 9.5259 -0.4872 
-16 4 24 9.6409 -0.0097 
-16 4 25 -0.9537 0.0885 
-16 4 26 3.4089 0.1619 
-16 4 27 -2.7358 0.0212 
-16 4 28 -0.5120 0.2634 
-16 6 1 1.2947 0.1698 
-16 6 2 -3.9211 -0.4015 
-16 6 3 4.3926 0.1417 
-16 6 4 19.2189 -0.2916 
-16 6 5 5.9114 -0.2899 
-16 6 6 -13.5513 -0.0235 
-16 6 7 23.2742 0.9007 
-16 6 8 7.9357 0.0732 
-16 6 9 -10.1544 -0.1819 
-16 6 10 -4.4705 -0.7091 
-16 6 11 4.6197 -0.0702 
-16 6 12 3.8196 0.3581 
-16 6 13 -10.3308 0.2852 
-16 6 14 3.3794 -0.2098 
-16 6 15 -7.2015 -0.2107 
-16 6 16 6.4401 0.0889 
-16 6 17 -10.5921 0.2480 
-16 6 18 -12.4894 -0.0576 
-16 6 19 -5.1798 -0.1203 
-16 6 20 1.9739 -0.1511 
-16 6 21 -10.3820 0.2360 
-16 6 22 -8.5156 -0.0001 
-16 6 23 -4.0361 -0.0677 
-16 6 24 10.0036 -0.0603 
-16 6 25 2.1288 0.3838 
-16 6 26 11.8182 0.0558 
-16 6 27 -6.0628 -0.2479 
-16 6 28 2.2433 -0.0034 
-16 8 1 20.6416 -0.4053 
-16 8 2 -38.3320 -0.3316 
-16 8 3 33.1339 0.5919 
-16 8 4 -7.6890 0.2148 
-16 8 5 -20.1571 -0.0047 
-16 8 6 0.2622 -0.4543 
-16 8 7 -15.4288 0.0732 
-16 8 8 -2.6008 -0.2512 
-16 8 9 17.8045 0.3491 
-16 8 10 27.0055 -0.3618 
-16 8 11 1.8782 0.5427 
-16 8 12 -12.0083 -0.1953 
-16 8 13 -22.9944 -0.0043 
-16 8 14 8.2739 -0.4310 
-16 8 15 0.2787 0.3731 
-16 8 16 9.3327 -0.0509 
-16 8 17 -1.0777 0.0377 
-16 8 18 20.9298 -0.2362 
-16 8 19 5.1747 0.2378 
-16 8 20 -20.6698 -0.0036 
-16 8 21 -7.0789 0.1368 
-16 8 22 1.3534 -0.0241 
-16 8 23 3.8302 0.2059 
-16 8 24 -3.7603 -0.3894 
-16 8 25 -7.1813 0.2335 
-16 8 26 -4.5553 -0.2130 
-16 8 27 -6.3579 0.3168 
-16 8 28 7.2557 0.1198 
-16 10 1 18.0887 0.0272 
-16 10 2 -15.3627 0.2040 
-16 10 3 21.9252 -0.1218 
-16 10 4 1.0883 -0.0603 
-16 10 5 2.1640 -0.1366 
-16 10 6 0.0836 0.1631 
-16 10 7 -25.8537 0.0071 
-16 10 8 4.6451 0.0401 
-16 10 9 4.1990 -0.0598 
-16 10 10 -11.5631 -0.0011 
-16 10 11 8.6595 -0.0453 
-16 10 12 35.3853 0.0601 
-16 10 13 0.6049 -0.0673 
-16 10 14 -2.6349 -0.0065 
-16 10 15 -10.6511 0.2355 
-16 10 16 -14.7977 -0.1613 
-16 10 17 -8.4746 -0.0318 
-16 10 18 5.9790 -0.1843 
-16 10 19 4.1429 0.2768 
-16 10 20 -9.2700 -0.0319 
-16 10 21 -9.1465 -0.0859 
-16 10 22 4.7474 -0.0975 
-16 10 23 -2.0735 0.2387 
-16 10 24 -18.8698 0.0854 
-16 10 25 -4.9155 0.0612 
-16 10 26 11.2159 -0.1416 
-16 10 27 -7.6635 -0.0030 
-16 12 1 18.5092 -0.1249 
-16 12 2 7.2365 0.1404 
-16 12 3 18.0337 -0.1822 
-16 12 4 17.8370 0.1830 
-16 12 5 -5.0718 -0.1403 
-16 12 6 -5.0319 0.2033 
-16 12 7 6.4669 -0.3229 
-16 12 8 10.1233 0.0354 
-16 12 9 -10.9381 -0.1067 
-16 12 10 -3.4586 0.3296 
-16 12 11 -0.3485 -0.1678 
-16 12 12 3.9688 -0.1276 
-16 12 13 -8.7005 -0.0524 
-16 12 14 10.9972 0.2423 
-16 12 15 12.8854 0.0016 
-16 12 16 2.9318 0.0180 
-16 12 17 -11.7303 -0.2007 
-16 12 18 -18.9148 0.0097 
-16 12 19 5.8380 0.1786 
-16 12 20 -10.2548 -0.0102 
-16 12 21 -6.4204 -0.0336 
-16 12 22 5.7647 -0.0529 
-16 12 23 4.4472 -0.0164 
-16 12 24 10.2410 0.1617 
-16 12 25 0.8703 -0.1447 
-16 12 26 -8.0720 -0.1402 
-16 12 27 -2.8450 1.1005 
-16 14 1 8.1508 0.1884 
-16 14 2 -4.4681 0.0090 
-16 14 3 16.3786 -0.0467 
-16 14 4 2.5970 -0.0932 
-16 14 5 9.8642 0.0550 
-16 14 6 3.7679 -0.0407 
-16 14 7 -16.2421 0.0827 
-16 14 8 -3.5723 -0.0868 
-16 14 9 1.7217 -0.0252 
-16 14 10 30.9007 -0.0479 
-16 14 11 8.5073 0.1841 
-16 14 12 -8.6815 -0.1242 
-16 14 13 -5.7276 0.1323 
-16 14 14 -1.5010 -0.1413 
-16 14 15 -1.5903 0.1022 
-16 14 16 12.5255 -0.1602 
-16 14 17 4.6934 0.1027 
-16 14 18 -0.2323 -0.0213 
-16 14 19 2.9162 0.0193 
-16 14 20 -4.6105 -0.1847 
-16 14 21 -0.4919 0.1912 
-16 14 22 0.9539 0.0250 
-16 14 23 -12.0729 0.0384 
-16 14 24 -9.8145 0.1686 
-16 14 25 -0.1200 0.0746 
-16 14 26 3.0178 0.2446 
-16 16 1 7.6683 -0.0830 
-16 16 2 -3.7785 0.0488 
-16 16 3 -0.3677 -0.0084 
-16 16 4 5.8224 0.1631 
-16 16 5 10.4536 -0.1378 
-16 16 6 -6.4407 -0.1077 
-16 16 7 0.6710 0.0736 
-16 16 8 2.9109 0.1720 
-16 16 9 -4.2993 -0.0403 
-16 16 10 -1.3977 -0.2389 
-16 16 11 13.3531 0.1514 
-16 16 12 6.7683 -0.0807 
-16 16 13 3.1021 0.1678 
-16 16 14 5.9673 -0.0580 
-16 16 15 -4.8150 0.1112 
-16 16 16 -0.2715 -0.2414 
-16 16 17 -18.8195 0.1157 
-16 16 18 -6.6932 -0.1185 
-16 16 19 1.1135 0.0526 
-16 16 20 0.6040 -0.1119 
-16 16 21 -0.4555 0.2062 
-16 16 22 11.4099 -0.1443 
-16 16 23 0.2762 -0.0336 
-16 16 24 6.6991 -0.2879 
-16 16 25 -8.7340 0.0934 
-16 18 1 3.6075 -0.2830 
-16 18 2 15.6086 0.0325 
-16 18 3 11.3523 0.0582 
-16 18 4 -0.4620 0.1359 
-16 18 5 -4.5787 -0.1342 
-16 18 6 -13.4658 -0.0005 
-16 18 7 2.4961 -0.0983 
-16 18 8 4.6003 0.2252 
-16 18 9 -4.7491 -0.1929 
-16 18 10 6.3589 0.0321 
-16 18 11 12.4749 0.0039 
-16 18 12 1.1649 0.2364 
-16 18 13 -0.6117 -0.1452 
-16 18 14 1.3131 -0.0583 
-16 18 15 7.6077 -0.0737 
-16 18 16 2.8493 0.0621 
-16 18 17 -11.0738 0.0955 
-16 18 18 4.9925 -0.1038 
-16 18 19 -13.3720 -0.0681 
-16 18 20 -0.3339 0.0604 
-16 18 21 -9.7211 0.0331 
-16 18 22 -4.3948 -0.0288 
-16 18 23 0.9321 0.0694 
-16 18 24 -4.4804 -0.2541 
-16 20 1 10.3569 0.0471 
-16 20 2 -1.9727 0.0302 
-16 20 3 1.2011 0.0604 
-16 20 4 -6.8610 -0.1021 
-16 20 5 5.4059 0.0810 
-16 20 6 6.7340 -0.0436 
-16 20 7 17.1570 0.1128 
-16 20 8 10.2379 -0.0357 
-16 20 9 -7.8549 0.0343 
-16 20 10 8.3304 -0.0722 
-16 20 11 0.6850 -0.0683 
-16 20 12 11.0101 0.0311 
-16 20 13 6.7131 -0.0269 
-16 20 14 7.0110 0.1011 
-16 20 15 6.4825 -0.0839 
-16 20 16 9.4839 0.1799 
-16 20 17 -0.7559 -0.1423 
-16 20 18 -1.8760 -0.0283 
-16 20 19 -5.6419 0.0474 
-16 20 20 2.2884 0.2209 
-16 20 21 -3.2962 -0.2805 
-16 20 22 10.3741 -0.6408 
-16 22 1 21.3987 0.1686 
-16 22 2 4.2805 -0.1165 
-16 22 3 -0.6656 0.0571 
-16 22 4 6.4941 -0.0900 
-16 22 5 -3.6672 0.2118 
-16 22 6 -7.4072 -0.0717 
-16 22 7 -0.3568 0.0017 
-16 22 8 3.2626 -0.2260 
-16 22 9 1.7742 0.1002 
-16 22 10 -1.0068 0.0871 
-16 22 11 -15.4896 0.1280 
-16 22 12 5.7906 -0.1510 
-16 22 13 7.8007 0.1372 
-16 22 14 5.5176 -0.1086 
-16 22 15 3.0817 0.0654 
-16 22 16 27.4578 0.0241 
-16 22 17 4.7920 -0.1734 
-16 22 18 -2.5766 -0.1428 
-16 22 19 0.8374 -0.1299 
-16 22 20 -1.3160 0.0852 
-16 22 21 -7.6788 -0.3006 
-16 24 1 6.5291 0.0788 
-16 24 2 7.5384 0.0582 
-16 24 3 -11.1013 -0.0730 
-16 24 4 8.4546 -0.0741 
-16 24 5 5.4474 0.0062 
-16 24 6 3.1953 0.0855 
-16 24 7 1.5445 0.0590 
-16 24 8 3.0011 -0.0924 
-16 24 9 -10.1979 0.0452 
-16 24 10 -2.9703 0.0853 
-16 24 11 0.1126 -0.1311 
-16 24 12 6.5324 -0.0854 
-16 24 13 -3.0478 0.0236 
-16 24 14 7.5651 0.0426 
-16 24 15 -2.9645 0.1159 
-16 24 16 3.5613 -0.0828 
-16 24 17 5.8158 0.0357 
-16 24 18 0.1931 0.5516 
-16 24 19 14.5757 -0.5008 
-16 26 1 18.3880 -0.0829 
-16 26 2 12.2346 0.0328 
-16 26 3 2.9049 -0.0068 
-16 26 4 -0.1379 0.0776 
-16 26 5 -11.3119 0.0056 
-16 26 6 -12.5854 0.1024 
-16 26 7 -18.8827 -0.1895 
-16 26 8 3.3941 -0.0271 
-16 26 9 -7.0518 -0.0028 
-16 26 10 2.4494 0.1244 
-16 26 11 2.4133 0.0138 
-16 26 12 1.0976 0.1611 
-16 26 13 0.9736 -0.1862 
-16 26 14 -3.6187 0.1082 
-16 26 15 -0.4262 0.0204 
-16 26 16 6.2144 -0.6908 
-16 26 17 -4.9635 0.4526 
-16 28 1 -2.0878 -0.1191 
-16 28 2 0.0179 0.0714 
-16 28 3 -9.8559 0.1381 
-16 28 4 -3.3188 -0.1986 
-16 28 5 -1.1903 0.0688 
-16 28 6 4.7768 -0.0390 
-16 28 7 -8.1328 0.1242 
-16 28 8 0.6310 -0.1227 
-16 28 9 -0.8582 0.1151 
-16 28 10 8.5069 0.0010 
-16 28 11 9.2000 0.0389 
-16 28 12 7.1538 0.0126 
-16 28 13 -5.8648 -0.4548 
-16 28 14 -8.9286 0.1318 
-16 30 1 3.1557 0.2543 
-16 30 2 0.1598 -0.1073 
-16 30 3 -12.0220 -0.0366 
-16 30 4 4.8115 -0.0490 
-16 30 5 12.0194 0.2960 
-16 30 6 -0.2120 -0.0283 
-16 30 7 -12.1931 -0.2886 
-16 30 8 1.6330 -0.3474 
-16 30 9 3.8844 0.5404 
-15 1 1 -40.6485 -0.1752 
-15 1 2 36.6407 -0.7674 
-15 1 3 -10.9405 -1.2236 
-15 1 4 16.1508 0.0330 
-15 1 5 16.2987 1.1557 
-15 1 6 -41.1557 -1.2087 
-15 1 7 -54.1648 0.5506 
-15 1 8 -16.6636 -0.2632 
-15 1 9 19.3632 1.1748 
-15 1 10 -9.3873 -0.6402 
-15 1 11 -5.1054 0.2726 
-15 1 12 34.0871 -1.4797 
-15 1 13 -15.4220 0.7829 
-15 1 14 10.8506 0.1324 
-15 1 15 -9.2289 1.1338 
-15 1 16 8.6039 -1.1377 
-15 1 17 4.8688 -0.2350 
-15 1 18 -13.2124 -0.1540 
-15 1 19 -3.4110 1.1585 
-15 1 20 12.1945 -0.3251 
-15 1 21 0.5659 -0.4162 
-15 1 22 1.4128 -0.5266 
-15 1 23 15.2085 0.6432 
-15 1 24 5.7990 0.0911 
-15 1 25 -8.6726 -0.1583 
-15 1 26 1.9903 -0.3864 
-15 1 27 -4.9601 0.3564 
-15 1 28 2.5284 0.2692 
-15 1 29 -13.0591 -0.2979 
-15 3 1 4.8564 -0.5257 
-15 3 2 -32.6288 0.6956 
-15 3 3 -72.6997 -0.9660 
-15 3 4 -35.6299 0.8954 
-15 3 5 -76.6704 -0.2903 
-15 3 6 -86.3767 0.5274 
-15 3 7 -16.9570 -0.4449 
-15 3 8 -1.9608 -0.0335 
-15 3 9 6.1784 -0.0893 
-15 3 10 -23.2560 -0.0395 
-15 3 11 14.8889 0.2187 
-15 3 12 18.9830 0.2420 
-15 3 13 -2.5903 -0.1880 
-15 3 14 27.5840 -0.3220 
-15 3 15 -24.8087 -0.1265 
-15 3 16 -3.2662 0.5078 
-15 3 17 6.3221 -0.0047 
-15 3 18 -2.1701 0.0922 
-15 3 19 -16.0171 -0.2416 
-15 3 20 6.3165 0.2235 
-15 3 21 -4.8639 -0.2641 
-15 3 22 -16.6343 0.4416 
-15 3 23 8.9278 -0.1362 
-15 3 24 -9.0810 0.2230 
-15 3 25 -2.1397 -0.1767 
-15 3 26 -3.8156 -0.2367 
-15 3 27 -6.8849 0.3316 
-15 3 28 -9.1343 0.0092 
-15 5 1 7.7937 -0.2914 
-15 5 2 1.7108 0.6281 
-15 5 3 18.8030 0.2905 
-15 5 4 9.0119 -0.2221 
-15 5 5 -32.4369 -0.8964 
-15 5 6 -0.4458 0.2428 
-15 5 7 -32.9923 0.0649 
-15 5 8 -33.1248 0.6402 
-15 5 9 25.0089 -0.3716 
-15 5 10 -9.2318 0.0281 
-15 5 11 16.9998 -0.4859 
-15 5 12 5.7653 0.5012 
-15 5 13 -10.5916 0.0992 
-15 5 14 6.5368 -0.0428 
-15 5 15 -8.1659 -0.4339 
-15 5 16 -10.5540 0.2911 
-15 5 17 14.6743 0.0050 
-15 5 18 24.7722 0.0404 
-15 5 19 -16.6084 -0.2948 
-15 5 20 1.6090 0.3672 
-15 5 21 14.9004 -0.0716 
-15 5 22 -1.6434 0.1024 
-15 5 23 6.4742 -0.5350 
-15 5 24 11.7402 0.2635 
-15 5 25 7.1756 0.1551 
-15 5 26 1.2773 0.2046 
-15 5 27 -0.6934 -0.3065 
-15 5 28 9.1193 -0.0643 
-15 7 1 -34.6092 -0.1134 
-15 7 2 -11.7535 -0.6262 
-15 7 3 1.3395 0.3275 
-15 7 4 9.2401 -0.0108 
-15 7 5 -0.7115 0.0002 
-15 7 6 -12.6972 0.1407 
-15 7 7 2.5260 0.3735 
-15 7 8 -6.5609 -0.3688 
-15 7 9 -19.2395 -0.1949 
-15 7 10 -21.1828 -0.0361 
-15 7 11 8.5621 0.0736 
-15 7 12 0.4931 0.1499 
-15 7 13 7.0953 -0.0704 
-15 7 14 4.6820 -0.1280 
-15 7 15 -18.1633 -0.1800 
-15 7 16 6.8540 0.2774 
-15 7 17 0.1268 0.2898 
-15 7 18 -15.8340 -0.1728 
-15 7 19 -17.5823 -0.2843 
-15 7 20 -14.5142 -0.0308 
-15 7 21 -0.1252 0.3993 
-15 7 22 4.7171 0.1341 
-15 7 23 -6.9137 -0.0496 
-15 7 24 -16.1647 -0.1068 
-15 7 25 -13.8793 0.1143 
-15 7 26 -1.5433 -0.1222 
-15 7 27 -11.1494 -0.1307 
-15 7 28 -2.6484 0.2199 
-15 9 1 -47.3862 0.2930 
-15 9 2 7.3955 -0.0414 
-15 9 3 6.5163 0.3456 
-15 9 4 -1.6529 0.0740 
-15 9 5 16.9053 -0.3449 
-15 9 6 20.8186 -0.1148 
-15 9 7 -19.8000 -0.0429 
-15 9 8 -5.7047 0.1815 
-15 9 9 31.7637 -0.0250 
-15 9 10 -9.9979 0.2051 
-15 9 11 2.3286 -0.1758 
-15 9 12 -13.9941 -0.1815 
-15 9 13 -12.1402 0.0333 
-15 9 14 0.8090 0.2942 
-15 9 15 -1.9912 -0.0722 
-15 9 16 19.2501 -0.1655 
-15 9 17 -5.0407 -0.1066 
-15 9 18 -1.0781 0.1016 
-15 9 19 -1.1398 0.0831 
-15 9 20 -10.4603 0.0247 
-15 9 21 -7.0259 0.0232 
-15 9 22 -9.1976 -0.1032 
-15 9 23 3.3572 0.0118 
-15 9 24 15.7458 0.0408 
-15 9 25 6.4253 0.2017 
-15 9 26 12.8284 0.0077 
-15 9 27 6.2146 0.1584 
-15 11 1 -26.6271 0.1968 
-15 11 2 31.9639 -0.2048 
-15 11 3 3.8598 -0.5005 
-15 11 4 26.2682 0.3697 
-15 11 5 -6.2329 0.1418 
-15 11 6 -12.2858 0.4607 
-15 11 7 -23.9166 -0.4766 
-15 11 8 -14.8453 0.1550 
-15 11 9 8.9931 -0.5699 
-15 11 10 -2.8626 0.4821 
-15 11 11 27.9271 -0.2781 
-15 11 12 9.5310 0.2117 
-15 11 13 0.2551 -0.4462 
-15 11 14 0.7875 0.5072 
-15 11 15 -7.2115 -0.1998 
-15 11 16 18.8734 0.1914 
-15 11 17 11.1792 -0.3162 
-15 11 18 2.4600 0.2795 
-15 11 19 14.7891 -0.1201 
-15 11 20 -9.6361 0.0357 
-15 11 21 0.6880 -0.1473 
-15 11 22 -3.4819 0.1980 
-15 11 23 -8.8864 0.0714 
-15 11 24 6.5128 0.0200 
-15 11 25 -3.9744 -0.1337 
-15 11 26 2.2657 -0.3547 
-15 11 27 -6.2619 0.5677 
-15 13 1 2.7387 0.3298 
-15 13 2 -1.8896 -0.0412 
-15 13 3 -26.4119 -0.0490 
-15 13 4 20.8002 -0.0829 
-15 13 5 -2.0641 0.0740 
-15 13 6 -8.8724 -0.2055 
-15 13 7 1.1673 -0.2229 
-15 13 8 12.4355 0.4480 
-15 13 9 -1.1883 -0.0332 
-15 13 10 -10.1339 0.1712 
-15 13 11 -16.1385 -0.3246 
-15 13 12 5.3711 0.0984 
-15 13 13 6.9688 -0.1934 
-15 13 14 4.3446 0.2202 
-15 13 15 2.9482 -0.1195 
-15 13 16 7.0987 0.0859 
-15 13 17 -4.3284 -0.3399 
-15 13 18 -1.4637 0.3537 
-15 13 19 5.5881 -0.0529 
-15 13 20 -15.6997 0.1631 
-15 13 21 8.3413 -0.2933 
-15 13 22 -3.8713 0.1314 
-15 13 23 -3.6014 0.0184 
-15 13 24 -2.1778 0.1511 
-15 13 25 -7.2535 -0.0842 
-15 13 26 4.4563 -0.1385 
-15 15 1 15.0093 -0.0200 
-15 15 2 7.7175 -0.2227 
-15 15 3 10.3702 0.0236 
-15 15 4 12.4653 -0.0220 
-15 15 5 3.1856 0.4588 
-15 15 6 -8.3341 -0.2809 
-15 15 7 -8.9395 0.0923 
-15 15 8 -8.0145 -0.1845 
-15 15 9 -6.8958 0.0429 
-15 15 10 3.6760 -0.2288 
-15 15 11 -5.5548 0.0949 
-15 15 12 18.9609 0.2311 
-15 15 13 -12.6341 -0.0742 
-15 15 14 -1.0522 -0.1460 
-15 15 15 8.4985 0.0418 
-15 15 16 1.0999 0.1170 
-15 15 17 16.7875 0.0955 
-15 15 18 6.2963 -0.2009 
-15 15 19 -4.8892 -0.0754 
-15 15 20 -16.0000 0.0371 
-15 15 21 -9.2510 0.0352 
-15 15 22 -4.8786 0.1650 
-15 15 23 -19.1951 -0.1444 
-15 15 24 3.9773 -0.0875 
-15 15 25 11.6825 0.1182 
-15 17 1 -0.9874 -0.1305 
-15 17 2 11.8310 0.2066 
-15 17 3 -11.9232 0.0529 
-15 17 4 4.6942 0.0252 
-15 17 5 11.3972 -0.3773 
-15 17 6 -2.9980 -0.1423 
-15 17 7 3.0919 0.1450 
-15 17 8 -4.9043 0.3334 
-15 17 9 -4.1554 0.0452 
-15 17 10 -1.6046 -0.2242 
-15 17 11 -1.8151 -0.0310 
-15 17 12 8.6088 0.1388 
-15 17 13 -9.9342 0.0204 
-15 17 14 4.7648 -0.0645 
-15 17 15 0.7362 -0.0786 
-15 17 16 -7.1760 0.1411 
-15 17 17 9.0362 -0.0560 
-15 17 18 10.8815 -0.2297 
-15 17 19 0.7462 0.0079 
-15 17 20 -6.3358 0.1713 
-15 17 21 -5.0758 0.0195 
-15 17 22 6.8503 -0.1322 
-15 17 23 -5.5677 -0.0489 
-15 17 24 11.4656 0.3254 
-15 19 1 -3.0535 -0.2622 
-15 19 2 12.3999 -0.0183 
-15 19 3 -5.7000 0.0188 
-15 19 4 12.6613 0.2134 
-15 19 5 30.6412 -0.1145 
-15 19 6 -0.2180 0.0721 
-15 19 7 -4.8104 -0.0424 
-15 19 8 9.1586 0.0062 
-15 19 9 -6.3757 -0.2012 
-15 19 10 6.7740 -0.0031 
-15 19 11 7.9692 0.0953 
-15 19 12 -1.1948 0.1171 
-15 19 13 -4.5309 -0.0494 
-15 19 14 0.7842 -0.0346 
-15 19 15 -15.9816 -0.1375 
-15 19 16 -4.5898 0.2173 
-15 19 17 -3.4066 -0.0113 
-15 19 18 -7.8515 0.0595 
-15 19 19 -2.8881 -0.1685 
-15 19 20 -0.4691 0.0326 
-15 19 21 -2.0322 0.0507 
-15 19 22 7.8623 -0.3538 
-15 19 23 -1.6239 0.3470 
-15 21 1 -4.9818 0.1409 
-15 21 2 1.5918 0.0149 
-15 21 3 1.5262 0.0886 
-15 21 4 8.7145 -0.1785 
-15 21 5 2.6735 -0.0589 
-15 21 6 -10.3747 0.0164 
-15 21 7 -14.2416 0.0133 
-15 21 8 8.9519 -0.0029 
-15 21 9 3.3795 0.1318 
-15 21 10 -6.6721 -0.0117 
-15 21 11 2.9603 -0.0023 
-15 21 12 -4.1259 -0.2498 
-15 21 13 -10.0395 0.1871 
-15 21 14 8.5649 -0.0043 
-15 21 15 -19.8002 0.1750 
-15 21 16 -1.6645 -0.1843 
-15 21 17 -6.2805 -0.0138 
-15 21 18 2.8728 0.0293 
-15 21 19 11.5386 -0.1317 
-15 21 20 4.4775 0.2675 
-15 21 21 -2.6741 -0.2257 
-15 21 22 -4.4512 -0.2339 
-15 23 1 -0.9698 -0.0173 
-15 23 2 0.1332 -0.0674 
-15 23 3 -0.8330 0.0455 
-15 23 4 -4.7728 -0.0725 
-15 23 5 -1.4037 0.2452 
-15 23 6 3.3196 0.0651 
-15 23 7 -1.1023 -0.0610 
-15 23 8 7.0107 -0.3340 
-15 23 9 0.4131 0.0923 
-15 23 10 2.8200 0.0944 
-15 23 11 -2.5317 0.0443 
-15 23 12 9.3811 -0.0994 
-15 23 13 12.3630 -0.0120 
-15 23 14 0.0046 0.0655 
-15 23 15 -12.7299 0.1251 
-15 23 16 14.2653 -0.1423 
-15 23 17 -10.0312 0.1375 
-15 23 18 -3.9611 0.0057 
-15 23 19 -2.5907 -0.0078 
-15 23 20 -0.8898 -0.4381 
-15 25 1 -7.3270 0.0119 
-15 25 2 -2.7395 0.0823 
-15 25 3 8.2563 -0.0389 
-15 25 4 -4.9596 -0.0930 
-15 25 5 2.9916 -0.0485 
-15 25 6 2.4219 0.0653 
-15 25 7 0.2347 0.0561 
-15 25 8 4.3493 -0.0839 
-15 25 9 -0.9744 0.0682 
-15 25 10 3.7073 0.0795 
-15 25 11 3.3053 -0.0925 
-15 25 12 15.7114 0.0041 
-15 25 13 2.0582 -0.1311 
-15 25 14 5.4879 0.2388 
-15 25 15 -11.8226 -0.0684 
-15 25 16 -0.3696 -0.1160 
-15 25 17 0.1777 -0.1373 
-15 25 18 -4.9015 0.3726 
-15 27 1 11.2921 0.0327 
-15 27 2 -12.8477 -0.0448 
-15 27 3 9.5423 0.0783 
-15 27 4 13.1878 -0.0406 
-15 27 5 1.2243 0.0060 
-15 27 6 8.6453 0.0890 
-15 27 7 14.5407 -0.0182 
-15 27 8 -7.7887 -0.0831 
-15 27 9 2.4829 -0.0465 
-15 27 10 8.4884 -0.0390 
-15 27 11 -1.6753 0.2286 
-15 27 12 4.1543 -0.0058 
-15 27 13 -3.3387 -0.0978 
-15 27 14 3.4722 0.0211 
-15 27 15 -1.9053 -0.4082 
-15 27 16 0.8674 0.3990 
-15 29 1 6.5563 0.0718 
-15 29 2 -9.3053 -0.1314 
-15 29 3 -9.5283 -0.0043 
-15 29 4 6.5977 -0.2088 
-15 29 5 -6.3861 0.1633 
-15 29 6 2.6342 0.0647 
-15 29 7 31.8671 -0.0548 
-15 29 8 -0.5501 0.0707 
-15 29 9 3.2658 0.1230 
-15 29 10 1.1055 -0.1514 
-15 29 11 -3.8123 0.1815 
-15 29 12 0.7920 -0.1682 
-15 31 1 -5.3600 0.1528 
-15 31 2 0.2809 0.3571 
-15 31 3 -1.8747 0.3222 
-15 31 4 -5.9264 -0.3015 
-15 31 5 -5.9911 -0.0481 
-15 31 6 -4.5416 -0.0952 
-14 0 1 -48.9938 1.0920 
-14 0 2 -57.9965 -1.7822 
-14 0 3 -11.1489 0.1937 
-14 0 4 -7.6968 -2.6315 
-14 0 5 -53.0215 2.0792 
-14 0 6 33.1424 0.0617 
-14 0 7 -40.3022 0.4216 
-14 0 8 -120.8587 -4.0232 
-14 0 9 -81.5750 0.7602 
-14 0 10 -1.6861 0.9505 
-14 0 11 25.6955 2.6782 
-14 0 12 -3.7432 -1.6633 
-14 0 13 25.0509 0.8308 
-14 0 14 28.1057 -1.4161 
-14 0 15 1.1516 -0.2258 
-14 0 16 15.6027 -3.3882 
-14 0 17 -0.8060 2.4074 
-14 0 18 1.4374 1.9884 
-14 0 19 -27.0914 2.5655 
-14 0 20 -3.0405 -3.4353 
-14 0 21 25.1652 -1.6110 
-14 0 22 5.3754 -0.7496 
-14 0 23 -14.0782 1.5695 
-14 0 24 4.1421 0.1905 
-14 0 25 9.2003 0.2987 
-14 0 26 0.4280 -0.3573 
-14 0 27 3.5161 0.1682 
-14 0 28 -6.6952 -0.3251 
-14 0 29 -8.4997 -0.4839 
-14 2 1 -6.2530 -0.8081 
-14 2 2 2.0648 0.4719 
-14 2 3 -12.0498 0.6642 
-14 2 4 63.1311 -0.6731 
-14 2 5 -1.0214 -0.0179 
-14 2 6 -57.4708 -0.4784 
-14 2 7 -87.3591 0.5968 
-14 2 8 -67.1925 -0.7010 
-14 2 9 27.9081 0.9339 
-14 2 10 11.1005 0.5078 
-14 2 11 -8.3823 -0.2542 
-14 2 12 -9.5996 -1.9638 
-14 2 13 -18.6592 0.4147 
-14 2 14 1.9739 1.0883 
-14 2 15 -23.3322 1.2385 
-14 2 16 -12.5254 -1.2344 
-14 2 17 -5.7203 -0.4071 
-14 2 18 25.9116 -0.3079 
-14 2 19 -10.6914 0.7447 
-14 2 20 -10.2320 -0.4774 
-14 2 21 -13.2175 0.7276 
-14 2 22 -16.1797 0.1279 
-14 2 23 -7.8638 0.2997 
-14 2 24 -15.0020 -0.8238 
-14 2 25 4.0386 -0.0616 
-14 2 26 -2.3042 0.0199 
-14 2 27 -14.9108 0.2801 
-14 2 28 -7.4807 0.2731 
-14 2 29 4.9556 -0.4518 
-14 4 1 18.5273 0.1497 
-14 4 2 9.3349 0.3569 
-14 4 3 20.6561 -0.1852 
-14 4 4 61.1064 0.0108 
-14 4 5 -60.0737 -0.5293 
-14 4 6 -33.3277 0.6172 
-14 4 7 -18.6081 0.2529 
-14 4 8 -61.4129 -0.3480 
-14 4 9 -23.6094 -0.6295 
-14 4 10 -37.5530 0.1861 
-14 4 11 -11.2949 0.6901 
-14 4 12 12.4616 0.2460 
-14 4 13 -16.9023 -0.3322 
-14 4 14 17.8272 -0.3763 
-14 4 15 3.6177 -0.3580 
-14 4 16 -4.7523 0.1186 
-14 4 17 -13.9203 0.4333 
-14 4 18 10.0221 0.3763 
-14 4 19 -12.0210 -0.0368 
-14 4 20 14.6205 -0.3353 
-14 4 21 15.8542 -0.2569 
-14 4 22 6.4757 0.1847 
-14 4 23 0.3418 -0.0438 
-14 4 24 -9.6124 0.0013 
-14 4 25 -0.9635 0.2137 
-14 4 26 -6.9363 0.0420 
-14 4 27 -7.1509 -0.0486 
-14 4 28 1.2261 -0.1209 
-14 6 1 -4.6063 0.0670 
-14 6 2 -10.3671 0.0458 
-14 6 3 -13.8540 0.7029 
-14 6 4 -6.2165 -0.3873 
-14 6 5 -50.2677 -0.2551 
-14 6 6 -23.5217 -0.2798 
-14 6 7 -5.8275 0.6065 
-14 6 8 -0.1309 0.0025 
-14 6 9 12.1275 0.1034 
-14 6 10 26.9041 -0.5646 
-14 6 11 1.3891 0.2168 
-14 6 12 4.0191 -0.0343 
-14 6 13 -14.7100 0.0321 
-14 6 14 -2.1868 -0.0126 
-14 6 15 -16.6208 0.3128 
-14 6 16 9.7054 0.1297 
-14 6 17 5.0594 -0.1538 
-14 6 18 11.7026 -0.3985 
-14 6 19 24.0304 -0.0044 
-14 6 20 7.0035 0.2045 
-14 6 21 -13.5003 0.4134 
-14 6 22 -13.3598 -0.0591 
-14 6 23 -10.3983 -0.1941 
-14 6 24 -0.0918 -0.0315 
-14 6 25 -4.0476 0.1266 
-14 6 26 3.4352 -0.1137 
-14 6 27 -10.6385 -0.0881 
-14 6 28 3.7392 -0.0232 
-14 8 1 -10.2188 0.3881 
-14 8 2 -17.1181 -0.3395 
-14 8 3 57.0438 0.3394 
-14 8 4 28.9231 -0.5019 
-14 8 5 -12.9861 0.5289 
-14 8 6 -8.0112 -0.3244 
-14 8 7 -14.5785 0.4569 
-14 8 8 -13.0697 -0.2968 
-14 8 9 -14.4249 0.4115 
-14 8 10 -21.0384 -0.5887 
-14 8 11 -22.9487 0.5809 
-14 8 12 11.2509 -0.2374 
-14 8 13 16.9887 0.4140 
-14 8 14 19.8610 -0.6131 
-14 8 15 -15.6747 0.1326 
-14 8 16 -0.5007 -0.0037 
-14 8 17 -20.2504 0.3354 
-14 8 18 6.2798 -0.0633 
-14 8 19 5.2671 -0.0754 
-14 8 20 -24.1344 -0.0679 
-14 8 21 -11.7661 0.1767 
-14 8 22 -5.6054 -0.0992 
-14 8 23 6.7701 -0.0208 
-14 8 24 16.2355 0.2186 
-14 8 25 -7.2876 0.1991 
-14 8 26 -0.9946 -0.1416 
-14 8 27 1.4453 0.3365 
-14 8 28 2.1850 -0.3425 
-14 10 1 -9.6891 0.1346 
-14 10 2 -24.5024 -0.0422 
-14 10 3 -2.4611 0.0799 
-14 10 4 -28.4421 0.0143 
-14 10 5 -7.5430 0.5026 
-14 10 6 29.9381 -0.2915 
-14 10 7 -5.3532 -0.0694 
-14 10 8 9.6264 -0.0580 
-14 10 9 23.9999 0.1742 
-14 10 10 -14.0943 -0.0289 
-14 10 11 12.1857 -0.2316 
-14 10 12 0.5662 -0.1694 
-14 10 13 -13.4985 0.3069 
-14 10 14 -13.7753 0.0948 
-14 10 15 -5.5056 0.1551 
-14 10 16 14.8583 -0.2869 
-14 10 17 5.1254 0.0104 
-14 10 18 9.3939 0.0112 
-14 10 19 -1.6268 0.0808 
-14 10 20 -10.7570 0.0571 
-14 10 21 -4.8578 0.0235 
-14 10 22 2.6067 -0.0966 
-14 10 23 -5.5654 -0.0430 
-14 10 24 -9.4405 0.1884 
-14 10 25 -10.1954 -0.1787 
-14 10 26 9.1139 0.0700 
-14 10 27 -4.0322 -0.0468 
-14 12 1 11.3760 0.3028 
-14 12 2 28.3512 -0.3302 
-14 12 3 -4.3276 -0.4325 
-14 12 4 12.8834 0.1336 
-14 12 5 -5.7550 0.3097 
-14 12 6 -8.1158 -0.0038 
-14 12 7 -28.9532 -0.1042 
-14 12 8 -34.1269 0.0326 
-14 12 9 6.2726 0.1470 
-14 12 10 5.9888 0.1691 
-14 12 11 16.3777 -0.2000 
-14 12 12 10.2583 0.0436 
-14 12 13 5.1683 -0.1443 
-14 12 14 -12.4056 0.1839 
-14 12 15 2.0153 -0.2254 
-14 12 16 -4.1705 -0.0151 
-14 12 17 -9.0108 0.0487 
-14 12 18 8.5483 0.1635 
-14 12 19 11.2336 -0.0283 
-14 12 20 -7.3909 -0.0622 
-14 12 21 -10.6094 -0.0820 
-14 12 22 -1.4277 0.2388 
-14 12 23 5.4749 0.1204 
-14 12 24 9.7871 -0.1088 
-14 12 25 -11.7660 -0.1742 
-14 12 26 -8.0674 -0.2547 
-14 12 27 2.2940 -0.0030 
-14 14 1 6.6869 0.2251 
-14 14 2 11.7809 -0.1818 
-14 14 3 -15.9615 0.0233 
-14 14 4 -5.5039 0.0165 
-14 14 5 9.5262 0.3698 
-14 14 6 16.6367 -0.3676 
-14 14 7 -1.5337 -0.0214 
-14 14 8 -6.8655 -0.0327 
-14 14 9 15.4999 0.1943 
-14 14 10 6.6381 -0.1875 
-14 14 11 17.1092 0.0971 
-14 14 12 21.8222 -0.0415 
-14 14 13 7.2716 0.0180 
-14 14 14 -8.6659 -0.0146 
-14 14 15 8.1982 -0.0061 
-14 14 16 5.1481 -0.0972 
-14 14 17 -12.7427 0.1501 
-14 14 18 8.7379 -0.0501 
-14 14 19 4.8361 0.0678 
-14 14 20 -12.7910 -0.0391 
-14 14 21 -9.1637 0.0044 
-14 14 22 1.3165 -0.0521 
-14 14 23 1.2610 -0.0232 
-14 14 24 6.3935 -0.1665 
-14 14 25 10.5104 0.3346 
-14 14 26 5.2259 -0.0424 
-14 16 1 2.6199 -0.0806 
-14 16 2 14.8208 0.0098 
-14 16 3 0.2943 -0.0525 
-14 16 4 7.3250 0.0050 
-14 16 5 8.1315 -0.0655 
-14 16 6 -1.6958 -0.0564 
-14 16 7 -7.2106 0.0591 
-14 16 8 9.6794 0.1998 
-14 16 9 25.7787 -0.0079 
-14 16 10 -14.8434 -0.2332 
-14 16 11 9.3181 0.1393 
-14 16 12 11.9100 -0.0357 
-14 16 13 -6.5595 0.0674 
-14 16 14 1.2103 -0.2713 
-14 16 15 10.6880 0.1483 
-14 16 16 11.0091 0.1093 
-14 16 17 -16.8616 0.0857 
-14 16 18 4.2960 -0.2618 
-14 16 19 7.1740 -0.0662 
-14 16 20 -8.7218 0.0273 
-14 16 21 0.4720 0.2070 
-14 16 22 4.2166 -0.0082 
-14 16 23 -1.3774 0.0636 
-14 16 24 3.6269 -0.1857 
-14 16 25 -8.8155 -0.1423 
-14 18 1 -9.2398 -0.2281 
-14 18 2 6.3650 0.2390 
-14 18 3 -8.9161 0.0814 
-14 18 4 3.4916 0.0557 
-14 18 5 7.0205 -0.3258 
-14 18 6 -2.8158 0.1056 
-14 18 7 -13.3732 -0.1252 
-14 18 8 -5.8363 0.2829 
-14 18 9 21.3902 -0.2874 
-14 18 10 12.7168 0.0978 
-14 18 11 4.6475 -0.0895 
-14 18 12 2.3817 0.2530 
-14 18 13 -13.4155 -0.0773 
-14 18 14 -6.8909 -0.1812 
-14 18 15 2.4155 0.0746 
-14 18 16 7.7232 0.0583 
-14 18 17 -11.6031 0.0313 
-14 18 18 7.1547 -0.1529 
-14 18 19 -10.9322 -0.0551 
-14 18 20 -2.9799 0.0720 
-14 18 21 7.1246 -0.0512 
-14 18 22 0.1900 -0.1830 
-14 18 23 3.8221 -0.0415 
-14 18 24 -5.8718 0.3175 
-14 20 1 -3.1905 -0.1655 
-14 20 2 18.8628 0.0224 
-14 20 3 8.0386 -0.0110 
-14 20 4 -5.1256 0.0129 
-14 20 5 -2.2964 -0.1215 
-14 20 6 -7.7563 0.0663 
-14 20 7 18.4025 0.0041 
-14 20 8 1.3986 -0.0259 
-14 20 9 -9.3744 -0.0210 
-14 20 10 10.3479 0.0847 
-14 20 11 -16.5852 -0.1640 
-14 20 12 3.0499 0.0372 
-14 20 13 -1.4696 -0.0969 
-14 20 14 -2.3824 0.0693 
-14 20 15 -5.8998 0.0724 
-14 20 16 10.3260 -0.0263 
-14 20 17 -3.2563 -0.0640 
-14 20 18 7.8221 -0.1002 
-14 20 19 2.8827 0.1938 
-14 20 20 -1.5251 0.0697 
-14 20 21 2.0700 0.1386 
-14 20 22 4.3953 -0.2959 
-14 20 23 1.2186 0.1120 
-14 22 1 -0.0432 0.0543 
-14 22 2 3.6518 0.0311 
-14 22 3 7.8618 -0.0363 
-14 22 4 4.5070 0.0330 
-14 22 5 3.8823 -0.0010 
-14 22 6 -7.0178 0.0316 
-14 22 7 -0.0532 -0.0637 
-14 22 8 -4.2573 -0.1498 
-14 22 9 -1.4864 0.1219 
-14 22 10 13.4065 0.0558 
-14 22 11 -0.4567 0.0462 
-14 22 12 7.6360 -0.1732 
-14 22 13 4.6709 0.0101 
-14 22 14 3.6812 0.1054 
-14 22 15 -8.1492 0.0015 
-14 22 16 11.6745 -0.1848 
-14 22 17 -10.5723 0.2157 
-14 22 18 -14.2428 -0.0457 
-14 22 19 -12.3064 0.3855 
-14 22 20 2.5223 -0.6388 
-14 22 21 2.4127 -0.1394 
-14 24 1 -13.6985 -0.0728 
-14 24 2 1.5504 0.0673 
-14 24 3 2.9365 -0.1102 
-14 24 4 2.1868 0.0739 
-14 24 5 11.2395 -0.0645 
-14 24 6 1.2911 0.2317 
-14 24 7 -3.0845 -0.1697 
-14 24 8 5.7160 -0.0171 
-14 24 9 -6.2540 -0.0140 
-14 24 10 -1.0387 0.0210 
-14 24 11 1.0856 -0.0608 
-14 24 12 -9.2712 -0.1184 
-14 24 13 -2.2738 0.0599 
-14 24 14 11.2893 0.1818 
-14 24 15 -13.1698 -0.1560 
-14 24 16 2.3159 0.0667 
-14 24 17 1.3217 -0.2757 
-14 24 18 5.8734 0.3568 
-14 24 19 13.6926 0.5000 
-14 26 1 3.0204 0.0235 
-14 26 2 0.4568 0.1497 
-14 26 3 -12.3245 -0.0590 
-14 26 4 -29.7327 0.0091 
-14 26 5 -4.2316 -0.1828 
-14 26 6 5.0702 0.2162 
-14 26 7 -8.3829 -0.1544 
-14 26 8 7.1599 0.0804 
-14 26 9 2.7394 -0.1075 
-14 26 10 -0.7725 0.1291 
-14 26 11 0.6331 -0.0686 
-14 26 12 -1.4938 0.1477 
-14 26 13 -3.8262 -0.0047 
-14 26 14 -2.2796 -0.0141 
-14 26 15 1.5102 -0.2325 
-14 26 16 8.5000 0.3235 
-14 26 17 -7.4975 -0.3052 
-14 28 1 -8.6239 -0.1857 
-14 28 2 -2.5714 -0.0059 
-14 28 3 11.4632 0.0146 
-14 28 4 -3.4442 -0.0498 
-14 28 5 5.6353 -0.0463 
-14 28 6 1.6638 0.0672 
-14 28 7 -13.4947 0.1643 
-14 28 8 2.2234 -0.0452 
-14 28 9 -2.5961 -0.1759 
-14 28 10 -6.4817 0.0169 
-14 28 11 -2.2474 -0.1145 
-14 28 12 6.1677 0.2373 
-14 28 13 1.2310 0.0923 
-14 28 14 -2.5804 -0.3618 
-14 28 15 -1.2679 -0.1731 
-14 30 1 -1.1209 -0.0873 
-14 30 2 8.4977 -0.0684 
-14 30 3 0.4605 -0.0175 
-14 30 4 -1.5448 0.0401 
-14 30 5 10.9255 -0.0119 
-14 30 6 -6.3495 -0.0500 
-14 30 7 -7.5406 -0.0701 
-14 30 8 2.1562 -0.0045 
-14 30 9 -5.8116 0.2650 
-14 30 10 -3.1398 0.3445 
-14 30 11 -3.7200 0.0944 
-13 1 1 1.3378 1.0238 
-13 1 2 21.6587 -0.9367 
-13 1 3 -32.0645 -0.8788 
-13 1 4 -7.5718 0.9347 
-13 1 5 -22.2259 1.3090 
-13 1 6 6.3426 -0.5270 
-13 1 7 -45.3532 -1.4700 
-13 1 8 -14.3366 -0.7320 
-13 1 9 -52.7856 1.4757 
-13 1 10 -26.1013 0.1239 
-13 1 11 -6.6577 -0.7189 
-13 1 12 -6.4887 -0.9103 
-13 1 13 -2.5844 1.2737 
-13 1 14 -10.3192 0.1934 
-13 1 15 -1.8661 -0.0459 
-13 1 16 -16.5755 -1.1676 
-13 1 17 -4.0517 0.4703 
-13 1 18 19.0176 -0.1578 
-13 1 19 -6.7794 0.6497 
-13 1 20 11.8605 -0.8005 
-13 1 21 8.1996 0.3248 
-13 1 22 0.2178 -0.2785 
-13 1 23 -1.2373 0.7697 
-13 1 24 4.2569 -0.6749 
-13 1 25 2.0394 -0.0232 
-13 1 26 3.7740 -0.4241 
-13 1 27 -10.2673 0.3754 
-13 1 28 11.7583 -0.1902 
-13 1 29 -0.5392 -0.5556 
-13 3 1 111.1894 -0.3395 
-13 3 2 -3.1368 0.5400 
-13 3 3 -59.4956 -0.6420 
-13 3 4 109.6226 0.8691 
-13 3 5 -39.8350 -1.4268 
-13 3 6 -38.8562 1.1597 
-13 3 7 6.3854 -0.5441 
-13 3 8 -37.5120 0.7583 
-13 3 9 -35.6453 -0.1429 
-13 3 10 -13.9375 0.2515 
-13 3 11 8.2468 -0.5591 
-13 3 12 -4.6367 0.3225 
-13 3 13 8.6149 -0.0912 
-13 3 14 1.8340 0.3963 
-13 3 15 3.0143 -0.5094 
-13 3 16 -0.9806 0.1292 
-13 3 17 -5.7100 -0.0913 
-13 3 18 15.7022 0.2299 
-13 3 19 -5.9797 -0.0452 
-13 3 20 10.6361 0.1085 
-13 3 21 -24.0384 -0.0603 
-13 3 22 -2.5642 -0.0349 
-13 3 23 19.1142 -0.1044 
-13 3 24 -14.0748 0.0155 
-13 3 25 -7.2475 0.1580 
-13 3 26 -2.1199 -0.1402 
-13 3 27 -6.0495 0.1015 
-13 3 28 8.9044 0.2368 
-13 3 29 3.8687 0.4200 
-13 5 1 -23.5374 -0.2104 
-13 5 2 -69.8124 0.2630 
-13 5 3 19.4570 0.5824 
-13 5 4 72.0255 0.3665 
-13 5 5 -59.3012 -0.7468 
-13 5 6 50.3111 0.6224 
-13 5 7 -43.2982 -0.6467 
-13 5 8 -44.5949 0.4626 
-13 5 9 24.1703 -1.0604 
-13 5 10 -47.8524 0.8184 
-13 5 11 -3.2422 -0.1059 
-13 5 12 -7.7191 0.4335 
-13 5 13 -13.2246 -0.6460 
-13 5 14 2.1598 -0.0575 
-13 5 15 11.6325 -0.1100 
-13 5 16 -3.4518 0.5871 
-13 5 17 6.8342 -0.0031 
-13 5 18 13.8831 -0.0993 
-13 5 19 -22.1562 -0.3990 
-13 5 20 -5.7411 0.1462 
-13 5 21 -11.5367 0.2142 
-13 5 22 -13.3206 0.1215 
-13 5 23 -1.9343 -0.4602 
-13 5 24 -0.2520 0.0371 
-13 5 25 2.5076 0.0778 
-13 5 26 11.7417 0.0958 
-13 5 27 -1.2840 -0.3145 
-13 5 28 -1.0117 0.0527 
-13 7 1 -20.8320 0.2037 
-13 7 2 17.4132 -0.0224 
-13 7 3 -13.5725 0.4016 
-13 7 4 11.3359 -0.6682 
-13 7 5 -22.9055 -0.3710 
-13 7 6 -3.0168 0.0290 
-13 7 7 -12.3116 0.9577 
-13 7 8 -8.0254 0.1366 
-13 7 9 10.5981 -0.4300 
-13 7 10 14.9627 -0.2710 
-13 7 11 12.8859 0.0596 
-13 7 12 -2.3914 0.3265 
-13 7 13 -9.7863 0.0088 
-13 7 14 4.8583 0.0745 
-13 7 15 9.2212 0.0802 
-13 7 16 12.1436 -0.0617 
-13 7 17 -2.2627 -0.1721 
-13 7 18 7.7830 0.0345 
-13 7 19 13.2857 0.1378 
-13 7 20 1.6238 -0.0471 
-13 7 21 3.5578 0.1264 
-13 7 22 7.1037 -0.1087 
-13 7 23 -1.3563 -0.0477 
-13 7 24 5.0644 0.1415 
-13 7 25 7.3338 0.1093 
-13 7 26 7.5744 -0.0581 
-13 7 27 -2.2213 -0.0220 
-13 7 28 4.8647 -0.1053 
-13 9 1 -1.6113 -0.0335 
-13 9 2 30.6274 0.1198 
-13 9 3 -22.6913 0.0427 
-13 9 4 -2.5836 0.1546 
-13 9 5 21.1930 0.3870 
-13 9 6 -6.8658 -0.2915 
-13 9 7 -24.5124 -0.1388 
-13 9 8 -20.4738 -0.2207 
-13 9 9 -12.3027 0.1709 
-13 9 10 -4.5526 0.1715 
-13 9 11 -3.6761 0.2402 
-13 9 12 -3.2188 -0.1806 
-13 9 13 -2.6968 -0.2373 
-13 9 14 15.7789 -0.1295 
-13 9 15 2.6971 0.2956 
-13 9 16 1.6400 0.0528 
-13 9 17 -7.0250 -0.0864 
-13 9 18 12.6332 0.1088 
-13 9 19 -1.1287 0.0082 
-13 9 20 -7.1228 -0.1115 
-13 9 21 5.0887 -0.0281 
-13 9 22 9.2721 0.1168 
-13 9 23 -5.0507 -0.0930 
-13 9 24 -2.9557 0.0385 
-13 9 25 -1.7535 -0.1492 
-13 9 26 2.6001 0.2331 
-13 9 27 3.6875 0.2581 
-13 9 28 -3.3834 -0.1452 
-13 11 1 -4.1601 0.2160 
-13 11 2 5.3466 0.1385 
-13 11 3 -40.0283 -0.7033 
-13 11 4 -8.5035 -0.0144 
-13 11 5 -1.4239 0.0848 
-13 11 6 -6.4950 0.3339 
-13 11 7 6.1478 -0.1904 
-13 11 8 25.6791 0.2658 
-13 11 9 -9.1898 0.0514 
-13 11 10 -10.5141 -0.1740 
-13 11 11 -1.5957 -0.4075 
-13 11 12 -2.6807 0.2373 
-13 11 13 1.7175 0.1147 
-13 11 14 24.2858 0.4587 
-13 11 15 13.3206 -0.3550 
-13 11 16 5.3304 -0.1169 
-13 11 17 1.2756 -0.3317 
-13 11 18 -1.5216 0.3994 
-13 11 19 13.0009 0.0672 
-13 11 20 1.9039 0.0600 
-13 11 21 -2.1556 -0.2792 
-13 11 22 0.3627 0.2145 
-13 11 23 -8.9866 0.0073 
-13 11 24 -3.3657 0.1355 
-13 11 25 -3.6693 -0.3013 
-13 11 26 2.3623 -0.2428 
-13 11 27 0.5737 -0.1909 
-13 13 1 10.9681 0.1336 
-13 13 2 12.9957 -0.2749 
-13 13 3 -12.2433 -0.0129 
-13 13 4 16.1700 0.1074 
-13 13 5 -2.2549 0.4460 
-13 13 6 14.7081 -0.1577 
-13 13 7 1.5736 -0.5894 
-13 13 8 -4.7366 -0.0959 
-13 13 9 -6.0004 0.4501 
-13 13 10 15.3767 0.2287 
-13 13 11 -2.5996 -0.0469 
-13 13 12 2.8439 -0.0367 
-13 13 13 -6.3808 -0.0846 
-13 13 14 4.5467 -0.0377 
-13 13 15 6.7212 -0.2734 
-13 13 16 -8.8638 0.3231 
-13 13 17 -10.3533 -0.0039 
-13 13 18 2.6560 0.1245 
-13 13 19 5.6740 -0.2878 
-13 13 20 -5.2855 0.1257 
-13 13 21 6.7095 -0.0838 
-13 13 22 2.4207 0.1416 
-13 13 23 4.7550 0.0118 
-13 13 24 -0.3087 -0.1013 
-13 13 25 1.4598 -0.2399 
-13 13 26 6.0610 0.2523 
-13 15 1 0.2874 0.2260 
-13 15 2 2.8251 -0.1283 
-13 15 3 11.7333 0.0158 
-13 15 4 -12.8818 -0.4171 
-13 15 5 -9.2159 0.2613 
-13 15 6 20.9423 -0.1093 
-13 15 7 -18.9261 0.3569 
-13 15 8 -11.4746 -0.0939 
-13 15 9 -4.7342 0.1397 
-13 15 10 -1.5868 -0.3590 
-13 15 11 0.5911 -0.1028 
-13 15 12 3.3962 0.0561 
-13 15 13 -4.0667 0.2674 
-13 15 14 -3.9322 -0.0577 
-13 15 15 -2.1478 -0.1267 
-13 15 16 -5.1483 -0.0087 
-13 15 17 7.5769 0.1220 
-13 15 18 7.4681 -0.1076 
-13 15 19 2.5724 -0.0469 
-13 15 20 5.9430 0.1505 
-13 15 21 8.5253 0.0996 
-13 15 22 1.6090 -0.1068 
-13 15 23 -3.0403 -0.0761 
-13 15 24 7.1006 -0.0981 
-13 15 25 8.0742 0.1360 
-13 15 26 -0.9315 -0.1495 
-13 17 1 -16.5258 -0.1597 
-13 17 2 9.3587 0.0742 
-13 17 3 1.2769 0.1626 
-13 17 4 1.3754 0.1179 
-13 17 5 -8.1674 -0.0902 
-13 17 6 5.7742 -0.1517 
-13 17 7 -19.2444 -0.0666 
-13 17 8 7.9720 0.0454 
-13 17 9 3.2705 -0.0039 
-13 17 10 -5.1964 0.2078 
-13 17 11 20.1749 0.0713 
-13 17 12 7.6406 0.0449 
-13 17 13 0.9983 -0.2051 
-13 17 14 -4.0020 -0.1826 
-13 17 15 -3.5675 -0.0234 
-13 17 16 -4.5844 0.2733 
-13 17 17 5.3353 0.1848 
-13 17 18 6.4013 -0.1700 
-13 17 19 -1.5666 -0.3226 
-13 17 20 11.4937 0.1120 
-13 17 21 1.7426 0.0890 
-13 17 22 -4.1082 0.0657 
-13 17 23 0.9170 -0.2082 
-13 17 24 7.8502 0.0479 
-13 17 25 4.4463 0.3552 
-13 19 1 -12.7199 -0.0769 
-13 19 2 13.4361 0.0969 
-13 19 3 -3.9794 -0.0500 
-13 19 4 -0.4227 -0.0578 
-13 19 5 -2.6326 -0.1708 
-13 19 6 6.1744 0.1390 
-13 19 7 -14.6358 0.1153 
-13 19 8 5.6622 0.1223 
-13 19 9 -7.7675 -0.1913 
-13 19 10 -7.7562 -0.0593 
-13 19 11 2.3254 -0.1597 
-13 19 12 6.4690 0.1731 
-13 19 13 10.5469 -0.0676 
-13 19 14 4.1858 0.1590 
-13 19 15 -4.3162 -0.0738 
-13 19 16 20.7858 0.0346 
-13 19 17 15.9100 -0.2495 
-13 19 18 6.0400 0.0481 
-13 19 19 2.8527 -0.0179 
-13 19 20 4.3943 0.1755 
-13 19 21 -7.2977 -0.0733 
-13 19 22 -4.3290 -0.0524 
-13 19 23 -15.3336 -0.2236 
-13 21 1 -1.5047 -0.0549 
-13 21 2 8.4487 -0.0837 
-13 21 3 3.5767 0.1280 
-13 21 4 4.1732 0.0778 
-13 21 5 -1.6935 -0.0259 
-13 21 6 2.4283 -0.0586 
-13 21 7 -16.9346 -0.1164 
-13 21 8 3.2673 -0.1008 
-13 21 9 15.3710 0.2106 
-13 21 10 3.5718 0.0570 
-13 21 11 5.7881 0.1845 
-13 21 12 7.3219 -0.1827 
-13 21 13 -5.4530 -0.1024 
-13 21 14 14.2597 -0.0482 
-13 21 15 -25.6738 0.1985 
-13 21 16 -0.6579 -0.0988 
-13 21 17 6.3764 -0.0997 
-13 21 18 0.1491 0.0099 
-13 21 19 6.4602 0.3224 
-13 21 20 0.7054 -0.1249 
-13 21 21 -4.0506 -0.3485 
-13 21 22 0.1787 0.6742 
-13 23 1 -6.7719 0.0637 
-13 23 2 0.4188 -0.0721 
-13 23 3 1.2891 -0.0187 
-13 23 4 -3.2307 -0.0039 
-13 23 5 -11.8803 -0.0360 
-13 23 6 -5.8257 0.0442 
-13 23 7 2.7020 0.0719 
-13 23 8 -3.2056 -0.0185 
-13 23 9 -6.8914 -0.0119 
-13 23 10 2.7448 -0.0820 
-13 23 11 -8.1553 0.0256 
-13 23 12 1.7010 -0.1897 
-13 23 13 -11.5055 0.2156 
-13 23 14 -8.2656 0.0694 
-13 23 15 -9.3909 -0.0500 
-13 23 16 10.3899 -0.2227 
-13 23 17 -6.5636 -0.0645 
-13 23 18 1.3075 0.0616 
-13 23 19 -3.3040 0.8342 
-13 23 20 2.2414 -0.9043 
-13 25 1 -8.8566 -0.0909 
-13 25 2 1.3571 0.1099 
-13 25 3 1.1101 -0.0941 
-13 25 4 5.8176 0.0395 
-13 25 5 6.5817 0.0116 
-13 25 6 -12.8924 0.0576 
-13 25 7 10.9556 -0.0542 
-13 25 8 9.9033 -0.0023 
-13 25 9 -6.9440 -0.1526 
-13 25 10 8.4803 0.1807 
-13 25 11 -0.3435 -0.0707 
-13 25 12 9.1816 0.0016 
-13 25 13 -2.7215 0.0226 
-13 25 14 0.4676 0.0187 
-13 25 15 -8.7652 -0.0950 
-13 25 16 -3.7315 0.0734 
-13 25 17 0.1846 -0.0064 
-13 25 18 6.9923 0.2177 
-13 25 19 -4.6330 -0.4003 
-13 27 1 -2.2195 -0.0761 
-13 27 2 -8.0879 0.0876 
-13 27 3 6.0405 0.0903 
-13 27 4 -3.2107 -0.0588 
-13 27 5 10.0716 -0.0530 
-13 27 6 6.1760 -0.0601 
-13 27 7 -5.3480 0.0547 
-13 27 8 -10.3794 0.0437 
-13 27 9 -1.6417 -0.0550 
-13 27 10 2.9198 -0.0106 
-13 27 11 -14.1062 -0.1000 
-13 27 12 -2.6894 0.2366 
-13 27 13 -5.3584 0.0792 
-13 27 14 -0.3859 -0.1199 
-13 27 15 -1.1798 -0.2184 
-13 27 16 -4.9421 0.0716 
-13 29 1 11.0347 0.0459 
-13 29 2 7.0409 -0.2304 
-13 29 3 0.7298 0.0101 
-13 29 4 1.6849 -0.0873 
-13 29 5 4.9433 0.1252 
-13 29 6 -8.2734 0.0429 
-13 29 7 4.3525 0.1481 
-13 29 8 -0.8399 -0.2012 
-13 29 9 2.0308 0.1968 
-13 29 10 11.8786 -0.0477 
-13 29 11 -1.6275 -0.4277 
-13 29 12 2.1549 -0.0083 
-13 29 13 5.0060 -0.1691 
-13 31 1 5.0478 -0.0645 
-13 31 2 9.5009 -0.0643 
-13 31 3 -8.8874 0.3655 
-13 31 4 -0.5059 0.1544 
-13 31 5 2.3835 -0.1172 
-13 31 6 -10.9820 -0.4034 
-13 31 7 -4.0863 -0.1060 
-13 31 8 0.7111 0.0104 
-12 0 1 -12.1395 6.4699 
-12 0 2 67.6660 -2.6165 
-12 0 3 54.6747 3.9683 
-12 0 4 -5.1004 -0.6088 
-12 0 5 -74.9381 -0.8474 
-12 0 6 5.8743 -4.9103 
-12 0 7 24.3627 1.1237 
-12 0 8 18.7083 2.4986 
-12 0 9 -77.5700 3.3360 
-12 0 10 -37.3529 -1.4585 
-12 0 11 -3.3082 -1.6280 
-12 0 12 -39.7537 -2.7596 
-12 0 13 23.1868 1.1573 
-12 0 14 -18.7798 0.9967 
-12 0 15 -7.6300 1.2962 
-12 0 16 47.2730 -2.3879 
-12 0 17 -24.9917 0.2543 
-12 0 18 3.2936 0.0161 
-12 0 19 -5.1675 2.5101 
-12 0 20 3.3205 -1.4661 
-12 0 21 10.1360 -0.9031 
-12 0 22 -9.0722 -1.0342 
-12 0 23 11.9315 1.1598 
-12 0 24 6.8927 -0.4642 
-12 0 25 -13.5386 0.3520 
-12 0 26 -3.6271 0.1834 
-12 0 27 -13.8001 1.1431 
-12 0 28 -3.2863 -1.4468 
-12 0 29 -13.1320 -0.2841 
-12 2 1 5.7593 -0.4987 
-12 2 2 3.7448 -3.1026 
-12 2 3 -74.8467 0.7723 
-12 2 4 27.5493 0.9496 
-12 2 5 32.8681 1.5095 
-12 2 6 -23.2626 -0.7226 
-12 2 7 -45.4401 0.2166 
-12 2 8 28.4434 -0.5300 
-12 2 9 22.8002 -0.7426 
-12 2 10 -15.6258 -0.1947 
-12 2 11 -7.0455 1.0222 
-12 2 12 -28.2004 0.5524 
-12 2 13 -2.8585 -0.0697 
-12 2 14 -15.3048 -0.2725 
-12 2 15 -21.8163 0.2415 
-12 2 16 27.5790 -0.1208 
-12 2 17 6.4547 -0.0977 
-12 2 18 27.0253 -0.2212 
-12 2 19 3.5900 0.4936 
-12 2 20 19.1865 -0.5756 
-12 2 21 0.7009 -0.0263 
-12 2 22 -3.9579 0.1073 
-12 2 23 17.6452 1.0601 
-12 2 24 -7.2585 -0.6500 
-12 2 25 -2.6742 -0.4842 
-12 2 26 17.5572 -0.3727 
-12 2 27 5.7155 0.3652 
-12 2 28 11.5847 0.3005 
-12 2 29 -4.6108 -0.4540 
-12 4 1 0.6557 0.1024 
-12 4 2 -42.6450 0.8557 
-12 4 3 -15.3609 0.4966 
-12 4 4 30.6906 -0.0009 
-12 4 5 -0.5618 -1.2376 
-12 4 7 18.9536 0.3932 
-12 4 8 19.9061 1.0249 
-12 4 9 8.9188 -0.5020 
-12 4 10 -16.3507 0.1259 
-12 4 11 4.0865 -0.2070 
-12 4 12 -2.3316 0.2421 
-12 4 13 3.3170 -0.6139 
-12 4 14 -13.0771 -0.0547 
-12 4 15 -19.6391 0.2640 
-12 4 16 -9.9313 0.4664 
-12 4 17 -9.5802 -0.4554 
-12 4 18 12.5115 -0.1403 
-12 4 19 -14.5287 0.1633 
-12 4 20 8.1804 0.3610 
-12 4 21 -21.0689 -0.1635 
-12 4 22 -28.8274 -0.3356 
-12 4 23 -3.7160 -0.2622 
-12 4 24 -8.3075 0.1055 
-12 4 25 -0.6176 0.1786 
-12 4 26 0.4290 0.0158 
-12 4 27 -2.8189 -0.0127 
-12 4 28 13.3649 -0.0189 
-12 6 1 -45.6166 -0.2002 
-12 6 2 8.6512 0.0761 
-12 6 3 -41.6139 0.2167 
-12 6 4 -38.2656 -0.2011 
-12 6 5 44.7848 0.1586 
-12 6 6 55.7528 0.1885 
-12 6 7 -52.1179 0.5285 
-12 6 8 -1.7731 -0.5721 
-12 6 9 -9.5849 -0.6344 
-12 6 10 7.2109 -0.1162 
-12 6 11 -16.0371 0.5176 
-12 6 12 -17.8901 0.4247 
-12 6 13 -3.8080 -0.1689 
-12 6 14 -10.2874 -0.4168 
-12 6 15 3.9365 0.1567 
-12 6 16 16.7851 0.2537 
-12 6 17 7.5640 0.0784 
-12 6 18 6.6597 -0.3088 
-12 6 19 17.7408 -0.1020 
-12 6 20 22.4263 0.0311 
-12 6 21 4.1125 0.2670 
-12 6 22 -0.1669 -0.1717 
-12 6 23 3.5641 -0.0294 
-12 6 24 -9.6404 -0.0678 
-12 6 25 -12.5399 0.0263 
-12 6 26 1.7840 -0.2279 
-12 6 27 -7.7854 -0.1416 
-12 6 28 7.2502 -0.1242 
-12 8 1 43.6664 0.2527 
-12 8 2 11.4168 0.3207 
-12 8 3 -48.4189 0.3512 
-12 8 4 20.9178 -0.5259 
-12 8 5 14.8892 -0.2039 
-12 8 6 -39.2062 -0.2644 
-12 8 7 -15.7556 0.5270 
-12 8 8 -1.7856 -0.4365 
-12 8 9 -9.6243 0.7149 
-12 8 10 8.9670 -0.3560 
-12 8 11 -26.8882 0.3636 
-12 8 12 -7.9988 -0.6171 
-12 8 13 -4.3627 0.3940 
-12 8 14 -9.0267 -0.2424 
-12 8 15 6.4483 0.2749 
-12 8 16 5.8274 -0.2343 
-12 8 17 -14.7852 0.1716 
-12 8 18 15.8406 -0.1462 
-12 8 19 12.1558 0.1722 
-12 8 20 12.9675 -0.0909 
-12 8 21 7.8301 0.0489 
-12 8 22 -4.3421 -0.1570 
-12 8 23 -0.0252 -0.1243 
-12 8 24 5.9983 -0.0172 
-12 8 25 -9.4421 0.2723 
-12 8 26 -2.2966 -0.1464 
-12 8 27 7.7447 0.3499 
-12 8 28 -2.0542 -0.3955 
-12 10 1 18.9148 -0.3251 
-12 10 2 -6.6019 0.0118 
-12 10 3 4.2267 -0.2791 
-12 10 4 19.1939 -0.0074 
-12 10 5 -0.4437 0.3950 
-12 10 6 9.3612 0.1266 
-12 10 7 8.5682 -0.2603 
-12 10 8 -4.9247 -0.2740 
-12 10 9 -10.9999 0.2055 
-12 10 10 -13.3345 0.0133 
-12 10 11 22.9251 -0.0075 
-12 10 12 4.7461 -0.3807 
-12 10 13 17.2301 0.3712 
-12 10 14 14.0240 0.0110 
-12 10 15 7.1349 0.1019 
-12 10 16 12.6872 -0.4445 
-12 10 17 -11.7752 0.1359 
-12 10 18 8.0487 0.0853 
-12 10 19 6.6400 0.0350 
-12 10 20 8.0112 -0.2013 
-12 10 21 -3.4822 0.0127 
-12 10 22 -0.6323 0.1845 
-12 10 23 -11.9390 -0.0104 
-12 10 24 2.8311 -0.0301 
-12 10 25 21.5224 -0.2322 
-12 10 26 8.9678 0.0367 
-12 10 27 -7.9964 -0.3306 
-12 12 1 5.6272 0.1618 
-12 12 2 -11.4598 0.1258 
-12 12 3 -11.9430 -0.3307 
-12 12 4 5.5496 -0.0039 
-12 12 5 -14.7560 0.1537 
-12 12 6 2.7709 -0.0119 
-12 12 7 14.3998 -0.4142 
-12 12 8 -5.4959 0.0560 
-12 12 9 -6.4806 0.3010 
-12 12 10 -21.8257 0.0293 
-12 12 11 -10.8230 -0.1476 
-12 12 12 -7.3327 -0.1538 
-12 12 13 -5.1270 0.2573 
-12 12 14 -11.3096 0.1600 
-12 12 15 -3.7714 -0.1624 
-12 12 16 10.1721 -0.1897 
-12 12 17 -0.0692 0.0637 
-12 12 18 10.9545 0.2067 
-12 12 19 8.3954 0.0002 
-12 12 20 4.2569 -0.1935 
-12 12 21 -9.6218 -0.1003 
-12 12 22 -3.9048 0.1229 
-12 12 23 -1.8776 0.1035 
-12 12 24 -4.9639 0.0568 
-12 12 25 -3.2273 -0.2174 
-12 12 26 -0.9361 0.0333 
-12 12 27 -0.2537 -0.1368 
-12 14 1 -12.9056 0.0901 
-12 14 2 -29.9586 -0.0944 
-12 14 3 -11.5661 -0.0764 
-12 14 4 -1.5178 -0.0777 
-12 14 5 -8.5738 0.3286 
-12 14 6 -24.3329 -0.1569 
-12 14 7 11.7168 0.0429 
-12 14 8 -3.6670 -0.1899 
-12 14 9 -6.3072 0.2974 
-12 14 10 -2.2770 -0.2380 
-12 14 11 -3.3046 0.0227 
-12 14 12 4.4688 -0.1401 
-12 14 13 9.8342 0.3069 
-12 14 14 2.9687 -0.2439 
-12 14 15 -12.2155 0.0619 
-12 14 16 -8.3985 -0.0968 
-12 14 17 -17.6216 0.2083 
-12 14 18 1.1118 -0.1967 
-12 14 19 -2.3673 0.0241 
-12 14 20 -0.0938 -0.0510 
-12 14 21 -8.1971 0.2048 
-12 14 22 -5.6265 -0.0801 
-12 14 23 -6.8956 0.0889 
-12 14 24 -7.3105 -0.2298 
-12 14 25 -1.4891 -0.0257 
-12 14 26 -2.1375 0.1069 
-12 16 1 -7.4320 0.0225 
-12 16 2 -12.6443 0.0950 
-12 16 3 -4.2900 -0.0222 
-12 16 4 -9.6193 -0.0714 
-12 16 5 6.4992 -0.1517 
-12 16 6 -8.1180 0.1203 
-12 16 7 14.3856 0.0945 
-12 16 8 9.4944 -0.1610 
-12 16 9 -3.5910 0.1155 
-12 16 10 -6.6060 -0.1568 
-12 16 11 8.5849 0.1737 
-12 16 12 -1.7846 0.0538 
-12 16 13 2.7726 0.0883 
-12 16 14 3.8015 -0.3472 
-12 16 15 -14.3828 0.1116 
-12 16 16 -0.1436 0.0660 
-12 16 17 9.6055 0.2363 
-12 16 18 3.8047 -0.2698 
-12 16 19 2.2065 0.0573 
-12 16 20 5.6893 0.0057 
-12 16 21 7.4241 0.1404 
-12 16 22 9.1187 -0.1496 
-12 16 23 -13.1496 0.0900 
-12 16 24 -2.2750 -0.0570 
-12 16 25 4.3717 0.4281 
-12 18 1 -25.5733 -0.1070 
-12 18 2 -3.6676 0.0256 
-12 18 3 4.0445 0.1062 
-12 18 4 -1.0922 0.0681 
-12 18 5 3.5711 -0.3102 
-12 18 6 16.2770 0.1822 
-12 18 7 -2.8079 -0.0009 
-12 18 8 -2.0092 0.1538 
-12 18 9 -2.4569 -0.2167 
-12 18 10 -12.1797 0.1988 
-12 18 11 1.0744 -0.0631 
-12 18 12 -1.2618 0.1155 
-12 18 13 8.9226 -0.2576 
-12 18 14 7.8330 0.0211 
-12 18 15 -16.6632 -0.0787 
-12 18 16 -18.7277 0.2363 
-12 18 17 7.0932 0.0086 
-12 18 18 10.1820 -0.2234 
-12 18 19 -10.2216 0.0420 
-12 18 20 -0.9402 0.1075 
-12 18 21 -7.8862 -0.0399 
-12 18 22 0.4193 0.0002 
-12 18 23 -0.2614 -0.2614 
-12 18 24 5.0295 -0.0574 
-12 20 1 -4.2001 -0.0730 
-12 20 2 -4.7285 -0.0533 
-12 20 3 -3.8680 0.0327 
-12 20 4 -1.4465 -0.0001 
-12 20 5 -0.2103 0.0180 
-12 20 6 4.5331 -0.0063 
-12 20 7 -7.9775 0.0333 
-12 20 8 -7.4404 -0.0356 
-12 20 9 -3.3218 -0.1407 
-12 20 10 3.4018 0.1381 
-12 20 11 -0.5385 -0.0019 
-12 20 12 -0.3786 0.0455 
-12 20 13 3.2485 -0.0570 
-12 20 14 11.3452 0.1364 
-12 20 15 -1.1760 -0.0852 
-12 20 16 -5.6896 0.1937 
-12 20 17 -0.4357 -0.3285 
-12 20 18 10.0045 0.0089 
-12 20 19 4.1444 -0.0254 
-12 20 20 7.0566 0.0267 
-12 20 21 1.1730 -0.0220 
-12 20 22 -1.4241 0.1275 
-12 20 23 -3.6993 -0.1030 
-12 22 1 -9.1914 0.0934 
-12 22 2 -0.8120 -0.0005 
-12 22 3 9.6642 0.0181 
-12 22 4 11.6369 -0.0289 
-12 22 5 10.7069 0.0412 
-12 22 6 2.7978 -0.1616 
-12 22 7 -8.5991 -0.0229 
-12 22 8 1.1726 0.0686 
-12 22 9 1.8072 0.1590 
-12 22 10 -10.0441 -0.0169 
-12 22 11 1.3851 0.0509 
-12 22 12 9.2880 -0.1375 
-12 22 13 7.0468 0.0545 
-12 22 14 5.9494 0.0038 
-12 22 15 -9.2834 0.1016 
-12 22 16 3.9767 -0.2007 
-12 22 17 -3.1105 -0.0880 
-12 22 18 -4.5768 0.0862 
-12 22 19 -14.2564 0.3193 
-12 22 20 -0.1949 -0.0801 
-12 22 21 -2.6472 -0.2396 
-12 24 1 -6.3389 -0.0789 
-12 24 2 7.5246 -0.1234 
-12 24 3 -0.9091 -0.1466 
-12 24 4 4.5148 0.1528 
-12 24 5 6.2888 0.0795 
-12 24 6 1.6923 0.0526 
-12 24 7 2.8935 -0.1639 
-12 24 8 -8.0601 0.0575 
-12 24 9 3.2037 -0.1030 
-12 24 10 -7.4657 0.0115 
-12 24 11 -9.2839 -0.1113 
-12 24 12 -7.1053 -0.0059 
-12 24 13 -4.5509 0.1027 
-12 24 14 4.2445 0.0696 
-12 24 15 -12.8200 0.0465 
-12 24 16 2.6952 -0.3388 
-12 24 17 0.1434 -0.0761 
-12 24 18 -0.8297 0.1847 
-12 24 19 -8.5181 -0.2272 
-12 24 20 -4.5834 0.1256 
-12 26 1 5.9203 0.0269 
-12 26 2 20.7621 0.1020 
-12 26 3 -1.4811 -0.0047 
-12 26 4 0.5728 0.0724 
-12 26 5 3.7533 -0.2654 
-12 26 6 2.8714 0.0793 
-12 26 7 1.4953 -0.0180 
-12 26 8 -14.5253 0.1102 
-12 26 9 11.4048 -0.1281 
-12 26 10 -9.3782 0.2232 
-12 26 11 -8.6478 -0.1126 
-12 26 12 10.6192 0.0341 
-12 26 13 -2.4664 -0.1005 
-12 26 14 8.1223 0.1184 
-12 26 15 -0.9932 -0.1741 
-12 26 16 1.2777 -0.1632 
-12 26 17 2.5368 0.7930 
-12 26 18 -1.1457 0.0777 
-12 28 1 -12.4932 -0.0116 
-12 28 2 1.9036 -0.1298 
-12 28 3 12.0826 0.0094 
-12 28 4 -5.4035 0.0784 
-12 28 5 -4.9435 0.0251 
-12 28 6 1.7298 0.0278 
-12 28 7 3.9947 -0.0254 
-12 28 8 -5.2800 0.0113 
-12 28 9 -2.1289 -0.1723 
-12 28 10 -12.6789 0.0154 
-12 28 11 -0.8391 -0.2016 
-12 28 12 16.9830 -0.0565 
-12 28 13 -2.2600 0.1797 
-12 28 14 -2.7332 0.1322 
-12 28 15 0.4501 -0.2091 
-12 30 1 2.4545 -0.0195 
-12 30 2 4.0821 0.0012 
-12 30 3 -2.3628 -0.0599 
-12 30 4 2.1069 0.0016 
-12 30 5 13.0218 -0.0226 
-12 30 6 5.3211 0.0024 
-12 30 7 5.9036 -0.0169 
-12 30 8 1.2774 0.1304 
-12 30 9 -4.0446 0.0518 
-12 30 10 1.0139 -0.0279 
-12 30 11 5.7911 -0.0344 
-12 32 1 8.1302 0.0235 
-12 32 2 -0.4218 -0.0666 
-12 32 3 12.5562 -0.1005 
-12 32 4 3.0057 0.3379 
-11 1 1 35.8060 -1.0588 
-11 1 2 5.1163 -0.9350 
-11 1 3 74.8911 0.9512 
-11 1 4 -47.3817 -1.0314 
-11 1 5 108.1468 2.0079 
-11 1 6 41.1058 -0.8877 
-11 1 7 -30.9515 0.2707 
-11 1 8 71.2121 -1.0736 
-11 1 9 -14.6954 1.3234 
-11 1 10 4.4852 -0.7760 
-11 1 11 3.8399 -0.5349 
-11 1 12 -11.7086 -0.6328 
-11 1 13 5.0805 1.5171 
-11 1 14 -3.3006 0.6704 
-11 1 15 -16.8403 -0.5825 
-11 1 16 -3.0511 -1.1932 
-11 1 17 -5.3958 0.3985 
-11 1 18 14.5568 0.8536 
-11 1 19 5.9292 0.1520 
-11 1 20 12.1134 -0.9557 
-11 1 21 -0.7342 0.0541 
-11 1 22 -7.4833 0.2847 
-11 1 23 -15.4721 0.5345 
-11 1 24 -9.2224 -0.6564 
-11 1 25 0.8608 -0.1108 
-11 1 26 7.5735 -0.2343 
-11 1 27 -4.0753 0.5557 
-11 1 28 10.3633 -0.0002 
-11 1 29 9.7685 -0.0252 
-11 3 2 -102.1208 0.0755 
-11 3 3 -65.6789 -0.3560 
-11 3 4 17.9438 1.1404 
-11 3 5 24.9542 -0.4503 
-11 3 6 -44.8868 0.0744 
-11 3 7 52.7701 -0.5020 
-11 3 8 68.6103 0.0368 
-11 3 9 19.0819 0.1351 
-11 3 10 -8.9521 0.5880 
-11 3 11 -24.7621 -0.2294 
-11 3 12 -22.6131 -0.0648 
-11 3 13 12.9340 -0.4123 
-11 3 14 4.3415 0.6403 
-11 3 15 0.8210 -0.1914 
-11 3 16 6.0787 0.4263 
-11 3 17 -19.6636 -0.4396 
-11 3 18 1.3943 0.2367 
-11 3 19 2.8600 -0.5320 
-11 3 20 26.1339 0.3694 
-11 3 21 4.7461 -0.0867 
-11 3 22 42.3411 0.3489 
-11 3 23 11.1448 -0.3918 
-11 3 24 -2.4225 0.0738 
-11 3 25 14.7668 -0.1822 
-11 3 26 1.6113 0.1274 
-11 3 27 -0.2932 0.0953 
-11 3 28 -6.8945 -0.4891 
-11 3 29 -18.2262 -0.2834 
-11 5 1 69.1117 0.1880 
-11 5 2 7.9649 0.3497 
-11 5 3 24.3752 -0.4254 
-11 5 4 -72.8438 0.0893 
-11 5 5 -15.2989 -0.6123 
-11 5 6 84.2296 0.7745 
-11 5 7 -13.5306 0.2195 
-11 5 8 -2.6581 0.7490 
-11 5 9 18.8087 -1.5729 
-11 5 10 -29.4522 0.4092 
-11 5 11 54.4016 -0.0296 
-11 5 12 10.3934 0.7786 
-11 5 13 -5.4053 -0.6990 
-11 5 14 3.7980 -0.0870 
-11 5 15 -13.7285 -0.0672 
-11 5 16 -5.2154 0.3531 
-11 5 17 -3.7765 -0.1751 
-11 5 18 6.6072 0.0749 
-11 5 19 -12.9679 -0.1139 
-11 5 20 7.5858 0.2804 
-11 5 21 -6.5109 -0.3017 
-11 5 22 6.1060 0.0075 
-11 5 23 6.6375 -0.2773 
-11 5 24 6.7374 0.3235 
-11 5 25 -9.1600 -0.1980 
-11 5 26 -3.1042 0.0731 
-11 5 27 6.1126 -0.2964 
-11 5 28 4.8158 0.0050 
-11 7 1 37.7221 0.2252 
-11 7 2 4.9891 0.2359 
-11 7 3 -56.0137 0.2866 
-11 7 4 -39.6966 0.1374 
-11 7 5 8.2310 0.0164 
-11 7 6 15.2891 -0.2965 
-11 7 7 13.8078 -0.1270 
-11 7 8 -9.3365 0.0554 
-11 7 9 -30.6310 -0.1313 
-11 7 10 -42.2889 0.1941 
-11 7 11 -24.7653 0.2504 
-11 7 12 -2.1806 0.1702 
-11 7 13 6.4031 -0.5077 
-11 7 14 16.1425 0.0617 
-11 7 15 -2.7015 0.3226 
-11 7 16 -16.2028 0.1239 
-11 7 17 -38.5701 -0.1543 
-11 7 18 -15.0789 -0.3639 
-11 7 19 6.6991 0.1936 
-11 7 20 11.6556 0.1343 
-11 7 21 -13.1985 0.1266 
-11 7 22 -9.2165 -0.2080 
-11 7 23 4.6330 -0.0866 
-11 7 24 4.6452 -0.1228 
-11 7 25 -4.6187 0.1341 
-11 7 26 -0.7838 -0.1234 
-11 7 27 1.0890 -0.0175 
-11 7 28 2.1217 0.1084 
-11 9 1 40.1255 0.0112 
-11 9 2 -21.5378 0.3179 
-11 9 3 -5.0652 -0.2788 
-11 9 4 30.0211 -0.2017 
-11 9 5 11.3295 -0.0476 
-11 9 6 -5.2569 0.3307 
-11 9 7 10.3517 -0.1611 
-11 9 8 -1.1000 0.3158 
-11 9 9 -4.5120 -0.0155 
-11 9 10 8.8833 -0.1240 
-11 9 11 -12.6043 -0.1226 
-11 9 12 5.2182 0.1083 
-11 9 13 8.3119 0.1074 
-11 9 14 -21.7902 -0.1159 
-11 9 15 -11.4084 -0.0901 
-11 9 16 0.6569 -0.0905 
-11 9 17 -8.1786 0.1059 
-11 9 18 20.6540 0.0547 
-11 9 19 9.5657 0.0808 
-11 9 20 5.3697 -0.1827 
-11 9 21 -5.5385 -0.0997 
-11 9 22 6.4058 -0.0824 
-11 9 23 6.9219 0.1080 
-11 9 24 -4.7305 0.0852 
-11 9 25 -2.4046 0.0578 
-11 9 26 -7.2319 -0.2480 
-11 9 27 1.0382 0.0861 
-11 9 28 -4.2357 0.0370 
-11 11 1 -24.3752 -0.4969 
-11 11 2 -37.1098 0.3996 
-11 11 3 12.8307 0.0098 
-11 11 4 4.8794 0.4692 
-11 11 5 11.9157 -0.2387 
-11 11 6 20.2879 0.1930 
-11 11 7 -27.3032 -0.8188 
-11 11 8 5.9697 0.2546 
-11 11 9 -39.8681 0.1202 
-11 11 10 0.6098 0.4812 
-11 11 11 -1.0161 -0.6181 
-11 11 12 5.8311 0.0681 
-11 11 13 11.1466 0.0194 
-11 11 14 -27.7077 0.4264 
-11 11 15 -7.8032 -0.1614 
-11 11 16 5.2511 -0.0288 
-11 11 17 -11.3448 -0.1941 
-11 11 18 -19.1604 0.2320 
-11 11 19 10.8717 -0.2075 
-11 11 20 9.4777 0.0342 
-11 11 21 -12.8781 -0.0435 
-11 11 22 6.6444 0.1841 
-11 11 23 13.7982 -0.0428 
-11 11 24 -7.8779 0.0218 
-11 11 25 -2.8995 -0.1138 
-11 11 26 0.4960 -0.0904 
-11 11 27 9.5820 0.4638 
-11 13 1 25.0086 0.1799 
-11 13 2 -29.4597 -0.0412 
-11 13 3 9.4780 -0.2491 
-11 13 4 -2.9975 -0.1161 
-11 13 5 -24.9970 -0.0113 
-11 13 6 17.8284 0.3497 
-11 13 7 -21.6918 0.0891 
-11 13 8 6.4262 -0.0187 
-11 13 9 -4.1075 -0.1118 
-11 13 10 9.4987 0.1000 
-11 13 11 -18.2108 -0.3283 
-11 13 12 1.0266 0.0810 
-11 13 13 -8.1531 0.1701 
-11 13 14 -6.8704 0.0785 
-11 13 15 15.3486 -0.2987 
-11 13 16 18.0924 -0.0312 
-11 13 17 11.7403 0.1252 
-11 13 18 6.7546 0.3716 
-11 13 19 13.1223 -0.2797 
-11 13 20 1.8356 -0.0582 
-11 13 21 -8.6077 -0.1446 
-11 13 22 -0.6934 0.0355 
-11 13 23 1.1296 0.0251 
-11 13 24 -12.2952 0.1589 
-11 13 25 5.2640 -0.0377 
-11 13 26 11.0671 0.5342 
-11 15 1 1.7835 -0.0305 
-11 15 2 -13.3267 0.0307 
-11 15 3 21.3435 0.2806 
-11 15 4 -25.3357 -0.0213 
-11 15 5 -15.8257 0.0179 
-11 15 6 22.4015 -0.1542 
-11 15 7 -5.4609 0.1028 
-11 15 8 12.1610 -0.3207 
-11 15 9 -2.6484 0.1233 
-11 15 10 -29.4472 0.0639 
-11 15 11 -5.9267 0.1549 
-11 15 12 15.4565 -0.1734 
-11 15 13 -3.6352 0.0460 
-11 15 14 -8.2112 -0.0142 
-11 15 15 -1.3004 0.0936 
-11 15 16 14.0049 -0.0580 
-11 15 17 10.1095 0.1054 
-11 15 18 11.6948 -0.2791 
-11 15 19 15.1650 -0.0544 
-11 15 20 8.3038 0.0691 
-11 15 21 3.8180 0.2584 
-11 15 22 7.4853 0.0785 
-11 15 23 -2.8097 -0.1012 
-11 15 24 -0.7127 0.0245 
-11 15 25 4.4064 -0.0195 
-11 15 26 7.6952 -0.1979 
-11 17 1 -7.2206 -0.0072 
-11 17 2 2.5361 0.0686 
-11 17 3 2.5849 -0.1268 
-11 17 4 -4.6952 -0.2225 
-11 17 5 3.8131 -0.1317 
-11 17 6 17.7508 0.3124 
-11 17 7 -13.6594 0.1881 
-11 17 8 -0.4740 -0.0326 
-11 17 9 8.3684 -0.2938 
-11 17 10 -9.2381 -0.0032 
-11 17 11 8.4810 0.2282 
-11 17 12 -11.9404 0.0276 
-11 17 13 -7.7078 -0.1582 
-11 17 14 6.4542 -0.0670 
-11 17 15 7.7426 -0.0970 
-11 17 16 7.2370 0.1767 
-11 17 17 -5.9546 0.0644 
-11 17 18 6.6405 -0.0408 
-11 17 19 -2.8002 0.1666 
-11 17 20 -1.4081 0.0053 
-11 17 21 -7.1399 -0.0629 
-11 17 22 0.2190 -0.0570 
-11 17 23 1.1500 -0.1511 
-11 17 24 3.4781 0.0838 
-11 17 25 -6.0962 0.0879 
-11 19 1 -0.4723 -0.0485 
-11 19 2 -1.6300 0.0628 
-11 19 3 -2.4713 0.1214 
-11 19 4 0.7121 0.0017 
-11 19 5 -11.7429 -0.0450 
-11 19 6 3.3487 -0.0751 
-11 19 7 -8.9458 -0.0682 
-11 19 8 -5.5613 0.0186 
-11 19 9 -3.1296 -0.0692 
-11 19 10 0.4985 0.1749 
-11 19 11 2.5320 0.0203 
-11 19 12 0.7654 0.0024 
-11 19 13 9.8563 -0.1862 
-11 19 14 -0.0056 0.0904 
-11 19 15 1.6188 -0.0518 
-11 19 16 7.1086 0.3208 
-11 19 17 -15.0228 -0.4473 
-11 19 18 4.2698 0.0563 
-11 19 19 -3.6815 -0.0731 
-11 19 20 14.4777 0.2360 
-11 19 21 0.9547 -0.1666 
-11 19 22 6.0982 -0.0367 
-11 19 23 -0.5798 0.1478 
-11 19 24 -2.4042 -0.2757 
-11 21 1 -2.0815 0.1884 
-11 21 2 -5.9344 -0.2687 
-11 21 3 -4.1489 -0.0155 
-11 21 4 -1.3047 -0.0801 
-11 21 5 -4.3880 0.2356 
-11 21 6 3.9567 -0.1685 
-11 21 7 -0.8174 0.1512 
-11 21 8 11.3359 -0.1287 
-11 21 9 6.3480 0.1045 
-11 21 10 1.4352 -0.1349 
-11 21 11 0.3735 0.0234 
-11 21 12 -5.9293 -0.0611 
-11 21 13 -9.1105 0.1946 
-11 21 14 7.7727 -0.0659 
-11 21 15 -8.7211 0.0444 
-11 21 16 12.9956 -0.0027 
-11 21 17 -2.6341 -0.0512 
-11 21 18 -9.2509 0.1579 
-11 21 19 3.1810 -0.1487 
-11 21 20 14.4888 0.3018 
-11 21 21 -7.3992 -0.5831 
-11 21 22 -3.2164 0.2719 
-11 23 1 -11.5612 0.1197 
-11 23 2 4.2070 -0.1734 
-11 23 3 -2.2900 0.0623 
-11 23 4 -31.1722 0.0510 
-11 23 5 -15.3573 0.1615 
-11 23 6 5.0601 -0.3479 
-11 23 7 -6.9275 -0.0171 
-11 23 8 -16.7761 -0.0245 
-11 23 9 -9.1578 0.2559 
-11 23 10 6.3320 -0.0968 
-11 23 11 -3.4024 -0.0075 
-11 23 12 8.8568 -0.0835 
-11 23 13 1.2942 0.1134 
-11 23 14 1.6855 -0.0486 
-11 23 15 5.7282 0.0852 
-11 23 16 14.1661 -0.2208 
-11 23 17 -5.2701 0.0912 
-11 23 18 6.1731 -0.2023 
-11 23 19 10.6904 -0.0226 
-11 23 20 20.7113 0.0281 
-11 23 21 6.3087 -0.1230 
-11 25 1 -11.5944 -0.0491 
-11 25 2 11.5870 -0.0614 
-11 25 3 0.8782 -0.1462 
-11 25 4 -6.0237 0.0889 
-11 25 5 -3.2862 0.0812 
-11 25 6 -1.1958 -0.0481 
-11 25 7 3.3223 -0.0229 
-11 25 8 -6.1890 0.0400 
-11 25 9 -6.2021 0.0407 
-11 25 10 3.2713 -0.1280 
-11 25 11 -3.2751 -0.0570 
-11 25 12 7.0199 0.0694 
-11 25 13 0.9098 -0.0239 
-11 25 14 2.8310 0.0524 
-11 25 15 -8.2378 0.0032 
-11 25 16 -0.7339 -0.3503 
-11 25 17 -4.9543 0.3477 
-11 25 18 0.1486 0.1684 
-11 25 19 -5.2823 0.0481 
-11 27 1 -8.9509 0.1545 
-11 27 2 0.0096 0.0333 
-11 27 3 0.7091 0.1277 
-11 27 4 -9.3439 -0.1236 
-11 27 5 -4.9462 -0.0122 
-11 27 6 6.5592 -0.0052 
-11 27 7 -15.1071 0.0335 
-11 27 8 -9.4294 -0.0219 
-11 27 9 2.3767 -0.0310 
-11 27 10 2.4162 -0.0212 
-11 27 11 5.7387 0.1810 
-11 27 12 4.3997 -0.1657 
-11 27 13 -4.2039 -0.0070 
-11 27 14 7.4376 0.0337 
-11 27 15 -4.7206 0.0942 
-11 27 16 -0.7191 -0.0622 
-11 27 17 -1.2245 0.3249 
-11 29 1 1.5550 0.1992 
-11 29 2 3.9212 -0.2720 
-11 29 3 -6.2029 0.2310 
-11 29 4 0.2405 -0.1930 
-11 29 5 -9.0400 0.1895 
-11 29 6 2.4338 -0.1278 
-11 29 7 2.7905 0.1818 
-11 29 8 0.4848 -0.1513 
-11 29 9 -0.5886 -0.1028 
-11 29 10 -4.5360 -0.0295 
-11 29 11 -17.8801 0.1534 
-11 29 12 -6.1096 -0.4095 
-11 29 13 -0.8313 0.0662 
-11 29 14 0.3806 0.0034 
-11 31 1 -17.8015 0.2121 
-11 31 2 17.4572 -0.3019 
-11 31 3 -9.1619 0.1306 
-11 31 4 -4.2584 -0.0668 
-11 31 5 -4.2548 0.1660 
-11 31 6 -3.4935 -0.3769 
-11 31 7 -12.4586 0.2612 
-11 31 8 5.2406 0.1673 
-11 31 9 2.6158 0.2490 
-10 0 1 18.5614 2.7971 
-10 0 2 -232.6279 -6.9946 
-10 0 3 -238.6566 0.9900 
-10 0 4 21.0756 1.2093 
-10 0 5 59.9618 3.7238 
-10 0 6 78.4196 -4.6497 
-10 0 7 88.0133 -1.3457 
-10 0 8 95.8770 0.1685 
-10 0 9 39.3392 5.4055 
-10 0 10 91.6964 -0.8893 
-10 0 11 -11.2587 -1.5349 
-10 0 12 -16.0662 -2.7248 
-10 0 13 -11.6477 0.8740 
-10 0 14 18.1974 -1.7926 
-10 0 15 -1.1635 1.3144 
-10 0 16 -0.2065 0.7956 
-10 0 17 -7.6135 3.2030 
-10 0 18 24.1702 -1.5779 
-10 0 19 -16.1417 -1.2055 
-10 0 20 -38.8994 -2.1071 
-10 0 21 9.9447 0.9749 
-10 0 22 5.2546 0.8330 
-10 0 23 -4.7986 1.1720 
-10 0 24 -4.8587 -0.5584 
-10 0 25 1.2678 -0.4175 
-10 0 26 10.4874 -0.4618 
-10 0 27 -17.7820 0.9449 
-10 0 28 14.7473 -0.2128 
-10 0 29 0.1052 -0.1218 
-10 2 1 92.1249 0.2727 
-10 2 2 89.7052 -1.0128 
-10 2 3 -117.7592 0.0681 
-10 2 4 21.2684 -0.2109 
-10 2 5 121.4146 1.6991 
-10 2 6 59.4621 -1.7079 
-10 2 7 17.1445 0.5879 
-10 2 8 31.5703 0.0297 
-10 2 9 -31.2395 1.1227 
-10 2 10 6.7984 -2.1471 
-10 2 11 -3.8434 -0.5034 
-10 2 12 15.1109 0.7801 
-10 2 13 -15.1385 2.0048 
-10 2 14 12.1475 -0.4958 
-10 2 15 -14.6005 -0.8801 
-10 2 16 -14.1885 -0.7312 
-10 2 17 -8.4737 0.2978 
-10 2 18 4.1408 0.0784 
-10 2 19 1.4412 0.3928 
-10 2 20 1.7144 0.2597 
-10 2 21 -3.7609 0.0668 
-10 2 22 -7.8806 -0.5913 
-10 2 23 -7.9948 -0.1253 
-10 2 24 -1.5389 0.0980 
-10 2 25 3.2216 0.0416 
-10 2 26 11.3118 -0.0645 
-10 2 27 -10.8962 0.1324 
-10 2 28 10.7847 0.0613 
-10 2 29 10.7603 -0.2934 
-10 4 1 -18.8297 -0.7461 
-10 4 2 6.5090 0.0107 
-10 4 3 -20.8816 -0.2091 
-10 4 4 -21.2808 0.4732 
-10 4 5 -28.3656 0.2236 
-10 4 6 16.5097 -0.1699 
-10 4 7 19.5606 -0.3128 
-10 4 8 48.5905 -0.0500 
-10 4 9 -23.6628 0.4302 
-10 4 10 -18.6347 -0.0335 
-10 4 11 -31.8358 0.2335 
-10 4 12 -12.6421 -0.0566 
-10 4 13 -11.2899 -0.6498 
-10 4 14 1.6874 -0.3214 
-10 4 15 31.8777 0.2662 
-10 4 16 1.2623 0.9988 
-10 4 17 -11.4659 -0.0672 
-10 4 18 13.5709 -0.4461 
-10 4 19 8.2614 -0.6881 
-10 4 20 24.1991 0.3898 
-10 4 21 8.3855 0.0480 
-10 4 22 4.2731 0.0861 
-10 4 23 -1.4617 -0.2289 
-10 4 24 4.9145 0.4812 
-10 4 25 5.1798 -0.1989 
-10 4 26 -4.8911 -0.1212 
-10 4 27 -10.3556 -0.2764 
-10 4 28 5.2928 -0.2250 
-10 6 1 22.8980 0.1536 
-10 6 2 35.9720 0.4691 
-10 6 3 11.7732 0.2888 
-10 6 4 5.9714 -0.7981 
-10 6 5 77.2385 0.1481 
-10 6 6 14.4415 0.0273 
-10 6 7 -85.8671 0.7444 
-10 6 8 6.8503 -0.4503 
-10 6 9 -41.1053 -0.1596 
-10 6 10 13.8045 -0.4116 
-10 6 11 13.9891 0.6284 
-10 6 12 1.3035 0.1834 
-10 6 13 14.1482 0.0565 
-10 6 14 -13.0962 -0.1372 
-10 6 15 -2.1534 -0.0506 
-10 6 16 11.6453 -0.1022 
-10 6 17 0.0692 -0.1511 
-10 6 18 4.5038 -0.0595 
-10 6 19 0.9660 0.3181 
-10 6 20 13.0376 0.1742 
-10 6 21 12.2151 0.0190 
-10 6 22 4.5987 -0.3349 
-10 6 23 -0.4210 -0.1740 
-10 6 24 -4.0918 0.0097 
-10 6 25 2.4070 0.1330 
-10 6 26 4.2876 -0.0637 
-10 6 27 -9.9907 -0.0237 
-10 6 28 1.8629 0.2853 
-10 8 1 6.6633 -0.3831 
-10 8 2 -9.9102 0.0180 
-10 8 3 -23.6209 0.4645 
-10 8 4 34.2773 -0.2004 
-10 8 5 -10.3420 0.2377 
-10 8 6 -38.9244 -0.1790 
-10 8 7 27.1874 0.2410 
-10 8 8 6.7794 -0.5716 
-10 8 9 -20.9297 0.5284 
-10 8 10 -2.7025 -0.1640 
-10 8 11 -15.1368 0.6581 
-10 8 12 -13.4221 -0.7262 
-10 8 13 2.9768 0.0548 
-10 8 14 -3.3929 -0.2145 
-10 8 15 -2.2518 0.5417 
-10 8 16 23.4980 -0.0934 
-10 8 17 7.4880 0.0335 
-10 8 18 12.3698 -0.1937 
-10 8 19 -6.6060 0.1712 
-10 8 20 15.4516 -0.3132 
-10 8 21 4.0432 0.1815 
-10 8 22 -9.3105 -0.1041 
-10 8 23 6.8627 0.0933 
-10 8 24 8.9893 -0.1178 
-10 8 25 -17.4359 0.1883 
-10 8 26 -2.2627 -0.2890 
-10 8 27 3.9425 0.2709 
-10 8 28 -5.3644 -0.3742 
-10 10 1 -30.2396 0.0685 
-10 10 2 5.0250 0.3932 
-10 10 3 -6.5098 -0.0814 
-10 10 4 -8.2974 0.0556 
-10 10 5 -17.7751 -0.2473 
-10 10 6 5.4690 0.0739 
-10 10 7 -6.9190 -0.1233 
-10 10 8 -29.7233 0.2219 
-10 10 9 6.8171 -0.0524 
-10 10 10 9.9507 0.1559 
-10 10 11 35.9604 -0.2402 
-10 10 12 -20.3894 0.0330 
-10 10 13 7.9539 0.2716 
-10 10 14 3.8138 0.0440 
-10 10 15 -20.3895 0.1296 
-10 10 16 22.0534 -0.5037 
-10 10 17 2.6302 0.0960 
-10 10 18 -1.3907 0.1710 
-10 10 19 -5.3945 0.1308 
-10 10 20 17.1616 -0.3309 
-10 10 21 11.0283 0.0566 
-10 10 22 6.5781 0.0351 
-10 10 23 -8.6578 0.1167 
-10 10 24 -10.7602 -0.1984 
-10 10 25 -15.0048 0.0110 
-10 10 26 2.4808 0.1531 
-10 10 27 -9.1397 -0.0575 
-10 12 1 -25.6834 -0.2449 
-10 12 2 52.4091 -0.1297 
-10 12 3 -1.8249 -0.0406 
-10 12 4 -22.4540 0.3451 
-10 12 5 7.5585 -0.1060 
-10 12 6 23.0352 0.2424 
-10 12 7 5.8541 -0.3024 
-10 12 8 9.0206 0.2411 
-10 12 9 19.8134 -0.0243 
-10 12 10 -20.9474 0.1815 
-10 12 11 -27.9051 -0.3992 
-10 12 12 -9.7047 0.1265 
-10 12 13 -1.4484 -0.0848 
-10 12 14 -1.2204 0.2119 
-10 12 15 -8.6088 -0.0795 
-10 12 16 -1.7654 -0.0518 
-10 12 17 -16.1359 0.0897 
-10 12 18 -12.2310 0.1937 
-10 12 19 2.6048 -0.0436 
-10 12 20 15.2025 -0.1895 
-10 12 21 2.2425 -0.0635 
-10 12 22 7.3501 0.0247 
-10 12 23 7.8855 -0.0277 
-10 12 24 1.4446 0.0111 
-10 12 25 4.4633 0.1124 
-10 12 26 25.5908 -0.0247 
-10 12 27 3.6489 0.2091 
-10 14 1 -12.3116 0.0910 
-10 14 2 16.4339 -0.0476 
-10 14 3 7.3317 0.1434 
-10 14 4 -20.7112 -0.1728 
-10 14 5 15.7571 -0.0462 
-10 14 6 16.7616 0.0543 
-10 14 7 6.8949 0.1049 
-10 14 8 -7.7142 -0.1081 
-10 14 9 6.0235 0.0934 
-10 14 10 8.6252 0.0039 
-10 14 11 -10.2954 0.0631 
-10 14 12 8.4923 -0.1179 
-10 14 13 6.0291 0.1286 
-10 14 14 5.4244 -0.0935 
-10 14 15 10.0936 0.0742 
-10 14 16 2.6045 -0.0940 
-10 14 17 -14.9290 0.0967 
-10 14 18 0.8058 -0.1554 
-10 14 19 5.2565 0.0160 
-10 14 20 15.3583 -0.1310 
-10 14 21 -6.6596 0.1039 
-10 14 22 2.2210 -0.0168 
-10 14 23 1.2174 0.0021 
-10 14 24 2.0610 0.0686 
-10 14 25 5.2726 0.1304 
-10 14 26 -5.2590 -0.1653 
-10 16 1 -7.1031 -0.1640 
-10 16 2 1.3340 0.1566 
-10 16 3 14.0631 0.0800 
-10 16 4 -17.0491 0.0119 
-10 16 5 39.0620 -0.0653 
-10 16 6 4.2702 0.1621 
-10 16 7 -14.2794 0.1383 
-10 16 8 7.6025 -0.1616 
-10 16 9 -8.4706 -0.2425 
-10 16 10 -11.7841 -0.0526 
-10 16 11 -8.8420 0.2787 
-10 16 12 -6.1823 -0.1487 
-10 16 13 8.1736 0.1395 
-10 16 14 9.0470 -0.1885 
-10 16 15 11.2639 0.1674 
-10 16 16 1.8612 -0.0716 
-10 16 17 -9.7307 0.0743 
-10 16 18 -6.6840 -0.2124 
-10 16 19 -2.9424 0.2098 
-10 16 20 12.3800 -0.0235 
-10 16 21 -4.0020 0.2099 
-10 16 22 4.2510 -0.1996 
-10 16 23 -21.8420 -0.0419 
-10 16 24 -8.2704 0.0371 
-10 16 25 3.7049 -0.2110 
-10 18 1 2.5731 0.0689 
-10 18 2 -3.3797 0.1863 
-10 18 3 0.6949 -0.2030 
-10 18 4 -23.3157 -0.0283 
-10 18 5 -4.3369 -0.2190 
-10 18 6 -0.6672 0.1738 
-10 18 7 -16.7502 -0.0457 
-10 18 8 18.3572 0.1378 
-10 18 9 6.1370 -0.2551 
-10 18 10 -12.5431 0.2599 
-10 18 11 10.4092 0.0059 
-10 18 12 10.0823 0.0297 
-10 18 13 4.3293 -0.1758 
-10 18 14 2.4833 -0.0257 
-10 18 15 19.1484 -0.0221 
-10 18 16 5.0422 0.1516 
-10 18 17 14.3966 -0.0208 
-10 18 18 10.8056 -0.1693 
-10 18 19 -21.7763 0.1319 
-10 18 20 13.3155 0.0289 
-10 18 21 -11.4993 0.1139 
-10 18 22 8.1954 -0.1963 
-10 18 23 -3.7165 0.0751 
-10 18 24 -3.6045 0.1144 
-10 20 1 11.8863 -0.0544 
-10 20 2 -7.2744 0.0144 
-10 20 3 2.5933 -0.0313 
-10 20 4 0.5288 0.0903 
-10 20 5 -7.4334 0.0572 
-10 20 6 19.3794 0.0148 
-10 20 7 2.4797 0.0130 
-10 20 8 -3.0679 -0.0559 
-10 20 9 1.5776 -0.0850 
-10 20 10 -10.1347 -0.0070 
-10 20 11 -4.8316 -0.0549 
-10 20 12 -5.8249 0.1513 
-10 20 13 -12.3150 -0.0426 
-10 20 14 -1.5302 0.0401 
-10 20 15 -9.1722 -0.0780 
-10 20 16 -20.6663 0.0100 
-10 20 17 4.2533 -0.0938 
-10 20 18 6.4049 0.1283 
-10 20 19 -14.3701 0.0830 
-10 20 20 13.8386 0.1146 
-10 20 21 -5.0723 -0.2032 
-10 20 22 10.6988 -0.1422 
-10 20 23 -5.5925 0.7350 
-10 22 1 2.5349 0.0515 
-10 22 2 -2.6451 -0.2458 
-10 22 3 4.8152 0.0448 
-10 22 4 4.2712 0.0661 
-10 22 5 -8.5289 0.1183 
-10 22 6 4.3316 -0.2198 
-10 22 7 -7.1008 -0.0123 
-10 22 8 0.4384 -0.0042 
-10 22 9 -1.3085 0.2676 
-10 22 10 -0.8932 -0.0923 
-10 22 11 16.6422 -0.0618 
-10 22 12 -4.3760 -0.0896 
-10 22 13 -9.0243 0.0381 
-10 22 14 8.8845 0.0604 
-10 22 15 -1.3038 0.0457 
-10 22 16 6.6438 -0.0612 
-10 22 17 9.7201 0.1416 
-10 22 18 7.5410 -0.0332 
-10 22 19 -5.5934 0.0116 
-10 22 20 3.0421 -0.1254 
-10 22 21 -4.0014 0.1345 
-10 24 1 -8.0479 -0.0170 
-10 24 2 -14.1156 -0.0594 
-10 24 3 4.0769 -0.1049 
-10 24 4 17.9248 0.0566 
-10 24 5 -5.7178 0.0933 
-10 24 6 -4.4561 -0.0796 
-10 24 7 5.0416 -0.0807 
-10 24 8 10.5083 0.0525 
-10 24 9 -1.3000 0.0179 
-10 24 10 -7.0866 0.0085 
-10 24 11 4.1438 -0.0298 
-10 24 12 -0.6747 0.0671 
-10 24 13 0.6368 0.0636 
-10 24 14 10.4533 0.0542 
-10 24 15 -2.3324 -0.1525 
-10 24 16 -2.0302 -0.0768 
-10 24 17 1.0330 0.0473 
-10 24 18 -2.6694 0.2946 
-10 24 19 -1.8988 -0.6101 
-10 24 20 10.3759 0.0471 
-10 26 1 11.1101 -0.0162 
-10 26 2 0.2053 0.0685 
-10 26 3 -20.5477 -0.0381 
-10 26 4 5.8126 0.0832 
-10 26 5 0.9484 0.0052 
-10 26 6 -8.5362 0.0473 
-10 26 7 1.0611 -0.1197 
-10 26 8 1.5164 0.1022 
-10 26 9 11.6670 0.0043 
-10 26 10 8.9687 -0.0483 
-10 26 11 -0.6505 0.0337 
-10 26 12 3.0559 0.0140 
-10 26 13 -0.7065 -0.1806 
-10 26 14 11.7046 0.1444 
-10 26 15 5.2202 0.0819 
-10 26 16 2.2908 -0.0028 
-10 26 17 10.5427 -0.0345 
-10 26 18 -5.8453 -0.0546 
-10 28 1 -9.2654 0.2526 
-10 28 2 10.0658 0.1370 
-10 28 3 8.5160 -0.0562 
-10 28 4 -1.2711 -0.2360 
-10 28 5 -4.7938 0.1042 
-10 28 6 -4.1769 0.0406 
-10 28 7 3.2892 0.0227 
-10 28 8 -6.8750 0.0047 
-10 28 9 4.5643 -0.0569 
-10 28 10 5.7683 -0.0853 
-10 28 11 -9.2711 0.2256 
-10 28 12 5.9801 -0.0193 
-10 28 13 3.7548 -0.1020 
-10 28 14 -2.3300 -0.1240 
-10 28 15 4.7999 0.5140 
-10 30 1 -2.9577 -0.1261 
-10 30 2 -0.7487 0.1729 
-10 30 3 -7.8820 -0.0195 
-10 30 4 4.9114 0.0746 
-10 30 5 -6.7665 0.0892 
-10 30 6 -0.1668 -0.1001 
-10 30 7 3.8263 0.0948 
-10 30 8 -13.3471 -0.1867 
-10 30 9 -3.5207 0.1422 
-10 30 10 -1.3053 -0.1927 
-10 30 11 -11.3892 -0.1058 
-10 30 12 1.0445 -0.2052 
-10 32 1 -17.6310 0.0289 
-10 32 2 -7.3398 0.0175 
-10 32 3 4.4768 -0.3274 
-10 32 4 2.3996 0.1761 
-10 32 5 -1.9312 -0.2031 
-10 32 6 19.6691 -0.1985 
-10 32 7 18.7486 -0.0560 
-9 1 1 18.7064 -0.4836 
-9 1 2 112.5603 -2.2691 
-9 1 3 -36.1711 1.2450 
-9 1 4 -194.0901 1.1071 
-9 1 5 -35.6225 0.1194 
-9 1 6 59.5582 -2.3017 
-9 1 7 51.0043 0.9923 
-9 1 8 53.0503 0.3941 
-9 1 9 -15.9855 1.5453 
-9 1 10 32.5985 -1.4218 
-9 1 11 4.4944 -0.1204 
-9 1 12 -7.8108 -0.6127 
-9 1 13 12.7209 1.6133 
-9 1 14 -5.4665 -0.4986 
-9 1 15 -4.8892 -0.0360 
-9 1 16 19.9930 -1.2445 
-9 1 17 -16.6452 0.8932 
-9 1 18 -15.9291 0.1130 
-9 1 19 -15.6804 0.5431 
-9 1 20 13.5532 -0.9083 
-9 1 21 17.2942 0.2860 
-9 1 22 -3.3550 0.1678 
-9 1 23 19.6243 0.2205 
-9 1 24 11.2233 -0.7240 
-9 1 25 7.1624 -0.1417 
-9 1 26 1.4665 0.3603 
-9 1 27 4.2806 0.4875 
-9 1 28 7.3997 -0.3392 
-9 1 29 -4.2179 -0.1980 
-9 3 1 -3.1777 -0.8515 
-9 3 2 17.3115 0.4430 
-9 3 3 -51.4186 -0.9282 
-9 3 4 99.7005 1.0767 
-9 3 5 26.5334 -0.4778 
-9 3 6 -75.8110 0.8436 
-9 3 7 19.7006 -0.1898 
-9 3 8 -17.4034 -0.1474 
-9 3 9 -7.4112 -0.3586 
-9 3 10 21.0723 -0.1087 
-9 3 11 -32.8963 0.3481 
-9 3 12 16.8760 0.2728 
-9 3 13 21.1681 -0.3258 
-9 3 14 -1.8761 -0.1927 
-9 3 15 -21.1290 -0.0979 
-9 3 16 -13.5454 0.2734 
-9 3 17 9.2747 -0.1145 
-9 3 18 12.1053 0.1922 
-9 3 19 -3.2373 -0.2748 
-9 3 20 3.2565 0.0071 
-9 3 21 -12.1257 -0.3779 
-9 3 22 13.6963 0.3245 
-9 3 23 -3.4213 -0.1354 
-9 3 24 0.3764 0.2885 
-9 3 25 7.5879 -0.2510 
-9 3 26 -5.4428 -0.0079 
-9 3 27 5.3770 -0.0047 
-9 3 28 -0.9147 -0.2113 
-9 5 1 -84.9489 0.2164 
-9 5 2 -92.7309 1.0542 
-9 5 3 -32.1624 -0.0520 
-9 5 4 -46.8219 -0.6590 
-9 5 5 32.8565 -0.3827 
-9 5 6 99.0332 0.6668 
-9 5 7 20.9586 -0.7614 
-9 5 8 9.3753 0.7949 
-9 5 9 -21.4323 -0.5650 
-9 5 10 -20.5591 0.6141 
-9 5 11 4.7285 -0.3132 
-9 5 12 0.0587 0.2314 
-9 5 13 -9.8847 -0.5512 
-9 5 14 28.8121 0.2318 
-9 5 15 1.2145 0.2946 
-9 5 16 6.1107 0.3490 
-9 5 17 23.8164 -0.5419 
-9 5 18 -6.2776 -0.2792 
-9 5 19 -25.9432 -0.0314 
-9 5 20 17.1944 0.4991 
-9 5 21 6.1365 -0.1109 
-9 5 22 7.8256 -0.1448 
-9 5 23 7.4487 -0.3142 
-9 5 24 4.7856 0.4385 
-9 5 25 -2.0482 -0.1712 
-9 5 26 5.3738 0.0152 
-9 5 27 -1.0987 -0.2115 
-9 5 28 15.3708 0.0241 
-9 7 1 14.4246 -0.1065 
-9 7 2 120.4270 -0.0085 
-9 7 3 102.4262 -0.0443 
-9 7 4 3.9700 -0.6599 
-9 7 5 58.5334 0.8638 
-9 7 6 -11.5096 0.4759 
-9 7 7 -23.3254 -0.0873 
-9 7 8 51.6123 -0.6882 
-9 7 9 17.3485 -0.1933 
-9 7 10 24.5069 0.2261 
-9 7 11 -4.1489 0.2338 
-9 7 12 14.5576 0.2127 
-9 7 13 -10.0622 -0.1724 
-9 7 14 17.9760 -0.1751 
-9 7 15 -26.4438 -0.1720 
-9 7 16 -20.7663 0.1361 
-9 7 17 -9.4961 0.0622 
-9 7 18 -22.2165 -0.1163 
-9 7 19 -11.4943 0.0969 
-9 7 20 24.8231 -0.0153 
-9 7 21 17.0179 0.0305 
-9 7 22 1.7808 -0.2898 
-9 7 23 3.7603 0.0286 
-9 7 24 14.3074 0.0303 
-9 7 25 2.3000 -0.0621 
-9 7 26 -1.4535 -0.0743 
-9 7 27 -12.7503 0.0896 
-9 7 28 10.6421 0.1566 
-9 9 1 -18.0803 0.1196 
-9 9 2 5.5536 0.1852 
-9 9 3 -4.9986 0.2978 
-9 9 4 -22.1620 -0.1014 
-9 9 5 34.9459 -0.4930 
-9 9 6 14.7908 -0.1611 
-9 9 7 16.0542 -0.0587 
-9 9 8 23.5820 0.1926 
-9 9 9 -14.8004 0.4519 
-9 9 10 -6.3842 0.0824 
-9 9 11 -21.3979 -0.5481 
-9 9 12 -3.9252 -0.2708 
-9 9 13 5.0305 0.1878 
-9 9 14 14.2148 0.3287 
-9 9 15 -0.8381 0.0076 
-9 9 16 6.0426 -0.0637 
-9 9 17 -2.7802 -0.0786 
-9 9 18 -0.7347 -0.0803 
-9 9 19 -9.5478 -0.0632 
-9 9 20 13.2503 -0.0319 
-9 9 21 15.6718 0.1357 
-9 9 22 -13.3757 -0.0821 
-9 9 23 -27.9947 0.0233 
-9 9 24 5.6009 -0.0787 
-9 9 25 2.9579 0.0363 
-9 9 26 0.9930 0.0643 
-9 9 27 3.6033 -0.0981 
-9 9 28 7.7043 -0.2697 
-9 11 1 38.7091 -0.2295 
-9 11 2 74.7115 -0.6486 
-9 11 3 9.0830 -0.1811 
-9 11 4 -25.3970 0.7950 
-9 11 5 -6.0126 -0.1211 
-9 11 6 -2.6771 0.2986 
-9 11 7 -25.0248 -0.3685 
-9 11 8 8.2049 0.0624 
-9 11 9 -16.1190 -0.3372 
-9 11 10 7.2140 0.2965 
-9 11 11 3.6504 -0.2896 
-9 11 12 2.6057 0.5019 
-9 11 13 -0.4280 -0.1975 
-9 11 14 -16.4507 0.2907 
-9 11 15 -4.3328 -0.6469 
-9 11 16 24.6577 0.1163 
-9 11 17 -3.3889 0.0658 
-9 11 18 -21.4475 0.4523 
-9 11 19 9.9385 -0.2142 
-9 11 20 15.7771 -0.1549 
-9 11 21 0.3908 -0.1192 
-9 11 22 4.7657 0.2132 
-9 11 23 13.2764 -0.1983 
-9 11 24 13.9184 -0.1005 
-9 11 25 -3.4255 0.0775 
-9 11 26 4.1241 -0.1642 
-9 11 27 8.1936 0.2565 
-9 13 1 9.5856 0.0730 
-9 13 2 -13.1857 -0.2800 
-9 13 3 0.0675 0.2962 
-9 13 4 13.2313 0.0777 
-9 13 5 -7.3836 -0.5226 
-9 13 6 54.8767 -0.3419 
-9 13 7 10.2586 0.1402 
-9 13 8 -26.4651 0.6013 
-9 13 9 18.7733 -0.0204 
-9 13 10 0.0713 0.0406 
-9 13 11 -34.2394 -0.2844 
-9 13 12 9.3569 -0.0683 
-9 13 13 -3.0300 -0.2057 
-9 13 14 9.5422 0.4182 
-9 13 15 -6.0660 -0.0923 
-9 13 16 2.6884 0.2061 
-9 13 17 3.2098 -0.3661 
-9 13 18 -2.8763 0.2128 
-9 13 19 5.0275 -0.1899 
-9 13 20 -1.2567 -0.0075 
-9 13 21 -7.2593 -0.0471 
-9 13 22 14.2553 0.1789 
-9 13 23 15.3119 -0.1526 
-9 13 24 3.8139 -0.0122 
-9 13 25 -12.6207 -0.0847 
-9 13 26 -14.8773 0.0782 
-9 15 1 8.0261 -0.1188 
-9 15 2 19.8588 -0.1503 
-9 15 3 28.6607 0.2004 
-9 15 4 -10.5672 -0.0684 
-9 15 5 -21.6466 0.3186 
-9 15 6 5.3461 -0.0010 
-9 15 7 0.5919 0.2032 
-9 15 8 -24.1588 -0.2656 
-9 15 9 18.4392 -0.3980 
-9 15 10 -3.2783 -0.0233 
-9 15 11 -16.5404 0.3972 
-9 15 12 9.0351 0.1618 
-9 15 13 -19.7761 -0.0652 
-9 15 14 -1.7016 -0.2570 
-9 15 15 -7.5751 0.0846 
-9 15 16 6.2516 0.0405 
-9 15 17 1.5991 -0.1235 
-9 15 18 -10.2204 0.0917 
-9 15 19 -4.0181 0.0841 
-9 15 20 9.9662 -0.0785 
-9 15 21 -11.5035 -0.1501 
-9 15 22 -0.4718 0.0333 
-9 15 23 -1.6261 -0.0131 
-9 15 24 -4.0357 -0.0282 
-9 15 25 -7.5872 0.0880 
-9 15 26 -6.6109 0.2953 
-9 17 1 -31.8261 0.0037 
-9 17 2 9.7421 0.4351 
-9 17 3 10.1194 -0.0544 
-9 17 4 -16.6826 -0.1645 
-9 17 5 3.5305 -0.2511 
-9 17 6 1.2692 0.0694 
-9 17 7 8.7651 0.2055 
-9 17 8 -1.2921 0.0736 
-9 17 9 1.9290 -0.0967 
-9 17 10 0.7923 0.0609 
-9 17 11 -13.1530 -0.0745 
-9 17 12 -1.8750 -0.0524 
-9 17 13 -1.3518 -0.1363 
-9 17 14 3.6878 0.0206 
-9 17 15 -17.6461 0.3036 
-9 17 16 -1.9682 0.1011 
-9 17 17 -5.4110 -0.2729 
-9 17 18 -7.8531 -0.1179 
-9 17 19 -20.1500 0.0457 
-9 17 20 1.7275 0.2360 
-9 17 21 -7.1578 -0.0195 
-9 17 22 6.4447 -0.0008 
-9 17 23 8.7621 0.0714 
-9 17 24 0.1127 -0.1014 
-9 17 25 -7.8766 -0.1690 
-9 19 1 -12.1817 -0.0438 
-9 19 2 -1.8660 0.0664 
-9 19 3 2.0587 -0.1969 
-9 19 4 -24.3335 0.0923 
-9 19 5 -6.9503 0.0410 
-9 19 6 -1.2249 0.2245 
-9 19 7 -5.3376 -0.0533 
-9 19 8 -4.7752 -0.2403 
-9 19 9 -6.8657 -0.1082 
-9 19 10 -4.8920 0.1370 
-9 19 11 -22.5723 0.1268 
-9 19 12 -2.3018 0.1584 
-9 19 13 -3.1540 -0.1179 
-9 19 14 2.3552 -0.0118 
-9 19 15 -2.9030 -0.1302 
-9 19 16 4.2849 0.0814 
-9 19 17 -5.2372 -0.0793 
-9 19 18 11.3244 0.0493 
-9 19 19 -9.0161 0.0036 
-9 19 20 20.0783 0.2194 
-9 19 21 1.6514 -0.2467 
-9 19 22 3.5295 0.0826 
-9 19 23 -3.0631 0.2098 
-9 19 24 -7.7204 -0.3771 
-9 21 1 -5.2905 0.1472 
-9 21 2 -15.7501 -0.0404 
-9 21 3 -9.3220 0.0901 
-9 21 4 -2.8024 -0.0269 
-9 21 5 10.7975 0.0474 
-9 21 6 2.4954 -0.1077 
-9 21 7 -16.4441 0.0877 
-9 21 8 -1.9767 -0.0370 
-9 21 9 -7.2632 0.2884 
-9 21 10 -7.2854 -0.1834 
-9 21 11 -1.3366 -0.0428 
-9 21 12 2.2540 -0.1952 
-9 21 13 3.2327 0.1542 
-9 21 14 22.9301 0.0211 
-9 21 15 -4.1235 0.0064 
-9 21 16 19.5527 -0.2255 
-9 21 17 -13.9816 0.1809 
-9 21 18 6.8035 -0.0723 
-9 21 19 6.2366 0.2006 
-9 21 20 3.3256 0.0739 
-9 21 21 -4.0725 -0.0903 
-9 21 22 2.0642 0.5176 
-9 23 1 2.4557 0.0495 
-9 23 2 0.9376 -0.2395 
-9 23 3 -2.4950 -0.0450 
-9 23 4 -8.8993 0.0006 
-9 23 5 -2.5634 0.2016 
-9 23 6 12.2423 -0.1384 
-9 23 7 1.3695 -0.0669 
-9 23 8 3.8662 -0.0274 
-9 23 9 0.5178 0.1797 
-9 23 10 4.9895 -0.0833 
-9 23 11 0.6042 0.0437 
-9 23 12 -3.5420 -0.0634 
-9 23 13 -1.7489 0.1654 
-9 23 14 8.6762 -0.0306 
-9 23 15 6.2226 0.0047 
-9 23 16 13.1466 -0.1028 
-9 23 17 -18.5632 0.1591 
-9 23 18 10.2874 0.0542 
-9 23 19 -3.5806 0.0517 
-9 23 20 -2.2231 -0.7919 
-9 23 21 1.3501 0.6926 
-9 25 1 5.4936 -0.0971 
-9 25 2 -1.6731 0.0518 
-9 25 3 -0.6267 -0.0246 
-9 25 4 16.7481 0.0896 
-9 25 5 -7.7527 0.0245 
-9 25 6 1.6570 -0.0730 
-9 25 7 0.2126 -0.0794 
-9 25 8 -2.7249 0.0566 
-9 25 9 -6.8817 -0.0033 
-9 25 10 4.6577 0.0140 
-9 25 11 2.2238 -0.0560 
-9 25 12 -5.5154 0.0283 
-9 25 13 -7.7134 0.0797 
-9 25 14 1.1144 -0.0331 
-9 25 15 -9.2708 -0.1006 
-9 25 16 -0.8230 0.0384 
-9 25 17 -4.8561 -0.0744 
-9 25 18 3.9651 0.2163 
-9 25 19 -7.2946 -0.7162 
-9 27 1 -3.2478 0.1379 
-9 27 2 -3.3822 0.0729 
-9 27 3 0.5283 -0.0684 
-9 27 4 8.6050 -0.2148 
-9 27 5 -3.2190 0.1278 
-9 27 6 8.8212 0.0586 
-9 27 7 -3.8048 0.0569 
-9 27 8 9.0892 -0.0730 
-9 27 9 -4.2859 0.0992 
-9 27 10 1.6411 -0.0908 
-9 27 11 3.2896 -0.0116 
-9 27 12 -3.0901 -0.0476 
-9 27 13 -0.2493 -0.0441 
-9 27 14 18.8543 0.0663 
-9 27 15 -0.8713 0.0411 
-9 27 16 -1.0948 0.2607 
-9 27 17 -4.7989 -0.3827 
-9 29 1 -10.4722 0.1435 
-9 29 2 -9.8007 0.0448 
-9 29 3 -5.7142 0.0794 
-9 29 4 8.6985 -0.2023 
-9 29 5 -18.4712 0.2435 
-9 29 6 2.4616 -0.1367 
-9 29 7 4.7571 0.0207 
-9 29 8 8.8464 -0.3632 
-9 29 9 -4.0137 0.2726 
-9 29 10 0.7830 -0.2867 
-9 29 11 -6.0075 0.2877 
-9 29 12 -2.2675 0.3183 
-9 29 13 -5.2569 -0.3707 
-9 29 14 4.6124 -0.0864 
-9 31 1 -10.8514 -0.0023 
-9 31 2 2.6739 0.1401 
-9 31 3 -9.1764 -0.0453 
-9 31 4 6.8936 -0.0347 
-9 31 5 -7.6402 0.0778 
-9 31 6 2.4800 -0.1893 
-9 31 7 -10.4893 0.1471 
-9 31 8 12.0510 0.0998 
-9 31 9 -5.3074 0.7596 
-9 31 10 -0.1712 -0.8759 
-8 0 1 -101.3343 5.7760 
-8 0 2 20.2331 -2.8531 
-8 0 3 228.0066 -0.6755 
-8 0 4 468.4119 -4.2327 
-8 0 5 -113.2042 0.8816 
-8 0 6 -132.8208 1.2566 
-8 0 7 -54.6672 2.5130 
-8 0 8 -55.2571 1.1159 
-8 0 9 -30.5268 1.0878 
-8 0 10 19.3479 -3.7115 
-8 0 11 -28.8352 -1.4556 
-8 0 12 31.0370 -0.0471 
-8 0 13 35.7642 4.5116 
-8 0 14 -5.5410 -1.0783 
-8 0 15 31.6741 -1.1361 
-8 0 16 -17.8182 -2.2561 
-8 0 17 8.7624 4.0651 
-8 0 19 12.4959 -0.1948 
-8 0 20 43.9872 -3.2332 
-8 0 21 18.7716 0.9934 
-8 0 22 0.7968 0.5079 
-8 0 23 -0.5728 1.2505 
-8 0 24 -3.6620 -0.4555 
-8 0 25 -10.4621 0.6982 
-8 0 26 -5.5216 -0.5424 
-8 0 27 2.5770 -0.3972 
-8 0 28 0.3733 -0.9826 
-8 0 29 -10.9854 0.4658 
-8 2 1 -80.4621 -1.6806 
-8 2 2 140.8237 0.6964 
-8 2 3 -138.4993 0.9356 
-8 2 4 -14.4959 0.3745 
-8 2 6 -73.5834 -1.1189 
-8 2 7 -26.6361 -1.4565 
-8 2 8 42.1809 -0.5865 
-8 2 9 12.8476 1.9248 
-8 2 10 -14.6638 0.6717 
-8 2 11 -3.7567 -0.2163 
-8 2 12 17.2490 -1.0604 
-8 2 13 20.3042 1.0220 
-8 2 14 4.0046 -0.2073 
-8 2 15 22.8313 -0.1462 
-8 2 16 11.8723 -0.8482 
-8 2 17 -5.4847 0.8773 
-8 2 18 -25.7176 -0.3139 
-8 2 19 -36.3452 -0.1264 
-8 2 20 19.1253 -0.3440 
-8 2 21 3.8381 1.1492 
-8 2 22 2.0589 -0.1725 
-8 2 23 0.0740 -0.4893 
-8 2 24 9.7055 -0.8107 
-8 2 25 3.1698 0.3758 
-8 2 26 6.7569 0.3093 
-8 2 27 -2.2088 0.1430 
-8 2 28 -10.4889 0.2384 
-8 4 1 -40.8529 0.3483 
-8 4 2 296.7114 0.6254 
-8 4 3 99.5922 -0.9316 
-8 4 4 122.0983 -0.7435 
-8 4 5 -3.9749 -0.4935 
-8 4 6 41.2820 1.4882 
-8 4 7 -86.5247 0.0829 
-8 4 8 13.9463 -0.0666 
-8 4 9 36.3815 -0.4136 
-8 4 10 -7.0677 0.1563 
-8 4 11 35.7012 -0.3161 
-8 4 12 -9.1569 -0.0432 
-8 4 13 -0.9972 0.1094 
-8 4 14 -8.4232 0.2433 
-8 4 15 3.5056 -0.1569 
-8 4 16 -11.8074 -0.0022 
-8 4 17 -19.7169 0.1768 
-8 4 18 -2.0991 0.1571 
-8 4 19 3.3652 -0.2535 
-8 4 20 17.9303 -0.1285 
-8 4 21 -5.5575 -0.1541 
-8 4 22 8.1012 -0.0020 
-8 4 23 -3.5438 0.0665 
-8 4 24 2.6914 0.3317 
-8 4 25 7.4623 0.0465 
-8 4 26 -13.9987 -0.1137 
-8 4 27 -10.1777 -0.1225 
-8 4 28 6.4872 -0.1060 
-8 6 1 25.9865 0.3462 
-8 6 2 182.7141 0.0572 
-8 6 3 -140.7471 0.5702 
-8 6 4 -106.9285 -0.3924 
-8 6 5 6.3132 0.4653 
-8 6 6 54.7890 0.0086 
-8 6 7 -50.5379 -0.0177 
-8 6 8 57.8944 -0.8969 
-8 6 9 -1.7970 0.1505 
-8 6 10 -7.4533 0.4653 
-8 6 11 54.9413 0.4384 
-8 6 12 -6.4035 -0.3634 
-8 6 13 5.5912 -0.3305 
-8 6 14 23.7217 0.0408 
-8 6 15 18.6941 0.4471 
-8 6 16 27.3953 -0.0896 
-8 6 17 4.4753 -0.3224 
-8 6 18 -1.6197 -0.2771 
-8 6 19 -2.1314 0.1945 
-8 6 20 10.9276 0.2574 
-8 6 21 -5.4349 0.1159 
-8 6 22 4.4652 -0.3438 
-8 6 23 3.9235 -0.1006 
-8 6 24 -8.6009 0.0006 
-8 6 25 15.8597 -0.0180 
-8 6 26 7.2637 -0.1171 
-8 6 27 -3.7931 0.0210 
-8 6 28 9.4422 -0.3023 
-8 8 1 -9.2608 0.6627 
-8 8 2 98.3452 -0.5412 
-8 8 3 -73.9802 -0.2113 
-8 8 4 77.5963 -0.6857 
-8 8 5 39.5413 0.4398 
-8 8 6 -30.3606 -0.2198 
-8 8 7 21.7401 0.7396 
-8 8 8 15.5444 -0.3665 
-8 8 9 23.8530 0.4026 
-8 8 10 30.6599 -0.8396 
-8 8 11 25.5123 0.5238 
-8 8 12 23.9989 -0.4908 
-8 8 13 -11.0817 0.3561 
-8 8 14 15.2276 -0.3176 
-8 8 15 3.9960 0.2986 
-8 8 16 -6.0931 -0.2562 
-8 8 17 -10.2563 0.1675 
-8 8 18 3.3759 -0.1599 
-8 8 19 -6.8139 0.0652 
-8 8 20 1.5346 -0.1702 
-8 8 21 -18.3898 -0.0157 
-8 8 22 2.3851 -0.1233 
-8 8 23 14.8542 0.2126 
-8 8 24 0.2797 0.1092 
-8 8 25 -9.4587 -0.1499 
-8 8 26 6.1068 -0.2361 
-8 8 27 5.3624 0.4469 
-8 8 28 -3.3119 -0.2353 
-8 10 1 -26.7138 -0.3192 
-8 10 2 36.5256 -0.2353 
-8 10 3 -36.4040 0.4668 
-8 10 4 13.5873 0.5125 
-8 10 5 -5.6212 0.0665 
-8 10 6 2.7110 -0.5522 
-8 10 7 34.4792 -0.1292 
-8 10 8 -9.4405 0.1470 
-8 10 9 -6.5124 0.1620 
-8 10 10 -4.1106 -0.1708 
-8 10 11 -22.1264 0.0334 
-8 10 12 -15.7168 -0.0158 
-8 10 13 -7.9358 0.1562 
-8 10 14 2.0557 -0.2164 
-8 10 15 -11.4561 0.0537 
-8 10 16 -5.1942 -0.1433 
-8 10 17 -5.1397 0.1581 
-8 10 18 2.6906 -0.0860 
-8 10 19 -10.5619 0.0659 
-8 10 20 0.7521 -0.0355 
-8 10 21 -0.9756 0.0223 
-8 10 22 18.6956 -0.0373 
-8 10 23 7.1515 -0.0464 
-8 10 24 4.9865 -0.0072 
-8 10 25 -7.5889 -0.1055 
-8 10 26 8.9015 0.2017 
-8 10 27 -5.6669 -0.1570 
-8 12 1 7.0035 -0.2420 
-8 12 2 54.0624 -0.4064 
-8 12 3 43.6928 -0.0377 
-8 12 4 15.0329 0.2411 
-8 12 5 2.0744 -0.1855 
-8 12 6 -22.4754 -0.3160 
-8 12 7 -2.7953 0.1907 
-8 12 8 -7.6054 0.3371 
-8 12 9 4.3321 -0.0519 
-8 12 10 34.3682 -0.1620 
-8 12 11 -10.7914 -0.1558 
-8 12 12 16.7181 0.1580 
-8 12 13 -12.1479 0.0479 
-8 12 14 -2.7610 0.0460 
-8 12 15 -2.7519 -0.2447 
-8 12 16 -12.8651 0.1200 
-8 12 17 -1.2925 -0.0324 
-8 12 18 6.5184 0.0936 
-8 12 19 0.4568 -0.1194 
-8 12 20 11.0776 -0.0662 
-8 12 21 -11.5680 0.0378 
-8 12 22 -11.0270 0.1423 
-8 12 23 -3.0031 -0.0387 
-8 12 24 -8.5290 -0.0860 
-8 12 25 -30.2940 -0.1186 
-8 12 26 -2.1916 -0.1413 
-8 12 27 -7.0620 0.0522 
-8 14 1 4.7647 0.1223 
-8 14 2 -2.1836 -0.2069 
-8 14 3 27.5076 0.3320 
-8 14 4 10.3378 -0.0054 
-8 14 5 -13.3843 -0.0059 
-8 14 6 -13.1841 -0.3535 
-8 14 7 16.8189 0.2748 
-8 14 8 -3.4797 -0.1097 
-8 14 9 6.0693 0.0084 
-8 14 10 16.6470 -0.1129 
-8 14 11 -19.9890 0.2367 
-8 14 12 1.7051 -0.1080 
-8 14 13 -3.9258 0.0795 
-8 14 14 5.7054 -0.1899 
-8 14 15 -1.5369 0.0978 
-8 14 16 -11.3793 0.0613 
-8 14 17 -6.8445 0.0125 
-8 14 18 -0.9161 -0.0307 
-8 14 19 -12.9819 0.0025 
-8 14 20 13.7508 -0.0819 
-8 14 21 -2.8025 0.0111 
-8 14 22 1.0046 -0.0479 
-8 14 23 5.5531 0.1337 
-8 14 24 -0.9082 -0.1997 
-8 14 25 -18.8389 0.2778 
-8 14 26 -10.6363 0.1388 
-8 16 1 -8.8934 0.1069 
-8 16 2 7.0389 -0.0260 
-8 16 3 4.2012 -0.0041 
-8 16 4 6.5794 -0.0326 
-8 16 5 2.4237 0.0529 
-8 16 6 -10.7720 0.0645 
-8 16 7 5.0551 0.1874 
-8 16 8 -3.7392 -0.1714 
-8 16 9 -1.8478 -0.0483 
-8 16 10 13.6243 -0.0044 
-8 16 11 0.5988 0.1793 
-8 16 12 -7.5166 -0.1491 
-8 16 13 11.1023 -0.0215 
-8 16 14 0.3529 -0.1245 
-8 16 15 -12.0096 0.3142 
-8 16 16 2.5909 -0.1162 
-8 16 17 5.0367 -0.0374 
-8 16 18 12.9719 -0.1613 
-8 16 19 -4.7789 0.1803 
-8 16 20 5.8674 0.0703 
-8 16 21 11.1794 0.0020 
-8 16 22 24.0640 -0.1058 
-8 16 23 2.0325 0.1426 
-8 16 24 -0.6676 -0.2397 
-8 16 25 -1.6734 0.3977 
-8 18 1 1.6504 0.0232 
-8 18 2 11.6569 0.2671 
-8 18 3 0.4864 -0.2062 
-8 18 4 13.6105 -0.0882 
-8 18 5 7.9043 -0.1243 
-8 18 6 9.9967 0.2891 
-8 18 7 -4.5861 -0.0985 
-8 18 8 0.2717 0.0365 
-8 18 9 -5.2204 -0.2036 
-8 18 10 -8.2490 0.1853 
-8 18 11 -9.3326 -0.0980 
-8 18 12 -16.5729 0.0835 
-8 18 13 5.1843 -0.1951 
-8 18 14 5.3684 0.1575 
-8 18 15 -0.3190 0.1799 
-8 18 16 -17.6958 -0.0216 
-8 18 17 -14.3854 -0.0882 
-8 18 18 7.5010 -0.0846 
-8 18 19 -4.1550 0.1307 
-8 18 20 17.1720 -0.0399 
-8 18 21 -7.7481 -0.1222 
-8 18 22 11.5504 0.1810 
-8 18 23 3.6711 0.0817 
-8 18 24 9.8345 0.0749 
-8 20 1 -7.8025 -0.0320 
-8 20 2 -1.8007 0.0821 
-8 20 3 -8.2567 -0.0256 
-8 20 4 9.7330 0.1145 
-8 20 5 -1.8185 0.0233 
-8 20 6 -4.4284 0.0020 
-8 20 7 -4.5355 -0.1441 
-8 20 8 8.2007 0.0210 
-8 20 9 1.2825 -0.0128 
-8 20 10 2.4599 0.1342 
-8 20 11 2.1660 -0.0249 
-8 20 12 0.6560 0.0289 
-8 20 13 3.3548 0.0168 
-8 20 14 9.3610 0.0357 
-8 20 15 -8.9335 -0.1207 
-8 20 16 -4.0161 -0.1819 
-8 20 17 5.8509 0.0386 
-8 20 18 -6.2270 0.0336 
-8 20 19 -11.0299 0.1346 
-8 20 20 14.2744 -0.0652 
-8 20 21 -8.5939 -0.0065 
-8 20 22 10.6921 0.2593 
-8 20 23 -5.9626 -0.1840 
-8 22 1 6.5985 0.0430 
-8 22 2 27.6030 -0.0694 
-8 22 3 -15.6172 -0.0866 
-8 22 4 -3.5150 -0.0676 
-8 22 5 0.0482 0.0258 
-8 22 6 2.9742 0.0152 
-8 22 7 13.4380 0.0521 
-8 22 8 11.4757 0.0752 
-8 22 9 -12.4251 0.0931 
-8 22 10 0.0592 -0.1681 
-8 22 11 3.6980 -0.0904 
-8 22 12 -0.3553 -0.0903 
-8 22 13 -4.1039 0.1477 
-8 22 14 1.0229 -0.0523 
-8 22 15 -7.6837 0.0391 
-8 22 16 -5.5221 -0.1327 
-8 22 17 -10.1495 0.1211 
-8 22 18 -0.6279 -0.0323 
-8 22 19 -9.7662 0.1714 
-8 22 20 3.5378 -0.4977 
-8 22 21 -4.1107 0.4027 
-8 24 1 -7.1341 -0.2317 
-8 24 2 -0.8051 0.1106 
-8 24 3 -11.6713 -0.0514 
-8 24 4 -6.9793 0.2267 
-8 24 5 -9.5581 -0.0793 
-8 24 6 12.3172 -0.0819 
-8 24 7 -5.4145 -0.2445 
-8 24 8 -3.5340 0.1378 
-8 24 9 -4.0298 0.0153 
-8 24 10 -9.6267 0.0595 
-8 24 11 -1.9480 -0.0894 
-8 24 12 6.6243 0.1862 
-8 24 13 1.4181 -0.0141 
-8 24 14 0.3271 -0.0728 
-8 24 15 -0.7036 -0.0313 
-8 24 16 1.4904 0.0826 
-8 24 17 10.6245 -0.1096 
-8 24 18 6.7568 0.1233 
-8 24 19 -1.2514 -0.1957 
-8 24 20 8.5751 -0.3107 
-8 26 1 3.2548 -0.0821 
-8 26 2 -0.1843 0.1709 
-8 26 3 -4.8542 -0.3129 
-8 26 4 8.6330 0.0113 
-8 26 5 0.4144 -0.0452 
-8 26 6 2.9300 0.2881 
-8 26 7 -7.6229 -0.0560 
-8 26 8 5.6527 0.0446 
-8 26 9 1.5043 -0.1463 
-8 26 10 -1.4218 0.0584 
-8 26 11 -0.6143 -0.2219 
-8 26 12 3.8540 0.1125 
-8 26 13 5.0148 -0.1698 
-8 26 14 1.9214 0.1352 
-8 26 15 -0.8326 -0.2608 
-8 26 16 -4.7083 0.3216 
-8 26 17 0.3852 -0.1024 
-8 26 18 1.3045 -0.3078 
-8 28 1 -5.6154 -0.0198 
-8 28 2 -0.9770 0.2277 
-8 28 3 0.6155 0.0202 
-8 28 4 5.8230 -0.1389 
-8 28 5 17.3858 0.0291 
-8 28 6 3.7377 0.0292 
-8 28 7 -0.0206 -0.1590 
-8 28 8 8.7479 -0.1335 
-8 28 9 1.8655 0.0005 
-8 28 10 6.5971 0.3357 
-8 28 11 -8.7984 -0.0392 
-8 28 12 -2.6546 -0.0665 
-8 28 13 7.7503 0.0197 
-8 28 14 -4.9625 0.0658 
-8 28 15 6.7124 -0.4129 
-8 28 16 6.6909 0.4750 
-8 30 1 -1.3691 0.0019 
-8 30 2 5.5972 0.0754 
-8 30 3 -3.2450 -0.0535 
-8 30 4 2.6562 -0.0736 
-8 30 5 -2.7321 -0.0343 
-8 30 6 -8.0703 0.1908 
-8 30 7 -1.1249 -0.0749 
-8 30 8 -4.4393 0.0094 
-8 30 9 5.4663 -0.0450 
-8 30 10 17.2455 -0.1250 
-8 30 11 -1.1144 -0.0846 
-8 30 12 -1.8444 -0.1163 
-8 32 1 -19.4156 -0.2238 
-8 32 2 5.2319 0.0972 
-8 32 3 -0.9663 -0.0260 
-8 32 4 4.7471 0.1641 
-8 32 5 6.0921 -0.3162 
-8 32 6 -1.0879 0.1941 
-8 32 7 -2.9422 -0.1302 
-8 32 8 -17.1261 0.1670 
-7 1 1 -26.4113 -1.1906 
-7 1 2 138.8005 -0.7873 
-7 1 3 -206.1449 1.4624 
-7 1 4 -22.7022 1.2909 
-7 1 5 219.4995 0.4276 
-7 1 6 -2.3551 -2.2605 
-7 1 7 -78.1996 -0.5776 
-7 1 8 -85.1239 0.7844 
-7 1 9 32.9360 0.8410 
-7 1 10 -29.8810 -1.0375 
-7 1 11 -11.8685 0.1414 
-7 1 12 8.0684 0.6349 
-7 1 13 -13.9288 1.3305 
-7 1 14 20.6623 -1.4022 
-7 1 15 0.7271 -0.4627 
-7 1 16 -0.0556 -0.1920 
-7 1 17 -29.2059 1.2508 
-7 1 18 5.0377 -0.2565 
-7 1 19 -18.8474 0.0528 
-7 1 20 -11.7865 -0.6218 
-7 1 21 3.9246 0.8511 
-7 1 22 -3.9992 -0.2220 
-7 1 23 7.9585 0.3272 
-7 1 24 -13.5042 -0.7620 
-7 1 25 7.5519 0.4447 
-7 1 26 -10.0853 -0.2206 
-7 1 27 -16.1371 0.2894 
-7 1 28 19.0438 -0.2428 
-7 3 1 -112.4831 -0.9062 
-7 3 2 349.5070 1.5291 
-7 3 3 -55.1783 -1.0266 
-7 3 4 112.5546 0.7529 
-7 3 5 117.2608 -1.8796 
-7 3 6 -165.9184 0.7285 
-7 3 7 -16.3016 -0.4367 
-7 3 8 19.6334 1.0572 
-7 3 9 48.3089 -0.2974 
-7 3 10 -0.7032 -0.0396 
-7 3 11 -8.0796 -0.6798 
-7 3 12 37.5748 0.4249 
-7 3 13 4.4615 -0.0304 
-7 3 14 0.0687 0.2544 
-7 3 15 23.8642 -0.2885 
-7 3 16 15.4571 0.0908 
-7 3 17 -3.4006 -0.2315 
-7 3 18 13.1030 0.0100 
-7 3 19 -10.1783 -0.0587 
-7 3 20 -22.1434 0.3129 
-7 3 21 -9.4351 -0.1001 
-7 3 22 6.5874 -0.0767 
-7 3 23 -6.0749 -0.2100 
-7 3 24 -1.8755 0.1108 
-7 3 25 9.8804 0.1647 
-7 3 26 11.7288 -0.0673 
-7 3 27 14.6164 0.2159 
-7 3 28 6.6743 0.3387 
-7 5 1 26.1474 -0.1112 
-7 5 2 218.1586 0.6949 
-7 5 3 -74.5906 -0.3326 
-7 5 4 -52.2318 0.0758 
-7 5 5 50.4534 -0.3895 
-7 5 6 -9.7737 1.7486 
-7 5 7 -32.0666 -1.0578 
-7 5 8 29.0588 0.0994 
-7 5 9 -25.5948 -1.0824 
-7 5 10 7.0018 1.3798 
-7 5 11 26.3481 -0.3683 
-7 5 12 6.9112 0.2457 
-7 5 13 14.8557 -0.9078 
-7 5 14 -9.9259 0.3842 
-7 5 15 9.0874 0.1566 
-7 5 16 -6.1478 0.3152 
-7 5 17 -17.9963 -0.1974 
-7 5 18 3.7914 0.0147 
-7 5 19 -11.2682 -0.1299 
-7 5 20 1.3491 0.1870 
-7 5 21 -16.4069 -0.1500 
-7 5 22 2.4197 0.0167 
-7 5 23 6.5622 -0.0040 
-7 5 24 -6.2722 0.3264 
-7 5 25 -5.1811 -0.1852 
-7 5 26 4.7414 -0.0146 
-7 5 27 2.5070 -0.1654 
-7 5 28 6.7637 -0.0551 
-7 7 1 31.5642 0.4728 
-7 7 2 114.1248 0.2386 
-7 7 3 -26.5438 -0.1543 
-7 7 4 -52.4916 -0.7950 
-7 7 5 -25.7749 -0.2013 
-7 7 6 -26.8547 0.4829 
-7 7 7 -28.7268 0.3735 
-7 7 8 48.9688 -0.3215 
-7 7 9 -8.1158 -0.0723 
-7 7 10 -6.3400 0.2905 
-7 7 11 -42.5346 -0.1505 
-7 7 12 -15.8280 -0.0848 
-7 7 13 -2.1750 -0.1355 
-7 7 14 -10.6947 0.4005 
-7 7 15 -6.5417 0.0563 
-7 7 16 7.5957 -0.3491 
-7 7 17 11.9687 -0.2385 
-7 7 18 0.9706 0.0606 
-7 7 19 -19.9931 0.1701 
-7 7 20 -3.1418 0.0484 
-7 7 21 -18.4890 0.0400 
-7 7 22 0.6070 -0.1929 
-7 7 23 6.5683 -0.0645 
-7 7 24 11.6239 0.1448 
-7 7 25 9.8681 -0.1085 
-7 7 26 1.4234 -0.0613 
-7 7 27 -0.6089 0.0457 
-7 7 28 9.1731 -0.4084 
-7 9 1 -37.4004 -0.1239 
-7 9 2 -7.5076 -0.4170 
-7 9 3 24.6523 -0.0876 
-7 9 4 8.1201 0.3864 
-7 9 5 -97.5149 0.3234 
-7 9 6 40.9408 -0.0819 
-7 9 7 12.4584 -0.0521 
-7 9 8 -19.8771 -0.1404 
-7 9 9 18.0407 0.0195 
-7 9 10 14.9484 0.0941 
-7 9 11 -18.7073 0.2177 
-7 9 12 3.0341 -0.2730 
-7 9 13 12.7163 -0.0764 
-7 9 14 2.5008 0.0166 
-7 9 15 -14.6018 0.0216 
-7 9 16 -11.8585 0.0872 
-7 9 17 -4.4316 0.1030 
-7 9 18 -5.3878 0.1474 
-7 9 19 -16.9519 -0.2891 
-7 9 20 11.6855 -0.2178 
-7 9 21 2.1866 0.0643 
-7 9 22 4.6629 0.1594 
-7 9 23 -9.4247 0.0522 
-7 9 24 9.6575 0.1071 
-7 9 25 8.0248 -0.1260 
-7 9 26 -6.8355 0.0589 
-7 9 27 -0.4595 0.1197 
-7 11 1 52.6609 0.0033 
-7 11 2 -13.8462 0.1333 
-7 11 3 -17.8529 -0.1476 
-7 11 4 18.6204 0.4710 
-7 11 5 -30.5608 -0.2306 
-7 11 6 62.0698 -0.4447 
-7 11 7 16.9054 0.0837 
-7 11 8 -21.1809 0.6697 
-7 11 9 8.0526 -0.1148 
-7 11 10 26.9436 -0.2351 
-7 11 11 -8.5264 -0.1994 
-7 11 12 13.0240 0.4090 
-7 11 13 13.3263 0.0714 
-7 11 14 -9.3773 0.1352 
-7 11 15 -12.6016 -0.5154 
-7 11 16 6.0043 0.1260 
-7 11 17 -7.8133 -0.2154 
-7 11 18 -14.1382 0.3181 
-7 11 19 -9.6338 -0.1097 
-7 11 20 8.4149 0.1759 
-7 11 21 -11.2293 -0.0745 
-7 11 22 3.5822 0.1710 
-7 11 23 10.3697 -0.2741 
-7 11 24 1.6934 0.0497 
-7 11 25 5.3465 -0.0424 
-7 11 26 4.1622 -0.0042 
-7 11 27 -4.8157 0.0609 
-7 13 1 -5.3174 -0.1534 
-7 13 2 -24.0197 -0.4102 
-7 13 3 15.7757 -0.0187 
-7 13 4 20.1802 0.3339 
-7 13 5 -43.3634 0.2937 
-7 13 6 -9.8526 -0.4092 
-7 13 7 15.9379 -0.1165 
-7 13 8 -15.4678 0.1145 
-7 13 9 10.4783 0.0390 
-7 13 10 3.7376 -0.1128 
-7 13 11 -27.7571 0.0190 
-7 13 12 19.4349 0.1585 
-7 13 13 -0.4604 -0.0981 
-7 13 14 -1.3024 -0.1183 
-7 13 15 -15.6649 -0.0521 
-7 13 16 1.6674 0.4099 
-7 13 17 3.8257 -0.0921 
-7 13 18 1.8729 0.0523 
-7 13 19 -16.3218 -0.3625 
-7 13 20 7.7651 0.0887 
-7 13 21 11.1003 -0.0494 
-7 13 22 18.1014 0.1623 
-7 13 23 9.2154 0.0763 
-7 13 24 -10.5682 0.0967 
-7 13 25 -0.3315 -0.2273 
-7 13 26 6.2162 0.3158 
-7 15 1 -2.9437 0.3725 
-7 15 2 -3.4352 -0.0681 
-7 15 3 -17.8433 0.2197 
-7 15 4 16.2413 -0.1973 
-7 15 5 7.4478 0.0475 
-7 15 6 -14.8458 -0.2903 
-7 15 7 19.0901 0.2400 
-7 15 8 -13.5778 -0.0035 
-7 15 9 -7.4261 0.2019 
-7 15 10 5.8542 -0.1583 
-7 15 11 2.1501 0.0369 
-7 15 12 8.4219 0.0606 
-7 15 13 -20.4353 0.0857 
-7 15 14 5.8166 -0.1722 
-7 15 15 6.0818 0.0557 
-7 15 16 -2.7118 -0.1089 
-7 15 17 -7.9275 -0.0052 
-7 15 18 2.3471 -0.1122 
-7 15 19 1.5381 0.2371 
-7 15 20 19.3635 0.2536 
-7 15 21 -8.2619 -0.1816 
-7 15 22 -2.8914 -0.1213 
-7 15 23 4.2962 0.0520 
-7 15 24 -0.9698 -0.0614 
-7 15 25 27.2572 0.2207 
-7 17 1 -10.9167 0.0025 
-7 17 2 7.2272 -0.1191 
-7 17 3 4.7233 -0.1037 
-7 17 4 11.3725 0.0713 
-7 17 5 -4.6174 0.0471 
-7 17 6 -30.1857 0.1947 
-7 17 7 4.0688 -0.0719 
-7 17 8 9.2068 -0.1763 
-7 17 9 1.8737 -0.0037 
-7 17 10 24.5312 0.0837 
-7 17 11 -7.1199 0.0034 
-7 17 12 -6.8842 -0.0376 
-7 17 13 -5.2536 -0.2440 
-7 17 14 -13.3126 0.1084 
-7 17 15 -4.8390 0.1603 
-7 17 16 7.6372 0.1518 
-7 17 17 -3.5711 -0.0658 
-7 17 18 13.5919 -0.1156 
-7 17 19 -1.8652 -0.0739 
-7 17 20 -5.8973 0.0785 
-7 17 21 -0.8954 -0.1377 
-7 17 22 11.4220 0.1216 
-7 17 23 6.7428 0.0868 
-7 17 24 -11.4977 -0.0060 
-7 17 25 -12.6834 0.2784 
-7 19 1 -1.2760 0.1482 
-7 19 2 1.5671 0.2623 
-7 19 3 11.1135 -0.0226 
-7 19 4 -11.4551 -0.1985 
-7 19 5 -8.7011 -0.1100 
-7 19 6 6.1691 0.1072 
-7 19 7 19.1489 -0.0534 
-7 19 8 15.9164 0.0472 
-7 19 9 -2.1600 -0.0575 
-7 19 10 20.8443 0.0567 
-7 19 11 -9.6070 -0.0237 
-7 19 12 3.9081 0.0643 
-7 19 13 7.5865 -0.0734 
-7 19 14 4.4990 0.1825 
-7 19 15 3.7845 -0.0991 
-7 19 16 17.1529 0.0227 
-7 19 17 13.8849 -0.2794 
-7 19 18 8.8079 0.2890 
-7 19 19 -7.0487 0.0114 
-7 19 20 -1.7529 0.0441 
-7 19 21 -1.9911 -0.0936 
-7 19 22 0.7487 0.0750 
-7 19 23 -13.1943 -0.2625 
-7 21 1 5.5391 -0.0582 
-7 21 2 13.6243 -0.1464 
-7 21 3 0.4905 0.1983 
-7 21 4 -3.4459 -0.1094 
-7 21 5 8.5833 0.1945 
-7 21 6 -10.8504 -0.1083 
-7 21 7 -7.1061 0.0715 
-7 21 8 -0.4935 -0.1290 
-7 21 9 -6.5601 0.0757 
-7 21 10 12.1563 -0.0955 
-7 21 11 -4.5287 0.0765 
-7 21 12 -4.5015 -0.1154 
-7 21 13 -4.7746 0.1147 
-7 21 14 10.4875 -0.1191 
-7 21 15 -15.2272 0.1021 
-7 21 16 19.9284 -0.1297 
-7 21 17 -7.3774 0.0474 
-7 21 18 -0.2717 0.0807 
-7 21 19 -4.3632 -0.0660 
-7 21 20 -15.6563 -0.2951 
-7 21 21 0.3245 -0.0556 
-7 21 22 4.5590 0.5049 
-7 23 1 -12.6405 0.0003 
-7 23 2 14.9848 0.0165 
-7 23 3 -15.1850 0.1141 
-7 23 4 -3.3226 -0.1680 
-7 23 5 11.6126 -0.0579 
-7 23 6 -4.4216 -0.0572 
-7 23 7 4.2642 0.0921 
-7 23 8 1.5453 0.0558 
-7 23 9 7.4251 0.1242 
-7 23 10 10.5555 -0.1382 
-7 23 11 -0.3151 0.0078 
-7 23 12 3.6773 -0.0837 
-7 23 13 -7.1602 0.1862 
-7 23 14 0.2504 -0.0931 
-7 23 15 -9.0413 -0.0553 
-7 23 16 10.6050 -0.0922 
-7 23 17 -17.6781 0.2107 
-7 23 18 4.4469 0.0043 
-7 23 19 0.0258 0.1662 
-7 23 20 -1.7835 -0.4230 
-7 23 21 2.7473 0.6005 
-7 25 1 6.6702 -0.1847 
-7 25 2 -4.3919 0.0480 
-7 25 3 -9.3815 -0.0394 
-7 25 4 8.7130 0.1320 
-7 25 5 -4.0277 -0.0270 
-7 25 6 -8.0107 0.1674 
-7 25 7 -1.0235 -0.1970 
-7 25 8 0.1669 0.0179 
-7 25 9 -3.3092 -0.0533 
-7 25 10 -10.4482 0.1174 
-7 25 11 -5.4812 -0.0356 
-7 25 12 8.2107 0.0400 
-7 25 13 5.4893 0.0072 
-7 25 14 3.6013 -0.0042 
-7 25 15 -10.4193 -0.0739 
-7 25 16 13.6001 0.1229 
-7 25 17 0.7371 0.1133 
-7 25 18 3.3901 -0.2529 
-7 25 19 -2.0316 -0.1674 
-7 27 1 11.0298 0.1749 
-7 27 2 4.0235 0.0717 
-7 27 3 1.3459 -0.1151 
-7 27 4 -7.3100 -0.1065 
-7 27 5 -8.0974 -0.0113 
-7 27 6 4.0851 0.1451 
-7 27 7 -3.8333 -0.0576 
-7 27 8 3.9261 0.0044 
-7 27 9 -3.2749 -0.0463 
-7 27 10 6.2424 0.2270 
-7 27 11 -7.5540 -0.0955 
-7 27 12 -9.9678 -0.0820 
-7 27 13 -8.7134 -0.0686 
-7 27 14 -5.9878 -0.0209 
-7 27 15 -8.7691 -0.0514 
-7 27 16 5.5841 0.2341 
-7 27 17 -1.3835 -0.1616 
-7 29 1 -2.3281 0.0802 
-7 29 2 -18.4062 0.0439 
-7 29 3 2.3590 0.0890 
-7 29 4 5.5141 -0.1899 
-7 29 5 -13.9828 0.0890 
-7 29 6 14.3006 0.0519 
-7 29 7 -4.6375 0.0931 
-7 29 8 -1.9902 -0.1949 
-7 29 9 -1.3821 -0.1680 
-7 29 10 3.5347 0.3378 
-7 29 11 -9.5466 -0.0600 
-7 29 12 10.9596 0.0196 
-7 29 13 6.8930 0.3403 
-7 29 14 3.4672 0.1755 
-7 31 1 35.6098 -0.1786 
-7 31 2 8.8516 0.0331 
-7 31 3 3.7218 0.0430 
-7 31 4 7.0413 0.0458 
-7 31 5 -16.5229 -0.0319 
-7 31 6 5.5854 0.1166 
-7 31 7 -2.3556 -0.0876 
-7 31 8 19.0801 -0.1028 
-7 31 9 4.2848 0.0027 
-7 31 10 -3.5100 0.0479 
-7 31 11 -9.1542 -0.0003 
-7 33 1 11.8139 -0.3171 
-7 33 2 -9.1788 0.1225 
-7 33 3 -0.9068 -0.1555 
-6 0 1 251.0447 0.9942 
-6 0 2 68.8771 -2.8719 
-6 0 3 256.9071 9.1692 
-6 0 4 131.4186 -2.0025 
-6 0 5 -259.3287 -1.3732 
-6 0 6 63.8003 -3.4288 
-6 0 7 -68.0578 3.4644 
-6 0 8 -77.3478 2.2943 
-6 0 9 22.9860 0.9089 
-6 0 10 -8.4208 -3.5089 
-6 0 11 -5.3705 -2.3349 
-6 0 12 -32.9274 -0.8215 
-6 0 13 -18.6494 2.5248 
-6 0 14 -49.8299 1.5202 
-6 0 15 -4.9280 1.8081 
-6 0 16 31.0054 -1.5841 
-6 0 17 -10.1465 -0.1679 
-6 0 18 25.7314 -1.6949 
-6 0 19 -31.0539 0.3874 
-6 0 20 -16.5531 -0.3498 
-6 0 21 -29.4363 1.9640 
-6 0 22 20.5887 0.3086 
-6 0 23 11.2972 0.0347 
-6 0 24 -18.1803 -1.5609 
-6 0 25 18.5382 0.8925 
-6 0 26 25.6294 0.2136 
-6 0 27 17.1613 0.6159 
-6 0 28 -1.3658 -1.8930 
-6 2 1 44.9515 -2.9120 
-6 2 2 240.1853 -0.3566 
-6 2 3 -17.5206 2.5640 
-6 2 4 -36.5840 -1.3272 
-6 2 5 -24.4806 0.2698 
-6 2 6 156.6730 -0.8672 
-6 2 7 15.5448 1.2842 
-6 2 8 23.5194 -1.2316 
-6 2 9 40.8350 -0.6896 
-6 2 10 -56.4818 0.2269 
-6 2 11 -15.7962 1.2347 
-6 2 12 -6.1844 0.5125 
-6 2 13 31.9938 -0.4257 
-6 2 14 7.2007 -0.8935 
-6 2 15 -8.9280 -0.4311 
-6 2 16 26.5798 -0.3631 
-6 2 17 -18.5358 0.8531 
-6 2 18 2.9237 0.6298 
-6 2 19 -6.9581 0.1144 
-6 2 20 0.0641 -1.0891 
-6 2 21 -18.7038 -0.0274 
-6 2 22 -2.2067 0.2984 
-6 2 23 9.2106 0.3641 
-6 2 24 0.3983 -0.4598 
-6 2 25 -4.4108 -0.0270 
-6 2 26 1.1208 0.1437 
-6 2 27 -22.8312 -0.0142 
-6 2 28 -25.1834 0.0894 
-6 4 1 -171.9778 -0.4634 
-6 4 2 139.9254 1.2585 
-6 4 3 -121.4798 -0.0959 
-6 4 4 -0.6640 -0.3187 
-6 4 5 -18.5305 -0.7586 
-6 4 6 17.1310 0.6283 
-6 4 7 -32.5615 0.2999 
-6 4 8 -26.2328 0.0338 
-6 4 10 -7.4191 0.4513 
-6 4 11 0.5517 -0.3024 
-6 4 12 -13.3579 -0.4985 
-6 4 13 -14.4430 -0.6713 
-6 4 14 -3.0665 1.1437 
-6 4 15 -1.7375 0.5378 
-6 4 16 4.2004 -0.0479 
-6 4 17 -9.2027 -0.9661 
-6 4 18 12.9319 -0.0213 
-6 4 19 -4.9302 0.1854 
-6 4 20 -5.3261 0.2866 
-6 4 21 -2.2803 -0.0826 
-6 4 22 -3.5958 0.1744 
-6 4 23 -7.4794 -0.1599 
-6 4 24 2.1197 0.0652 
-6 4 25 -6.2621 -0.0513 
-6 4 26 6.7240 0.2448 
-6 4 27 3.3443 -0.0854 
-6 4 28 6.2482 0.1794 
-6 6 1 -90.9331 0.8988 
-6 6 2 55.9311 -0.1394 
-6 6 3 -52.8952 -0.9699 
-6 6 4 36.4742 -0.2006 
-6 6 5 -4.9349 0.5710 
-6 6 6 -30.3275 0.4228 
-6 6 7 11.9535 0.0509 
-6 6 8 -24.6151 -0.8217 
-6 6 9 19.9514 0.0621 
-6 6 10 7.4115 0.3152 
-6 6 11 -0.2244 0.5523 
-6 6 12 -7.1009 -0.1601 
-6 6 13 -18.6489 -0.4041 
-6 6 14 -0.5987 -0.0738 
-6 6 15 -22.9037 -0.0010 
-6 6 16 -8.8304 -0.0579 
-6 6 17 -5.6619 -0.0114 
-6 6 18 -16.3188 0.2582 
-6 6 19 -30.3304 0.2279 
-6 6 20 6.7725 -0.1072 
-6 6 21 5.1756 -0.1972 
-6 6 22 -6.1314 -0.1521 
-6 6 23 2.2612 0.2749 
-6 6 24 6.3511 0.1289 
-6 6 25 -1.0771 -0.1129 
-6 6 26 -0.3801 -0.1167 
-6 6 27 -8.4893 -0.0792 
-6 6 28 1.1605 0.0961 
-6 8 1 31.7154 0.3787 
-6 8 2 36.5033 0.0876 
-6 8 3 -3.7079 -0.1437 
-6 8 4 57.4425 -0.1748 
-6 8 5 -64.7668 0.1844 
-6 8 6 -72.3898 -0.3675 
-6 8 7 62.6708 0.2283 
-6 8 8 -44.4653 -0.3113 
-6 8 9 -0.5251 0.5854 
-6 8 10 5.9436 -0.5103 
-6 8 11 -29.1715 0.2951 
-6 8 12 -7.8180 -0.7267 
-6 8 13 -18.9755 0.6104 
-6 8 14 11.7604 -0.1226 
-6 8 15 -13.3214 0.4732 
-6 8 16 -15.5059 -0.2363 
-6 8 17 5.0503 0.0038 
-6 8 18 7.9936 -0.2912 
-6 8 19 -16.3791 0.0952 
-6 8 20 6.4384 -0.0386 
-6 8 21 -3.1234 0.1377 
-6 8 22 -11.1886 -0.1468 
-6 8 23 1.6323 0.0920 
-6 8 24 8.8867 -0.0323 
-6 8 25 -1.6867 0.0615 
-6 8 26 -3.3431 -0.1154 
-6 8 27 2.4460 0.2907 
-6 8 28 -0.1110 -0.8939 
-6 10 1 -26.2247 -0.3475 
-6 10 2 -16.0165 -0.1952 
-6 10 3 34.0037 -0.2178 
-6 10 4 26.5132 0.2457 
-6 10 5 -41.6763 0.2933 
-6 10 6 24.1548 -0.1733 
-6 10 7 31.6628 -0.1746 
-6 10 8 -6.2372 0.3144 
-6 10 9 -18.4031 0.0253 
-6 10 10 28.3410 -0.1417 
-6 10 11 17.5349 -0.0061 
-6 10 12 -16.0017 0.1309 
-6 10 13 7.5393 0.5057 
-6 10 14 0.7605 -0.5751 
-6 10 15 3.9190 -0.1401 
-6 10 16 13.7319 -0.0777 
-6 10 17 12.8852 0.4225 
-6 10 18 1.6466 -0.0114 
-6 10 19 -29.8970 -0.0727 
-6 10 20 -1.1232 -0.0841 
-6 10 21 6.1687 0.1341 
-6 10 22 10.3364 -0.0426 
-6 10 23 1.9602 0.0315 
-6 10 24 1.8063 0.0019 
-6 10 25 4.9630 -0.0558 
-6 10 26 -8.1233 0.0982 
-6 10 27 -10.3039 -0.4288 
-6 12 1 -15.3412 -0.2624 
-6 12 2 -19.0308 0.1466 
-6 12 3 29.1203 0.0026 
-6 12 4 -33.3115 0.4682 
-6 12 5 -4.7984 -0.1564 
-6 12 6 29.0415 -0.4192 
-6 12 7 -1.4393 -0.0222 
-6 12 8 20.3389 0.2853 
-6 12 9 -6.5251 0.0562 
-6 12 10 34.7741 -0.2423 
-6 12 11 -13.3264 -0.1776 
-6 12 12 -15.0703 0.2453 
-6 12 13 -3.9608 0.1589 
-6 12 14 -4.0388 -0.1247 
-6 12 15 14.9969 -0.1156 
-6 12 16 0.4909 0.0867 
-6 12 17 3.3495 0.2056 
-6 12 18 4.2355 -0.2016 
-6 12 19 -12.7009 -0.2032 
-6 12 20 3.7620 0.1191 
-6 12 21 -6.5815 0.1092 
-6 12 22 13.3844 0.0312 
-6 12 23 1.8980 -0.1883 
-6 12 24 -14.4027 0.0609 
-6 12 25 6.7620 0.0559 
-6 12 26 5.9706 -0.1537 
-6 12 27 9.7301 -0.5933 
-6 14 1 -9.8594 -0.0072 
-6 14 2 -12.6327 -0.2442 
-6 14 3 21.5394 -0.0236 
-6 14 4 -13.0862 0.0265 
-6 14 5 -9.5938 0.1066 
-6 14 6 3.0152 -0.2218 
-6 14 7 -19.1060 0.2259 
-6 14 8 -7.4492 -0.1677 
-6 14 9 9.6804 0.2217 
-6 14 10 11.3708 -0.3365 
-6 14 11 -13.3908 0.2872 
-6 14 12 1.8429 -0.0139 
-6 14 13 6.1619 0.1222 
-6 14 14 -0.0927 -0.2057 
-6 14 15 4.7577 0.0857 
-6 14 16 -16.0021 -0.1903 
-6 14 17 -12.1067 0.2269 
-6 14 18 4.4323 -0.1757 
-6 14 19 -15.2532 0.1698 
-6 14 20 -7.2014 -0.0726 
-6 14 21 -16.4404 0.0862 
-6 14 22 7.3285 -0.0762 
-6 14 23 -2.8530 0.0256 
-6 14 24 -0.3960 -0.0544 
-6 14 25 5.2914 -0.0479 
-6 14 26 -16.4693 -0.4901 
-6 16 1 -16.5559 0.2569 
-6 16 2 3.7666 0.1204 
-6 16 3 -23.8715 -0.0124 
-6 16 4 -1.4100 -0.0569 
-6 16 5 -4.3242 0.0491 
-6 16 6 0.7418 0.0306 
-6 16 7 13.3243 -0.0691 
-6 16 8 -4.5523 -0.2554 
-6 16 9 13.9299 0.2387 
-6 16 10 4.0737 -0.0182 
-6 16 11 2.2777 0.2633 
-6 16 12 4.8529 -0.2363 
-6 16 13 7.6474 -0.0141 
-6 16 14 -8.9294 -0.1625 
-6 16 15 0.7873 0.2716 
-6 16 16 -7.1404 -0.0906 
-6 16 17 -13.6293 0.0607 
-6 16 18 11.1882 -0.2631 
-6 16 19 -16.6191 0.2428 
-6 16 20 -10.5209 -0.1678 
-6 16 21 3.2844 0.1332 
-6 16 22 9.8418 -0.1502 
-6 16 23 -9.7417 0.0898 
-6 16 24 5.0326 -0.0318 
-6 16 25 -2.3907 0.0789 
-6 18 1 -2.8598 0.0688 
-6 18 2 10.8214 0.0455 
-6 18 3 -11.0499 -0.1208 
-6 18 4 16.2830 -0.1042 
-6 18 5 -3.7198 -0.0589 
-6 18 6 -8.1118 0.3114 
-6 18 7 -2.6137 -0.1913 
-6 18 8 5.2206 0.1058 
-6 18 9 17.6958 -0.1154 
-6 18 10 -1.9639 0.1815 
-6 18 11 5.7647 -0.1745 
-6 18 12 4.7579 -0.0171 
-6 18 13 6.4767 -0.1000 
-6 18 14 -5.5069 0.1599 
-6 18 15 9.8714 0.1023 
-6 18 16 -12.1883 0.0001 
-6 18 17 -7.9905 -0.2304 
-6 18 18 8.8395 0.0520 
-6 18 19 -17.8554 0.1480 
-6 18 20 -2.9172 -0.0266 
-6 18 21 -5.0908 0.0203 
-6 18 22 8.5241 -0.1963 
-6 18 23 -5.1022 -0.0273 
-6 18 24 16.5230 0.1194 
-6 20 1 -6.2346 0.0966 
-6 20 2 0.5865 -0.0008 
-6 20 3 -6.7437 0.1697 
-6 20 4 6.5154 -0.1033 
-6 20 5 -3.8426 0.0862 
-6 20 6 3.0800 0.0098 
-6 20 7 4.0056 -0.1000 
-6 20 8 -3.1498 -0.0217 
-6 20 9 -10.8214 -0.0843 
-6 20 10 3.6542 0.1612 
-6 20 11 13.9809 -0.0785 
-6 20 12 5.8107 0.0852 
-6 20 13 -1.0071 -0.0372 
-6 20 14 -14.1761 0.0313 
-6 20 15 -16.6462 -0.0630 
-6 20 16 0.1512 0.0764 
-6 20 17 3.6703 -0.1399 
-6 20 18 -8.5770 0.2428 
-6 20 19 -0.9160 -0.0643 
-6 20 20 6.4661 -0.0773 
-6 20 21 -7.4994 -0.1112 
-6 20 22 13.0555 -0.1348 
-6 20 23 -10.7252 0.3586 
-6 22 1 -11.7726 -0.0500 
-6 22 2 6.1953 -0.0069 
-6 22 3 8.0653 0.1194 
-6 22 4 15.9715 -0.1076 
-6 22 5 -0.0409 -0.0054 
-6 22 6 -2.7337 -0.0778 
-6 22 7 15.8374 0.1432 
-6 22 8 7.5009 0.0040 
-6 22 9 -13.7863 0.1777 
-6 22 10 6.9767 -0.2129 
-6 22 11 -2.1011 -0.1075 
-6 22 12 -8.0832 0.0000 
-6 22 13 -0.7302 0.1635 
-6 22 14 9.9331 -0.0110 
-6 22 15 11.6365 -0.0869 
-6 22 16 4.4030 -0.0076 
-6 22 17 -7.5366 0.0378 
-6 22 18 5.5555 0.1381 
-6 22 19 0.3584 -0.1230 
-6 22 20 4.8625 -0.0998 
-6 22 21 -2.7045 -0.0540 
-6 24 1 -24.3233 -0.2303 
-6 24 2 0.1475 0.0745 
-6 24 3 11.5677 -0.0306 
-6 24 4 -4.4377 0.1611 
-6 24 5 -0.0138 -0.1455 
-6 24 6 1.8842 0.1562 
-6 24 7 -0.2025 -0.1034 
-6 24 8 8.9510 -0.0065 
-6 24 9 -6.4364 -0.0166 
-6 24 10 -1.6556 0.1143 
-6 24 11 -0.2223 0.0513 
-6 24 12 -11.0788 0.0984 
-6 24 13 -15.1350 0.0622 
-6 24 14 -8.6600 -0.0887 
-6 24 15 -1.8419 -0.2462 
-6 24 16 4.8724 0.0610 
-6 24 17 2.0115 0.2783 
-6 24 18 -3.9642 0.1846 
-6 24 19 -10.6382 -0.1849 
-6 24 20 -4.4581 0.1418 
-6 26 1 -0.0191 -0.0520 
-6 26 2 -4.8538 0.1251 
-6 26 3 3.0918 -0.0379 
-6 26 4 -1.3776 0.1420 
-6 26 5 5.6481 -0.3278 
-6 26 6 -3.4205 0.1953 
-6 26 7 2.8361 -0.1145 
-6 26 8 10.0227 0.1511 
-6 26 9 4.6208 -0.1192 
-6 26 10 8.1355 0.1794 
-6 26 11 7.2962 -0.1504 
-6 26 12 1.9421 -0.0388 
-6 26 13 -6.7465 -0.0241 
-6 26 14 1.1710 0.1536 
-6 26 15 7.3751 -0.0258 
-6 26 16 -4.2398 0.0238 
-6 26 17 -6.9510 0.2427 
-6 26 18 4.7460 -0.3002 
-6 28 1 -2.3959 0.0957 
-6 28 2 -6.7996 -0.1439 
-6 28 3 0.5438 -0.0344 
-6 28 4 -0.4743 -0.0569 
-6 28 5 4.6537 0.0313 
-6 28 6 -6.2903 0.2186 
-6 28 7 -6.8891 0.0313 
-6 28 8 -3.9739 -0.0619 
-6 28 9 -1.8512 -0.2610 
-6 28 10 -5.6886 0.2988 
-6 28 11 -5.8190 0.0518 
-6 28 12 7.1679 0.1309 
-6 28 13 -5.8982 -0.0555 
-6 28 14 -8.3516 -0.1903 
-6 28 15 6.1610 0.3597 
-6 28 16 -10.4533 -0.1017 
-6 30 1 7.6417 0.0382 
-6 30 2 2.6007 0.0121 
-6 30 3 -5.7982 0.1422 
-6 30 4 0.0078 -0.0052 
-6 30 5 -1.4800 -0.1132 
-6 30 6 -0.0289 -0.0737 
-6 30 7 -1.3658 -0.0275 
-6 30 8 -2.3473 0.1169 
-6 30 9 -3.8939 -0.0992 
-6 30 10 5.0488 0.0496 
-6 30 11 5.8376 -0.0409 
-6 30 12 -1.2656 0.0925 
-6 30 13 -7.1489 -0.4461 
-6 32 1 -2.2766 -0.3267 
-6 32 2 7.0602 0.1830 
-6 32 3 -9.3632 -0.1026 
-6 32 4 7.5532 0.1992 
-6 32 5 12.7570 -0.1074 
-6 32 6 5.7292 0.2956 
-6 32 7 8.6690 0.0986 
-6 32 8 -2.6399 0.2529 
-5 1 1 7.9159 -2.2705 
-5 1 2 -28.2561 -0.0970 
-5 1 3 116.2538 2.1000 
-5 1 4 -33.7402 -0.9976 
-5 1 5 -29.3892 0.8278 
-5 1 6 0.6563 -1.5317 
-5 1 7 -16.2559 1.9144 
-5 1 8 4.8429 -0.0516 
-5 1 9 28.1969 0.8093 
-5 1 10 42.4786 -2.0219 
-5 1 11 -51.8858 0.2900 
-5 1 12 16.2571 0.7898 
-5 1 13 -1.1183 0.9808 
-5 1 14 -6.8691 -1.0352 
-5 1 15 -7.9388 -0.7640 
-5 1 16 9.0733 0.1607 
-5 1 17 9.6783 1.1989 
-5 1 18 -2.5595 -0.2505 
-5 1 19 -6.3405 -0.4036 
-5 1 20 10.9969 -0.3055 
-5 1 21 3.8441 0.7682 
-5 1 22 -13.3481 -0.1801 
-5 1 23 4.2090 -0.1495 
-5 1 24 3.7684 -0.2917 
-5 1 25 -2.4836 0.4307 
-5 1 26 10.1704 0.1413 
-5 1 27 3.0503 -0.0669 
-5 1 28 5.7413 -0.0497 
-5 3 1 -116.9945 -1.0504 
-5 3 2 -42.2322 0.4152 
-5 3 3 16.2411 0.0600 
-5 3 4 57.1813 1.2375 
-5 3 5 -61.8954 -0.5640 
-5 3 6 -62.7218 -0.0282 
-5 3 7 -41.0417 -0.6041 
-5 3 8 -53.4577 0.0279 
-5 3 9 -17.8616 0.4743 
-5 3 10 11.7458 0.1432 
-5 3 11 -43.4302 -0.2681 
-5 3 12 -3.2329 -0.0053 
-5 3 13 -7.2389 -0.4259 
-5 3 14 -11.5757 0.5078 
-5 3 15 -10.8685 -0.2328 
-5 3 16 8.6284 0.5486 
-5 3 17 3.1607 -0.3493 
-5 3 18 -3.0064 0.0699 
-5 3 19 -5.8879 -0.5241 
-5 3 20 -9.6168 0.3308 
-5 3 21 10.0472 -0.0922 
-5 3 22 -1.0661 0.3623 
-5 3 23 -9.3710 -0.3382 
-5 3 24 -11.5662 0.1472 
-5 3 25 -4.1973 -0.1357 
-5 3 26 23.7415 0.1540 
-5 3 27 9.7343 -0.2012 
-5 3 28 -5.9952 -0.7830 
-5 5 1 -20.2748 0.0544 
-5 5 2 -232.2473 -0.4850 
-5 5 3 -34.7157 -0.5525 
-5 5 4 -67.4432 -0.2504 
-5 5 5 -174.6814 -0.3818 
-5 5 6 66.9021 1.3808 
-5 5 7 -11.1341 -0.3915 
-5 5 8 6.2413 0.3767 
-5 5 9 15.0906 -1.0593 
-5 5 10 13.9271 0.8531 
-5 5 11 0.3595 -0.2907 
-5 5 12 -42.7117 0.2309 
-5 5 13 -12.8222 -0.4675 
-5 5 14 -9.2581 0.5740 
-5 5 15 -2.5804 -0.2249 
-5 5 16 6.0839 -0.0180 
-5 5 17 -5.4106 -0.6495 
-5 5 18 14.6390 0.6112 
-5 5 19 -3.0052 0.0739 
-5 5 20 -3.8152 0.2686 
-5 5 21 -9.2479 -0.4688 
-5 5 22 -0.4096 0.1760 
-5 5 23 9.2805 -0.0109 
-5 5 24 6.7061 0.2954 
-5 5 25 6.9201 -0.1878 
-5 5 26 -3.1318 0.1285 
-5 5 27 -14.0729 -0.0524 
-5 5 28 -8.1555 0.3642 
-5 7 1 -173.0562 0.3287 
-5 7 2 -178.4970 0.1992 
-5 7 3 83.5053 0.0340 
-5 7 4 98.9822 0.2844 
-5 7 5 -11.1232 0.1305 
-5 7 6 65.2569 -0.4704 
-5 7 7 11.3746 -0.3912 
-5 7 8 7.7590 -0.1041 
-5 7 9 -7.7534 0.0101 
-5 7 10 -20.9496 0.6280 
-5 7 11 18.8656 0.0460 
-5 7 12 -6.6760 -0.3701 
-5 7 13 -13.3962 -0.5253 
-5 7 14 4.4462 0.1808 
-5 7 15 -4.6624 0.4000 
-5 7 16 9.0619 -0.0189 
-5 7 17 -1.4756 -0.1619 
-5 7 18 7.6330 0.0646 
-5 7 19 -26.4174 0.0571 
-5 7 20 2.9834 -0.0331 
-5 7 21 6.3416 -0.0891 
-5 7 22 0.8621 -0.0193 
-5 7 23 -13.3826 0.1166 
-5 7 24 -18.9857 -0.0607 
-5 7 25 -1.3163 -0.0523 
-5 7 26 2.5063 -0.0029 
-5 7 27 4.9427 0.0465 
-5 7 28 10.8953 0.1433 
-5 9 1 -7.1201 0.0631 
-5 9 2 12.0554 0.0954 
-5 9 3 -15.7448 -0.8466 
-5 9 4 84.7771 0.0660 
-5 9 5 -44.5661 -0.0446 
-5 9 6 7.4575 0.1645 
-5 9 7 44.8282 0.2524 
-5 9 8 12.3819 0.3609 
-5 9 9 44.0332 -0.5627 
-5 9 10 -8.0043 -0.3432 
-5 9 11 4.8371 -0.1206 
-5 9 12 -21.2041 0.3545 
-5 9 13 -14.0908 0.2725 
-5 9 14 11.1559 -0.0300 
-5 9 15 -6.0096 -0.1085 
-5 9 16 7.3668 -0.1878 
-5 9 17 -1.7492 0.0679 
-5 9 18 14.9074 0.0714 
-5 9 19 -21.0738 0.0409 
-5 9 20 -8.4045 -0.0105 
-5 9 21 -2.1405 -0.0040 
-5 9 22 5.7846 -0.0735 
-5 9 23 -2.1412 0.1832 
-5 9 24 -3.8046 -0.1250 
-5 9 25 -0.8851 0.0308 
-5 9 26 8.9855 -0.0793 
-5 9 27 14.9144 0.1897 
-5 11 2 27.5472 0.5367 
-5 11 3 -56.4741 0.0396 
-5 11 4 79.0537 0.6739 
-5 11 5 -1.5377 -0.5113 
-5 11 6 -30.7644 -0.0761 
-5 11 7 8.3049 -0.5868 
-5 11 8 -21.8770 0.4683 
-5 11 9 -3.7100 -0.0239 
-5 11 10 -4.5156 0.2614 
-5 11 11 0.4798 -0.3937 
-5 11 12 -0.0130 0.3610 
-5 11 13 7.5128 -0.3018 
-5 11 14 4.2182 0.0047 
-5 11 15 -6.5135 -0.3172 
-5 11 16 6.0826 0.4408 
-5 11 17 -16.1343 0.0580 
-5 11 18 12.4101 -0.0812 
-5 11 19 1.1584 -0.2701 
-5 11 20 -0.0073 0.1400 
-5 11 21 -18.5525 0.0227 
-5 11 22 -23.8373 0.1161 
-5 11 23 -3.8702 -0.1183 
-5 11 24 -5.4513 -0.0024 
-5 11 25 -17.4588 0.0788 
-5 11 26 8.4491 -0.1773 
-5 11 27 6.0561 -0.3160 
-5 13 1 -0.8335 0.0533 
-5 13 2 18.7907 -0.1328 
-5 13 3 -18.7666 -0.2334 
-5 13 4 -12.8638 -0.2216 
-5 13 5 -8.7561 -0.0107 
-5 13 6 -2.4180 0.4595 
-5 13 7 31.2220 -0.0147 
-5 13 8 -2.1332 0.1016 
-5 13 9 13.9005 -0.2538 
-5 13 10 10.4501 -0.2511 
-5 13 11 2.0403 -0.1775 
-5 13 12 -3.3740 0.3715 
-5 13 13 3.1868 0.2045 
-5 13 14 14.9914 0.0378 
-5 13 15 -3.5181 -0.3991 
-5 13 16 3.1875 0.1141 
-5 13 17 -16.3275 0.0354 
-5 13 18 4.9871 0.0540 
-5 13 19 -4.4774 -0.1702 
-5 13 20 -2.8524 0.1735 
-5 13 21 -11.6578 0.0399 
-5 13 22 -22.6565 -0.0302 
-5 13 23 7.6417 -0.1707 
-5 13 24 24.5172 0.0957 
-5 13 25 -8.8779 -0.4690 
-5 13 26 11.2170 0.2545 
-5 15 1 -29.7416 0.0915 
-5 15 2 -2.4495 -0.0410 
-5 15 3 -5.4837 0.2705 
-5 15 4 1.6264 -0.0931 
-5 15 5 5.1418 0.2576 
-5 15 6 7.3878 -0.2119 
-5 15 7 0.9934 -0.2706 
-5 15 8 -16.7266 -0.2656 
-5 15 9 -11.7511 0.3350 
-5 15 10 3.0383 0.2393 
-5 15 11 23.3930 0.1221 
-5 15 12 -11.0641 -0.2778 
-5 15 13 -3.8643 -0.0249 
-5 15 14 13.3558 -0.0693 
-5 15 15 -15.8877 0.1478 
-5 15 16 -7.1477 -0.0023 
-5 15 17 11.8137 0.0991 
-5 15 18 3.9123 -0.1843 
-5 15 19 -12.1346 -0.0230 
-5 15 20 0.8446 0.0090 
-5 15 21 -5.4392 0.1127 
-5 15 22 0.5769 -0.0544 
-5 15 23 8.9363 -0.1237 
-5 15 24 13.1351 0.2218 
-5 15 25 -7.1435 0.1499 
-5 17 1 -14.3500 0.1931 
-5 17 2 -7.2943 0.1081 
-5 17 3 11.5472 -0.3316 
-5 17 4 5.8149 -0.1689 
-5 17 5 -3.8861 0.1309 
-5 17 6 13.4872 0.2922 
-5 17 7 0.5302 -0.0282 
-5 17 8 -3.1458 -0.1291 
-5 17 9 -6.2084 0.0107 
-5 17 10 9.7721 0.0754 
-5 17 11 4.9807 -0.0770 
-5 17 12 -8.5570 -0.0910 
-5 17 13 0.1527 0.0767 
-5 17 14 -6.4470 0.1364 
-5 17 15 -0.7015 0.0330 
-5 17 16 -1.4792 -0.1268 
-5 17 17 4.2703 -0.1791 
-5 17 18 9.1584 0.1003 
-5 17 19 2.9069 0.1122 
-5 17 20 9.2303 0.0068 
-5 17 21 -3.0541 -0.0902 
-5 17 22 -9.3931 -0.0397 
-5 17 23 -9.1524 -0.0430 
-5 17 24 4.7224 0.1527 
-5 19 1 -6.6945 -0.0720 
-5 19 2 -6.9696 0.0213 
-5 19 3 17.6792 0.0548 
-5 19 4 0.9256 0.0860 
-5 19 5 -5.0640 0.0166 
-5 19 6 13.1773 -0.0257 
-5 19 7 -17.0391 -0.1510 
-5 19 8 -6.5877 -0.0351 
-5 19 9 -2.1263 0.1096 
-5 19 10 7.5600 0.2101 
-5 19 11 -1.3004 -0.1067 
-5 19 12 -3.9815 -0.0189 
-5 19 13 -9.8651 -0.1012 
-5 19 14 -4.8958 0.0682 
-5 19 15 -7.2099 -0.0726 
-5 19 16 -15.7040 0.1934 
-5 19 17 -6.4985 -0.1880 
-5 19 18 -18.0431 0.1606 
-5 19 19 -7.6727 -0.1187 
-5 19 20 3.7023 0.0131 
-5 19 21 -7.5714 -0.0278 
-5 19 22 4.3155 -0.0668 
-5 19 23 -0.6485 0.0097 
-5 21 1 -9.1420 0.1375 
-5 21 2 -13.6794 -0.1585 
-5 21 3 -0.6356 0.2270 
-5 21 4 -1.4277 -0.2128 
-5 21 5 12.6937 0.0597 
-5 21 6 -4.0643 -0.1241 
-5 21 7 -14.1527 0.3273 
-5 21 8 16.7962 -0.1104 
-5 21 9 -2.9824 0.0646 
-5 21 10 -1.9277 -0.2650 
-5 21 11 5.6177 -0.0142 
-5 21 12 1.2010 0.0012 
-5 21 13 -2.5982 0.1994 
-5 21 14 11.6086 -0.0450 
-5 21 15 -11.8872 -0.0520 
-5 21 16 -2.9953 -0.0564 
-5 21 17 -6.1393 0.0830 
-5 21 18 10.5862 0.0633 
-5 21 19 3.5315 -0.1550 
-5 21 20 -0.1564 0.0235 
-5 21 21 1.0833 -0.1392 
-5 21 22 4.1035 0.3592 
-5 23 1 9.6145 -0.1183 
-5 23 2 20.3068 -0.2130 
-5 23 3 -1.9935 0.3281 
-5 23 4 -12.2606 0.0205 
-5 23 5 2.0552 0.0128 
-5 23 6 -6.0549 -0.2270 
-5 23 7 -1.2914 0.1529 
-5 23 8 6.0869 -0.0526 
-5 23 9 -10.3933 0.0425 
-5 23 10 2.3722 -0.0917 
-5 23 11 -1.7770 0.1226 
-5 23 12 -5.1944 -0.0027 
-5 23 13 -9.5553 0.1034 
-5 23 14 -0.0334 -0.1305 
-5 23 15 -4.9669 -0.0533 
-5 23 16 -5.8416 -0.0760 
-5 23 17 -17.2528 0.1108 
-5 23 18 14.1536 0.0758 
-5 23 19 1.5608 -0.1583 
-5 23 20 -5.8243 0.0026 
-5 23 21 -3.0816 0.3888 
-5 25 1 -9.9440 0.0010 
-5 25 2 -8.6019 0.0172 
-5 25 3 12.3067 0.0676 
-5 25 4 0.2461 -0.0480 
-5 25 5 2.4710 -0.1147 
-5 25 6 -0.4579 -0.0618 
-5 25 7 5.6622 0.0780 
-5 25 8 8.9717 0.0623 
-5 25 9 -9.3657 -0.1419 
-5 25 10 -8.8903 0.0975 
-5 25 11 -8.6972 -0.0608 
-5 25 12 4.9458 0.0916 
-5 25 13 0.2796 -0.0684 
-5 25 14 -2.5002 -0.0428 
-5 25 15 -10.3492 0.0666 
-5 25 16 10.0592 -0.1899 
-5 25 17 -0.2565 0.1095 
-5 25 18 4.2995 0.3089 
-5 25 19 2.1902 -0.2510 
-5 27 1 8.1004 0.0276 
-5 27 2 -4.9397 -0.0966 
-5 27 3 5.5706 0.0462 
-5 27 4 -3.7639 -0.0368 
-5 27 5 2.9815 0.0501 
-5 27 6 1.5327 0.0663 
-5 27 7 1.2293 0.0572 
-5 27 8 -0.8306 -0.1724 
-5 27 9 0.7326 -0.0563 
-5 27 10 12.2701 0.0353 
-5 27 11 1.3851 0.0559 
-5 27 12 5.2573 -0.0722 
-5 27 13 -7.1696 -0.0478 
-5 27 14 1.6115 0.0392 
-5 27 15 -0.7818 0.0400 
-5 27 16 13.6304 -0.1631 
-5 27 17 7.0655 0.5411 
-5 29 1 -2.7367 0.1277 
-5 29 2 -14.8286 -0.1147 
-5 29 3 4.8156 0.0255 
-5 29 4 7.6866 -0.1029 
-5 29 5 -8.1440 -0.0078 
-5 29 6 7.8099 -0.1770 
-5 29 7 -7.5957 0.2379 
-5 29 8 -3.1694 -0.1380 
-5 29 9 -1.3457 0.3000 
-5 29 10 -0.8965 -0.0918 
-5 29 11 -9.8184 0.1246 
-5 29 12 -1.1175 -0.2386 
-5 29 13 -2.6931 -0.0474 
-5 29 14 4.5781 -0.0360 
-5 31 1 -4.1254 -0.0262 
-5 31 2 -8.7879 0.0936 
-5 31 3 4.7665 -0.1646 
-5 31 4 6.9300 0.2554 
-5 31 5 -8.4926 -0.1648 
-5 31 6 8.1241 -0.0720 
-5 31 7 -8.2639 0.4384 
-5 31 8 5.5715 -0.2414 
-5 31 9 -0.2719 -0.1806 
-5 31 10 5.3710 -0.9181 
-5 31 11 0.6514 0.4483 
-5 33 1 2.4365 -0.5521 
-5 33 2 -0.4483 0.1166 
-5 33 3 4.9612 -0.2564 
-5 33 4 -2.0508 0.6430 
-4 0 1 39.8859 -1.2020 
-4 0 2 -541.4792 -12.8769 
-4 0 3 9.8212 3.3077 
-4 0 4 41.5392 2.4600 
-4 0 5 -160.1668 2.7727 
-4 0 6 410.6055 -1.7965 
-4 0 7 77.7693 2.4995 
-4 0 8 -87.6170 -0.6690 
-4 0 9 57.6730 -1.1317 
-4 0 10 9.6268 -3.6501 
-4 0 11 -14.7283 2.9944 
-4 0 12 -6.4539 1.3345 
-4 0 13 -16.5510 0.7421 
-4 0 14 24.8780 -3.4006 
-4 0 15 10.4804 1.5730 
-4 0 16 -24.1209 1.4336 
-4 0 17 -8.3292 1.3521 
-4 0 18 7.6116 -2.5995 
-4 0 19 -14.2316 -0.8546 
-4 0 20 -4.9529 -0.2593 
-4 0 21 -14.7087 1.8065 
-4 0 22 4.8689 0.5915 
-4 0 23 -4.7506 0.3657 
-4 0 24 -0.6500 -1.0501 
-4 0 25 -14.0482 -0.3074 
-4 0 26 -11.3447 -0.5412 
-4 0 27 27.5394 0.6563 
-4 0 28 14.5610 0.2432 
-4 2 1 -24.0290 0.8775 
-4 2 2 -103.1747 -0.6550 
-4 2 3 46.1444 2.3868 
-4 2 4 -28.2299 -0.3645 
-4 2 6 132.3023 -2.5682 
-4 2 7 -93.2661 2.2502 
-4 2 8 -22.7700 1.3214 
-4 2 9 66.0479 0.6484 
-4 2 10 1.8394 -2.1684 
-4 2 11 -4.7018 0.7397 
-4 2 12 6.2720 0.2510 
-4 2 13 -15.4442 0.4198 
-4 2 14 -19.2273 -1.1127 
-4 2 15 -26.2090 0.4866 
-4 2 16 -2.7985 0.0952 
-4 2 17 4.0531 0.0114 
-4 2 18 6.0480 -0.2664 
-4 2 19 -15.6405 0.6380 
-4 2 20 -0.1952 0.3155 
-4 2 21 3.3146 -0.2456 
-4 2 22 -3.1663 -0.7283 
-4 2 23 5.5884 0.0613 
-4 2 24 9.6979 0.3660 
-4 2 25 -9.8474 0.1916 
-4 2 26 -3.9858 0.2393 
-4 2 27 -3.7004 -0.3602 
-4 2 28 -13.1277 0.0016 
-4 4 1 -149.6228 -1.1909 
-4 4 2 -91.6720 -0.8962 
-4 4 3 -94.1877 -0.7145 
-4 4 4 -51.8305 0.7348 
-4 4 5 93.2758 0.9674 
-4 4 6 118.0059 0.1411 
-4 4 7 -11.8796 -0.2519 
-4 4 8 15.8120 -0.3966 
-4 4 9 -40.4607 -0.3811 
-4 4 10 -18.8923 0.0040 
-4 4 11 -32.9216 0.4922 
-4 4 12 -16.2858 0.1569 
-4 4 13 -22.9333 -0.3540 
-4 4 14 -20.5711 0.0033 
-4 4 15 -0.1981 0.3082 
-4 4 16 -5.8792 0.3875 
-4 4 17 -3.8061 -0.5086 
-4 4 18 12.2402 0.0864 
-4 4 19 -15.0207 -0.2090 
-4 4 20 -13.6501 0.2032 
-4 4 21 -1.2462 -0.2499 
-4 4 22 10.1562 0.3810 
-4 4 23 2.9594 0.1873 
-4 4 24 4.7500 0.2200 
-4 4 25 -11.6485 -0.5196 
-4 4 26 -10.2338 -0.0059 
-4 4 27 -2.6942 -0.0480 
-4 4 28 2.2684 -0.2781 
-4 6 1 269.2288 0.7271 
-4 6 2 173.5898 1.0611 
-4 6 3 94.9254 -0.0883 
-4 6 4 -83.7698 -0.8817 
-4 6 5 129.6603 0.4271 
-4 6 6 -19.8437 -0.5487 
-4 6 7 -31.7324 0.1070 
-4 6 8 43.9344 -0.3654 
-4 6 9 -76.5985 0.6393 
-4 6 10 30.1472 0.1964 
-4 6 11 12.4980 -0.0163 
-4 6 12 -0.3972 -0.4328 
-4 6 13 -9.9188 -0.0808 
-4 6 14 -1.2888 0.1466 
-4 6 15 -4.4367 0.1707 
-4 6 16 3.8380 -0.2551 
-4 6 17 4.8911 -0.2084 
-4 6 18 3.4706 0.2031 
-4 6 19 3.6858 0.3644 
-4 6 20 9.4607 0.0568 
-4 6 21 -5.2715 -0.2284 
-4 6 22 10.3808 -0.1490 
-4 6 23 -10.0550 0.0467 
-4 6 24 5.5581 0.0813 
-4 6 25 6.0455 0.0805 
-4 6 26 7.1338 0.1552 
-4 6 27 8.6717 0.1191 
-4 6 28 4.3111 0.3768 
-4 8 1 -20.0693 -0.0022 
-4 8 3 41.4928 -0.1491 
-4 8 4 -32.7110 -0.0598 
-4 8 5 70.8091 0.7398 
-4 8 6 -70.2063 -0.0357 
-4 8 7 32.4993 0.2605 
-4 8 8 13.3343 -0.9060 
-4 8 9 -46.4135 0.5147 
-4 8 10 12.7225 -0.2765 
-4 8 11 -12.9297 0.3076 
-4 8 12 -2.7698 -0.5010 
-4 8 13 -10.0323 0.4232 
-4 8 14 8.1246 -0.1546 
-4 8 15 -24.4899 0.2193 
-4 8 16 -15.5392 -0.3765 
-4 8 17 -11.6617 0.3723 
-4 8 18 -3.5342 -0.1591 
-4 8 19 -0.2355 0.1585 
-4 8 20 -1.4991 -0.2731 
-4 8 21 -7.7617 0.2093 
-4 8 22 -4.2585 0.0525 
-4 8 23 -12.8880 0.0938 
-4 8 24 -0.0975 -0.1789 
-4 8 25 -1.0746 0.0698 
-4 8 26 -3.2505 -0.3536 
-4 8 27 -0.7592 0.2698 
-4 10 1 -16.7587 0.3544 
-4 10 2 -37.2967 0.1951 
-4 10 3 36.2543 0.0978 
-4 10 4 -22.8221 -0.0452 
-4 10 5 -24.2362 -0.5121 
-4 10 6 10.8231 0.0728 
-4 10 7 0.4786 0.0234 
-4 10 8 -27.4889 0.2683 
-4 10 9 -39.7367 -0.0672 
-4 10 10 1.6439 -0.0361 
-4 10 11 18.6925 -0.1484 
-4 10 12 -13.2326 -0.0589 
-4 10 13 5.8932 0.1945 
-4 10 14 10.5075 -0.0652 
-4 10 15 -14.8820 -0.0395 
-4 10 16 2.3327 -0.1890 
-4 10 17 -9.9044 0.3515 
-4 10 18 -14.6749 -0.1420 
-4 10 19 -15.3479 -0.0520 
-4 10 20 1.9417 -0.0783 
-4 10 21 6.3995 0.2751 
-4 10 22 -6.0319 -0.1770 
-4 10 23 13.7321 0.0444 
-4 10 24 0.6415 -0.0941 
-4 10 25 5.5792 0.2509 
-4 10 26 26.1348 0.2855 
-4 10 27 17.1467 -0.1377 
-4 12 1 -25.1411 -0.2651 
-4 12 2 -88.3497 -0.0352 
-4 12 3 26.9832 0.1686 
-4 12 4 5.2152 0.1921 
-4 12 5 -3.7855 -0.2038 
-4 12 6 13.3601 0.3226 
-4 12 7 -15.6927 -0.1375 
-4 12 8 -16.4207 0.2261 
-4 12 9 10.1112 -0.2689 
-4 12 10 7.0942 0.0036 
-4 12 11 11.9795 -0.1023 
-4 12 12 -2.0876 0.2441 
-4 12 13 -6.0084 -0.0588 
-4 12 14 12.4583 0.0067 
-4 12 15 -4.3052 -0.2484 
-4 12 16 4.2465 0.1234 
-4 12 17 3.4581 0.2091 
-4 12 18 -1.6367 -0.0547 
-4 12 19 -3.5143 -0.1301 
-4 12 20 -4.3409 -0.0135 
-4 12 21 -12.9643 0.1751 
-4 12 22 -12.0329 0.0696 
-4 12 23 31.6426 -0.0758 
-4 12 24 13.3339 -0.0756 
-4 12 25 -0.6185 -0.1159 
-4 12 26 -4.0407 -0.3016 
-4 14 1 16.4451 0.0444 
-4 14 2 -28.0034 0.0053 
-4 14 3 22.4952 0.0383 
-4 14 4 21.6553 -0.3070 
-4 14 5 -14.4482 0.2117 
-4 14 6 -2.4050 -0.0389 
-4 14 7 11.9205 0.0298 
-4 14 8 -4.1543 -0.0992 
-4 14 9 11.7634 0.1003 
-4 14 10 -8.4479 -0.0884 
-4 14 11 25.4575 0.0531 
-4 14 12 11.3273 -0.1216 
-4 14 13 -17.9872 0.1634 
-4 14 14 -7.6518 -0.0425 
-4 14 15 -5.1988 0.0840 
-4 14 16 8.9637 -0.0326 
-4 14 17 -5.8374 0.0239 
-4 14 18 -19.4362 -0.0856 
-4 14 19 -16.4324 0.0495 
-4 14 20 6.8012 -0.0272 
-4 14 21 8.3660 0.1397 
-4 14 22 -6.2600 -0.1717 
-4 14 23 -1.8281 0.0809 
-4 14 24 -13.2128 0.0549 
-4 14 25 -5.3411 0.0650 
-4 14 26 5.1342 0.3136 
-4 16 1 1.4992 -0.0018 
-4 16 2 -0.7040 0.1760 
-4 16 3 -3.4433 -0.0914 
-4 16 4 10.5594 -0.0460 
-4 16 5 -0.9687 0.1471 
-4 16 6 -4.7922 0.0320 
-4 16 7 5.7270 -0.0171 
-4 16 8 -22.2144 -0.2343 
-4 16 9 3.6948 0.1559 
-4 16 10 1.4520 0.0167 
-4 16 11 18.5151 0.1207 
-4 16 12 -2.9857 -0.2064 
-4 16 13 -6.5615 0.1629 
-4 16 14 10.2491 -0.1574 
-4 16 15 9.9378 0.1775 
-4 16 16 15.0588 -0.1156 
-4 16 17 -12.8534 -0.0090 
-4 16 18 -4.7773 -0.0048 
-4 16 19 -3.1411 0.2003 
-4 16 20 -5.4362 -0.1220 
-4 16 21 -5.2681 -0.0573 
-4 16 22 0.3234 -0.1345 
-4 16 23 1.7468 0.3184 
-4 16 24 -7.6400 0.0902 
-4 16 25 -6.6094 -0.3633 
-4 18 1 -1.1335 -0.0865 
-4 18 2 2.6000 0.0485 
-4 18 3 8.3929 -0.3009 
-4 18 4 -4.4309 0.0905 
-4 18 5 2.1324 -0.0259 
-4 18 6 -6.4519 0.3185 
-4 18 7 -5.4519 -0.2810 
-4 18 8 3.7812 -0.0528 
-4 18 9 2.9962 -0.0043 
-4 18 10 -15.3517 0.2580 
-4 18 11 6.8124 -0.0969 
-4 18 12 -1.9471 -0.0204 
-4 18 13 5.3237 -0.0916 
-4 18 14 9.1242 0.1373 
-4 18 15 -4.4164 0.0585 
-4 18 16 -2.2274 -0.0519 
-4 18 17 -3.3891 -0.0652 
-4 18 18 -6.3906 -0.0606 
-4 18 19 -17.2821 0.0704 
-4 18 20 -5.4563 -0.0774 
-4 18 21 -2.8927 0.0868 
-4 18 22 4.8694 0.2238 
-4 18 23 -9.4870 -0.2718 
-4 18 24 -7.7898 -0.4992 
-4 20 1 -9.7251 0.0202 
-4 20 2 1.4524 0.0672 
-4 20 3 5.6984 0.0323 
-4 20 4 0.7580 -0.0729 
-4 20 5 -8.4464 -0.1026 
-4 20 6 -0.1602 0.0065 
-4 20 7 0.6431 -0.0046 
-4 20 8 7.0953 0.0865 
-4 20 9 5.4030 -0.0001 
-4 20 10 -8.8753 0.0716 
-4 20 11 -0.1277 -0.1194 
-4 20 12 -19.0293 0.0284 
-4 20 13 -18.3546 -0.0410 
-4 20 14 -1.6390 0.0193 
-4 20 15 -6.4954 -0.0981 
-4 20 16 19.9445 0.0392 
-4 20 17 16.3246 0.0594 
-4 20 18 -1.8575 0.0198 
-4 20 19 -7.2914 -0.0312 
-4 20 20 6.0755 -0.1411 
-4 20 21 0.1648 0.1501 
-4 20 22 -0.6503 -0.4236 
-4 20 23 -6.0063 -0.4885 
-4 22 1 -0.8117 -0.1134 
-4 22 2 3.2447 -0.1263 
-4 22 3 1.2791 0.1884 
-4 22 4 19.7566 0.0787 
-4 22 5 -6.4687 -0.0146 
-4 22 6 2.1219 -0.0613 
-4 22 7 -1.2376 0.1665 
-4 22 8 -2.3358 -0.0903 
-4 22 9 8.8217 -0.0854 
-4 22 10 -4.5692 -0.1334 
-4 22 11 0.6175 0.0335 
-4 22 12 1.2002 0.0155 
-4 22 13 -14.0426 0.1390 
-4 22 14 -4.7502 -0.0768 
-4 22 15 -3.0958 0.0167 
-4 22 16 4.1848 -0.0182 
-4 22 17 0.2788 0.1276 
-4 22 18 1.3685 -0.1533 
-4 22 19 -8.8111 -0.2881 
-4 22 20 11.6182 0.0812 
-4 22 21 -7.3739 0.3248 
-4 24 1 -6.6274 -0.1650 
-4 24 2 -3.9628 0.1370 
-4 24 3 4.3893 0.0780 
-4 24 4 5.6657 0.0263 
-4 24 5 1.1571 -0.2858 
-4 24 6 2.4526 -0.0482 
-4 24 7 -12.8883 0.0893 
-4 24 8 1.9774 0.1391 
-4 24 9 4.4788 -0.0861 
-4 24 10 3.7990 0.0368 
-4 24 11 8.1953 -0.0855 
-4 24 12 12.5027 0.0807 
-4 24 13 5.3312 -0.0809 
-4 24 14 -5.6446 0.0073 
-4 24 15 -5.1614 -0.0039 
-4 24 16 16.4415 -0.0772 
-4 24 17 5.5693 -0.0114 
-4 24 18 -8.2442 0.1026 
-4 24 19 -6.0435 -0.1580 
-4 24 20 6.3266 0.5003 
-4 26 1 15.0733 -0.1568 
-4 26 2 8.0608 -0.0221 
-4 26 3 8.0778 -0.1526 
-4 26 4 -13.6283 0.2839 
-4 26 5 1.5727 0.0504 
-4 26 6 -5.0415 0.0178 
-4 26 7 -1.6287 -0.1373 
-4 26 8 1.5678 0.0136 
-4 26 9 -20.6134 -0.1126 
-4 26 10 -11.7768 -0.0208 
-4 26 11 -3.4957 0.0273 
-4 26 12 -7.5516 0.1028 
-4 26 13 -2.3868 -0.1967 
-4 26 14 9.2032 0.1836 
-4 26 15 -3.0940 -0.1078 
-4 26 16 -1.9535 -0.0696 
-4 26 17 -8.0777 -0.2178 
-4 26 18 -3.9005 -0.0967 
-4 28 1 -9.8676 0.2212 
-4 28 2 3.0224 -0.0935 
-4 28 3 3.2652 -0.0302 
-4 28 4 -11.7816 -0.1163 
-4 28 5 4.7603 0.0632 
-4 28 6 0.1927 -0.1930 
-4 28 7 -7.7245 0.1126 
-4 28 8 3.3310 0.1704 
-4 28 9 9.1293 0.1398 
-4 28 10 12.9757 -0.1022 
-4 28 11 0.1606 0.0588 
-4 28 12 -6.9057 -0.2182 
-4 28 13 -3.3896 -0.0376 
-4 28 14 8.9602 0.0873 
-4 28 15 -4.9654 -0.1969 
-4 28 16 -11.3589 0.1197 
-4 30 1 12.7984 0.0558 
-4 30 2 11.3587 -0.2236 
-4 30 3 -9.8231 0.0492 
-4 30 4 -3.6839 -0.0456 
-4 30 5 3.1767 0.2107 
-4 30 6 14.7425 -0.1927 
-4 30 7 -0.3585 0.0432 
-4 30 8 -2.4303 -0.1369 
-4 30 9 -4.6932 0.1297 
-4 30 10 7.0830 -0.1154 
-4 30 11 -1.8838 0.1519 
-4 30 12 -13.0824 -0.0158 
-4 30 13 6.4088 0.4541 
-4 32 1 4.9220 -0.0514 
-4 32 2 4.0070 0.0349 
-4 32 3 -25.1044 0.0048 
-4 32 4 0.3837 0.0888 
-4 32 5 -3.2470 -0.2356 
-4 32 6 -7.4283 0.0915 
-4 32 7 -12.9573 0.3558 
-4 32 8 -6.6177 0.2320 
-3 1 1 -109.4871 -1.6580 
-3 1 2 -255.7683 0.3540 
-3 1 3 -3.4511 1.5799 
-3 1 4 -135.1452 -1.6342 
-3 1 5 -47.5441 -1.6206 
-3 1 6 91.3062 -1.1944 
-3 1 7 -184.3716 1.7366 
-3 1 8 36.7607 0.5506 
-3 1 9 6.5759 0.3035 
-3 1 10 -14.7446 -1.5435 
-3 1 11 29.3180 1.1602 
-3 1 12 1.9881 -0.5132 
-3 1 13 -6.1380 0.5578 
-3 1 14 8.3134 -1.6814 
-3 1 15 -29.6794 0.8099 
-3 1 16 3.1509 -0.0616 
-3 1 17 31.2037 1.0062 
-3 1 18 -8.2486 -0.7689 
-3 1 19 -8.7198 -0.0262 
-3 1 20 5.0082 -0.2478 
-3 1 21 -10.7943 0.7627 
-3 1 22 -9.7550 -0.2681 
-3 1 23 -12.9527 -0.1795 
-3 1 24 14.6081 -0.4284 
-3 1 25 -1.2661 0.6398 
-3 1 26 -17.2702 0.1462 
-3 1 27 -7.4397 -0.2110 
-3 1 28 -1.4451 0.1796 
-3 3 1 20.2448 -1.1997 
-3 3 2 69.0393 0.8673 
-3 3 3 -22.3113 -1.3642 
-3 3 4 131.1112 0.8003 
-3 3 5 16.1166 -0.3057 
-3 3 6 76.9077 0.8720 
-3 3 7 -15.5033 -0.2976 
-3 3 8 49.8412 -0.0054 
-3 3 9 -5.7366 -0.7075 
-3 3 10 -5.7117 0.1631 
-3 3 11 13.7133 0.3573 
-3 3 12 -18.0262 0.1491 
-3 3 13 -11.4376 -0.0914 
-3 3 14 -5.4372 -0.1679 
-3 3 15 -36.2316 0.0010 
-3 3 16 -23.2021 -0.0108 
-3 3 17 -14.5280 0.0130 
-3 3 18 -6.6121 0.4149 
-3 3 19 16.0441 -0.1578 
-3 3 20 9.7441 0.0047 
-3 3 21 1.0546 -0.2380 
-3 3 22 -8.0130 0.3034 
-3 3 23 -13.7611 0.0190 
-3 3 24 0.8946 0.1477 
-3 3 25 6.4629 -0.0201 
-3 3 26 -5.8401 -0.0638 
-3 3 27 5.7741 0.0082 
-3 3 28 -0.6715 -0.0831 
-3 5 1 -21.7214 1.1180 
-3 5 3 42.7251 -0.9942 
-3 5 4 225.2863 0.6494 
-3 5 5 -1.6626 0.1752 
-3 5 7 -56.3679 -1.3520 
-3 5 8 -2.4978 0.6981 
-3 5 9 -2.7142 -0.2248 
-3 5 10 -13.2383 0.9617 
-3 5 11 11.0481 -0.9740 
-3 5 12 -15.1603 -0.0926 
-3 5 13 2.5657 -0.1976 
-3 5 14 2.7334 0.7084 
-3 5 15 -5.9787 0.1249 
-3 5 16 5.9298 -0.0165 
-3 5 17 -6.5653 -0.5679 
-3 5 18 -9.6902 0.2692 
-3 5 19 -4.6552 -0.0872 
-3 5 20 -8.7067 0.3428 
-3 5 21 -8.1069 -0.2501 
-3 5 22 1.3844 0.1403 
-3 5 23 1.3622 -0.0981 
-3 5 24 2.9949 0.1685 
-3 5 25 -3.4403 -0.1623 
-3 5 26 -17.5451 0.2335 
-3 5 27 0.1977 0.0127 
-3 5 28 -6.5193 -0.2990 
-3 7 1 -127.0641 0.9201 
-3 7 2 -85.1451 -0.5616 
-3 7 3 -14.3773 -0.2840 
-3 7 4 60.5602 0.0032 
-3 7 5 -38.4327 0.7101 
-3 7 6 15.7685 -0.0704 
-3 7 7 -0.8660 -0.1501 
-3 7 8 -14.8857 -0.1900 
-3 7 9 -2.1972 0.1767 
-3 7 10 4.1604 0.1457 
-3 7 11 14.3583 -0.0585 
-3 7 12 -5.2716 0.2830 
-3 7 13 0.0355 -0.0901 
-3 7 14 12.7628 -0.1030 
-3 7 15 -11.0053 -0.2397 
-3 7 16 16.7518 -0.0231 
-3 7 17 11.2133 0.2490 
-3 7 18 7.3387 0.1292 
-3 7 19 -0.6501 0.2038 
-3 7 20 -0.6567 -0.1381 
-3 7 21 -7.0160 -0.2090 
-3 7 22 -1.8169 0.1108 
-3 7 23 -10.7380 0.1948 
-3 7 24 -7.1365 0.0761 
-3 7 25 -5.7332 -0.2922 
-3 7 26 -17.9740 -0.0283 
-3 7 27 -13.3224 -0.2679 
-3 9 1 -69.7235 -0.2350 
-3 9 2 -8.0841 -0.0837 
-3 9 3 -23.5507 0.4755 
-3 9 4 26.0141 -0.0908 
-3 9 5 -52.6859 -0.1636 
-3 9 6 -22.9941 -0.1338 
-3 9 7 -15.8251 -0.0692 
-3 9 8 -51.2812 0.1697 
-3 9 9 -1.0677 0.2900 
-3 9 10 19.7607 -0.1704 
-3 9 11 19.2886 -0.2460 
-3 9 12 -1.0117 0.0098 
-3 9 13 2.0120 0.0569 
-3 9 14 2.3359 0.3068 
-3 9 15 -7.7854 -0.0304 
-3 9 16 22.9745 0.0105 
-3 9 17 -6.0731 -0.0872 
-3 9 18 10.9446 -0.2503 
-3 9 19 8.5525 0.0993 
-3 9 20 -4.3221 0.1486 
-3 9 21 0.1418 0.1350 
-3 9 22 8.2426 -0.0512 
-3 9 23 -3.9345 -0.1323 
-3 9 24 27.9136 -0.0865 
-3 9 25 22.2467 0.1273 
-3 9 26 -11.6478 0.2310 
-3 9 27 -12.4039 -0.1365 
-3 11 1 -56.4975 -0.3633 
-3 11 2 -51.2759 0.2159 
-3 11 3 -7.4673 0.1313 
-3 11 4 -13.5963 -0.0188 
-3 11 5 3.1757 -0.3982 
-3 11 6 -21.3535 0.3424 
-3 11 7 -8.7303 0.0428 
-3 11 8 4.2646 0.2512 
-3 11 9 -15.9586 -0.4513 
-3 11 10 8.9672 0.2169 
-3 11 11 11.1556 -0.0935 
-3 11 12 -0.0225 0.4811 
-3 11 13 -1.7886 -0.4047 
-3 11 14 -5.1043 0.0592 
-3 11 15 -3.6743 -0.5478 
-3 11 16 16.1307 0.4502 
-3 11 17 -1.8673 0.1857 
-3 11 18 5.4260 0.2150 
-3 11 19 -7.2146 -0.3119 
-3 11 20 -3.9525 0.0213 
-3 11 21 2.1014 0.0008 
-3 11 22 -8.7209 0.0493 
-3 11 23 -26.2149 -0.0748 
-3 11 24 -1.2525 -0.0135 
-3 11 25 -2.1896 0.0776 
-3 11 26 -8.5101 -0.1951 
-3 13 1 -18.9862 -0.1599 
-3 13 2 19.0427 0.1071 
-3 13 3 26.4762 0.4335 
-3 13 4 -4.3877 -0.1278 
-3 13 5 29.3523 -0.3182 
-3 13 6 -40.7900 0.0115 
-3 13 7 -13.7955 0.3109 
-3 13 8 16.8408 0.1163 
-3 13 9 -9.6539 -0.2711 
-3 13 10 -18.3370 0.1682 
-3 13 11 1.7699 -0.2253 
-3 13 12 -9.6871 0.1012 
-3 13 13 -2.6948 -0.1082 
-3 13 14 18.0958 0.3670 
-3 13 15 3.1383 -0.0695 
-3 13 16 0.8172 0.1681 
-3 13 17 -8.0809 -0.3676 
-3 13 18 -6.8112 0.1507 
-3 13 19 -2.1195 -0.2401 
-3 13 20 0.3589 0.2574 
-3 13 21 -6.7349 0.1454 
-3 13 22 -6.2398 -0.0557 
-3 13 23 -3.4286 -0.0600 
-3 13 24 15.5848 0.0483 
-3 13 25 4.8816 -0.0576 
-3 13 26 11.2844 0.4480 
-3 15 1 13.3660 0.1970 
-3 15 2 -29.0994 -0.1990 
-3 15 3 -64.1837 -0.0152 
-3 15 4 2.4285 -0.3960 
-3 15 5 10.6726 0.2482 
-3 15 6 -7.1545 0.1693 
-3 15 7 5.5597 0.1730 
-3 15 8 18.8497 -0.4044 
-3 15 9 -18.9750 -0.0400 
-3 15 10 -23.8248 0.1940 
-3 15 11 25.4642 0.1419 
-3 15 12 -7.6951 -0.1245 
-3 15 13 1.3583 -0.1233 
-3 15 14 21.7844 -0.0438 
-3 15 15 -11.9954 -0.0099 
-3 15 16 -7.7692 -0.0373 
-3 15 17 16.1394 0.0422 
-3 15 18 7.6839 0.3062 
-3 15 19 8.0313 -0.0500 
-3 15 20 8.0147 -0.1597 
-3 15 21 -0.6445 -0.2489 
-3 15 22 -0.8165 0.0437 
-3 15 23 -5.9749 0.1207 
-3 15 24 -3.0060 -0.0289 
-3 15 25 -3.3582 -0.0754 
-3 17 1 30.6194 -0.0782 
-3 17 2 0.0251 0.1739 
-3 17 3 -7.8468 -0.0870 
-3 17 4 9.2280 0.0129 
-3 17 5 -20.7329 0.0880 
-3 17 6 -23.0153 0.1422 
-3 17 7 -15.1262 -0.2593 
-3 17 8 11.3471 -0.0904 
-3 17 9 -0.7834 0.0859 
-3 17 10 -3.9324 0.1843 
-3 17 11 3.5245 -0.1134 
-3 17 12 -1.4526 -0.1945 
-3 17 13 -2.2063 0.0462 
-3 17 14 2.7397 0.2780 
-3 17 15 11.3437 0.0988 
-3 17 16 -2.4707 -0.0986 
-3 17 17 -1.6027 -0.2847 
-3 17 18 7.3086 0.0189 
-3 17 19 2.0927 0.0401 
-3 17 20 -2.9889 0.1329 
-3 17 21 -0.9473 -0.0787 
-3 17 22 -3.6300 0.2918 
-3 17 23 1.0654 -0.1603 
-3 17 24 5.8678 0.1918 
-3 19 1 6.8402 -0.0456 
-3 19 2 -11.1006 -0.0553 
-3 19 3 0.2585 -0.2803 
-3 19 4 -3.1705 -0.0033 
-3 19 5 4.4879 -0.0261 
-3 19 6 20.4784 0.1515 
-3 19 7 -3.7057 -0.1127 
-3 19 8 0.4102 -0.0656 
-3 19 9 -0.8385 0.0313 
-3 19 10 8.5358 0.1227 
-3 19 11 -8.9336 -0.0192 
-3 19 12 12.3270 0.0349 
-3 19 13 7.2813 -0.0832 
-3 19 14 1.5491 0.0229 
-3 19 15 0.2997 -0.1531 
-3 19 16 -6.5979 0.0370 
-3 19 17 -2.2786 -0.0396 
-3 19 18 1.5911 0.2434 
-3 19 19 9.4793 -0.0450 
-3 19 20 4.8267 -0.1266 
-3 19 21 0.8136 -0.1797 
-3 19 22 1.3900 -0.0238 
-3 19 23 -1.6009 -0.0639 
-3 21 1 4.9826 0.0236 
-3 21 2 -8.9704 0.0636 
-3 21 3 6.9350 0.1795 
-3 21 4 7.7794 0.0745 
-3 21 5 -1.1961 -0.0099 
-3 21 6 0.9064 -0.2459 
-3 21 7 -12.7488 0.1608 
-3 21 8 -5.3620 -0.0771 
-3 21 9 -1.6729 0.1884 
-3 21 10 5.0814 -0.2509 
-3 21 11 -3.1081 0.0892 
-3 21 12 11.4324 -0.0044 
-3 21 13 13.5051 0.1044 
-3 21 14 16.7227 -0.1813 
-3 21 15 -11.4998 0.1780 
-3 21 16 -2.9590 -0.0796 
-3 21 17 -8.0262 0.1407 
-3 21 18 -9.3888 -0.2050 
-3 21 19 -12.2186 -0.1421 
-3 21 20 1.2483 0.0915 
-3 21 21 2.9321 -0.0228 
-3 21 22 2.2011 0.3809 
-3 23 1 24.1092 0.0353 
-3 23 2 6.6920 -0.1573 
-3 23 3 13.8757 0.0826 
-3 23 4 21.4997 -0.0250 
-3 23 5 -17.5943 0.0038 
-3 23 6 12.0080 -0.0641 
-3 23 7 -6.6899 0.1731 
-3 23 8 -5.8728 0.0597 
-3 23 9 8.9558 0.0114 
-3 23 10 6.5782 -0.2824 
-3 23 11 -0.7280 0.0694 
-3 23 12 -0.0790 0.0490 
-3 23 13 -1.7648 0.0871 
-3 23 14 18.0708 -0.1878 
-3 23 15 4.1385 0.0740 
-3 23 16 3.8751 0.1158 
-3 23 17 0.7542 0.2477 
-3 23 18 4.3327 -0.4017 
-3 23 19 0.5645 0.1920 
-3 23 20 -1.1952 0.0117 
-3 25 1 -2.4222 -0.0494 
-3 25 2 -12.7111 0.0412 
-3 25 3 4.7580 0.0921 
-3 25 4 -8.5472 0.0866 
-3 25 5 -29.8452 -0.0401 
-3 25 6 9.6166 -0.0759 
-3 25 7 -9.5037 -0.1248 
-3 25 8 2.3532 0.1416 
-3 25 9 2.6399 -0.0081 
-3 25 10 -2.0207 0.0395 
-3 25 11 3.6250 -0.0001 
-3 25 12 3.6053 0.0969 
-3 25 13 1.0530 -0.1574 
-3 25 14 12.8141 0.1299 
-3 25 15 -2.4740 -0.1038 
-3 25 16 -1.4916 0.2473 
-3 25 17 -8.2679 -0.2065 
-3 25 18 -11.0032 -0.3980 
-3 25 19 4.2630 0.1048 
-3 27 1 0.8043 0.1762 
-3 27 2 -4.9389 -0.2201 
-3 27 3 12.2392 -0.0660 
-3 27 4 4.7766 0.0222 
-3 27 5 -2.0059 0.1340 
-3 27 6 15.9014 0.0063 
-3 27 7 2.4681 0.0326 
-3 27 8 -2.8739 0.0816 
-3 27 9 -2.7464 0.0026 
-3 27 10 7.3085 -0.1427 
-3 27 11 -0.7541 0.0671 
-3 27 12 5.0591 -0.0162 
-3 27 13 -0.6016 0.0467 
-3 27 14 2.6651 0.2556 
-3 27 15 1.5812 -0.2705 
-3 27 16 6.0814 0.0424 
-3 27 17 1.8453 -0.7191 
-3 29 1 13.0245 0.2291 
-3 29 2 -7.3332 -0.1440 
-3 29 3 -6.9002 0.0174 
-3 29 4 -2.9564 -0.0716 
-3 29 5 -6.6654 0.2342 
-3 29 6 7.2541 -0.3221 
-3 29 7 0.8924 0.0318 
-3 29 8 4.0150 -0.0770 
-3 29 9 -19.0664 0.3274 
-3 29 10 -4.3852 -0.0580 
-3 29 11 2.1235 0.3252 
-3 29 12 9.2615 0.0031 
-3 29 13 3.4235 -0.2060 
-3 29 14 -4.2816 -0.1783 
-3 31 1 4.0316 -0.1181 
-3 31 2 0.2730 0.2167 
-3 31 3 -0.8227 -0.1071 
-3 31 4 10.5874 -0.1555 
-3 31 5 12.5950 0.1363 
-3 31 6 10.4347 -0.0547 
-3 31 7 -2.3782 0.0122 
-3 31 8 14.4946 0.0192 
-3 31 9 -8.0565 0.0550 
-3 31 10 1.5185 -0.5511 
-3 31 11 12.8459 0.2999 
-3 33 1 -0.5686 -0.4614 
-3 33 2 -4.3115 0.1866 
-3 33 3 -1.9657 -0.2067 
-3 33 4 -6.0536 0.1038 
-3 33 5 -1.3381 0.0104 
-2 0 1 -194.5377 2.0148 
-2 0 2 -93.3306 -1.2453 
-2 0 3 4.4275 0.4758 
-2 0 4 -85.1075 -3.0320 
-2 0 5 -52.9518 1.1451 
-2 0 6 -61.1081 0.3619 
-2 0 7 -42.1346 2.9409 
-2 0 8 -112.8663 -1.0234 
-2 0 9 -38.8342 -2.5884 
-2 0 10 46.5794 -4.1445 
-2 0 11 27.2344 1.8413 
-2 0 12 -20.7625 2.8311 
-2 0 13 -21.4017 3.3086 
-2 0 14 -2.8261 -3.0159 
-2 0 15 -22.4958 -0.9529 
-2 0 16 0.0318 -1.4617 
-2 0 17 -19.0748 1.4718 
-2 0 18 5.0940 -1.4408 
-2 0 19 22.1741 0.8120 
-2 0 20 21.6070 0.3423 
-2 0 21 0.5333 1.2138 
-2 0 22 20.0359 -1.4271 
-2 0 23 3.1161 -0.3417 
-2 0 24 5.3810 -0.0221 
-2 0 25 14.2384 1.1248 
-2 0 26 -4.6297 -1.1646 
-2 0 27 16.5172 -0.3656 
-2 0 28 -12.8385 -0.3452 
-2 2 1 -50.3786 -1.4308 
-2 2 2 247.5339 2.2134 
-2 2 3 -66.6563 -0.3923 
-2 2 4 -115.5965 0.0373 
-2 2 5 100.8582 0.7213 
-2 2 6 -49.6014 -1.6461 
-2 2 7 -3.1446 -0.4610 
-2 2 8 47.8775 0.4247 
-2 2 9 -1.9105 1.6277 
-2 2 10 -1.9084 -0.1454 
-2 2 11 -11.8112 -0.1141 
-2 2 12 -20.4918 -0.5464 
-2 2 13 14.3209 0.0782 
-2 2 14 4.2975 -1.4495 
-2 2 15 -14.2706 0.7831 
-2 2 16 5.0181 0.7762 
-2 2 17 -21.8442 1.0455 
-2 2 18 0.4144 -1.3057 
-2 2 19 -14.3519 -0.3663 
-2 2 20 0.4672 -0.0173 
-2 2 21 -13.5986 0.9810 
-2 2 22 -5.7968 -0.4444 
-2 2 23 -2.6623 -0.1376 
-2 2 24 -16.6271 -0.1375 
-2 2 25 1.4836 0.4299 
-2 2 26 -1.0584 -0.0503 
-2 2 27 9.9098 -0.1312 
-2 2 28 -4.2878 0.6632 
-2 4 1 42.0563 0.6496 
-2 4 2 135.4365 0.4555 
-2 4 3 -127.0610 -1.7136 
-2 4 4 -24.9413 0.5405 
-2 4 5 126.0081 0.2565 
-2 4 6 5.1108 0.7075 
-2 4 7 -37.7094 -0.6617 
-2 4 8 -30.9938 0.1011 
-2 4 9 -33.2497 0.0404 
-2 4 10 73.5643 -0.2654 
-2 4 11 33.4720 -0.8280 
-2 4 12 -0.6882 0.6224 
-2 4 13 17.9821 0.7763 
-2 4 14 10.4811 0.1606 
-2 4 15 25.5915 -0.5938 
-2 4 16 8.2321 -0.3914 
-2 4 17 -3.2106 0.0212 
-2 4 18 27.3945 0.2588 
-2 4 19 6.4004 0.1319 
-2 4 20 17.3426 0.1910 
-2 4 21 -16.8944 -0.1667 
-2 4 22 -1.7222 -0.1816 
-2 4 23 -1.8357 -0.0472 
-2 4 24 -19.0062 0.2391 
-2 4 25 4.3686 0.0854 
-2 4 26 -0.9731 -0.0304 
-2 4 27 10.4037 -0.0126 
-2 4 28 13.5452 0.2910 
-2 6 1 -58.8776 0.1593 
-2 6 2 -122.9463 -0.7753 
-2 6 3 86.8292 0.3159 
-2 6 4 -23.8133 0.1296 
-2 6 5 28.9101 0.5541 
-2 6 6 -37.1236 -0.2562 
-2 6 7 -41.9658 -0.5114 
-2 6 8 37.2049 -0.2983 
-2 6 9 -63.3870 0.7604 
-2 6 10 15.4561 0.3579 
-2 6 11 3.1270 -0.1103 
-2 6 12 -13.3865 -0.6797 
-2 6 13 16.1917 -0.1321 
-2 6 14 3.6350 0.3042 
-2 6 15 4.1706 0.1225 
-2 6 16 -12.0851 0.0144 
-2 6 17 -26.6124 0.2093 
-2 6 18 -10.6131 0.0294 
-2 6 19 -1.8432 -0.0303 
-2 6 20 13.7532 -0.1577 
-2 6 21 -23.2579 -0.0161 
-2 6 22 -9.7209 0.1064 
-2 6 23 -16.6040 0.2352 
-2 6 24 -6.4396 -0.0227 
-2 6 25 -1.9646 -0.2392 
-2 6 26 8.1865 -0.1147 
-2 6 27 15.2529 -0.0691 
-2 8 1 25.0190 0.2930 
-2 8 2 -106.8303 -0.4409 
-2 8 4 -39.2137 -0.6849 
-2 8 5 -69.2749 0.4605 
-2 8 6 1.4258 -0.3499 
-2 8 7 19.4735 0.5862 
-2 8 8 7.2500 -0.4959 
-2 8 9 -24.0222 0.3331 
-2 8 10 5.3416 -0.6920 
-2 8 11 11.1869 0.7174 
-2 8 12 16.3685 -0.3547 
-2 8 13 9.9125 0.5581 
-2 8 14 -0.1332 0.0239 
-2 8 15 10.3754 0.0682 
-2 8 16 11.0937 -0.5119 
-2 8 17 7.5447 0.0651 
-2 8 18 22.2993 -0.0094 
-2 8 19 7.4787 0.3043 
-2 8 20 4.5957 -0.0842 
-2 8 21 -7.6455 0.0484 
-2 8 22 8.0826 -0.0175 
-2 8 23 -3.5500 0.0866 
-2 8 24 -0.1629 -0.0512 
-2 8 25 -7.4090 -0.0860 
-2 8 26 -6.0003 -0.1460 
-2 8 27 4.8101 0.2862 
-2 10 1 96.9168 -0.6412 
-2 10 2 -80.6558 0.0767 
-2 10 3 58.4823 0.5866 
-2 10 4 31.6927 -0.1773 
-2 10 5 4.7243 -0.2004 
-2 10 6 69.4012 -0.3953 
-2 10 7 -21.9178 0.3861 
-2 10 8 0.0164 -0.0796 
-2 10 9 -3.9431 -0.1175 
-2 10 10 2.2011 -0.0179 
-2 10 11 5.5484 0.3713 
-2 10 12 0.3216 -0.2216 
-2 10 13 10.7647 -0.1504 
-2 10 14 -1.6366 -0.3121 
-2 10 15 7.3355 0.2647 
-2 10 16 9.5066 0.1292 
-2 10 17 0.1343 0.0767 
-2 10 18 11.3119 0.0394 
-2 10 19 2.5516 -0.0810 
-2 10 20 -3.6356 -0.0303 
-2 10 21 -8.0363 0.0492 
-2 10 22 1.6189 -0.0986 
-2 10 23 -7.3245 0.0411 
-2 10 24 -39.0648 -0.2329 
-2 10 25 -21.9216 -0.1167 
-2 10 26 10.8856 0.5005 
-2 10 27 4.2841 -0.0062 
-2 12 1 71.3544 -0.0483 
-2 12 2 -20.4137 0.2763 
-2 12 3 -9.9028 0.1626 
-2 12 4 -36.1192 -0.2928 
-2 12 5 17.3138 -0.3117 
-2 12 6 6.6797 0.0939 
-2 12 7 -15.7253 0.4261 
-2 12 8 -4.5480 -0.0551 
-2 12 9 2.5907 -0.2274 
-2 12 10 -2.2377 -0.0391 
-2 12 11 -9.8901 0.0366 
-2 12 12 3.0565 0.1943 
-2 12 13 -8.8353 -0.0556 
-2 12 14 -7.8528 -0.0170 
-2 12 15 -0.1010 0.0684 
-2 12 16 -0.6714 0.0703 
-2 12 17 -7.5099 -0.1542 
-2 12 18 15.4553 0.0558 
-2 12 19 34.3540 -0.0055 
-2 12 20 2.0358 0.0396 
-2 12 21 -1.7950 0.0717 
-2 12 22 9.8364 0.0783 
-2 12 23 14.1053 -0.0401 
-2 12 24 -9.9982 -0.0990 
-2 12 25 -23.0099 0.1316 
-2 12 26 -7.5688 0.3617 
-2 14 1 5.7379 -0.0278 
-2 14 2 8.9963 -0.2963 
-2 14 3 16.9054 0.2421 
-2 14 4 11.9149 -0.1547 
-2 14 5 22.7549 0.0630 
-2 14 6 -1.0555 -0.0507 
-2 14 7 7.4037 0.2107 
-2 14 8 -21.0842 -0.2823 
-2 14 9 -3.9915 0.1447 
-2 14 10 6.2796 -0.0861 
-2 14 11 -1.1552 0.1903 
-2 14 12 1.5912 -0.1516 
-2 14 13 -5.2360 -0.0290 
-2 14 14 2.9375 -0.1390 
-2 14 15 7.8047 0.1586 
-2 14 16 11.7585 -0.0338 
-2 14 17 17.9369 0.0363 
-2 14 18 16.0941 -0.0437 
-2 14 19 7.6071 0.0383 
-2 14 20 -5.0518 -0.0687 
-2 14 21 -8.8493 -0.0041 
-2 14 22 -1.7069 -0.1475 
-2 14 23 10.5878 -0.0112 
-2 14 24 -7.7608 -0.2121 
-2 14 25 -0.0038 0.2913 
-2 16 1 -15.7754 0.1159 
-2 16 2 -7.7545 -0.0274 
-2 16 3 15.6103 -0.1143 
-2 16 4 8.4043 -0.0133 
-2 16 5 17.5784 0.0766 
-2 16 6 7.6486 0.0391 
-2 16 7 10.0607 -0.0823 
-2 16 8 -7.9586 -0.1160 
-2 16 9 -5.4876 0.1809 
-2 16 10 0.8230 0.0928 
-2 16 11 -3.7576 -0.0545 
-2 16 12 -14.1830 -0.3439 
-2 16 13 -5.6173 0.1556 
-2 16 14 11.9823 0.0803 
-2 16 15 -7.1255 0.1803 
-2 16 16 -15.8795 -0.3225 
-2 16 17 -11.6465 0.0213 
-2 16 18 -0.0658 0.0239 
-2 16 19 -7.8922 0.1178 
-2 16 20 -7.2398 -0.1422 
-2 16 21 -4.7114 -0.0826 
-2 16 22 -7.6877 -0.0027 
-2 16 23 3.3976 0.1457 
-2 16 24 -15.0719 -0.0862 
-2 18 1 -22.8600 -0.0423 
-2 18 2 11.6157 -0.0202 
-2 18 3 26.2938 -0.2649 
-2 18 4 -15.0141 0.2242 
-2 18 5 18.7814 -0.0136 
-2 18 6 6.1141 0.2374 
-2 18 7 -9.4575 -0.2342 
-2 18 8 -0.4002 0.0900 
-2 18 9 -10.4812 -0.2022 
-2 18 10 -7.0997 0.2261 
-2 18 11 6.9343 -0.2276 
-2 18 12 3.1494 0.1365 
-2 18 13 -3.6801 0.0076 
-2 18 14 11.9993 0.1799 
-2 18 15 -4.7474 -0.0957 
-2 18 16 -7.2732 -0.1621 
-2 18 17 5.9161 0.0252 
-2 18 18 7.7665 0.0161 
-2 18 19 1.6400 0.1235 
-2 18 20 3.5454 -0.1443 
-2 18 21 7.0631 -0.1317 
-2 18 22 -2.0551 0.2518 
-2 18 23 0.8350 -0.4149 
-2 20 1 -10.3155 -0.0203 
-2 20 2 0.7929 0.1009 
-2 20 3 -4.6348 0.0356 
-2 20 4 -31.2109 0.0527 
-2 20 5 -11.2337 -0.1371 
-2 20 6 6.8410 -0.0565 
-2 20 7 -3.6337 -0.1181 
-2 20 8 -22.4685 0.1140 
-2 20 9 -3.8675 0.0169 
-2 20 10 0.9120 0.0737 
-2 20 11 12.7844 -0.0290 
-2 20 12 16.2069 0.1260 
-2 20 13 -6.7344 -0.1604 
-2 20 14 16.1640 -0.0374 
-2 20 15 -3.4266 -0.0107 
-2 20 16 5.3283 0.0464 
-2 20 17 7.0547 0.0258 
-2 20 18 4.2126 -0.0424 
-2 20 19 2.1675 -0.0972 
-2 20 20 -8.3913 -0.1421 
-2 20 21 1.2801 0.0942 
-2 20 22 -0.1322 -0.1740 
-2 22 1 0.1890 -0.0703 
-2 22 2 4.7405 0.0187 
-2 22 3 -7.8123 0.0925 
-2 22 4 0.8845 -0.0234 
-2 22 5 -1.8319 -0.0456 
-2 22 6 -6.0801 0.1027 
-2 22 7 1.4687 0.1587 
-2 22 8 -8.2874 0.0575 
-2 22 9 7.5205 -0.1041 
-2 22 10 -12.1117 -0.3030 
-2 22 11 -5.0800 0.2007 
-2 22 12 4.8140 0.1162 
-2 22 13 -4.4261 0.1047 
-2 22 14 16.9697 -0.2189 
-2 22 15 -3.8294 0.0642 
-2 22 16 0.8747 0.0025 
-2 22 17 -13.1255 0.1857 
-2 22 18 -2.9965 -0.2787 
-2 22 19 11.7621 0.0943 
-2 22 20 6.6172 0.1918 
-2 22 21 4.1381 0.3581 
-2 24 1 -12.9459 -0.1445 
-2 24 2 4.2489 0.1796 
-2 24 3 -9.1574 -0.0724 
-2 24 4 -12.3835 0.1828 
-2 24 5 2.7879 -0.1685 
-2 24 6 2.3048 -0.0760 
-2 24 7 1.3764 -0.1353 
-2 24 8 5.7719 0.2053 
-2 24 9 5.4043 0.0190 
-2 24 10 3.1673 0.0484 
-2 24 11 2.4138 -0.0043 
-2 24 12 7.6738 -0.0332 
-2 24 13 9.1080 -0.1289 
-2 24 14 0.1239 -0.0710 
-2 24 15 -10.5010 0.0044 
-2 24 16 6.6421 0.3952 
-2 24 17 -6.3113 -0.0080 
-2 24 18 -3.8022 -0.4013 
-2 24 19 3.3321 0.0724 
-2 26 1 -8.1763 0.0089 
-2 26 2 -9.2907 0.1830 
-2 26 3 4.9884 -0.3899 
-2 26 4 5.4019 0.1268 
-2 26 5 14.9759 -0.0416 
-2 26 6 -3.3302 0.2465 
-2 26 7 -9.3637 -0.1216 
-2 26 8 3.7383 0.0870 
-2 26 9 -13.4244 -0.1479 
-2 26 10 -5.1010 -0.0150 
-2 26 11 4.0848 -0.1196 
-2 26 12 -4.1948 0.2444 
-2 26 13 1.0230 0.0610 
-2 26 14 -6.9664 0.1996 
-2 26 15 -13.0847 -0.1739 
-2 26 16 2.3099 0.1750 
-2 26 17 -5.8394 -0.4036 
-2 26 18 -9.3979 -0.2132 
-2 28 1 -7.9088 0.0864 
-2 28 2 -9.3729 -0.0325 
-2 28 3 -0.2854 -0.0588 
-2 28 4 -2.3690 0.0182 
-2 28 5 0.3807 0.2035 
-2 28 6 2.2621 -0.0385 
-2 28 7 -10.3475 -0.3472 
-2 28 8 5.7110 0.0670 
-2 28 9 7.6637 0.1797 
-2 28 10 5.8505 0.1592 
-2 28 11 -6.3717 -0.1071 
-2 28 12 1.9341 -0.0126 
-2 28 13 3.6140 -0.1091 
-2 28 14 3.8701 0.0281 
-2 28 15 -5.9259 0.0172 
-2 30 1 -2.9071 0.2202 
-2 30 2 12.9480 0.0049 
-2 30 3 4.6224 -0.2505 
-2 30 4 -1.0845 -0.1364 
-2 30 5 -17.4310 0.0852 
-2 30 6 -0.1395 0.1376 
-2 30 7 0.7034 -0.1452 
-2 30 8 -3.7630 0.0050 
-2 30 9 -14.9170 -0.0757 
-2 30 10 3.1981 -0.1274 
-2 30 11 -10.5484 0.1691 
-2 30 12 -8.3207 0.3171 
-2 32 1 7.1541 -0.1890 
-2 32 2 7.3115 0.2066 
-2 32 3 -8.1807 -0.1129 
-2 32 4 7.5118 0.3671 
-2 32 5 -13.1749 -0.1877 
-2 32 6 0.1696 0.1857 
-2 32 7 1.3100 -0.3629 
-2 32 8 -10.0124 0.1504 
-1 1 1 -150.4223 -1.2653 
-1 1 2 180.6394 0.5215 
-1 1 3 279.3834 2.0425 
-1 1 4 45.1791 0.2608 
-1 1 5 -15.8898 -1.0537 
-1 1 6 58.6370 -0.6769 
-1 1 7 72.9775 1.7240 
-1 1 8 2.5209 -0.5793 
-1 1 9 -34.5136 -0.6091 
-1 1 10 45.2418 -0.5326 
-1 1 11 -21.0729 1.2810 
-1 1 12 -2.9753 0.3686 
-1 1 13 25.2463 -0.6855 
-1 1 14 10.2539 -1.2649 
-1 1 15 -24.2911 0.7820 
-1 1 16 -6.4841 0.5621 
-1 1 17 -17.9248 0.4835 
-1 1 18 -19.3044 -1.1173 
-1 1 19 7.7884 0.3522 
-1 1 20 19.5434 -0.3134 
-1 1 21 -12.0681 0.7749 
-1 1 22 1.4692 -0.7177 
-1 1 23 -19.6720 0.3017 
-1 1 24 -16.3036 -0.1857 
-1 1 25 -11.0817 0.3949 
-1 1 26 -17.8231 -0.4240 
-1 1 27 -17.2429 -0.2831 
-1 1 28 20.7573 -0.2050 
-1 3 1 -130.2714 0.5143 
-1 3 2 80.7782 1.9151 
-1 3 3 -49.0927 -1.2785 
-1 3 4 35.3069 0.2627 
-1 3 5 -177.5881 -1.4498 
-1 3 6 -121.7647 0.8743 
-1 3 7 67.3397 0.0426 
-1 3 8 -43.7636 0.7900 
-1 3 9 -12.9761 -0.4032 
-1 3 10 79.4959 0.1086 
-1 3 11 -6.3383 -0.5507 
-1 3 12 24.4953 0.6562 
-1 3 13 44.0001 -0.0971 
-1 3 14 6.0472 0.4906 
-1 3 15 9.9738 -0.2562 
-1 3 16 10.8153 0.0174 
-1 3 17 -7.7792 -0.2929 
-1 3 18 -0.3903 0.0203 
-1 3 19 -11.6491 0.2069 
-1 3 20 -0.9713 0.2270 
-1 3 21 -9.4177 -0.1239 
-1 3 22 -0.0139 -0.1145 
-1 3 23 -4.9094 -0.1514 
-1 3 24 -4.2657 0.1301 
-1 3 25 1.9009 -0.0483 
-1 3 26 -9.1549 0.0631 
-1 3 27 -2.1752 0.5020 
-1 3 28 4.4417 0.1052 
-1 5 1 -78.6480 -0.0893 
-1 5 2 33.3380 -0.5705 
-1 5 3 -87.6287 -0.6678 
-1 5 4 -87.3149 0.6316 
-1 5 5 -105.9919 0.5328 
-1 5 6 -50.4246 0.9650 
-1 5 7 -3.6639 -1.8400 
-1 5 8 -3.2435 0.5094 
-1 5 9 3.4737 -0.3365 
-1 5 10 8.8135 1.1366 
-1 5 11 6.6159 -0.7317 
-1 5 12 14.3838 0.1683 
-1 5 13 3.8068 -0.3948 
-1 5 14 -7.2604 0.4308 
-1 5 15 6.8186 -0.5644 
-1 5 16 -3.4103 0.2750 
-1 5 17 -2.6156 0.0137 
-1 5 18 11.6091 0.4904 
-1 5 19 -10.0534 -0.3161 
-1 5 20 -4.2318 -0.0444 
-1 5 21 -5.0480 -0.2351 
-1 5 22 -8.9474 0.3646 
-1 5 23 1.6033 -0.0226 
-1 5 24 8.8983 0.0718 
-1 5 25 -2.2715 -0.2748 
-1 5 26 -12.5906 -0.0631 
-1 5 27 -14.3653 -0.0516 
-1 7 1 -114.8017 0.3621 
-1 7 2 41.0203 -0.0868 
-1 7 3 -4.4196 -0.1301 
-1 7 4 -100.0518 -0.5272 
-1 7 5 26.0917 0.2845 
-1 7 6 13.8555 -0.0768 
-1 7 7 20.2801 -0.1224 
-1 7 8 9.0655 0.2423 
-1 7 9 13.1475 0.2984 
-1 7 10 -0.3988 0.0769 
-1 7 11 20.8248 -0.6231 
-1 7 12 2.0395 -0.2143 
-1 7 13 -7.1200 0.4516 
-1 7 14 12.1625 0.5533 
-1 7 15 3.4823 -0.1374 
-1 7 16 0.0852 -0.2379 
-1 7 17 7.5977 -0.1280 
-1 7 18 -8.3009 0.1388 
-1 7 19 -21.1944 0.0992 
-1 7 20 3.0330 0.0397 
-1 7 21 0.8563 0.0042 
-1 7 22 6.8679 -0.0337 
-1 7 23 -1.8821 0.0492 
-1 7 24 -0.7505 0.1484 
-1 7 25 2.6794 0.0228 
-1 7 26 4.5869 0.0017 
-1 7 27 -13.3300 0.0416 
-1 9 1 -140.8500 -0.5452 
-1 9 2 -13.4727 -0.1799 
-1 9 3 37.8915 0.1491 
-1 9 4 29.5300 0.2885 
-1 9 5 22.0132 0.1904 
-1 9 6 29.4897 -0.0210 
-1 9 7 -0.8985 -0.1082 
-1 9 8 6.2007 -0.5074 
-1 9 9 12.4761 -0.0213 
-1 9 10 -18.9440 0.1497 
-1 9 11 5.2186 0.2624 
-1 9 12 8.9932 -0.0063 
-1 9 13 12.6365 -0.0538 
-1 9 14 -12.6770 -0.1727 
-1 9 15 -12.5404 -0.1331 
-1 9 16 8.5287 0.1512 
-1 9 17 0.9584 0.0950 
-1 9 18 12.4751 0.1010 
-1 9 19 0.3339 -0.1979 
-1 9 20 9.7739 -0.0479 
-1 9 21 2.1613 0.0781 
-1 9 22 8.8327 0.0330 
-1 9 23 -1.6956 0.0393 
-1 9 24 5.4975 -0.0171 
-1 9 25 -5.7010 -0.3020 
-1 9 26 -4.1255 -0.0981 
-1 9 27 4.9121 0.4706 
-1 11 1 -53.9569 -0.2870 
-1 11 2 -39.8244 0.4085 
-1 11 3 45.6353 0.1223 
-1 11 4 -24.5602 -0.0439 
-1 11 5 -11.9778 -0.8821 
-1 11 6 13.7738 0.0506 
-1 11 7 -23.1424 0.4160 
-1 11 8 23.2488 0.3050 
-1 11 9 4.6239 -0.3110 
-1 11 10 18.4528 -0.0362 
-1 11 11 -1.2529 -0.1860 
-1 11 12 -21.9748 0.2485 
-1 11 13 9.8755 -0.3431 
-1 11 14 -5.9055 0.2019 
-1 11 15 1.6840 -0.0438 
-1 11 16 7.2979 0.2661 
-1 11 17 -11.1355 -0.2854 
-1 11 18 3.2136 0.0356 
-1 11 19 -18.0161 -0.0609 
-1 11 20 3.1074 0.3196 
-1 11 21 -1.0626 -0.1226 
-1 11 22 2.2091 0.0308 
-1 11 23 11.9128 -0.1349 
-1 11 24 20.3465 0.0420 
-1 11 25 -1.8757 0.3391 
-1 11 26 -5.0949 0.5979 
-1 13 1 -33.9674 -0.3849 
-1 13 2 -2.8929 -0.1656 
-1 13 3 40.9313 0.2904 
-1 13 4 3.9075 0.1731 
-1 13 5 -3.6251 0.0119 
-1 13 6 -13.4504 0.0451 
-1 13 7 -24.6812 0.0669 
-1 13 8 -0.3864 -0.1800 
-1 13 9 -6.9004 -0.2030 
-1 13 10 4.7445 0.0105 
-1 13 11 2.0525 0.3083 
-1 13 12 -7.2672 0.2385 
-1 13 13 19.5999 -0.2689 
-1 13 14 0.2501 -0.1262 
-1 13 15 1.0941 0.0137 
-1 13 16 6.0461 0.2735 
-1 13 17 -13.9090 -0.1999 
-1 13 18 -4.0449 0.0877 
-1 13 19 -0.3180 -0.0882 
-1 13 20 14.9988 0.0365 
-1 13 21 -5.8368 -0.1235 
-1 13 22 0.5947 0.2565 
-1 13 23 0.7656 -0.0376 
-1 13 24 12.4123 -0.1421 
-1 13 25 -3.3549 -0.1714 
-1 13 26 -8.9790 0.2642 
-1 15 1 -7.2931 0.2557 
-1 15 2 27.0269 -0.0418 
-1 15 3 -9.4035 0.1549 
-1 15 4 -12.6999 -0.2173 
-1 15 5 -20.6666 -0.1674 
-1 15 6 -10.5702 -0.2753 
-1 15 7 2.0548 0.2783 
-1 15 8 4.0335 0.1274 
-1 15 9 -9.6994 0.2079 
-1 15 10 1.7098 -0.2667 
-1 15 11 13.3772 0.0265 
-1 15 12 0.1922 -0.2362 
-1 15 13 2.3051 0.0687 
-1 15 14 -5.2353 0.0162 
-1 15 15 12.2610 0.1830 
-1 15 16 25.0065 -0.1504 
-1 15 17 12.3631 -0.1389 
-1 15 18 -9.2861 0.0282 
-1 15 19 -29.3075 0.1590 
-1 15 20 0.8915 -0.0572 
-1 15 21 1.7953 -0.1452 
-1 15 22 7.9419 0.0701 
-1 15 23 -8.1616 -0.1544 
-1 15 24 -8.1566 -0.0605 
-1 15 25 5.6505 0.6477 
-1 17 1 4.6496 -0.0410 
-1 17 2 34.7491 -0.2456 
-1 17 3 -3.3190 -0.1796 
-1 17 4 -19.8312 0.3548 
-1 17 5 -2.2782 0.1785 
-1 17 6 2.7534 0.1268 
-1 17 7 4.6223 -0.1200 
-1 17 8 11.5170 -0.0949 
-1 17 9 -6.5889 -0.0747 
-1 17 10 -11.2805 0.1443 
-1 17 11 9.9446 0.0038 
-1 17 12 20.8976 0.0376 
-1 17 13 1.3659 -0.0593 
-1 17 14 -2.8228 0.0645 
-1 17 15 14.7786 0.1022 
-1 17 16 4.4296 -0.1253 
-1 17 17 -5.2110 -0.0660 
-1 17 18 0.1405 0.2013 
-1 17 19 -5.8501 0.0014 
-1 17 20 0.3218 -0.2007 
-1 17 21 -11.9137 -0.1281 
-1 17 22 0.6972 0.1527 
-1 17 23 8.5498 -0.0371 
-1 17 24 2.1678 0.1560 
-1 19 1 2.7064 0.1550 
-1 19 2 -3.7659 0.0952 
-1 19 3 -0.9500 -0.0139 
-1 19 4 -7.5599 -0.0378 
-1 19 5 2.7168 -0.0719 
-1 19 6 0.2694 -0.0415 
-1 19 7 -9.6356 -0.1161 
-1 19 8 18.8672 0.1610 
-1 19 9 -4.3401 0.0912 
-1 19 10 -8.7405 0.0344 
-1 19 11 -10.5751 -0.2405 
-1 19 12 -2.1428 0.0624 
-1 19 13 -14.8817 -0.0964 
-1 19 14 -4.2532 0.3110 
-1 19 15 11.9453 -0.1320 
-1 19 16 7.9628 0.0213 
-1 19 17 1.7720 -0.1622 
-1 19 18 3.9710 0.1643 
-1 19 19 0.9027 -0.1882 
-1 19 20 -5.6524 0.0290 
-1 19 21 -14.6014 0.0196 
-1 19 22 3.7190 0.0087 
-1 19 23 12.3196 0.0461 
-1 21 1 -8.7458 0.0661 
-1 21 2 -7.6980 -0.0968 
-1 21 3 -7.5821 0.0307 
-1 21 4 5.1305 -0.1546 
-1 21 5 9.2245 0.3056 
-1 21 6 2.4456 -0.0793 
-1 21 7 -3.2250 0.0841 
-1 21 8 11.5501 -0.1394 
-1 21 9 -7.1211 0.0131 
-1 21 10 3.3082 -0.1912 
-1 21 11 10.4478 0.2563 
-1 21 12 9.5408 0.0905 
-1 21 13 2.8702 0.0743 
-1 21 14 0.3870 -0.1537 
-1 21 15 -7.8261 -0.0915 
-1 21 16 0.9105 0.0181 
-1 21 17 0.3011 0.1540 
-1 21 18 4.4281 -0.1814 
-1 21 19 -0.8781 -0.1109 
-1 21 20 5.9997 0.2346 
-1 21 21 -2.7403 -0.5629 
-1 21 22 3.1045 0.2047 
-1 23 1 -5.9520 0.1389 
-1 23 2 -8.8297 0.1164 
-1 23 3 -23.8279 0.1548 
-1 23 4 1.5887 -0.2300 
-1 23 5 -10.8424 0.0358 
-1 23 6 -1.8286 -0.1207 
-1 23 7 5.4897 0.0836 
-1 23 8 -4.1632 0.0144 
-1 23 9 -11.0270 0.1205 
-1 23 10 -0.3078 -0.1121 
-1 23 11 -4.5345 0.0989 
-1 23 12 -2.1673 -0.0992 
-1 23 13 -9.9232 0.0708 
-1 23 14 -10.7496 -0.1889 
-1 23 15 -4.7275 0.0576 
-1 23 16 2.6850 0.0851 
-1 23 17 7.7701 0.0794 
-1 23 18 11.8938 -0.4370 
-1 23 19 5.7778 0.4799 
-1 23 20 0.4463 -0.1467 
-1 25 1 -11.7513 -0.0449 
-1 25 2 11.7424 0.0963 
-1 25 3 -0.9810 -0.1727 
-1 25 4 14.1642 -0.0243 
-1 25 5 -2.1453 0.0246 
-1 25 6 -4.8577 0.1340 
-1 25 7 5.5514 -0.1189 
-1 25 8 0.4755 -0.0271 
-1 25 9 -4.6484 -0.0667 
-1 25 10 4.2163 0.0265 
-1 25 11 5.5947 -0.0894 
-1 25 12 4.9476 0.0881 
-1 25 13 2.5864 0.0516 
-1 25 14 3.9221 -0.0708 
-1 25 15 -0.3903 -0.0139 
-1 25 16 -2.6183 0.1111 
-1 25 17 9.8783 -0.0555 
-1 25 18 5.9821 0.2373 
-1 27 1 3.8893 0.1456 
-1 27 2 26.7633 0.0364 
-1 27 3 3.9790 -0.0477 
-1 27 4 -2.4424 -0.0039 
-1 27 5 -11.1940 0.0675 
-1 27 6 1.0414 0.0079 
-1 27 7 8.6229 -0.1422 
-1 27 8 1.5235 0.0402 
-1 27 9 3.1891 0.0306 
-1 27 10 0.6946 0.0502 
-1 27 11 -7.5398 -0.2023 
-1 27 12 -4.7640 0.0142 
-1 27 13 -0.3235 0.0765 
-1 27 14 2.9375 -0.0789 
-1 27 15 10.7675 0.1809 
-1 27 16 -0.6733 -0.0161 
-1 29 1 -1.7671 0.1326 
-1 29 2 2.0721 -0.1353 
-1 29 3 0.6428 -0.0599 
-1 29 4 4.7105 -0.0902 
-1 29 5 1.1730 0.1805 
-1 29 6 6.0662 -0.0365 
-1 29 7 -2.9654 -0.0165 
-1 29 8 -2.5151 -0.1254 
-1 29 9 -6.0041 0.0628 
-1 29 10 6.6952 -0.0421 
-1 29 11 3.3417 -0.0771 
-1 29 12 3.9059 0.0699 
-1 29 13 6.5420 0.0509 
-1 29 14 5.3588 0.0363 
-1 31 1 7.3315 -0.1533 
-1 31 2 0.4854 0.1162 
-1 31 3 -7.4278 -0.0964 
-1 31 4 4.2923 0.1058 
-1 31 5 1.9864 -0.0989 
-1 31 6 0.3452 0.1811 
-1 31 7 -8.1258 -0.1342 
-1 31 8 9.7031 -0.3176 
-1 31 9 5.4839 -0.0946 
-1 31 10 3.4406 0.2613 
-1 33 1 9.0316 -0.2435 
-1 33 2 7.5367 0.4471 
-1 33 3 -0.3673 0.1175 
-1 33 4 -3.2085 0.2506 
-1 33 5 5.4289 -0.7025 
0 0 1 269.9987 6.3685 
0 0 2 14.2520 1.4071 
0 0 3 243.9685 9.2485 
0 0 4 -117.6455 -2.9170 
0 0 5 -82.2928 -0.2095 
0 0 6 92.8707 -1.5203 
0 0 7 122.7117 0.6417 
0 0 8 -67.9476 -1.8830 
0 0 9 59.4230 0.6699 
0 0 10 38.7157 -0.2656 
0 0 11 -14.8917 1.5755 
0 0 12 -5.5133 -1.1242 
0 0 13 -0.5410 0.3680 
0 0 14 53.1710 -0.5267 
0 0 15 -16.8664 1.2973 
0 0 16 10.4375 -0.6785 
0 0 17 3.6763 -0.6094 
0 0 18 4.5737 -1.6333 
0 0 19 -1.1891 0.6184 
0 0 20 -1.9331 1.1853 
0 0 21 -0.8375 1.7351 
0 0 22 -15.3585 -1.2714 
0 0 23 -2.1056 -1.1796 
0 0 24 11.1433 -1.1128 
0 0 25 -9.2774 1.4988 
0 0 26 -1.9914 0.0623 
0 0 27 7.2707 0.6850 
0 2 0 334.5556 2.5144 
0 2 1 -171.6433 1.3818 
0 2 2 -88.1548 -0.7885 
0 2 3 -9.7443 -0.0436 
0 2 4 -63.2527 -3.4607 
0 2 5 174.9400 1.0482 
0 2 6 94.9278 1.4087 
0 2 7 42.2493 1.1797 
0 2 8 -82.5635 -1.3828 
0 2 9 -41.9774 -0.5689 
0 2 10 -18.4606 0.0876 
0 2 11 5.4333 0.7839 
0 2 12 20.2229 -0.3908 
0 2 13 -1.8879 0.2077 
0 2 14 11.8658 -0.2176 
0 2 15 -11.1222 -0.1354 
0 2 16 8.4324 -0.0702 
0 2 17 16.2923 0.7561 
0 2 18 17.8408 0.2675 
0 2 19 -24.6325 -0.2293 
0 2 20 2.7549 -0.7243 
0 2 21 2.4702 0.2859 
0 2 22 -8.0580 0.0183 
0 2 23 4.1833 0.3319 
0 2 24 7.9475 -0.0112 
0 2 25 -7.4333 0.2405 
0 2 26 -5.2599 -0.2121 
0 2 27 -9.5369 -0.6156 
0 4 0 243.5105 0.4997 
0 4 1 -20.9134 -0.5197 
0 4 2 66.5285 0.3433 
0 4 3 -49.0433 0.6974 
0 4 4 -119.9795 0.2199 
0 4 5 -4.4525 -0.0019 
0 4 6 -15.3445 -0.1847 
0 4 7 25.6245 -0.8689 
0 4 8 -10.4239 -0.0510 
0 4 9 6.0022 0.4681 
0 4 10 -2.8268 0.8229 
0 4 11 -13.0312 -0.5976 
0 4 12 13.3807 -0.4021 
0 4 13 12.7048 0.0373 
0 4 14 18.6815 0.9943 
0 4 15 4.2550 -0.4480 
0 4 16 -13.5764 -0.2620 
0 4 17 7.9154 -0.2550 
0 4 18 22.4113 0.2817 
0 4 19 -0.5382 -0.1390 
0 4 20 23.3129 0.2054 
0 4 21 -3.2827 0.0767 
0 4 22 11.8581 0.2353 
0 4 23 -1.4593 -0.4783 
0 4 24 11.4214 -0.1335 
0 4 25 17.0573 -0.2321 
0 4 26 9.6335 0.2159 
0 4 27 -3.0636 0.2224 
0 6 0 117.0384 1.7211 
0 6 1 -178.7676 0.3588 
0 6 2 28.2510 -1.3090 
0 6 3 0.5120 -0.8316 
0 6 4 -49.0604 0.0031 
0 6 5 79.4594 0.6786 
0 6 6 -48.8157 -0.2761 
0 6 7 19.4013 0.1795 
0 6 8 39.4262 -0.1347 
0 6 9 -2.4016 0.3003 
0 6 10 2.9374 0.0818 
0 6 11 6.5384 -0.3609 
0 6 12 16.4904 -0.1640 
0 6 13 15.6493 0.2594 
0 6 14 3.4380 0.1458 
0 6 15 -3.9875 -0.2920 
0 6 16 -6.1473 -0.1380 
0 6 17 2.8984 0.2041 
0 6 18 11.8569 0.3580 
0 6 19 -2.0344 -0.0123 
0 6 20 7.6536 -0.3233 
0 6 21 -3.5635 -0.1192 
0 6 22 16.9088 0.1076 
0 6 23 -1.5978 0.2309 
0 6 24 9.2853 0.1297 
0 6 25 -16.5667 -0.1018 
0 6 26 16.0787 0.1487 
0 6 27 4.1222 0.2875 
0 8 0 116.3695 0.3523 
0 8 1 93.9982 -0.0628 
0 8 2 144.2511 -0.0579 
0 8 3 -66.5062 0.3200 
0 8 4 -39.0465 0.4957 
0 8 5 -23.2337 0.1392 
0 8 6 10.3786 -0.6588 
0 8 7 61.9167 0.3754 
0 8 8 -14.0052 -0.2961 
0 8 9 14.6600 0.5218 
0 8 10 -10.7904 -0.5550 
0 8 11 3.4361 0.3680 
0 8 12 26.3232 -0.3321 
0 8 13 4.5826 0.4340 
0 8 14 -1.2742 -0.3153 
0 8 15 3.9281 0.3912 
0 8 16 -1.3763 -0.1417 
0 8 17 -14.4046 0.0319 
0 8 18 3.9268 -0.2395 
0 8 19 -6.5544 0.1826 
0 8 20 3.5074 -0.0286 
0 8 21 -5.1831 0.0925 
0 8 22 6.5922 -0.0950 
0 8 23 -2.8431 0.1209 
0 8 24 27.0046 -0.1727 
0 8 25 -2.5667 0.1905 
0 8 26 -1.5358 -0.1804 
0 8 27 -0.2728 0.4065 
0 10 0 26.5541 0.2594 
0 10 1 17.0420 -0.3091 
0 10 2 -47.3791 0.0620 
0 10 3 -41.3218 -0.1587 
0 10 4 5.1681 0.1005 
0 10 5 -31.9447 -0.3160 
0 10 6 20.3928 0.1186 
0 10 7 -14.4883 0.2057 
0 10 8 -8.9418 0.0991 
0 10 9 11.4161 -0.1557 
0 10 10 -5.8433 -0.2781 
0 10 11 -9.5713 0.2889 
0 10 12 -2.2497 -0.0279 
0 10 13 -3.4033 0.0350 
0 10 14 -5.8854 -0.4132 
0 10 15 -3.6211 0.2261 
0 10 16 -5.8491 0.0110 
0 10 17 -21.7262 0.0865 
0 10 18 -1.0056 -0.1709 
0 10 19 -8.5919 0.0484 
0 10 20 10.2168 0.0758 
0 10 21 1.3604 -0.1207 
0 10 22 3.1872 -0.1504 
0 10 23 -12.5645 0.2991 
0 10 24 -5.8996 0.0817 
0 10 25 3.7411 0.2295 
0 10 26 4.3188 0.0666 
0 12 0 74.3945 -0.1270 
0 12 1 -6.3280 -0.3451 
0 12 2 -18.7783 0.4430 
0 12 3 7.1122 0.1646 
0 12 4 7.6412 0.1803 
0 12 5 21.0110 -0.3640 
0 12 6 1.4371 0.0787 
0 12 7 19.6293 0.1649 
0 12 8 38.5720 0.0685 
0 12 9 -6.8115 -0.2882 
0 12 10 -26.4553 -0.0201 
0 12 11 -4.9600 0.2395 
0 12 12 25.0527 0.1667 
0 12 13 9.5422 -0.1401 
0 12 14 12.9211 -0.1798 
0 12 15 3.2642 0.1855 
0 12 16 -15.7452 0.1587 
0 12 17 -8.6671 0.0388 
0 12 18 17.6754 -0.3550 
0 12 19 -4.1803 0.0509 
0 12 20 -9.2425 0.1611 
0 12 21 -0.8198 0.0357 
0 12 22 0.5672 0.0316 
0 12 23 3.1955 -0.0909 
0 12 24 7.6725 0.0071 
0 12 25 -14.5349 0.1595 
0 12 26 3.2790 0.2244 
0 14 0 22.3938 -0.0566 
0 14 1 -21.2344 0.1225 
0 14 2 -2.6180 -0.1445 
0 14 3 -16.4975 0.1921 
0 14 4 -38.0185 -0.1222 
0 14 5 -4.0041 -0.0484 
0 14 6 7.5152 -0.0635 
0 14 7 21.1590 0.2422 
0 14 8 6.7914 -0.2173 
0 14 9 -21.7293 0.1248 
0 14 10 -27.9900 -0.1682 
0 14 11 -10.6364 0.2114 
0 14 12 18.3801 -0.1232 
0 14 13 -6.7987 0.1175 
0 14 14 -3.0177 -0.2470 
0 14 15 -0.1688 0.2350 
0 14 16 -17.6697 -0.1474 
0 14 17 -4.0358 0.0680 
0 14 18 11.5059 -0.1767 
0 14 19 1.8563 0.3024 
0 14 20 -0.2774 -0.1658 
0 14 21 -13.3975 -0.0430 
0 14 22 -0.2180 0.0834 
0 14 23 3.3115 0.0780 
0 14 24 0.6869 0.1149 
0 14 25 -13.0748 -0.0455 
0 16 0 41.0778 0.0719 
0 16 1 3.3613 0.1149 
0 16 2 4.4453 -0.1455 
0 16 3 -4.2494 -0.1210 
0 16 4 -7.7983 0.0593 
0 16 5 0.0043 0.1201 
0 16 6 12.4713 -0.0204 
0 16 7 10.3962 -0.1217 
0 16 8 -13.5518 -0.0593 
0 16 9 -8.6288 0.2788 
0 16 10 -13.1454 -0.0839 
0 16 11 -6.5978 -0.0144 
0 16 12 4.4244 -0.1719 
0 16 13 -10.6950 0.1168 
0 16 14 -4.2226 -0.0911 
0 16 15 8.1354 0.2537 
0 16 16 6.4708 -0.2846 
0 16 17 -8.5400 0.1666 
0 16 18 9.8758 -0.0824 
0 16 19 6.3702 0.1569 
0 16 20 4.8570 -0.2611 
0 16 21 6.3171 0.0782 
0 16 22 11.9333 -0.0406 
0 16 23 5.0376 0.0709 
0 16 24 -0.4116 -0.4970 
0 18 0 10.0420 0.1426 
0 18 1 -9.5862 -0.0172 
0 18 2 8.0845 -0.0582 
0 18 3 -11.6161 -0.0970 
0 18 4 -5.2917 0.2453 
0 18 5 12.3324 0.0280 
0 18 6 1.5096 0.0165 
0 18 7 -0.7857 -0.3296 
0 18 8 2.8104 0.2850 
0 18 9 -2.4551 0.0356 
0 18 10 2.7774 0.0896 
0 18 11 5.1225 -0.2895 
0 18 12 4.1827 0.0961 
0 18 13 6.4857 -0.0588 
0 18 14 8.0646 0.2842 
0 18 15 5.3006 -0.0744 
0 18 16 12.9604 -0.1026 
0 18 17 8.8450 0.0144 
0 18 18 12.0926 0.0617 
0 18 19 -1.8679 0.2023 
0 18 20 -1.4106 -0.2011 
0 18 21 0.8590 0.0871 
0 18 22 1.5748 0.1326 
0 18 23 -3.6266 0.0136 
0 20 0 33.6987 -0.0751 
0 20 1 -14.0966 0.1014 
0 20 2 -23.5834 -0.0721 
0 20 3 2.5415 -0.1155 
0 20 4 -3.0480 -0.0961 
0 20 5 9.5771 0.1167 
0 20 6 2.8479 0.0060 
0 20 7 -0.3049 -0.0856 
0 20 8 6.9408 0.1091 
0 20 9 4.5771 -0.1233 
0 20 10 5.9294 -0.0205 
0 20 11 -8.1278 -0.0365 
0 20 12 -19.9912 0.0873 
0 20 13 -1.0740 -0.0555 
0 20 14 21.8016 0.1015 
0 20 15 -1.2545 -0.2066 
0 20 16 2.1979 0.1533 
0 20 17 11.7412 -0.0521 
0 20 18 -0.2058 0.1836 
0 20 19 -11.2526 -0.2179 
0 20 20 5.8826 -0.3119 
0 20 21 2.7478 0.1689 
0 20 22 -0.7245 -0.4171 
0 22 0 23.2016 -0.2956 
0 22 1 -30.0448 0.0899 
0 22 2 -59.4607 0.1125 
0 22 3 -10.5154 0.0912 
0 22 4 5.6379 -0.1195 
0 22 5 9.4255 0.1005 
0 22 6 -25.7178 -0.1661 
0 22 7 -5.0640 0.0635 
0 22 8 -0.1953 -0.0078 
0 22 9 -4.0044 0.0076 
0 22 10 6.6835 -0.0669 
0 22 11 -1.0239 0.0931 
0 22 12 -6.6746 0.0600 
0 22 13 8.4267 0.1006 
0 22 14 5.5063 -0.1329 
0 22 15 -10.6406 0.0331 
0 22 16 0.1305 -0.0012 
0 22 17 0.9223 -0.0203 
0 22 18 -3.3984 -0.0500 
0 22 19 -6.9592 -0.0610 
0 22 20 4.6230 0.1542 
0 22 21 -5.8895 0.5228 
0 24 0 25.0373 -0.0055 
0 24 1 7.2687 -0.1586 
0 24 2 -5.4683 0.2415 
0 24 3 13.2924 -0.1376 
0 24 4 -0.6794 -0.0920 
0 24 5 -0.5219 -0.0171 
0 24 6 -5.6637 0.1098 
0 24 7 14.7294 0.0225 
0 24 8 -6.7066 -0.0304 
0 24 9 -4.1184 -0.0857 
0 24 10 12.4318 0.0577 
0 24 11 -0.6687 -0.0051 
0 24 12 -1.4633 0.1089 
0 24 13 -0.5654 -0.0836 
0 24 14 2.7067 -0.1291 
0 24 15 2.5168 0.0348 
0 24 16 0.1672 0.1101 
0 24 17 -1.3337 -0.1117 
0 24 18 1.4354 0.1437 
0 24 19 -8.2894 -0.2596 
0 26 0 23.0493 -0.0247 
0 26 1 -8.3221 -0.1654 
0 26 2 -20.5373 0.3125 
0 26 3 -1.5629 -0.0763 
0 26 4 5.8679 0.0786 
0 26 5 2.8791 -0.1486 
0 26 6 -5.4254 0.1943 
0 26 7 11.5571 -0.1797 
0 26 8 -8.6598 0.0353 
0 26 9 -14.4940 0.0006 
0 26 10 5.5918 0.1526 
0 26 11 -0.9381 -0.1963 
0 26 12 -7.9066 0.0449 
0 26 13 -1.8921 -0.0301 
0 26 14 -7.3054 -0.0174 
0 26 15 2.2061 0.1808 
0 26 16 -0.0166 -0.1863 
0 26 17 -8.6060 0.2227 
0 28 0 3.6518 0.0561 
0 28 1 -2.1869 0.1223 
0 28 2 2.4050 -0.1103 
0 28 3 10.8968 -0.0314 
0 28 4 8.5155 -0.0300 
0 28 5 -1.4372 0.0474 
0 28 6 -3.9973 0.1234 
0 28 7 -2.6667 0.0161 
0 28 8 -7.9290 -0.0813 
0 28 9 2.5465 -0.0706 
0 28 10 -1.1773 0.1469 
0 28 11 -17.3868 -0.1825 
0 28 12 3.6802 -0.0863 
0 28 13 1.0658 0.0956 
0 28 14 -3.3358 -0.2531 
0 28 15 4.0952 0.3921 
0 30 0 0.7029 -0.1274 
0 30 1 10.3777 0.0278 
0 30 2 9.6073 -0.0171 
0 30 3 -5.2943 0.1525 
0 30 4 -6.9082 0.0448 
0 30 5 -2.2044 -0.2134 
0 30 6 0.7996 0.0790 
0 30 7 1.7852 0.0417 
0 30 8 0.6371 -0.1493 
0 30 9 -2.3244 0.0626 
0 30 10 10.0377 0.1633 
0 30 11 -1.5258 0.1235 
0 30 12 4.4435 -0.0053 
0 32 0 -22.7093 0.0830 
0 32 1 -4.6588 -0.0916 
0 32 2 3.1688 0.2091 
0 32 3 -2.0139 -0.2570 
0 32 4 5.8650 -0.0084 
0 32 5 -1.4819 -0.0872 
0 32 6 1.2361 0.4891 
0 32 7 -5.9602 -0.1784 
0 32 8 1.5265 -0.2228 
1 1 0 -47.6082 -3.1920 
1 1 1 -247.0538 -1.8926 
1 1 2 45.5136 -0.1757 
1 1 3 24.4112 1.0544 
1 1 4 -58.3276 -2.9152 
1 1 5 58.7545 0.9375 
1 1 6 0.3424 -0.0733 
1 1 7 -85.3152 1.6369 
1 1 8 68.3048 -0.6153 
1 1 9 -8.6500 -0.3820 
1 1 10 -26.4624 -1.2528 
1 1 11 48.9855 1.1897 
1 1 12 -13.3981 -0.2340 
1 1 13 7.9239 -0.1110 
1 1 14 16.1009 -0.9846 
1 1 15 3.1319 0.8096 
1 1 16 30.1163 0.2445 
1 1 17 18.5182 -0.0594 
1 1 18 15.1560 -0.7247 
1 1 19 -16.2133 0.1749 
1 1 20 16.7343 0.3397 
1 1 21 11.1223 0.1739 
1 1 22 0.6456 -0.6496 
1 1 23 -6.0893 0.0355 
1 1 24 14.7520 0.2453 
1 1 25 23.2454 0.5958 
1 1 26 25.9698 -0.3622 
1 1 27 -14.2833 0.0136 
1 3 0 -28.0245 1.2034 
1 3 1 139.3897 0.0579 
1 3 2 108.1781 0.9730 
1 3 3 52.7615 -0.4473 
1 3 4 69.1068 0.8664 
1 3 6 11.6524 -0.1440 
1 3 7 37.7606 -0.7130 
1 3 8 3.9124 0.0975 
1 3 9 -35.8630 0.1290 
1 3 10 -20.0767 0.2487 
1 3 11 -17.3341 -0.2057 
1 3 12 -24.6885 0.0587 
1 3 13 -2.0349 -0.3803 
1 3 14 4.6939 0.2493 
1 3 15 14.4340 -0.0645 
1 3 16 6.2779 0.4808 
1 3 17 2.6441 -0.3667 
1 3 18 10.5947 0.0844 
1 3 19 -18.9937 -0.3844 
1 3 20 13.0454 0.4530 
1 3 21 5.0754 -0.2164 
1 3 22 8.4344 0.3326 
1 3 23 1.5589 -0.2323 
1 3 24 2.1320 0.1234 
1 3 25 -17.9406 -0.2394 
1 3 26 -8.2042 -0.3773 
1 3 27 -4.2776 0.2172 
1 5 0 157.3475 0.7898 
1 5 1 -106.0197 -0.1370 
1 5 2 -235.5431 -0.6730 
1 5 3 43.9715 -0.1408 
1 5 4 120.4015 0.4675 
1 5 5 125.3948 -0.6427 
1 5 6 25.5110 0.3070 
1 5 7 12.7062 -0.3811 
1 5 8 42.6381 0.6684 
1 5 9 -33.7562 -0.4412 
1 5 10 10.5612 0.2745 
1 5 11 33.2471 -0.6820 
1 5 12 -2.7067 0.4413 
1 5 13 -2.3104 0.1935 
1 5 14 6.6386 0.4866 
1 5 15 -2.9334 -0.8413 
1 5 16 -4.3890 -0.0631 
1 5 17 -8.1539 -0.3204 
1 5 18 14.3862 0.7847 
1 5 19 -0.5111 -0.2808 
1 5 20 14.5563 0.1161 
1 5 21 16.7307 -0.3927 
1 5 22 -1.8953 0.2146 
1 5 23 -0.6608 -0.1024 
1 5 24 9.3860 0.0725 
1 5 25 -8.2505 -0.2485 
1 5 26 3.0038 0.3470 
1 5 27 -6.1373 0.2344 
1 7 0 298.8589 0.5332 
1 7 1 -62.7535 -0.0934 
1 7 2 24.7087 -0.3425 
1 7 3 188.1181 -0.0639 
1 7 4 -16.7591 0.4042 
1 7 5 3.3203 0.0518 
1 7 6 -48.8993 -0.1757 
1 7 7 57.3439 -0.1211 
1 7 8 0.4507 -0.1201 
1 7 9 -45.0824 0.3023 
1 7 10 -6.6139 0.4810 
1 7 11 -6.3313 -0.2396 
1 7 12 -10.0442 -0.3881 
1 7 13 -7.5751 -0.1315 
1 7 14 11.5747 0.2121 
1 7 15 -13.3230 0.1989 
1 7 16 7.4202 -0.0070 
1 7 17 9.0907 0.0858 
1 7 18 5.3080 0.0542 
1 7 19 5.2370 -0.1576 
1 7 20 4.1208 -0.1294 
1 7 21 7.3434 0.0944 
1 7 22 4.8367 0.0699 
1 7 23 -8.0858 0.1891 
1 7 24 -13.9797 -0.2338 
1 7 25 -22.6653 -0.0993 
1 7 26 10.9890 0.3108 
1 7 27 -3.9119 0.1236 
1 9 0 73.1927 0.1475 
1 9 1 -62.2601 0.1282 
1 9 2 -65.0623 0.2280 
1 9 3 -47.1966 -0.3309 
1 9 4 -70.3298 0.1449 
1 9 5 -9.9367 -0.3283 
1 9 6 0.6330 0.4031 
1 9 7 41.7559 0.1316 
1 9 8 -34.9836 0.1926 
1 9 9 -28.6801 -0.4437 
1 9 10 -1.0193 -0.0970 
1 9 11 10.9447 0.0991 
1 9 12 21.6529 0.2582 
1 9 13 -11.0755 0.1153 
1 9 14 1.8042 -0.1587 
1 9 15 -3.5340 -0.0382 
1 9 16 3.1771 -0.1600 
1 9 17 -2.7552 0.0515 
1 9 18 14.9102 0.0243 
1 9 19 1.3941 0.1757 
1 9 20 -12.6839 -0.0503 
1 9 21 -14.2179 -0.0424 
1 9 22 -7.3010 -0.1584 
1 9 23 -7.1075 0.0261 
1 9 24 -2.0534 0.1296 
1 9 25 -3.3558 0.3612 
1 9 26 19.6502 0.1777 
1 11 0 105.0909 -0.2775 
1 11 1 19.3394 -0.2722 
1 11 2 95.8310 0.3594 
1 11 3 -14.3265 -0.3599 
1 11 4 -43.6357 0.3778 
1 11 5 60.0272 -0.4741 
1 11 6 -11.0612 0.4442 
1 11 7 -8.6744 -0.3751 
1 11 8 -1.1404 0.3736 
1 11 9 -8.9692 -0.4365 
1 11 10 -6.5847 0.4874 
1 11 11 -10.5202 -0.1946 
1 11 12 6.1458 0.2480 
1 11 13 -18.4052 -0.5996 
1 11 14 9.6497 0.1642 
1 11 15 12.6113 0.1419 
1 11 16 0.8915 0.3780 
1 11 17 2.7795 -0.0898 
1 11 18 25.5967 -0.2833 
1 11 19 5.2400 -0.1413 
1 11 20 -3.2501 0.0612 
1 11 21 1.2521 -0.0289 
1 11 22 11.3313 0.1833 
1 11 23 8.7092 -0.1023 
1 11 24 -6.9946 0.0224 
1 11 25 -2.2857 0.1363 
1 13 0 37.6428 -0.1345 
1 13 1 -4.8888 0.2881 
1 13 2 28.6719 0.1404 
1 13 3 -63.4644 -0.0966 
1 13 4 -31.5903 -0.0098 
1 13 5 35.4445 -0.0543 
1 13 6 3.1257 0.1893 
1 13 7 -6.1156 -0.0856 
1 13 8 17.3486 0.1241 
1 13 9 14.4778 -0.2900 
1 13 10 -1.6995 -0.0686 
1 13 11 6.1180 -0.0282 
1 13 12 10.5268 0.4720 
1 13 13 -15.3938 -0.0898 
1 13 14 -9.7800 -0.0063 
1 13 15 -9.1936 -0.1832 
1 13 16 15.7367 0.0925 
1 13 17 3.7600 -0.1460 
1 13 18 4.0097 0.0700 
1 13 19 26.2888 0.0637 
1 13 20 13.9846 0.2134 
1 13 21 -12.5972 -0.0631 
1 13 22 -3.6725 -0.0942 
1 13 23 -0.4239 -0.1180 
1 13 24 -2.5182 0.3036 
1 13 25 -11.7627 -0.1907 
1 15 0 -15.9484 -0.1230 
1 15 1 18.7055 -0.0038 
1 15 2 -19.6473 -0.3661 
1 15 3 -12.2229 0.1855 
1 15 4 48.0946 0.0025 
1 15 5 33.1305 0.2733 
1 15 6 -1.1243 -0.3582 
1 15 7 -9.4833 -0.1067 
1 15 8 1.8037 -0.0122 
1 15 9 3.2263 0.4017 
1 15 10 3.2042 -0.1877 
1 15 11 -3.1019 -0.0021 
1 15 12 -0.7330 -0.1773 
1 15 13 0.4357 -0.0195 
1 15 14 6.3706 -0.0669 
1 15 15 -11.3712 0.0942 
1 15 16 -1.8200 0.1102 
1 15 17 0.6226 -0.0012 
1 15 18 4.1378 -0.1270 
1 15 19 -5.1686 -0.0583 
1 15 20 17.3507 -0.0722 
1 15 21 2.8602 -0.0713 
1 15 22 -2.9742 -0.0123 
1 15 23 -0.5370 0.0664 
1 15 24 -1.0209 0.2866 
1 17 0 -2.1905 0.2704 
1 17 1 -12.6978 0.1085 
1 17 2 -17.8730 -0.0213 
1 17 3 0.3726 -0.1244 
1 17 4 2.0832 0.0491 
1 17 5 3.2566 0.1462 
1 17 6 -2.2958 -0.1417 
1 17 7 -6.8492 -0.1355 
1 17 8 16.2849 0.1346 
1 17 9 12.8029 0.1397 
1 17 10 3.6494 -0.1746 
1 17 11 1.0192 -0.1734 
1 17 12 -1.9809 0.0928 
1 17 13 0.0202 0.2602 
1 17 14 1.0081 0.0698 
1 17 15 -10.2616 -0.2526 
1 17 16 -8.7650 -0.1612 
1 17 17 -13.4011 0.0213 
1 17 18 6.3719 0.2008 
1 17 19 -11.5182 0.0617 
1 17 20 15.2884 0.0023 
1 17 21 9.3366 0.0929 
1 17 22 -0.8799 0.0281 
1 17 23 2.2179 0.2570 
1 19 0 14.3776 -0.0363 
1 19 1 -26.2704 -0.0741 
1 19 2 4.8929 -0.1277 
1 19 3 16.3620 -0.0341 
1 19 4 -7.5569 0.1138 
1 19 5 -12.7205 0.1744 
1 19 6 4.5406 -0.1094 
1 19 7 -0.7581 -0.1521 
1 19 8 4.8676 0.1027 
1 19 9 -9.5236 0.0359 
1 19 10 -10.2566 0.1099 
1 19 11 -7.4961 -0.1383 
1 19 12 17.9938 -0.0380 
1 19 13 11.9895 -0.0838 
1 19 14 -3.2983 0.0429 
1 19 15 -1.0449 -0.1398 
1 19 16 -7.8362 0.2686 
1 19 17 -9.2947 -0.0664 
1 19 18 12.9722 0.1651 
1 19 19 -15.6155 -0.2499 
1 19 20 -5.2520 0.0414 
1 19 21 -2.4553 0.1323 
1 19 22 3.7553 -0.2841 
1 21 0 10.1331 -0.1433 
1 21 1 9.6795 0.2025 
1 21 2 18.7075 0.0229 
1 21 3 -3.3227 0.1259 
1 21 4 5.1029 -0.3668 
1 21 5 0.0464 0.0627 
1 21 6 10.1544 -0.0027 
1 21 7 -1.3953 0.1983 
1 21 8 -0.5000 -0.1608 
1 21 9 -5.6308 -0.0283 
1 21 10 -9.1004 -0.0861 
1 21 11 0.0544 0.0776 
1 21 12 2.5664 -0.0210 
1 21 13 -7.0657 0.1225 
1 21 14 -8.6465 -0.0949 
1 21 15 1.2338 0.0902 
1 21 16 -5.6816 -0.1661 
1 21 17 -1.6741 0.0402 
1 21 18 9.6906 0.1626 
1 21 19 -13.6883 -0.2062 
1 21 20 1.6892 0.1567 
1 21 21 1.5090 -0.2670 
1 23 0 -4.0634 -0.3428 
1 23 1 4.1040 -0.0437 
1 23 2 11.5107 0.0796 
1 23 3 0.7932 0.2127 
1 23 4 9.3529 -0.2040 
1 23 5 -0.6675 0.0998 
1 23 6 -1.3546 0.0225 
1 23 7 4.7017 0.1165 
1 23 8 13.1105 -0.2420 
1 23 9 -1.5577 -0.0072 
1 23 10 -8.9693 0.0449 
1 23 11 -4.9635 0.2473 
1 23 12 -4.1900 -0.0723 
1 23 13 -9.3536 -0.0579 
1 23 14 -2.8460 -0.0783 
1 23 15 13.4257 0.1606 
1 23 16 6.0646 -0.0804 
1 23 17 5.0693 0.2182 
1 23 18 10.8489 -0.0721 
1 23 19 -5.7135 -0.0692 
1 23 20 1.3779 0.0779 
1 25 0 -9.3196 -0.0307 
1 25 1 -1.2093 0.0265 
1 25 2 4.7671 0.1314 
1 25 3 -2.8177 -0.0148 
1 25 4 -6.1826 -0.0899 
1 25 5 1.2415 -0.1425 
1 25 6 -3.1013 0.0781 
1 25 7 -0.2453 0.0988 
1 25 8 9.7188 0.0343 
1 25 9 -4.9244 -0.0457 
1 25 10 -3.3905 0.1279 
1 25 11 -0.4451 0.0111 
1 25 12 -7.5324 -0.0625 
1 25 13 -9.1400 0.0523 
1 25 14 -0.4886 -0.0479 
1 25 15 -0.7636 0.0295 
1 25 16 -2.2439 0.0206 
1 25 17 2.6897 -0.4039 
1 25 18 -2.7070 -0.0329 
1 27 0 -0.1276 -0.0804 
1 27 1 1.9056 -0.0457 
1 27 2 -2.7141 -0.1265 
1 27 3 -6.2292 0.1647 
1 27 4 -4.2720 -0.0060 
1 27 5 -7.7327 0.1230 
1 27 6 -12.6605 -0.0641 
1 27 7 -6.4799 -0.0116 
1 27 8 3.6259 -0.1443 
1 27 9 10.7398 0.0613 
1 27 10 3.8632 0.0653 
1 27 11 -1.0462 -0.0340 
1 27 12 11.2947 -0.0068 
1 27 13 4.6029 -0.0093 
1 27 14 -7.6438 -0.1233 
1 27 15 7.1608 0.1436 
1 27 16 2.5819 0.0247 
1 29 0 -8.6436 0.0419 
1 29 1 1.4883 0.1127 
1 29 2 -3.5994 -0.1579 
1 29 3 -5.2391 0.1894 
1 29 4 -0.2033 -0.1684 
1 29 5 2.6162 0.1624 
1 29 6 6.8224 -0.2939 
1 29 7 8.8606 0.2680 
1 29 8 -2.0193 -0.1582 
1 29 9 5.9556 0.3118 
1 29 10 4.1796 -0.1074 
1 29 11 1.3989 0.0147 
1 29 12 4.0242 -0.2270 
1 29 13 2.0716 -0.4245 
1 31 0 -1.9490 0.1489 
1 31 1 7.4467 -0.1030 
1 31 2 6.5701 0.0355 
1 31 3 -4.2660 -0.0769 
1 31 4 -0.8944 0.0082 
1 31 5 -9.4579 -0.0341 
1 31 6 -0.0211 -0.0493 
1 31 7 1.5716 0.4270 
1 31 8 -1.6020 -0.6123 
1 31 9 -1.4953 -0.0496 
1 31 10 -1.5572 -0.3715 
1 33 0 -0.8057 -0.1556 
1 33 1 -2.4031 -0.2743 
1 33 2 5.7175 0.2286 
1 33 3 -4.9683 -0.0283 
1 33 4 -4.6538 0.3971 
2 0 0 129.3448 -0.4979 
2 0 1 -258.9586 -2.8648 
2 0 2 -169.7348 -4.3193 
2 0 3 134.5255 4.2312 
2 0 4 -113.4415 -2.1446 
2 0 5 -104.5197 2.4242 
2 0 6 93.2020 -0.2699 
2 0 7 142.9374 1.9204 
2 0 8 -20.0867 -5.5148 
2 0 9 -58.1660 -1.0995 
2 0 10 -45.6416 1.2340 
2 0 11 -14.6968 6.6309 
2 0 12 1.4965 -0.9874 
2 0 13 28.4240 -1.8709 
2 0 14 31.9467 -2.9943 
2 0 15 18.3297 1.4350 
2 0 16 38.5425 -0.4149 
2 0 17 -3.1484 0.5933 
2 0 18 7.2691 -0.4871 
2 0 19 15.5920 1.1086 
2 0 20 18.1379 -0.3483 
2 0 21 15.5344 -0.2310 
2 0 22 12.9519 -0.4712 
2 0 23 16.9361 0.4014 
2 0 24 1.4529 -0.2214 
2 0 25 1.8425 -0.1481 
2 0 26 6.0150 -0.3577 
2 0 27 -2.4140 0.6378 
2 2 0 -8.7306 0.5981 
2 2 1 88.7385 -1.0614 
2 2 2 160.2543 1.4827 
2 2 3 33.5897 2.0050 
2 2 4 -8.5464 -2.1711 
2 2 5 51.1327 -0.9761 
2 2 6 -4.5356 -0.7493 
2 2 7 56.9574 3.1022 
2 2 8 57.9836 -0.1498 
2 2 9 18.8431 -0.1939 
2 2 10 20.1478 -1.0929 
2 2 11 2.0367 0.5506 
2 2 12 -29.8853 -1.2183 
2 2 13 -22.5925 0.1079 
2 2 14 -4.2444 0.4334 
2 2 15 6.9519 1.4744 
2 2 16 -4.7615 -0.5939 
2 2 17 -4.9271 -0.7409 
2 2 18 5.8674 -0.4045 
2 2 19 -15.5439 0.6767 
2 2 20 12.3706 0.0293 
2 2 21 5.1689 -0.1773 
2 2 22 0.1371 -0.2753 
2 2 23 -5.0686 0.2743 
2 2 24 -10.9537 0.0309 
2 2 25 -3.2473 0.0132 
2 2 26 6.0547 0.0765 
2 2 27 2.8070 -0.0438 
2 4 0 9.0643 1.0767 
2 4 1 137.1782 -0.2522 
2 4 2 99.4098 -0.1558 
2 4 3 -160.8711 -0.3045 
2 4 4 -56.6216 0.8767 
2 4 5 103.8154 0.5852 
2 4 6 86.2461 -0.1545 
2 4 7 37.4112 -0.1637 
2 4 8 25.2352 -0.6681 
2 4 9 -3.5746 -0.2588 
2 4 10 -0.4581 0.3622 
2 4 11 8.6455 0.7221 
2 4 12 -16.1046 0.2461 
2 4 13 5.6306 -0.5070 
2 4 14 23.4441 -0.2631 
2 4 15 14.0005 -0.2384 
2 4 16 -0.1328 0.1695 
2 4 17 -5.0523 -0.0686 
2 4 18 2.1261 0.4173 
2 4 19 -12.7453 -0.1173 
2 4 20 -2.5306 -0.1685 
2 4 21 -5.3665 -0.3217 
2 4 22 15.4951 0.4908 
2 4 23 -11.2874 -0.0201 
2 4 24 3.0338 -0.0822 
2 4 25 8.6746 -0.2750 
2 4 26 -11.2896 0.0282 
2 4 27 9.1188 0.3773 
2 6 0 74.9001 -0.0051 
2 6 1 -183.2579 0.5818 
2 6 2 62.6080 -0.4351 
2 6 3 -31.0496 0.0231 
2 6 5 -30.2294 -0.0196 
2 6 6 -110.1881 -0.8324 
2 6 7 -29.3468 0.3743 
2 6 8 -0.2325 0.3419 
2 6 9 3.4813 0.6556 
2 6 10 14.9814 -0.4837 
2 6 11 8.4411 -0.6151 
2 6 12 -19.1526 -0.1016 
2 6 13 -10.1276 0.4427 
2 6 14 15.8770 0.2655 
2 6 15 8.5103 0.0920 
2 6 16 6.5837 -0.2876 
2 6 17 -6.6110 -0.0591 
2 6 18 5.0913 0.0457 
2 6 19 1.5226 -0.0012 
2 6 20 5.7280 -0.0838 
2 6 21 1.4210 -0.0205 
2 6 22 8.5576 0.0691 
2 6 23 -10.9235 -0.0063 
2 6 24 -3.5131 -0.1373 
2 6 25 8.7562 -0.0686 
2 6 26 6.7228 0.0525 
2 6 27 -4.2278 -0.0471 
2 8 0 76.2571 0.2567 
2 8 1 -61.5422 0.1946 
2 8 2 38.5618 -0.5430 
2 8 3 -72.5010 -0.0515 
2 8 4 20.9520 0.1553 
2 8 5 -31.3844 0.4888 
2 8 6 18.2814 -0.2307 
2 8 7 36.6964 -0.0457 
2 8 8 -10.7218 -0.5823 
2 8 9 9.1420 0.6346 
2 8 10 -16.5266 -0.2489 
2 8 11 -0.3483 0.3387 
2 8 12 9.2587 -0.1900 
2 8 13 -8.2739 0.4256 
2 8 14 10.9825 -0.6217 
2 8 15 -1.9027 0.0374 
2 8 16 5.5890 -0.1708 
2 8 17 -11.1938 0.4769 
2 8 18 -8.4654 -0.1549 
2 8 19 -10.4541 0.1576 
2 8 20 8.5141 -0.1434 
2 8 21 -2.4053 0.1331 
2 8 22 -1.6192 -0.0757 
2 8 23 1.3982 0.0845 
2 8 24 19.7575 -0.0207 
2 8 25 16.9167 0.2540 
2 8 26 3.5066 0.0072 
2 10 0 -1.0419 -0.1842 
2 10 1 -51.0625 0.0867 
2 10 2 50.4212 0.1631 
2 10 3 36.6268 -0.0239 
2 10 4 38.1241 -0.2736 
2 10 5 -16.3423 -0.2148 
2 10 6 -15.5479 0.3572 
2 10 7 -38.5473 -0.0388 
2 10 8 10.4657 0.1160 
2 10 9 5.4116 0.0227 
2 10 10 -4.6290 -0.1034 
2 10 11 -12.1402 -0.1239 
2 10 12 8.2880 -0.0520 
2 10 13 10.9504 0.1806 
2 10 14 6.9197 -0.1303 
2 10 15 -7.9747 0.2193 
2 10 16 15.0005 0.0615 
2 10 17 -11.0474 0.0189 
2 10 18 -4.4174 -0.3055 
2 10 19 0.1947 0.0494 
2 10 20 11.6106 -0.0579 
2 10 21 1.0702 0.2257 
2 10 22 -4.8281 -0.1860 
2 10 23 -12.4792 -0.0284 
2 10 24 4.6730 -0.0152 
2 10 25 -0.8341 -0.0556 
2 10 26 -14.2031 0.1061 
2 12 0 20.9257 -0.0302 
2 12 1 -39.2435 0.0055 
2 12 2 -20.3763 0.0710 
2 12 3 -20.0636 -0.1608 
2 12 4 27.6763 -0.0261 
2 12 5 -6.1442 -0.0714 
2 12 6 -13.2292 0.3152 
2 12 7 6.7690 -0.1970 
2 12 8 26.0044 0.0019 
2 12 9 -3.7751 -0.2683 
2 12 10 8.3195 0.1244 
2 12 11 -4.9586 0.0140 
2 12 12 -7.1622 0.2517 
2 12 13 -7.1153 -0.2631 
2 12 14 15.5302 -0.0247 
2 12 15 8.8481 -0.0213 
2 12 16 7.1630 0.1095 
2 12 17 -11.5822 -0.0122 
2 12 18 -18.6798 -0.1079 
2 12 19 -14.4023 0.1351 
2 12 20 -3.3529 0.0046 
2 12 21 5.8562 0.0969 
2 12 22 -3.1083 -0.1021 
2 12 23 3.2007 0.0499 
2 12 24 25.2440 -0.0320 
2 12 25 4.1706 0.4372 
2 14 0 2.2395 -0.4643 
2 14 1 0.9256 0.1712 
2 14 2 8.1150 0.0682 
2 14 3 9.9306 0.1906 
2 14 4 17.0910 -0.2414 
2 14 5 -12.3637 0.2637 
2 14 6 -10.6880 -0.1554 
2 14 7 -5.4643 0.0541 
2 14 8 5.6993 -0.0536 
2 14 9 -0.2575 0.0864 
2 14 10 18.3393 -0.1247 
2 14 11 6.2344 0.0513 
2 14 12 11.2687 -0.0307 
2 14 13 -1.9227 0.0365 
2 14 14 -1.6939 -0.0457 
2 14 15 4.9097 0.0707 
2 14 16 1.1941 -0.0790 
2 14 17 -4.1479 0.0707 
2 14 18 -14.1971 -0.0694 
2 14 19 -6.5860 0.0553 
2 14 20 -5.8042 -0.1845 
2 14 21 -6.9910 0.1336 
2 14 22 -0.9826 -0.0535 
2 14 23 -13.3509 -0.0661 
2 14 24 8.7949 -0.0727 
2 14 25 8.9200 0.1369 
2 16 0 -1.5247 0.1484 
2 16 1 -3.5209 0.0264 
2 16 2 23.0834 -0.0899 
2 16 3 -1.8385 -0.0955 
2 16 4 -0.6707 -0.0237 
2 16 5 -12.0906 0.1672 
2 16 6 -4.3041 -0.1792 
2 16 7 10.1859 -0.0085 
2 16 8 5.5267 0.0558 
2 16 9 -8.5037 0.1153 
2 16 10 -14.6806 -0.1604 
2 16 11 -14.7034 -0.0265 
2 16 12 -1.1110 -0.0702 
2 16 13 -15.1924 0.2077 
2 16 14 -10.7330 -0.0660 
2 16 15 21.6862 -0.0053 
2 16 16 14.7294 -0.1805 
2 16 17 -8.9599 0.1564 
2 16 18 5.4462 -0.0358 
2 16 19 3.2559 -0.0057 
2 16 20 2.7975 -0.1601 
2 16 21 4.3893 0.2230 
2 16 22 -0.2868 -0.1719 
2 16 23 -10.8058 0.0904 
2 16 24 1.4589 0.3475 
2 18 0 -4.7450 0.1749 
2 18 1 6.9714 -0.1688 
2 18 2 36.2142 0.1184 
2 18 3 -21.5632 -0.0765 
2 18 4 14.6506 0.3037 
2 18 5 13.9595 0.0626 
2 18 6 -11.0261 0.0389 
2 18 7 6.1065 -0.3176 
2 18 8 4.2837 0.0754 
2 18 9 -17.1422 0.0545 
2 18 10 3.4631 0.1599 
2 18 11 -2.6202 -0.1377 
2 18 12 -0.4899 0.0817 
2 18 13 -16.9039 -0.0408 
2 18 14 -13.9046 0.0665 
2 18 15 -0.9500 -0.1243 
2 18 16 -11.4151 -0.0751 
2 18 17 -14.3436 0.0531 
2 18 18 21.2657 0.0584 
2 18 19 14.2793 -0.0231 
2 18 20 3.4955 0.0236 
2 18 21 -16.8199 0.2492 
2 18 22 -16.5088 -0.0692 
2 18 23 -1.7674 0.0274 
2 20 0 -1.2709 0.0750 
2 20 1 -11.8168 0.0143 
2 20 2 8.6128 0.0720 
2 20 3 -2.0539 -0.1363 
2 20 4 -3.5083 -0.1127 
2 20 5 7.8805 -0.0434 
2 20 6 -2.8563 0.1133 
2 20 7 -7.2687 0.0213 
2 20 8 10.1014 0.1387 
2 20 9 -4.8727 0.0318 
2 20 10 -3.6746 -0.0622 
2 20 11 -4.4551 -0.0965 
2 20 12 -1.8368 -0.0469 
2 20 13 -11.9456 0.1134 
2 20 14 -0.5390 0.0212 
2 20 15 -7.4764 -0.0759 
2 20 16 -3.5878 0.0069 
2 20 17 2.3012 0.0095 
2 20 18 7.7913 0.1628 
2 20 19 -18.8644 -0.2494 
2 20 20 -11.2721 0.1911 
2 20 21 -0.8845 0.4542 
2 20 22 1.0351 -1.0296 
2 22 0 0.7909 -0.1362 
2 22 1 -3.3464 -0.0247 
2 22 2 -3.9395 0.0377 
2 22 3 6.2314 0.0723 
2 22 4 -2.5084 0.0121 
2 22 5 13.4472 0.0424 
2 22 6 -1.6051 0.0722 
2 22 7 -3.4205 0.0194 
2 22 8 17.6452 -0.2565 
2 22 9 1.4473 -0.0662 
2 22 10 -9.2329 0.0725 
2 22 11 -9.7023 0.2562 
2 22 12 4.4849 -0.0797 
2 22 13 1.1148 -0.0479 
2 22 14 -5.5535 -0.1712 
2 22 15 7.3137 0.1556 
2 22 16 1.4913 -0.0008 
2 22 17 -11.6025 0.1450 
2 22 18 1.4989 -0.1075 
2 22 19 -10.7643 -0.0031 
2 22 20 3.2370 0.1342 
2 24 0 -3.9935 0.1019 
2 24 1 12.1605 -0.0661 
2 24 2 -2.6219 0.1856 
2 24 3 9.6751 -0.0888 
2 24 4 -9.2181 -0.0095 
2 24 5 6.9530 -0.2615 
2 24 6 4.4655 0.1321 
2 24 7 -7.4924 0.1530 
2 24 8 2.4282 0.0824 
2 24 9 -4.8571 -0.1127 
2 24 10 -1.4028 0.0915 
2 24 11 1.2057 -0.0382 
2 24 12 7.2578 -0.0059 
2 24 13 -6.3326 -0.0496 
2 24 14 1.8935 0.1871 
2 24 15 6.0942 -0.0571 
2 24 16 -6.0405 0.0029 
2 24 17 -2.3298 -0.1821 
2 24 18 -0.8641 0.2137 
2 24 19 -10.3010 0.2923 
2 26 0 9.2146 0.1220 
2 26 1 -9.7820 -0.2533 
2 26 2 -23.3406 0.0029 
2 26 3 -12.2496 -0.0072 
2 26 4 -8.9148 0.2524 
2 26 5 4.4318 -0.1861 
2 26 6 -1.3783 0.0316 
2 26 7 7.2553 -0.1437 
2 26 8 20.3216 0.0112 
2 26 9 -5.0620 -0.1789 
2 26 10 10.7286 0.2174 
2 26 11 -3.3335 0.0757 
2 26 12 7.7211 0.1627 
2 26 13 5.3966 -0.1459 
2 26 14 -0.9609 0.1535 
2 26 15 5.0828 -0.2506 
2 26 16 -2.7739 -0.0804 
2 26 17 -0.6216 -0.0577 
2 28 0 8.0510 0.0470 
2 28 1 5.0469 0.0478 
2 28 2 -5.5147 -0.1132 
2 28 3 7.5427 0.1662 
2 28 4 -6.2618 -0.0460 
2 28 5 -1.6181 -0.0648 
2 28 6 7.5362 -0.1559 
2 28 7 0.4928 0.1405 
2 28 8 4.0071 0.0941 
2 28 9 3.8692 0.0153 
2 28 10 9.7081 -0.2227 
2 28 11 -2.2266 -0.0683 
2 28 12 4.8769 -0.1362 
2 28 13 -16.2163 -0.2303 
2 28 14 -8.0184 -0.0976 
2 28 15 2.1995 -0.3171 
2 30 0 -17.3805 0.0646 
2 30 1 -1.6327 -0.0980 
2 30 2 -6.2048 -0.1909 
2 30 3 4.9204 0.1921 
2 30 4 -8.6367 -0.0495 
2 30 5 -14.8321 0.1075 
2 30 6 0.3216 -0.0140 
2 30 7 8.2009 -0.0225 
2 30 8 2.7581 -0.1494 
2 30 9 -2.6661 -0.0286 
2 30 10 7.9488 0.0533 
2 30 11 6.1228 0.6875 
2 30 12 0.1023 -0.0937 
2 32 0 -12.3201 0.0254 
2 32 1 5.5222 -0.1263 
2 32 2 -4.0953 0.2686 
2 32 3 1.4001 0.0544 
2 32 4 8.0129 -0.2079 
2 32 5 -2.1715 -0.0903 
2 32 6 5.9884 0.1141 
2 32 7 -2.8986 -0.2160 
2 32 8 0.2665 0.1882 
3 1 0 28.1567 -0.7043 
3 1 1 -101.7442 1.5897 
3 1 2 -51.5063 2.1723 
3 1 3 -188.8470 -2.0240 
3 1 4 173.6582 -1.3708 
3 1 5 -2.5222 0.3988 
3 1 6 -81.9901 0.5377 
3 1 7 24.0181 1.0987 
3 1 8 -39.9321 -1.5038 
3 1 9 -7.2914 0.3248 
3 1 10 -0.6411 -0.0411 
3 1 11 19.9682 1.2987 
3 1 12 -22.5990 -1.2381 
3 1 13 -10.8710 0.2417 
3 1 14 15.7415 -0.2781 
3 1 15 7.6386 1.3329 
3 1 16 12.3777 -0.4566 
3 1 17 -6.8733 0.0635 
3 1 18 7.6129 -0.9806 
3 1 19 -25.6382 0.6356 
3 1 20 -3.9338 0.0022 
3 1 21 -5.5577 0.4540 
3 1 22 -5.7620 -0.6765 
3 1 23 6.1214 0.0921 
3 1 24 4.4635 0.0114 
3 1 25 13.1147 0.1697 
3 1 26 -22.1475 -0.4346 
3 1 27 -8.9857 -0.2780 
3 3 0 -175.2724 0.2874 
3 3 1 24.4911 -1.1485 
3 3 2 -42.0377 1.0331 
3 3 3 80.5255 -1.5250 
3 3 4 331.2068 1.3072 
3 3 5 -74.0429 -0.7262 
3 3 6 52.2217 1.0541 
3 3 7 82.5077 -0.4091 
3 3 8 -29.7065 -0.0199 
3 3 9 28.9367 -0.2223 
3 3 10 3.3897 0.3033 
3 3 11 -3.1274 0.0309 
3 3 12 25.2577 0.0625 
3 3 13 -2.3947 -0.1891 
3 3 14 -10.5762 0.0153 
3 3 15 -0.3134 -0.3156 
3 3 16 5.2897 0.0248 
3 3 17 12.3854 0.2049 
3 3 18 7.3649 0.1651 
3 3 19 -12.1077 -0.1115 
3 3 20 20.9470 -0.1100 
3 3 21 8.3480 -0.1821 
3 3 22 3.4862 0.1647 
3 3 23 11.0068 -0.0729 
3 3 24 1.7623 0.1584 
3 3 25 -1.1026 -0.0022 
3 3 26 -6.7475 0.1685 
3 3 27 4.9919 0.6666 
3 5 0 -42.1950 0.0099 
3 5 1 209.4138 0.0257 
3 5 2 104.8846 -0.3527 
3 5 3 1.3534 0.3674 
3 5 4 102.8043 1.0736 
3 5 5 -46.4783 -0.6924 
3 5 6 -82.0394 -0.0972 
3 5 7 2.7237 -0.8641 
3 5 8 53.1370 1.1007 
3 5 9 -23.1277 -0.0718 
3 5 10 -28.1201 0.1746 
3 5 11 -20.1893 -0.6752 
3 5 12 -12.6707 0.2341 
3 5 13 -4.1952 -0.0303 
3 5 14 5.5879 0.3520 
3 5 15 8.8315 -0.2780 
3 5 16 -1.1709 0.2613 
3 5 17 -6.0523 -0.3086 
3 5 18 9.3492 0.1439 
3 5 19 -13.4696 -0.2227 
3 5 20 -3.5020 0.1593 
3 5 21 -4.5961 -0.1315 
3 5 22 -19.0780 0.2138 
3 5 23 3.7031 -0.1776 
3 5 24 2.6949 0.0156 
3 5 25 12.7892 -0.1092 
3 5 26 8.1194 0.0092 
3 7 0 -115.6545 0.1112 
3 7 1 116.6826 0.4597 
3 7 2 267.1266 -1.1017 
3 7 3 29.3470 0.1588 
3 7 4 9.3599 0.0970 
3 7 5 86.5758 0.1224 
3 7 6 7.3240 -0.2868 
3 7 7 29.4519 0.1348 
3 7 8 38.2874 0.1449 
3 7 9 -21.9561 -0.1802 
3 7 10 -24.1187 -0.2682 
3 7 11 -18.8346 -0.0822 
3 7 12 -5.1349 0.4136 
3 7 13 -17.8373 0.0913 
3 7 14 8.6166 -0.2137 
3 7 15 8.6378 -0.2925 
3 7 16 16.3388 -0.0229 
3 7 17 -2.2638 0.2228 
3 7 18 -16.9090 0.0300 
3 7 19 -3.6240 0.0105 
3 7 20 -8.8378 -0.1656 
3 7 21 -6.0325 -0.0708 
3 7 22 4.4111 0.2112 
3 7 23 10.7375 0.1242 
3 7 24 -11.9312 -0.1443 
3 7 25 -4.2617 0.1835 
3 7 26 1.6277 -0.1406 
3 9 0 -22.2749 -0.4058 
3 9 1 71.8195 0.1797 
3 9 2 16.9145 0.0761 
3 9 3 -48.3147 0.5992 
3 9 4 -41.7948 -0.0453 
3 9 5 25.6119 -0.1760 
3 9 6 -7.0234 -0.2403 
3 9 7 -5.7172 0.0196 
3 9 8 -18.9985 0.1487 
3 9 9 -31.9697 0.0473 
3 9 10 14.3892 0.1532 
3 9 11 9.2601 -0.1148 
3 9 12 11.2400 -0.0070 
3 9 13 -6.9686 -0.1420 
3 9 14 5.4881 0.0006 
3 9 15 6.0858 0.1614 
3 9 16 21.6187 0.0309 
3 9 17 1.8194 -0.1394 
3 9 18 -17.7444 -0.1320 
3 9 19 -2.9389 0.0590 
3 9 20 4.8622 0.1428 
3 9 21 -7.1376 0.0352 
3 9 22 1.6562 -0.0298 
3 9 23 10.7117 -0.0371 
3 9 24 2.4355 -0.1164 
3 9 25 8.0489 -0.0215 
3 9 26 3.7414 -0.0397 
3 11 0 35.5411 -0.0793 
3 11 1 -17.0282 0.1196 
3 11 2 26.7073 0.1989 
3 11 3 45.9837 -0.4640 
3 11 4 29.9359 -0.4482 
3 11 5 42.8750 -0.0508 
3 11 6 -31.2889 0.7884 
3 11 7 10.3835 -0.0537 
3 11 8 2.0106 0.0162 
3 11 9 0.5614 -0.5925 
3 11 10 35.3333 0.3423 
3 11 11 -27.4941 -0.2622 
3 11 12 -22.4035 0.4189 
3 11 13 -12.5930 -0.3837 
3 11 14 6.7013 0.2110 
3 11 15 -3.7299 -0.2333 
3 11 16 -29.7527 0.2067 
3 11 17 -9.9060 -0.1564 
3 11 18 -2.0743 0.1042 
3 11 19 -16.9809 -0.0372 
3 11 20 -7.4487 0.0701 
3 11 21 -1.4647 -0.1050 
3 11 22 -5.1964 0.0508 
3 11 23 -4.7886 0.0571 
3 11 24 -9.2590 0.0880 
3 11 25 -10.8879 0.0845 
3 13 0 9.8547 -0.3835 
3 13 1 -20.5379 0.2032 
3 13 2 43.6494 0.2853 
3 13 3 22.6858 0.2676 
3 13 4 -20.7429 -0.2028 
3 13 5 -6.8921 0.0593 
3 13 6 2.4565 0.0731 
3 13 7 9.8942 -0.1950 
3 13 8 -2.7403 -0.0783 
3 13 9 -15.7793 0.0122 
3 13 10 -3.4403 0.4329 
3 13 11 -24.8094 -0.2448 
3 13 12 8.7989 -0.0204 
3 13 13 22.9185 -0.2311 
3 13 14 15.4535 0.1970 
3 13 15 0.1377 -0.1339 
3 13 16 -1.9362 0.2168 
3 13 17 23.8284 -0.2440 
3 13 18 12.5985 0.0818 
3 13 19 9.8693 -0.1264 
3 13 20 1.8138 0.1015 
3 13 21 -2.5399 0.1262 
3 13 22 -7.5411 -0.0010 
3 13 23 2.3047 -0.0868 
3 13 24 14.7146 -0.0144 
3 13 25 -13.1879 0.0366 
3 15 0 -19.3699 0.0669 
3 15 1 -14.7720 0.2212 
3 15 2 -4.4270 -0.2632 
3 15 3 -8.3477 -0.1864 
3 15 4 -24.2481 -0.3696 
3 15 5 -19.8240 0.4665 
3 15 6 9.1326 0.0903 
3 15 7 6.2223 0.1426 
3 15 8 -14.5868 -0.3012 
3 15 9 0.3329 0.1892 
3 15 10 17.9645 -0.1377 
3 15 11 -6.1346 -0.0286 
3 15 12 1.6578 -0.0202 
3 15 13 -13.6309 0.2314 
3 15 14 -4.8037 0.0632 
3 15 15 -9.9459 -0.1584 
3 15 16 -22.8078 -0.0113 
3 15 17 4.8456 0.0356 
3 15 18 -5.1767 0.2328 
3 15 19 -12.4604 -0.0585 
3 15 20 4.0772 -0.2127 
3 15 21 -1.4579 0.0673 
3 15 22 -1.1386 0.0763 
3 15 23 1.2982 -0.0422 
3 15 24 4.5453 -0.2110 
3 17 0 -6.3876 -0.0413 
3 17 1 -5.4296 -0.1971 
3 17 2 6.8559 0.1710 
3 17 3 -19.3099 0.0708 
3 17 4 -19.4519 0.2930 
3 17 5 -3.4322 0.0474 
3 17 6 5.4615 -0.2397 
3 17 7 -14.7487 -0.3431 
3 17 8 -3.5051 0.0975 
3 17 9 1.0813 0.3346 
3 17 10 4.5473 0.0139 
3 17 11 0.5602 -0.1509 
3 17 12 7.5158 -0.0708 
3 17 13 -0.7487 0.0744 
3 17 14 1.9417 0.0782 
3 17 15 -2.0116 -0.1241 
3 17 16 10.8664 -0.0237 
3 17 17 19.3683 0.0430 
3 17 18 5.2332 0.0868 
3 17 19 -11.4161 -0.3234 
3 17 20 -1.9283 0.1242 
3 17 21 -9.1163 0.1524 
3 17 22 -1.5071 -0.1139 
3 17 23 6.8870 -0.2373 
3 19 0 8.3474 0.2866 
3 19 1 -6.4253 -0.1132 
3 19 2 22.8630 -0.0015 
3 19 3 11.2412 -0.2106 
3 19 4 9.0625 0.0801 
3 19 5 -3.3723 -0.0404 
3 19 6 -9.9926 0.1418 
3 19 7 -13.3258 0.0919 
3 19 8 2.8152 0.0892 
3 19 9 7.0102 -0.1068 
3 19 10 8.8330 -0.0253 
3 19 11 -14.8164 -0.0684 
3 19 12 -1.5627 0.1502 
3 19 13 -12.9757 0.0678 
3 19 14 -0.4495 0.0899 
3 19 15 11.6799 -0.1494 
3 19 16 9.6336 -0.0164 
3 19 17 -1.1395 0.0365 
3 19 18 6.3607 0.1757 
3 19 19 0.6625 -0.2050 
3 19 20 11.1804 0.4425 
3 19 21 11.6142 -0.0428 
3 19 22 9.2389 0.1070 
3 21 0 39.5332 -0.1212 
3 21 1 13.9510 -0.0390 
3 21 2 12.2431 -0.0201 
3 21 3 -7.4971 0.1455 
3 21 4 6.7758 -0.0326 
3 21 5 0.0360 -0.0434 
3 21 6 -7.7200 -0.1469 
3 21 7 -6.6343 0.1160 
3 21 8 4.4755 -0.0934 
3 21 9 3.0179 0.0391 
3 21 10 6.7740 0.0368 
3 21 11 -6.8551 0.1638 
3 21 12 -12.5425 -0.1225 
3 21 13 -10.8264 -0.0097 
3 21 14 6.3790 -0.1947 
3 21 15 -1.3931 0.2349 
3 21 16 -8.9476 -0.0340 
3 21 17 -5.9226 0.1677 
3 21 18 6.0988 -0.2211 
3 21 19 2.4647 -0.1597 
3 21 20 2.1639 0.1952 
3 21 21 -1.1741 -0.2435 
3 23 0 6.5504 0.0091 
3 23 1 7.8978 0.1154 
3 23 2 25.3269 -0.0938 
3 23 3 1.2971 0.0130 
3 23 4 17.4698 -0.0632 
3 23 5 0.1271 -0.0616 
3 23 6 -11.3293 0.0439 
3 23 7 7.1512 0.2880 
3 23 8 6.2859 -0.0519 
3 23 9 -6.5992 -0.1569 
3 23 10 5.6163 -0.1814 
3 23 11 -1.1687 0.2424 
3 23 12 3.0913 -0.0907 
3 23 13 -0.1697 -0.0600 
3 23 14 2.0494 -0.0523 
3 23 15 3.6623 0.1700 
3 23 16 5.8114 -0.0089 
3 23 17 0.9660 0.0825 
3 23 18 -2.2538 -0.2649 
3 23 19 -1.5172 1.1238 
3 25 0 -6.3556 0.0210 
3 25 1 8.0271 -0.0998 
3 25 2 8.5321 0.0193 
3 25 3 -7.1240 0.1047 
3 25 4 1.5276 0.1485 
3 25 5 -2.2838 -0.2459 
3 25 6 9.4474 -0.0172 
3 25 7 1.7677 -0.0317 
3 25 8 2.2812 0.0907 
3 25 9 -6.6886 -0.0840 
3 25 10 5.8706 0.0286 
3 25 11 7.7616 0.0914 
3 25 12 0.4685 0.1226 
3 25 13 -12.7295 -0.0758 
3 25 14 5.0158 0.1612 
3 25 15 -9.9555 -0.0037 
3 25 16 0.2101 -0.0283 
3 25 17 8.8361 -0.3653 
3 25 18 -5.1620 0.1056 
3 27 0 -2.6583 0.0264 
3 27 1 -2.7102 0.0702 
3 27 2 -4.0066 -0.1122 
3 27 3 10.8455 -0.0203 
3 27 4 13.0209 0.0511 
3 27 5 -15.3543 0.0029 
3 27 6 -0.0318 -0.0810 
3 27 7 -4.5272 0.0253 
3 27 8 0.3025 -0.0302 
3 27 9 3.0213 -0.0515 
3 27 10 -3.7593 -0.1173 
3 27 11 -16.2355 -0.0110 
3 27 12 2.4911 0.0451 
3 27 13 -9.4851 -0.1682 
3 27 14 3.2273 0.3587 
3 27 15 3.4561 -0.4557 
3 29 0 8.1759 0.0311 
3 29 1 -0.4796 0.0132 
3 29 2 -5.8446 -0.1036 
3 29 3 -1.4166 0.1151 
3 29 4 5.3087 0.0392 
3 29 5 4.4533 0.1602 
3 29 6 18.2882 -0.2664 
3 29 7 8.0202 0.2411 
3 29 8 -10.5828 -0.1249 
3 29 9 5.5107 0.1224 
3 29 10 0.8006 0.0080 
3 29 11 -5.6289 0.1168 
3 29 12 -4.3651 -0.2184 
3 29 13 -5.1043 0.1010 
3 31 0 -7.0401 0.1819 
3 31 1 -6.5710 -0.1862 
3 31 2 2.1896 0.2117 
3 31 3 0.3350 -0.1204 
3 31 4 7.2638 0.0047 
3 31 5 -1.6807 0.0567 
3 31 6 1.3068 0.0097 
3 31 7 -3.7159 0.0301 
3 31 8 -5.0925 -0.3347 
3 31 9 8.4647 0.2643 
3 31 10 -0.6025 0.0105 
3 33 0 -5.3233 0.2152 
3 33 1 3.3004 0.1039 
3 33 2 12.6813 0.3666 
3 33 3 -0.7711 -0.4342 
4 0 0 85.8049 -1.1162 
4 0 1 -227.2790 8.8573 
4 0 2 -43.5093 0.8273 
4 0 3 144.1125 0.5216 
4 0 4 -44.5151 -3.2663 
4 0 5 -170.4288 -0.0894 
4 0 6 15.1724 -0.7484 
4 0 7 12.5477 2.0036 
4 0 8 -23.3058 -1.0082 
4 0 9 32.1210 0.3922 
4 0 10 -3.9787 -1.8338 
4 0 11 -5.7538 2.5949 
4 0 12 30.3891 -0.3055 
4 0 13 -14.7081 0.7588 
4 0 14 -26.9228 -1.5819 
4 0 15 -20.5895 1.3222 
4 0 16 -3.5861 -1.3832 
4 0 17 -25.7937 -0.0540 
4 0 18 -18.6828 -0.4235 
4 0 19 -21.7783 2.5736 
4 0 20 -17.0469 0.1458 
4 0 21 4.6806 -0.8252 
4 0 22 12.2579 -2.3639 
4 0 23 -4.6163 0.7655 
4 0 24 -22.1607 1.2347 
4 0 25 17.1616 1.1577 
4 0 26 -2.5015 -1.1859 
4 0 27 -0.2882 -0.3536 
4 2 0 -74.8297 -1.0713 
4 2 1 114.0755 0.7956 
4 2 2 -58.7512 -1.9518 
4 2 3 -213.1004 -0.8897 
4 2 4 -94.8668 0.8395 
4 2 5 -174.1387 0.9755 
4 2 6 -67.0345 -0.6431 
4 2 7 28.6240 -0.4699 
4 2 8 -1.6432 -0.2336 
4 2 9 -6.9231 0.3191 
4 2 10 -4.7999 -0.3445 
4 2 11 -8.5146 0.7210 
4 2 12 26.5254 -0.3659 
4 2 13 -22.7055 -0.4643 
4 2 14 3.7490 -0.7873 
4 2 15 7.1638 1.2181 
4 2 16 -18.1931 0.3761 
4 2 17 16.0831 -0.0252 
4 2 18 11.6490 -1.1596 
4 2 19 -5.3690 0.3032 
4 2 20 7.0819 0.0384 
4 2 21 -5.0009 0.5862 
4 2 22 0.4139 -0.4674 
4 2 23 -3.2459 0.3932 
4 2 24 -9.2557 -0.1829 
4 2 25 33.3154 -0.3530 
4 2 26 7.8655 -0.1022 
4 2 27 -6.0696 0.1575 
4 4 0 -192.8003 0.1035 
4 4 1 137.7550 0.4295 
4 4 2 -18.3129 0.4092 
4 4 3 -146.5188 -0.1198 
4 4 4 140.5060 0.6054 
4 4 5 7.2469 -0.9461 
4 4 6 -60.1928 -0.3090 
4 4 7 -5.3196 0.0169 
4 4 8 -19.6458 1.0479 
4 4 9 -13.6244 -0.2275 
4 4 10 16.7569 -0.5704 
4 4 11 3.2606 -0.3092 
4 4 12 9.6797 0.6983 
4 4 13 -17.4426 0.2452 
4 4 14 -6.8736 -0.2587 
4 4 15 2.8871 -0.5590 
4 4 16 -13.1252 0.0676 
4 4 17 14.9522 0.0237 
4 4 18 8.9039 0.1789 
4 4 19 -15.0409 0.1507 
4 4 20 -3.3812 -0.0106 
4 4 21 -5.7977 -0.2772 
4 4 22 7.9997 -0.2666 
4 4 23 11.2937 0.0575 
4 4 24 0.1259 0.3452 
4 4 25 15.9449 -0.0057 
4 4 26 -4.2901 0.3232 
4 6 0 -2.7327 -0.6211 
4 6 1 -176.5205 -0.8649 
4 6 2 -41.9864 -0.5534 
4 6 3 -98.9917 0.5530 
4 6 4 131.6250 0.1296 
4 6 5 -12.4251 0.4296 
4 6 6 -12.0041 -0.3664 
4 6 7 46.5192 -0.0786 
4 6 8 -32.6319 -0.0743 
4 6 9 1.4394 0.1986 
4 6 10 -22.3431 -0.2726 
4 6 11 -27.3061 -0.0521 
4 6 12 4.2257 0.0022 
4 6 13 -5.3788 0.0567 
4 6 14 0.4634 -0.1058 
4 6 15 -4.8218 -0.1111 
4 6 16 -4.0406 0.1233 
4 6 17 10.8320 0.2964 
4 6 18 5.3774 -0.2447 
4 6 19 -11.2581 -0.2826 
4 6 20 -4.4083 -0.1217 
4 6 21 -6.0827 0.2033 
4 6 22 -2.6469 0.3300 
4 6 23 1.4594 0.0167 
4 6 24 -20.9937 -0.2058 
4 6 25 4.8941 -0.0229 
4 6 26 -1.7691 -0.0653 
4 8 0 -79.7745 -0.3604 
4 8 1 56.5545 0.6829 
4 8 2 76.0726 0.0696 
4 8 3 -22.7746 0.4961 
4 8 4 116.7917 -0.6458 
4 8 5 -60.2003 0.2736 
4 8 6 42.3299 -0.4373 
4 8 7 13.8381 0.3985 
4 8 8 -18.5831 -0.4369 
4 8 9 33.6359 0.5288 
4 8 10 4.0144 -0.4557 
4 8 11 11.7777 0.3090 
4 8 12 -3.4835 -0.3633 
4 8 13 -4.7231 0.4184 
4 8 14 16.8287 -0.1459 
4 8 15 -13.6688 0.0167 
4 8 16 1.1883 -0.4293 
4 8 17 6.6972 0.1816 
4 8 18 8.0375 -0.0592 
4 8 19 8.2449 0.1155 
4 8 20 26.3342 -0.0431 
4 8 21 5.2185 -0.0342 
4 8 22 2.3108 0.0412 
4 8 23 19.5831 -0.0965 
4 8 24 -4.6198 -0.1859 
4 8 25 -1.2496 0.3089 
4 8 26 -10.7798 -0.8679 
4 10 0 -91.8329 -0.0132 
4 10 1 26.2951 0.0752 
4 10 2 -6.3633 -0.0918 
4 10 3 -61.1260 0.1198 
4 10 4 29.7289 -0.4285 
4 10 5 -12.3833 0.3474 
4 10 6 23.8530 0.1446 
4 10 7 -36.7783 0.2131 
4 10 8 -2.2959 -0.3884 
4 10 9 -4.6535 0.1022 
4 10 10 -3.2987 0.1037 
4 10 11 3.0800 0.2654 
4 10 12 -17.3454 -0.3177 
4 10 13 -3.8498 -0.0451 
4 10 14 18.9037 -0.0322 
4 10 15 0.4877 0.2212 
4 10 16 12.9564 -0.0796 
4 10 17 -1.1239 -0.0533 
4 10 18 24.5533 0.0907 
4 10 19 14.2275 -0.0760 
4 10 20 14.1261 -0.0765 
4 10 21 1.6940 0.1868 
4 10 22 -6.5569 -0.0209 
4 10 23 0.3783 -0.1155 
4 10 24 -0.4233 0.1612 
4 10 25 -6.2544 -0.3321 
4 12 0 -37.8265 -0.0057 
4 12 1 18.8451 0.1851 
4 12 2 7.5247 0.3503 
4 12 3 -9.7176 -0.0582 
4 12 4 21.4063 -0.4756 
4 12 5 -58.3467 0.0044 
4 12 6 -20.6113 0.2532 
4 12 7 -31.4074 0.0549 
4 12 8 7.1944 -0.2721 
4 12 9 5.5327 0.0019 
4 12 10 -3.4045 0.2351 
4 12 11 6.5373 0.0495 
4 12 12 -4.3109 -0.2055 
4 12 13 -13.5847 -0.1443 
4 12 14 9.3483 0.1751 
4 12 15 -9.6559 0.0240 
4 12 16 10.1417 -0.1667 
4 12 17 10.9787 -0.1765 
4 12 18 3.8151 0.0914 
4 12 19 -7.2060 0.0402 
4 12 20 -10.0904 -0.0312 
4 12 21 -6.9107 0.0401 
4 12 22 -4.5664 -0.1159 
4 12 23 0.4886 -0.0342 
4 12 24 -0.4373 0.0698 
4 12 25 -7.9391 0.0899 
4 14 0 1.5240 -0.0159 
4 14 1 16.4555 0.0115 
4 14 2 8.0391 -0.0320 
4 14 3 -22.3988 0.0192 
4 14 4 16.7578 -0.1422 
4 14 5 8.4755 0.2880 
4 14 6 -3.8684 -0.0950 
4 14 7 -15.2914 0.2064 
4 14 8 7.1321 -0.3024 
4 14 9 12.3171 0.2283 
4 14 10 -4.3273 -0.0691 
4 14 11 -6.8054 0.1236 
4 14 12 -3.3736 -0.2181 
4 14 13 -7.5534 0.2047 
4 14 14 -1.2372 -0.0806 
4 14 15 -9.0539 0.1167 
4 14 16 7.9335 -0.1713 
4 14 17 1.5384 0.2177 
4 14 18 -5.3855 0.0095 
4 14 19 10.2470 0.0201 
4 14 20 8.0841 -0.0661 
4 14 21 -4.4191 0.1041 
4 14 22 -0.1711 -0.1095 
4 14 23 8.4135 0.2342 
4 14 24 14.5534 -0.2253 
4 16 0 -10.4550 0.0312 
4 16 1 0.5840 -0.2318 
4 16 2 11.8428 -0.0064 
4 16 3 1.0195 -0.0303 
4 16 4 24.9023 0.1308 
4 16 5 10.2733 -0.1085 
4 16 6 -1.8708 -0.1279 
4 16 7 -8.5392 -0.0134 
4 16 8 12.2731 0.0081 
4 16 9 13.8983 0.1048 
4 16 10 -5.7740 -0.0680 
4 16 11 1.7200 0.0046 
4 16 12 -3.1540 -0.1805 
4 16 13 3.6777 0.3246 
4 16 14 5.0360 -0.1848 
4 16 15 0.6103 0.0779 
4 16 16 12.6862 -0.2059 
4 16 17 -2.0557 0.2316 
4 16 18 -4.5418 -0.0020 
4 16 19 -3.3367 -0.0521 
4 16 20 8.4571 -0.0726 
4 16 21 1.2475 0.0736 
4 16 22 -4.1516 -0.2827 
4 16 23 -0.6733 0.3786 
4 18 0 12.5558 0.0567 
4 18 1 2.0157 -0.1746 
4 18 2 4.6877 0.0831 
4 18 3 -3.8919 -0.1343 
4 18 4 2.6875 0.3312 
4 18 5 -13.3574 -0.2721 
4 18 6 4.6005 0.1153 
4 18 7 7.8648 -0.1792 
4 18 8 16.5844 0.2580 
4 18 9 1.5961 -0.1852 
4 18 10 14.6813 0.0416 
4 18 11 -8.0390 -0.1625 
4 18 12 -5.5222 0.1603 
4 18 13 -0.2795 0.0069 
4 18 14 5.4560 -0.0031 
4 18 15 -3.7258 -0.1647 
4 18 16 -3.9321 0.0916 
4 18 17 -6.8673 0.2399 
4 18 18 -5.1484 -0.0881 
4 18 19 -7.9494 -0.0799 
4 18 20 5.6404 0.0832 
4 18 21 -10.5455 -0.0712 
4 18 22 4.6706 0.2648 
4 20 0 -0.8128 0.0539 
4 20 1 -1.6885 -0.0462 
4 20 2 4.8749 -0.0522 
4 20 3 -11.1890 -0.0171 
4 20 4 -3.5223 0.0987 
4 20 5 8.0745 -0.1328 
4 20 6 6.3989 0.0408 
4 20 7 6.9556 -0.0487 
4 20 8 13.8177 0.0501 
4 20 9 -13.8480 -0.0436 
4 20 10 5.0515 0.0924 
4 20 11 -11.6591 0.0158 
4 20 12 14.9318 0.0322 
4 20 13 8.7369 -0.1043 
4 20 14 1.0151 0.0676 
4 20 15 -12.6431 0.0117 
4 20 16 0.5199 0.2494 
4 20 17 3.2725 -0.1748 
4 20 18 5.4395 -0.1878 
4 20 19 -11.2855 0.1698 
4 20 20 1.0225 0.1399 
4 20 21 2.4705 -0.1547 
4 22 0 -5.3405 0.0003 
4 22 1 15.7485 0.1190 
4 22 2 14.7233 0.0072 
4 22 3 -13.4264 -0.0073 
4 22 4 14.5338 -0.2072 
4 22 5 5.5294 -0.0397 
4 22 6 -11.5792 0.0771 
4 22 7 6.0299 0.1031 
4 22 8 4.1935 -0.1029 
4 22 9 -4.7182 -0.0554 
4 22 10 15.8397 -0.0730 
4 22 11 -4.2502 0.1426 
4 22 12 18.8400 -0.0991 
4 22 13 8.0174 -0.0745 
4 22 14 -1.3328 -0.0744 
4 22 15 1.3190 0.1208 
4 22 16 -1.3150 0.0071 
4 22 17 -10.0181 0.0475 
4 22 18 4.5786 -0.0984 
4 22 19 -1.4155 0.3757 
4 22 20 3.5541 -0.4753 
4 24 0 7.3081 0.0784 
4 24 1 16.2843 -0.0627 
4 24 2 12.9468 0.1364 
4 24 3 5.6829 -0.0960 
4 24 4 -4.1389 0.0983 
4 24 5 -15.0709 -0.0316 
4 24 6 4.5470 0.0421 
4 24 7 -4.0088 0.0027 
4 24 8 -0.9310 0.1558 
4 24 9 -6.7563 -0.1335 
4 24 10 7.3819 0.0445 
4 24 11 13.8481 -0.0138 
4 24 12 0.1561 -0.0271 
4 24 13 -11.2894 -0.0965 
4 24 14 5.2150 0.0501 
4 24 15 -1.9505 0.1360 
4 24 16 -8.3601 0.0891 
4 24 17 -11.3369 -0.0143 
4 24 18 -2.3284 -0.3954 
4 26 0 9.0520 0.2852 
4 26 1 -2.6855 -0.0699 
4 26 2 -5.5024 0.0512 
4 26 3 -12.7784 -0.1872 
4 26 4 -0.7459 0.2131 
4 26 5 2.9985 -0.1295 
4 26 6 6.9799 0.0104 
4 26 7 -8.5727 -0.0829 
4 26 8 15.3179 0.1918 
4 26 9 -19.9793 -0.2882 
4 26 10 -8.1997 0.0760 
4 26 11 -6.1106 -0.1307 
4 26 12 -1.9637 0.2331 
4 26 13 -11.6843 0.0822 
4 26 14 -9.9243 0.0148 
4 26 15 -1.1040 0.1436 
4 26 16 -5.2389 0.1398 
4 28 0 -6.5570 0.0222 
4 28 1 -1.3511 -0.0780 
4 28 2 -0.6198 -0.1102 
4 28 3 6.3130 0.0405 
4 28 4 6.1488 0.2063 
4 28 5 4.7556 0.0191 
4 28 6 -5.1324 -0.1488 
4 28 7 -26.1159 -0.0872 
4 28 8 6.9187 0.1390 
4 28 9 -10.1567 0.0891 
4 28 10 0.3957 -0.0287 
4 28 11 7.3352 -0.0669 
4 28 12 6.5437 -0.0813 
4 28 13 -7.3214 0.0730 
4 28 14 2.9604 0.0893 
4 30 0 3.4417 0.0913 
4 30 1 -4.0519 0.0722 
4 30 2 -16.8175 0.0345 
4 30 3 -7.8645 -0.0937 
4 30 4 -0.8779 0.2028 
4 30 5 3.9226 -0.0700 
4 30 6 8.2073 -0.0104 
4 30 7 -2.9361 0.0919 
4 30 8 -5.7730 0.0497 
4 30 9 -5.9789 -0.0894 
4 30 10 7.7733 0.2591 
4 30 11 11.2861 0.3172 
4 32 0 -13.5792 0.1035 
4 32 1 0.7014 -0.1584 
4 32 2 -8.4505 0.1438 
4 32 3 -2.2853 -0.3255 
4 32 4 5.8607 0.2471 
4 32 5 -4.7491 -0.2109 
4 32 6 -3.2494 0.1437 
4 32 7 -5.2809 -0.2238 
5 1 0 28.9424 -0.5725 
5 1 1 -94.3241 1.3286 
5 1 2 103.9986 -0.0654 
5 1 3 -41.5460 0.6677 
5 1 4 115.0507 -1.1541 
5 1 5 36.0858 0.7104 
5 1 6 -22.2729 1.1249 
5 1 7 30.0286 0.2221 
5 1 8 19.4501 -1.4930 
5 1 9 21.9446 -0.3227 
5 1 10 11.9033 0.7363 
5 1 11 29.1281 0.7071 
5 1 12 -0.9624 -0.9581 
5 1 13 -19.8792 -0.3043 
5 1 14 -16.3897 0.1747 
5 1 15 -23.0652 1.1158 
5 1 16 -10.2228 -0.6034 
5 1 17 -12.9910 -0.2697 
5 1 18 14.3584 -0.4757 
5 1 19 -4.7476 0.7919 
5 1 20 4.1711 -0.2305 
5 1 21 -1.0620 0.0743 
5 1 22 -6.9919 -0.4520 
5 1 23 2.8118 0.8072 
5 1 24 -16.2779 -0.1072 
5 1 25 -0.6533 -0.0189 
5 1 26 -4.7715 -0.4636 
5 3 0 -67.9393 0.9867 
5 3 1 -105.6251 -0.0085 
5 3 2 -46.9440 0.6903 
5 3 3 -139.2081 -0.9369 
5 3 4 -211.2131 0.2404 
5 3 5 -134.9242 -1.0310 
5 3 6 29.0253 0.7545 
5 3 7 -62.1630 -0.6123 
5 3 8 13.5999 0.6854 
5 3 9 59.0628 -0.6777 
5 3 10 -24.8666 0.3941 
5 3 11 -25.7677 -0.5281 
5 3 12 2.4432 0.3508 
5 3 13 2.0741 -0.2194 
5 3 14 15.6819 0.3429 
5 3 15 -2.1836 -0.3283 
5 3 16 -4.9869 -0.0661 
5 3 17 6.0747 -0.2386 
5 3 18 2.2893 0.2186 
5 3 19 -8.5604 -0.0852 
5 3 20 -6.5360 0.2126 
5 3 21 -3.9385 -0.1470 
5 3 22 6.9211 0.0165 
5 3 23 4.7990 -0.2117 
5 3 24 -0.2528 0.0040 
5 3 25 -3.6398 0.1532 
5 3 26 5.6809 -0.0687 
5 5 0 236.4912 -0.4445 
5 5 1 -118.1468 0.0640 
5 5 2 -197.2170 -0.2944 
5 5 3 -134.3871 -0.1295 
5 5 4 7.6901 0.9432 
5 5 5 34.8145 -0.1040 
5 5 6 -8.7501 0.3116 
5 5 7 -22.7173 -0.8670 
5 5 8 23.5244 0.8196 
5 5 9 31.1812 -0.5555 
5 5 10 34.6242 0.3874 
5 5 11 -8.4413 -0.2697 
5 5 12 -28.4465 0.4861 
5 5 13 -16.0217 -0.3366 
5 5 14 1.8192 -0.0554 
5 5 15 13.9559 -0.4540 
5 5 16 -14.6389 0.4905 
5 5 17 -9.9810 0.0315 
5 5 18 3.2420 0.3058 
5 5 19 -8.2119 -0.5980 
5 5 20 8.8283 -0.0496 
5 5 21 7.8416 0.0111 
5 5 22 3.1316 0.3577 
5 5 23 -1.0253 -0.0467 
5 5 24 -1.9115 0.0258 
5 5 25 -2.3552 -0.0625 
5 5 26 4.4207 0.2341 
5 7 0 -41.5425 -0.2915 
5 7 1 -112.1571 -0.0762 
5 7 2 15.4323 -0.3249 
5 7 3 69.2818 0.4562 
5 7 4 89.2365 -0.1435 
5 7 5 -20.5184 0.0456 
5 7 6 -6.5813 -0.4514 
5 7 7 48.6483 0.1016 
5 7 8 48.1999 0.4592 
5 7 9 25.2413 0.1087 
5 7 10 4.2663 -0.5428 
5 7 11 4.7479 -0.4813 
5 7 12 13.6690 0.3217 
5 7 13 -19.4656 0.2882 
5 7 14 -15.7909 0.1158 
5 7 15 -10.1728 -0.3083 
5 7 16 -10.5639 -0.0808 
5 7 17 0.8129 -0.0208 
5 7 18 5.5140 -0.0629 
5 7 19 1.6454 -0.0161 
5 7 20 10.6238 -0.0189 
5 7 21 -4.3100 0.2475 
5 7 22 1.5559 -0.0796 
5 7 23 11.0572 -0.1847 
5 7 24 -5.0439 -0.0399 
5 7 25 -3.3768 0.0529 
5 7 26 1.2731 -0.5098 
5 9 0 29.1704 0.1609 
5 9 1 56.8617 -0.2977 
5 9 2 -24.3029 0.2135 
5 9 3 2.1637 0.1643 
5 9 4 -18.4964 -0.1173 
5 9 5 -8.8730 0.2848 
5 9 6 37.9825 -0.0389 
5 9 7 8.2667 -0.1282 
5 9 8 3.6536 -0.3605 
5 9 9 13.0529 0.2479 
5 9 10 15.3473 0.2099 
5 9 11 -1.6123 0.1295 
5 9 12 2.4228 0.0888 
5 9 13 -5.1258 -0.2612 
5 9 14 2.2117 -0.1152 
5 9 15 3.7070 -0.0021 
5 9 16 18.4921 0.1343 
5 9 17 -4.3863 0.1175 
5 9 18 -11.3070 -0.0147 
5 9 19 -8.2719 -0.0103 
5 9 20 6.0115 -0.0810 
5 9 21 -21.7379 0.0217 
5 9 22 -6.9244 0.0114 
5 9 23 3.6392 -0.0311 
5 9 24 -8.7508 -0.0027 
5 9 25 8.6790 0.1120 
5 11 0 -58.2213 0.1687 
5 11 1 -16.3137 -0.2068 
5 11 2 14.1171 0.4993 
5 11 3 49.4265 -0.2742 
5 11 4 45.1102 -0.1398 
5 11 5 22.1421 -0.2819 
5 11 6 -2.9488 0.3197 
5 11 7 16.0875 -0.0326 
5 11 8 17.1013 0.0941 
5 11 9 4.9909 -0.1533 
5 11 10 3.2274 0.2537 
5 11 11 -9.8291 -0.2717 
5 11 12 11.0758 0.1008 
5 11 13 -9.4882 -0.2811 
5 11 14 -0.8324 0.4532 
5 11 15 4.7261 0.0339 
5 11 16 11.7846 -0.1200 
5 11 17 1.7505 -0.4012 
5 11 18 2.9154 0.1341 
5 11 19 1.2044 0.0863 
5 11 20 -1.5686 0.1234 
5 11 21 -13.2794 -0.0608 
5 11 22 3.4643 -0.0189 
5 11 23 -2.5493 -0.3431 
5 11 24 -12.1811 0.0783 
5 11 25 -3.8417 0.0234 
5 13 0 8.2795 -0.0477 
5 13 1 30.9161 -0.0601 
5 13 2 15.7797 0.1604 
5 13 3 -3.2009 -0.0240 
5 13 4 6.6107 -0.1351 
5 13 5 19.5604 -0.0226 
5 13 6 -0.4842 0.2153 
5 13 7 17.3750 -0.0077 
5 13 8 20.2951 -0.3377 
5 13 9 -13.9387 -0.1497 
5 13 10 -1.2777 0.3549 
5 13 11 -1.0055 0.2344 
5 13 12 4.7185 -0.1595 
5 13 13 -6.5790 -0.2733 
5 13 14 4.6051 0.0895 
5 13 15 -4.8561 0.0475 
5 13 16 4.1322 -0.0344 
5 13 17 -19.2878 -0.0703 
5 13 18 -35.9887 0.3493 
5 13 19 14.0139 -0.1268 
5 13 20 18.6046 -0.0379 
5 13 21 1.3771 -0.0839 
5 13 22 4.3654 -0.0528 
5 13 23 -6.9366 -0.0566 
5 13 24 0.7587 0.4750 
5 15 0 13.2459 -0.1185 
5 15 1 -6.7202 0.0195 
5 15 2 -11.2287 0.0987 
5 15 3 6.9248 0.2215 
5 15 4 9.9136 -0.1947 
5 15 5 3.3291 -0.1144 
5 15 6 -0.7896 -0.0589 
5 15 7 28.5586 0.3766 
5 15 8 9.7528 -0.1734 
5 15 9 5.7148 0.1967 
5 15 10 12.4684 -0.2411 
5 15 11 4.1356 0.1516 
5 15 12 1.6660 -0.2725 
5 15 13 -17.5255 0.2384 
5 15 14 6.1884 0.1130 
5 15 15 5.9744 0.0544 
5 15 16 -2.4331 -0.2427 
5 15 17 6.0850 0.0594 
5 15 18 -0.9840 0.0934 
5 15 19 8.5136 -0.0658 
5 15 20 8.7852 0.0396 
5 15 21 -10.1416 0.1019 
5 15 22 4.8192 -0.0203 
5 15 23 -5.6236 0.0781 
5 17 0 9.1897 0.2042 
5 17 1 9.8699 -0.2921 
5 17 2 15.1035 -0.1973 
5 17 3 -0.5716 -0.0299 
5 17 4 0.5560 0.1719 
5 17 5 -8.5271 -0.1235 
5 17 6 -2.6383 0.0219 
5 17 7 -1.5005 -0.1316 
5 17 8 -5.1745 -0.0181 
5 17 9 -0.6245 -0.1438 
5 17 10 -0.9234 0.0597 
5 17 11 -8.7883 0.0755 
5 17 12 3.7135 -0.0117 
5 17 13 -7.1963 -0.0284 
5 17 14 -1.3948 -0.1662 
5 17 15 -6.5011 -0.1038 
5 17 16 -14.4010 0.1258 
5 17 17 -12.5653 0.1814 
5 17 18 -14.9524 0.0639 
5 17 19 -0.7748 -0.1277 
5 17 20 15.8871 0.0825 
5 17 21 -14.7001 -0.1076 
5 17 22 -8.4691 -0.3183 
5 19 0 -5.9292 -0.0345 
5 19 1 -7.8094 0.0378 
5 19 2 7.7906 0.0803 
5 19 3 2.3047 0.0782 
5 19 4 0.0382 0.1496 
5 19 5 -13.5877 -0.1619 
5 19 6 12.5608 -0.0384 
5 19 7 4.6538 -0.0247 
5 19 8 -10.6867 0.3284 
5 19 9 13.4608 -0.0734 
5 19 10 12.2490 0.0080 
5 19 11 -1.3657 -0.2373 
5 19 12 27.3343 0.1018 
5 19 13 0.3799 -0.0740 
5 19 14 -0.3889 0.2464 
5 19 15 -0.3752 -0.1603 
5 19 16 -2.5476 0.2034 
5 19 17 5.3382 -0.1191 
5 19 18 5.8138 -0.0330 
5 19 19 -2.7968 -0.0356 
5 19 20 9.2900 0.1448 
5 19 21 2.8658 -0.3898 
5 21 0 10.9264 -0.0009 
5 21 1 -12.3308 0.2178 
5 21 2 -6.7413 -0.2678 
5 21 3 0.5953 -0.0131 
5 21 4 -4.6845 -0.0407 
5 21 5 -3.4058 0.2090 
5 21 6 9.1549 -0.1188 
5 21 7 -13.0175 -0.0077 
5 21 8 -6.2481 -0.1182 
5 21 9 13.6728 -0.0423 
5 21 10 7.2833 -0.0042 
5 21 11 -4.9722 0.1599 
5 21 12 -2.8054 0.0502 
5 21 13 -1.5671 -0.0357 
5 21 14 12.5603 -0.1336 
5 21 15 -4.8513 -0.0914 
5 21 16 -4.9935 0.2502 
5 21 17 0.1050 0.0010 
5 21 18 4.3293 -0.1023 
5 21 19 -4.6052 0.0517 
5 21 20 -4.8255 0.2699 
5 23 0 5.9592 -0.1672 
5 23 1 -9.1147 0.3054 
5 23 2 -18.1226 0.0038 
5 23 3 -5.9628 0.0641 
5 23 4 6.5891 -0.1801 
5 23 5 -2.5762 0.0484 
5 23 6 3.3426 -0.0843 
5 23 7 1.1492 0.1148 
5 23 8 -2.5761 0.0000 
5 23 9 2.0008 0.1511 
5 23 10 -2.0655 -0.1163 
5 23 11 -15.3418 0.0174 
5 23 12 -3.6447 -0.2166 
5 23 13 -1.9138 0.0515 
5 23 14 -8.0333 -0.0416 
5 23 15 -0.1499 0.0877 
5 23 16 8.2256 0.1377 
5 23 17 -3.9942 -0.2827 
5 23 18 3.8930 -0.4954 
5 23 19 0.0240 0.4817 
5 25 0 4.1630 0.0904 
5 25 1 5.2839 -0.0191 
5 25 2 5.5347 -0.0479 
5 25 3 2.2078 -0.1444 
5 25 4 0.7486 0.0583 
5 25 5 -2.8926 0.1421 
5 25 6 7.9810 0.0997 
5 25 7 -4.2271 -0.0542 
5 25 8 -3.2109 0.0369 
5 25 9 -3.5136 -0.0869 
5 25 10 -1.9483 -0.0183 
5 25 11 -6.1312 0.0503 
5 25 12 1.7424 0.0353 
5 25 13 12.6697 0.0210 
5 25 14 12.4631 -0.1108 
5 25 15 -7.7355 0.1147 
5 25 16 4.4567 0.1274 
5 25 17 1.7414 0.1926 
5 27 0 4.2632 -0.0287 
5 27 1 0.7266 0.0434 
5 27 2 11.8856 -0.1436 
5 27 3 -4.3421 0.0910 
5 27 4 -0.9834 0.0483 
5 27 5 -6.9719 -0.0529 
5 27 6 10.0849 -0.1798 
5 27 7 9.2772 -0.0600 
5 27 8 -4.6342 0.1196 
5 27 9 1.0750 -0.0417 
5 27 10 1.8265 -0.0075 
5 27 11 -14.6043 -0.0381 
5 27 12 13.7601 -0.0685 
5 27 13 -0.6466 0.3238 
5 27 14 -5.6102 -0.0927 
5 27 15 -1.9002 0.3636 
5 29 0 3.9338 -0.0934 
5 29 1 3.7195 0.1208 
5 29 2 21.6428 -0.1545 
5 29 3 -10.9578 0.1584 
5 29 4 -11.4069 -0.0624 
5 29 5 -8.3640 0.1468 
5 29 6 -2.3258 -0.0303 
5 29 7 -1.2458 0.0484 
5 29 8 -6.3807 -0.0913 
5 29 9 3.1035 0.0458 
5 29 10 -5.0805 -0.0860 
5 29 11 -5.1251 -0.0018 
5 29 12 2.5834 0.1022 
5 31 0 -11.4202 -0.0370 
5 31 1 -9.9281 -0.0214 
5 31 2 19.1476 0.0941 
5 31 3 -3.8702 -0.0949 
5 31 4 -5.2070 0.0010 
5 31 5 -6.4073 0.1055 
5 31 6 -2.6273 -0.0639 
5 31 7 2.0678 -0.3336 
5 31 8 5.9691 0.0050 
5 31 9 0.0858 0.2693 
5 33 0 -3.3148 0.0118 
5 33 1 4.1964 0.1491 
5 33 2 11.1431 0.4321 
6 0 0 96.2409 -6.0506 
6 0 1 -2.1183 7.4275 
6 0 2 145.9724 0.6073 
6 0 3 17.2362 1.2530 
6 0 4 -129.3980 -1.6662 
6 0 5 -52.5157 2.3252 
6 0 6 -39.9955 -2.5640 
6 0 7 -58.5835 -0.9274 
6 0 8 37.3769 -1.1830 
6 0 9 24.7171 5.3826 
6 0 10 5.6851 1.0623 
6 0 11 -0.5321 0.1331 
6 0 12 -24.2084 -4.0351 
6 0 13 -27.5462 -0.0789 
6 0 14 4.6108 0.0517 
6 0 15 -1.0102 2.0594 
6 0 16 4.1109 0.0412 
6 0 17 1.6014 0.1768 
6 0 18 6.0771 -1.0335 
6 0 19 -4.8154 0.5806 
6 0 20 12.3824 0.1155 
6 0 21 4.6177 0.2438 
6 0 22 15.7745 -1.1440 
6 0 23 2.9959 0.1485 
6 0 24 -16.9082 0.2030 
6 0 25 -3.5191 1.0547 
6 0 26 -1.2582 -0.6620 
6 2 0 -136.6473 0.2129 
6 2 1 68.9517 1.7926 
6 2 2 14.7617 -1.2265 
6 2 3 71.7924 -1.2082 
6 2 4 96.6196 -1.4429 
6 2 5 62.5129 2.6121 
6 2 6 -8.5551 0.8130 
6 2 7 -31.7535 0.0178 
6 2 8 17.5111 -1.4513 
6 2 9 -26.5699 0.0663 
6 2 10 1.6321 -0.4758 
6 2 11 -1.3772 0.1443 
6 2 12 -14.2024 0.1772 
6 2 13 -20.4326 1.0746 
6 2 14 10.6124 -0.1000 
6 2 15 -18.4204 -0.5917 
6 2 16 -15.0494 -0.4454 
6 2 17 6.8142 0.2215 
6 2 18 -2.3207 -0.0087 
6 2 19 -4.1279 -0.0260 
6 2 20 11.9934 0.0384 
6 2 21 -5.1190 0.0622 
6 2 22 2.5492 -0.1269 
6 2 23 -10.4264 0.1145 
6 2 24 -7.5156 0.1569 
6 2 25 15.5156 0.2060 
6 2 26 0.7494 -0.5592 
6 4 0 -181.0607 -0.0656 
6 4 1 157.5873 -0.2855 
6 4 2 17.3082 0.2228 
6 4 3 49.9650 0.6435 
6 4 4 65.6862 0.4128 
6 4 5 26.8767 -0.2469 
6 4 6 -53.6547 -0.7556 
6 4 7 8.6344 -0.4792 
6 4 8 44.3674 0.5193 
6 4 9 -47.4504 0.7961 
6 4 10 3.1014 0.2966 
6 4 11 1.1980 -0.7235 
6 4 12 -2.6519 -0.0980 
6 4 13 -1.6249 -0.0585 
6 4 14 -24.4221 0.1015 
6 4 15 -26.6247 -0.1727 
6 4 16 -6.1676 0.3049 
6 4 17 14.4432 0.1552 
6 4 18 14.5105 0.1022 
6 4 19 -14.0878 -0.6165 
6 4 20 -0.1550 0.3083 
6 4 21 -8.4704 -0.0042 
6 4 22 2.0034 0.2729 
6 4 23 6.1526 -0.2560 
6 4 24 -10.1454 -0.0326 
6 4 25 -17.2287 -0.0241 
6 4 26 -16.4901 0.0278 
6 6 0 -215.3712 0.3230 
6 6 1 -46.8672 -0.1861 
6 6 2 47.3206 -0.6443 
6 6 3 -30.9962 0.2187 
6 6 4 -72.2691 -0.1964 
6 6 5 -39.8107 0.4033 
6 6 6 -17.1260 -0.2242 
6 6 7 -11.8124 0.6589 
6 6 8 11.6468 -0.0039 
6 6 9 9.6600 -0.2140 
6 6 10 -4.3479 -0.6542 
6 6 11 14.4750 0.1005 
6 6 12 10.1116 0.4509 
6 6 13 -7.0559 0.4103 
6 6 14 15.1229 -0.2765 
6 6 15 23.2687 -0.2801 
6 6 16 2.8354 -0.1622 
6 6 17 -10.5323 0.2166 
6 6 18 5.0848 0.0112 
6 6 19 -9.3646 -0.1329 
6 6 20 -4.8140 -0.0839 
6 6 21 -4.4164 0.1543 
6 6 22 4.1282 0.0216 
6 6 23 -5.5611 -0.1540 
6 6 24 -3.7430 0.0514 
6 6 25 6.9838 -0.0014 
6 6 26 -3.9218 -0.0370 
6 8 0 34.3343 -0.0241 
6 8 1 32.3701 -0.7389 
6 8 2 -51.3189 -0.0228 
6 8 3 -9.0770 0.7376 
6 8 4 6.7778 -0.1044 
6 8 5 -36.8634 -0.1176 
6 8 6 10.7507 -0.6534 
6 8 7 7.0456 0.4695 
6 8 8 15.9232 -0.3234 
6 8 9 -9.1392 0.4200 
6 8 10 -20.6960 -0.4139 
6 8 11 10.9392 0.5079 
6 8 12 8.3617 -0.5300 
6 8 13 -41.2206 0.0970 
6 8 14 -37.6971 -0.3105 
6 8 15 -23.0864 0.3016 
6 8 16 7.7759 -0.1031 
6 8 17 15.5195 0.2351 
6 8 18 10.0936 -0.1565 
6 8 19 -2.0838 0.1073 
6 8 20 6.8279 -0.2160 
6 8 21 -10.8716 0.2238 
6 8 22 12.0810 -0.0608 
6 8 23 -4.1286 0.0322 
6 8 24 -6.5504 -0.1912 
6 8 25 12.9316 0.6134 
6 10 0 -1.2817 0.2242 
6 10 1 -6.9061 -0.1330 
6 10 2 -62.7803 0.6126 
6 10 3 -11.0478 -0.2324 
6 10 4 48.0420 -0.0574 
6 10 5 0.9804 -0.1159 
6 10 6 34.6128 0.3159 
6 10 7 71.7860 0.1370 
6 10 8 19.6834 -0.3386 
6 10 9 -15.4224 -0.0599 
6 10 10 16.9767 -0.0037 
6 10 11 0.6828 0.3800 
6 10 12 12.9352 -0.2421 
6 10 13 -15.3689 0.0946 
6 10 14 5.9489 -0.0305 
6 10 15 12.0437 0.2596 
6 10 16 11.0885 -0.2252 
6 10 17 -10.3713 -0.1790 
6 10 18 -12.3231 0.0344 
6 10 19 -7.5252 0.2474 
6 10 20 10.5762 -0.1322 
6 10 21 3.3940 0.0763 
6 10 22 8.0176 -0.2261 
6 10 23 -3.7393 0.1585 
6 10 24 0.8529 0.0367 
6 10 25 -8.3700 -0.5217 
6 12 0 -21.6968 -0.1176 
6 12 1 -9.0798 -0.0871 
6 12 2 -1.6357 0.1800 
6 12 3 30.9672 -0.2795 
6 12 4 35.8836 0.0525 
6 12 5 -30.6993 -0.1732 
6 12 6 19.3447 0.3212 
6 12 7 17.1231 -0.2550 
6 12 8 -14.1700 -0.1647 
6 12 9 0.3398 -0.0877 
6 12 10 22.5582 0.3013 
6 12 11 -9.0739 0.0580 
6 12 12 15.6415 -0.2444 
6 12 13 -21.9224 -0.1921 
6 12 14 -1.6122 0.0329 
6 12 15 -29.8996 0.2898 
6 12 16 -4.0603 -0.0862 
6 12 17 8.5702 -0.1362 
6 12 18 0.3460 0.0887 
6 12 19 4.9600 0.1426 
6 12 20 -6.3753 0.0181 
6 12 21 9.7864 -0.0159 
6 12 22 13.5805 -0.0664 
6 12 23 8.3641 -0.0649 
6 12 24 27.4620 -0.2855 
6 14 0 -20.6738 0.0836 
6 14 1 -18.2900 0.2406 
6 14 2 24.5254 0.0277 
6 14 3 6.3857 0.1708 
6 14 4 -8.5975 -0.0979 
6 14 5 4.8670 -0.0121 
6 14 6 13.3506 0.0218 
6 14 7 12.8862 0.1774 
6 14 8 -9.6344 -0.1493 
6 14 9 -1.3855 0.1641 
6 14 10 7.7364 -0.0778 
6 14 11 -3.6581 0.1886 
6 14 12 23.6175 -0.2443 
6 14 13 -20.9922 0.1698 
6 14 14 6.4376 -0.0596 
6 14 15 6.5800 0.2506 
6 14 16 18.4103 -0.3450 
6 14 17 7.7597 0.1447 
6 14 18 -5.5618 -0.0599 
6 14 19 -1.6015 0.1239 
6 14 20 -5.4516 -0.0261 
6 14 21 -12.7438 -0.0752 
6 14 22 -17.3230 0.0242 
6 14 23 -14.8329 -0.0869 
6 16 0 -2.6893 0.1471 
6 16 1 10.4124 -0.2474 
6 16 2 -7.2168 -0.2300 
6 16 3 -5.0707 0.0888 
6 16 4 -21.8534 0.1153 
6 16 5 -1.1954 0.0056 
6 16 6 13.4319 -0.0840 
6 16 7 -20.2808 0.0045 
6 16 8 -24.2690 0.0784 
6 16 9 -5.9482 -0.0150 
6 16 10 2.3670 -0.1295 
6 16 11 -2.1640 0.0931 
6 16 12 1.3641 -0.0439 
6 16 13 -14.6139 0.1902 
6 16 14 -5.6262 -0.2500 
6 16 15 -7.2617 0.1814 
6 16 16 5.1273 -0.1873 
6 16 17 -6.5990 0.3076 
6 16 18 -0.3894 -0.1372 
6 16 19 -8.5370 0.1067 
6 16 20 3.8801 -0.1141 
6 16 21 -7.1757 0.0764 
6 16 22 2.1759 -0.0223 
6 16 23 3.4243 -0.1020 
6 18 0 -0.0218 0.1138 
6 18 1 17.5604 -0.0429 
6 18 2 -18.9241 0.0037 
6 18 3 9.9026 0.0607 
6 18 4 5.7343 0.1943 
6 18 5 13.5349 -0.3141 
6 18 6 50.8530 -0.0610 
6 18 7 -5.8422 -0.0916 
6 18 8 -7.5425 0.4671 
6 18 9 7.5097 -0.1258 
6 18 10 15.5272 0.0164 
6 18 11 -2.2718 -0.3041 
6 18 12 -0.9322 0.2199 
6 18 13 -8.6407 -0.0641 
6 18 14 5.2304 0.0724 
6 18 15 -1.7586 -0.1953 
6 18 16 -0.3378 0.0924 
6 18 17 -3.2196 0.1292 
6 18 18 9.4775 -0.2387 
6 18 19 -2.2662 0.2086 
6 18 20 4.6575 -0.0874 
6 18 21 -23.8521 -0.0694 
6 18 22 -3.4601 0.0980 
6 20 0 8.2688 -0.0288 
6 20 1 -13.5720 -0.0173 
6 20 2 -27.5020 -0.1350 
6 20 3 1.8187 0.0241 
6 20 4 0.1327 0.1542 
6 20 5 -9.0536 0.0635 
6 20 6 -3.6574 0.1208 
6 20 7 -29.9518 0.0329 
6 20 8 0.2401 -0.0089 
6 20 9 0.5034 -0.1115 
6 20 10 7.3032 0.0289 
6 20 11 1.3025 0.0044 
6 20 12 7.6174 0.2677 
6 20 13 -1.4788 -0.0943 
6 20 14 6.9821 0.0774 
6 20 15 12.2563 -0.2372 
6 20 16 5.3787 0.3707 
6 20 17 -2.7361 -0.0732 
6 20 18 12.8058 0.0400 
6 20 19 -16.4491 0.1170 
6 20 20 5.4059 -0.3121 
6 22 0 6.1889 -0.1691 
6 22 1 -16.4104 0.2827 
6 22 2 -0.2116 0.0578 
6 22 3 2.1357 0.0212 
6 22 4 2.3338 -0.1597 
6 22 5 -4.4096 0.0377 
6 22 6 -0.9575 -0.1294 
6 22 7 2.0755 0.0238 
6 22 8 6.2903 -0.1070 
6 22 9 -7.7217 0.1113 
6 22 10 -1.1404 0.0468 
6 22 11 -8.8296 0.0446 
6 22 12 6.3441 -0.1510 
6 22 13 1.1603 0.0125 
6 22 14 -0.7405 -0.0559 
6 22 15 -0.0254 0.0657 
6 22 16 -6.2029 0.0719 
6 22 17 -3.4981 -0.2796 
6 22 18 11.5987 -0.0529 
6 22 19 -5.4702 -0.5792 
6 24 0 0.1067 0.0624 
6 24 1 -22.5494 0.0250 
6 24 2 9.9492 0.0745 
6 24 3 11.6029 -0.2087 
6 24 4 -0.4683 -0.0520 
6 24 5 7.6148 0.1558 
6 24 6 0.2539 0.2068 
6 24 7 -14.3399 0.0137 
6 24 8 0.1276 -0.1044 
6 24 9 2.5487 -0.0957 
6 24 10 14.5911 0.0002 
6 24 11 20.9774 0.1105 
6 24 12 6.9291 -0.0003 
6 24 13 -3.7248 -0.0110 
6 24 14 4.6109 -0.0385 
6 24 15 -1.0448 0.1200 
6 24 16 -3.5637 -0.0044 
6 24 17 5.6134 -0.1930 
6 24 18 12.8217 0.2938 
6 26 0 -0.4310 0.0029 
6 26 1 -0.7486 -0.0900 
6 26 2 6.2139 0.1603 
6 26 3 0.5852 -0.0716 
6 26 4 24.0959 0.0267 
6 26 5 7.4402 -0.0852 
6 26 6 -8.4116 0.0134 
6 26 7 -1.5029 -0.1718 
6 26 8 8.3323 0.0751 
6 26 9 6.9876 0.1067 
6 26 10 10.8775 0.0629 
6 26 11 1.8592 -0.0221 
6 26 12 12.1539 -0.0150 
6 26 13 -2.7474 -0.0796 
6 26 14 1.0408 0.0613 
6 26 15 5.9855 0.2605 
6 26 16 3.5242 -0.5866 
6 28 0 7.3566 0.0039 
6 28 1 1.0596 0.0324 
6 28 2 -2.2120 -0.1664 
6 28 3 1.5913 0.0306 
6 28 4 14.3008 -0.0747 
6 28 5 -11.3075 0.1446 
6 28 6 -11.8142 0.0502 
6 28 7 6.2841 -0.0110 
6 28 8 3.0407 -0.1240 
6 28 9 -0.8001 -0.0707 
6 28 10 14.0963 -0.2599 
6 28 11 3.4654 0.1016 
6 28 12 6.8812 -0.2003 
6 28 13 10.3832 -0.1011 
6 30 0 9.8521 -0.1528 
6 30 1 3.0269 0.1307 
6 30 2 18.2728 -0.1260 
6 30 3 13.8088 0.1349 
6 30 4 6.8232 0.1467 
6 30 5 2.2880 0.0440 
6 30 6 11.2619 -0.0418 
6 30 7 6.2626 -0.1193 
6 30 8 -5.9929 -0.1115 
6 30 9 0.2494 0.4209 
6 30 10 8.3694 0.4381 
6 32 0 -6.3012 0.0781 
6 32 1 -0.9636 0.2464 
6 32 2 -2.7571 0.1355 
6 32 3 -4.8082 -0.2068 
6 32 4 -2.3098 -0.2414 
6 32 5 1.7434 -0.0549 
6 32 6 4.7811 0.4242 
7 1 0 176.6866 1.0288 
7 1 1 66.1247 0.9551 
7 1 2 -104.1606 -1.2930 
7 1 3 -69.9611 -0.4386 
7 1 4 13.6154 -0.9028 
7 1 5 -15.5117 1.9500 
7 1 6 21.2290 -0.6480 
7 1 7 25.3860 0.7797 
7 1 8 -9.3652 -1.2706 
7 1 9 -10.4148 0.7917 
7 1 10 -31.6332 -0.2961 
7 1 11 25.4120 0.8588 
7 1 12 22.5960 -0.8248 
7 1 13 4.9677 0.2582 
7 1 14 15.3162 0.2998 
7 1 15 11.2482 0.7366 
7 1 16 10.7124 -0.7067 
7 1 17 -7.5602 -0.4609 
7 1 18 25.8691 -0.0196 
7 1 19 2.3727 0.8472 
7 1 20 -16.4241 -0.0567 
7 1 21 -8.1225 -0.3861 
7 1 22 11.0658 -0.3928 
7 1 23 17.7640 0.2550 
7 1 24 14.6333 0.3070 
7 1 25 13.2664 0.0813 
7 1 26 9.2957 -0.1476 
7 3 0 -11.9604 0.6756 
7 3 1 -29.3147 -1.1126 
7 3 2 -34.0208 0.5065 
7 3 3 22.9344 -0.5565 
7 3 4 -90.5799 0.9122 
7 3 5 52.7864 -0.2478 
7 3 6 -20.2798 -0.3867 
7 3 7 -99.7330 -0.0900 
7 3 8 18.4173 0.0863 
7 3 9 -5.6624 -0.0418 
7 3 10 -13.5042 0.1446 
7 3 11 26.3346 -0.2501 
7 3 12 19.6044 0.2357 
7 3 13 3.4211 -0.5809 
7 3 14 -10.8659 0.2914 
7 3 15 -15.0834 -0.0954 
7 3 16 -5.5092 0.3748 
7 3 17 -6.9404 -0.2209 
7 3 18 9.4965 0.1306 
7 3 19 -14.3671 -0.3921 
7 3 20 -7.5026 0.2591 
7 3 21 4.0945 -0.2009 
7 3 22 6.7927 0.4285 
7 3 23 -15.0747 -0.0887 
7 3 24 -3.3731 0.1658 
7 3 25 -2.9915 -0.2045 
7 3 26 -2.1595 -1.0164 
7 5 0 116.8266 0.4664 
7 5 1 -122.3659 -0.3190 
7 5 2 -94.6796 0.5045 
7 5 3 -41.5975 0.0751 
7 5 4 -64.3955 -0.0745 
7 5 5 7.4445 -0.9273 
7 5 6 -36.4534 0.4576 
7 5 7 -22.0777 0.1338 
7 5 8 -6.0146 0.6259 
7 5 9 -8.0885 -0.4521 
7 5 10 23.8281 -0.2037 
7 5 11 -0.9886 -0.2838 
7 5 12 13.9448 0.7072 
7 5 13 9.0352 0.0241 
7 5 14 -16.6622 0.0781 
7 5 15 -4.5716 -0.5588 
7 5 16 -8.9587 0.1857 
7 5 17 0.3272 0.0274 
7 5 18 18.3390 0.2680 
7 5 19 -10.6783 -0.3094 
7 5 20 0.0344 0.1539 
7 5 21 -6.2948 -0.1292 
7 5 22 8.0220 0.1342 
7 5 23 -14.6053 -0.1826 
7 5 24 -0.4847 -0.0333 
7 5 25 8.7100 -0.0383 
7 7 0 -31.2074 -0.5390 
7 7 1 -93.3549 -0.6802 
7 7 2 19.9106 -0.2582 
7 7 3 -26.3499 0.1953 
7 7 4 -55.3615 0.0790 
7 7 5 -39.5818 0.1849 
7 7 6 -11.3591 -0.1786 
7 7 7 -17.6154 -0.1964 
7 7 8 -30.1785 -0.0803 
7 7 9 -12.4648 0.1321 
7 7 10 1.9203 0.0240 
7 7 11 -8.9667 0.0228 
7 7 12 5.2648 -0.1051 
7 7 13 -4.1455 -0.1071 
7 7 14 8.4906 -0.0965 
7 7 15 -3.2714 -0.0044 
7 7 16 14.1059 0.0720 
7 7 17 12.6934 0.1103 
7 7 18 7.8540 -0.1037 
7 7 19 -13.0597 -0.1919 
7 7 20 -1.3425 -0.1029 
7 7 21 -14.5051 0.4192 
7 7 22 -2.2911 -0.1871 
7 7 23 -11.2653 -0.0441 
7 7 24 -8.6395 -0.0548 
7 7 25 -10.7101 -0.1911 
7 9 0 -42.7788 0.3144 
7 9 1 -56.0785 0.3296 
7 9 2 -55.4798 0.3470 
7 9 3 -57.2936 -0.2775 
7 9 4 -34.2641 0.0837 
7 9 5 16.0840 -0.3037 
7 9 6 18.8322 0.2632 
7 9 7 -33.6411 -0.0059 
7 9 8 -22.1066 0.1239 
7 9 9 -3.5660 -0.1264 
7 9 10 6.0431 -0.0795 
7 9 11 -19.7314 -0.0024 
7 9 12 -30.8469 -0.1366 
7 9 13 -10.7263 0.1695 
7 9 14 10.9667 0.0037 
7 9 15 -32.5638 -0.0489 
7 9 16 0.6542 -0.2010 
7 9 17 -7.9444 0.0122 
7 9 18 2.2970 0.1371 
7 9 19 -0.0171 0.0327 
7 9 20 5.0080 -0.1527 
7 9 21 -16.8868 0.0366 
7 9 22 -12.7880 -0.2657 
7 9 23 -1.2494 0.1014 
7 9 24 11.9006 0.1277 
7 9 25 3.6887 0.3930 
7 11 0 0.9846 0.1024 
7 11 1 -43.7703 -0.3703 
7 11 2 -94.6059 0.0408 
7 11 3 -20.3288 -0.2695 
7 11 4 26.5650 0.5748 
7 11 5 -31.9436 -0.1483 
7 11 6 -2.5442 0.5333 
7 11 7 -2.5538 -0.7210 
7 11 8 7.8085 0.1167 
7 11 9 11.0471 -0.3705 
7 11 10 10.3652 0.6825 
7 11 11 8.1811 -0.1805 
7 11 12 0.7459 -0.0193 
7 11 13 -46.4215 -0.3929 
7 11 14 -11.8524 0.2370 
7 11 15 -21.6004 0.1480 
7 11 16 -6.6745 0.0576 
7 11 17 0.3365 -0.2030 
7 11 18 0.3065 0.0465 
7 11 19 -6.5370 -0.0964 
7 11 20 7.5981 0.2011 
7 11 21 9.4770 -0.0357 
7 11 22 -1.6353 0.0096 
7 11 23 -5.7990 0.0178 
7 11 24 3.1617 -0.0341 
7 13 0 0.6911 0.0662 
7 13 1 1.0660 0.4099 
7 13 2 -36.9515 0.0767 
7 13 3 -31.7932 -0.1616 
7 13 4 -7.6264 -0.2094 
7 13 5 -12.1462 -0.1534 
7 13 6 -3.6502 0.1815 
7 13 7 -10.4655 -0.0648 
7 13 8 19.7560 0.3306 
7 13 9 2.4194 -0.2570 
7 13 10 -9.8687 0.1714 
7 13 11 -1.2929 -0.2064 
7 13 12 16.0382 0.0566 
7 13 13 -10.2917 -0.1173 
7 13 14 7.6365 0.1795 
7 13 15 -20.6852 -0.1044 
7 13 16 -1.6802 -0.0366 
7 13 17 32.2723 -0.1995 
7 13 18 9.1492 0.1684 
7 13 19 11.7982 0.0380 
7 13 20 5.2787 0.1976 
7 13 21 1.0656 -0.3182 
7 13 22 -3.2326 0.0215 
7 13 23 -23.8111 0.1514 
7 13 24 -9.1519 0.3447 
7 15 0 27.7343 -0.1737 
7 15 1 -10.6097 -0.0720 
7 15 2 -1.8566 -0.3570 
7 15 3 -11.2873 0.3229 
7 15 4 11.5054 0.2658 
7 15 5 12.8080 0.1906 
7 15 6 -12.1662 -0.3093 
7 15 7 -1.1086 0.1351 
7 15 8 8.6436 -0.0488 
7 15 9 -3.7491 0.0948 
7 15 10 -16.0591 -0.1537 
7 15 11 -15.2417 0.2663 
7 15 12 10.2875 0.0038 
7 15 13 5.9157 -0.0553 
7 15 14 19.8220 -0.0102 
7 15 15 2.2141 -0.0186 
7 15 16 -21.5250 0.2250 
7 15 17 14.3607 0.0837 
7 15 18 3.2637 -0.2136 
7 15 19 -11.2752 0.0801 
7 15 20 -8.7700 -0.0312 
7 15 21 -8.3231 -0.2787 
7 15 22 10.3996 0.2889 
7 15 23 -12.2183 -0.1945 
7 17 0 9.5991 0.1627 
7 17 1 -7.3802 -0.0217 
7 17 2 -0.9370 0.0006 
7 17 3 0.9046 0.0982 
7 17 4 17.6654 -0.1392 
7 17 5 -2.6831 -0.3545 
7 17 6 -13.6685 -0.1768 
7 17 7 5.7819 0.3133 
7 17 8 3.4599 0.2930 
7 17 9 -3.3413 -0.1103 
7 17 10 11.8393 -0.2004 
7 17 11 3.5531 -0.1294 
7 17 12 24.0103 0.1744 
7 17 13 16.3132 0.0495 
7 17 14 12.4089 -0.0505 
7 17 15 15.2474 -0.1738 
7 17 16 8.6807 0.1053 
7 17 17 15.8833 -0.1054 
7 17 18 5.7316 0.0190 
7 17 19 -11.2210 0.1123 
7 17 20 -1.1053 -0.0948 
7 17 21 -0.5239 0.0125 
7 17 22 15.0775 0.6183 
7 19 0 12.6103 -0.0117 
7 19 1 8.5208 -0.2705 
7 19 2 13.4808 -0.0590 
7 19 3 6.2511 0.0692 
7 19 4 4.6455 0.1819 
7 19 5 -5.2249 0.0763 
7 19 6 -3.1558 -0.0273 
7 19 7 1.0236 -0.0691 
7 19 8 -5.7791 0.0300 
7 19 9 2.1814 -0.0514 
7 19 10 4.4857 0.0296 
7 19 11 -10.5239 -0.0247 
7 19 12 11.7519 0.2470 
7 19 13 1.8541 -0.0665 
7 19 14 -7.0442 -0.0168 
7 19 15 2.9282 -0.1329 
7 19 16 -5.4482 0.3481 
7 19 17 -5.0354 -0.0901 
7 19 18 7.5334 0.0415 
7 19 19 -6.9672 -0.1704 
7 19 20 6.3904 -0.0141 
7 19 21 12.5962 0.1015 
7 21 0 -7.3485 -0.1030 
7 21 1 -4.9099 0.2062 
7 21 2 8.2312 0.0429 
7 21 3 -10.0035 -0.0570 
7 21 4 -1.4078 -0.2425 
7 21 5 18.4836 0.1209 
7 21 6 -4.7564 -0.0377 
7 21 7 -6.8875 0.1096 
7 21 8 12.0524 -0.1239 
7 21 9 9.9862 0.1935 
7 21 10 10.1964 -0.0732 
7 21 11 0.7637 -0.0518 
7 21 12 0.5189 -0.0654 
7 21 13 3.2905 0.1244 
7 21 14 -5.6671 -0.0436 
7 21 15 -14.2126 0.0977 
7 21 16 -10.7436 -0.0718 
7 21 17 5.2963 -0.1903 
7 21 18 14.6540 0.1717 
7 21 19 1.9008 0.1257 
7 21 20 0.6293 0.3192 
7 23 0 -16.2102 -0.1452 
7 23 1 2.6209 0.1274 
7 23 2 -8.1453 -0.0241 
7 23 3 -4.2351 -0.0752 
7 23 4 6.2059 -0.1044 
7 23 5 1.0215 0.2760 
7 23 6 -4.7214 0.0319 
7 23 7 1.1380 -0.1046 
7 23 8 -2.3547 -0.4035 
7 23 9 1.4763 0.1535 
7 23 10 0.4460 0.0149 
7 23 11 -0.9639 0.0239 
7 23 12 15.8748 -0.0308 
7 23 13 0.8863 0.0164 
7 23 14 -8.7810 -0.0643 
7 23 15 1.7912 0.1500 
7 23 16 -2.8269 -0.1646 
7 23 17 2.7203 0.1648 
7 23 18 -4.2611 0.1174 
7 25 0 12.1573 -0.0025 
7 25 1 19.8514 0.1533 
7 25 2 0.5854 0.1215 
7 25 3 -8.7738 -0.1220 
7 25 4 -12.1158 -0.0217 
7 25 5 -2.0034 -0.0437 
7 25 6 -3.4661 0.1227 
7 25 7 -13.9588 0.0151 
7 25 8 2.9243 -0.0691 
7 25 9 3.7798 0.0549 
7 25 10 -7.2251 0.0904 
7 25 11 4.3574 -0.0395 
7 25 12 9.8945 0.0122 
7 25 13 -1.2296 -0.0576 
7 25 14 6.3289 0.2562 
7 25 15 -0.4816 -0.1378 
7 25 16 10.2912 0.0533 
7 27 0 2.3835 -0.0559 
7 27 1 2.5647 -0.0041 
7 27 2 0.9131 -0.0982 
7 27 3 -2.9685 0.1476 
7 27 4 -1.3321 -0.1002 
7 27 5 -0.5752 0.0124 
7 27 6 -3.8356 -0.0068 
7 27 7 -9.0744 0.0567 
7 27 8 -0.5743 -0.1280 
7 27 9 -0.8203 -0.0494 
7 27 10 -15.1237 0.0890 
7 27 11 -5.2642 -0.0126 
7 27 12 23.2413 -0.0777 
7 27 13 4.1199 -0.0144 
7 27 14 1.6802 -0.2803 
7 29 0 9.4423 -0.1861 
7 29 1 -8.2815 -0.0219 
7 29 2 -1.1179 -0.0789 
7 29 3 -7.6459 0.3259 
7 29 4 3.8867 -0.3495 
7 29 5 4.2354 0.2971 
7 29 6 3.9533 -0.1112 
7 29 7 -2.5579 0.2413 
7 29 8 0.2995 -0.0530 
7 29 9 -4.5290 0.1189 
7 29 10 -3.5978 -0.0671 
7 29 11 6.1113 -0.2922 
7 31 0 13.9143 0.2241 
7 31 1 -7.2799 -0.0813 
7 31 2 7.9063 -0.0897 
7 31 3 -8.5661 0.1733 
7 31 4 9.8976 -0.2551 
7 31 5 -0.5267 0.3603 
7 31 6 -0.6812 -0.2616 
7 31 7 -1.3704 0.2004 
7 31 8 -7.2415 -0.2854 
7 33 0 7.3211 0.6916 
8 0 0 -186.2802 -1.9021 
8 0 1 -219.2777 6.0081 
8 0 2 -122.6277 -2.9796 
8 0 3 6.2302 -1.3652 
8 0 4 3.8849 -3.0525 
8 0 5 27.7132 2.9198 
8 0 6 -22.1432 1.1259 
8 0 7 -91.2734 0.8368 
8 0 8 -32.4418 -4.9025 
8 0 9 29.1535 1.9660 
8 0 10 0.4156 0.9954 
8 0 11 31.2778 2.5088 
8 0 12 34.9968 -3.4289 
8 0 13 20.0258 0.1873 
8 0 14 4.5549 -0.6623 
8 0 15 -13.1570 1.3757 
8 0 16 18.5737 -1.1234 
8 0 17 -21.7929 1.4900 
8 0 18 -5.7410 0.4384 
8 0 19 -3.3261 0.5021 
8 0 20 29.2031 -2.2210 
8 0 21 -1.3840 -0.4500 
8 0 22 -6.2808 0.3758 
8 0 23 4.6834 1.5622 
8 0 24 -16.2006 0.2471 
8 0 25 -28.0416 -0.6499 
8 2 0 -8.1249 -0.0347 
8 2 1 133.6308 -0.2418 
8 2 2 28.1580 0.3106 
8 2 3 81.6807 0.9549 
8 2 4 -94.9730 -1.4463 
8 2 5 -17.4471 0.5292 
8 2 6 47.5654 -0.3888 
8 2 7 -5.7705 0.7349 
8 2 8 17.0965 -1.0637 
8 2 9 20.6359 0.8731 
8 2 10 -25.1862 -0.1078 
8 2 11 -9.2449 -0.0519 
8 2 12 -4.7247 -1.4055 
8 2 13 -19.9840 0.7758 
8 2 14 -2.4188 0.8270 
8 2 15 -20.9879 0.4187 
8 2 16 12.8442 -1.1632 
8 2 17 -7.0582 -0.3319 
8 2 18 11.5934 0.1184 
8 2 19 3.8095 0.7227 
8 2 20 0.4783 -0.1765 
8 2 21 -10.3065 0.1835 
8 2 22 -10.8202 -0.2033 
8 2 23 -11.9634 -0.1654 
8 2 24 1.5959 -0.1266 
8 2 25 0.2485 -0.1747 
8 4 0 113.3588 1.1580 
8 4 1 245.5308 -0.4014 
8 4 2 -61.4032 0.1198 
8 4 3 34.8680 -0.3286 
8 4 4 18.6380 -0.1575 
8 4 5 59.0754 -0.0395 
8 4 6 40.3293 0.4427 
8 4 7 -4.5345 0.0224 
8 4 8 7.6636 -0.4364 
8 4 9 37.3979 -0.2466 
8 4 10 25.4240 0.2214 
8 4 11 10.9034 0.4222 
8 4 12 11.0821 -0.0090 
8 4 13 -4.5479 -0.3987 
8 4 14 24.4298 -0.0860 
8 4 15 -1.8538 -0.1838 
8 4 16 -8.8856 0.1325 
8 4 17 -22.7665 0.4254 
8 4 18 -1.3902 0.1211 
8 4 19 12.9379 -0.3595 
8 4 20 12.0397 -0.2863 
8 4 21 -2.8391 0.0646 
8 4 22 4.8661 0.3650 
8 4 23 5.7335 -0.0306 
8 4 24 -2.2775 -0.0008 
8 4 25 0.3658 0.2466 
8 6 0 -80.6140 -0.3907 
8 6 1 63.0825 -0.1306 
8 6 2 -90.5032 -0.2775 
8 6 3 -58.5755 0.9809 
8 6 4 -13.8690 -0.0828 
8 6 5 -14.8234 -0.2677 
8 6 6 -30.5203 -0.6480 
8 6 7 -42.2841 0.4119 
8 6 8 8.2155 0.2313 
8 6 9 24.7946 0.1503 
8 6 10 -17.3801 -0.5364 
8 6 11 5.3639 0.0239 
8 6 12 7.5529 0.1204 
8 6 13 -18.2171 0.2801 
8 6 14 11.1991 -0.1646 
8 6 15 -15.6998 0.1436 
8 6 16 -15.0347 -0.1527 
8 6 17 -23.9365 0.0635 
8 6 18 7.8467 -0.1897 
8 6 19 10.5092 0.0321 
8 6 20 -8.6176 0.0590 
8 6 21 -3.4654 0.3984 
8 6 22 1.3805 -0.2406 
8 6 23 3.2136 -0.2285 
8 6 24 8.3789 0.0444 
8 6 25 -2.5303 -0.3632 
8 8 0 -113.8734 0.2134 
8 8 1 -4.4242 0.1071 
8 8 2 -13.3233 -0.5800 
8 8 3 -21.5063 0.2157 
8 8 4 -66.9860 -0.2743 
8 8 5 -1.1737 0.2647 
8 8 6 0.2490 -0.3506 
8 8 7 25.5798 0.3645 
8 8 8 22.4445 -0.2070 
8 8 9 -24.7382 0.3416 
8 8 10 1.6596 -0.5309 
8 8 11 33.9822 0.4206 
8 8 12 32.8695 -0.1346 
8 8 13 0.6438 0.2051 
8 8 14 -0.8065 -0.6012 
8 8 15 -1.7125 0.2500 
8 8 16 6.5555 -0.1406 
8 8 17 -13.4258 0.2226 
8 8 18 -3.5178 -0.1157 
8 8 19 -8.1955 -0.0236 
8 8 20 1.8725 -0.1023 
8 8 21 0.8367 -0.0386 
8 8 22 12.2341 -0.2734 
8 8 23 -4.5437 0.2294 
8 8 24 8.5748 -0.0090 
8 8 25 2.0561 -0.0716 
8 10 0 -1.7318 -0.0382 
8 10 1 0.5807 -0.0196 
8 10 2 10.6659 0.1321 
8 10 3 -31.9967 -0.0306 
8 10 4 -67.1002 0.3705 
8 10 5 14.7028 0.0503 
8 10 6 1.1651 0.0093 
8 10 7 7.2970 -0.1171 
8 10 8 -11.9809 0.0445 
8 10 9 -22.3558 0.0556 
8 10 10 19.7329 -0.0235 
8 10 11 5.8489 -0.0542 
8 10 12 16.5549 -0.0886 
8 10 13 11.8982 0.0344 
8 10 14 15.3167 -0.0180 
8 10 15 5.9552 0.2485 
8 10 16 -3.9588 -0.0815 
8 10 17 -3.1888 -0.0273 
8 10 18 11.1051 -0.1419 
8 10 19 0.0612 0.1161 
8 10 20 3.1787 0.0644 
8 10 21 -11.4145 -0.1009 
8 10 22 3.2058 -0.1588 
8 10 23 -6.1744 0.1486 
8 10 24 -2.4367 0.1572 
8 12 0 14.1780 0.1999 
8 12 1 -36.8610 0.1732 
8 12 2 -11.9649 -0.1217 
8 12 3 27.9198 -0.3744 
8 12 4 0.0261 0.0246 
8 12 5 10.8308 -0.0095 
8 12 6 8.2437 0.1510 
8 12 7 -9.9099 -0.2075 
8 12 8 0.0088 0.1805 
8 12 9 -14.5397 -0.1511 
8 12 10 -4.6793 0.2849 
8 12 11 -18.0649 -0.1752 
8 12 12 22.5455 0.1249 
8 12 13 2.0735 -0.2172 
8 12 14 7.9004 0.1907 
8 12 15 9.2103 -0.1104 
8 12 16 13.8950 -0.0413 
8 12 17 8.8166 -0.0642 
8 12 18 -2.5350 -0.0286 
8 12 19 -7.2065 0.1218 
8 12 20 -7.7678 -0.0427 
8 12 21 4.0916 -0.1418 
8 12 22 -2.7545 0.0643 
8 12 23 0.6292 0.3645 
8 12 24 29.6713 0.2861 
8 14 0 17.2199 -0.1953 
8 14 1 -8.7452 0.2550 
8 14 2 10.2403 -0.1014 
8 14 3 0.3715 0.0950 
8 14 4 2.7298 -0.1408 
8 14 5 1.1833 0.2696 
8 14 6 -7.1809 -0.0627 
8 14 7 0.8799 -0.0216 
8 14 8 4.3791 -0.0697 
8 14 9 -9.6103 0.0065 
8 14 10 10.9166 -0.0212 
8 14 11 2.6701 0.1748 
8 14 12 22.1141 -0.1359 
8 14 13 -13.0160 0.0296 
8 14 14 3.6377 0.0041 
8 14 15 13.0299 -0.0133 
8 14 16 -12.8258 0.0901 
8 14 17 -10.4658 0.1307 
8 14 18 -6.7448 -0.1767 
8 14 19 4.5835 0.0726 
8 14 20 6.9778 -0.1435 
8 14 21 7.2742 0.0432 
8 14 22 5.0167 0.0529 
8 14 23 4.8948 -0.0439 
8 16 0 6.9270 -0.0500 
8 16 1 6.6480 0.0654 
8 16 2 -25.5759 -0.0440 
8 16 3 -0.4872 0.0285 
8 16 4 9.1639 -0.1165 
8 16 5 -4.1031 0.0198 
8 16 6 3.4437 -0.1289 
8 16 7 -9.1447 0.0812 
8 16 8 -14.3036 0.1716 
8 16 9 -13.1446 0.0378 
8 16 10 14.8754 -0.1685 
8 16 11 -10.8522 0.0352 
8 16 12 18.7004 -0.0310 
8 16 13 8.2346 0.1907 
8 16 14 -8.3138 -0.1905 
8 16 15 -0.4408 -0.0093 
8 16 16 -6.2837 -0.0490 
8 16 17 -8.4129 0.1680 
8 16 18 8.7519 -0.1263 
8 16 19 7.3252 0.1009 
8 16 20 6.1680 -0.0147 
8 16 21 3.1722 0.1102 
8 16 22 9.0700 0.2072 
8 18 0 -15.5670 0.0822 
8 18 1 19.2941 -0.3098 
8 18 2 -12.9656 0.1320 
8 18 3 5.4404 -0.0465 
8 18 4 4.0169 0.1170 
8 18 5 -22.5584 -0.1280 
8 18 6 14.1509 -0.0573 
8 18 7 6.8987 -0.1404 
8 18 8 -4.9850 0.1318 
8 18 9 2.8016 -0.1092 
8 18 10 13.0773 0.0278 
8 18 11 -4.8690 -0.1358 
8 18 12 11.3660 0.2383 
8 18 13 -7.6279 -0.0761 
8 18 14 -9.0044 -0.0220 
8 18 15 -10.9178 -0.0263 
8 18 16 -0.7734 0.0883 
8 18 17 -6.9636 0.0372 
8 18 18 1.6127 -0.1724 
8 18 19 5.6234 -0.1254 
8 18 20 5.5189 0.1757 
8 18 21 -7.8830 -0.3511 
8 20 0 -13.9739 0.0185 
8 20 1 6.0987 -0.0813 
8 20 2 -0.4753 0.1252 
8 20 3 -6.2922 -0.1263 
8 20 4 16.3935 0.0932 
8 20 5 -6.8114 -0.0582 
8 20 6 16.7552 0.0121 
8 20 7 1.4872 0.0518 
8 20 8 -12.8452 0.0056 
8 20 9 -5.0952 0.0838 
8 20 10 -12.8324 -0.1591 
8 20 11 -16.9666 -0.0462 
8 20 12 -0.4229 0.0855 
8 20 13 -9.5470 0.0225 
8 20 14 7.8113 0.0648 
8 20 15 12.5083 -0.1008 
8 20 16 0.2668 0.0231 
8 20 17 -5.6932 -0.1449 
8 20 18 -1.2998 0.1218 
8 20 19 -18.0734 0.2128 
8 20 20 -1.4958 0.3640 
8 22 0 -2.4024 0.0465 
8 22 1 8.1690 0.0152 
8 22 2 8.2092 -0.0881 
8 22 3 -2.2792 -0.0648 
8 22 4 11.1083 -0.0096 
8 22 5 -20.6366 0.0378 
8 22 6 6.0046 -0.0396 
8 22 7 -2.4745 0.0023 
8 22 8 -2.6071 -0.2743 
8 22 9 10.2366 0.1686 
8 22 10 -4.6166 -0.0210 
8 22 11 -11.6125 0.0140 
8 22 12 8.6917 -0.1137 
8 22 13 2.2677 0.0923 
8 22 14 1.4750 -0.2215 
8 22 15 6.3942 0.1228 
8 22 16 1.4388 -0.0292 
8 22 17 -14.3501 0.0914 
8 22 18 -1.5623 0.0106 
8 24 0 -0.4286 0.0616 
8 24 1 -3.3058 -0.0812 
8 24 2 2.8422 0.2012 
8 24 3 -2.8134 0.0052 
8 24 4 -4.0757 -0.0400 
8 24 5 1.3014 0.0091 
8 24 6 1.7644 0.1870 
8 24 7 -20.3452 -0.0839 
8 24 8 9.5755 -0.0988 
8 24 9 -0.4534 -0.0280 
8 24 10 -3.5759 0.0528 
8 24 11 -0.6500 -0.1119 
8 24 12 2.5845 -0.0263 
8 24 13 3.7625 0.0218 
8 24 14 5.7432 0.0503 
8 24 15 4.6805 0.0269 
8 24 16 3.8136 -0.2108 
8 24 17 5.2218 -0.1621 
8 26 0 -32.5484 0.0493 
8 26 1 -9.7669 -0.1046 
8 26 2 6.9161 0.0981 
8 26 3 1.5457 0.0140 
8 26 4 5.8150 -0.0041 
8 26 5 8.3484 -0.0692 
8 26 6 -0.4819 0.1197 
8 26 7 -0.0905 -0.1014 
8 26 8 14.6295 0.0462 
8 26 9 -3.1148 -0.1197 
8 26 10 -0.7972 0.2688 
8 26 11 -11.6907 -0.0183 
8 26 12 2.1016 0.0273 
8 26 13 -1.5868 -0.1466 
8 26 14 3.2555 0.4586 
8 26 15 -2.6899 0.0162 
8 28 0 -5.7304 -0.1319 
8 28 1 7.3602 -0.0748 
8 28 2 3.8273 0.1111 
8 28 3 -4.0065 0.1608 
8 28 4 10.1655 -0.2059 
8 28 5 0.7187 -0.1171 
8 28 6 -6.8517 -0.0012 
8 28 7 7.6685 0.2861 
8 28 8 -2.4624 -0.1045 
8 28 9 -0.4842 0.0052 
8 28 10 19.3018 0.1189 
8 28 11 -12.5019 -0.2095 
8 28 12 -1.7187 -0.0025 
8 30 0 5.3112 -0.0944 
8 30 1 2.9941 -0.0593 
8 30 2 5.5029 0.0244 
8 30 3 6.0257 -0.1604 
8 30 4 10.5833 0.0175 
8 30 5 -9.3838 0.1219 
8 30 6 -5.9265 0.0464 
8 30 7 -3.0946 -0.0011 
8 30 8 -0.4396 -0.1871 
8 30 9 6.9745 0.6008 
8 32 0 -3.8038 0.2233 
8 32 1 5.3420 -0.1019 
8 32 2 -6.7362 0.4136 
8 32 3 1.9328 -0.3658 
8 32 4 5.7462 -0.1289 
9 1 0 -97.9702 2.6417 
9 1 1 -3.2397 1.6626 
9 1 2 48.6237 -0.5071 
9 1 3 -22.6303 -0.6592 
9 1 4 52.8666 0.2020 
9 1 5 -46.2896 1.6656 
9 1 6 9.8373 -0.4656 
9 1 7 9.8028 -0.8619 
9 1 8 -61.4393 -0.8006 
9 1 9 11.7832 1.2564 
9 1 10 -3.8502 -0.0296 
9 1 11 5.9795 0.1320 
9 1 12 -17.1376 -1.3280 
9 1 13 -27.6066 1.0312 
9 1 14 16.3039 -0.0866 
9 1 15 -8.4591 0.5568 
9 1 16 -0.9656 -1.0725 
9 1 17 -5.9575 0.1940 
9 1 18 0.9302 -0.1750 
9 1 19 2.1847 0.7123 
9 1 20 5.3147 -0.2058 
9 1 21 -9.1781 0.1533 
9 1 22 -6.7872 -0.5032 
9 1 23 -5.7855 0.3726 
9 1 24 -1.2123 -0.1059 
9 1 25 -6.7393 -0.1404 
9 3 1 -36.6382 -0.9775 
9 3 2 90.6043 0.5137 
9 3 3 -21.3174 -1.2995 
9 3 4 -10.6955 1.1010 
9 3 5 72.9063 -0.8168 
9 3 6 -16.4910 0.8679 
9 3 7 6.9802 -0.4649 
9 3 8 21.8649 0.4165 
9 3 9 8.6544 -0.1665 
9 3 10 -3.3194 0.1012 
9 3 11 -9.8084 -0.1882 
9 3 12 17.4826 0.3168 
9 3 13 34.9751 -0.0476 
9 3 14 15.0790 0.0124 
9 3 15 -8.7112 -0.3492 
9 3 16 7.2753 0.0538 
9 3 17 13.6747 0.1163 
9 3 18 16.5746 0.2081 
9 3 19 -6.1302 -0.0756 
9 3 20 3.5296 -0.0095 
9 3 21 1.2026 -0.1415 
9 3 22 3.4939 -0.0414 
9 3 23 3.8692 0.0535 
9 3 24 15.3439 0.0405 
9 3 25 3.2603 -0.2609 
9 5 0 78.4160 -0.0407 
9 5 1 18.7410 -0.3498 
9 5 2 80.7819 0.4971 
9 5 3 -13.4191 0.3303 
9 5 4 3.9312 0.8890 
9 5 5 6.1209 -1.1423 
9 5 6 25.5712 0.4791 
9 5 7 4.7492 -0.6300 
9 5 8 -39.3367 0.8595 
9 5 9 7.2555 -0.4566 
9 5 10 14.0962 0.2200 
9 5 11 -0.9303 -0.3441 
9 5 12 18.2425 0.3238 
9 5 13 -2.0718 -0.2578 
9 5 14 -2.2986 0.0682 
9 5 15 12.1519 -0.0057 
9 5 16 19.4539 0.3816 
9 5 17 12.3861 -0.1058 
9 5 18 14.2351 -0.1696 
9 5 19 -2.6047 -0.1674 
9 5 20 -7.0958 0.1573 
9 5 21 -12.5709 0.2022 
9 5 22 -0.5049 0.0490 
9 5 23 -8.8886 -0.0820 
9 5 24 -4.2000 0.0358 
9 5 25 -4.7555 0.4372 
9 7 0 11.8361 -0.4597 
9 7 1 11.5752 -0.0265 
9 7 2 21.7396 -0.1896 
9 7 3 9.2102 0.4195 
9 7 4 78.9939 -0.3473 
9 7 5 11.0949 -0.3602 
9 7 6 21.1024 0.1154 
9 7 7 -2.6648 0.5568 
9 7 8 -0.2403 0.0108 
9 7 9 13.4528 -0.5162 
9 7 10 -10.5762 -0.1142 
9 7 11 -10.0038 0.2360 
9 7 12 19.1810 0.5323 
9 7 13 9.7219 -0.0953 
9 7 14 21.4592 -0.2550 
9 7 15 -9.7997 -0.0539 
9 7 16 -6.0201 0.0070 
9 7 17 1.9414 0.0914 
9 7 18 10.2119 0.0258 
9 7 19 3.0747 -0.0217 
9 7 20 14.0881 -0.0064 
9 7 21 8.0005 0.0137 
9 7 22 10.3273 -0.2272 
9 7 23 -3.3833 0.2291 
9 7 24 2.2775 0.0077 
9 9 0 17.9471 -0.3064 
9 9 1 24.4363 0.1172 
9 9 2 -5.3482 -0.0481 
9 9 3 -35.6942 0.2512 
9 9 4 -11.4842 -0.0845 
9 9 5 -42.4168 -0.0057 
9 9 6 -59.2188 -0.0461 
9 9 7 -69.0319 -0.1041 
9 9 8 11.3921 0.0384 
9 9 9 24.2105 0.1284 
9 9 10 13.8471 0.2267 
9 9 11 3.4769 -0.0820 
9 9 12 21.7499 -0.2750 
9 9 13 28.8808 -0.1916 
9 9 14 2.8310 0.1764 
9 9 15 -21.1234 0.2284 
9 9 16 10.9850 0.0828 
9 9 17 -6.6062 -0.1573 
9 9 18 3.3752 -0.0456 
9 9 19 -7.2957 -0.0406 
9 9 20 -5.3455 0.1106 
9 9 21 -1.2298 -0.0630 
9 9 22 3.3031 0.0291 
9 9 23 -6.5804 0.0860 
9 9 24 5.7329 -0.0408 
9 11 0 -25.4004 0.1011 
9 11 1 39.6856 0.5060 
9 11 2 -13.0507 -0.1194 
9 11 3 -13.1792 -0.5404 
9 11 4 -0.7372 -0.0147 
9 11 5 -50.5902 0.2500 
9 11 6 3.4260 0.4191 
9 11 7 -22.3676 -0.3318 
9 11 8 -12.0025 0.1473 
9 11 9 -5.1621 -0.3076 
9 11 10 -17.0705 0.2889 
9 11 11 -18.1918 -0.2872 
9 11 12 21.3656 0.3788 
9 11 13 8.8393 -0.1371 
9 11 14 8.2800 0.3051 
9 11 15 4.1331 -0.4111 
9 11 16 5.4919 0.0616 
9 11 17 -9.7262 -0.0538 
9 11 18 6.8157 0.1902 
9 11 19 6.9653 0.0185 
9 11 20 2.5593 0.0804 
9 11 21 -4.1879 -0.4254 
9 11 22 0.9715 0.2626 
9 11 23 -2.1750 0.0686 
9 11 24 -3.4112 0.1043 
9 13 0 -26.3088 -0.0199 
9 13 1 30.2122 0.2502 
9 13 2 -16.4642 -0.1726 
9 13 3 -28.0660 -0.0660 
9 13 4 25.7418 -0.0220 
9 13 5 -3.3478 0.2235 
9 13 6 2.7157 -0.2573 
9 13 7 -6.4053 -0.3180 
9 13 8 11.3579 0.1124 
9 13 9 16.4054 0.1690 
9 13 10 4.8617 0.2754 
9 13 11 -3.8376 -0.3204 
9 13 12 10.5577 -0.0302 
9 13 13 13.9491 -0.1049 
9 13 14 0.0751 0.2927 
9 13 15 -5.5172 -0.0663 
9 13 16 1.1661 0.2667 
9 13 17 -0.6722 -0.2089 
9 13 18 -6.3824 0.0310 
9 13 19 -2.8072 -0.2077 
9 13 20 -4.7172 0.1434 
9 13 21 4.3993 -0.1080 
9 13 22 2.8819 0.1243 
9 13 23 -11.5897 -0.2212 
9 15 0 16.3500 0.0983 
9 15 1 -0.2695 0.1000 
9 15 2 4.0658 -0.0832 
9 15 3 -16.8507 -0.0756 
9 15 4 6.3204 -0.1531 
9 15 5 -26.9981 0.3907 
9 15 6 -18.8669 -0.0624 
9 15 7 10.9302 0.2008 
9 15 8 11.8018 -0.2047 
9 15 9 3.6188 0.1055 
9 15 10 4.1983 -0.2907 
9 15 11 -2.3180 0.1084 
9 15 12 13.0034 0.1791 
9 15 13 17.4425 0.1360 
9 15 14 -8.4179 -0.1663 
9 15 15 8.7690 -0.3174 
9 15 16 -12.5992 0.0572 
9 15 17 4.2356 0.1738 
9 15 18 -4.9254 -0.0186 
9 15 19 -3.0758 0.1154 
9 15 20 11.1432 0.1408 
9 15 21 4.3327 -0.0168 
9 15 22 12.2899 0.3359 
9 17 0 -5.0835 -0.1575 
9 17 1 -12.8233 -0.2138 
9 17 2 -13.6745 0.1904 
9 17 3 -6.7576 0.0454 
9 17 4 -7.6231 0.1071 
9 17 5 -11.6846 -0.1279 
9 17 6 5.1684 -0.2926 
9 17 7 -11.4683 -0.0155 
9 17 8 -17.8056 0.1513 
9 17 9 -0.5014 0.2129 
9 17 10 9.3071 -0.0906 
9 17 11 -14.1051 -0.1170 
9 17 12 -7.6660 0.1216 
9 17 13 3.1764 -0.0428 
9 17 14 -2.6170 0.0125 
9 17 15 0.9572 0.0001 
9 17 16 -0.0688 0.2352 
9 17 17 8.2446 -0.0484 
9 17 18 1.4649 -0.0913 
9 17 19 9.4607 -0.1569 
9 17 20 9.6615 0.0047 
9 17 21 -4.9242 -0.1365 
9 19 0 7.4072 0.1394 
9 19 1 6.9935 -0.1192 
9 19 2 -2.8774 0.0683 
9 19 3 -4.5998 -0.0433 
9 19 4 -19.8506 0.0851 
9 19 5 -11.3750 -0.0127 
9 19 6 18.9405 0.1430 
9 19 7 -6.6532 0.0328 
9 19 8 -13.6226 0.0137 
9 19 9 -6.6279 -0.1788 
9 19 10 5.0823 -0.1693 
9 19 11 -1.2217 0.0160 
9 19 12 2.2318 0.2595 
9 19 13 -0.3268 0.0047 
9 19 14 -2.5536 -0.0934 
9 19 15 3.4693 -0.1362 
9 19 16 8.8699 0.0316 
9 19 17 0.3068 -0.1980 
9 19 18 -0.8685 0.3033 
9 19 19 -0.6910 -0.2535 
9 19 20 -6.1988 0.3674 
9 21 0 -7.0867 -0.1214 
9 21 1 -9.2306 0.0036 
9 21 2 -6.3024 -0.0568 
9 21 3 -4.9194 0.2492 
9 21 4 -7.8385 -0.1123 
9 21 5 -10.6838 -0.0529 
9 21 6 -5.6970 -0.0545 
9 21 7 1.9997 -0.0352 
9 21 8 7.6152 -0.0645 
9 21 9 -11.5410 0.1718 
9 21 10 6.3294 0.0211 
9 21 11 -3.9871 0.1633 
9 21 12 -2.7385 -0.2694 
9 21 13 4.1087 0.0600 
9 21 14 -3.4082 -0.1019 
9 21 15 -1.3209 0.3152 
9 21 16 4.1298 -0.1359 
9 21 17 2.7882 -0.0755 
9 21 18 12.8049 0.2290 
9 21 19 2.4896 -0.4575 
9 23 0 6.4807 0.1270 
9 23 1 -4.4748 0.1134 
9 23 2 -2.1684 -0.0540 
9 23 3 5.1055 -0.0380 
9 23 4 -4.7099 -0.1541 
9 23 5 -1.6630 0.0727 
9 23 6 14.1974 0.1573 
9 23 7 17.2098 0.0585 
9 23 8 -5.8824 -0.1878 
9 23 9 -16.7374 0.0178 
9 23 10 14.9423 -0.0191 
9 23 11 -11.2282 0.0496 
9 23 12 -2.3928 -0.0719 
9 23 13 -5.2136 0.0002 
9 23 14 -11.4426 -0.1472 
9 23 15 12.2573 0.1403 
9 23 16 -6.2730 -0.7798 
9 23 17 3.6848 0.5345 
9 25 0 -5.5465 -0.0532 
9 25 1 -0.1698 -0.1487 
9 25 2 3.0735 0.1413 
9 25 3 -5.3089 0.0424 
9 25 4 -2.9028 0.1204 
9 25 5 11.4541 -0.0601 
9 25 6 0.0198 0.1463 
9 25 7 -5.8898 -0.1075 
9 25 8 7.9059 -0.0503 
9 25 9 -6.0071 0.0087 
9 25 10 17.1877 0.2677 
9 25 11 -8.9040 -0.1618 
9 25 12 -14.5778 0.0148 
9 25 13 -3.0968 -0.0994 
9 25 14 4.6540 0.2398 
9 25 15 5.5668 0.2254 
9 27 0 -1.1445 -0.0304 
9 27 1 6.2963 -0.0860 
9 27 2 -3.6012 0.1269 
9 27 3 -4.4939 0.0537 
9 27 4 -3.5585 -0.1426 
9 27 5 -7.9755 -0.1257 
9 27 6 -8.7019 -0.0039 
9 27 7 -16.7173 0.1152 
9 27 8 -0.2274 0.0483 
9 27 9 -7.3947 -0.0841 
9 27 10 0.0207 0.0509 
9 27 11 -3.6118 -0.0704 
9 27 12 -0.1844 0.3166 
9 27 13 -13.0388 -0.2735 
9 29 0 -0.4599 -0.1378 
9 29 1 -2.9958 -0.1107 
9 29 2 -2.1467 -0.0719 
9 29 3 0.4643 0.1640 
9 29 4 1.8600 -0.0322 
9 29 5 -3.4476 0.0939 
9 29 6 10.6006 -0.2343 
9 29 7 -3.3337 0.0420 
9 29 8 9.2078 -0.1191 
9 29 9 -11.3535 -0.0241 
9 29 10 -2.9780 -0.0571 
9 29 11 5.0817 0.0132 
9 31 0 -17.0708 -0.0960 
9 31 1 -2.5493 -0.0015 
9 31 2 10.3663 0.0211 
9 31 3 -8.1356 -0.0305 
9 31 4 -3.5545 0.0178 
9 31 5 -2.0625 -0.1995 
9 31 6 11.1172 -0.0734 
9 31 7 5.4974 0.3849 
10 0 0 157.4377 1.3702 
10 0 1 151.8203 4.8712 
10 0 2 15.5425 -2.6697 
10 0 3 -64.3025 0.9997 
10 0 4 16.0306 -2.2882 
10 0 5 -53.1584 -0.3053 
10 0 6 24.7603 -0.6866 
10 0 7 11.5192 2.6499 
10 0 8 6.3511 0.8198 
10 0 9 47.3860 1.0335 
10 0 10 -31.9147 -2.3021 
10 0 11 -7.1772 -1.0063 
10 0 12 16.9681 -2.0889 
10 0 13 16.8810 1.8746 
10 0 14 15.2583 1.0984 
10 0 15 -10.2948 1.8477 
10 0 16 8.9306 -2.4777 
10 0 17 -13.5699 -0.1174 
10 0 18 10.3382 -0.3104 
10 0 19 -25.8713 1.8506 
10 0 20 -6.7772 -1.2422 
10 0 21 -29.1221 -0.5368 
10 0 22 3.1887 -0.5789 
10 0 23 13.8307 1.7072 
10 0 24 -19.9451 -0.1745 
10 0 25 7.7810 0.4640 
10 2 0 11.2442 1.5069 
10 2 1 -71.0159 -1.1978 
10 2 2 -9.6214 -1.4256 
10 2 3 -0.8243 1.2033 
10 2 4 13.9002 0.8530 
10 2 5 23.6162 0.8706 
10 2 6 5.4070 -0.9422 
10 2 7 -29.8089 -0.2981 
10 2 8 -34.9774 -0.6336 
10 2 9 -4.6945 -0.0826 
10 2 10 -19.9352 0.8521 
10 2 11 3.5199 1.1303 
10 2 12 3.6680 -0.2588 
10 2 13 3.5003 -0.4758 
10 2 14 14.7085 -0.4785 
10 2 15 14.6677 0.6145 
10 2 16 19.9193 -0.4625 
10 2 17 -5.4565 0.0807 
10 2 18 14.5463 -0.0394 
10 2 19 -22.8235 0.6022 
10 2 20 2.2041 -0.3354 
10 2 21 1.8398 0.0199 
10 2 22 1.9965 -0.2381 
10 2 23 -2.0451 0.4908 
10 2 24 -1.6519 -0.3245 
10 2 25 9.6336 -0.9048 
10 4 0 54.6743 0.2471 
10 4 1 -58.5996 -0.2171 
10 4 2 -16.8760 0.6903 
10 4 3 -3.8170 -0.1445 
10 4 4 -7.1526 -0.1143 
10 4 5 -27.8105 -1.1300 
10 4 6 -40.2661 0.3734 
10 4 7 -15.8247 0.7047 
10 4 8 -21.6925 0.8690 
10 4 9 -14.4110 -0.7603 
10 4 10 -22.7244 -0.3075 
10 4 11 -10.6246 -0.2369 
10 4 12 4.1196 0.3928 
10 4 13 11.1357 -0.1292 
10 4 14 1.4399 0.1157 
10 4 15 -4.8646 0.0492 
10 4 16 6.5535 0.2262 
10 4 17 3.9080 -0.1196 
10 4 18 4.9953 -0.0969 
10 4 19 5.0495 0.0486 
10 4 20 7.0164 0.0349 
10 4 21 -14.4530 -0.0292 
10 4 22 1.3480 -0.1816 
10 4 23 0.3797 0.1726 
10 4 24 -2.6078 0.0574 
10 4 25 4.7925 -0.5613 
10 6 0 79.5881 -0.7430 
10 6 1 59.0941 -0.1473 
10 6 2 41.2699 0.0661 
10 6 3 -3.6220 0.4616 
10 6 4 -1.3809 -0.0885 
10 6 5 10.8604 0.2529 
10 6 6 12.4625 -0.0575 
10 6 7 -10.8620 0.1261 
10 6 8 -8.9336 -0.4821 
10 6 9 9.7713 -0.0496 
10 6 10 -20.5905 0.0911 
10 6 11 -19.7849 0.4335 
10 6 12 2.9098 0.2318 
10 6 13 6.9471 -0.2548 
10 6 14 -0.4025 -0.3824 
10 6 15 -5.4011 0.0545 
10 6 16 -2.6733 0.2854 
10 6 17 -10.8733 0.1048 
10 6 18 -2.8745 -0.2292 
10 6 19 3.2767 -0.0897 
10 6 20 2.3815 0.0267 
10 6 21 -7.4629 0.1212 
10 6 22 5.6202 -0.2064 
10 6 23 14.3784 0.2850 
10 6 24 -0.3777 -0.2347 
10 8 0 81.7060 -0.5219 
10 8 1 36.2204 0.4404 
10 8 2 52.8205 0.0265 
10 8 3 24.7175 0.1793 
10 8 4 -13.9391 -0.6518 
10 8 5 21.1330 0.1794 
10 8 6 -25.0057 -0.4421 
10 8 7 10.7348 0.5805 
10 8 8 -9.4301 -0.2379 
10 8 9 2.5626 0.4982 
10 8 10 6.2578 -0.6025 
10 8 11 -10.3607 0.1751 
10 8 12 15.3764 -0.3029 
10 8 13 1.6999 0.4305 
10 8 14 -7.5103 -0.0515 
10 8 15 0.6525 0.1636 
10 8 16 -4.1268 -0.0668 
10 8 17 4.1274 -0.0099 
10 8 18 10.4677 -0.0603 
10 8 19 4.1767 -0.0730 
10 8 20 19.9845 0.1546 
10 8 21 -1.7310 0.0100 
10 8 22 -1.2968 -0.0041 
10 8 23 3.6026 0.2548 
10 8 24 6.7726 -0.6770 
10 10 0 93.2458 0.4660 
10 10 1 11.0107 0.0150 
10 10 2 -31.0183 -0.2923 
10 10 3 -18.0043 -0.1350 
10 10 4 -32.2123 0.0546 
10 10 5 -1.4738 0.4523 
10 10 6 -11.8920 -0.0082 
10 10 7 26.3199 -0.2346 
10 10 8 -8.8351 -0.2932 
10 10 9 -9.1529 0.2783 
10 10 10 -0.6830 0.0673 
10 10 11 -10.8422 0.0846 
10 10 12 0.1983 -0.1866 
10 10 13 -2.2809 0.1205 
10 10 14 7.3931 -0.0578 
10 10 15 0.3117 -0.1793 
10 10 16 -1.6739 -0.0120 
10 10 17 -2.7724 0.0381 
10 10 18 12.4896 -0.0005 
10 10 19 8.2890 0.0247 
10 10 20 14.9813 0.0212 
10 10 21 1.1892 -0.0654 
10 10 22 0.1798 0.2111 
10 10 23 3.0114 -0.4445 
10 12 0 -14.9794 0.1574 
10 12 1 -17.1527 0.1677 
10 12 2 -7.9747 0.0742 
10 12 3 11.4798 -0.2162 
10 12 4 -11.0421 -0.1523 
10 12 5 -16.4374 0.2162 
10 12 6 -25.3731 -0.0108 
10 12 7 -13.4282 -0.1920 
10 12 8 -12.4169 0.0169 
10 12 9 4.3624 0.2514 
10 12 10 -6.4674 -0.0082 
10 12 11 -4.1614 -0.3104 
10 12 12 22.3835 -0.0415 
10 12 13 -12.8446 0.1383 
10 12 14 -2.7817 0.3488 
10 12 15 7.0764 -0.1704 
10 12 16 5.5561 0.0295 
10 12 17 -15.0199 0.0622 
10 12 18 -4.8307 -0.0217 
10 12 19 -8.3838 0.0188 
10 12 20 0.9399 -0.0295 
10 12 21 11.1151 -0.2652 
10 12 22 -8.5233 0.1044 
10 12 23 8.9721 -0.2910 
10 14 0 -50.2481 0.0001 
10 14 1 -14.2277 0.0700 
10 14 2 37.4718 -0.0378 
10 14 3 -30.5611 -0.1167 
10 14 4 -18.0539 -0.0624 
10 14 5 -5.6595 0.3694 
10 14 6 -5.3034 -0.1676 
10 14 7 3.7582 0.0915 
10 14 8 2.4964 -0.2530 
10 14 9 -5.8295 0.1966 
10 14 10 -1.9904 -0.2130 
10 14 11 4.0727 0.1607 
10 14 12 11.8005 -0.1128 
10 14 13 -12.7213 0.2232 
10 14 14 6.2853 -0.2507 
10 14 15 5.1122 -0.0338 
10 14 16 -17.3883 -0.1305 
10 14 17 -0.4784 0.1317 
10 14 18 5.5059 -0.1090 
10 14 19 12.7938 0.0970 
10 14 20 1.5084 0.0611 
10 14 21 -0.4162 0.1136 
10 14 22 3.5882 -0.1069 
10 16 0 -8.7141 -0.2603 
10 16 1 -15.2822 -0.0824 
10 16 2 10.1224 0.1891 
10 16 3 -1.4664 0.1223 
10 16 4 1.2058 0.0220 
10 16 5 6.2473 -0.1630 
10 16 6 21.4992 -0.0097 
10 16 7 24.1317 0.1361 
10 16 8 1.9657 -0.0541 
10 16 9 -7.5755 0.0970 
10 16 10 10.0380 -0.1413 
10 16 11 -20.9010 0.2616 
10 16 12 -4.1598 -0.0948 
10 16 13 -18.7033 0.1866 
10 16 14 -8.7705 -0.2754 
10 16 15 16.8098 0.1714 
10 16 16 3.0043 -0.0161 
10 16 17 5.5319 0.0892 
10 16 18 0.5783 -0.1283 
10 16 19 0.0342 0.0167 
10 16 20 -9.0818 -0.2506 
10 16 21 -13.6994 0.2087 
10 18 0 6.4436 0.0793 
10 18 1 18.7575 -0.1633 
10 18 2 5.4411 0.1917 
10 18 3 1.6399 -0.1191 
10 18 4 -0.6881 0.0487 
10 18 5 -6.8119 -0.2659 
10 18 6 10.6092 0.3382 
10 18 7 10.4010 -0.0135 
10 18 8 -14.2334 0.0943 
10 18 9 -20.8033 -0.1989 
10 18 10 3.1743 0.0458 
10 18 11 -7.7170 -0.0852 
10 18 12 -2.2033 0.1726 
10 18 13 -14.3957 -0.0908 
10 18 14 -4.0053 -0.0735 
10 18 15 9.1366 -0.0002 
10 18 16 2.9970 -0.0161 
10 18 17 -9.9388 0.0037 
10 18 18 0.7078 0.0875 
10 18 19 6.1215 -0.2366 
10 18 20 6.6287 0.2775 
10 20 0 -2.1486 -0.1463 
10 20 1 -9.7234 -0.0687 
10 20 2 -2.6306 0.0430 
10 20 3 -5.8454 0.1105 
10 20 4 20.0174 0.1546 
10 20 5 7.3295 -0.0077 
10 20 6 7.0356 0.0087 
10 20 7 -3.0608 -0.1704 
10 20 8 -6.4247 0.0604 
10 20 9 -0.5033 -0.0528 
10 20 10 11.0654 0.1552 
10 20 11 -3.3163 -0.0236 
10 20 12 5.8623 0.0834 
10 20 13 2.2387 -0.1451 
10 20 14 17.4557 0.0505 
10 20 15 16.5413 0.0822 
10 20 16 -2.1597 0.0270 
10 20 17 -1.0072 -0.1316 
10 20 18 3.4367 0.0478 
10 20 19 -10.4992 -0.3841 
10 22 0 9.2468 0.1570 
10 22 1 6.4918 0.2570 
10 22 2 11.8781 -0.1227 
10 22 3 -1.2747 -0.0753 
10 22 4 -3.2141 -0.1876 
10 22 5 -22.0516 0.0757 
10 22 6 14.6123 -0.0682 
10 22 7 5.5201 0.0834 
10 22 8 -5.9462 0.0325 
10 22 9 -7.6288 0.0128 
10 22 10 -6.9011 -0.0677 
10 22 11 -17.7468 0.0214 
10 22 12 -0.4936 0.0176 
10 22 13 -4.1828 -0.0118 
10 22 14 -0.8746 0.0563 
10 22 15 1.5296 0.1119 
10 22 16 0.1354 -0.3957 
10 22 17 -5.0822 -0.1597 
10 22 18 14.8163 -0.0532 
10 24 0 10.5489 0.1191 
10 24 1 6.0495 -0.1134 
10 24 2 -3.8658 -0.0848 
10 24 3 -5.0502 -0.0028 
10 24 4 3.0517 0.1771 
10 24 5 0.9771 0.0429 
10 24 6 20.6655 0.0281 
10 24 7 -7.5408 -0.1576 
10 24 8 -9.0880 -0.0537 
10 24 9 -16.2348 0.0644 
10 24 10 -1.5876 0.1692 
10 24 11 -9.3179 0.0049 
10 24 12 1.7557 -0.0291 
10 24 13 1.2807 -0.1658 
10 24 14 12.7767 0.0361 
10 24 15 5.6878 0.0985 
10 24 16 -0.5289 0.0288 
10 26 0 1.2570 0.1175 
10 26 1 4.7480 -0.0368 
10 26 2 -10.5981 0.0349 
10 26 3 -3.6455 -0.0226 
10 26 4 1.1596 0.0144 
10 26 5 -6.6344 -0.2501 
10 26 6 3.9443 0.2085 
10 26 7 4.6318 0.0511 
10 26 8 7.2394 0.1350 
10 26 9 -8.0160 -0.0273 
10 26 10 2.5610 -0.0588 
10 26 11 -4.9518 -0.1764 
10 26 12 5.2296 0.1610 
10 26 13 4.2234 0.3363 
10 26 14 1.5346 0.0132 
10 28 0 1.5653 -0.0832 
10 28 1 3.5139 -0.2504 
10 28 2 -5.2254 0.0474 
10 28 3 0.0528 0.1250 
10 28 4 10.5332 0.1505 
10 28 5 -4.6343 -0.0849 
10 28 6 -11.2769 -0.0071 
10 28 7 9.4837 -0.0981 
10 28 8 7.5335 -0.2323 
10 28 9 -8.4509 0.0708 
10 28 10 -4.7319 -0.2978 
10 28 11 -24.3085 -0.1703 
10 28 12 -3.6239 0.0419 
10 30 0 0.6714 -0.1136 
10 30 1 -7.5792 -0.1255 
10 30 2 0.6853 0.2635 
10 30 3 -2.0881 0.0028 
10 30 4 10.5897 0.0281 
10 30 5 10.9694 -0.0836 
10 30 6 -3.6838 -0.0253 
10 30 7 -13.1675 0.0365 
10 30 8 -0.0170 0.5809 
10 32 0 7.1139 0.5761 
10 32 1 3.8779 -0.2697 
10 32 2 -6.2815 -0.0533 
10 32 3 -13.1231 -0.4862 
11 1 0 35.0770 0.4597 
11 1 1 32.1930 0.5317 
11 1 2 -1.3243 -0.9136 
11 1 3 32.2880 -0.1084 
11 1 4 18.2422 -0.1828 
11 1 5 -21.0476 1.4725 
11 1 6 50.7439 -0.6327 
11 1 7 -9.5305 -0.4174 
11 1 8 8.8677 -0.9293 
11 1 9 -6.9074 1.1630 
11 1 10 -23.1256 0.2646 
11 1 11 14.0317 -0.3915 
11 1 12 8.2321 -0.7170 
11 1 13 4.3119 0.6727 
11 1 14 14.8072 0.3397 
11 1 15 -4.3464 -0.1661 
11 1 16 6.7486 -0.9645 
11 1 17 0.6973 0.4034 
11 1 18 6.5500 0.3648 
11 1 19 13.1199 0.3681 
11 1 20 13.3564 -0.7568 
11 1 21 -11.5453 -0.1586 
11 1 22 -9.1637 0.2218 
11 1 23 5.3794 0.5310 
11 1 24 3.0656 -0.3701 
11 3 0 -72.2753 0.4575 
11 3 1 -108.5546 -0.5212 
11 3 2 67.3666 0.7990 
11 3 3 -2.6865 -0.8148 
11 3 4 -51.4229 0.6456 
11 3 5 17.2820 -0.5984 
11 3 6 -10.0940 0.4668 
11 3 7 16.3143 -0.5380 
11 3 8 31.8266 0.2713 
11 3 9 -8.7622 -0.1526 
11 3 10 4.7131 0.4555 
11 3 11 -7.7705 -0.4031 
11 3 12 -1.8970 0.3054 
11 3 13 -3.3757 -0.3169 
11 3 14 8.7306 0.5217 
11 3 15 17.0076 -0.2743 
11 3 16 -23.6379 0.2782 
11 3 17 -13.7099 -0.3384 
11 3 18 2.9378 0.3045 
11 3 19 -2.7287 -0.2009 
11 3 20 18.5983 0.3086 
11 3 21 12.2111 -0.0711 
11 3 22 7.7398 -0.0537 
11 3 23 0.5219 -0.1543 
11 3 24 6.9271 -0.2443 
11 5 0 93.2681 0.0947 
11 5 1 -20.4074 -0.5109 
11 5 2 16.0191 0.1692 
11 5 3 3.4684 -0.3637 
11 5 4 -8.0491 0.3497 
11 5 5 4.0168 -0.5600 
11 5 6 22.2353 0.7039 
11 5 7 -19.4421 -0.3246 
11 5 8 4.3343 0.4979 
11 5 9 14.2594 -0.9195 
11 5 10 -5.8320 0.5367 
11 5 11 -17.2168 -0.1798 
11 5 12 1.7612 0.5148 
11 5 13 -2.6676 -0.5566 
11 5 14 12.5755 -0.0116 
11 5 15 23.5198 -0.2879 
11 5 16 -9.5970 0.5814 
11 5 17 -8.0929 -0.0352 
11 5 18 10.8273 -0.0691 
11 5 19 3.1347 -0.3612 
11 5 20 -0.3406 0.1698 
11 5 21 -2.7598 0.0469 
11 5 22 2.8413 -0.2013 
11 5 23 -6.9630 -0.0292 
11 5 24 1.9143 0.1101 
11 7 0 13.1268 -0.2907 
11 7 1 6.3261 0.1556 
11 7 2 24.3221 0.1873 
11 7 3 59.2459 0.5586 
11 7 4 39.2511 -0.1966 
11 7 5 -39.9585 -0.2577 
11 7 6 13.6518 -0.2229 
11 7 7 5.5312 0.3348 
11 7 8 -0.5662 0.1657 
11 7 9 -5.2187 -0.1282 
11 7 10 -14.3495 -0.0736 
11 7 11 -6.4162 -0.0593 
11 7 12 13.5214 0.2344 
11 7 13 -2.3356 -0.0674 
11 7 14 -1.5904 0.0537 
11 7 15 -2.4516 0.0273 
11 7 16 6.9323 0.1537 
11 7 17 22.7933 -0.0359 
11 7 18 3.0406 -0.2821 
11 7 19 -3.7967 0.1598 
11 7 20 9.6046 0.1757 
11 7 21 -7.5220 -0.0780 
11 7 22 4.6293 -0.1781 
11 7 23 -2.6985 0.0645 
11 7 24 7.0265 -0.2850 
11 9 0 49.3057 0.1664 
11 9 1 43.4414 -0.2076 
11 9 2 33.4806 -0.0354 
11 9 3 3.9946 -0.1274 
11 9 4 -0.3728 -0.1852 
11 9 5 -7.1255 0.2442 
11 9 6 21.5875 0.0869 
11 9 7 -9.1482 0.0002 
11 9 8 6.7622 -0.0752 
11 9 9 -12.3789 -0.1735 
11 9 10 7.6018 0.0081 
11 9 11 -1.6076 0.0957 
11 9 12 10.2431 0.0175 
11 9 13 11.3999 0.0815 
11 9 14 6.1954 -0.1247 
11 9 15 22.0415 -0.0388 
11 9 16 7.7709 -0.0009 
11 9 17 -1.2793 -0.0080 
11 9 18 -3.1383 -0.0167 
11 9 19 -5.9922 -0.0075 
11 9 20 20.1675 -0.1258 
11 9 21 -0.0090 -0.0883 
11 9 22 -7.1605 0.3061 
11 9 23 -2.1478 0.3820 
11 11 0 14.2861 0.0509 
11 11 1 46.0540 -0.1616 
11 11 2 -27.0923 0.3995 
11 11 3 5.3755 -0.0003 
11 11 4 28.7776 0.1233 
11 11 5 -5.6572 -0.1628 
11 11 6 10.4051 0.0734 
11 11 7 -25.5021 -0.3252 
11 11 8 -6.2299 0.2139 
11 11 9 -12.0459 0.1085 
11 11 10 5.5333 0.2801 
11 11 11 3.5307 -0.3703 
11 11 12 22.1601 -0.0452 
11 11 13 -3.1072 0.0368 
11 11 14 -4.1760 0.3375 
11 11 15 -2.3604 -0.2322 
11 11 16 3.9345 0.0048 
11 11 17 4.3716 -0.1646 
11 11 18 -10.0768 0.0791 
11 11 19 -8.1201 0.0426 
11 11 20 7.9685 0.0363 
11 11 21 -13.3230 -0.2086 
11 11 22 -6.0598 0.3173 
11 11 23 0.7138 -0.5912 
11 13 0 12.4256 0.1793 
11 13 1 30.2490 0.0218 
11 13 2 -5.4036 -0.1262 
11 13 3 -13.5115 -0.3455 
11 13 4 12.1911 -0.1010 
11 13 5 -5.2671 0.2914 
11 13 6 -14.6787 0.3356 
11 13 7 -3.3841 -0.0743 
11 13 8 20.4342 -0.2534 
11 13 9 -15.9243 0.0516 
11 13 10 -3.2208 0.0058 
11 13 11 -3.7370 -0.0516 
11 13 12 -8.5244 -0.0233 
11 13 13 4.7805 0.0231 
11 13 14 0.9332 0.0082 
11 13 15 -2.4468 -0.1726 
11 13 16 14.6134 -0.0043 
11 13 17 -1.3173 -0.0204 
11 13 18 -5.4571 0.2587 
11 13 19 9.0862 -0.2234 
11 13 20 20.7092 0.0714 
11 13 21 25.1656 -0.0602 
11 13 22 1.3524 0.5231 
11 15 0 0.9647 -0.2920 
11 15 1 -1.4326 0.1043 
11 15 2 15.1134 0.2171 
11 15 3 -10.9553 0.1584 
11 15 4 10.6232 -0.0794 
11 15 5 7.2233 0.0301 
11 15 6 -18.6716 -0.1864 
11 15 7 -1.8428 0.0029 
11 15 8 8.3126 -0.2346 
11 15 9 -18.6670 0.3496 
11 15 10 -14.7525 -0.1023 
11 15 11 -21.8525 0.1099 
11 15 12 -7.1522 -0.1346 
11 15 13 4.1439 0.0852 
11 15 14 -4.5876 -0.0223 
11 15 15 4.7673 0.1122 
11 15 16 -0.6989 -0.1624 
11 15 17 10.2166 0.0580 
11 15 18 1.7599 -0.2214 
11 15 19 -6.7981 -0.1391 
11 15 20 -11.7498 0.0831 
11 15 21 -15.5141 0.1317 
11 17 0 5.2594 0.0273 
11 17 1 -3.7564 -0.0437 
11 17 2 -3.0548 -0.0714 
11 17 3 19.5430 -0.0565 
11 17 4 6.3670 -0.0517 
11 17 5 0.9393 -0.0780 
11 17 6 4.3784 0.2576 
11 17 7 3.4264 0.0418 
11 17 8 10.6934 0.0025 
11 17 9 6.8806 -0.1788 
11 17 10 -10.1491 0.0022 
11 17 11 -8.1854 0.1036 
11 17 12 3.6277 0.0770 
11 17 13 2.5681 -0.0757 
11 17 14 -0.4502 -0.1052 
11 17 15 -3.7091 -0.0966 
11 17 16 -8.6741 0.0367 
11 17 17 -1.6136 0.0036 
11 17 18 0.1236 0.1034 
11 17 19 -10.6960 -0.0119 
11 17 20 3.6488 0.0046 
11 19 0 3.9736 -0.1687 
11 19 1 2.6554 -0.0574 
11 19 2 -6.5199 0.1222 
11 19 3 11.6117 0.1654 
11 19 4 -9.7383 0.0330 
11 19 5 -10.0305 -0.2429 
11 19 6 10.5243 -0.0638 
11 19 7 -12.0524 -0.0843 
11 19 8 -6.7392 0.2258 
11 19 9 1.7311 -0.1191 
11 19 10 14.9154 0.1620 
11 19 11 4.1959 -0.1721 
11 19 12 4.5397 0.1037 
11 19 13 -1.0128 -0.2551 
11 19 14 14.4865 0.1243 
11 19 15 16.1894 0.0409 
11 19 16 -5.6043 -0.0324 
11 19 17 -2.6499 -0.2215 
11 19 18 12.6389 0.1675 
11 19 19 -0.8776 -0.1570 
11 21 0 0.0282 -0.0433 
11 21 1 -0.3634 0.2234 
11 21 2 5.1047 -0.2805 
11 21 3 6.5139 0.0269 
11 21 4 -4.1826 -0.1075 
11 21 5 4.2182 0.1939 
11 21 6 -2.4548 -0.0657 
11 21 7 -8.0003 0.1083 
11 21 8 16.3828 -0.0537 
11 21 9 1.0187 -0.1563 
11 21 10 10.0650 -0.0314 
11 21 11 -4.8091 0.0807 
11 21 12 2.7863 0.0884 
11 21 13 -0.7472 -0.0412 
11 21 14 6.1396 -0.0608 
11 21 15 0.2284 0.0442 
11 21 16 2.4876 0.0496 
11 21 17 2.3518 -0.0839 
11 21 18 7.9233 0.3984 
11 23 0 4.0521 0.0665 
11 23 1 -18.5727 0.1347 
11 23 2 -6.3276 -0.0642 
11 23 3 0.1313 0.0379 
11 23 4 -8.9665 -0.0120 
11 23 5 9.6574 0.0206 
11 23 6 5.1646 -0.2665 
11 23 7 1.0698 0.0615 
11 23 8 6.8898 -0.0440 
11 23 9 -9.8653 0.1301 
11 23 10 4.7747 -0.1144 
11 23 11 0.8545 -0.0063 
11 23 12 13.4804 -0.0726 
11 23 13 0.4778 -0.0491 
11 23 14 7.4133 0.1316 
11 23 15 3.2236 0.1601 
11 23 16 -0.0531 0.0778 
11 25 0 4.5230 0.0935 
11 25 1 0.4799 -0.0926 
11 25 2 -1.2468 0.0077 
11 25 3 -9.0655 -0.1390 
11 25 4 12.6227 0.0414 
11 25 5 32.6808 0.0283 
11 25 6 6.2427 0.0456 
11 25 7 -7.6793 0.0421 
11 25 8 8.5980 0.0216 
11 25 9 2.7838 0.0049 
11 25 10 13.7616 -0.0481 
11 25 11 3.4807 0.1065 
11 25 12 -6.4415 0.0469 
11 25 13 -5.9525 -0.0699 
11 25 14 10.4697 0.0683 
11 25 15 -1.8262 -0.1152 
11 27 0 1.0690 -0.1132 
11 27 1 -1.5817 0.0517 
11 27 2 12.6220 -0.0618 
11 27 3 -6.7390 0.0565 
11 27 4 -0.5946 0.0318 
11 27 5 11.1351 -0.0690 
11 27 6 7.6415 0.0259 
11 27 7 -7.3337 -0.0023 
11 27 8 -4.3148 0.1189 
11 27 9 1.8346 0.0147 
11 27 10 1.8878 -0.4100 
11 27 11 -3.5457 0.0571 
11 27 12 -3.2829 -0.6490 
11 29 0 6.8945 -0.2049 
11 29 1 2.0044 0.1307 
11 29 2 3.8693 -0.2473 
11 29 3 -13.8640 0.2781 
11 29 4 -3.6659 0.0500 
11 29 5 3.9606 -0.0408 
11 29 6 16.0831 0.0780 
11 29 7 4.9503 -0.0374 
11 29 8 -5.7768 0.0868 
11 29 9 -7.5287 0.0385 
11 31 0 -29.0487 0.0669 
11 31 1 -13.7357 0.1748 
11 31 2 0.9634 -0.4790 
11 31 3 -5.2891 -0.0327 
11 31 4 4.7143 0.1266 
11 31 5 0.1106 0.2446 
12 0 0 13.4254 -3.5879 
12 0 1 -12.4718 2.4470 
12 0 2 12.5722 -6.0842 
12 0 3 60.9970 0.4113 
12 0 4 68.4174 1.0743 
12 0 5 77.2609 3.1251 
12 0 6 54.1342 -3.5144 
12 0 7 -7.7477 -0.8591 
12 0 8 32.4424 0.2205 
12 0 9 13.7555 3.6491 
12 0 10 6.8252 -1.6155 
12 0 11 -7.4445 -1.5054 
12 0 12 -28.4914 -2.0827 
12 0 13 -14.6226 1.2447 
12 0 14 3.0108 0.8242 
12 0 15 13.5757 1.1888 
12 0 16 27.3593 -0.4533 
12 0 17 3.5358 -0.1011 
12 0 18 9.8911 -1.5355 
12 0 19 -0.2925 0.2099 
12 0 20 16.8289 -0.5138 
12 0 21 -4.5471 1.0296 
12 0 22 3.4751 0.2630 
12 0 23 2.0677 0.5728 
12 0 24 -16.8391 -0.5635 
12 2 0 66.9284 0.7605 
12 2 1 15.4879 1.7690 
12 2 2 112.8111 -1.3153 
12 2 3 -5.3500 0.2278 
12 2 4 -72.2621 -0.1982 
12 2 5 0.8543 1.3337 
12 2 6 -19.3614 -1.0836 
12 2 7 -6.1926 0.3850 
12 2 8 8.3967 -0.1897 
12 2 9 -10.8259 0.5476 
12 2 10 6.2391 -1.0184 
12 2 11 -14.8407 0.0933 
12 2 12 -6.7847 0.6980 
12 2 13 7.7832 0.6285 
12 2 14 -4.4615 -0.4928 
12 2 15 -2.5620 -0.7151 
12 2 16 -17.3439 -0.0059 
12 2 17 -9.0642 0.4115 
12 2 18 7.7333 0.3192 
12 2 19 -13.6014 0.1989 
12 2 20 5.0817 -0.0954 
12 2 21 -14.6818 -0.4724 
12 2 22 -15.2890 -0.2261 
12 2 23 -6.4238 0.3220 
12 2 24 -4.3843 0.0044 
12 4 0 116.6603 -0.1414 
12 4 1 -33.4462 -0.5432 
12 4 2 52.6996 -0.2493 
12 4 3 -4.6680 0.1592 
12 4 4 -31.1279 0.3760 
12 4 5 21.3068 -0.0430 
12 4 6 13.4447 -0.3693 
12 4 7 2.6938 -0.1286 
12 4 8 -14.3534 0.3299 
12 4 9 -10.1710 0.0488 
12 4 10 23.4989 -0.0007 
12 4 11 11.1007 -0.2111 
12 4 12 -0.3726 0.2301 
12 4 13 3.4582 -0.3941 
12 4 14 -12.4889 0.0031 
12 4 15 8.3398 0.0716 
12 4 16 2.1757 0.7009 
12 4 17 4.2559 -0.3813 
12 4 18 11.2903 -0.2519 
12 4 19 5.2007 -0.3638 
12 4 20 11.2369 0.4652 
12 4 21 1.3667 0.1499 
12 4 22 5.6937 0.0559 
12 4 23 -5.8255 -0.2170 
12 4 24 3.0993 -0.5752 
12 6 0 -15.7726 -0.0671 
12 6 1 -29.0193 0.0888 
12 6 2 30.0260 0.3982 
12 6 3 12.3766 0.4723 
12 6 4 -6.9228 -0.6913 
12 6 5 -0.5294 -0.0079 
12 6 6 -5.1581 -0.0667 
12 6 7 -15.2403 0.7602 
12 6 8 6.3720 -0.2859 
12 6 9 10.9511 -0.2294 
12 6 10 3.6003 -0.2546 
12 6 11 4.1351 0.4456 
12 6 12 -10.8023 0.1656 
12 6 13 2.9505 0.0030 
12 6 14 0.6791 -0.2082 
12 6 15 13.1703 -0.1169 
12 6 16 -4.6422 0.1214 
12 6 17 -7.3684 0.0651 
12 6 18 9.2231 -0.0381 
12 6 19 -15.0891 0.1633 
12 6 20 2.3806 0.0560 
12 6 21 3.6754 -0.0824 
12 6 22 5.4764 -0.1055 
12 6 23 -2.2035 -0.1618 
12 6 24 -18.1379 -0.2047 
12 8 0 18.4350 -0.3341 
12 8 1 -26.2792 -0.2275 
12 8 2 48.5409 0.1261 
12 8 3 32.0157 0.2317 
12 8 4 14.7847 -0.3631 
12 8 5 17.9726 0.3605 
12 8 6 0.0251 -0.0390 
12 8 7 7.0327 0.4989 
12 8 8 2.2299 -0.6897 
12 8 9 13.1643 0.3556 
12 8 10 -1.1548 -0.1294 
12 8 11 -17.5388 0.5535 
12 8 12 -10.5246 -0.6142 
12 8 13 8.6072 0.2243 
12 8 14 5.3059 -0.1328 
12 8 15 13.8999 0.3578 
12 8 16 0.6077 -0.1019 
12 8 17 1.4291 0.1633 
12 8 18 -1.9268 -0.2352 
12 8 19 -17.4869 -0.0238 
12 8 20 18.0358 0.0419 
12 8 21 5.5862 0.0517 
12 8 22 -5.0037 0.0720 
12 8 23 0.2279 0.1153 
12 10 0 34.1985 0.0877 
12 10 1 -33.2446 -0.0673 
12 10 2 43.1729 0.5557 
12 10 3 59.5168 -0.3532 
12 10 4 -9.6422 -0.0026 
12 10 5 4.0900 -0.0559 
12 10 6 15.3032 0.0818 
12 10 7 -3.8106 -0.1586 
12 10 8 4.5665 -0.0912 
12 10 9 10.6437 0.1556 
12 10 10 9.2546 0.0439 
12 10 11 -26.6083 -0.0245 
12 10 12 -45.6943 -0.3044 
12 10 13 -11.5391 0.4213 
12 10 14 -7.3809 0.1311 
12 10 15 -14.1738 -0.0317 
12 10 16 4.6640 -0.3809 
12 10 17 -1.0451 0.1469 
12 10 18 6.1103 0.0665 
12 10 19 -4.9889 0.1162 
12 10 20 -5.7259 -0.1936 
12 10 21 -6.0261 -0.0707 
12 10 22 1.7486 0.2365 
12 10 23 19.3045 0.0105 
12 12 0 33.3069 0.0934 
12 12 1 -5.3332 -0.1349 
12 12 2 10.7128 -0.0392 
12 12 3 13.4191 -0.2809 
12 12 4 -7.9942 0.3057 
12 12 5 -1.3159 0.0090 
12 12 6 10.0158 0.2641 
12 12 7 1.0253 -0.2932 
12 12 8 12.6844 0.0717 
12 12 9 22.6582 0.0950 
12 12 10 4.0904 0.2117 
12 12 11 -4.5958 -0.0495 
12 12 12 -1.6498 -0.1430 
12 12 13 -10.2704 0.0729 
12 12 14 3.2647 0.0162 
12 12 15 -9.8602 -0.1564 
12 12 16 -1.2686 -0.0668 
12 12 17 -2.8577 0.0339 
12 12 18 4.5034 0.0079 
12 12 19 2.6656 0.0418 
12 12 20 1.4657 0.0077 
12 12 21 -12.6727 0.1112 
12 12 22 -26.3452 0.6157 
12 14 0 6.4860 0.0769 
12 14 1 -1.4687 -0.0198 
12 14 2 2.1297 -0.0966 
12 14 3 -21.7379 0.1359 
12 14 4 17.8570 -0.1122 
12 14 5 -5.2572 -0.0574 
12 14 6 -18.9692 0.0013 
12 14 7 -3.3451 0.0017 
12 14 8 12.3982 -0.1366 
12 14 9 -2.2202 0.1826 
12 14 10 4.2246 -0.1332 
12 14 11 -4.0356 0.0007 
12 14 12 -1.3739 -0.1063 
12 14 13 -13.1543 0.1695 
12 14 14 8.3494 -0.1002 
12 14 15 -3.5627 0.2996 
12 14 16 -4.6878 -0.2720 
12 14 17 14.0908 0.0144 
12 14 18 1.7064 -0.0315 
12 14 19 -0.1192 0.0795 
12 14 20 -2.7129 0.0022 
12 14 21 4.6981 -0.1153 
12 16 0 19.2812 -0.1114 
12 16 1 -1.0069 -0.1136 
12 16 2 2.8917 -0.0404 
12 16 3 -6.8460 0.2228 
12 16 4 -7.0373 -0.0042 
12 16 5 -5.1698 -0.0023 
12 16 6 -13.8972 -0.0001 
12 16 7 -13.7174 -0.0083 
12 16 8 0.6643 -0.0523 
12 16 9 0.5952 -0.0620 
12 16 10 0.1190 -0.0672 
12 16 11 -18.4852 0.2337 
12 16 12 3.5933 -0.0108 
12 16 13 -2.2614 0.0224 
12 16 14 5.8788 -0.3458 
12 16 15 0.6559 0.2585 
12 16 16 -8.1953 -0.1451 
12 16 17 -1.6718 0.1479 
12 16 18 0.8264 0.0700 
12 16 19 4.1828 -0.0281 
12 16 20 4.7539 -0.0543 
12 18 0 -2.2518 -0.0434 
12 18 1 1.7358 -0.0149 
12 18 2 -16.4591 0.1813 
12 18 3 -1.1529 0.0302 
12 18 4 -6.7686 0.0402 
12 18 5 1.7696 -0.4197 
12 18 6 -1.8972 0.0420 
12 18 7 -4.0248 0.0856 
12 18 8 24.0780 0.2604 
12 18 9 4.8021 -0.2825 
12 18 10 5.9759 0.0604 
12 18 11 5.4240 -0.0545 
12 18 12 -7.4613 0.1815 
12 18 13 -4.5448 -0.1906 
12 18 14 -3.7732 -0.0081 
12 18 15 -0.2117 0.1540 
12 18 16 1.6354 -0.2160 
12 18 17 -8.1189 -0.0854 
12 18 18 6.1551 0.0536 
12 18 19 -5.2637 -0.1142 
12 20 0 3.2248 0.0170 
12 20 1 -0.5736 -0.0274 
12 20 2 -2.3298 0.0074 
12 20 3 16.4018 0.0229 
12 20 4 3.4754 -0.0137 
12 20 5 -7.3950 -0.0304 
12 20 6 1.6736 0.0125 
12 20 7 -3.2915 0.0384 
12 20 8 4.9936 -0.0393 
12 20 9 -23.3518 -0.1722 
12 20 10 -11.3004 0.1756 
12 20 11 -6.7271 -0.0358 
12 20 12 -11.7700 0.1813 
12 20 13 -13.2250 -0.2968 
12 20 14 -2.9805 -0.0047 
12 20 15 -1.9696 0.0182 
12 20 16 2.8581 0.0138 
12 20 17 -2.7117 0.2132 
12 20 18 -6.4345 0.1892 
12 22 0 1.0289 -0.0097 
12 22 1 -4.3476 0.1057 
12 22 2 12.1193 -0.0507 
12 22 3 24.7744 0.0100 
12 22 4 2.3832 -0.1013 
12 22 5 -10.1214 0.2168 
12 22 6 -0.8205 -0.1627 
12 22 7 -8.1838 0.0482 
12 22 8 11.7440 0.0240 
12 22 9 3.0374 0.0531 
12 22 10 6.3219 -0.0678 
12 22 11 2.3449 -0.0728 
12 22 12 -0.1638 -0.1287 
12 22 13 -4.1113 -0.0180 
12 22 14 4.9911 0.3271 
12 22 15 -0.9432 0.0766 
12 22 16 -3.6366 0.0315 
12 22 17 -14.5962 0.0908 
12 24 0 2.5397 0.1764 
12 24 1 3.7592 0.1147 
12 24 2 2.9528 -0.0123 
12 24 3 -3.6986 -0.1565 
12 24 4 -7.7752 0.0453 
12 24 5 0.1230 0.1100 
12 24 6 -11.3942 -0.0117 
12 24 7 -26.3267 -0.1207 
12 24 8 1.4714 0.0162 
12 24 9 -1.3441 0.0237 
12 24 10 0.9391 -0.0012 
12 24 11 4.5285 -0.0454 
12 24 12 8.7302 0.0140 
12 24 13 -6.3809 -0.1262 
12 24 14 13.6241 0.0738 
12 24 15 -15.0995 -0.5396 
12 26 0 -1.1586 -0.0538 
12 26 1 -3.0325 -0.0163 
12 26 2 1.1961 -0.0553 
12 26 3 -12.4774 -0.0542 
12 26 4 -17.8819 0.0711 
12 26 5 -3.5238 -0.0214 
12 26 6 -8.3837 0.0301 
12 26 7 4.2096 -0.0847 
12 26 8 9.7614 0.1742 
12 26 9 -3.2186 0.0598 
12 26 10 4.8793 -0.0168 
12 26 11 8.8152 -0.0975 
12 26 12 1.0359 0.1167 
12 26 13 -3.1402 0.3661 
12 28 0 -1.1057 0.0229 
12 28 1 -16.7533 0.2404 
12 28 2 -12.9983 -0.1707 
12 28 3 -16.4524 0.0329 
12 28 4 -1.9163 -0.0408 
12 28 5 10.5517 -0.0497 
12 28 6 -5.9383 -0.0700 
12 28 7 8.5617 0.1773 
12 28 8 6.1112 0.1367 
12 28 9 1.4412 -0.0316 
12 28 10 7.8517 0.0555 
12 30 0 7.2598 -0.0157 
12 30 1 -6.5518 -0.1416 
12 30 2 4.2063 -0.1911 
12 30 3 -2.9239 0.1886 
12 30 4 -4.0135 0.0428 
12 30 5 2.6768 0.2456 
12 30 6 0.1906 -0.3816 
12 30 7 5.2148 0.1662 
12 32 0 30.2530 0.5223 
13 1 0 -29.6060 1.9298 
13 1 1 26.6260 0.1402 
13 1 2 -56.2631 -1.6803 
13 1 3 28.6928 1.2762 
13 1 4 -49.6840 -0.3102 
13 1 5 -10.8659 0.5966 
13 1 6 2.9339 -1.5139 
13 1 7 -27.4588 0.5874 
13 1 8 14.5819 -0.2810 
13 1 9 -4.4059 1.3772 
13 1 10 0.3408 -0.8401 
13 1 11 -7.5661 0.0022 
13 1 12 11.2133 -0.7944 
13 1 13 0.2109 0.9929 
13 1 14 -2.7032 -0.0028 
13 1 15 -12.1558 -0.1845 
13 1 16 1.7433 -0.7901 
13 1 17 -2.1595 0.2881 
13 1 18 -7.8706 0.5000 
13 1 19 -7.4745 0.3391 
13 1 20 5.5832 -0.6073 
13 1 21 37.8394 -0.3077 
13 1 22 9.3907 0.2615 
13 1 23 -3.4934 0.1779 
13 1 24 8.5602 -0.0963 
13 3 0 -22.5277 0.4759 
13 3 1 -66.0991 -0.3774 
13 3 2 28.5208 0.0732 
13 3 3 75.4552 -0.2370 
13 3 4 4.8638 0.5059 
13 3 5 49.3352 -0.0556 
13 3 6 2.8936 0.5143 
13 3 7 -0.5213 -0.0796 
13 3 8 16.4293 0.0767 
13 3 9 -11.5092 -0.3315 
13 3 10 7.5391 0.1984 
13 3 11 -15.1737 0.1744 
13 3 12 -3.2610 0.0340 
13 3 13 -25.0697 -0.2798 
13 3 14 16.4627 0.0878 
13 3 15 16.2684 -0.0640 
13 3 16 -4.7561 0.4853 
13 3 17 12.5923 -0.2725 
13 3 18 -2.6272 0.1603 
13 3 19 -3.7424 -0.3818 
13 3 20 -15.0200 0.1577 
13 3 21 6.9178 -0.0794 
13 3 22 -1.8505 0.1275 
13 3 23 -11.9712 0.1778 
13 5 0 4.4866 -0.0724 
13 5 1 14.4348 -0.0115 
13 5 2 2.8006 0.7466 
13 5 3 38.8413 -0.3697 
13 5 4 -46.9259 -0.1637 
13 5 5 14.7532 -0.5997 
13 5 6 19.6678 0.6132 
13 5 7 -25.1864 -0.1352 
13 5 8 18.5202 0.4398 
13 5 9 -0.4810 -0.8399 
13 5 10 -8.6371 0.3203 
13 5 11 -3.2749 -0.1964 
13 5 12 14.2349 0.4468 
13 5 13 -11.1117 -0.2405 
13 5 14 20.5613 0.0922 
13 5 15 15.9140 -0.1619 
13 5 16 -9.0828 0.2266 
13 5 17 -11.4644 -0.1875 
13 5 18 -4.7911 -0.0852 
13 5 19 -2.4233 -0.0287 
13 5 20 -12.4700 0.2182 
13 5 21 4.5690 0.1353 
13 5 22 1.6049 -0.0135 
13 5 23 -2.0114 0.2959 
13 7 0 -26.2702 -0.5670 
13 7 1 -4.3189 -0.1790 
13 7 2 -48.0827 0.2673 
13 7 3 -12.6523 0.0973 
13 7 4 -48.7037 -0.0663 
13 7 5 -17.7150 0.3073 
13 7 6 8.2419 0.1826 
13 7 7 -24.3816 -0.0816 
13 7 8 -30.1079 -0.2548 
13 7 9 -10.3075 0.1029 
13 7 10 -5.0322 0.3291 
13 7 11 -26.2114 0.1917 
13 7 12 -16.1477 -0.0962 
13 7 13 -15.7000 -0.2439 
13 7 14 0.0037 -0.0337 
13 7 15 -9.0459 0.1250 
13 7 16 -15.2365 0.1254 
13 7 17 -1.9782 0.0930 
13 7 18 5.0723 -0.3009 
13 7 19 1.3438 0.2855 
13 7 20 0.0877 -0.1583 
13 7 21 -2.5622 0.2011 
13 7 22 7.2788 0.1016 
13 7 23 -8.0513 -0.8728 
13 9 0 -39.5690 0.0358 
13 9 1 -4.1502 -0.1172 
13 9 2 29.9891 0.1869 
13 9 3 9.2703 -0.2867 
13 9 4 -3.9673 0.0427 
13 9 5 17.0059 -0.2311 
13 9 6 -0.2271 0.0938 
13 9 7 -2.0586 0.0468 
13 9 8 10.5534 0.1037 
13 9 9 -13.9240 0.0506 
13 9 10 11.8476 -0.1595 
13 9 11 -13.2533 -0.2106 
13 9 12 1.6506 0.0357 
13 9 13 1.4029 0.2444 
13 9 14 1.1598 0.1999 
13 9 15 2.7721 -0.0371 
13 9 16 -43.1417 -0.2179 
13 9 17 -16.3345 0.1539 
13 9 18 5.3561 0.0259 
13 9 19 -15.1589 0.1748 
13 9 20 17.6203 -0.0773 
13 9 21 4.6775 0.0161 
13 9 22 1.2328 -0.0117 
13 9 23 -1.1283 -0.6527 
13 11 0 8.5757 0.0428 
13 11 1 31.4692 -0.3127 
13 11 2 4.6831 0.0397 
13 11 3 -6.2718 -0.1419 
13 11 4 -13.0972 0.5994 
13 11 5 17.1662 -0.2160 
13 11 6 23.3556 0.1879 
13 11 7 -9.9530 -0.6256 
13 11 8 19.8615 0.1484 
13 11 9 -5.9017 -0.0167 
13 11 10 0.8362 0.4530 
13 11 11 -7.2906 -0.1723 
13 11 12 -10.4733 0.0643 
13 11 13 -8.6717 -0.2161 
13 11 14 16.4700 0.1880 
13 11 15 12.1148 -0.1962 
13 11 16 -0.8981 0.0368 
13 11 17 6.0905 -0.0610 
13 11 18 0.9706 0.2125 
13 11 19 -3.0909 -0.1371 
13 11 20 3.2160 -0.0030 
13 11 21 -3.7552 -0.0850 
13 11 22 20.6655 -0.1091 
13 13 0 -21.2310 0.0567 
13 13 1 -5.0355 0.1017 
13 13 2 0.5366 -0.1145 
13 13 3 17.6566 -0.0531 
13 13 4 4.6146 -0.0559 
13 13 5 9.2875 -0.1974 
13 13 6 14.3388 0.1190 
13 13 7 -16.9572 -0.0173 
13 13 8 24.3569 0.3503 
13 13 9 -18.9906 -0.1742 
13 13 10 -1.9644 -0.0219 
13 13 11 0.9111 -0.1610 
13 13 12 -25.0173 0.1184 
13 13 13 -16.8230 0.1293 
13 13 14 4.7274 0.2245 
13 13 15 2.6087 -0.1300 
13 13 16 -1.7043 -0.0679 
13 13 17 -14.7220 -0.2545 
13 13 18 -9.5646 0.2880 
13 13 19 -11.8177 -0.2809 
13 13 20 -15.1139 0.1013 
13 13 21 -4.2329 -0.0258 
13 15 0 10.8774 -0.1939 
13 15 1 4.0425 -0.1525 
13 15 2 -13.6962 -0.0985 
13 15 3 0.9907 0.3389 
13 15 4 0.0919 -0.0133 
13 15 5 0.7085 0.0557 
13 15 6 -7.2716 -0.1508 
13 15 7 2.0094 0.0958 
13 15 8 12.5439 -0.2205 
13 15 9 -12.6389 -0.0743 
13 15 10 14.1658 0.0902 
13 15 11 0.4858 0.1711 
13 15 12 5.0943 0.0217 
13 15 13 -6.0827 -0.3455 
13 15 14 9.8786 -0.1022 
13 15 15 6.5442 0.1952 
13 15 16 7.3292 -0.0290 
13 15 17 10.5086 0.1172 
13 15 18 -5.0186 0.1897 
13 15 19 -3.2834 0.0835 
13 15 20 -6.8877 0.1680 
13 17 0 -5.1528 -0.0175 
13 17 1 1.0515 0.1029 
13 17 2 0.9070 0.1559 
13 17 3 6.4232 0.1022 
13 17 4 -17.6948 -0.2889 
13 17 5 1.1896 -0.1125 
13 17 6 2.3187 0.1291 
13 17 7 18.4726 0.2175 
13 17 8 4.8258 0.0635 
13 17 9 -14.0968 -0.2395 
13 17 10 -2.1933 -0.0040 
13 17 11 -2.3861 0.0292 
13 17 12 0.5251 0.1339 
13 17 13 -0.8189 -0.0931 
13 17 14 -1.8333 0.1121 
13 17 15 -0.7946 0.0943 
13 17 16 8.6854 -0.0190 
13 17 17 1.0202 -0.2653 
13 17 18 0.9464 0.0476 
13 17 19 -9.2941 -0.3515 
13 17 20 2.2776 -0.4081 
13 19 0 -8.2700 -0.0102 
13 19 1 3.5928 -0.0165 
13 19 2 -3.2802 0.0908 
13 19 3 -8.4614 0.0377 
13 19 4 -11.7124 0.0631 
13 19 5 3.7575 -0.0324 
13 19 6 -5.8090 -0.0204 
13 19 7 -11.0312 -0.0324 
13 19 8 -11.0414 -0.1159 
13 19 9 -14.8004 -0.0488 
13 19 10 8.2913 0.1274 
13 19 11 1.0092 0.0618 
13 19 12 -3.8124 0.1217 
13 19 13 -8.0673 -0.3111 
13 19 14 -0.5950 0.0642 
13 19 15 -0.3840 -0.1310 
13 19 16 -0.2176 0.2419 
13 19 17 -2.2132 -0.0779 
13 19 18 13.8972 -0.0824 
13 21 0 -0.8875 0.0423 
13 21 1 -6.3470 0.0715 
13 21 2 3.7754 -0.0976 
13 21 3 -2.3051 0.0444 
13 21 4 -2.0140 -0.0486 
13 21 5 2.2158 0.1001 
13 21 6 -4.9206 -0.1864 
13 21 7 1.5068 0.2286 
13 21 8 26.6917 0.0229 
13 21 9 -3.0903 0.2090 
13 21 10 -10.9896 -0.2160 
13 21 11 1.9086 0.0411 
13 21 12 3.4771 -0.0897 
13 21 13 -1.5720 0.2083 
13 21 14 6.6080 0.1380 
13 21 15 -5.8303 0.0193 
13 21 16 4.2956 0.0700 
13 21 17 -1.5607 -0.5586 
13 23 0 1.2060 0.1176 
13 23 1 -9.6676 0.0574 
13 23 2 9.7494 -0.1772 
13 23 3 -15.4343 -0.0193 
13 23 4 -36.2357 0.1196 
13 23 5 -18.3461 0.1741 
13 23 6 11.2017 -0.0888 
13 23 7 1.7663 0.0111 
13 23 8 -8.5592 -0.0729 
13 23 9 -10.8674 0.0980 
13 23 10 -1.7109 -0.0069 
13 23 11 8.3334 0.0806 
13 23 12 4.9286 -0.3236 
13 23 13 -13.3312 0.1452 
13 23 14 5.9427 -0.3229 
13 23 15 -0.9454 -0.1845 
13 25 0 2.2795 0.0600 
13 25 1 -1.9353 -0.0337 
13 25 2 3.0497 -0.0238 
13 25 3 -9.2382 -0.0340 
13 25 4 11.2511 0.0920 
13 25 5 5.2754 0.0320 
13 25 6 3.2113 -0.0706 
13 25 7 2.7399 -0.0738 
13 25 8 -4.3725 0.1085 
13 25 9 3.6709 -0.0219 
13 25 10 1.0053 0.2121 
13 25 11 -7.6557 -0.2381 
13 25 12 -7.2820 0.0270 
13 25 13 -7.6845 0.5484 
13 25 14 9.0675 0.2125 
13 27 0 -7.1076 -0.0655 
13 27 1 -18.6983 0.1551 
13 27 2 9.2728 -0.1179 
13 27 3 -2.7700 -0.0180 
13 27 4 18.6863 -0.1550 
13 27 5 0.5950 0.1545 
13 27 6 -9.0374 -0.0520 
13 27 7 6.5595 -0.1351 
13 27 8 6.6437 0.2449 
13 27 9 8.6873 -0.1284 
13 27 10 -5.8810 0.1322 
13 27 11 -12.5210 -0.1841 
13 29 0 6.9118 -0.1614 
13 29 1 -2.5689 0.3235 
13 29 2 6.5313 -0.1336 
13 29 3 -4.3107 0.2289 
13 29 4 -3.0815 -0.1342 
13 29 5 -5.5412 0.0231 
13 29 6 0.9495 -0.1604 
13 29 7 1.2020 -0.1142 
13 29 8 -11.7100 -0.0533 
13 31 0 -1.7168 -0.1354 
13 31 1 -10.4713 0.2846 
13 31 2 -6.7048 -0.2552 
13 31 3 -3.5093 -0.1662 
14 0 0 36.7950 1.1094 
14 0 1 -1.8644 2.6390 
14 0 2 -54.4494 -3.9973 
14 0 3 -31.1763 -1.4588 
14 0 4 -13.8616 -0.4622 
14 0 5 -2.2932 3.3339 
14 0 6 -11.9113 -0.0466 
14 0 7 -7.4062 0.4243 
14 0 8 15.3026 -2.2681 
14 0 9 6.5817 0.9518 
14 0 10 -1.5479 -1.7994 
14 0 11 19.5664 0.2500 
14 0 12 -10.2758 -0.0937 
14 0 13 -22.0980 3.2197 
14 0 14 13.1798 -0.6421 
14 0 15 -12.9296 -1.1111 
14 0 16 -2.0013 -1.6869 
14 0 17 -2.3334 1.7567 
14 0 18 -4.6619 0.2437 
14 0 19 -21.3561 -0.2166 
14 0 20 -11.7077 -1.5946 
14 0 21 -11.3024 0.9136 
14 0 22 11.7578 0.6514 
14 0 23 5.4261 0.5413 
14 2 0 -8.9681 0.6576 
14 2 1 -31.3668 0.0981 
14 2 2 31.7584 0.2348 
14 2 3 12.5464 0.5126 
14 2 5 1.3885 0.4754 
14 2 6 -3.9026 -1.2428 
14 2 7 22.0945 -0.2937 
14 2 8 -3.5952 0.2354 
14 2 9 -0.1567 1.9964 
14 2 10 9.0776 -0.1641 
14 2 11 8.3158 -0.6432 
14 2 12 8.1197 -1.1845 
14 2 13 -11.2065 1.0219 
14 2 14 14.7367 -0.0880 
14 2 15 0.3116 -0.0387 
14 2 16 -17.3030 -0.4402 
14 2 17 -3.4556 0.6150 
14 2 18 7.1333 -0.0250 
14 2 19 7.1800 -0.1050 
14 2 20 13.3728 -0.1933 
14 2 21 -3.1998 0.2318 
14 2 22 7.1770 0.0249 
14 2 23 -5.0107 -0.5975 
14 4 0 -13.0861 0.3918 
14 4 1 -46.6039 -0.2723 
14 4 2 31.6183 -0.0898 
14 4 3 -2.5168 -0.9661 
14 4 4 0.1058 -0.0446 
14 4 5 -20.4003 0.4240 
14 4 6 8.9145 0.9962 
14 4 7 18.5666 -0.2267 
14 4 8 -6.0142 -0.4121 
14 4 9 -10.8181 -0.5455 
14 4 10 2.8498 0.0639 
14 4 11 -15.9829 0.1334 
14 4 12 -15.6172 0.2450 
14 4 13 -25.0135 0.1401 
14 4 14 -12.2591 -0.1269 
14 4 15 1.2366 -0.0294 
14 4 16 -16.8647 0.0503 
14 4 17 -19.9186 0.0521 
14 4 18 7.8979 -0.0644 
14 4 19 10.5093 -0.3076 
14 4 20 -1.5046 0.2075 
14 4 21 0.7393 0.0553 
14 4 22 7.7890 -0.0205 
14 4 23 -11.3444 0.0556 
14 6 0 -6.1560 -0.6906 
14 6 1 0.9745 0.2392 
14 6 2 -0.5744 0.2680 
14 6 3 -18.1902 0.6242 
14 6 4 21.2911 -0.2905 
14 6 5 -11.0444 -0.3152 
14 6 6 -5.8326 -0.2487 
14 6 7 -6.5445 0.1991 
14 6 8 15.6732 -0.0843 
14 6 9 0.2128 0.2235 
14 6 10 -6.4598 0.1246 
14 6 11 5.9696 0.1749 
14 6 12 5.4738 -0.3773 
14 6 13 13.1414 -0.0792 
14 6 14 -3.0738 -0.1206 
14 6 15 -5.3486 0.2766 
14 6 16 0.7253 0.0628 
14 6 17 -9.2181 -0.1113 
14 6 18 6.4554 -0.2877 
14 6 19 -1.7025 0.1376 
14 6 20 -5.1937 0.0701 
14 6 21 -3.2683 0.0336 
14 6 22 6.7348 -0.1565 
14 6 23 -11.2747 0.0115 
14 8 0 -20.5331 -0.0954 
14 8 1 -16.2985 0.1331 
14 8 2 -1.7231 -0.4563 
14 8 3 -14.5484 0.2614 
14 8 4 19.6737 -0.4509 
14 8 5 -31.5642 0.2906 
14 8 6 8.6480 0.0276 
14 8 7 3.4419 0.5935 
14 8 8 9.9575 -0.4573 
14 8 9 5.8306 0.0509 
14 8 10 -5.9449 -0.4437 
14 8 11 17.0155 0.5566 
14 8 12 4.3191 -0.1175 
14 8 13 -15.6755 0.2574 
14 8 14 -18.6266 -0.2602 
14 8 15 -9.6785 0.1935 
14 8 16 12.1365 -0.1290 
14 8 17 -0.8241 0.0195 
14 8 18 -8.4818 -0.0620 
14 8 19 -2.3011 0.3763 
14 8 20 0.2191 -0.1361 
14 8 21 -4.9372 -0.1962 
14 8 22 -5.1481 0.3143 
14 10 0 -7.1446 -0.1487 
14 10 1 2.5507 -0.3222 
14 10 2 2.0452 0.1265 
14 10 3 -4.3702 0.2292 
14 10 4 8.7626 0.1693 
14 10 5 6.7861 -0.1661 
14 10 6 15.4404 -0.2945 
14 10 7 -18.6702 -0.0891 
14 10 8 2.3013 0.0774 
14 10 9 -10.7054 0.0693 
14 10 10 8.0250 0.1491 
14 10 11 13.1066 -0.0176 
14 10 12 -9.8441 -0.1630 
14 10 13 -3.4109 -0.1397 
14 10 14 12.0846 -0.0180 
14 10 15 3.9275 0.1093 
14 10 16 7.2919 -0.1504 
14 10 17 8.0591 0.0863 
14 10 18 11.4263 0.1014 
14 10 19 -15.0483 0.1351 
14 10 20 -17.3447 -0.2386 
14 10 21 2.3925 -0.0855 
14 10 22 -5.2537 0.5037 
14 12 0 -20.4249 0.1888 
14 12 1 -10.2340 0.1386 
14 12 2 -5.3497 -0.1656 
14 12 3 15.0504 -0.0613 
14 12 4 14.1834 0.1013 
14 12 5 -6.7751 -0.0612 
14 12 6 6.0977 0.1126 
14 12 7 -19.1325 -0.0694 
14 12 8 3.5178 0.1791 
14 12 9 -6.9493 -0.2114 
14 12 10 -12.7596 0.1209 
14 12 11 -5.9048 -0.2363 
14 12 12 6.1577 0.2045 
14 12 13 -1.5991 0.0528 
14 12 14 -9.0928 0.1853 
14 12 15 -10.1783 0.0079 
14 12 16 -2.6141 -0.1758 
14 12 17 9.8468 -0.0703 
14 12 18 5.2483 0.1341 
14 12 19 8.0795 -0.2559 
14 12 20 25.6345 -0.2483 
14 12 21 16.4370 -0.0378 
14 14 0 -4.2692 -0.0669 
14 14 1 7.2601 0.0856 
14 14 2 5.0711 -0.2703 
14 14 3 10.8998 0.1554 
14 14 4 1.4621 0.0233 
14 14 5 -19.0893 0.1236 
14 14 6 9.9521 -0.1873 
14 14 7 7.2248 -0.0712 
14 14 8 19.1171 -0.0405 
14 14 9 9.1822 0.1332 
14 14 10 16.8731 -0.0207 
14 14 11 -8.6685 0.0565 
14 14 12 14.1817 0.0288 
14 14 13 -12.0586 -0.1990 
14 14 14 -15.8220 -0.0812 
14 14 15 -4.7782 0.0951 
14 14 16 -3.0373 -0.1280 
14 14 17 15.3663 0.0845 
14 14 18 -7.4617 0.0177 
14 14 19 7.5939 -0.0294 
14 14 20 13.2657 -0.1694 
14 16 0 -0.1325 0.0919 
14 16 1 -5.4482 0.0882 
14 16 2 2.7582 0.0606 
14 16 3 7.1869 -0.0028 
14 16 4 4.0687 -0.1747 
14 16 5 -4.5893 0.0051 
14 16 6 -9.1777 -0.0215 
14 16 7 -17.2388 0.1913 
14 16 8 0.1873 0.0095 
14 16 9 6.8333 -0.0097 
14 16 10 1.1331 -0.1898 
14 16 11 -6.7520 0.0749 
14 16 12 18.0053 -0.0267 
14 16 13 -0.9750 0.0317 
14 16 14 -6.7701 -0.0822 
14 16 15 -5.8517 0.1115 
14 16 16 -3.2039 -0.0816 
14 16 17 4.2722 -0.1899 
14 16 18 -5.0051 -0.1268 
14 16 19 20.0055 -0.1196 
14 16 20 13.2859 0.0245 
14 18 0 12.6773 0.1089 
14 18 1 12.0076 -0.1900 
14 18 2 -13.8179 0.1291 
14 18 3 -7.6726 -0.0734 
14 18 4 12.4786 0.1269 
14 18 5 7.3176 -0.0708 
14 18 6 0.7724 0.1190 
14 18 7 -6.5576 -0.0749 
14 18 8 13.8305 -0.0090 
14 18 9 2.6149 -0.1586 
14 18 10 2.2320 -0.0044 
14 18 11 7.9394 0.1106 
14 18 12 0.0904 -0.0180 
14 18 13 -0.3137 -0.1228 
14 18 14 -3.6068 -0.0270 
14 18 15 -2.4629 0.0186 
14 18 16 -3.4823 0.1140 
14 18 17 -5.5698 -0.1612 
14 18 18 -0.9675 0.2039 
14 18 19 -4.7356 -0.2502 
14 20 0 -0.9726 -0.0120 
14 20 1 8.0185 -0.0662 
14 20 2 9.2139 0.1925 
14 20 3 6.7546 -0.0443 
14 20 4 13.8166 0.0491 
14 20 5 6.4772 -0.1314 
14 20 6 11.5589 -0.0545 
14 20 7 1.0018 0.1025 
14 20 8 1.1156 0.0519 
14 20 9 3.2457 0.0715 
14 20 10 5.7468 -0.1573 
14 20 11 0.9080 0.0199 
14 20 12 3.4364 -0.0259 
14 20 13 -1.3142 0.1600 
14 20 14 -2.2382 0.1867 
14 20 15 -11.6489 -0.1387 
14 20 16 1.7154 -0.0953 
14 20 17 0.3481 -0.0081 
14 22 0 1.0105 0.0178 
14 22 1 3.0091 -0.0129 
14 22 2 14.0413 -0.2482 
14 22 3 -2.5725 -0.0147 
14 22 4 10.0567 0.1011 
14 22 5 -2.0171 0.0747 
14 22 6 -14.7787 0.0128 
14 22 7 1.0744 0.0337 
14 22 8 10.3797 -0.0998 
14 22 9 1.6261 0.0602 
14 22 10 -1.5568 0.0032 
14 22 11 -10.8335 0.1908 
14 22 12 -0.5365 -0.2413 
14 22 13 -3.3512 0.1618 
14 22 14 -19.0699 -0.3163 
14 22 15 -15.3485 -0.1385 
14 22 16 -9.1761 -0.3700 
14 24 0 -8.9590 -0.0116 
14 24 1 5.6291 0.0553 
14 24 2 23.7595 -0.0178 
14 24 3 8.2017 0.0490 
14 24 4 11.5246 0.0920 
14 24 5 5.7555 -0.1673 
14 24 6 -8.1485 0.0662 
14 24 7 1.3590 -0.1641 
14 24 8 6.8056 0.1797 
14 24 9 -4.1659 -0.0334 
14 24 10 -12.6252 0.0914 
14 24 11 -13.7889 -0.1296 
14 24 12 -0.6857 -0.1783 
14 24 13 -13.8847 0.2950 
14 24 14 2.8932 0.1507 
14 26 0 0.0973 -0.0751 
14 26 1 -15.5418 -0.0613 
14 26 2 3.1168 0.0189 
14 26 3 0.1525 -0.2207 
14 26 4 -5.7345 0.0542 
14 26 5 -6.9856 0.0983 
14 26 6 4.3833 0.1844 
14 26 7 -1.5989 -0.1454 
14 26 8 -17.4114 -0.0439 
14 26 9 -7.5299 -0.2391 
14 26 10 3.1636 0.2566 
14 26 11 -4.9260 -0.1092 
14 26 12 -0.9317 0.0338 
14 28 0 2.0588 -0.0052 
14 28 1 7.1650 0.1487 
14 28 2 17.2283 0.1629 
14 28 3 1.8115 0.0668 
14 28 4 -6.9787 -0.0864 
14 28 5 -17.4332 0.0678 
14 28 6 -9.2805 -0.3669 
14 28 7 -2.2786 0.0430 
14 28 8 -6.9847 -0.0092 
14 28 9 -4.8574 -0.2742 
14 30 0 0.5108 0.1582 
14 30 1 -1.8115 -0.1029 
14 30 2 -2.6649 0.0631 
14 30 3 -2.1144 -0.1321 
14 30 4 0.6400 -0.0252 
14 30 5 -2.8840 0.4763 
15 1 0 -37.2164 1.6692 
15 1 1 -10.3675 -0.2915 
15 1 2 -26.4981 -0.5928 
15 1 3 -4.8765 0.1482 
15 1 4 -42.7139 0.9849 
15 1 5 -4.2936 0.2530 
15 1 6 -32.7241 -1.8309 
15 1 7 -4.3881 -0.1437 
15 1 8 7.2218 0.5386 
15 1 9 10.0131 1.2485 
15 1 10 -10.6238 -0.9133 
15 1 11 -18.5661 -0.1885 
15 1 12 -6.2574 -0.3439 
15 1 13 -14.4508 1.0530 
15 1 14 5.0585 -0.6633 
15 1 15 -18.0022 0.0656 
15 1 16 4.6738 -0.5149 
15 1 17 -5.2470 0.8380 
15 1 18 -1.0835 -0.3003 
15 1 19 8.1670 0.1008 
15 1 20 30.7922 -0.4499 
15 1 21 -8.2041 0.3458 
15 1 22 0.1483 0.0050 
15 1 23 14.4154 -0.2742 
15 3 0 -18.2364 0.8527 
15 3 1 -25.0238 -1.1609 
15 3 2 29.2006 0.7701 
15 3 3 -10.6934 -0.9126 
15 3 4 -31.5157 0.6941 
15 3 5 10.1669 -0.5954 
15 3 6 -6.0549 0.4826 
15 3 7 7.7412 -0.1724 
15 3 8 -20.1655 0.3729 
15 3 9 -0.4711 -0.3431 
15 3 10 21.7127 0.0647 
15 3 11 -13.6999 -0.2707 
15 3 12 -12.9218 0.4056 
15 3 13 -37.3626 0.0792 
15 3 14 15.3765 -0.1775 
15 3 15 -1.2755 -0.1564 
15 3 16 -1.3024 0.0106 
15 3 17 0.1003 0.0782 
15 3 18 -15.3707 0.0965 
15 3 19 5.4405 -0.0164 
15 3 20 5.9072 0.0039 
15 3 21 -6.9185 -0.1386 
15 3 22 5.0465 0.0983 
15 3 23 10.9446 0.1194 
15 5 0 10.7944 -0.5297 
15 5 1 -37.1898 -0.4655 
15 5 2 -12.6254 0.6998 
15 5 3 24.2279 -0.2423 
15 5 4 -2.9724 0.4117 
15 5 5 18.2370 -0.7529 
15 5 6 -17.7351 0.7257 
15 5 7 0.2306 -0.5358 
15 5 8 16.2916 0.3390 
15 5 9 8.2986 -0.6882 
15 5 10 12.8361 0.7101 
15 5 11 -0.7149 -0.2078 
15 5 12 3.9820 0.1831 
15 5 13 -25.1022 -0.6242 
15 5 14 -4.0281 0.2882 
15 5 15 -21.0396 0.2220 
15 5 16 -10.8847 0.1531 
15 5 17 -0.4169 -0.2231 
15 5 18 -14.2110 -0.2217 
15 5 19 -0.3630 0.0844 
15 5 20 10.1007 0.1543 
15 5 21 8.2654 -0.1021 
15 5 22 3.8048 -0.1004 
15 7 0 10.3884 -0.2138 
15 7 1 -25.0919 0.7082 
15 7 2 -5.1859 0.1399 
15 7 3 37.4974 -0.0802 
15 7 4 -1.4864 -0.5659 
15 7 5 17.9016 -0.0732 
15 7 6 10.0521 0.4200 
15 7 7 3.7437 0.2498 
15 7 8 -13.0458 -0.0608 
15 7 9 0.7934 -0.3899 
15 7 10 14.1776 0.1903 
15 7 11 -8.5440 0.1551 
15 7 12 -5.8536 0.0047 
15 7 13 -0.4206 -0.1343 
15 7 14 -9.1872 0.0863 
15 7 15 -5.5821 -0.0038 
15 7 16 30.8671 0.0208 
15 7 17 7.9193 -0.0393 
15 7 18 -9.2858 0.0697 
15 7 19 -6.3017 0.1546 
15 7 20 -8.2530 -0.2914 
15 7 21 2.9804 0.0282 
15 7 22 0.8067 -0.1040 
15 9 0 5.2659 -0.3735 
15 9 1 -6.3086 -0.0045 
15 9 2 -22.8028 -0.2472 
15 9 3 1.1907 0.2453 
15 9 4 -3.0721 0.1722 
15 9 5 9.7997 0.1490 
15 9 6 1.0784 -0.0901 
15 9 7 13.1568 -0.2518 
15 9 8 -2.0994 -0.0354 
15 9 9 3.7941 0.1187 
15 9 10 16.3751 0.2024 
15 9 11 -10.8939 -0.0053 
15 9 12 6.3609 -0.0937 
15 9 13 -1.1581 -0.1045 
15 9 14 4.7441 0.1646 
15 9 15 6.4287 -0.1055 
15 9 16 3.8346 0.0585 
15 9 17 -10.2068 -0.1490 
15 9 18 -11.0707 -0.0141 
15 9 19 0.7146 0.0110 
15 9 20 17.9944 0.2455 
15 9 21 -3.8416 0.1637 
15 9 22 -10.3766 0.1389 
15 11 0 5.5085 0.4710 
15 11 1 17.5564 0.2861 
15 11 2 -10.4349 -0.1677 
15 11 3 1.4066 -0.2002 
15 11 4 0.1371 0.0872 
15 11 5 -16.2813 -0.0987 
15 11 6 -9.6602 -0.0066 
15 11 7 -7.6240 -0.0369 
15 11 8 -14.8482 0.4119 
15 11 9 -6.9376 -0.1942 
15 11 10 15.3431 0.0022 
15 11 11 12.0454 -0.3169 
15 11 12 6.1901 0.3322 
15 11 13 -4.3180 -0.1196 
15 11 14 0.5535 0.1821 
15 11 15 -11.0440 -0.2787 
15 11 16 5.3046 0.0541 
15 11 17 -5.4021 0.0095 
15 11 18 -1.7987 0.4461 
15 11 19 13.2034 -0.3162 
15 11 20 1.2358 0.0049 
15 11 21 -2.0808 -0.5754 
15 13 0 -9.7538 -0.0012 
15 13 1 13.2817 -0.0329 
15 13 2 6.7121 -0.3617 
15 13 3 -3.7762 0.2351 
15 13 4 1.9203 0.2805 
15 13 5 -8.2263 0.2118 
15 13 6 22.1772 -0.3229 
15 13 7 15.0143 -0.1330 
15 13 8 2.9002 0.1181 
15 13 9 -32.7370 0.0192 
15 13 10 13.6326 0.0667 
15 13 11 21.5630 -0.1124 
15 13 12 6.0736 0.0751 
15 13 13 -2.1833 -0.0736 
15 13 14 2.6948 0.0069 
15 13 15 -2.8888 -0.0034 
15 13 16 -7.5316 0.2842 
15 13 17 -18.8061 -0.2892 
15 13 18 -14.2235 0.1606 
15 13 19 -13.2100 -0.1850 
15 13 20 -11.0318 0.0987 
15 15 0 -2.1498 0.0970 
15 15 1 -0.4368 0.1692 
15 15 2 -2.5070 -0.0658 
15 15 3 -1.3288 -0.0568 
15 15 4 14.9162 -0.2389 
15 15 5 0.9848 0.0476 
15 15 6 -7.8881 -0.1798 
15 15 7 8.1664 0.2456 
15 15 8 0.2093 -0.0871 
15 15 9 -11.6129 0.1355 
15 15 10 11.2977 -0.2013 
15 15 11 -10.7464 0.0470 
15 15 12 5.3303 0.1438 
15 15 13 -0.2075 0.0042 
15 15 14 4.2263 -0.0504 
15 15 15 -14.8465 -0.0157 
15 15 16 -1.2771 -0.1506 
15 15 17 15.1505 -0.1820 
15 15 18 -1.2503 -0.0843 
15 15 19 6.8148 -0.2015 
15 15 20 -5.8686 -0.8221 
15 17 0 -3.9351 -0.1178 
15 17 1 -2.9402 -0.1190 
15 17 2 2.4885 0.1301 
15 17 3 0.1654 0.0505 
15 17 4 8.5000 0.0408 
15 17 5 15.5294 -0.0126 
15 17 6 -2.5763 -0.0588 
15 17 7 9.2139 0.0507 
15 17 8 11.8354 0.0423 
15 17 9 -2.2316 -0.1374 
15 17 10 -1.9433 -0.0246 
15 17 11 1.9657 0.0019 
15 17 12 13.8887 -0.0010 
15 17 13 5.8634 -0.1331 
15 17 14 -7.4147 -0.0898 
15 17 15 -2.8134 0.0329 
15 17 16 -12.3329 0.0887 
15 17 17 -3.6916 0.0397 
15 17 18 -7.8488 0.0000 
15 17 19 -7.7236 -0.3731 
15 19 0 16.0164 -0.0058 
15 19 1 1.2530 0.0273 
15 19 2 -10.6206 0.0848 
15 19 3 -4.6111 -0.0539 
15 19 4 11.6378 -0.1210 
15 19 5 8.1418 -0.1675 
15 19 6 -0.4609 0.2321 
15 19 7 5.8411 0.0859 
15 19 8 -0.9624 -0.0421 
15 19 9 -3.5973 -0.1751 
15 19 10 0.8020 -0.0067 
15 19 11 -0.3582 -0.0116 
15 19 12 2.5934 0.0627 
15 19 13 -17.2985 0.0313 
15 19 14 -5.4135 0.1267 
15 19 15 19.0280 -0.1569 
15 19 16 8.5359 0.2904 
15 19 17 -1.2750 -0.1802 
15 21 0 -9.0221 -0.1064 
15 21 1 -14.3959 -0.0742 
15 21 2 0.5006 -0.0796 
15 21 3 0.1338 0.0706 
15 21 4 19.9661 0.0288 
15 21 5 -2.6453 0.0900 
15 21 6 -5.0476 -0.0076 
15 21 7 -10.5014 -0.0417 
15 21 8 -11.5917 -0.1666 
15 21 9 -6.5753 0.2324 
15 21 10 -8.5863 -0.0673 
15 21 11 2.2250 0.0688 
15 21 12 10.2048 -0.2703 
15 21 13 -4.7650 0.1776 
15 21 14 -7.9652 0.0446 
15 21 15 3.6252 -0.1967 
15 21 16 3.7661 0.1399 
15 23 0 2.8191 0.0512 
15 23 1 7.1733 0.0650 
15 23 2 5.8315 -0.0637 
15 23 3 -12.9450 -0.0227 
15 23 4 5.6726 -0.0009 
15 23 5 -1.6569 -0.0095 
15 23 6 22.5063 -0.0562 
15 23 7 2.4135 -0.0456 
15 23 8 -10.3660 -0.0345 
15 23 9 7.9629 0.0645 
15 23 10 4.3450 0.0048 
15 23 11 -0.0546 -0.0340 
15 23 12 8.8446 -0.1378 
15 23 13 -10.5980 0.5697 
15 23 14 -8.2488 -0.3218 
15 25 0 7.8515 0.0573 
15 25 1 17.7686 -0.0951 
15 25 2 0.9870 0.0100 
15 25 3 -5.4792 -0.0689 
15 25 4 13.7141 0.1356 
15 25 5 -12.4274 -0.0662 
15 25 6 10.7890 0.1135 
15 25 7 6.1808 -0.0808 
15 25 8 -8.4951 0.0723 
15 25 9 -3.4794 -0.0179 
15 25 10 -3.4372 -0.0158 
15 25 11 4.7035 -0.1287 
15 25 12 14.1120 0.1613 
15 27 0 1.0718 -0.0244 
15 27 1 3.1900 -0.0104 
15 27 2 5.1362 0.1148 
15 27 3 -3.3125 -0.0681 
15 27 4 7.9642 0.0025 
15 27 5 -18.7211 -0.0557 
15 27 6 2.8147 0.1121 
15 27 7 0.7738 -0.1063 
15 27 8 -2.9748 -0.0917 
15 27 9 4.3783 -0.1132 
15 27 10 -5.2255 -0.3534 
15 29 0 2.2686 -0.1584 
15 29 1 2.4285 0.0507 
15 29 2 -1.4623 0.2568 
15 29 3 0.1296 -0.1335 
15 29 4 -2.8591 0.0705 
15 29 5 -6.1736 -0.0526 
15 29 6 10.1377 0.2351 
15 29 7 1.2727 0.3430 
15 31 0 2.5598 -0.3724 
15 31 1 3.4039 -0.2698 
16 0 0 -25.0608 -4.0246 
16 0 1 -5.8406 -0.5667 
16 0 2 26.1033 -1.2495 
16 0 3 5.8440 3.5714 
16 0 4 9.8560 -0.3361 
16 0 5 22.3414 -0.2945 
16 0 6 -20.9158 -1.6007 
16 0 7 -1.1434 1.4804 
16 0 8 -25.4413 0.4405 
16 0 9 -3.8168 0.4927 
16 0 10 14.7114 -2.1498 
16 0 11 2.2846 -1.0487 
16 0 12 -13.0798 0.4754 
16 0 13 -0.9964 2.9489 
16 0 14 0.1152 0.7118 
16 0 15 -25.3917 -0.5636 
16 0 16 16.1971 -2.6301 
16 0 17 -2.4520 0.2974 
16 0 18 13.5958 0.1899 
16 0 19 -25.6772 1.3400 
16 0 20 3.6129 -0.7790 
16 0 21 2.5446 0.7897 
16 0 22 -6.2560 -0.4173 
16 2 0 -5.7436 1.0780 
16 2 1 -49.7714 -0.6282 
16 2 2 -32.5495 -0.2326 
16 2 3 -19.0123 0.7558 
16 2 4 -4.0776 -0.4878 
16 2 5 -28.3013 0.3843 
16 2 6 -12.2748 -0.1589 
16 2 7 1.1057 0.1721 
16 2 8 -34.4210 -0.6970 
16 2 9 -5.6388 0.1267 
16 2 10 6.3831 0.5411 
16 2 11 1.7434 0.3719 
16 2 12 12.6182 -0.4196 
16 2 13 -4.2189 -0.3054 
16 2 14 -7.2860 -0.3412 
16 2 15 -38.5408 0.2213 
16 2 16 -1.6726 -0.1105 
16 2 17 0.2417 0.6715 
16 2 18 14.1017 -0.0582 
16 2 19 -10.6692 -0.1127 
16 2 20 5.1361 -0.7893 
16 2 21 1.4226 0.2250 
16 2 22 10.9480 0.5258 
16 4 0 -15.7155 -0.4173 
16 4 1 -21.9294 -0.3617 
16 4 2 -6.8797 0.7359 
16 4 3 -16.1350 -0.0380 
16 4 4 -1.9084 -0.0320 
16 4 5 -29.7751 -0.4781 
16 4 6 1.1558 0.5612 
16 4 7 -6.5245 0.0264 
16 4 8 -21.0555 -0.0630 
16 4 9 -4.2038 -0.3891 
16 4 10 1.8744 0.3550 
16 4 11 2.9145 -0.0951 
16 4 12 8.3672 0.1422 
16 4 13 -18.3679 -0.2863 
16 4 14 9.3090 0.5101 
16 4 15 -4.1684 -0.0811 
16 4 16 5.7277 -0.1988 
16 4 17 1.1143 -0.3586 
16 4 18 3.9419 0.0269 
16 4 19 -15.6027 0.3459 
16 4 20 -6.6480 0.1867 
16 4 21 -4.3408 -0.1279 
16 4 22 5.6955 0.0835 
16 6 0 -20.6188 -0.0889 
16 6 1 9.2370 0.6064 
16 6 2 11.9144 -0.0315 
16 6 3 -31.9210 -0.1988 
16 6 4 16.6137 -0.5047 
16 6 5 9.9205 0.2949 
16 6 6 11.2784 0.2132 
16 6 7 -2.5818 0.0352 
16 6 8 6.5699 -0.3799 
16 6 9 -1.3867 -0.0567 
16 6 10 2.0858 0.2643 
16 6 11 4.4156 0.3074 
16 6 12 -2.6860 -0.1974 
16 6 13 -5.2069 -0.4612 
16 6 14 0.1124 -0.0005 
16 6 15 -6.0815 0.2617 
16 6 16 -0.0994 0.2621 
16 6 17 -2.9004 -0.0362 
16 6 18 -0.1605 0.0468 
16 6 19 1.7533 0.0542 
16 6 20 9.1856 -0.1226 
16 6 21 -6.7615 -0.0142 
16 6 22 3.8911 -0.3130 
16 8 0 -6.3519 -0.2241 
16 8 1 -41.7067 0.3609 
16 8 2 -7.4882 -0.1497 
16 8 3 -7.4113 0.3951 
16 8 4 11.3712 -0.3517 
16 8 5 -13.4531 0.4730 
16 8 6 13.1365 -0.5300 
16 8 7 -13.1657 0.3257 
16 8 8 -3.1180 -0.1053 
16 8 9 -0.7999 0.4116 
16 8 10 -0.9670 -0.5274 
16 8 11 -5.2412 0.1851 
16 8 12 13.8541 -0.2160 
16 8 13 7.7598 0.3350 
16 8 14 -4.8936 -0.0373 
16 8 15 -3.2863 0.0962 
16 8 16 5.5813 -0.1568 
16 8 17 -9.1671 -0.1859 
16 8 18 -7.6405 0.0307 
16 8 19 11.6370 0.0385 
16 8 20 2.2827 -0.0005 
16 8 21 -2.5262 0.4264 
16 10 0 -10.0348 0.3608 
16 10 1 -17.7834 -0.1647 
16 10 2 2.0637 -0.2553 
16 10 3 -15.4846 -0.0729 
16 10 4 -10.1356 0.0611 
16 10 5 -2.6787 0.1869 
16 10 6 -1.8026 -0.3172 
16 10 7 -3.0630 0.0786 
16 10 8 4.2462 0.1066 
16 10 9 -3.6628 0.0804 
16 10 10 19.3202 -0.2711 
16 10 11 -10.6649 0.1041 
16 10 12 3.6925 0.2227 
16 10 13 4.6265 0.1110 
16 10 14 3.1002 -0.2219 
16 10 15 -4.7809 -0.0127 
16 10 16 -4.3138 -0.0430 
16 10 17 1.1046 0.1982 
16 10 18 3.7254 0.1032 
16 10 19 2.4559 -0.1581 
16 10 20 1.7599 0.0009 
16 10 21 11.8922 -0.0995 
16 12 0 -25.0685 0.1843 
16 12 1 -11.7444 -0.0701 
16 12 2 -6.5860 0.0063 
16 12 3 -10.5386 0.0107 
16 12 4 13.6701 0.1778 
16 12 5 -1.9230 0.0268 
16 12 6 -8.8742 -0.2866 
16 12 7 -19.5641 0.0532 
16 12 8 5.9143 0.2150 
16 12 9 2.0597 0.1451 
16 12 10 7.9982 -0.1873 
16 12 11 -17.0239 -0.1282 
16 12 12 5.8354 0.1170 
16 12 13 4.5624 -0.0887 
16 12 14 -19.7928 -0.0633 
16 12 15 1.0983 0.0516 
16 12 16 10.3269 -0.0320 
16 12 17 5.0514 0.2706 
16 12 18 5.1168 0.0863 
16 12 19 -3.0318 -0.1475 
16 12 20 -14.0018 0.6582 
16 14 0 -6.8752 -0.0211 
16 14 1 3.2477 0.0511 
16 14 2 -5.0463 -0.1596 
16 14 3 -0.1562 -0.0671 
16 14 4 29.7385 -0.0139 
16 14 5 8.5075 0.1567 
16 14 6 4.1971 -0.1779 
16 14 7 -7.4377 0.1841 
16 14 8 -6.5291 -0.2059 
16 14 9 -13.2396 0.0654 
16 14 10 9.1281 -0.2443 
16 14 11 11.0176 0.2896 
16 14 12 21.1067 -0.0113 
16 14 13 2.9681 0.2513 
16 14 14 -1.5466 -0.0412 
16 14 15 17.2681 -0.1032 
16 14 16 7.0181 0.1126 
16 14 17 -3.7861 0.0747 
16 14 18 -2.2953 -0.2468 
16 14 19 3.4999 -0.0434 
16 14 20 4.3065 -0.4165 
16 16 0 -2.3865 -0.1056 
16 16 1 -1.0894 0.0802 
16 16 2 12.6197 0.2066 
16 16 3 -6.8174 -0.0955 
16 16 4 12.1149 -0.0191 
16 16 5 -7.0818 -0.0707 
16 16 6 -10.9075 0.0155 
16 16 7 -11.1113 0.0153 
16 16 8 6.4056 -0.1793 
16 16 9 8.3300 0.1996 
16 16 10 -0.4364 -0.0356 
16 16 11 -6.9587 0.1253 
16 16 12 -16.6790 -0.2784 
16 16 13 -3.1230 0.0869 
16 16 14 -16.7038 -0.0556 
16 16 15 -3.9911 0.0869 
16 16 16 7.3183 0.2032 
16 16 17 5.2815 -0.0462 
16 16 18 -2.5118 -0.2217 
16 16 19 -3.6636 0.4553 
16 18 0 -7.4163 0.0100 
16 18 1 -9.1214 -0.0079 
16 18 2 7.1160 0.1749 
16 18 3 -9.2655 -0.2248 
16 18 4 5.8627 0.0180 
16 18 5 -3.7554 -0.0585 
16 18 6 -0.7658 0.3271 
16 18 7 -18.9440 -0.1177 
16 18 8 3.7420 0.0470 
16 18 9 8.3949 -0.2428 
16 18 10 5.7175 0.1603 
16 18 11 0.7832 -0.0374 
16 18 12 -9.0726 0.0123 
16 18 13 0.9595 0.2392 
16 18 14 -5.5076 -0.0125 
16 18 15 -9.7108 -0.0619 
16 18 16 -10.2127 0.1762 
16 18 17 12.4103 -0.0610 
16 18 18 7.5336 0.1356 
16 20 0 0.5400 0.0020 
16 20 1 -8.7526 -0.0734 
16 20 2 6.9103 -0.0309 
16 20 3 -2.0043 0.0111 
16 20 4 -14.5649 0.0622 
16 20 5 -21.7017 -0.0639 
16 20 6 9.3526 0.0645 
16 20 7 -3.5403 -0.0977 
16 20 8 2.3140 0.1254 
16 20 9 16.4538 -0.0377 
16 20 10 1.0518 0.2555 
16 20 11 -4.2327 -0.2138 
16 20 12 -2.9135 -0.2010 
16 20 13 -15.3572 0.1854 
16 20 14 9.7823 -0.0396 
16 20 15 -3.5022 -0.0002 
16 20 16 5.3163 0.5572 
16 22 0 -3.1712 0.0096 
16 22 1 -9.5818 0.0200 
16 22 2 -0.5107 -0.1069 
16 22 3 4.2968 0.1515 
16 22 4 3.3660 -0.0676 
16 22 5 -9.4193 0.0586 
16 22 6 6.7304 0.0302 
16 22 7 -3.6789 -0.0002 
16 22 8 -4.8727 -0.0786 
16 22 9 7.4321 0.0146 
16 22 10 3.9868 0.0076 
16 22 11 -19.2764 -0.1568 
16 22 12 -17.1044 0.2252 
16 22 13 -12.9372 0.2678 
16 22 14 2.4213 -0.0229 
16 22 15 5.4293 0.5502 
16 24 0 -9.3934 0.0080 
16 24 1 -0.8380 -0.0904 
16 24 2 3.9462 -0.0165 
16 24 3 -2.9507 0.1423 
16 24 4 2.9089 0.0743 
16 24 5 7.8502 -0.0528 
16 24 6 7.4954 -0.1110 
16 24 7 -1.9682 0.0066 
16 24 8 3.2214 0.0799 
16 24 9 -0.1729 0.0475 
16 24 10 -7.1915 0.1102 
16 24 11 -2.6803 -0.2042 
16 24 12 -1.1782 0.0450 
16 24 13 -1.6461 -0.1784 
16 26 0 12.1170 0.0188 
16 26 1 -0.0148 -0.0470 
16 26 2 6.0936 0.0956 
16 26 3 7.2616 -0.0200 
16 26 4 11.1610 0.0587 
16 26 5 -5.7865 -0.1798 
16 26 6 6.0079 0.0492 
16 26 7 0.5278 0.1729 
16 26 8 6.9218 -0.0114 
16 26 9 6.7402 0.0314 
16 26 10 3.8179 -0.2506 
16 26 11 4.9337 -0.0350 
16 28 0 -7.3682 -0.0325 
16 28 1 6.8090 -0.0406 
16 28 2 14.8694 0.1252 
16 28 3 0.7613 0.0430 
16 28 4 11.4558 -0.0785 
16 28 5 -11.4679 0.0551 
16 28 6 -1.0460 -0.2209 
16 28 7 1.1460 0.1628 
16 28 8 0.9824 0.2002 
16 30 0 7.1354 -0.1730 
16 30 1 2.9548 -0.1880 
16 30 2 4.8392 0.0031 
16 30 3 0.9715 -0.1613 
17 1 0 45.8085 0.5645 
17 1 1 51.2662 0.2041 
17 1 2 18.4256 -1.3474 
17 1 3 -17.4860 0.6897 
17 1 4 18.6116 -0.1708 
17 1 5 15.3510 0.4128 
17 1 6 -8.6573 -0.9283 
17 1 7 25.3919 0.5566 
17 1 8 -9.0063 0.2736 
17 1 9 5.6488 0.5707 
17 1 10 11.3583 -0.8417 
17 1 11 -1.9580 -0.3655 
17 1 12 -0.8668 0.2340 
17 1 13 -15.6262 0.7974 
17 1 14 9.3236 -0.3634 
17 1 15 3.0099 -0.5226 
17 1 16 6.0531 0.0726 
17 1 17 4.1809 0.8328 
17 1 18 9.4950 -0.0644 
17 1 19 -19.9003 -0.3472 
17 1 20 4.9955 -0.4416 
17 1 21 -3.8805 0.5059 
17 1 22 4.3841 -0.0822 
17 3 0 2.9763 -0.1193 
17 3 1 -34.6318 -0.4088 
17 3 2 -6.7186 0.3732 
17 3 3 -9.7951 -0.0885 
17 3 4 -0.2467 0.6886 
17 3 5 -7.2016 -0.2555 
17 3 6 -3.4052 0.0532 
17 3 7 9.9902 -0.4931 
17 3 8 -18.7534 0.2315 
17 3 9 8.8665 0.1170 
17 3 10 14.5882 0.1879 
17 3 11 -7.0455 -0.4431 
17 3 12 -0.4048 0.3110 
17 3 13 -21.1400 -0.2591 
17 3 14 19.5398 0.3655 
17 3 15 8.6483 -0.3784 
17 3 16 -8.5759 0.2773 
17 3 17 -11.3870 -0.4171 
17 3 18 14.6616 0.0741 
17 3 19 -0.0339 -0.0194 
17 3 20 -8.7692 -0.0597 
17 3 21 -6.1070 0.0973 
17 3 22 -0.2968 -0.0665 
17 5 0 36.3959 0.0693 
17 5 1 -19.9743 0.0188 
17 5 2 -6.0341 -0.0723 
17 5 3 9.9257 -0.4134 
17 5 4 -22.5559 0.0158 
17 5 5 -7.1314 -0.2835 
17 5 6 4.6753 0.8789 
17 5 7 16.7339 -0.6026 
17 5 8 -0.0025 0.1083 
17 5 9 -1.1450 -0.6296 
17 5 10 -11.5522 0.6949 
17 5 11 4.2031 -0.0150 
17 5 12 13.3116 0.3492 
17 5 13 1.2291 -0.6980 
17 5 14 10.2936 0.2836 
17 5 15 -7.2546 -0.0785 
17 5 16 0.4877 0.2260 
17 5 17 8.3809 -0.2939 
17 5 18 4.9105 0.0836 
17 5 19 -0.3937 0.2487 
17 5 20 2.2145 0.1768 
17 5 21 2.0435 -0.0616 
17 7 0 18.9678 0.0214 
17 7 1 -33.8321 0.2840 
17 7 2 -4.1459 0.1853 
17 7 3 12.1624 0.2028 
17 7 4 -13.2866 -0.2285 
17 7 5 5.1030 -0.2005 
17 7 6 0.0297 -0.0902 
17 7 7 11.9367 0.1160 
17 7 8 2.4603 0.1694 
17 7 9 1.7608 -0.0140 
17 7 10 -7.6418 0.0514 
17 7 11 -10.4140 -0.2323 
17 7 12 -3.0621 -0.1452 
17 7 13 7.0633 -0.1427 
17 7 14 -8.4300 0.0557 
17 7 15 4.6086 0.2589 
17 7 16 19.7060 -0.1245 
17 7 17 7.8313 -0.0692 
17 7 18 2.7947 0.0493 
17 7 19 -5.3528 -0.0867 
17 7 20 1.3996 -0.0131 
17 7 21 17.5828 -0.1851 
17 9 0 22.4549 0.0372 
17 9 1 -15.2159 -0.1885 
17 9 2 -10.3136 -0.0098 
17 9 3 5.2469 -0.2777 
17 9 4 -3.8010 -0.0016 
17 9 5 0.6189 0.1479 
17 9 6 -22.2328 0.1980 
17 9 7 8.7204 -0.0007 
17 9 8 -8.7274 -0.0961 
17 9 9 -12.9578 -0.2175 
17 9 10 -12.0540 -0.1579 
17 9 11 4.1703 0.2075 
17 9 12 7.2379 0.2027 
17 9 13 -18.0591 0.1322 
17 9 14 -2.6791 -0.1927 
17 9 15 -12.1438 0.0033 
17 9 16 -4.9369 -0.0177 
17 9 17 0.7818 -0.0276 
17 9 18 -3.8945 0.1042 
17 9 19 -9.1208 -0.0929 
17 9 20 -18.9947 -0.2096 
17 9 21 -10.3963 -0.4990 
17 11 0 18.6743 0.0528 
17 11 1 -5.3516 -0.0892 
17 11 2 9.0453 0.4576 
17 11 3 -1.5455 -0.2494 
17 11 4 13.2267 0.1879 
17 11 5 17.1889 -0.3211 
17 11 6 -1.9001 -0.0906 
17 11 7 10.5461 -0.1764 
17 11 8 -3.2149 0.3691 
17 11 9 -2.7699 0.1379 
17 11 10 10.5565 -0.0477 
17 11 11 2.1533 -0.3219 
17 11 12 -7.5762 0.1228 
17 11 13 1.2222 -0.0871 
17 11 14 19.1020 0.1405 
17 11 15 -9.4740 -0.1135 
17 11 16 0.4050 0.0029 
17 11 17 -6.8824 0.1543 
17 11 18 15.6313 0.0632 
17 11 19 19.5565 -0.4002 
17 11 20 -21.7043 -0.0657 
17 13 0 7.3455 0.0932 
17 13 1 -8.5793 -0.1144 
17 13 2 16.3938 -0.1476 
17 13 3 -10.3887 -0.1860 
17 13 4 -6.7580 0.0959 
17 13 5 -9.2166 0.2726 
17 13 6 -8.8765 0.0610 
17 13 7 6.2716 -0.0509 
17 13 8 14.0478 -0.1183 
17 13 9 -21.0366 -0.0264 
17 13 10 0.3881 -0.1629 
17 13 11 -5.4186 0.1051 
17 13 12 -3.5266 0.2430 
17 13 13 4.1197 0.1338 
17 13 14 9.4232 -0.0903 
17 13 15 6.1853 -0.2835 
17 13 16 10.7646 0.1709 
17 13 17 -15.9235 -0.0813 
17 13 18 5.1088 0.0302 
17 13 19 7.2303 -0.2822 
17 15 0 0.4764 -0.0533 
17 15 1 -1.9327 0.0846 
17 15 2 17.2729 0.0127 
17 15 3 -11.5193 0.1190 
17 15 4 9.3612 -0.0784 
17 15 5 0.5686 -0.0098 
17 15 6 -17.5882 -0.1909 
17 15 7 1.7448 0.0558 
17 15 8 -6.3830 -0.0695 
17 15 9 -7.7112 0.2692 
17 15 10 2.7331 -0.1353 
17 15 11 -13.0786 -0.0156 
17 15 12 -1.8527 -0.2646 
17 15 13 9.9855 0.0746 
17 15 14 3.9604 0.0729 
17 15 15 -11.6667 0.1150 
17 15 16 9.1414 0.2361 
17 15 17 -8.6735 -0.0593 
17 15 18 4.1119 0.0909 
17 15 19 16.5114 0.3647 
17 17 0 -5.1467 -0.0331 
17 17 1 -0.1569 0.0452 
17 17 2 16.3613 -0.0671 
17 17 3 -16.3451 -0.1242 
17 17 4 -1.6622 0.0658 
17 17 5 7.8085 0.0677 
17 17 6 -0.6333 0.2583 
17 17 7 -4.6995 -0.0432 
17 17 8 -4.1280 -0.2018 
17 17 9 -8.7476 -0.1529 
17 17 10 1.6207 0.1691 
17 17 11 2.1563 0.0873 
17 17 12 1.9306 0.0687 
17 17 13 14.0370 0.1346 
17 17 14 3.2727 0.0238 
17 17 15 6.0698 -0.1330 
17 17 16 -7.6353 0.1010 
17 17 17 -14.1615 0.1182 
17 17 18 -6.4607 -0.2585 
17 19 0 3.8793 -0.1375 
17 19 1 -0.7657 0.0779 
17 19 2 15.9806 0.0537 
17 19 3 2.2949 0.0835 
17 19 4 3.7503 -0.0589 
17 19 5 6.7988 -0.1018 
17 19 6 6.0277 0.0016 
17 19 7 1.4315 -0.0554 
17 19 8 -1.6747 0.2109 
17 19 9 -5.1630 -0.0605 
17 19 10 6.0592 0.2632 
17 19 11 -1.2522 -0.2794 
17 19 12 0.4713 -0.1016 
17 19 13 14.7193 0.0801 
17 19 14 5.3884 0.1248 
17 19 15 0.6562 -0.0826 
17 19 16 2.3415 -0.1187 
17 21 0 -8.7155 0.0471 
17 21 1 -11.1348 0.0209 
17 21 2 -3.7623 -0.1866 
17 21 3 -3.3924 0.1034 
17 21 4 6.6252 -0.1093 
17 21 5 9.3831 0.1192 
17 21 6 15.8365 0.0105 
17 21 7 1.0220 0.0517 
17 21 8 17.1470 -0.0647 
17 21 9 -7.1978 -0.0835 
17 21 10 0.9725 0.0195 
17 21 11 3.8601 0.1069 
17 21 12 2.8641 -0.0565 
17 21 13 19.9548 0.1358 
17 21 14 6.8620 0.0433 
17 21 15 -5.6999 -0.7194 
17 23 0 -10.6479 0.0144 
17 23 1 -3.6896 -0.1167 
17 23 2 2.5295 0.0254 
17 23 3 8.7810 0.1926 
17 23 4 3.5873 -0.0080 
17 23 5 -2.4286 0.0654 
17 23 6 4.8951 -0.1017 
17 23 7 -5.1347 -0.0312 
17 23 8 22.0469 -0.0001 
17 23 9 -2.0252 0.1633 
17 23 10 -0.7612 -0.0328 
17 23 11 -9.5489 -0.0895 
17 23 12 1.9275 -0.0997 
17 23 13 2.6148 -0.4043 
17 25 0 -12.2704 0.0135 
17 25 1 -0.2300 -0.0938 
17 25 2 1.1409 0.1560 
17 25 3 8.1035 -0.0675 
17 25 4 -9.0337 0.0263 
17 25 5 -13.9721 -0.0869 
17 25 6 -0.3638 0.0461 
17 25 7 -7.4564 -0.0413 
17 25 8 7.9498 0.2426 
17 25 9 -8.8685 -0.0971 
17 25 10 0.6808 -0.2321 
17 25 11 -3.2177 0.2485 
17 27 0 -3.3915 -0.1094 
17 27 1 2.4612 -0.0394 
17 27 2 -10.3848 0.1103 
17 27 3 4.3730 0.0418 
17 27 4 7.6262 0.0915 
17 27 5 7.2133 -0.2864 
17 27 6 6.8977 0.1355 
17 27 7 -16.4334 -0.2140 
17 27 8 5.0954 -0.0911 
17 29 0 0.2862 0.0296 
17 29 1 14.1989 0.0271 
17 29 2 -0.0835 -0.1076 
17 29 3 -2.6540 0.2196 
17 29 4 -7.7881 0.3385 
17 29 5 2.6485 -0.2467 
18 0 0 -12.9059 -5.6325 
18 0 1 17.3421 -0.1744 
18 0 2 -28.7873 -4.2706 
18 0 3 -33.7901 4.4936 
18 0 4 24.4864 1.8860 
18 0 5 10.2538 1.1707 
18 0 6 -47.2631 -3.5388 
18 0 7 9.7832 0.0551 
18 0 8 -1.0759 -0.2271 
18 0 9 -4.2350 0.6983 
18 0 10 -1.2504 -0.9973 
18 0 11 7.8799 1.5810 
18 0 12 10.4163 0.7929 
18 0 13 6.7488 0.0471 
18 0 14 -0.4354 -1.4846 
18 0 15 -16.6365 0.3742 
18 0 16 1.4696 0.3185 
18 0 17 -25.1174 0.4956 
18 0 18 11.2753 -0.7681 
18 0 19 11.1897 0.0337 
18 0 20 -5.7321 0.2011 
18 0 21 -3.9585 0.8278 
18 2 0 -9.3635 0.8458 
18 2 1 10.6682 0.7422 
18 2 2 -7.4404 -1.3553 
18 2 3 13.5776 0.9589 
18 2 4 -0.0266 -0.9327 
18 2 5 -3.1351 -0.3026 
18 2 6 4.6290 -0.8890 
18 2 7 33.1993 1.6544 
18 2 8 9.0843 0.7445 
18 2 9 3.6263 -0.1900 
18 2 10 10.2614 -1.4421 
18 2 11 16.4662 0.1313 
18 2 12 20.6737 0.2098 
18 2 13 -10.6478 0.3043 
18 2 14 4.4376 -0.3656 
18 2 15 4.4983 0.1158 
18 2 16 25.3629 0.0821 
18 2 17 -11.6550 -0.0057 
18 2 18 -1.2038 0.1106 
18 2 19 -8.2033 -0.0640 
18 2 20 -15.3389 -0.1254 
18 2 21 -1.1631 -0.2054 
18 4 0 -1.7469 -0.3501 
18 4 1 26.1325 -0.6381 
18 4 2 -11.5875 -0.1402 
18 4 3 10.9080 0.3780 
18 4 4 -2.0198 0.3920 
18 4 5 -7.3568 0.1002 
18 4 6 -5.6922 -0.0161 
18 4 7 4.5140 -0.3376 
18 4 8 -6.8318 -0.4044 
18 4 9 0.3655 -0.1672 
18 4 10 7.8133 0.4499 
18 4 11 13.6089 0.4582 
18 4 12 19.5282 0.0034 
18 4 13 -13.5877 -0.3965 
18 4 14 18.3102 0.0492 
18 4 15 -0.1602 0.0241 
18 4 16 9.3347 0.3145 
18 4 17 -9.8984 -0.4738 
18 4 18 5.5010 0.0977 
18 4 19 3.5283 0.0878 
18 4 20 -7.1171 -0.0215 
18 4 21 3.4468 0.1312 
18 6 0 -5.3791 0.1330 
18 6 1 10.0003 0.6851 
18 6 2 -16.3211 0.2887 
18 6 3 -3.0709 -0.4112 
18 6 4 21.6964 -0.6886 
18 6 5 -3.8722 0.0861 
18 6 6 -23.7974 -0.0215 
18 6 7 2.6878 0.4802 
18 6 8 -1.3418 -0.1783 
18 6 9 -8.6087 0.0460 
18 6 10 5.3201 -0.0297 
18 6 11 -0.9613 0.0060 
18 6 12 1.7738 -0.2074 
18 6 13 -5.6889 -0.0788 
18 6 14 -7.1664 0.0870 
18 6 15 -10.2544 0.2011 
18 6 16 2.1406 -0.1906 
18 6 17 -2.8957 -0.1103 
18 6 18 -3.3186 0.0146 
18 6 19 -3.5560 0.0064 
18 6 20 -5.0516 -0.0094 
18 6 21 -10.5175 0.0310 
18 8 0 9.7418 -0.3296 
18 8 1 23.0819 -0.0325 
18 8 2 4.3274 0.0455 
18 8 3 4.8667 -0.1467 
18 8 4 2.2579 0.0487 
18 8 5 -10.5530 0.5661 
18 8 6 4.0868 -0.2506 
18 8 7 -4.3260 0.1456 
18 8 8 -8.4186 -0.7234 
18 8 9 5.3691 0.4763 
18 8 10 20.7292 -0.1341 
18 8 11 4.6546 0.3011 
18 8 12 9.3197 -0.3592 
18 8 13 5.3086 0.2283 
18 8 14 -12.4194 -0.2096 
18 8 15 5.2228 0.1418 
18 8 16 6.9700 -0.2248 
18 8 17 -12.7668 0.1877 
18 8 18 -5.6470 -0.0425 
18 8 19 1.1237 -0.1446 
18 8 20 5.5873 0.2173 
18 10 0 -2.6664 0.2314 
18 10 1 22.2354 0.0783 
18 10 2 -10.5781 0.2730 
18 10 3 -13.3593 -0.3400 
18 10 4 18.1853 -0.0216 
18 10 5 4.6054 -0.1809 
18 10 6 -4.4864 0.0896 
18 10 7 12.3813 -0.0395 
18 10 8 7.6720 0.1975 
18 10 9 -0.5081 0.2431 
18 10 10 3.4662 -0.3378 
18 10 11 -17.7695 -0.1521 
18 10 12 -9.8706 -0.0736 
18 10 13 6.6708 0.3657 
18 10 14 10.3426 -0.1076 
18 10 15 0.3708 -0.0168 
18 10 16 4.4606 -0.1065 
18 10 17 0.7663 0.2516 
18 10 18 -7.7165 -0.1470 
18 10 19 -2.9823 -0.1412 
18 10 20 9.2507 -0.0023 
18 12 0 -19.6060 0.0526 
18 12 1 2.9077 -0.2874 
18 12 2 -2.6156 0.0272 
18 12 3 9.1065 -0.0999 
18 12 4 16.9178 0.3554 
18 12 5 -6.8911 -0.0426 
18 12 6 1.6388 0.1449 
18 12 7 -5.0263 -0.2834 
18 12 8 2.4156 0.0465 
18 12 9 -11.1243 -0.0381 
18 12 10 -0.2750 -0.1236 
18 12 11 -9.4494 0.0887 
18 12 12 9.6294 0.1860 
18 12 13 3.8297 0.0957 
18 12 14 -11.8050 -0.0279 
18 12 15 -4.3005 -0.1408 
18 12 16 5.8882 -0.0575 
18 12 17 -11.0903 0.1227 
18 12 18 -24.0353 -0.3701 
18 12 19 -17.7832 -0.1085 
18 14 0 2.0696 -0.1842 
18 14 1 -7.9289 0.0062 
18 14 2 -5.8519 -0.0065 
18 14 3 -3.3370 0.1909 
18 14 4 -8.6326 -0.1016 
18 14 5 -14.7362 -0.0805 
18 14 6 -2.2131 -0.0814 
18 14 7 -8.0341 0.1838 
18 14 8 -12.7013 0.0550 
18 14 9 -10.8623 0.0698 
18 14 10 6.5863 -0.0415 
18 14 11 12.1826 -0.1610 
18 14 12 -1.3908 -0.1864 
18 14 13 -7.5153 0.2797 
18 14 14 5.2912 -0.1295 
18 14 15 -7.8425 0.0037 
18 14 16 2.7287 0.0628 
18 14 17 -8.8042 -0.2591 
18 14 18 -8.2732 0.0685 
18 16 0 -5.1809 -0.0460 
18 16 1 2.2466 0.0219 
18 16 2 9.6630 -0.0832 
18 16 3 -7.2991 0.0344 
18 16 4 13.7705 -0.0577 
18 16 5 1.5383 0.0037 
18 16 6 3.8773 0.1727 
18 16 7 10.6988 0.0401 
18 16 8 18.5303 -0.2059 
18 16 9 14.8828 -0.1508 
18 16 10 7.1614 0.1062 
18 16 11 2.9833 0.1675 
18 16 12 -4.2825 -0.1021 
18 16 13 15.8501 0.0555 
18 16 14 0.4737 -0.0851 
18 16 15 -5.4151 0.0182 
18 16 16 9.4846 0.1544 
18 16 17 -2.3777 -0.2186 
18 16 18 -0.5978 0.1969 
18 18 0 -14.4521 -0.0345 
18 18 1 5.6755 -0.0203 
18 18 2 -6.3484 0.1430 
18 18 3 -47.7888 -0.0133 
18 18 4 -7.4147 0.0192 
18 18 5 -10.4208 -0.1476 
18 18 6 -8.6469 0.1621 
18 18 7 -6.5261 -0.0577 
18 18 8 3.5351 0.0243 
18 18 9 -6.9743 -0.1146 
18 18 10 -4.2087 0.2255 
18 18 11 -5.4796 -0.0488 
18 18 12 0.4987 -0.0255 
18 18 13 6.5678 -0.1181 
18 18 14 12.3779 0.0915 
18 18 15 6.9235 -0.0575 
18 18 16 -7.7306 0.0413 
18 20 0 -26.6300 0.1321 
18 20 1 -10.1793 0.0930 
18 20 2 8.3674 -0.0440 
18 20 3 -22.5820 -0.0605 
18 20 4 0.6169 -0.1599 
18 20 5 0.5744 0.0474 
18 20 6 11.7236 0.1138 
18 20 7 3.5193 -0.0656 
18 20 8 0.8577 -0.0874 
18 20 9 2.8295 -0.0957 
18 20 10 3.4581 0.1174 
18 20 11 14.8239 -0.0149 
18 20 12 18.2730 0.0152 
18 20 13 -8.8543 -0.0838 
18 20 14 9.7342 -0.0622 
18 20 15 0.2597 -0.0085 
18 22 0 -10.4863 -0.0682 
18 22 1 3.7366 -0.0806 
18 22 2 6.5183 -0.0841 
18 22 3 -14.5122 0.1953 
18 22 4 3.2356 0.0073 
18 22 5 -4.0527 0.1398 
18 22 6 3.8800 -0.2215 
18 22 7 -4.3247 -0.1262 
18 22 8 -2.0737 -0.0056 
18 22 9 11.0174 0.3091 
18 22 10 9.5486 -0.1785 
18 22 11 5.3973 -0.1283 
18 22 12 23.4892 0.0204 
18 22 13 2.0646 -0.3825 
18 24 0 -4.3326 0.1355 
18 24 1 -4.0871 -0.0353 
18 24 2 -9.9479 -0.0531 
18 24 3 -35.0076 -0.0449 
18 24 4 0.1915 -0.0278 
18 24 5 4.1942 0.0424 
18 24 6 -3.3629 -0.0510 
18 24 7 4.4779 0.1282 
18 24 8 1.6696 -0.0001 
18 24 9 5.7777 0.1142 
18 24 10 0.7409 -0.1452 
18 24 11 18.9540 -0.1935 
18 26 0 7.3287 0.0024 
18 26 1 -22.5246 -0.1395 
18 26 2 9.5304 0.0117 
18 26 3 -0.9335 0.0749 
18 26 4 -0.7097 0.0987 
18 26 5 3.9474 -0.1845 
18 26 6 8.0914 0.0069 
18 26 7 3.1180 -0.0833 
18 26 8 -3.3688 -0.0517 
18 26 9 -5.3614 0.2814 
18 28 0 4.1339 -0.0879 
18 28 1 -13.0781 0.0083 
18 28 2 20.3230 0.2073 
18 28 3 5.1583 -0.1223 
18 28 4 10.3001 0.1063 
18 28 5 5.6188 0.2720 
18 28 6 -2.8060 -0.2052 
18 30 0 11.6315 -0.2163 
19 1 0 10.6839 0.6408 
19 1 1 0.7122 -0.9532 
19 1 2 16.9617 0.2697 
19 1 3 -9.7689 1.5722 
19 1 4 16.5724 -1.1372 
19 1 5 -15.9894 -0.4469 
19 1 6 -4.5364 -0.8547 
19 1 7 -5.9702 1.3618 
19 1 8 -18.7446 0.1989 
19 1 9 -5.2568 0.4265 
19 1 10 2.6877 -1.3588 
19 1 11 -4.5519 0.3467 
19 1 12 -2.1906 -0.0096 
19 1 13 21.5956 0.6932 
19 1 14 -0.7161 -0.5416 
19 1 15 2.8955 0.0835 
19 1 16 1.4961 -0.1291 
19 1 17 -17.1463 0.4796 
19 1 18 -8.0381 0.0241 
19 1 19 -13.9433 -0.2320 
19 1 20 -0.8892 -0.1379 
19 1 21 -14.3142 -0.1707 
19 3 0 38.0641 0.8594 
19 3 1 8.7726 -0.9635 
19 3 2 -22.0623 0.0641 
19 3 3 4.3797 -0.6864 
19 3 4 44.0404 0.4976 
19 3 5 -2.2584 0.0467 
19 3 6 1.5431 0.3581 
19 3 7 -3.1464 -0.1709 
19 3 8 -9.7940 -0.3115 
19 3 9 1.7857 -0.0700 
19 3 10 -5.8395 0.2288 
19 3 11 1.0927 0.2097 
19 3 12 15.4785 -0.2056 
19 3 13 16.9716 -0.1832 
19 3 14 17.4968 -0.0311 
19 3 15 11.9811 -0.0284 
19 3 16 1.3973 0.2586 
19 3 17 -12.9237 -0.1074 
19 3 18 3.7882 0.2013 
19 3 19 -9.3747 -0.3629 
19 3 20 -2.9486 0.1028 
19 3 21 1.1527 0.9771 
19 5 0 4.0066 0.1746 
19 5 1 22.2769 0.3765 
19 5 2 3.4527 0.4334 
19 5 3 4.3226 -0.5562 
19 5 4 6.2571 0.0960 
19 5 5 -16.4174 -0.1360 
19 5 6 4.5547 0.3230 
19 5 7 -7.4730 -0.4945 
19 5 8 -4.5508 0.3743 
19 5 9 12.8225 -0.2787 
19 5 10 4.3335 0.4781 
19 5 11 12.6503 -0.2997 
19 5 12 -4.9981 -0.0013 
19 5 13 -1.2959 -0.0620 
19 5 14 -5.8153 0.3083 
19 5 15 -3.8613 0.0825 
19 5 16 15.8192 -0.1340 
19 5 17 -2.2877 -0.2479 
19 5 18 -4.9006 0.1398 
19 5 19 -0.7030 0.0720 
19 5 20 -4.1953 -0.2668 
19 7 0 10.8531 -0.2160 
19 7 1 27.9374 0.2465 
19 7 2 2.6215 -0.0601 
19 7 3 -8.2513 -0.5217 
19 7 4 10.5943 0.0957 
19 7 5 0.0609 0.4569 
19 7 6 5.1878 0.0457 
19 7 7 -4.3719 -0.2489 
19 7 8 -1.4553 -0.2076 
19 7 9 -0.3527 0.0713 
19 7 10 0.7305 0.1509 
19 7 11 -1.0401 0.0327 
19 7 12 4.5855 -0.0398 
19 7 13 23.9045 -0.1045 
19 7 14 -11.9353 0.0046 
19 7 15 3.0500 0.1862 
19 7 16 4.9255 -0.2518 
19 7 17 -1.7143 0.1530 
19 7 18 -0.8908 -0.2621 
19 7 19 -6.3306 -0.0538 
19 7 20 0.9390 0.4955 
19 9 0 25.0708 -0.1562 
19 9 1 6.8776 0.0094 
19 9 2 -10.3366 0.3401 
19 9 3 2.4219 0.0096 
19 9 4 10.8634 0.0503 
19 9 5 -5.2370 -0.2744 
19 9 6 -8.3027 -0.0272 
19 9 7 -2.0469 -0.0043 
19 9 8 -2.6307 0.2894 
19 9 9 -2.1901 0.0194 
19 9 10 -1.7184 -0.1478 
19 9 11 11.0273 -0.1348 
19 9 12 -1.1203 0.0862 
19 9 13 4.0486 0.1870 
19 9 14 -1.0635 -0.0439 
19 9 15 -4.8665 -0.1217 
19 9 16 -1.8168 -0.2457 
19 9 17 -0.6100 0.1395 
19 9 18 -1.7128 0.1665 
19 9 19 -1.4475 0.0857 
19 9 20 2.5113 0.2507 
19 11 0 5.5211 -0.0190 
19 11 1 2.4534 -0.4955 
19 11 2 11.2676 0.0519 
19 11 3 -4.2688 -0.0828 
19 11 4 -0.0254 0.2707 
19 11 5 1.4498 -0.3123 
19 11 6 10.0305 0.3875 
19 11 7 8.1405 -0.2567 
19 11 8 10.2087 0.1787 
19 11 9 12.6657 -0.3326 
19 11 10 18.0630 0.1723 
19 11 11 -0.1445 -0.1557 
19 11 12 -9.9290 0.2750 
19 11 13 1.6776 -0.1528 
19 11 14 7.6316 0.1264 
19 11 15 -11.2959 -0.1315 
19 11 16 0.4564 0.3383 
19 11 17 9.0608 0.0634 
19 11 18 15.2163 -0.1663 
19 11 19 0.5989 -0.0052 
19 13 0 16.1525 -0.2931 
19 13 1 -2.2636 -0.0118 
19 13 2 4.3918 0.1551 
19 13 3 -16.9394 0.2583 
19 13 4 -8.2994 -0.0519 
19 13 5 14.2004 -0.2518 
19 13 6 2.3252 0.1136 
19 13 7 -6.2130 0.0314 
19 13 8 18.6941 0.1295 
19 13 9 -2.2110 -0.1495 
19 13 10 6.6563 0.1287 
19 13 11 -2.9369 -0.1789 
19 13 12 9.8215 0.0004 
19 13 13 -5.9496 0.0535 
19 13 14 1.4913 0.2910 
19 13 15 -2.5129 -0.2434 
19 13 16 -4.8503 0.1977 
19 13 17 -6.2287 -0.2335 
19 13 18 0.6475 0.1168 
19 15 0 8.4394 -0.1258 
19 15 1 0.5184 0.1245 
19 15 2 6.8193 -0.2370 
19 15 3 -24.1411 0.0888 
19 15 4 -11.6147 -0.2183 
19 15 5 -0.3276 0.1556 
19 15 6 3.4919 0.0449 
19 15 7 5.2718 0.1669 
19 15 8 2.3103 -0.2099 
19 15 9 4.3122 -0.1347 
19 15 10 -0.5985 0.2761 
19 15 11 -19.4781 0.0295 
19 15 12 1.7155 -0.0662 
19 15 13 -3.1335 0.0380 
19 15 14 -5.1333 0.0015 
19 15 15 -11.2835 0.0129 
19 15 16 5.2944 0.2216 
19 15 17 2.4636 -0.2243 
19 17 0 -4.5405 -0.0028 
19 17 1 0.6761 0.1032 
19 17 2 4.2739 0.0878 
19 17 3 3.8843 0.0972 
19 17 4 13.9658 -0.1005 
19 17 5 17.3550 -0.0258 
19 17 6 5.5239 0.0537 
19 17 7 -22.7991 -0.0727 
19 17 8 0.3969 -0.0397 
19 17 9 -4.7540 0.0494 
19 17 10 -2.0474 0.1269 
19 17 11 -3.6249 -0.0453 
19 17 12 4.7377 -0.0606 
19 17 13 -4.9776 -0.0599 
19 17 14 0.6733 0.2214 
19 17 15 3.6714 -0.0284 
19 17 16 -0.6346 0.3734 
19 19 0 5.5162 0.1888 
19 19 1 -2.0050 -0.0051 
19 19 2 -0.8731 -0.0635 
19 19 3 -2.1615 -0.0972 
19 19 4 1.5154 -0.0486 
19 19 5 -1.0435 0.1678 
19 19 6 -0.1918 -0.0194 
19 19 7 -2.4449 0.0506 
19 19 8 16.9406 -0.1163 
19 19 9 3.8321 -0.0296 
19 19 10 -5.2219 0.0968 
19 19 11 -0.8794 0.0521 
19 19 12 -6.3061 0.2025 
19 19 13 -26.6985 -0.2224 
19 19 14 -19.2507 0.0884 
19 19 15 -4.7802 0.1520 
19 21 0 7.8167 0.0392 
19 21 1 -8.3600 0.0788 
19 21 2 -7.0859 -0.0858 
19 21 3 4.9487 0.1607 
19 21 4 -5.6659 -0.0188 
19 21 5 -2.3624 0.0742 
19 21 6 10.3172 -0.2424 
19 21 7 -15.7115 0.0684 
19 21 8 3.2360 -0.1676 
19 21 9 -7.1457 0.2740 
19 21 10 6.2378 -0.2779 
19 21 11 5.3357 -0.0394 
19 21 12 -16.6655 -0.0933 
19 21 13 -8.2691 0.1509 
19 21 14 3.6276 0.1808 
19 23 0 -2.2366 0.0103 
19 23 1 -13.9338 -0.1431 
19 23 2 -3.0647 0.0147 
19 23 3 12.9811 -0.0367 
19 23 4 2.0677 0.0830 
19 23 5 -8.4429 -0.0320 
19 23 6 9.8565 -0.0649 
19 23 7 -5.2290 0.0429 
19 23 8 2.0714 -0.0329 
19 23 9 3.9111 0.3287 
19 23 10 11.2097 -0.3636 
19 23 11 -9.2781 0.4946 
19 23 12 -6.9218 0.2952 
19 25 0 7.9747 0.1333 
19 25 1 -0.1333 -0.1505 
19 25 2 0.9204 0.1762 
19 25 3 13.6271 -0.2194 
19 25 4 5.1861 0.1462 
19 25 5 -12.6459 -0.1995 
19 25 6 8.9692 0.0203 
19 25 7 7.7308 0.0098 
19 25 8 -3.0504 0.3924 
19 25 9 -6.2746 -0.2388 
19 25 10 8.7258 0.1339 
19 27 0 11.6230 -0.0220 
19 27 1 -10.4077 -0.0307 
19 27 2 -22.2278 0.0522 
19 27 3 10.0454 0.0180 
19 27 4 0.9336 -0.0254 
19 27 5 -9.8602 -0.2657 
19 27 6 10.3608 0.4720 
19 27 7 -3.3437 -0.4884 
19 29 0 -5.1644 0.0239 
19 29 1 -4.8555 -0.1316 
19 29 2 -7.7815 -0.4469 
20 0 0 -15.0783 1.0545 
20 0 1 34.2768 2.9337 
20 0 2 6.6234 -0.7982 
20 0 3 18.1694 2.1233 
20 0 4 47.1024 -0.8353 
20 0 5 20.2117 0.4473 
20 0 6 -10.2297 -1.5174 
20 0 7 26.9357 1.3396 
20 0 8 3.1796 -0.6587 
20 0 9 7.4866 -0.1409 
20 0 10 9.7242 -1.5188 
20 0 11 -14.3727 1.7311 
20 0 12 1.4635 1.7189 
20 0 13 13.4215 1.0500 
20 0 14 14.9493 -2.8297 
20 0 15 19.8499 -1.3877 
20 0 16 -17.2397 0.1216 
20 0 17 -18.0298 2.3931 
20 0 18 12.0064 -0.4325 
20 0 19 -15.0856 -0.0216 
20 0 20 -6.8501 -0.2410 
20 2 0 9.2987 0.3853 
20 2 1 29.7476 -0.8778 
20 2 2 1.9515 -0.4611 
20 2 3 25.0183 0.3465 
20 2 4 2.3086 0.1173 
20 2 5 11.6324 0.1963 
20 2 6 1.6421 -1.0834 
20 2 7 7.9736 0.3945 
20 2 8 -14.3584 0.3831 
20 2 9 -5.6152 0.8417 
20 2 10 11.3646 -0.9082 
20 2 11 -0.1497 -0.2485 
20 2 12 8.3172 -0.2724 
20 2 13 -8.2773 0.6094 
20 2 14 -0.9293 -0.4129 
20 2 15 -0.8686 0.4651 
20 2 16 -16.3006 0.0275 
20 2 17 -0.0334 0.3064 
20 2 18 15.8380 -0.7048 
20 2 19 -8.8496 -0.2946 
20 2 20 5.3804 0.5039 
20 4 0 4.9665 0.4261 
20 4 1 39.2157 -0.0775 
20 4 2 -2.8784 0.0783 
20 4 3 25.9044 -0.8052 
20 4 4 3.6579 0.3505 
20 4 5 -0.1642 0.2990 
20 4 6 3.4709 0.2014 
20 4 7 9.3055 -0.4022 
20 4 8 1.3867 -0.0908 
20 4 9 2.6531 0.1163 
20 4 10 -2.1278 0.0650 
20 4 11 -0.9400 0.0230 
20 4 12 10.0854 0.0874 
20 4 13 1.7599 0.0997 
20 4 14 2.8549 -0.3163 
20 4 15 -15.6534 -0.0482 
20 4 16 -1.1896 -0.0721 
20 4 17 -4.9730 -0.0562 
20 4 18 4.0066 0.2912 
20 4 19 1.5991 0.0802 
20 4 20 2.8602 -0.0827 
20 6 0 1.6918 -0.2471 
20 6 1 25.5848 0.1267 
20 6 2 -8.7601 -0.1446 
20 6 3 -12.3554 0.0024 
20 6 4 11.5393 -0.1437 
20 6 5 -2.9564 0.2870 
20 6 6 -12.2548 -0.1120 
20 6 7 -0.1787 -0.1691 
20 6 8 1.0812 -0.1338 
20 6 9 -4.0913 0.2729 
20 6 10 -1.8635 0.0661 
20 6 11 -4.2829 -0.1723 
20 6 12 1.9390 -0.2569 
20 6 13 15.8028 0.0561 
20 6 14 5.5957 0.2701 
20 6 15 0.1130 0.2949 
20 6 16 13.4035 -0.1326 
20 6 17 -12.0625 -0.0850 
20 6 18 -11.6064 -0.2239 
20 6 19 3.5677 0.0624 
20 6 20 2.8084 -0.1135 
20 8 0 2.8040 -0.1210 
20 8 1 13.4250 0.3223 
20 8 2 5.8675 -0.2229 
20 8 3 -8.9858 0.2291 
20 8 4 1.0409 -0.4454 
20 8 5 8.7097 0.2154 
20 8 6 16.4834 -0.0005 
20 8 7 4.2264 0.2679 
20 8 8 20.2504 -0.4677 
20 8 9 17.5087 0.1265 
20 8 10 -9.1835 -0.2112 
20 8 11 -6.0335 0.3620 
20 8 12 -1.3475 -0.1188 
20 8 13 6.9267 0.1118 
20 8 14 -15.5444 -0.0095 
20 8 15 3.7251 -0.1285 
20 8 16 10.2747 -0.3560 
20 8 17 -1.3809 0.0720 
20 8 18 16.2072 -0.0584 
20 8 19 1.7246 0.0135 
20 10 0 -0.5467 -0.3899 
20 10 1 8.4642 -0.1023 
20 10 2 4.7961 -0.0187 
20 10 3 -0.9803 0.3687 
20 10 4 15.7510 -0.1863 
20 10 5 -11.0387 -0.1501 
20 10 6 7.5141 0.0334 
20 10 7 -5.6202 -0.0422 
20 10 8 -2.4372 0.0220 
20 10 9 5.2909 -0.1345 
20 10 10 -15.3521 0.1797 
20 10 11 4.3674 0.0151 
20 10 12 -0.6243 -0.1416 
20 10 13 2.6627 0.0102 
20 10 14 -2.0691 0.0074 
20 10 15 2.3963 0.0949 
20 10 16 3.4975 0.0390 
20 10 17 -8.7011 -0.0527 
20 10 18 6.0736 0.1075 
20 10 19 -8.6355 -0.0488 
20 12 0 -4.1763 -0.0766 
20 12 1 14.9652 -0.0847 
20 12 2 -10.6544 -0.0179 
20 12 3 5.0174 0.1178 
20 12 4 2.4812 -0.0306 
20 12 5 -19.1967 -0.2683 
20 12 6 28.7403 0.1660 
20 12 7 -9.2447 0.0643 
20 12 8 -1.7768 0.1114 
20 12 9 0.4497 -0.2478 
20 12 10 -13.9753 0.0430 
20 12 11 -4.4258 -0.1384 
20 12 12 11.1408 -0.0032 
20 12 13 -13.0876 0.0845 
20 12 14 -5.6620 0.0564 
20 12 15 7.2146 -0.1136 
20 12 16 -1.4974 0.1118 
20 12 17 7.4807 0.0587 
20 12 18 15.9923 0.4616 
20 14 0 -16.4117 -0.1027 
20 14 1 0.1600 -0.0353 
20 14 2 -10.9932 -0.1403 
20 14 3 8.2392 0.2328 
20 14 4 8.0245 -0.0730 
20 14 5 -7.1314 0.1199 
20 14 6 22.4978 -0.1140 
20 14 7 8.5449 0.0952 
20 14 8 14.4651 -0.1872 
20 14 9 1.1998 0.0334 
20 14 10 -3.9305 0.2173 
20 14 11 7.8452 0.0566 
20 14 12 -4.2553 -0.0362 
20 14 13 -13.7667 -0.0716 
20 14 14 14.1017 -0.0183 
20 14 15 12.8723 0.4207 
20 14 16 1.1866 0.1299 
20 14 17 13.0430 0.1230 
20 16 0 9.8032 0.1263 
20 16 1 -1.6730 -0.0440 
20 16 2 -11.6813 -0.0040 
20 16 3 8.7453 0.0560 
20 16 4 1.8798 -0.1198 
20 16 5 -2.6449 0.0445 
20 16 6 4.9137 -0.0779 
20 16 7 -14.9919 0.1304 
20 16 8 1.9102 0.0202 
20 16 9 -10.6087 -0.0538 
20 16 10 3.2717 0.0074 
20 16 11 5.3126 -0.0541 
20 16 12 0.6681 -0.0962 
20 16 13 9.7288 0.1921 
20 16 14 -2.0751 0.2529 
20 16 15 1.2175 0.1409 
20 16 16 -2.5037 -0.1828 
20 18 0 2.7052 0.1503 
20 18 1 -1.8584 -0.1289 
20 18 2 -1.2532 0.2039 
20 18 3 3.1382 -0.1277 
20 18 4 -7.7464 0.1909 
20 18 5 -4.1865 -0.0242 
20 18 6 8.9715 0.0604 
20 18 7 -5.9984 -0.1659 
20 18 8 3.0418 0.0038 
20 18 9 -5.7309 0.1104 
20 18 10 0.7325 0.0465 
20 18 11 -13.8435 0.1424 
20 18 12 -10.3672 0.2068 
20 18 13 11.7178 -0.2020 
20 18 14 9.0413 0.2258 
20 18 15 -2.1102 -0.3987 
20 20 0 11.7764 0.1425 
20 20 1 12.3446 -0.0239 
20 20 2 21.9828 0.0687 
20 20 3 3.9595 -0.0917 
20 20 4 3.4867 -0.0016 
20 20 5 -2.9532 -0.0412 
20 20 6 4.1286 0.0296 
20 20 7 -1.8927 0.1071 
20 20 8 -4.2114 0.1158 
20 20 9 0.6840 0.0047 
20 20 10 1.5756 -0.3471 
20 20 11 2.4596 0.0289 
20 20 12 -2.4543 0.0273 
20 20 13 0.0812 -0.2447 
20 20 14 1.3629 0.5773 
20 22 0 11.1826 -0.0756 
20 22 1 -2.2413 -0.0437 
20 22 2 -3.4719 -0.0650 
20 22 3 -13.8667 0.0643 
20 22 4 0.8852 0.1324 
20 22 5 3.6559 0.0301 
20 22 6 0.8424 -0.0946 
20 22 7 -8.1839 -0.1044 
20 22 8 -9.2421 -0.0757 
20 22 9 3.1260 0.0999 
20 22 10 -4.3877 -0.0698 
20 22 11 -14.5079 0.4976 
20 22 12 -2.7689 -0.2632 
20 24 0 12.3955 -0.0395 
20 24 1 -8.9559 0.0798 
20 24 2 7.3584 0.0765 
20 24 3 -0.2455 -0.0662 
20 24 4 10.4432 -0.0529 
20 24 5 -3.9699 -0.0563 
20 24 6 -7.3828 -0.0229 
20 24 7 2.5716 -0.0598 
20 24 8 -2.4173 0.4435 
20 24 9 11.4878 0.0827 
20 24 10 -10.0320 -0.4455 
20 26 0 20.8014 0.0238 
20 26 1 -10.5444 -0.0917 
20 26 2 13.0448 0.0377 
20 26 3 -5.5756 0.0629 
20 26 4 -10.5508 -0.1859 
20 26 5 2.9843 0.0182 
20 26 6 6.7234 -0.1096 
20 26 7 2.9735 -0.2574 
20 28 0 1.2935 -0.0534 
20 28 1 -3.2511 -0.0597 
20 28 2 13.1340 0.1729 
20 28 3 -6.8105 0.0136 
20 28 4 4.7963 0.2883 
21 1 0 -9.5423 -0.3440 
21 1 1 13.8628 -0.3816 
21 1 2 12.0968 0.3117 
21 1 3 -10.7099 0.6339 
21 1 4 12.7959 0.1152 
21 1 5 -10.0347 -0.7523 
21 1 6 11.4417 -0.6424 
21 1 7 8.3762 1.0479 
21 1 8 1.3688 0.3483 
21 1 9 -16.6848 -0.2914 
21 1 10 -1.6776 -0.8714 
21 1 11 15.4444 0.5804 
21 1 12 11.0018 0.2660 
21 1 13 11.8936 0.1227 
21 1 14 -0.5994 -0.6960 
21 1 15 19.9833 0.4281 
21 1 16 12.2831 0.0969 
21 1 17 -7.6187 0.4917 
21 1 18 16.2010 -0.6337 
21 1 19 -1.3027 0.1203 
21 1 20 7.8654 -0.1773 
21 3 0 -11.7739 0.3126 
21 3 1 6.4160 -0.6712 
21 3 2 7.5952 0.5934 
21 3 3 16.2111 -0.6899 
21 3 4 4.0027 0.4598 
21 3 5 -14.6396 -0.8490 
21 3 6 18.0076 0.6046 
21 3 7 14.3135 -0.1312 
21 3 8 8.3582 0.2148 
21 3 9 -20.7909 -0.3921 
21 3 10 -24.9287 0.0952 
21 3 11 4.9287 -0.0562 
21 3 12 5.9431 0.1699 
21 3 13 -7.0384 0.0648 
21 3 14 -4.9142 0.0453 
21 3 15 5.8259 -0.1962 
21 3 16 -0.0745 -0.1137 
21 3 17 -2.6911 0.0473 
21 3 18 9.0834 -0.1175 
21 3 19 -11.9002 -0.0147 
21 3 20 7.0977 0.5128 
21 5 0 14.3050 -0.3816 
21 5 1 3.6255 0.1129 
21 5 2 5.6004 -0.0240 
21 5 3 2.5420 -0.3283 
21 5 4 5.4234 0.2802 
21 5 5 2.1322 0.0140 
21 5 6 15.8972 0.5326 
21 5 7 -20.3566 -0.9631 
21 5 8 6.2789 0.2030 
21 5 9 3.7614 -0.1093 
21 5 10 -5.1287 0.8212 
21 5 11 2.9314 -0.4618 
21 5 12 -2.3340 -0.0833 
21 5 13 10.5286 -0.2541 
21 5 14 1.6662 0.2243 
21 5 15 -3.4718 0.0026 
21 5 16 -2.8151 0.0566 
21 5 17 -8.4968 -0.0272 
21 5 18 3.3985 0.0671 
21 5 19 2.5380 0.0462 
21 7 0 -14.1201 0.0310 
21 7 1 -9.6914 0.4215 
21 7 2 10.5862 -0.2721 
21 7 3 -0.1697 -0.1812 
21 7 4 15.2514 -0.3550 
21 7 5 -9.9399 0.1945 
21 7 6 -0.0377 0.2420 
21 7 7 0.1428 -0.0095 
21 7 8 14.4753 -0.1178 
21 7 9 -9.2700 -0.0500 
21 7 10 -4.1372 0.0176 
21 7 11 -0.5328 -0.2433 
21 7 12 4.2253 -0.0093 
21 7 13 8.9785 0.1406 
21 7 14 -13.1411 0.3455 
21 7 15 -7.3710 -0.1115 
21 7 16 0.8409 -0.1595 
21 7 17 17.2526 -0.1928 
21 7 18 -5.5607 -0.1814 
21 7 19 -9.5635 0.1169 
21 9 0 10.3038 -0.2165 
21 9 1 -1.2338 -0.0548 
21 9 2 8.9088 -0.1601 
21 9 3 -22.0295 0.3921 
21 9 4 4.7472 0.1186 
21 9 5 -11.5387 0.0051 
21 9 6 -10.1617 -0.2151 
21 9 7 -16.2071 -0.1019 
21 9 8 -11.7612 -0.1888 
21 9 9 -6.5409 0.1425 
21 9 10 1.0730 0.3051 
21 9 11 3.3770 -0.0862 
21 9 12 -11.8833 -0.0607 
21 9 13 -0.2765 -0.1356 
21 9 14 1.4938 0.1866 
21 9 15 -3.2148 -0.0850 
21 9 16 -5.1934 -0.0688 
21 9 17 6.4782 0.0812 
21 9 18 2.2007 -0.1013 
21 9 19 5.1554 -0.7301 
21 11 0 12.2723 0.2392 
21 11 1 -1.3300 -0.0298 
21 11 2 -5.9096 -0.1255 
21 11 3 -10.3178 0.0147 
21 11 4 1.0996 -0.0153 
21 11 5 -16.9357 -0.3116 
21 11 6 -11.1042 0.0973 
21 11 7 -14.1533 0.2265 
21 11 8 -6.2875 0.2071 
21 11 9 -8.0464 -0.4196 
21 11 10 1.2616 -0.0294 
21 11 11 -4.5224 -0.2378 
21 11 12 -5.3403 0.3689 
21 11 13 2.7131 -0.0933 
21 11 14 4.5592 0.0069 
21 11 15 -8.0072 -0.2492 
21 11 16 -0.5236 0.1649 
21 11 17 -9.7695 -0.3381 
21 11 18 2.7657 0.0816 
21 13 0 5.9280 -0.1330 
21 13 1 -2.8388 -0.2333 
21 13 2 -8.6320 -0.0270 
21 13 3 1.8098 0.4514 
21 13 4 3.4559 0.1083 
21 13 5 -2.8391 -0.1268 
21 13 6 -28.1383 -0.2001 
21 13 7 -22.6972 0.0168 
21 13 8 13.0136 0.0279 
21 13 9 -9.0820 -0.0117 
21 13 10 8.5914 0.1343 
21 13 11 12.9314 0.1935 
21 13 12 8.8041 -0.0713 
21 13 13 -7.0215 -0.3162 
21 13 14 1.4424 0.0556 
21 13 15 7.1995 -0.0702 
21 13 16 4.4874 0.4050 
21 13 17 -9.1926 -0.4122 
21 15 0 -6.6351 0.0570 
21 15 1 4.1505 0.0112 
21 15 2 10.2645 -0.0615 
21 15 3 -5.3021 0.0479 
21 15 4 4.7531 -0.2427 
21 15 5 2.1486 0.1028 
21 15 6 10.8786 -0.0885 
21 15 7 2.4338 0.4135 
21 15 8 1.9398 -0.0969 
21 15 9 -2.8993 -0.0236 
21 15 10 4.9069 -0.1981 
21 15 11 -6.7935 -0.0529 
21 15 12 -2.8807 0.0125 
21 15 13 1.6234 0.0401 
21 15 14 -7.4444 0.0780 
21 15 15 -1.1365 0.1685 
21 15 16 0.4923 0.0786 
21 17 0 5.5087 0.0251 
21 17 1 -0.7633 -0.1282 
21 17 2 0.5020 0.1264 
21 17 3 8.3105 -0.0369 
21 17 4 4.8763 0.1368 
21 17 5 -0.7850 0.0397 
21 17 6 10.4070 0.0464 
21 17 7 -6.4803 -0.2130 
21 17 8 9.3321 -0.0802 
21 17 9 3.7521 0.0291 
21 17 10 24.4264 0.1067 
21 17 11 -1.3901 0.1658 
21 17 12 -4.2397 -0.0282 
21 17 13 5.8959 -0.0640 
21 17 14 -4.8517 0.0088 
21 17 15 3.1846 0.0798 
21 19 0 11.6414 0.0863 
21 19 1 -4.3391 0.1249 
21 19 2 -14.9742 0.1415 
21 19 3 -4.1907 -0.2457 
21 19 4 0.9611 0.0028 
21 19 5 -11.1386 -0.0315 
21 19 6 9.5228 0.1563 
21 19 7 -3.0284 -0.0651 
21 19 8 -0.0849 0.1642 
21 19 9 -6.3947 0.1226 
21 19 10 -4.0547 -0.1690 
21 19 11 -4.4536 -0.3127 
21 19 12 8.6706 0.0513 
21 19 13 11.2147 -0.2305 
21 19 14 -2.0547 -0.0708 
21 21 0 9.6471 -0.0850 
21 21 1 -6.2157 -0.0389 
21 21 2 -8.0593 -0.1257 
21 21 3 12.6787 0.0437 
21 21 4 -2.3718 -0.1009 
21 21 5 0.9048 0.2206 
21 21 6 14.7199 -0.1125 
21 21 7 -5.1873 -0.1832 
21 21 8 8.3277 0.0158 
21 21 9 -13.8390 0.1366 
21 21 10 0.7191 -0.1825 
21 21 11 9.5094 0.1390 
21 21 12 4.4003 0.5545 
21 23 0 17.3551 0.0246 
21 23 1 13.2990 0.0530 
21 23 2 -4.5939 -0.0218 
21 23 3 -3.7372 0.1342 
21 23 4 0.3070 -0.0457 
21 23 5 -18.8719 0.0251 
21 23 6 -9.2216 -0.1279 
21 23 7 -7.4578 -0.0718 
21 23 8 0.9523 0.2801 
21 23 9 -4.2509 0.0440 
21 23 10 3.1755 -0.5593 
21 25 0 -23.7839 0.0479 
21 25 1 -11.8550 -0.2468 
21 25 2 -6.4337 0.0211 
21 25 3 -9.6655 0.0342 
21 25 4 14.8508 0.0700 
21 25 5 -11.1954 -0.1274 
21 25 6 3.7932 -0.0564 
21 25 7 15.0799 -0.0529 
21 25 8 -1.6826 -0.4626 
21 27 0 -10.4902 0.2965 
21 27 1 -22.4695 -0.2749 
21 27 2 -7.0049 -0.0039 
21 27 3 1.0187 0.4870 
21 27 4 8.4121 -0.1186 
21 27 5 -0.4608 -0.2597 
22 0 0 8.0227 -6.9954 
22 0 1 2.0258 2.7586 
22 0 2 14.2767 2.3541 
22 0 3 14.7246 3.7627 
22 0 4 5.0583 -2.4243 
22 0 5 0.7132 -1.7549 
22 0 6 1.9152 -1.6031 
22 0 7 -12.0759 1.1002 
22 0 8 -4.8585 0.6839 
22 0 9 -1.7882 0.7586 
22 0 10 4.7491 -0.6014 
22 0 11 -15.6761 0.1051 
22 0 12 13.6803 -0.0226 
22 0 13 1.3483 0.3289 
22 0 14 -23.3634 -0.8162 
22 0 15 22.2176 -0.0086 
22 0 16 -0.1104 -0.3460 
22 0 17 -14.8220 0.6908 
22 0 18 18.9271 -0.2564 
22 0 19 6.4646 0.9506 
22 2 0 7.5836 -0.6993 
22 2 1 -9.9177 0.3241 
22 2 2 14.5145 -0.3745 
22 2 3 13.2984 -0.2203 
22 2 4 -13.3174 -0.8948 
22 2 5 8.1634 0.7718 
22 2 6 -9.4601 0.8267 
22 2 7 -11.4030 0.1137 
22 2 8 0.3027 -0.6743 
22 2 9 -2.0846 -0.4223 
22 2 10 6.5692 -0.0557 
22 2 11 -8.9403 0.3126 
22 2 12 -1.1413 0.0123 
22 2 13 -12.2094 0.2358 
22 2 14 -2.3286 -0.1113 
22 2 15 19.6936 -0.0285 
22 2 16 -9.1716 0.0239 
22 2 17 2.3987 0.2263 
22 2 18 9.8813 -0.0580 
22 2 19 -5.8207 -0.2519 
22 4 0 13.6627 -0.0673 
22 4 1 -4.2983 0.3361 
22 4 2 -2.0997 0.2816 
22 4 3 4.2548 0.1498 
22 4 4 -3.2380 0.2054 
22 4 5 15.1868 -0.2538 
22 4 6 -0.5177 -0.1433 
22 4 7 -5.4882 -0.6085 
22 4 8 -4.7752 0.1541 
22 4 9 -5.7976 0.3488 
22 4 10 -1.3228 0.5753 
22 4 11 1.6172 -0.4090 
22 4 12 -4.1844 -0.2786 
22 4 13 -14.3738 -0.0016 
22 4 14 1.4939 0.4695 
22 4 15 17.3768 -0.2694 
22 4 16 0.8941 -0.1544 
22 4 17 8.7838 0.0360 
22 4 18 11.5809 0.1881 
22 4 19 -9.4900 -0.3133 
22 6 0 -3.6510 0.2969 
22 6 1 -7.8594 0.1424 
22 6 2 8.7560 -0.7261 
22 6 3 8.9419 -0.2631 
22 6 4 3.6794 -0.1406 
22 6 5 5.8854 0.6224 
22 6 6 0.1689 0.1759 
22 6 7 -4.7934 -0.0792 
22 6 8 -6.6497 -0.2719 
22 6 9 1.2405 0.0846 
22 6 10 7.0485 0.1186 
22 6 11 6.9849 -0.1479 
22 6 12 -1.5389 -0.0878 
22 6 13 0.5571 0.0733 
22 6 14 7.4106 0.2653 
22 6 15 0.1224 -0.1956 
22 6 16 -8.3102 -0.0689 
22 6 17 -1.6949 -0.0233 
22 6 18 7.9686 -0.0439 
22 6 19 10.4405 0.1615 
22 8 0 12.1880 0.0274 
22 8 1 -9.7677 0.2540 
22 8 2 -3.4106 -0.0113 
22 8 3 -16.0942 0.3948 
22 8 4 -11.6048 -0.1726 
22 8 5 18.9761 0.0675 
22 8 6 4.4177 -0.5350 
22 8 7 -25.9127 0.3055 
22 8 8 -5.1824 -0.1306 
22 8 9 2.6372 0.4320 
22 8 10 -9.6779 -0.2693 
22 8 11 3.1160 0.1533 
22 8 12 -3.7499 -0.2581 
22 8 13 10.5088 0.1131 
22 8 14 6.8317 0.1483 
22 8 15 -4.4461 0.0086 
22 8 16 -0.8389 0.0149 
22 8 17 -0.3284 0.1792 
22 8 18 -12.2313 -0.0602 
22 10 0 -13.9298 0.2170 
22 10 1 -18.0397 -0.2819 
22 10 2 18.0541 -0.2052 
22 10 3 -1.4725 0.1765 
22 10 4 4.9359 -0.0466 
22 10 5 -6.0854 0.0543 
22 10 6 3.0584 -0.0996 
22 10 7 2.2638 0.4426 
22 10 8 17.0161 -0.1285 
22 10 9 4.2420 -0.2590 
22 10 10 -9.5985 -0.1187 
22 10 11 18.9894 0.1712 
22 10 12 4.4848 0.1292 
22 10 13 10.1048 0.0559 
22 10 14 3.1189 -0.2767 
22 10 15 -4.9373 0.0993 
22 10 16 11.0896 0.0688 
22 10 17 -2.2430 -0.1933 
22 10 18 6.2625 0.2685 
22 12 0 21.8133 0.0447 
22 12 1 1.9743 -0.2493 
22 12 2 1.0114 0.2647 
22 12 3 -4.7271 0.2377 
22 12 4 -2.0942 0.0775 
22 12 5 4.0039 -0.2666 
22 12 6 18.2638 -0.2033 
22 12 7 -0.3603 0.1916 
22 12 8 9.8350 -0.0644 
22 12 9 2.8509 -0.0122 
22 12 10 -6.2307 0.0453 
22 12 11 5.1455 0.0830 
22 12 12 10.4213 0.0489 
22 12 13 0.0761 0.0406 
22 12 14 9.7547 -0.2975 
22 12 15 4.3371 0.1953 
22 12 16 6.8011 0.2311 
22 12 17 -2.7411 -0.6576 
22 14 0 5.9569 0.0383 
22 14 1 -5.4653 0.0146 
22 14 2 0.7104 0.0203 
22 14 3 -1.3168 0.0078 
22 14 4 3.0725 -0.0907 
22 14 5 -5.7587 0.0703 
22 14 6 10.5035 -0.0969 
22 14 7 -2.3964 0.3193 
22 14 8 -4.0489 -0.1019 
22 14 9 -0.1617 0.1673 
22 14 10 -3.8181 -0.2729 
22 14 11 2.5157 0.2293 
22 14 12 4.8098 -0.1200 
22 14 13 -2.1611 -0.1207 
22 14 14 2.6215 -0.0046 
22 14 15 -1.8385 -0.0603 
22 14 16 -7.9413 -0.2814 
22 16 0 7.0294 0.0596 
22 16 1 0.8538 -0.0606 
22 16 2 9.0730 -0.0398 
22 16 3 7.3466 -0.1411 
22 16 4 -7.2749 0.0679 
22 16 5 -6.5964 0.0946 
22 16 6 8.3930 -0.0430 
22 16 7 2.8742 -0.0654 
22 16 8 6.9059 -0.1209 
22 16 9 -1.6301 0.1690 
22 16 10 -2.6413 -0.0958 
22 16 11 -2.7251 0.0674 
22 16 12 9.0314 -0.0504 
22 16 13 4.7650 0.0498 
22 16 14 -6.2715 -0.1207 
22 16 15 2.3986 -0.0708 
22 18 0 1.3997 0.1666 
22 18 1 -8.2696 0.0295 
22 18 2 -1.9132 0.1323 
22 18 3 5.1945 -0.2330 
22 18 4 3.4796 0.1458 
22 18 5 -0.9408 -0.0915 
22 18 6 3.0811 0.2861 
22 18 7 -1.8042 -0.3176 
22 18 8 0.3541 0.1951 
22 18 9 2.8289 0.1456 
22 18 10 6.4062 -0.2299 
22 18 11 5.0272 -0.2725 
22 18 12 -0.8640 -0.0352 
22 18 13 -8.8753 -0.0869 
22 18 14 -8.4505 -0.0284 
22 20 0 17.2936 -0.0748 
22 20 1 -7.9223 -0.0400 
22 20 2 0.9472 -0.0174 
22 20 3 -0.0258 -0.1692 
22 20 4 1.3262 0.0941 
22 20 5 -24.3704 0.0109 
22 20 6 -9.6078 -0.0118 
22 20 7 3.0023 -0.2758 
22 20 8 -4.4565 0.1767 
22 20 9 1.4310 0.1381 
22 20 10 1.5788 -0.0190 
22 20 11 -0.4510 0.0703 
22 20 12 -1.2037 0.1729 
22 22 0 6.8312 -0.0266 
22 22 1 -6.5614 0.1434 
22 22 2 6.6209 -0.0219 
22 22 3 3.1082 0.0271 
22 22 4 8.2545 -0.0026 
22 22 5 -14.9264 -0.0920 
22 22 6 -12.7790 -0.0082 
22 22 7 -2.7321 -0.0138 
22 22 8 -6.3204 0.0506 
22 22 9 -0.0190 -0.0711 
22 22 10 7.3106 -0.0550 
22 22 11 -15.8598 -0.4000 
22 24 0 4.6534 -0.2082 
22 24 1 4.6518 -0.0816 
22 24 2 3.1497 -0.1014 
22 24 3 -11.3201 0.2849 
22 24 4 9.2623 -0.0897 
22 24 5 -6.1599 -0.0347 
22 24 6 6.8170 0.3241 
22 24 7 7.0195 -0.4487 
22 24 8 5.6287 0.3315 
22 26 0 -0.8274 -0.0495 
22 26 1 4.9486 -0.0073 
22 26 2 9.2662 -0.2861 
22 26 3 -14.5228 0.1366 
22 26 4 -2.0961 -0.0925 
22 26 5 0.7722 0.3666 
22 28 0 -8.1194 -0.3702 
23 1 0 -26.4700 -0.3439 
23 1 1 -34.3568 0.0309 
23 1 2 -8.9534 -0.5554 
23 1 3 -10.0772 0.8560 
23 1 4 -7.6392 -0.8689 
23 1 5 7.0190 0.3322 
23 1 6 -0.6567 0.0698 
23 1 7 3.5610 0.8547 
23 1 8 10.0258 -0.3240 
23 1 9 3.4528 -0.5566 
23 1 10 7.0023 -0.5479 
23 1 11 -5.5650 0.5295 
23 1 12 -15.4400 0.4313 
23 1 13 -15.2126 0.0315 
23 1 14 0.3127 -0.6192 
23 1 15 5.6437 -0.0054 
23 1 16 -2.2394 0.2701 
23 1 17 -3.6936 0.1133 
23 1 18 15.6127 -0.2373 
23 1 19 -0.9532 -0.3745 
23 3 0 2.7978 0.0201 
23 3 1 -1.2425 -0.2982 
23 3 2 -2.6297 0.6439 
23 3 3 5.3956 0.0652 
23 3 4 -10.8927 0.5764 
23 3 5 7.7538 -0.3620 
23 3 6 9.5348 -0.2004 
23 3 7 5.4345 -0.3515 
23 3 8 -7.5613 0.4389 
23 3 9 -10.2012 -0.0709 
23 3 10 -11.0180 0.1822 
23 3 11 -0.3562 -0.2658 
23 3 12 6.3117 0.0639 
23 3 13 -7.6611 -0.1892 
23 3 14 -1.5856 0.2821 
23 3 15 0.3472 -0.0130 
23 3 16 -0.5693 0.0334 
23 3 17 -4.6161 -0.0825 
23 3 18 -7.2892 -0.3123 
23 5 0 -7.7982 0.1620 
23 5 1 -0.5778 0.1225 
23 5 2 3.8838 -0.2565 
23 5 3 7.6396 -0.1635 
23 5 4 -7.4710 0.2268 
23 5 5 3.1158 -0.0932 
23 5 6 6.2994 0.2922 
23 5 7 -2.1588 -0.4431 
23 5 8 9.1202 0.2641 
23 5 9 9.6855 -0.1904 
23 5 10 -0.8919 0.3351 
23 5 11 -6.4576 -0.3395 
23 5 12 -0.8637 0.2180 
23 5 13 -3.6635 -0.0231 
23 5 14 -6.0947 0.2618 
23 5 15 1.5645 -0.2518 
23 5 16 0.4990 -0.2623 
23 5 17 -14.9596 0.0123 
23 5 18 -6.4178 0.3158 
23 7 0 -1.5317 0.1319 
23 7 1 2.0728 0.0394 
23 7 2 -0.7918 -0.0944 
23 7 3 2.2299 0.1122 
23 7 4 -7.0889 -0.0528 
23 7 5 -6.7067 -0.0530 
23 7 6 6.3969 -0.0064 
23 7 7 17.0917 -0.0529 
23 7 8 2.5522 -0.0653 
23 7 9 -14.2566 0.2005 
23 7 10 2.7729 0.0421 
23 7 11 -6.4626 -0.0287 
23 7 12 1.5285 -0.2796 
23 7 13 4.5652 0.1279 
23 7 14 -4.4488 0.0682 
23 7 15 -3.0988 0.0797 
23 7 16 0.0018 0.1148 
23 7 17 -1.1533 -0.1701 
23 7 18 -7.1197 0.4367 
23 9 0 -11.6769 0.2968 
23 9 1 4.1975 0.0202 
23 9 2 13.8968 0.1172 
23 9 3 6.2301 -0.1883 
23 9 4 -11.4865 -0.1346 
23 9 5 -20.0560 -0.0392 
23 9 6 7.4360 0.1890 
23 9 7 0.5048 0.1655 
23 9 8 -6.7039 -0.1236 
23 9 9 2.8971 -0.0892 
23 9 10 13.8572 -0.0551 
23 9 11 -3.3236 0.2372 
23 9 12 5.3621 -0.0849 
23 9 13 9.1565 0.0340 
23 9 14 1.7277 -0.1173 
23 9 15 -6.5354 -0.1279 
23 9 16 -15.5476 0.1077 
23 9 17 0.8498 0.2985 
23 11 0 1.1342 0.0122 
23 11 1 -13.8153 -0.3878 
23 11 2 -17.1511 0.2404 
23 11 3 17.3368 -0.0960 
23 11 4 -4.9197 0.2604 
23 11 5 -5.4501 -0.2153 
23 11 6 20.5551 -0.0286 
23 11 7 -0.4763 -0.0290 
23 11 8 -18.0472 0.1337 
23 11 9 -1.4993 -0.1952 
23 11 10 19.1321 0.1282 
23 11 11 -5.8852 -0.2180 
23 11 12 4.8008 0.1896 
23 11 13 -6.0488 0.0820 
23 11 14 -5.9369 -0.0515 
23 11 15 -3.8595 0.2214 
23 11 16 -1.5215 0.3175 
23 11 17 -11.6706 0.0873 
23 13 0 -6.6475 0.1739 
23 13 1 0.0040 0.1009 
23 13 2 -6.8018 0.0294 
23 13 3 10.2638 -0.0531 
23 13 4 -8.2372 -0.0258 
23 13 5 -0.9224 -0.0550 
23 13 6 -4.8507 0.0318 
23 13 7 0.6553 -0.0002 
23 13 8 7.8158 0.0895 
23 13 9 -3.0665 -0.0703 
23 13 10 3.9648 -0.0673 
23 13 11 -3.6181 0.0499 
23 13 12 2.0851 0.1198 
23 13 13 -12.5203 -0.0495 
23 13 14 2.6104 -0.0677 
23 13 15 -8.0345 -0.0809 
23 13 16 -3.0446 0.4066 
23 15 0 0.7951 -0.1884 
23 15 1 -1.0457 0.0079 
23 15 2 -3.8153 -0.1680 
23 15 3 -12.1043 0.1000 
23 15 4 3.1824 0.0520 
23 15 5 2.3707 0.0745 
23 15 6 1.1421 -0.2524 
23 15 7 -18.5719 -0.0220 
23 15 8 -8.4060 0.0320 
23 15 9 2.0324 0.3400 
23 15 10 -0.1145 -0.2143 
23 15 11 2.4267 0.0208 
23 15 12 -3.1545 0.1162 
23 15 13 -18.2158 -0.0281 
23 15 14 8.6450 0.1282 
23 15 15 0.1898 -0.1273 
23 17 0 15.3785 0.2014 
23 17 1 -5.2546 0.0752 
23 17 2 7.3768 0.0243 
23 17 3 -7.8024 -0.1744 
23 17 4 -10.7663 -0.0032 
23 17 5 -13.5464 -0.0039 
23 17 6 7.1609 0.0878 
23 17 7 -1.8245 -0.0947 
23 17 8 -4.1311 0.2071 
23 17 9 -4.8796 -0.1219 
23 17 10 6.3218 -0.1625 
23 17 11 -2.3159 -0.1098 
23 17 12 1.6936 -0.0720 
23 17 13 -9.2962 -0.0011 
23 17 14 0.1312 -0.0349 
23 19 0 11.9575 -0.2061 
23 19 1 5.2064 0.0126 
23 19 2 8.3138 -0.0278 
23 19 3 -9.6363 0.0077 
23 19 4 8.4379 0.0586 
23 19 5 -19.3041 -0.0075 
23 19 6 -8.8717 0.1611 
23 19 7 -11.8860 -0.3078 
23 19 8 0.2925 0.2494 
23 19 9 -2.2746 0.0303 
23 19 10 -2.9557 0.0599 
23 19 11 -6.5583 0.0738 
23 19 12 0.7288 -0.0573 
23 21 0 5.2767 -0.1507 
23 21 1 9.5817 0.1935 
23 21 2 -2.2289 -0.0315 
23 21 3 -23.9969 0.0232 
23 21 4 -3.4428 -0.1995 
23 21 5 1.4815 0.0873 
23 21 6 5.3246 0.0018 
23 21 7 -0.9247 0.0589 
23 21 8 4.5999 -0.2063 
23 21 9 -15.5318 -0.0034 
23 21 10 6.9711 0.0385 
23 21 11 12.2618 0.0811 
23 23 0 12.3918 -0.1724 
23 23 1 -8.8306 0.0794 
23 23 2 -25.5668 -0.0495 
23 23 3 -15.3879 0.2004 
23 23 4 10.2717 0.0335 
23 23 5 5.0266 0.1395 
23 23 6 12.5026 -0.1109 
23 23 7 -3.6982 0.1469 
23 23 8 1.3320 -0.2793 
23 23 9 3.3230 0.0422 
23 25 0 7.4675 0.0553 
23 25 1 2.2700 -0.0522 
23 25 2 -1.0118 -0.0133 
23 25 3 -2.2345 -0.1956 
23 25 4 4.1744 -0.1915 
23 25 5 -15.9703 -0.1335 
23 25 6 -0.2566 0.2664 
23 27 0 7.8630 0.3732 
23 27 1 5.8960 -0.3012 
23 27 2 10.0998 0.1245 
24 0 0 18.5448 -3.9801 
24 0 1 -5.7986 0.4704 
24 0 2 15.9105 -1.0304 
24 0 3 -9.5097 2.8256 
24 0 4 6.3415 -2.0726 
24 0 5 7.3279 0.1016 
24 0 6 -3.0774 -0.9877 
24 0 7 -20.6972 1.6589 
24 0 8 18.5284 -1.4987 
24 0 9 4.7057 0.2004 
24 0 10 -11.9584 0.5815 
24 0 11 -23.2797 1.9072 
24 0 12 8.7950 -1.0574 
24 0 13 0.7820 -1.5839 
24 0 14 -20.3432 -1.0420 
24 0 15 0.0019 1.1114 
24 0 16 -12.9537 0.6793 
24 0 17 -9.6119 0.0669 
24 0 18 0.2469 -0.1401 
24 2 0 5.1871 0.2286 
24 2 1 -22.5003 -0.5185 
24 2 2 10.8876 0.1512 
24 2 3 -21.3845 1.1052 
24 2 4 -17.9414 -1.1129 
24 2 5 0.2621 0.0826 
24 2 6 0.8882 -0.1114 
24 2 7 5.3114 1.4399 
24 2 8 11.3735 -0.5724 
24 2 9 -2.5799 -0.4510 
24 2 10 1.8272 -0.5613 
24 2 11 -3.1054 0.4991 
24 2 12 8.2317 0.0188 
24 2 13 6.4809 0.1636 
24 2 14 -9.0870 0.1517 
24 2 15 -8.1440 0.1087 
24 2 16 -4.5174 -0.2252 
24 2 17 17.0949 -0.5598 
24 2 18 6.9821 0.1734 
24 4 0 -0.5454 0.2386 
24 4 1 -13.4827 -0.3385 
24 4 2 -8.0104 0.1512 
24 4 3 -10.8552 0.0395 
24 4 4 -2.4877 0.2242 
24 4 5 -5.0831 0.0496 
24 4 6 -0.9442 -0.2270 
24 4 7 1.8722 0.0012 
24 4 8 -5.7379 -0.2878 
24 4 9 5.1403 0.2082 
24 4 10 9.5430 0.2857 
24 4 11 -9.0743 0.1557 
24 4 12 -3.5671 -0.2130 
24 4 13 8.4779 -0.3646 
24 4 14 -13.0771 0.2789 
24 4 15 1.4069 -0.2002 
24 4 16 6.0928 0.1160 
24 4 17 3.5673 0.2106 
24 4 18 -4.5142 -0.3420 
24 6 0 10.9841 0.2895 
24 6 1 3.8221 0.4568 
24 6 2 -12.6013 -0.2287 
24 6 3 -0.8863 -0.2320 
24 6 4 11.0385 -0.0630 
24 6 5 -7.2222 0.2336 
24 6 6 -5.2593 -0.2122 
24 6 7 1.4652 -0.0005 
24 6 8 -13.0807 -0.0736 
24 6 9 -0.4933 0.2445 
24 6 10 0.8988 -0.2129 
24 6 11 -17.7217 -0.1438 
24 6 12 -6.5905 -0.1636 
24 6 13 10.0512 0.4652 
24 6 14 -3.4483 0.1446 
24 6 15 6.0028 0.0157 
24 6 16 -2.8027 -0.1040 
24 6 17 -4.7534 -0.1188 
24 8 0 5.3136 0.1341 
24 8 1 -17.6284 0.0381 
24 8 2 -6.5797 -0.0629 
24 8 3 -2.6658 -0.0334 
24 8 4 12.1675 -0.0157 
24 8 5 18.7626 0.1379 
24 8 6 1.7002 -0.1789 
24 8 7 -6.0130 0.0377 
24 8 8 -3.1764 -0.1943 
24 8 9 -2.6486 0.3143 
24 8 10 -2.5948 -0.1993 
24 8 11 -10.4422 0.2563 
24 8 12 -5.4675 -0.2742 
24 8 13 0.9728 0.2337 
24 8 14 -3.9589 -0.4550 
24 8 15 5.2396 0.1172 
24 8 16 1.9863 0.0634 
24 8 17 13.7469 -0.2880 
24 10 0 9.0645 0.0986 
24 10 1 -11.4419 -0.0845 
24 10 2 13.6098 0.1292 
24 10 3 -2.6506 -0.1584 
24 10 4 3.5800 -0.0244 
24 10 5 -4.7951 -0.1454 
24 10 6 5.9029 0.0473 
24 10 7 0.0735 0.0657 
24 10 8 -0.7599 0.1390 
24 10 9 0.2785 -0.0058 
24 10 10 3.1928 -0.2038 
24 10 11 1.0463 -0.0789 
24 10 12 -2.3151 0.0653 
24 10 13 -2.6143 0.3126 
24 10 14 12.7279 -0.1517 
24 10 15 9.9091 0.0653 
24 10 16 -12.2886 0.0945 
24 12 0 19.8060 -0.0159 
24 12 1 -18.3475 -0.1725 
24 12 2 8.3755 0.1202 
24 12 3 6.6732 -0.1609 
24 12 4 10.6968 0.1980 
24 12 5 10.6016 -0.1716 
24 12 6 3.0996 0.1543 
24 12 7 1.1926 -0.0631 
24 12 8 1.9954 0.0256 
24 12 9 -4.1305 -0.1219 
24 12 10 -12.0058 -0.0664 
24 12 11 -8.6392 -0.0080 
24 12 12 -4.4190 0.2232 
24 12 13 -17.9753 -0.2169 
24 12 14 6.9733 -0.3733 
24 12 15 -4.4468 0.3529 
24 12 16 -11.0332 0.4498 
24 14 0 3.3908 -0.2438 
24 14 1 -11.8873 0.1218 
24 14 2 6.1144 0.0784 
24 14 3 -10.4897 0.0900 
24 14 4 -1.7124 -0.1268 
24 14 5 -0.1313 -0.0699 
24 14 6 -1.0877 -0.0070 
24 14 7 -13.4804 -0.0602 
24 14 8 0.5069 0.1565 
24 14 9 1.7633 0.0565 
24 14 10 -13.9501 -0.2035 
24 14 11 -1.7715 0.1195 
24 14 12 8.0703 -0.1547 
24 14 13 -14.1077 0.1193 
24 14 14 4.5386 0.3440 
24 14 15 -2.0815 -0.0289 
24 16 0 10.7100 -0.0676 
24 16 1 -6.0124 0.0821 
24 16 2 9.8823 -0.0938 
24 16 3 3.6511 -0.0147 
24 16 4 -2.5944 -0.0233 
24 16 5 -2.6075 0.1201 
24 16 6 5.2166 0.0461 
24 16 7 2.4477 -0.1750 
24 16 8 5.1133 0.0399 
24 16 9 -2.6145 -0.0276 
24 16 10 -7.1486 -0.1092 
24 16 11 -5.8948 0.0166 
24 16 12 9.7561 -0.0629 
24 16 13 -3.7804 -0.1653 
24 16 14 0.2127 -0.2027 
24 18 0 9.9209 0.0527 
24 18 1 -6.2599 0.1057 
24 18 2 -6.7641 0.0113 
24 18 3 1.4026 0.0246 
24 18 4 6.8356 -0.1039 
24 18 5 -5.1032 0.0481 
24 18 6 0.2497 -0.0176 
24 18 7 -2.6429 -0.1576 
24 18 8 -7.9940 0.2257 
24 18 9 -2.6197 0.0046 
24 18 10 10.1784 0.2602 
24 18 11 4.4777 -0.2637 
24 18 12 1.7832 0.0801 
24 20 0 -6.2074 0.0114 
24 20 1 -2.1090 -0.0818 
24 20 2 11.3144 -0.1653 
24 20 3 2.5190 0.0255 
24 20 4 9.0787 -0.1380 
24 20 5 -5.8850 0.3210 
24 20 6 7.5954 -0.0228 
24 20 7 12.7008 -0.0070 
24 20 8 6.9581 -0.0827 
24 20 9 3.1517 0.0074 
24 20 10 -2.3295 -0.1609 
24 20 11 2.2380 -0.2817 
24 22 0 1.9183 -0.0172 
24 22 1 1.7056 -0.0521 
24 22 2 11.4975 0.2008 
24 22 3 -3.1256 0.0579 
24 22 4 12.4912 0.0694 
24 22 5 0.3300 -0.0012 
24 22 6 -1.0673 -0.0806 
24 22 7 11.0402 0.2722 
24 22 8 5.5356 -0.5755 
24 22 9 0.6111 0.3605 
24 24 0 1.3553 -0.0372 
24 24 1 -9.3419 -0.0648 
24 24 2 4.3757 0.0429 
24 24 3 -0.7684 -0.1959 
24 24 4 6.5290 0.1321 
24 24 5 -4.1100 -0.2618 
24 24 6 -1.7321 0.0769 
24 26 0 4.3824 0.0453 
24 26 1 -6.2855 0.1666 
24 26 2 6.3093 0.2311 
24 26 3 0.6047 0.0502 
25 1 0 -9.4460 -0.2670 
25 1 1 -5.5054 0.0302 
25 1 2 -8.6353 0.7768 
25 1 3 10.9693 0.0638 
25 1 4 -10.4202 -1.4415 
25 1 5 -2.0203 0.2853 
25 1 6 -5.3143 0.2177 
25 1 7 4.8373 1.0668 
25 1 8 0.1730 -0.9194 
25 1 9 -7.8588 0.0077 
25 1 10 9.5119 -0.5347 
25 1 11 -9.5235 0.6774 
25 1 12 -6.7744 -0.2488 
25 1 13 -7.2576 0.1789 
25 1 14 -13.0893 -0.3310 
25 1 15 1.3101 0.4092 
25 1 16 11.0254 -0.1511 
25 1 17 -0.1669 -0.0726 
25 3 0 -4.4520 0.3132 
25 3 1 -1.8032 -0.6425 
25 3 2 -8.6889 0.3959 
25 3 3 -2.5600 -0.7499 
25 3 4 -22.5056 0.6585 
25 3 5 -0.3309 -0.0919 
25 3 6 -3.6171 0.2150 
25 3 7 2.4773 -0.1497 
25 3 8 -0.7480 -0.2290 
25 3 9 5.4168 0.1544 
25 3 10 -2.8765 0.0627 
25 3 11 -8.7185 0.1808 
25 3 12 3.0592 -0.0788 
25 3 13 -12.8710 -0.0841 
25 3 14 -2.5225 0.1005 
25 3 15 0.3770 -0.0032 
25 3 16 -7.2429 -0.0302 
25 3 17 -1.4862 0.0491 
25 5 0 4.3285 0.7708 
25 5 1 -1.9389 0.0383 
25 5 2 -10.8366 -0.3021 
25 5 3 -0.3779 -0.0966 
25 5 4 -4.7539 0.4383 
25 5 5 6.7991 -0.3000 
25 5 6 -12.7566 -0.0417 
25 5 7 -8.5519 -0.3859 
25 5 8 3.9245 0.4889 
25 5 9 8.4477 0.0734 
25 5 10 -6.5322 -0.0170 
25 5 11 -1.4767 -0.3562 
25 5 12 11.1468 -0.0287 
25 5 13 -4.2643 0.1241 
25 5 14 3.3400 0.2970 
25 5 15 2.4515 0.0073 
25 5 16 -6.3503 0.0488 
25 5 17 7.8862 0.5492 
25 7 0 -7.0830 0.0488 
25 7 1 4.7407 0.0551 
25 7 2 10.4277 -0.2187 
25 7 3 3.7328 0.0132 
25 7 4 -3.0852 0.2497 
25 7 5 -5.3423 0.1894 
25 7 6 -13.9942 -0.1521 
25 7 7 -3.0635 -0.2117 
25 7 8 -5.8973 0.0800 
25 7 9 8.3520 -0.0667 
25 7 10 6.9783 -0.0191 
25 7 11 -2.8755 -0.0126 
25 7 12 4.0630 0.0612 
25 7 13 8.5255 0.2745 
25 7 14 2.9748 -0.2742 
25 7 15 5.3599 0.1451 
25 7 16 11.9414 0.0599 
25 9 0 -10.0665 -0.1432 
25 9 1 20.8924 0.2026 
25 9 2 18.6715 0.2999 
25 9 3 -8.0651 -0.0956 
25 9 4 -8.1409 -0.0901 
25 9 5 3.0340 -0.3346 
25 9 6 14.5961 0.0472 
25 9 7 4.2415 0.1084 
25 9 8 20.0026 0.4057 
25 9 9 11.8612 -0.1638 
25 9 10 -3.6819 -0.1440 
25 9 11 -1.8599 -0.0555 
25 9 12 4.7357 0.1274 
25 9 13 7.0126 0.1105 
25 9 14 -1.6406 -0.1064 
25 9 15 1.1579 0.1958 
25 9 16 3.8304 0.5833 
25 11 0 8.5081 -0.2733 
25 11 1 0.6718 -0.1775 
25 11 2 -5.1622 0.2186 
25 11 3 15.3530 -0.2367 
25 11 4 5.2350 0.1379 
25 11 5 0.3596 -0.1969 
25 11 6 7.9892 0.5543 
25 11 7 1.7320 -0.2107 
25 11 8 7.4911 -0.0445 
25 11 9 -2.7274 -0.2874 
25 11 10 -3.9554 0.3003 
25 11 11 3.6780 -0.0271 
25 11 12 14.1854 0.2982 
25 11 13 -4.9243 -0.4247 
25 11 14 -3.4560 -0.0216 
25 11 15 27.1254 0.0124 
25 13 0 10.3606 -0.2220 
25 13 1 16.4496 0.2107 
25 13 2 3.9326 0.2845 
25 13 3 13.1193 0.0333 
25 13 4 -12.5957 -0.2964 
25 13 5 -14.8555 -0.1337 
25 13 6 4.0580 0.1718 
25 13 7 11.6960 -0.0783 
25 13 8 5.2903 0.2020 
25 13 9 -1.5484 -0.0125 
25 13 10 3.2725 0.0630 
25 13 11 -2.8250 -0.2997 
25 13 12 9.6917 0.0739 
25 13 13 -0.4653 -0.1664 
25 13 14 2.2939 0.1254 
25 15 0 -10.0315 -0.1072 
25 15 1 -5.4663 0.0530 
25 15 2 -0.7203 -0.2066 
25 15 3 -0.9555 -0.0269 
25 15 4 3.8834 -0.1285 
25 15 5 -8.4650 0.4554 
25 15 6 2.9382 0.0609 
25 15 7 -5.1013 -0.1507 
25 15 8 2.2637 -0.1609 
25 15 9 1.0491 0.0336 
25 15 10 -3.6208 -0.1542 
25 15 11 -2.1888 0.0134 
25 15 12 4.1440 -0.1783 
25 15 13 0.9227 -0.3417 
25 17 0 2.8438 0.0541 
25 17 1 2.1302 -0.0058 
25 17 2 18.3777 0.1012 
25 17 3 -9.6769 0.0109 
25 17 4 -5.8999 0.0620 
25 17 5 -4.9404 -0.0106 
25 17 6 10.9426 -0.2460 
25 17 7 -8.8722 -0.1410 
25 17 8 -5.5630 0.0495 
25 17 9 2.6912 0.2915 
25 17 10 3.5852 0.0955 
25 17 11 2.1906 -0.2161 
25 17 12 7.5283 0.1595 
25 19 0 10.3853 0.2412 
25 19 1 3.4138 -0.1596 
25 19 2 6.9902 -0.2699 
25 19 3 -11.4522 0.0370 
25 19 4 6.0726 -0.0011 
25 19 5 7.8272 0.0515 
25 19 6 12.8067 -0.0298 
25 19 7 -4.2357 -0.0068 
25 19 8 16.9431 0.0591 
25 19 9 4.6288 -0.1469 
25 19 10 -0.1871 -0.0162 
25 19 11 -1.7924 -0.1551 
25 21 0 4.1416 -0.1389 
25 21 1 5.0944 -0.0203 
25 21 2 -0.4558 -0.0488 
25 21 3 4.4711 0.1939 
25 21 4 14.7525 0.0688 
25 21 5 14.1773 -0.0045 
25 21 6 7.8047 -0.2593 
25 21 7 1.0372 0.2762 
25 21 8 5.3679 -0.0173 
25 21 9 -12.5824 -0.0994 
25 23 0 3.6758 0.1113 
25 23 1 11.7435 -0.0402 
25 23 2 14.0940 -0.0943 
25 23 3 8.2265 0.0009 
25 23 4 -2.5945 -0.1717 
25 23 5 1.8655 0.1324 
25 23 6 -8.4643 0.0069 
25 23 7 -9.2854 0.8187 
25 25 0 12.5502 -0.1647 
25 25 1 2.7432 -0.1120 
25 25 2 8.9380 0.3602 
25 25 3 6.0608 0.3070 
26 0 0 4.6177 0.4105 
26 0 1 -11.6759 4.8431 
26 0 2 2.1310 -1.0902 
26 0 3 -20.2906 -0.4817 
26 0 4 0.6119 -2.8506 
26 0 5 -7.2758 -0.3472 
26 0 6 4.4750 0.6028 
26 0 7 -7.3499 1.9950 
26 0 8 20.5305 -0.5884 
26 0 9 -9.7499 -0.5132 
26 0 10 -4.3408 -0.9013 
26 0 11 -18.2303 1.3762 
26 0 12 16.5058 -0.3295 
26 0 13 -6.1909 -0.0889 
26 0 14 -6.0993 -1.1518 
26 0 15 9.0224 0.9059 
26 0 16 -13.7060 -0.1391 
26 0 17 4.4737 0.8824 
26 2 0 -1.7686 -0.5048 
26 2 1 -10.0240 -0.0266 
26 2 2 8.6241 -0.3636 
26 2 3 -17.2424 0.6646 
26 2 4 14.2201 0.4164 
26 2 5 -4.0881 0.1063 
26 2 6 3.2254 -0.5241 
26 2 7 -4.8724 0.0434 
26 2 8 3.8343 -0.0723 
26 2 9 -5.0399 0.1048 
26 2 10 17.4482 -0.3365 
26 2 11 8.0126 0.5591 
26 2 12 11.8610 -0.1649 
26 2 13 -1.9971 -0.0561 
26 2 14 14.6064 -0.4111 
26 2 15 12.1701 0.6814 
26 2 16 -3.3158 0.0245 
26 4 0 2.0218 0.6263 
26 4 1 0.6538 -0.0323 
26 4 2 1.0894 -0.0121 
26 4 3 -18.9156 -0.5060 
26 4 4 12.5280 0.1709 
26 4 5 -7.7938 -0.3478 
26 4 6 0.4892 0.0178 
26 4 7 -7.8532 0.1618 
26 4 8 -4.0942 0.4866 
26 4 9 -8.7732 -0.1055 
26 4 10 4.5892 -0.4456 
26 4 11 4.1751 -0.0403 
26 4 12 1.0161 0.2050 
26 4 13 0.6521 0.0511 
26 4 14 8.5673 0.0506 
26 4 15 4.7975 -0.0261 
26 4 16 8.6030 0.5046 
26 6 0 -0.5329 -0.2397 
26 6 1 0.3983 -0.3180 
26 6 2 -0.9952 -0.1543 
26 6 3 -11.7036 0.4305 
26 6 4 14.0935 0.4254 
26 6 5 -1.8984 0.1768 
26 6 6 9.7560 -0.2687 
26 6 7 12.4373 -0.2206 
26 6 8 10.9167 -0.0980 
26 6 9 5.2153 0.1569 
26 6 10 6.3132 0.0796 
26 6 11 6.5391 -0.0944 
26 6 12 -2.6199 -0.0610 
26 6 13 3.2442 0.1124 
26 6 14 11.0104 -0.1339 
26 6 15 9.0762 0.3484 
26 6 16 1.1286 -0.0507 
26 8 0 0.2609 -0.1117 
26 8 1 -13.3245 0.4726 
26 8 2 9.6845 -0.0717 
26 8 3 -6.3915 -0.0078 
26 8 4 12.3916 -0.2690 
26 8 5 7.1233 0.0244 
26 8 6 -5.0932 -0.0256 
26 8 7 -2.6189 0.1774 
26 8 8 4.7957 -0.0838 
26 8 9 -2.0797 0.1970 
26 8 10 2.2599 -0.1775 
26 8 11 -1.5771 -0.1615 
26 8 12 9.5885 0.1126 
26 8 13 9.0804 0.1314 
26 8 14 -9.6928 -0.0773 
26 8 15 1.5725 0.7976 
26 10 0 7.5481 -0.3122 
26 10 1 -1.6850 0.1492 
26 10 2 17.9563 0.0083 
26 10 3 2.2972 0.0535 
26 10 4 -7.8805 -0.1720 
26 10 5 -9.7131 0.1153 
26 10 6 6.1897 0.2625 
26 10 7 -3.0281 -0.1394 
26 10 8 -8.3997 -0.0724 
26 10 9 -0.0919 -0.0679 
26 10 10 5.6362 0.1412 
26 10 11 -7.3791 0.0819 
26 10 12 7.0916 0.0405 
26 10 13 7.7483 -0.1325 
26 10 14 -1.3749 0.1542 
26 10 15 10.1062 -0.3001 
26 12 0 14.8984 -0.1064 
26 12 1 -16.7378 0.0988 
26 12 2 -2.4953 0.1983 
26 12 3 3.0367 -0.0323 
26 12 4 5.9244 -0.2702 
26 12 5 -7.1150 -0.0585 
26 12 6 -12.5932 0.1446 
26 12 7 -2.2288 -0.0126 
26 12 8 -13.8297 0.0139 
26 12 9 -1.7143 0.0054 
26 12 10 -0.3022 0.1041 
26 12 11 -4.8645 0.0585 
26 12 12 -0.2140 -0.0609 
26 12 13 1.2316 -0.1665 
26 12 14 -0.5256 0.7688 
26 14 0 7.7036 -0.0649 
26 14 1 3.4078 -0.0364 
26 14 2 2.7291 -0.0445 
26 14 3 1.6814 0.0631 
26 14 4 15.4242 -0.1913 
26 14 5 3.1867 0.2528 
26 14 6 -9.3081 -0.0795 
26 14 7 -8.3531 0.0671 
26 14 8 9.1293 -0.0321 
26 14 9 11.6984 -0.0006 
26 14 10 -3.4051 -0.0669 
26 14 11 3.9952 -0.0327 
26 14 12 1.6579 -0.3720 
26 14 13 0.4640 0.2652 
26 16 0 -0.0567 -0.0500 
26 16 1 5.3157 -0.0907 
26 16 2 9.0509 -0.0024 
26 16 3 -0.5321 0.0215 
26 16 4 1.7713 0.0245 
26 16 5 -3.8881 0.0425 
26 16 6 1.0809 -0.0823 
26 16 7 -4.7704 -0.1024 
26 16 8 -0.4020 0.1404 
26 16 9 -3.1733 0.0474 
26 16 10 -6.0007 -0.1752 
26 16 11 0.6937 0.1814 
26 16 12 -3.0307 -0.0772 
26 18 0 -5.1334 0.1599 
26 18 1 -8.3943 -0.1669 
26 18 2 -6.0603 -0.0622 
26 18 3 6.3860 -0.0497 
26 18 4 12.9542 0.1584 
26 18 5 0.9548 -0.1003 
26 18 6 10.7932 -0.0758 
26 18 7 5.9640 0.0209 
26 18 8 -3.4442 -0.3299 
26 18 9 -8.1387 -0.0679 
26 18 10 0.3682 0.3958 
26 18 11 -11.4437 -0.3433 
26 20 0 -4.4777 0.0909 
26 20 1 0.1126 -0.0090 
26 20 2 3.6932 -0.0832 
26 20 3 2.6727 0.1598 
26 20 4 6.6049 0.0229 
26 20 5 -11.2939 -0.0163 
26 20 6 -9.9818 -0.2160 
26 20 7 -5.0872 0.1110 
26 20 8 -4.2278 -0.1491 
26 20 9 1.8811 0.3326 
26 22 0 9.4128 0.2194 
26 22 1 17.8057 -0.0982 
26 22 2 10.0630 0.0607 
26 22 3 -12.3721 -0.2513 
26 22 4 1.0671 0.1734 
26 22 5 1.0811 0.0735 
26 22 6 4.2844 -0.0903 
26 22 7 7.7376 0.4369 
26 24 0 -12.4953 0.3632 
26 24 1 -7.1207 -0.3216 
26 24 2 5.0108 0.0872 
26 24 3 -7.3282 -0.1100 
26 24 4 -0.5617 0.2805 
27 1 0 -7.2455 -0.2992 
27 1 1 -15.2206 0.6737 
27 1 2 1.2322 0.8653 
27 1 3 17.5182 0.3597 
27 1 4 -1.3922 -0.6013 
27 1 5 6.2885 -0.0556 
27 1 6 -8.4364 0.4433 
27 1 7 -6.7304 0.0771 
27 1 8 9.0552 -0.6705 
27 1 9 -21.2929 -0.1966 
27 1 10 9.4805 0.3563 
27 1 11 6.6010 0.6936 
27 1 12 9.6310 -0.4090 
27 1 13 9.6845 -0.2850 
27 1 14 3.6003 -0.3457 
27 1 15 -2.3300 0.7805 
27 1 16 -10.1118 -0.0829 
27 3 0 5.1512 0.1479 
27 3 1 -1.6969 -0.2847 
27 3 2 8.1502 0.6901 
27 3 3 7.1491 -0.6954 
27 3 4 -0.2455 0.2672 
27 3 5 10.7534 -0.6601 
27 3 6 9.8046 0.5956 
27 3 7 9.7772 -0.1904 
27 3 8 9.3828 0.3672 
27 3 9 -5.4935 -0.2583 
27 3 10 4.1327 -0.0870 
27 3 11 -2.8373 -0.0925 
27 3 12 7.8777 0.1076 
27 3 13 0.5926 -0.0940 
27 3 14 -0.5200 0.0759 
27 3 15 1.6468 0.1799 
27 3 16 -5.1918 -0.0037 
27 5 0 9.6008 -0.0705 
27 5 1 3.8602 -0.2284 
27 5 2 -0.7130 -0.0796 
27 5 3 3.3747 -0.2042 
27 5 4 7.4149 0.5440 
27 5 5 2.5095 0.0412 
27 5 6 -18.4592 0.1146 
27 5 7 -0.6289 -0.5565 
27 5 8 4.6187 0.3739 
27 5 9 -4.1977 -0.1374 
27 5 10 7.8349 0.2864 
27 5 11 4.2613 -0.3499 
27 5 12 4.4243 -0.0120 
27 5 13 0.7197 -0.0462 
27 5 14 -2.4020 0.2935 
27 5 15 1.3223 -0.2240 
27 7 0 14.5496 -0.0785 
27 7 1 4.1673 0.0611 
27 7 2 -9.1673 -0.2465 
27 7 3 -1.4209 0.2131 
27 7 4 15.2468 0.0809 
27 7 5 6.2784 0.1014 
27 7 6 1.8422 -0.2542 
27 7 7 -0.1179 0.0808 
27 7 8 -8.7208 0.0225 
27 7 9 4.6250 0.0470 
27 7 10 1.1052 0.0198 
27 7 11 -6.1645 -0.3823 
27 7 12 -18.8354 0.2518 
27 7 13 -4.1490 0.0884 
27 7 14 2.3881 0.0457 
27 7 15 4.7380 0.3707 
27 9 0 1.5581 0.0935 
27 9 1 2.1388 -0.0531 
27 9 2 -4.7033 -0.1213 
27 9 3 -1.2664 0.0828 
27 9 4 8.9074 -0.0648 
27 9 5 -2.5102 0.0868 
27 9 6 -2.5701 -0.0768 
27 9 7 -9.1170 -0.0003 
27 9 8 1.2499 -0.1115 
27 9 9 -3.7976 0.0761 
27 9 10 -6.6304 0.0782 
27 9 11 -3.0133 -0.2051 
27 9 12 -23.2762 0.1686 
27 9 13 0.0142 -0.2452 
27 9 14 2.1646 -0.0345 
27 11 0 0.6634 -0.1448 
27 11 1 -17.0004 0.0301 
27 11 2 -13.9109 0.2260 
27 11 3 -6.2468 -0.0980 
27 11 4 17.6882 -0.0775 
27 11 5 8.7005 -0.1403 
27 11 6 -6.3091 0.1937 
27 11 7 -1.7612 -0.0465 
27 11 8 8.3237 0.0885 
27 11 9 5.5019 -0.2117 
27 11 10 1.7510 -0.0448 
27 11 11 -0.5598 0.2485 
27 11 12 -28.3762 -0.0496 
27 11 13 -22.6137 -0.1314 
27 11 14 -5.2896 0.7525 
27 13 0 -1.5238 -0.1764 
27 13 1 9.6170 -0.0502 
27 13 2 7.8890 -0.0099 
27 13 3 -21.5675 0.1220 
27 13 4 -7.9444 -0.1530 
27 13 5 15.4276 -0.0043 
27 13 6 4.8615 -0.0787 
27 13 7 4.9881 0.0471 
27 13 8 0.0699 -0.1159 
27 13 9 2.3434 0.0009 
27 13 10 9.3658 0.1230 
27 13 11 10.7264 0.1538 
27 13 12 11.7021 -0.2585 
27 13 13 8.7898 -0.5397 
27 15 0 -3.2486 -0.1274 
27 15 1 -1.9976 0.0612 
27 15 2 -5.9321 0.0392 
27 15 3 -14.1127 0.2304 
27 15 4 8.9814 -0.3733 
27 15 5 2.0165 0.1049 
27 15 6 -11.6781 -0.0451 
27 15 7 5.1484 0.2100 
27 15 8 8.3288 -0.0732 
27 15 9 -1.5786 -0.0251 
27 15 10 3.6388 -0.0157 
27 15 11 6.4140 0.1760 
27 15 12 0.3443 -0.3768 
27 17 0 -4.6548 0.1375 
27 17 1 -2.9480 -0.2063 
27 17 2 11.2857 -0.1107 
27 17 3 11.2025 -0.1165 
27 17 4 13.4083 0.2012 
27 17 5 3.1289 0.0617 
27 17 6 14.6243 -0.0802 
27 17 7 2.3026 -0.0899 
27 17 8 -7.1762 -0.1129 
27 17 9 -3.6092 0.1899 
27 17 10 -0.6438 -0.2821 
27 17 11 12.2283 -0.2001 
27 19 0 -12.6844 0.2308 
27 19 1 2.7356 -0.0106 
27 19 2 16.8063 0.1091 
27 19 3 -3.4359 -0.1391 
27 19 4 -1.4183 0.2513 
27 19 5 -3.7959 -0.0702 
27 19 6 -4.8698 -0.1097 
27 19 7 -11.1497 -0.0166 
27 19 8 -3.9154 -0.2838 
27 19 9 -0.7283 -0.0145 
27 21 0 -4.1090 0.0222 
27 21 1 -2.4431 0.0546 
27 21 2 -8.2783 -0.2534 
27 21 3 4.6651 0.0661 
27 21 4 7.4214 0.3611 
27 21 5 -3.9358 -0.1352 
27 21 6 -1.1515 0.3138 
27 21 7 -8.2642 -0.3245 
27 23 0 1.9170 -0.0791 
27 23 1 -6.8712 0.3605 
27 23 2 -7.6798 -0.0670 
27 23 3 -4.1849 -0.1118 
27 23 4 -3.1604 -0.3051 
27 25 0 5.3794 0.0787 
28 0 0 -7.3400 -1.4307 
28 0 1 -4.6673 3.4090 
28 0 2 20.7842 0.2338 
28 0 3 -3.6581 -0.0430 
28 0 4 -4.5157 -2.2018 
28 0 5 24.1752 0.6048 
28 0 6 -3.3911 0.0989 
28 0 7 -8.3877 0.6849 
28 0 8 26.0220 0.0760 
28 0 9 -14.7772 0.7420 
28 0 10 12.0357 -0.2754 
28 0 11 -13.4504 -0.4971 
28 0 12 10.0666 -1.0252 
28 0 13 7.3786 0.3102 
28 0 14 4.5780 0.3697 
28 0 15 8.4531 0.9926 
28 2 0 -9.3362 -0.2849 
28 2 1 -7.5224 0.4306 
28 2 2 12.6213 -0.0367 
28 2 3 2.5000 -0.2269 
28 2 4 -1.9794 -0.4522 
28 2 5 -5.7033 1.0159 
28 2 6 -4.3430 0.1487 
28 2 7 -17.4652 -0.4514 
28 2 8 -0.1912 -0.5881 
28 2 9 -19.3793 0.0252 
28 2 10 3.7337 0.2887 
28 2 11 -4.7951 0.2153 
28 2 12 8.4922 0.3619 
28 2 13 -0.6295 0.0528 
28 2 14 13.9378 -0.4160 
28 2 15 8.9502 -0.0451 
28 4 0 -5.6167 -0.0642 
28 4 1 0.8762 -0.0838 
28 4 2 8.3589 -0.0452 
28 4 3 13.4079 0.0157 
28 4 4 16.0829 0.2305 
28 4 5 -2.1174 -0.0953 
28 4 6 9.8104 -0.2892 
28 4 7 -5.7774 -0.3178 
28 4 8 1.6565 0.5604 
28 4 9 1.3129 0.3590 
28 4 10 -1.0539 -0.0926 
28 4 11 -14.3993 -0.6320 
28 4 12 -2.6332 -0.0097 
28 4 13 -17.2452 -0.1403 
28 4 14 -0.9359 0.4850 
28 4 15 -0.1540 0.3569 
28 6 0 -12.9614 0.0964 
28 6 1 0.1203 -0.3613 
28 6 2 -3.4768 -0.4956 
28 6 3 1.1079 0.2687 
28 6 4 5.2849 0.1128 
28 6 5 -15.5913 0.1950 
28 6 6 9.5595 -0.1932 
28 6 7 1.8166 0.1751 
28 6 8 -4.5188 -0.0462 
28 6 9 -1.4071 0.0136 
28 6 10 -7.3610 -0.1732 
28 6 11 1.3497 0.0773 
28 6 12 10.3464 0.0448 
28 6 13 -4.8213 0.2028 
28 6 14 4.0001 0.2817 
28 8 0 -17.3226 0.0147 
28 8 1 3.2567 -0.1676 
28 8 2 9.1057 -0.0461 
28 8 3 -6.7488 0.3946 
28 8 4 -4.7061 -0.2046 
28 8 5 -6.2534 0.0672 
28 8 6 3.1786 -0.3260 
28 8 7 3.6776 0.3132 
28 8 8 6.4739 -0.1949 
28 8 9 -6.4479 0.2148 
28 8 10 -3.6942 -0.1699 
28 8 11 -0.1892 0.1052 
28 8 12 0.4778 -0.0968 
28 8 13 -21.4840 0.0111 
28 8 14 -24.7566 -0.0301 
28 10 0 1.3393 0.0683 
28 10 1 4.9244 -0.0742 
28 10 2 5.5494 0.1068 
28 10 3 -11.9645 0.0932 
28 10 4 -26.2646 -0.2128 
28 10 5 7.3699 0.0798 
28 10 6 5.6743 0.0912 
28 10 7 -9.5310 0.1482 
28 10 8 0.9094 -0.1850 
28 10 9 -12.8796 -0.2372 
28 10 10 -0.7289 0.0089 
28 10 11 3.6312 0.2749 
28 10 12 14.5251 -0.2420 
28 10 13 5.2332 -0.1019 
28 12 0 2.2554 -0.1109 
28 12 1 3.0038 0.0263 
28 12 2 17.4788 0.2164 
28 12 3 15.7729 -0.0549 
28 12 4 4.0893 -0.0907 
28 12 5 -0.3715 0.0367 
28 12 6 -14.4126 -0.0537 
28 12 7 -7.7164 -0.0054 
28 12 8 -7.4034 -0.1885 
28 12 9 -3.1245 0.0880 
28 12 10 -0.9835 0.2108 
28 12 11 -4.0461 0.2153 
28 12 12 9.9788 -0.7138 
28 14 0 1.3777 0.1683 
28 14 1 2.8437 0.0148 
28 14 2 6.7033 -0.0380 
28 14 3 -0.4011 0.0301 
28 14 4 -3.4476 -0.0796 
28 14 5 -4.9842 0.0872 
28 14 6 -7.3154 -0.1688 
28 14 7 2.0230 0.1368 
28 14 8 -2.8005 -0.2349 
28 14 9 2.4837 0.2504 
28 14 10 -8.3021 -0.1515 
28 14 11 -15.0203 0.0917 
28 14 12 7.8871 0.2910 
28 16 0 1.6742 -0.0002 
28 16 1 10.4851 -0.1613 
28 16 2 14.5549 -0.0561 
28 16 3 -8.3400 0.0352 
28 16 4 1.0240 0.1938 
28 16 5 4.2870 0.0248 
28 16 6 1.7959 -0.0956 
28 16 7 -1.3806 -0.1889 
28 16 8 -0.6337 0.2493 
28 16 9 3.4562 0.1019 
28 16 10 3.4177 0.0713 
28 18 0 -8.1406 0.1796 
28 18 1 1.3935 -0.0291 
28 18 2 2.7098 -0.0262 
28 18 3 -19.1540 -0.1953 
28 18 4 -15.1571 0.3795 
28 18 5 -13.4122 -0.4209 
28 18 6 -6.4467 -0.0243 
28 18 7 0.6284 0.2394 
28 18 8 4.1979 0.0098 
28 18 9 -1.6961 0.1118 
28 20 0 -5.6240 0.0601 
28 20 1 1.3788 -0.1332 
28 20 2 10.7021 -0.0796 
28 20 3 -2.6127 0.2079 
28 20 4 0.4562 0.0787 
28 20 5 -2.7300 0.1550 
28 20 6 7.8447 0.1899 
28 20 7 13.0748 0.3103 
28 22 0 -4.4036 -0.2983 
28 22 1 -6.4324 0.1961 
28 22 2 3.0821 0.0170 
28 22 3 -11.6241 -0.1724 
28 22 4 -4.2673 -0.2343 
28 24 0 -1.5556 0.1488 
29 1 0 9.3988 -0.2531 
29 1 1 0.4235 0.6950 
29 1 2 14.8994 -0.6503 
29 1 3 3.3214 -0.2003 
29 1 4 -4.6664 -0.4438 
29 1 5 8.4162 0.7090 
29 1 6 -3.6351 0.0317 
29 1 7 -10.0980 0.4041 
29 1 8 -5.3871 -0.7580 
29 1 9 -6.4714 -0.0461 
29 1 10 13.8748 0.1578 
29 1 11 -9.6723 0.3503 
29 1 12 -5.2758 -0.0791 
29 1 13 -1.7433 0.0248 
29 1 14 -3.2824 0.4058 
29 3 0 7.0417 0.0185 
29 3 1 5.8472 -0.0528 
29 3 2 5.6426 0.4152 
29 3 3 -10.2894 0.0298 
29 3 4 -1.8255 0.2183 
29 3 5 8.3653 -0.2802 
29 3 6 8.1254 -0.0126 
29 3 7 -11.4731 -0.3352 
29 3 8 -1.4269 0.1475 
29 3 9 -5.9939 0.0260 
29 3 10 -0.1272 0.1200 
29 3 11 -4.0003 -0.0151 
29 3 12 -7.0266 -0.0589 
29 3 13 4.4452 -0.0365 
29 3 14 3.7971 0.1231 
29 5 0 0.4635 0.1093 
29 5 1 -5.3964 -0.3947 
29 5 2 -0.4528 -0.0517 
29 5 3 -13.3212 0.0433 
29 5 4 7.8771 0.0025 
29 5 5 4.5019 -0.2908 
29 5 6 -7.3628 0.2712 
29 5 7 -5.0181 -0.0038 
29 5 8 3.6709 0.1879 
29 5 9 -3.8677 -0.1671 
29 5 10 7.1836 0.0062 
29 5 11 16.5661 -0.1525 
29 5 12 -3.3353 0.0036 
29 5 13 3.0952 0.2734 
29 5 14 -2.3847 -0.4772 
29 7 0 -6.8982 0.0771 
29 7 1 -13.2495 -0.2599 
29 7 2 -4.1394 -0.0852 
29 7 3 -11.8208 0.3043 
29 7 4 4.0703 0.0453 
29 7 5 -7.4941 -0.0057 
29 7 6 8.7301 -0.2588 
29 7 7 -6.6841 0.0768 
29 7 8 -4.6464 -0.0477 
29 7 9 0.5273 0.3371 
29 7 10 -11.2874 -0.0081 
29 7 11 5.0750 -0.0077 
29 7 12 -11.0378 -0.1545 
29 7 13 1.7483 -0.1539 
29 9 0 5.6619 0.1719 
29 9 1 -9.9715 -0.1199 
29 9 2 5.6902 0.1001 
29 9 3 2.8594 -0.0764 
29 9 4 15.3953 -0.0168 
29 9 5 -13.3345 0.0613 
29 9 6 -3.1551 0.0889 
29 9 7 -4.8832 0.1551 
29 9 8 -8.0031 -0.1728 
29 9 9 0.0709 0.0413 
29 9 10 -0.1044 -0.2901 
29 9 11 4.3189 -0.0246 
29 9 12 8.5444 0.2573 
29 9 13 16.2862 -0.0961 
29 11 0 7.2276 -0.0126 
29 11 1 -21.0245 -0.0597 
29 11 2 -6.3871 0.2810 
29 11 3 -21.4461 -0.0845 
29 11 4 9.3468 0.1861 
29 11 5 0.2429 -0.0867 
29 11 6 4.1261 0.1607 
29 11 7 6.9228 -0.3385 
29 11 8 -1.3225 0.0732 
29 11 9 -2.9868 -0.1583 
29 11 10 3.0041 0.3600 
29 11 11 8.1056 0.3865 
29 11 12 0.5456 -1.2257 
29 13 0 4.8157 0.1852 
29 13 1 -12.1801 0.1000 
29 13 2 8.6264 -0.0885 
29 13 3 -13.2954 -0.0675 
29 13 4 -2.7781 0.0800 
29 13 5 4.2915 -0.1708 
29 13 6 3.3452 0.0368 
29 13 7 -3.0063 -0.0942 
29 13 8 -1.6723 0.0674 
29 13 9 4.2281 0.0230 
29 13 10 10.4361 -0.0165 
29 13 11 -0.1381 0.0441 
29 15 0 -8.2951 -0.1243 
29 15 1 -13.3104 -0.0603 
29 15 2 -9.2919 -0.2055 
29 15 3 0.8462 0.2727 
29 15 4 20.3645 0.1705 
29 15 5 2.5582 0.0001 
29 15 6 4.5282 -0.2645 
29 15 7 6.8545 0.0653 
29 15 8 0.6620 0.0094 
29 15 9 -3.1116 -0.0699 
29 15 10 6.2550 0.4667 
29 17 0 0.9741 0.2154 
29 17 1 -0.1709 -0.0461 
29 17 2 -11.3274 -0.1342 
29 17 3 2.3010 0.0765 
29 17 4 8.0220 -0.0780 
29 17 5 -1.9581 -0.0732 
29 17 6 10.7143 -0.1247 
29 17 7 -2.1086 0.0480 
29 17 8 10.9180 0.3083 
29 17 9 3.2354 -0.0384 
29 19 0 -5.5224 0.0988 
29 19 1 1.2194 -0.1847 
29 19 2 -27.2316 0.2173 
29 19 3 -21.4059 -0.0628 
29 19 4 12.2069 0.1955 
29 19 5 -1.8009 -0.0451 
29 19 6 -5.6875 -0.1825 
29 19 7 8.6779 0.7464 
29 21 0 8.0130 0.0417 
29 21 1 7.6356 0.0546 
29 21 2 -9.3101 -0.0341 
29 21 3 0.4761 -0.3416 
29 21 4 0.9355 -0.1887 
29 23 0 -1.7317 -0.5427 
29 23 1 -3.2654 0.4034 
30 0 0 -11.1965 -4.0293 
30 0 1 13.6290 1.2786 
30 0 2 12.4027 -2.0812 
30 0 3 18.9512 -0.3492 
30 0 4 -6.9388 -1.2022 
30 0 5 -8.7758 1.9544 
30 0 6 -0.7368 0.5605 
30 0 7 4.9643 0.2597 
30 0 8 15.9377 -1.8538 
30 0 9 6.6160 0.6233 
30 0 10 13.7043 0.3797 
30 0 11 7.8758 0.9045 
30 0 12 16.0070 -1.1965 
30 0 13 1.7357 -0.1903 
30 2 0 5.9210 -0.1156 
30 2 1 6.7445 1.1032 
30 2 2 -12.2760 0.5492 
30 2 3 10.3928 0.3107 
30 2 4 -8.3213 -1.1458 
30 2 5 -12.7984 0.3595 
30 2 6 6.4784 -0.0189 
30 2 7 -0.7004 0.4018 
30 2 8 5.9492 -0.6729 
30 2 9 -13.4981 0.3205 
30 2 10 -1.4138 0.1520 
30 2 11 4.3158 -0.2334 
30 2 12 5.3674 -0.3909 
30 2 13 -6.4503 0.4518 
30 4 0 -12.1045 0.2654 
30 4 1 -0.1864 -0.3042 
30 4 2 -7.2353 -0.1040 
30 4 3 -2.6814 -0.0021 
30 4 4 0.3219 -0.1651 
30 4 5 -0.5438 0.3988 
30 4 6 -1.0630 0.1507 
30 4 7 15.5637 -0.1484 
30 4 8 19.8632 -0.3639 
30 4 9 -2.6420 0.0242 
30 4 10 3.1216 0.2479 
30 4 11 -10.7721 -0.1732 
30 4 12 -0.8604 0.0059 
30 4 13 -3.3364 -0.0086 
30 6 0 -4.7377 0.1313 
30 6 1 11.9535 0.0821 
30 6 2 -5.7239 -0.0624 
30 6 3 -12.2249 0.2727 
30 6 4 10.0888 0.1085 
30 6 5 7.7806 -0.2433 
30 6 6 -1.7045 -0.3987 
30 6 7 -3.0971 0.1773 
30 6 8 -6.3955 0.0869 
30 6 9 -12.9324 0.2767 
30 6 10 -8.5843 -0.2245 
30 6 11 -9.7126 0.1626 
30 6 12 -1.2081 -0.2378 
30 6 13 -3.1770 -0.1062 
30 8 0 -13.7430 0.1715 
30 8 1 8.3930 -0.2484 
30 8 2 -5.8580 -0.2074 
30 8 3 -1.4844 0.0559 
30 8 4 12.6762 0.2147 
30 8 5 0.2338 -0.0408 
30 8 6 -0.1703 -0.2498 
30 8 7 -1.6275 0.3285 
30 8 8 6.7602 -0.1041 
30 8 9 0.9513 0.2053 
30 8 10 3.0746 -0.2366 
30 8 11 0.3393 -0.0919 
30 8 12 3.0857 -0.5438 
30 10 0 -6.6978 0.0172 
30 10 1 6.0703 -0.1337 
30 10 2 1.4433 0.1852 
30 10 3 3.3147 0.0257 
30 10 4 -3.2037 0.1595 
30 10 5 3.7006 -0.1762 
30 10 6 -0.9823 0.0175 
30 10 7 -10.2623 0.0227 
30 10 8 1.1112 0.1098 
30 10 9 -7.3813 -0.1951 
30 10 10 9.8014 -0.0622 
30 10 11 -2.7892 -0.0196 
30 12 0 -16.0832 -0.0263 
30 12 1 2.1622 -0.0008 
30 12 2 -5.3582 0.1649 
30 12 3 -1.0843 -0.1532 
30 12 4 10.9439 0.1024 
30 12 5 1.9716 -0.0753 
30 12 6 1.0742 0.0277 
30 12 7 -1.0223 -0.0509 
30 12 8 3.3753 -0.0904 
30 12 9 -7.8067 -0.2576 
30 12 10 -3.1377 0.2093 
30 12 11 -11.8433 0.1607 
30 14 0 -4.5191 -0.0140 
30 14 1 -5.6486 0.0300 
30 14 2 -9.7395 0.0798 
30 14 3 -2.0384 0.0631 
30 14 4 18.2798 -0.0253 
30 14 5 -14.3894 -0.1307 
30 14 6 -8.8404 0.0220 
30 14 7 4.0587 -0.0259 
30 14 8 1.9238 -0.3099 
30 14 9 7.5989 0.5926 
30 14 10 -1.7904 -0.5191 
30 16 0 1.4380 0.1912 
30 16 1 1.8277 -0.0231 
30 16 2 -4.7272 -0.1378 
30 16 3 -11.3254 -0.0164 
30 16 4 17.0073 -0.0451 
30 16 5 -15.7902 -0.0064 
30 16 6 -1.9857 0.2131 
30 16 7 5.0768 -0.1568 
30 16 8 2.3697 -0.0832 
30 18 0 1.0411 -0.0185 
30 18 1 8.9825 0.0765 
30 18 2 8.5027 -0.1316 
30 18 3 -3.0142 0.0227 
30 18 4 9.4557 0.5454 
30 18 5 -5.5283 -0.2966 
30 18 6 -2.7003 0.2184 
30 18 7 -13.9500 -0.6194 
30 20 0 7.4893 -0.1545 
30 20 1 7.6489 0.1987 
30 20 2 9.2832 0.0604 
30 20 3 2.6942 -0.1978 
30 20 4 5.6414 -0.1634 
30 22 0 2.8205 -0.4749 
30 22 1 -1.9324 0.6424 
31 1 0 17.6880 0.9791 
31 1 1 -5.6776 0.8153 
31 1 2 -11.2836 -0.0517 
31 1 3 -20.1536 -0.3032 
31 1 4 3.4409 -0.4803 
31 1 5 7.3657 0.6412 
31 1 6 14.9363 0.0085 
31 1 7 6.8941 -0.2222 
31 1 8 11.2877 -0.4961 
31 1 9 -16.0256 0.4912 
31 1 10 3.2464 0.0170 
31 1 11 -2.1863 0.3923 
31 1 12 -4.6516 -0.5124 
31 1 13 -7.6140 0.1906 
31 3 0 3.2999 0.4938 
31 3 1 2.3400 -0.4514 
31 3 2 0.0266 0.3889 
31 3 3 -10.9450 -0.4232 
31 3 4 6.0770 0.0806 
31 3 5 -11.4951 0.1395 
31 3 6 7.3233 0.2463 
31 3 7 -5.0557 -0.0391 
31 3 8 7.5715 0.0088 
31 3 9 -5.5123 0.0100 
31 3 10 -4.5024 0.0455 
31 3 11 -13.3055 -0.3196 
31 3 12 -7.5624 -0.3302 
31 5 0 -10.1434 0.0104 
31 5 1 0.5494 -0.2659 
31 5 2 8.5195 0.0880 
31 5 3 -20.2608 0.1354 
31 5 4 16.2884 0.4957 
31 5 5 -6.3229 -0.5569 
31 5 6 -1.4101 -0.0670 
31 5 7 -2.5746 -0.0239 
31 5 8 -0.2491 0.2639 
31 5 9 5.3519 -0.0638 
31 5 10 12.2218 -0.0806 
31 5 11 14.7208 -0.1916 
31 5 12 17.5485 0.4436 
31 7 0 17.2624 -0.1341 
31 7 1 4.3777 -0.0472 
31 7 2 12.6967 -0.0315 
31 7 3 -13.9910 0.1796 
31 7 4 -8.7662 0.1016 
31 7 5 -12.3253 -0.2355 
31 7 6 11.5101 -0.0221 
31 7 7 -1.3972 0.0475 
31 7 8 7.7702 0.0577 
31 7 9 -3.8485 -0.1714 
31 7 10 0.8014 0.0350 
31 7 11 7.1468 0.1805 
31 7 12 -7.9800 -0.2590 
31 9 0 3.3881 -0.0862 
31 9 1 -13.9477 0.0411 
31 9 2 2.2494 0.0510 
31 9 3 -1.1020 0.0095 
31 9 4 -10.5041 -0.1024 
31 9 5 -11.0715 -0.1547 
31 9 6 14.4798 0.1141 
31 9 7 1.7203 -0.0100 
31 9 8 -0.3289 0.1612 
31 9 9 -4.7568 0.0746 
31 9 10 7.6813 -0.0860 
31 9 11 6.8172 0.1589 
31 11 0 8.3068 -0.1031 
31 11 1 -2.2547 0.0503 
31 11 2 9.2425 0.1597 
31 11 3 -0.0294 -0.1529 
31 11 4 0.1789 -0.0032 
31 11 5 -4.9343 0.0683 
31 11 6 -0.7263 0.0914 
31 11 7 -5.1206 -0.1522 
31 11 8 9.1443 0.2271 
31 11 9 -6.4400 -0.5915 
31 11 10 0.5222 0.3143 
31 13 0 9.9424 0.0212 
31 13 1 0.8699 0.1424 
31 13 2 4.9530 0.0744 
31 13 3 -0.7240 -0.1035 
31 13 4 1.7830 0.0446 
31 13 5 2.1296 0.0784 
31 13 6 12.5120 0.0305 
31 13 7 -4.5261 -0.2423 
31 13 8 -0.1187 -0.0070 
31 13 9 -7.5930 -0.2370 
31 15 0 6.7519 0.1095 
31 15 1 12.7989 0.0784 
31 15 2 -5.4716 -0.0837 
31 15 3 -4.5470 0.0157 
31 15 4 -3.5278 0.1168 
31 15 5 -25.1070 -0.2446 
31 15 6 7.7842 0.0157 
31 15 7 1.5541 0.2205 
31 15 8 -7.8167 -0.6513 
31 17 0 -2.9947 0.0693 
31 17 1 5.1329 -0.0400 
31 17 2 8.7731 0.0221 
31 17 3 6.1386 0.1115 
31 17 4 -1.2667 -0.0496 
31 17 5 -3.3141 0.3014 
31 17 6 5.0720 0.1376 
31 19 0 -15.2002 -0.0609 
31 19 1 -5.6889 -0.0397 
31 19 2 -0.9480 -0.1951 
31 19 3 -6.2556 -0.0158 
31 19 4 8.2255 0.4055 
31 21 0 6.8789 0.2105 
31 21 1 -11.2167 -0.3066 
32 0 0 -4.6198 1.4816 
32 0 1 -14.0466 1.5069 
32 0 2 15.4341 -1.4063 
32 0 3 -6.4440 -0.2581 
32 0 4 -1.5538 -0.6451 
32 0 5 -8.2835 0.6897 
32 0 6 -2.0051 0.5959 
32 0 7 -3.7363 0.7254 
32 0 8 -3.6798 -0.6196 
32 0 9 14.9348 -0.4824 
32 0 10 10.8708 -1.0657 
32 0 11 -21.2278 1.0421 
32 0 12 -9.7526 -0.8708 
32 2 0 7.5163 0.6948 
32 2 1 -18.5445 -0.5832 
32 2 2 -9.6941 -0.0279 
32 2 3 -3.8845 0.3330 
32 2 4 -0.4974 0.1970 
32 2 5 2.5620 -0.0759 
32 2 6 10.2809 -0.3119 
32 2 7 -6.9170 0.1310 
32 2 8 -3.4177 -0.4007 
32 2 9 -1.1369 0.2942 
32 2 10 13.2616 0.4870 
32 2 11 -4.5819 0.2136 
32 2 12 9.1816 -0.1904 
32 4 0 0.8029 0.0464 
32 4 1 -4.5274 -0.3932 
32 4 2 -3.3038 0.3540 
32 4 3 -4.2317 -0.2043 
32 4 4 -2.3776 -0.2365 
32 4 5 -8.8478 -0.3259 
32 4 6 -4.2070 0.3452 
32 4 7 -6.9822 0.5483 
32 4 8 -10.2848 -0.1085 
32 4 9 -10.8972 -0.1132 
32 4 10 8.4075 0.1872 
32 4 11 -13.4447 -0.7275 
32 6 0 -2.9541 -0.4903 
32 6 1 4.0895 -0.0507 
32 6 2 -2.4258 0.0059 
32 6 3 -0.6087 0.4389 
32 6 4 2.5225 0.0511 
32 6 5 -7.2305 -0.1082 
32 6 6 8.5021 -0.0895 
32 6 7 -3.6715 -0.1989 
32 6 8 -7.0851 0.1637 
32 6 9 -8.5042 -0.0383 
32 6 10 -2.3480 -0.2260 
32 6 11 -9.9877 0.1912 
32 8 0 -6.9783 -0.0211 
32 8 1 10.5380 0.3355 
32 8 2 -2.1947 -0.0312 
32 8 3 6.2145 -0.0096 
32 8 4 7.1152 -0.2147 
32 8 5 -9.7553 0.0806 
32 8 6 10.0907 -0.0449 
32 8 7 3.6940 0.0845 
32 8 8 5.0168 0.0376 
32 8 9 -3.6811 -0.0303 
32 8 10 -1.3058 -0.1286 
32 10 0 -5.6826 0.0207 
32 10 1 16.6278 0.1196 
32 10 2 1.7602 -0.1042 
32 10 3 -5.9768 -0.0373 
32 10 4 6.6048 -0.0581 
32 10 5 3.6703 0.0934 
32 10 6 5.0172 0.0814 
32 10 7 5.3503 -0.3047 
32 10 8 1.3911 0.1005 
32 10 9 -5.1276 0.1795 
32 10 10 11.7771 0.4369 
32 12 0 -5.8100 0.0506 
32 12 1 23.4139 0.1602 
32 12 2 -0.2673 -0.0595 
32 12 3 -14.5503 0.0277 
32 12 4 0.3748 -0.0645 
32 12 5 -0.3237 0.1060 
32 12 6 1.1514 0.0220 
32 12 7 5.4691 -0.0301 
32 12 8 5.6866 0.1265 
32 12 9 -8.5005 0.0930 
32 14 0 -10.7640 -0.0772 
32 14 1 3.7007 -0.0147 
32 14 2 16.8972 -0.1218 
32 14 3 7.7162 0.1536 
32 14 4 -0.8357 -0.0390 
32 14 5 -14.8409 0.1866 
32 14 6 -3.4186 0.0029 
32 14 7 -6.6393 -0.2434 
32 16 0 -1.7496 -0.0154 
32 16 1 -6.7338 0.0023 
32 16 2 -0.3753 0.2915 
32 16 3 -8.2829 0.2978 
32 16 4 1.4887 -0.2081 
32 16 5 0.8424 -0.1617 
32 16 6 13.1149 0.0562 
32 18 0 -3.5666 -0.1125 
32 18 1 -4.7354 -0.0237 
32 18 2 -7.3661 -0.0872 
32 18 3 -13.5206 -0.2491 
32 18 4 -2.8929 -0.2199 
32 20 0 -1.2184 -0.2397 
32 20 1 2.3423 0.2853 
33 1 0 -8.0133 -0.0626 
33 1 1 -6.7644 0.5470 
33 1 2 9.6155 0.2893 
33 1 3 1.1382 -0.5230 
33 1 4 0.7181 0.2286 
33 1 5 -12.4970 0.1791 
33 1 6 15.2262 0.0155 
33 1 7 -2.2429 -0.1849 
33 1 8 -1.8337 -0.1419 
33 1 9 -14.5138 0.1389 
33 1 10 8.1126 -0.1498 
33 1 11 -12.0647 -0.1025 
33 3 0 4.2778 0.5181 
33 3 1 5.8165 -0.4654 
33 3 2 10.7963 0.4465 
33 3 3 12.5015 -0.6076 
33 3 4 5.6009 0.1240 
33 3 5 -17.3087 -0.1527 
33 3 6 4.7738 0.2028 
33 3 7 -6.6936 0.0067 
33 3 8 10.6830 -0.3172 
33 3 9 4.9978 0.2037 
33 3 10 8.9454 0.4936 
33 5 0 -1.4464 -0.1185 
33 5 1 8.9027 -0.2792 
33 5 2 14.5517 -0.1010 
33 5 3 7.5607 0.0486 
33 5 4 18.1229 0.1464 
33 5 5 -7.9544 -0.2054 
33 5 6 2.1092 0.1982 
33 5 7 -6.4578 -0.2322 
33 5 8 3.4323 0.1783 
33 5 9 1.5300 0.1291 
33 5 10 -4.5778 -0.1184 
33 7 0 1.3946 -0.1895 
33 7 1 -8.6066 0.3414 
33 7 2 0.5901 0.0101 
33 7 3 1.7536 0.3393 
33 7 4 -1.4983 -0.2064 
33 7 5 -8.5892 -0.0454 
33 7 6 2.8381 -0.1883 
33 7 7 -5.2387 0.0636 
33 7 8 12.4341 0.4190 
33 7 9 -6.2454 -0.4885 
33 7 10 -0.6966 -0.0063 
33 9 0 9.5097 -0.1972 
33 9 1 10.4070 0.0234 
33 9 2 -1.3046 -0.1969 
33 9 3 -0.0846 0.2035 
33 9 4 -5.1635 -0.1126 
33 9 5 -5.2382 0.1072 
33 9 6 1.5244 0.0355 
33 9 7 -13.5219 -0.0060 
33 9 8 2.1993 -0.2221 
33 9 9 0.8389 -0.4273 
33 11 0 -15.8118 0.1847 
33 11 1 9.0701 0.0334 
33 11 2 1.5068 0.0876 
33 11 3 -16.8246 0.1054 
33 11 4 -3.4921 -0.2365 
33 11 5 8.4644 0.0239 
33 11 6 1.0674 -0.0081 
33 11 7 0.4469 0.0511 
33 11 8 8.6381 -0.6153 
33 13 0 -7.1215 0.0169 
33 13 1 -0.6702 -0.0602 
33 13 2 3.9971 0.0708 
33 13 3 -14.5558 -0.2117 
33 13 4 0.3650 -0.1152 
33 13 5 12.5634 0.4400 
33 13 6 -2.6697 0.0951 
33 13 7 -3.7675 -0.1715 
33 15 0 2.2385 -0.0525 
33 15 1 0.8809 0.1041 
33 15 2 6.6318 -0.0024 
33 15 3 -5.3806 -0.1744 
33 15 4 1.6893 0.5397 
33 15 5 1.6039 -0.1353 
33 17 0 -5.1020 -0.2630 
33 17 1 -5.6505 -0.1677 
33 17 2 11.3253 0.3540 
33 17 3 -0.7744 -0.1175 
33 19 0 1.9315 -0.3113 
33 19 1 2.3096 0.6204 
34 0 0 14.7324 -2.4207 
34 0 1 -6.6136 1.2398 
34 0 2 2.2447 -1.6638 
34 0 3 4.3719 0.7001 
34 0 4 6.9652 0.5158 
34 0 5 3.1476 1.0622 
34 0 6 13.3964 -1.0926 
34 0 7 -15.9653 -0.7844 
34 0 8 -12.5127 0.8399 
34 0 9 -9.6390 0.3448 
34 0 10 -5.2480 -0.0101 
34 2 0 18.6063 0.1889 
34 2 1 -9.3088 1.1252 
34 2 2 -12.8417 -0.5901 
34 2 3 -5.2552 -0.1339 
34 2 4 -9.0391 -0.1051 
34 2 5 -4.0882 0.0966 
34 2 6 0.7114 0.1705 
34 2 7 -13.5699 0.0258 
34 2 8 7.3185 -0.1223 
34 2 9 1.1741 -0.1841 
34 4 0 8.7826 -0.2341 
34 4 1 5.0565 -0.2737 
34 4 2 3.1832 -0.1746 
34 4 3 -7.2405 0.2302 
34 4 4 -3.6297 0.3506 
34 4 5 3.4852 -0.3646 
34 4 6 10.1180 0.0333 
34 4 7 5.0650 0.0901 
34 4 8 6.9946 -0.2866 
34 4 9 -7.1757 0.2152 
34 6 0 20.3403 -0.0417 
34 6 1 4.5368 -0.0561 
34 6 2 1.6997 0.1125 
34 6 3 -9.9278 0.2645 
34 6 4 2.7629 -0.4125 
34 6 5 0.2435 0.2166 
34 6 6 -4.7909 -0.2586 
34 6 7 -12.4421 -0.0629 
34 6 8 8.3332 0.3439 
34 6 9 6.1270 -0.3096 
34 8 0 6.3676 -0.3636 
34 8 1 -6.5356 -0.0941 
34 8 2 2.0080 0.1487 
34 8 3 2.8570 0.1789 
34 8 4 12.5929 -0.2223 
34 8 5 6.0375 0.2895 
34 8 6 2.3694 -0.1071 
34 8 7 -8.6873 0.1143 
34 8 8 -2.1287 -0.4565 
34 10 0 -10.2066 0.1219 
34 10 1 -6.1253 -0.0496 
34 10 2 13.2598 0.0958 
34 10 3 2.7950 -0.1878 
34 10 4 1.4884 -0.0036 
34 10 5 -1.8108 0.1758 
34 10 6 3.7955 0.0963 
34 10 7 2.6709 -0.1828 
34 12 0 5.0344 0.1968 
34 12 1 -10.8030 -0.0698 
34 12 2 -6.3407 0.1413 
34 12 3 3.1827 -0.0692 
34 12 4 10.6006 0.0168 
34 12 5 7.2282 0.2039 
34 12 6 -4.6114 0.1635 
34 14 0 1.5717 0.1586 
34 14 1 -0.8358 0.1706 
34 14 2 3.5898 -0.3252 
34 14 3 4.0364 -0.2035 
34 14 4 2.6865 0.1211 
34 14 5 1.7110 0.6105 
34 16 0 -9.0762 -0.0424 
34 16 1 2.8619 -0.2023 
34 16 2 -0.1606 -0.2558 
34 16 3 1.5791 0.0340 
34 18 0 6.7370 -0.1358 
35 1 0 10.5114 0.4062 
35 1 1 1.7110 0.2632 
35 1 2 11.9939 -0.9008 
35 1 3 14.0569 0.5495 
35 1 4 -2.0662 -0.1778 
35 1 5 -0.4426 0.3517 
35 1 6 2.8097 -0.3742 
35 1 7 -1.7769 -0.2486 
35 1 8 10.2686 -0.0295 
35 3 0 -14.9703 0.1519 
35 3 1 4.9954 0.1088 
35 3 2 3.9836 0.0648 
35 3 3 9.8239 -0.0202 
35 3 4 4.2633 -0.0159 
35 3 5 5.9642 -0.1186 
35 3 6 0.0789 0.2949 
35 3 7 -4.5515 0.3848 
35 3 8 4.7633 -0.3733 
35 5 0 -10.0706 -0.2658 
35 5 1 0.9387 -0.1083 
35 5 2 -8.8800 0.2595 
35 5 3 -7.4942 -0.0521 
35 5 4 3.7073 -0.0653 
35 5 5 7.3743 0.0406 
35 5 6 6.6483 0.2033 
35 5 7 0.2596 -0.2056 
35 5 8 -0.1327 -0.2608 
35 7 0 -6.8260 -0.1426 
35 7 1 -4.9773 -0.2391 
35 7 2 3.5888 0.1232 
35 7 3 8.2495 0.0662 
35 7 4 -13.8362 -0.0802 
35 7 5 -8.6431 0.3974 
35 7 6 6.2443 -0.3346 
35 7 7 5.7666 -0.4306 
35 9 0 12.4732 0.0457 
35 9 1 2.3158 -0.0526 
35 9 2 -7.8444 -0.0966 
35 9 3 10.1677 -0.2051 
35 9 4 -1.6336 0.1217 
35 9 5 1.8377 0.2073 
35 9 6 8.7820 0.0269 
35 9 7 -2.7782 -0.0683 
35 11 0 -8.2881 0.1717 
35 11 1 -10.7087 -0.3226 
35 11 2 -12.1439 0.0746 
35 11 3 -0.9682 0.0249 
35 11 4 5.0417 0.4429 
35 11 5 -0.4992 0.1520 
35 11 6 -7.7599 0.0243 
35 13 0 -5.2989 0.0634 
35 13 1 -4.5259 -0.0549 
35 13 2 5.6900 0.0621 
35 13 3 2.9229 -0.0717 
35 13 4 7.5377 0.3203 
35 15 0 -3.4877 -0.0916 
35 15 1 -7.1229 0.2588 
35 15 2 5.7365 -0.3336 
35 17 0 5.0866 -0.1795 
36 0 0 -1.1958 -0.5569 
36 0 1 4.5797 0.8576 
36 0 2 11.9710 -0.9445 
36 0 3 4.5896 -0.0921 
36 0 4 2.1320 -0.0180 
36 0 5 -16.9677 2.1436 
36 0 6 5.0234 -0.8792 
36 0 7 3.1785 0.0897 
36 2 0 6.5405 0.5340 
36 2 1 -5.0048 0.2365 
36 2 2 -10.8839 -0.3473 
36 2 3 5.9932 0.0799 
36 2 4 10.0562 -0.2608 
36 2 5 -3.3846 0.2893 
36 2 6 9.5223 -0.3552 
36 2 7 0.9406 -0.6300 
36 4 0 2.5794 0.0877 
36 4 1 -2.2904 -0.0312 
36 4 2 0.9294 -0.2886 
36 4 3 15.6601 0.1117 
36 4 4 6.8583 0.3486 
36 4 5 -10.4222 -0.2419 
36 4 6 10.3346 0.4456 
36 4 7 1.1751 -0.5096 
36 6 0 4.6435 -0.0965 
36 6 1 -12.9700 -0.2046 
36 6 2 10.3266 0.2637 
36 6 3 8.2002 -0.1292 
36 6 4 2.2147 -0.0425 
36 6 5 -1.1562 0.5390 
36 6 6 7.5232 -0.5210 
36 8 0 3.0639 0.0798 
36 8 1 -16.3131 -0.2642 
36 8 2 8.0337 -0.0166 
36 8 3 2.3045 0.0117 
36 8 4 4.5151 -0.0447 
36 8 5 8.0400 0.2164 
36 8 6 -5.0893 -0.2613 
36 10 0 4.1697 0.0386 
36 10 1 2.3172 -0.1763 
36 10 2 13.3015 0.0975 
36 10 3 3.4316 -0.0232 
36 10 4 -2.3822 0.5576 
36 10 5 4.3710 -0.2018 
36 12 0 13.8228 0.2500 
36 12 1 -0.1036 -0.3798 
36 12 2 5.0430 -0.0600 
36 12 3 9.8789 0.0504 
36 14 0 -3.2617 -0.4831 
36 14 1 -9.3700 0.3736 
36 14 2 -0.3422 -0.1549 
37 1 0 12.6982 0.5917 
37 1 1 -6.0432 -0.0471 
37 1 2 -0.0207 0.0873 
37 1 3 -2.6681 -0.4817 
37 1 4 0.5001 -0.0316 
37 1 5 9.2746 0.7493 
37 1 6 7.5128 -0.3311 
37 3 0 6.8607 0.5173 
37 3 1 8.8993 -0.4339 
37 3 2 -2.0213 -0.2819 
37 3 3 -0.4662 0.2283 
37 3 4 -4.2176 0.6716 
37 3 5 7.5928 -0.4199 
37 3 6 1.0969 -0.3602 
37 5 0 -8.9784 -0.1757 
37 5 1 -10.5365 0.0209 
37 5 2 -8.6483 0.1957 
37 5 3 -2.7604 -0.0508 
37 5 4 4.0546 0.4399 
37 5 5 4.4987 -0.2215 
37 7 0 -1.2327 -0.0648 
37 7 1 -3.0937 -0.1096 
37 7 2 -9.6955 0.3121 
37 7 3 -7.8502 -0.1814 
37 7 4 5.1252 -0.1958 
37 7 5 5.8591 0.0722 
37 9 0 -4.1799 -0.4074 
37 9 1 10.1010 0.1528 
37 9 2 -14.7569 -0.0524 
37 9 3 -6.3371 0.2863 
37 9 4 3.5577 0.2723 
37 11 0 -7.0381 0.5506 
37 11 1 1.5610 -0.0481 
37 11 2 -13.3674 -0.2895 
37 11 3 -0.4080 -0.1654 
37 13 0 8.8092 0.0034 
37 13 1 -6.4829 -0.2350 
38 0 0 -19.6464 -0.6703 
38 0 1 -18.6329 0.2855 
38 0 2 2.9530 0.6187 
38 0 3 -1.2319 -0.0019 
38 0 4 1.7051 0.0494 
38 0 5 -10.0079 -0.6573 
38 2 0 -3.8815 0.6761 
38 2 1 -6.0678 -0.4673 
38 2 2 3.8994 -0.1598 
38 2 3 -4.0259 0.1942 
38 2 4 -9.2449 0.3751 
38 4 0 7.6998 0.0993 
38 4 1 0.2986 0.2521 
38 4 2 9.5136 -0.2518 
38 4 3 -7.1585 0.2934 
38 4 4 -7.1953 0.0021 
38 6 0 0.4468 -0.3227 
38 6 1 -4.2679 0.3130 
38 6 2 17.9772 0.4010 
38 6 3 -9.3712 -0.0882 
38 6 4 -6.1936 0.3386 
38 8 0 -2.9377 -0.2478 
38 8 1 -16.8646 -0.2186 
38 8 2 9.6930 0.0120 
38 8 3 4.4258 0.4205 
38 10 0 8.5895 -0.1889 
38 10 1 -5.9448 -0.0797 
38 12 0 11.4635 -0.1667 
39 1 0 7.3666 0.1401 
39 1 1 -11.5119 -0.0599 
39 1 2 5.2465 0.1618 
39 1 3 -4.8118 -0.1252 
39 3 0 -0.9822 0.2988 
39 3 1 -9.9864 0.1224 
39 3 2 -5.1040 -0.2900 
39 3 3 1.4282 0.0877 
39 5 0 0.2621 -0.4378 
39 5 1 -5.0395 0.5304 
39 5 2 9.7188 -0.1547 
39 7 0 11.0134 -0.0342 
39 7 1 -3.5873 -0.2047 
39 9 0 9.7622 0.4957 
40 0 0 -1.5438 -1.7405 
40 0 1 4.6970 0.9934 
40 2 0 12.7472 0.2352 
40 2 1 -4.7515 -0.0663 
40 4 0 15.3540 0.0282 
40 4 1 -14.1606 -0.2313 
40 6 0 -0.9738 -0.1962 
0 0 0 0.0 0.0 
;
_shelx_fab_checksum              36890
loop_
_space_group_symop_operation_xyz
'x, y, z'
'-x, y, -z'
'x+1/2, y+1/2, z'
'-x+1/2, y+1/2, -z'
'-x, -y, -z'
'x, -y, z'
'-x+1/2, -y+1/2, -z'
'x+1/2, -y+1/2, z'
loop_
_atom_site_label
_atom_site_type_symbol
_atom_site_fract_x
_atom_site_fract_y
_atom_site_fract_z
_atom_site_U_iso_or_equiv
_atom_site_adp_type
_atom_site_occupancy
_atom_site_site_symmetry_order
_atom_site_calc_flag
_atom_site_refinement_flags_posn
_atom_site_refinement_flags_adp
_atom_site_refinement_flags_occupancy
_atom_site_disorder_assembly
_atom_site_disorder_group
Cu1 Cu 0.500000 0.23649(5) 0.500000 0.0720(5) Uani 1 2 d DS TU P . .
Cu2 Cu 0.500000 0.14908(5) 0.500000 0.0788(5) Uani 1 2 d DS TU P . .
Cu3 Cu 0.32596(2) 0.36611(3) 0.53349(5) 0.0619(3) Uani 1 1 d D U . . .
Cu4 Cu 0.26894(2) 0.32201(3) 0.54631(5) 0.0641(3) Uani 1 1 d D U . . .
Cu5 Cu 0.45796(4) 0.500000 0.77807(7) 0.0702(4) Uani 1 2 d S TU P . .
Cu6 Cu 0.44422(4) 0.500000 0.87100(7) 0.0707(5) Uani 1 2 d S TU P . .
Cu7 Cu 0.63412(3) 0.63128(4) 0.74562(5) 0.0762(4) Uani 1 1 d . U . . .
Cu8 Cu 0.67604(3) 0.67576(4) 0.82706(5) 0.0837(4) Uani 1 1 d . U . . .
O1 O 0.500000 0.3073(3) 0.500000 0.159(6) Uani 1 2 d S T P . .
O2 O 0.500000 0.0774(3) 0.500000 0.114(3) Uani 1 2 d S T P . .
O3 O 0.4609(5) 0.500000 0.6968(5) 0.158(5) Uani 1 2 d S T P . .
O4 O 0.4371(3) 0.500000 0.9486(4) 0.113(3) Uani 1 2 d S T P . .
O5 O 0.5990(2) 0.5927(3) 0.6824(4) 0.148(3) Uani 1 1 d . . . . .
O6 O 0.70990(19) 0.7112(3) 0.8956(3) 0.118(2) Uani 1 1 d . . . . .
O1_1 O 0.45695(12) 0.22986(16) 0.5260(2) 0.0757(15) Uani 1 1 d . U . . .
O2_1 O 0.45703(14) 0.15536(16) 0.5263(3) 0.0847(17) Uani 1 1 d . U . . .
O3_1 O 0.34911(12) 0.30803(15) 0.5423(2) 0.0743(15) Uani 1 1 d . U . . .
O4_1 O 0.30182(11) 0.27041(15) 0.5549(2) 0.0675(13) Uani 1 1 d . U . . .
O5_1 O 0.34829(15) 0.11135(17) 0.5783(3) 0.100(2) Uani 1 1 d . U . . .
C1_1 C 0.44316(18) 0.1929(2) 0.5295(4) 0.075(2) Uani 1 1 d . U . . .
C2_1 C 0.38984(17) 0.2312(2) 0.5457(3) 0.0635(18) Uani 1 1 d . U . . .
H2_1 H 0.400691 0.258659 0.540882 0.076 Uiso 1 1 calc R U . . .
C3_1 C 0.40788(18) 0.1924(2) 0.5452(3) 0.066(2) Uani 1 1 d . U . . .
C4_1 C 0.3938(2) 0.1527(2) 0.5560(4) 0.077(2) Uani 1 1 d . U . . .
H4_1 H 0.407054 0.125968 0.556319 0.092 Uiso 1 1 calc R U . . .
C5_1 C 0.3594(2) 0.1518(2) 0.5667(4) 0.077(2) Uani 1 1 d . U . . .
C6_1 C 0.33998(19) 0.1908(2) 0.5621(3) 0.069(2) Uani 1 1 d . U . . .
H6_1 H 0.315762 0.190246 0.565089 0.083 Uiso 1 1 calc R U . . .
C7_1 C 0.35478(18) 0.2302(2) 0.5535(3) 0.0638(18) Uani 1 1 d . U . . .
C8_1 C 0.33306(18) 0.2735(2) 0.5488(3) 0.068(2) Uani 1 1 d . U . . .
C9_1 C 0.3168(2) 0.1100(3) 0.5992(5) 0.103(3) Uani 1 1 d . U . . .
H9A_1 H 0.294159 0.116339 0.570291 0.124 Uiso 1 1 calc R U . . .
H9B_1 H 0.319399 0.132676 0.627368 0.124 Uiso 1 1 calc R U . . .
C10_1 C 0.3147(3) 0.0648(3) 0.6215(6) 0.135(4) Uani 1 1 d . U . . .
H10A_1 H 0.338057 0.057583 0.648364 0.162 Uiso 1 1 calc R U . . .
H10B_1 H 0.310203 0.042402 0.592701 0.162 Uiso 1 1 calc R U . . .
C11_1 C 0.2818(6) 0.0639(8) 0.6489(13) 0.281(12) Uani 1 1 d . U . . .
O1_2 O 0.32748(15) 0.3562(2) 0.2875(2) 0.0861(17) Uani 1 1 d . U . . .
O2_2 O 0.29136(15) 0.3174(2) 0.2187(3) 0.0921(18) Uani 1 1 d . U . . .
O3_2 O 0.30286(13) 0.35033(17) 0.4585(2) 0.0751(14) Uani 1 1 d . U . . .
O4_2 O 0.25510(12) 0.31441(15) 0.4693(2) 0.0677(13) Uani 1 1 d . U . . .
O5_2 O 0.18864(17) 0.2647(3) 0.2797(3) 0.121(3) Uani 1 1 d . U . . .
C1_2 C 0.3005(2) 0.3322(3) 0.2657(3) 0.073(2) Uani 1 1 d . U . . .
C2_2 C 0.28491(19) 0.3319(2) 0.3527(3) 0.069(2) Uani 1 1 d . U . . .
H2_2 H 0.306771 0.348004 0.368214 0.082 Uiso 1 1 calc R U . . .
C3_2 C 0.2747(2) 0.3218(3) 0.2984(3) 0.0680(19) Uani 1 1 d . U . . .
C4_2 C 0.2426(2) 0.2983(3) 0.2752(4) 0.082(2) Uani 1 1 d . U . . .
H4_2 H 0.235761 0.290939 0.238367 0.098 Uiso 1 1 calc R U . . .
C5_2 C 0.2205(2) 0.2860(3) 0.3073(4) 0.081(2) Uani 1 1 d . U . . .
C6_2 C 0.2309(2) 0.2941(2) 0.3608(4) 0.071(2) Uani 1 1 d . U . . .
H6_2 H 0.216555 0.283444 0.382468 0.085 Uiso 1 1 calc R U . . .
C7_2 C 0.26321(18) 0.3185(2) 0.3836(3) 0.0652(19) Uani 1 1 d . U . . .
C8_2 C 0.27562(18) 0.3278(2) 0.4439(3) 0.0571(17) Uani 1 1 d . U . . .
C9_2 C 0.1618(3) 0.2583(5) 0.3070(5) 0.131(4) Uani 1 1 d . U . . .
H9A_2 H 0.160728 0.284715 0.329064 0.158 Uiso 1 1 calc R U . . .
H9B_2 H 0.168159 0.232205 0.330851 0.158 Uiso 1 1 calc R U . . .
C10_2 C 0.1238(4) 0.2509(8) 0.2651(8) 0.232(10) Uani 1 1 d . U . . .
O1_3 O 0.29520(12) 0.41887(15) 0.5258(2) 0.0736(14) Uani 1 1 d . U . . .
O2_3 O 0.24704(13) 0.38238(15) 0.5363(2) 0.0779(16) Uani 1 1 d . U . . .
O5_3 O 0.1523(2) 0.500000 0.5198(6) 0.147(5) Uani 1 2 d S TU P . .
C1_3 C 0.2632(2) 0.4165(2) 0.5303(4) 0.075(2) Uani 1 1 d . U . . .
C2_3 C 0.2610(3) 0.500000 0.5254(5) 0.066(3) Uani 1 2 d S TU P . .
H2_3 H 0.285750 0.500000 0.524892 0.080 Uiso 1 2 calc R U P . .
C3_3 C 0.24307(19) 0.4601(2) 0.5258(4) 0.073(2) Uani 1 1 d . U . . .
C4_3 C 0.2059(2) 0.4595(3) 0.5231(4) 0.091(3) Uani 1 1 d . U . . .
H4_3 H 0.193106 0.432282 0.522015 0.109 Uiso 1 1 calc R U . . .
C5_3 C 0.1883(3) 0.500000 0.5223(7) 0.106(4) Uani 1 2 d S TU P . .
C9_3 C 0.1268(7) 0.4645(8) 0.4943(16) 0.164(11) Uani 0.5 1 d . U P . .
O1_4 O 0.33946(13) 0.37392(17) 0.6108(2) 0.0740(14) Uani 1 1 d . U . . .
O2_4 O 0.29121(14) 0.33720(18) 0.6214(2) 0.0825(16) Uani 1 1 d . U . . .
O3_4 O 0.41992(14) 0.45450(19) 0.7608(2) 0.0810(15) Uani 1 1 d . U . . .
O4_4 O 0.40769(15) 0.4547(2) 0.8402(2) 0.0848(16) Uani 1 1 d . U . . .
O5_4 O 0.3087(3) 0.3448(4) 0.8209(4) 0.205(5) Uani 1 1 d . U . . .
C1_4 C 0.3189(2) 0.3597(3) 0.6370(3) 0.074(2) Uani 1 1 d . U . . .
C2_4 C 0.3616(2) 0.3978(3) 0.7181(3) 0.075(2) Uani 1 1 d . U . . .
H2_4 H 0.374525 0.409944 0.695260 0.090 Uiso 1 1 calc R U . . .
C3_4 C 0.3329(2) 0.3692(3) 0.6972(4) 0.084(2) Uani 1 1 d . U . . .
C4_4 C 0.3137(4) 0.3509(4) 0.7302(5) 0.129(4) Uani 1 1 d . U . . .
H4_4 H 0.293292 0.332052 0.716197 0.155 Uiso 1 1 calc R U . . .
C5_4 C 0.3254(4) 0.3612(4) 0.7839(5) 0.139(4) Uani 1 1 d . U . . .
C6_4 C 0.3539(3) 0.3920(4) 0.8048(4) 0.110(3) Uani 1 1 d . U . . .
H6_4 H 0.360251 0.400462 0.841240 0.132 Uiso 1 1 calc R U . . .
C7_4 C 0.3722(2) 0.4092(3) 0.7715(3) 0.077(2) Uani 1 1 d . U . . .
C8_4 C 0.40183(19) 0.4431(3) 0.7924(3) 0.077(2) Uani 1 1 d . U . . .
O1_5 O 0.49499(13) 0.54592(19) 0.8095(2) 0.0783(15) Uani 1 1 d . U . . .
O2_5 O 0.48240(14) 0.54566(19) 0.8887(2) 0.0814(15) Uani 1 1 d . U . . .
O3_5 O 0.60156(16) 0.6245(2) 0.7907(3) 0.0894(17) Uani 1 1 d . U . . .
O4_5 O 0.63704(17) 0.6622(2) 0.8599(3) 0.0978(19) Uani 1 1 d . U . . .
O5_5 O 0.5777(2) 0.6493(3) 1.0029(3) 0.130(3) Uani 1 1 d . U . . .
C1_5 C 0.49984(18) 0.5565(3) 0.8553(3) 0.0678(19) Uani 1 1 d . U . . .
C2_5 C 0.5539(2) 0.6013(3) 0.8482(4) 0.078(2) Uani 1 1 d . U . . .
H2_5 H 0.549258 0.590743 0.812640 0.093 Uiso 1 1 calc R U . . .
C3_5 C 0.5313(2) 0.5898(3) 0.8783(4) 0.079(2) Uani 1 1 d . U . . .
C4_5 C 0.5384(2) 0.6045(3) 0.9298(4) 0.092(3) Uani 1 1 d . U . . .
H4_5 H 0.522760 0.595997 0.950609 0.111 Uiso 1 1 calc R U . . .
C5_5 C 0.5681(3) 0.6316(3) 0.9518(4) 0.096(3) Uani 1 1 d . U . . .
C6_5 C 0.5905(2) 0.6434(3) 0.9204(4) 0.091(3) Uani 1 1 d . U . . .
H6_5 H 0.610827 0.662317 0.934756 0.109 Uiso 1 1 calc R U . . .
C7_5 C 0.5838(2) 0.6288(3) 0.8705(4) 0.083(2) Uani 1 1 d . U . . .
C8_5 C 0.6101(2) 0.6377(3) 0.8365(4) 0.080(2) Uani 1 1 d . U . . .
C9_5 C 0.5558(4) 0.6395(6) 1.0380(6) 0.149(5) Uani 1 1 d . U . . .
H9A_5 H 0.558455 0.607859 1.048597 0.179 Uiso 1 1 calc R U . . .
H9B_5 H 0.529673 0.645344 1.019638 0.179 Uiso 1 1 calc R U . . .
C10_5 C 0.5684(5) 0.6684(7) 1.0858(6) 0.181(6) Uani 1 1 d . U . . .
H10A_5 H 0.573669 0.698045 1.073435 0.217 Uiso 1 1 calc R U . . .
H10B_5 H 0.591973 0.656229 1.108001 0.217 Uiso 1 1 calc R U . . .
C11_5 C 0.5406(8) 0.6763(11) 1.1275(12) 0.312(14) Uani 1 1 d . U . . .
O1_6 O 0.61328(16) 0.6893(2) 0.7223(3) 0.0876(16) Uani 1 1 d . U . . .
O2_6 O 0.64868(18) 0.7271(2) 0.7924(3) 0.0958(18) Uani 1 1 d . U . . .
O3_6 O 0.53163(15) 0.76967(18) 0.5718(3) 0.0859(17) Uani 1 1 d . U . . .
O4_6 O 0.53216(16) 0.84474(19) 0.5732(3) 0.0925(18) Uani 1 1 d . U . . .
O5_6 O 0.6087(4) 0.8859(3) 0.7543(5) 0.220(6) Uani 1 1 d . U . . .
C1_6 C 0.6247(2) 0.7233(3) 0.7465(4) 0.078(2) Uani 1 1 d . U . . .
C2_6 C 0.5829(2) 0.7666(3) 0.6726(4) 0.084(2) Uani 1 1 d . U . . .
H2_6 H 0.576423 0.739288 0.654166 0.101 Uiso 1 1 calc R U . . .
C3_6 C 0.6064(2) 0.7678(3) 0.7216(4) 0.079(2) Uani 1 1 d . U . . .
C4_6 C 0.6165(3) 0.8081(4) 0.7488(6) 0.121(4) Uani 1 1 d . U . . .
H4_6 H 0.633575 0.808527 0.783245 0.145 Uiso 1 1 calc R U . . .
C5_6 C 0.6011(4) 0.8468(4) 0.7247(7) 0.138(4) Uani 1 1 d . U . . .
C6_6 C 0.5779(3) 0.8464(3) 0.6767(6) 0.110(3) Uani 1 1 d . U . . .
H6_6 H 0.567655 0.873528 0.660770 0.131 Uiso 1 1 calc R U . . .
C7_6 C 0.5681(2) 0.8073(3) 0.6491(4) 0.080(2) Uani 1 1 d . U . . .
C8_6 C 0.54192(19) 0.8065(3) 0.5919(4) 0.073(2) Uani 1 1 d . U . . .
C9_6 C 0.2780(8) 0.3141(8) 0.7965(9) 0.286(13) Uani 1 1 d . U . . .
O1_7 O 0.66193(17) 0.5803(2) 0.7813(3) 0.0893(16) Uani 1 1 d . U . . .
O2_7 O 0.69770(16) 0.6180(2) 0.8506(3) 0.0909(17) Uani 1 1 d . U . . .
O5_7 O 0.7737(4) 0.500000 0.9678(6) 0.176(6) Uani 1 2 d S TU P . .
C1_7 C 0.6859(3) 0.5838(3) 0.8247(4) 0.081(2) Uani 1 1 d . U . . .
C2_7 C 0.6899(3) 0.500000 0.8239(5) 0.086(3) Uani 1 2 d S TU P . .
H2_7 H 0.672417 0.500000 0.789733 0.103 Uiso 1 2 calc R U P . .
C3_7 C 0.7036(3) 0.5396(3) 0.8505(4) 0.089(2) Uani 1 1 d . U . . .
C4_7 C 0.7309(3) 0.5399(4) 0.8956(5) 0.109(3) Uani 1 1 d . U . . .
H4_7 H 0.740329 0.567231 0.911830 0.131 Uiso 1 1 calc R U . . .
C5_7 C 0.7456(5) 0.500000 0.9187(8) 0.120(5) Uani 1 2 d S TU P . .
O1A_8 O 0.2229(7) 0.2938(10) 0.5604(10) 0.0717(17) Uani 0.530(6) 1 d D U P A 1
N1A_8 N 0.1889(3) 0.2864(4) 0.6268(6) 0.0807(16) Uani 0.530(6) 1 d D U P A 1
C1A_8 C 0.2196(4) 0.2988(5) 0.6127(7) 0.0775(16) Uani 0.530(6) 1 d D U P A 1
H1A_8 H 0.239553 0.311286 0.639285 0.093 Uiso 0.530(6) 1 calc R U P A 1
C2A_8 C 0.1559(5) 0.2600(8) 0.5821(9) 0.087(2) Uani 0.530(6) 1 d D U P A 1
H2AA_8 H 0.135939 0.253329 0.597469 0.130 Uiso 0.530(6) 1 calc R U P A 1
H2AB_8 H 0.146796 0.278848 0.550557 0.130 Uiso 0.530(6) 1 calc R U P A 1
H2AC_8 H 0.165560 0.232306 0.571904 0.130 Uiso 0.530(6) 1 calc R U P A 1
C3A_8 C 0.1872(4) 0.2936(6) 0.6798(7) 0.091(2) Uani 0.530(6) 1 d . U P A 1
H3AA_8 H 0.163720 0.282989 0.683112 0.137 Uiso 0.530(6) 1 calc R U P A 1
H3AB_8 H 0.207136 0.277341 0.704805 0.137 Uiso 0.530(6) 1 calc R U P A 1
H3AC_8 H 0.189740 0.325384 0.687993 0.137 Uiso 0.530(6) 1 calc R U P A 1
O1B_8 O 0.2203(8) 0.2945(11) 0.5688(11) 0.0717(17) Uani 0.470(6) 1 d . U P A 2
N1B_8 N 0.1700(4) 0.3081(5) 0.5897(7) 0.0807(16) Uani 0.470(6) 1 d . U P A 2
C1B_8 C 0.1962(4) 0.3211(6) 0.5699(8) 0.0775(16) Uani 0.470(6) 1 d . U P A 2
H1B_8 H 0.196470 0.350492 0.556718 0.093 Uiso 0.470(6) 1 calc R U P A 2
C2B_8 C 0.1648(6) 0.2634(9) 0.6023(10) 0.087(2) Uani 0.470(6) 1 d . U P A 2
H2BA_8 H 0.143767 0.261307 0.616492 0.104 Uiso 0.470(6) 1 calc R U P A 2
H2BB_8 H 0.160411 0.245176 0.570027 0.104 Uiso 0.470(6) 1 calc R U P A 2
H2BC_8 H 0.186750 0.252646 0.629086 0.104 Uiso 0.470(6) 1 calc R U P A 2
C3B_8 C 0.1439(5) 0.3369(7) 0.5963(9) 0.091(2) Uani 0.470(6) 1 d . U P A 2
H3BA_8 H 0.126906 0.320926 0.611489 0.137 Uiso 0.470(6) 1 calc R U P A 2
H3BB_8 H 0.155660 0.360876 0.620384 0.137 Uiso 0.470(6) 1 calc R U P A 2
H3BC_8 H 0.130544 0.349375 0.561610 0.137 Uiso 0.470(6) 1 calc R U P A 2
O1_9 O 0.3726(2) 0.3956(3) 0.5133(4) 0.166(3) Uani 1 1 d G U . B 2
N1_9 N 0.40639(18) 0.3736(3) 0.4578(3) 0.185(3) Uani 1 1 d G U . B 2
C1_9 C 0.38117(18) 0.3681(2) 0.4850(4) 0.177(3) Uani 1 1 d G U . B 2
H1_9 H 0.369161 0.340119 0.481643 0.212 Uiso 1 1 calc R U . B 2
C2_9 C 0.4260(4) 0.4153(3) 0.4608(6) 0.200(3) Uani 1 1 d G U . B 2
H2A_9 H 0.442927 0.413393 0.438911 0.299 Uiso 1 1 calc R U . B 2
H2B_9 H 0.408531 0.439429 0.447546 0.299 Uiso 1 1 calc R U . B 2
H2C_9 H 0.439791 0.421267 0.497919 0.299 Uiso 1 1 calc R U . B 2
C3_9 C 0.4147(3) 0.3385(4) 0.4251(5) 0.193(3) Uani 1 1 d G U . B 2
H3A_9 H 0.433439 0.348877 0.408953 0.289 Uiso 1 1 calc R U . B 2
H3B_9 H 0.423808 0.312448 0.447365 0.289 Uiso 1 1 calc R U . B 2
H3C_9 H 0.392541 0.330568 0.396973 0.289 Uiso 1 1 calc R U . B 2
loop_
_atom_site_aniso_label
_atom_site_aniso_U_11
_atom_site_aniso_U_22
_atom_site_aniso_U_33
_atom_site_aniso_U_23
_atom_site_aniso_U_13
_atom_site_aniso_U_12
Cu1 0.0554(8) 0.0508(8) 0.1236(14) 0.000 0.0476(9) 0.000
Cu2 0.0663(9) 0.0511(8) 0.1359(16) 0.000 0.0564(10) 0.000
Cu3 0.0511(5) 0.0497(5) 0.0986(8) -0.0072(5) 0.0437(6) -0.0091(4)
Cu4 0.0522(5) 0.0529(6) 0.1016(9) -0.0056(5) 0.0451(6) -0.0085(4)
Cu5 0.0559(8) 0.0848(10) 0.0811(11) 0.000 0.0376(8) 0.000
Cu6 0.0569(8) 0.0836(10) 0.0827(11) 0.000 0.0376(8) 0.000
Cu7 0.0710(7) 0.0785(8) 0.0874(9) -0.0056(6) 0.0362(6) -0.0204(5)
Cu8 0.0764(7) 0.0914(9) 0.0916(9) -0.0115(7) 0.0377(7) -0.0253(6)
O1 0.267(16) 0.065(6) 0.188(13) 0.000 0.132(12) 0.000
O2 0.109(6) 0.060(5) 0.196(11) 0.000 0.083(7) 0.000
O3 0.298(17) 0.095(7) 0.127(9) 0.000 0.134(11) 0.000
O4 0.127(8) 0.141(8) 0.082(7) 0.000 0.048(6) 0.000
O5 0.099(5) 0.162(8) 0.173(8) -0.084(7) 0.023(5) -0.012(5)
O6 0.105(5) 0.141(6) 0.114(6) -0.035(5) 0.043(4) -0.047(4)
O1_1 0.055(3) 0.056(3) 0.130(5) -0.001(3) 0.049(3) -0.002(2)
O2_1 0.071(3) 0.053(3) 0.148(5) 0.005(3) 0.061(3) 0.002(2)
O3_1 0.057(3) 0.052(3) 0.131(5) -0.004(3) 0.054(3) -0.009(2)
O4_1 0.053(3) 0.058(3) 0.106(4) 0.001(2) 0.046(3) -0.009(2)
O5_1 0.082(3) 0.057(3) 0.186(6) 0.018(3) 0.076(4) -0.005(3)
C1_1 0.044(3) 0.048(4) 0.138(7) -0.002(4) 0.032(4) 0.000(3)
C2_1 0.048(3) 0.062(4) 0.089(5) 0.000(4) 0.035(4) -0.006(3)
C3_1 0.053(4) 0.045(4) 0.114(6) 0.004(3) 0.044(4) -0.003(3)
C4_1 0.061(4) 0.056(4) 0.123(7) 0.001(4) 0.042(5) 0.000(3)
C5_1 0.062(4) 0.055(4) 0.127(7) 0.007(4) 0.048(4) -0.003(3)
C6_1 0.054(4) 0.061(4) 0.102(6) 0.004(4) 0.037(4) -0.005(3)
C7_1 0.052(4) 0.051(4) 0.098(6) 0.003(3) 0.036(4) -0.003(3)
C8_1 0.064(4) 0.052(4) 0.109(6) -0.024(4) 0.058(4) -0.011(3)
C9_1 0.080(5) 0.070(5) 0.175(9) 0.014(6) 0.062(6) -0.010(4)
C10_1 0.113(8) 0.077(6) 0.234(14) 0.023(7) 0.083(9) -0.005(6)
C11_1 0.190(17) 0.23(2) 0.44(3) 0.15(2) 0.11(2) 0.013(16)
O1_2 0.081(3) 0.098(4) 0.090(4) -0.013(3) 0.041(3) -0.037(3)
O2_2 0.073(3) 0.112(5) 0.095(5) -0.015(4) 0.031(3) -0.033(3)
O3_2 0.065(3) 0.074(3) 0.101(4) -0.008(3) 0.047(3) -0.018(3)
O4_2 0.053(2) 0.061(3) 0.100(4) 0.005(3) 0.039(3) -0.006(2)
O5_2 0.086(4) 0.178(7) 0.105(5) -0.020(5) 0.038(4) -0.068(4)
C1_2 0.077(5) 0.077(5) 0.065(5) -0.002(4) 0.022(4) -0.024(4)
C2_2 0.054(4) 0.057(4) 0.100(6) 0.009(4) 0.030(4) -0.004(3)
C3_2 0.062(4) 0.069(4) 0.080(5) 0.000(4) 0.032(4) -0.015(3)
C4_2 0.076(5) 0.092(6) 0.083(6) -0.004(4) 0.032(5) -0.012(4)
C5_2 0.059(4) 0.099(6) 0.089(6) 0.007(5) 0.025(4) -0.026(4)
C6_2 0.065(4) 0.066(4) 0.096(6) 0.011(4) 0.046(4) -0.007(3)
C7_2 0.056(4) 0.055(4) 0.095(6) 0.006(4) 0.037(4) 0.001(3)
C8_2 0.061(4) 0.039(3) 0.087(5) -0.015(3) 0.047(4) -0.009(3)
C9_2 0.092(6) 0.184(11) 0.130(9) -0.006(8) 0.052(6) -0.066(7)
C10_2 0.131(11) 0.37(3) 0.215(18) -0.108(17) 0.076(11) -0.152(14)
O1_3 0.061(3) 0.056(3) 0.118(4) -0.004(3) 0.047(3) -0.004(2)
O2_3 0.065(3) 0.052(3) 0.136(5) -0.012(3) 0.059(3) -0.012(2)
O5_3 0.070(5) 0.093(7) 0.296(15) 0.000 0.083(8) 0.000
C1_3 0.070(4) 0.049(4) 0.125(7) -0.027(4) 0.059(5) -0.011(3)
C2_3 0.055(5) 0.064(6) 0.094(8) 0.000 0.044(5) 0.000
C3_3 0.059(4) 0.058(4) 0.117(6) -0.009(4) 0.050(4) -0.007(3)
C4_3 0.065(4) 0.067(5) 0.156(8) -0.013(5) 0.055(5) -0.010(4)
C5_3 0.064(6) 0.063(7) 0.215(14) 0.000 0.078(8) 0.000
C9_3 0.117(16) 0.106(16) 0.30(3) -0.061(19) 0.11(2) -0.021(13)
O1_4 0.065(3) 0.076(3) 0.093(4) -0.011(3) 0.041(3) -0.018(2)
O2_4 0.068(3) 0.081(3) 0.112(5) -0.019(3) 0.048(3) -0.028(3)
O3_4 0.071(3) 0.102(4) 0.080(4) -0.004(3) 0.037(3) -0.013(3)
O4_4 0.075(3) 0.112(4) 0.074(4) -0.006(3) 0.033(3) -0.016(3)
O5_4 0.259(11) 0.240(10) 0.155(8) -0.054(7) 0.122(8) -0.171(9)
C1_4 0.083(5) 0.070(4) 0.090(6) -0.030(4) 0.056(5) -0.024(4)
C2_4 0.068(4) 0.076(5) 0.089(6) 0.005(4) 0.037(4) -0.003(4)
C3_4 0.080(5) 0.086(5) 0.100(6) -0.011(4) 0.049(5) -0.032(4)
C4_4 0.155(9) 0.133(8) 0.122(9) -0.034(7) 0.074(7) -0.076(7)
C5_4 0.171(9) 0.155(9) 0.111(8) -0.030(7) 0.074(7) -0.096(8)
C6_4 0.119(7) 0.140(8) 0.084(7) -0.017(6) 0.050(6) -0.038(7)
C7_4 0.077(5) 0.091(5) 0.068(5) -0.007(4) 0.029(4) -0.019(4)
C8_4 0.048(4) 0.118(6) 0.069(5) -0.002(5) 0.020(4) 0.002(4)
O1_5 0.063(3) 0.097(4) 0.085(4) -0.004(3) 0.037(3) -0.011(3)
O2_5 0.068(3) 0.091(4) 0.095(4) -0.003(3) 0.041(3) -0.009(3)
O3_5 0.078(3) 0.105(4) 0.091(5) -0.020(3) 0.035(3) -0.032(3)
O4_5 0.090(4) 0.115(5) 0.101(5) -0.012(4) 0.048(4) -0.035(4)
O5_5 0.136(6) 0.161(7) 0.114(6) -0.022(5) 0.070(5) -0.049(5)
C1_5 0.044(3) 0.090(5) 0.074(5) 0.001(4) 0.025(4) -0.003(3)
C2_5 0.068(4) 0.079(5) 0.095(6) 0.001(4) 0.038(4) 0.003(4)
C3_5 0.069(4) 0.083(5) 0.098(6) 0.003(4) 0.043(5) 0.000(4)
C4_5 0.077(5) 0.110(7) 0.105(7) -0.005(5) 0.050(5) -0.010(5)
C5_5 0.092(6) 0.109(7) 0.096(7) -0.028(5) 0.044(5) -0.028(5)
C6_5 0.084(5) 0.107(6) 0.090(7) -0.018(5) 0.039(5) -0.020(5)
C7_5 0.074(5) 0.090(5) 0.096(6) -0.012(5) 0.042(5) -0.018(4)
C8_5 0.075(5) 0.091(5) 0.077(6) 0.001(4) 0.027(4) -0.038(4)
C9_5 0.121(8) 0.218(13) 0.117(9) -0.010(9) 0.047(8) -0.044(9)
C10_5 0.163(12) 0.282(18) 0.108(10) 0.001(11) 0.057(9) -0.029(12)
C11_5 0.27(2) 0.39(3) 0.27(3) 0.02(2) 0.07(2) -0.15(2)
O1_6 0.088(4) 0.085(4) 0.089(4) -0.008(3) 0.025(3) -0.021(3)
O2_6 0.100(4) 0.092(4) 0.100(5) -0.013(4) 0.036(4) -0.013(3)
O3_6 0.075(3) 0.062(3) 0.127(5) 0.003(3) 0.038(3) 0.002(3)
O4_6 0.090(4) 0.070(4) 0.127(5) -0.005(3) 0.047(4) -0.007(3)
O5_6 0.306(15) 0.096(6) 0.199(11) -0.043(7) -0.025(11) 0.018(8)
C1_6 0.085(5) 0.084(6) 0.073(6) -0.004(4) 0.035(5) -0.022(4)
C2_6 0.078(5) 0.083(6) 0.106(7) -0.005(5) 0.050(5) -0.015(4)
C3_6 0.072(5) 0.089(6) 0.087(6) -0.015(5) 0.041(5) -0.016(4)
C4_6 0.111(8) 0.116(8) 0.133(9) -0.023(7) 0.030(7) -0.011(6)
C5_6 0.148(10) 0.079(7) 0.171(12) -0.008(8) 0.019(9) -0.005(7)
C6_6 0.108(7) 0.083(6) 0.136(9) -0.004(6) 0.032(7) 0.012(6)
C7_6 0.076(5) 0.070(5) 0.110(7) -0.003(4) 0.053(5) -0.001(4)
C8_6 0.053(4) 0.057(5) 0.118(7) 0.008(4) 0.041(4) 0.004(3)
C9_6 0.40(3) 0.31(2) 0.206(19) -0.077(17) 0.173(19) -0.24(2)
O1_7 0.085(4) 0.086(4) 0.097(5) 0.003(3) 0.025(4) -0.012(3)
O2_7 0.092(4) 0.091(4) 0.092(4) -0.017(3) 0.030(3) -0.022(3)
O5_7 0.177(13) 0.153(12) 0.160(13) 0.000 -0.012(11) 0.000
C1_7 0.097(6) 0.083(6) 0.074(6) 0.006(5) 0.041(5) -0.024(5)
C2_7 0.076(7) 0.116(10) 0.076(8) 0.000 0.037(6) 0.000
C3_7 0.081(5) 0.101(6) 0.090(6) -0.009(5) 0.034(5) -0.013(5)
C4_7 0.113(8) 0.104(7) 0.109(8) -0.022(6) 0.032(7) -0.014(6)
C5_7 0.103(10) 0.109(11) 0.121(13) 0.000 -0.010(9) 0.000
O1A_8 0.058(3) 0.074(3) 0.102(5) 0.000(3) 0.054(3) -0.012(2)
N1A_8 0.066(3) 0.082(3) 0.109(5) -0.002(3) 0.048(3) -0.014(2)
C1A_8 0.063(3) 0.078(3) 0.107(5) -0.002(3) 0.049(3) -0.013(2)
C2A_8 0.069(4) 0.088(4) 0.112(6) -0.004(4) 0.041(4) -0.017(4)
C3A_8 0.078(4) 0.091(4) 0.115(6) -0.005(4) 0.044(4) -0.011(4)
O1B_8 0.058(3) 0.074(3) 0.102(5) 0.000(3) 0.054(3) -0.012(2)
N1B_8 0.066(3) 0.082(3) 0.109(5) -0.002(3) 0.048(3) -0.014(2)
C1B_8 0.063(3) 0.078(3) 0.107(5) -0.002(3) 0.049(3) -0.013(2)
C2B_8 0.069(4) 0.088(4) 0.112(6) -0.004(4) 0.041(4) -0.017(4)
C3B_8 0.078(4) 0.091(4) 0.115(6) -0.005(4) 0.044(4) -0.011(4)
O1_9 0.134(4) 0.146(5) 0.266(8) 0.006(5) 0.138(5) -0.025(4)
N1_9 0.157(5) 0.159(6) 0.277(8) -0.002(5) 0.125(5) -0.021(4)
C1_9 0.147(5) 0.153(5) 0.273(8) 0.003(5) 0.130(5) -0.023(4)
C2_9 0.174(6) 0.169(7) 0.286(9) -0.002(6) 0.116(6) -0.022(5)
C3_9 0.168(6) 0.163(6) 0.281(9) -0.011(6) 0.119(6) -0.011(5)
loop_
_atom_type_symbol
_atom_type_description
_atom_type_scat_dispersion_real
_atom_type_scat_dispersion_imag
_atom_type_scat_source
C C 0.0181 0.0091 'International Tables Vol C Tables 4.2.6.8 and 6.1.1.4'
Cu Cu -1.9646 0.5888 'International Tables Vol C Tables 4.2.6.8 and 6.1.1.4'
H H 0.0000 0.0000 'International Tables Vol C Tables 4.2.6.8 and 6.1.1.4'
N N 0.0311 0.0180 'International Tables Vol C Tables 4.2.6.8 and 6.1.1.4'
O O 0.0492 0.0322 'International Tables Vol C Tables 4.2.6.8 and 6.1.1.4'
loop_
_geom_angle_atom_site_label_1
_geom_angle_atom_site_label_2
_geom_angle_atom_site_label_3
_geom_angle
_geom_angle_site_symmetry_1
_geom_angle_site_symmetry_3
_geom_angle_publ_flag
O3_6 Cu1 O3_6 169.0(3) 5_666 6_565 ?
O3_6 Cu1 O1_1 88.6(2) 5_666 . ?
O3_6 Cu1 O1_1 90.3(2) 6_565 . ?
O3_6 Cu1 O1_1 90.3(2) 5_666 2_656 ?
O3_6 Cu1 O1_1 88.6(2) 6_565 2_656 ?
O1_1 Cu1 O1_1 168.3(3) . 2_656 ?
O3_6 Cu1 O1 95.52(16) 5_666 . ?
O3_6 Cu1 O1 95.52(16) 6_565 . ?
O1_1 Cu1 O1 95.84(14) . . ?
O1_1 Cu1 O1 95.84(14) 2_656 . ?
O3_6 Cu1 Cu2 84.48(16) 5_666 . ?
O3_6 Cu1 Cu2 84.48(16) 6_565 . ?
O1_1 Cu1 Cu2 84.16(14) . . ?
O1_1 Cu1 Cu2 84.16(14) 2_656 . ?
O1 Cu1 Cu2 180.0 . . ?
O2_1 Cu2 O2_1 168.9(3) 2_656 . ?
O2_1 Cu2 O4_6 88.9(3) 2_656 6_565 ?
O2_1 Cu2 O4_6 90.1(3) . 6_565 ?
O2_1 Cu2 O4_6 90.1(3) 2_656 5_666 ?
O2_1 Cu2 O4_6 88.9(3) . 5_666 ?
O4_6 Cu2 O4_6 169.1(3) 6_565 5_666 ?
O2_1 Cu2 O2 95.53(15) 2_656 . ?
O2_1 Cu2 O2 95.53(15) . . ?
O4_6 Cu2 O2 95.43(17) 6_565 . ?
O4_6 Cu2 O2 95.43(17) 5_666 . ?
O2_1 Cu2 Cu1 84.47(15) 2_656 . ?
O2_1 Cu2 Cu1 84.47(15) . . ?
O4_6 Cu2 Cu1 84.57(17) 6_565 . ?
O4_6 Cu2 Cu1 84.57(17) 5_666 . ?
O2 Cu2 Cu1 180.0 . . ?
O3_1 Cu3 O1_3 169.95(17) . . ?
O3_1 Cu3 O1_4 90.5(2) . . ?
O1_3 Cu3 O1_4 88.9(2) . . ?
O3_1 Cu3 O3_2 87.7(2) . . ?
O1_3 Cu3 O3_2 90.5(2) . . ?
O1_4 Cu3 O3_2 166.62(18) . . ?
O3_1 Cu3 O1_9 91.2(3) . . ?
O1_3 Cu3 O1_9 98.8(3) . . ?
O1_4 Cu3 O1_9 102.1(3) . . ?
O3_2 Cu3 O1_9 91.2(3) . . ?
O3_1 Cu3 Cu4 84.04(12) . . ?
O1_3 Cu3 Cu4 85.92(13) . . ?
O1_4 Cu3 Cu4 84.94(13) . . ?
O3_2 Cu3 Cu4 81.68(13) . . ?
O1_9 Cu3 Cu4 171.5(2) . . ?
O4_2 Cu4 O2_4 167.98(18) . . ?
O4_2 Cu4 O4_1 90.0(2) . . ?
O2_4 Cu4 O4_1 89.4(2) . . ?
O4_2 Cu4 O2_3 89.5(2) . . ?
O2_4 Cu4 O2_3 88.0(3) . . ?
O4_1 Cu4 O2_3 165.31(17) . . ?
O4_2 Cu4 O1A_8 98.2(7) . . ?
O2_4 Cu4 O1A_8 93.6(7) . . ?
O4_1 Cu4 O1A_8 101.6(8) . . ?
O2_3 Cu4 O1A_8 93.0(8) . . ?
O4_2 Cu4 O1B_8 103.1(8) . . ?
O2_4 Cu4 O1B_8 88.7(8) . . ?
O4_1 Cu4 O1B_8 103.1(9) . . ?
O2_3 Cu4 O1B_8 91.3(9) . . ?
O4_2 Cu4 Cu3 85.26(12) . . ?
O2_4 Cu4 Cu3 82.75(14) . . ?
O4_1 Cu4 Cu3 83.68(11) . . ?
O2_3 Cu4 Cu3 81.65(12) . . ?
O1A_8 Cu4 Cu3 173.6(7) . . ?
O1B_8 Cu4 Cu3 169.1(8) . . ?
O3_4 Cu5 O3_4 89.1(3) . 6_565 ?
O3_4 Cu5 O1_5 168.8(2) . . ?
O3_4 Cu5 O1_5 90.1(2) 6_565 . ?
O3_4 Cu5 O1_5 90.1(2) . 6_565 ?
O3_4 Cu5 O1_5 168.8(2) 6_565 6_565 ?
O1_5 Cu5 O1_5 88.6(3) . 6_565 ?
O3_4 Cu5 O3 91.0(4) . . ?
O3_4 Cu5 O3 91.0(4) 6_565 . ?
O1_5 Cu5 O3 100.2(4) . . ?
O1_5 Cu5 O3 100.2(4) 6_565 . ?
O3_4 Cu5 Cu6 83.20(16) . . ?
O3_4 Cu5 Cu6 83.20(16) 6_565 . ?
O1_5 Cu5 Cu6 85.63(17) . . ?
O1_5 Cu5 Cu6 85.63(17) 6_565 . ?
O3 Cu5 Cu6 171.9(5) . . ?
O4_4 Cu6 O4_4 88.6(4) . 6_565 ?
O4_4 Cu6 O2_5 169.2(2) . . ?
O4_4 Cu6 O2_5 90.2(2) 6_565 . ?
O4_4 Cu6 O2_5 90.2(2) . 6_565 ?
O4_4 Cu6 O2_5 169.2(2) 6_565 6_565 ?
O2_5 Cu6 O2_5 89.1(3) . 6_565 ?
O4_4 Cu6 O4 97.1(3) . . ?
O4_4 Cu6 O4 97.1(3) 6_565 . ?
O2_5 Cu6 O4 93.7(3) . . ?
O2_5 Cu6 O4 93.7(3) 6_565 . ?
O4_4 Cu6 Cu5 85.75(17) . . ?
O4_4 Cu6 Cu5 85.75(17) 6_565 . ?
O2_5 Cu6 Cu5 83.49(17) . . ?
O2_5 Cu6 Cu5 83.49(17) 6_565 . ?
O4 Cu6 Cu5 176.0(3) . . ?
O1_2 Cu7 O1_6 88.8(3) 5_666 . ?
O1_2 Cu7 O1_7 89.4(3) 5_666 . ?
O1_6 Cu7 O1_7 167.8(3) . . ?
O1_2 Cu7 O3_5 169.0(3) 5_666 . ?
O1_6 Cu7 O3_5 90.5(3) . . ?
O1_7 Cu7 O3_5 89.0(3) . . ?
O1_2 Cu7 O5 98.4(3) 5_666 . ?
O1_6 Cu7 O5 97.8(3) . . ?
O1_7 Cu7 O5 94.4(3) . . ?
O3_5 Cu7 O5 92.5(3) . . ?
O1_2 Cu7 Cu8 84.28(18) 5_666 . ?
O1_6 Cu7 Cu8 84.02(19) . . ?
O1_7 Cu7 Cu8 83.8(2) . . ?
O3_5 Cu7 Cu8 84.77(19) . . ?
O5 Cu7 Cu8 176.7(3) . . ?
O2_6 Cu8 O2_7 169.2(3) . . ?
O2_6 Cu8 O4_5 89.7(3) . . ?
O2_7 Cu8 O4_5 89.0(3) . . ?
O2_6 Cu8 O2_2 89.0(3) . 5_666 ?
O2_7 Cu8 O2_2 90.0(3) . 5_666 ?
O4_5 Cu8 O2_2 168.0(3) . 5_666 ?
O2_6 Cu8 O6 96.2(3) . . ?
O2_7 Cu8 O6 94.6(3) . . ?
O4_5 Cu8 O6 95.0(3) . . ?
O2_2 Cu8 O6 96.9(3) 5_666 . ?
O2_6 Cu8 Cu7 84.6(2) . . ?
O2_7 Cu8 Cu7 84.64(19) . . ?
O4_5 Cu8 Cu7 83.5(2) . . ?
O2_2 Cu8 Cu7 84.53(19) 5_666 . ?
O6 Cu8 Cu7 178.3(2) . . ?
C1_1 O1_1 Cu1 122.0(4) . . ?
C1_1 O2_1 Cu2 121.3(4) . . ?
C8_1 O3_1 Cu3 123.0(4) . . ?
C8_1 O4_1 Cu4 121.8(4) . . ?
C5_1 O5_1 C9_1 117.1(6) . . ?
O1_1 C1_1 O2_1 127.0(6) . . ?
O1_1 C1_1 C3_1 117.0(6) . . ?
O2_1 C1_1 C3_1 115.6(6) . . ?
C3_1 C2_1 C7_1 119.2(6) . . ?
C3_1 C2_1 H2_1 120.4 . . ?
C7_1 C2_1 H2_1 120.4 . . ?
C2_1 C3_1 C4_1 121.2(6) . . ?
C2_1 C3_1 C1_1 119.2(6) . . ?
C4_1 C3_1 C1_1 119.6(6) . . ?
C3_1 C4_1 C5_1 119.7(6) . . ?
C3_1 C4_1 H4_1 120.1 . . ?
C5_1 C4_1 H4_1 120.1 . . ?
O5_1 C5_1 C6_1 126.4(6) . . ?
O5_1 C5_1 C4_1 115.4(6) . . ?
C6_1 C5_1 C4_1 118.2(6) . . ?
C7_1 C6_1 C5_1 121.3(6) . . ?
C7_1 C6_1 H6_1 119.3 . . ?
C5_1 C6_1 H6_1 119.3 . . ?
C6_1 C7_1 C2_1 120.0(6) . . ?
C6_1 C7_1 C8_1 120.9(5) . . ?
C2_1 C7_1 C8_1 119.0(6) . . ?
O3_1 C8_1 O4_1 127.1(6) . . ?
O3_1 C8_1 C7_1 116.5(5) . . ?
O4_1 C8_1 C7_1 116.2(6) . . ?
O5_1 C9_1 C10_1 108.4(7) . . ?
O5_1 C9_1 H9A_1 110.0 . . ?
C10_1 C9_1 H9A_1 110.0 . . ?
O5_1 C9_1 H9B_1 110.0 . . ?
C10_1 C9_1 H9B_1 110.0 . . ?
H9A_1 C9_1 H9B_1 108.4 . . ?
C9_1 C10_1 C11_1 109.1(11) . . ?
C9_1 C10_1 H10A_1 109.9 . . ?
C11_1 C10_1 H10A_1 109.9 . . ?
C9_1 C10_1 H10B_1 109.9 . . ?
C11_1 C10_1 H10B_1 109.9 . . ?
H10A_1 C10_1 H10B_1 108.3 . . ?
C1_2 O1_2 Cu7 122.5(5) . 5_666 ?
C1_2 O2_2 Cu8 120.6(5) . 5_666 ?
C8_2 O3_2 Cu3 123.4(5) . . ?
C8_2 O4_2 Cu4 119.6(5) . . ?
C5_2 O5_2 C9_2 117.0(8) . . ?
O1_2 C1_2 O2_2 127.6(7) . . ?
O1_2 C1_2 C3_2 116.5(7) . . ?
O2_2 C1_2 C3_2 115.9(7) . . ?
C7_2 C2_2 C3_2 119.8(7) . . ?
C7_2 C2_2 H2_2 120.1 . . ?
C3_2 C2_2 H2_2 120.1 . . ?
C2_2 C3_2 C4_2 120.5(6) . . ?
C2_2 C3_2 C1_2 119.7(7) . . ?
C4_2 C3_2 C1_2 119.6(7) . . ?
C3_2 C4_2 C5_2 118.6(8) . . ?
C3_2 C4_2 H4_2 120.7 . . ?
C5_2 C4_2 H4_2 120.7 . . ?
C6_2 C5_2 O5_2 125.0(7) . . ?
C6_2 C5_2 C4_2 121.4(7) . . ?
O5_2 C5_2 C4_2 113.6(8) . . ?
C5_2 C6_2 C7_2 119.3(6) . . ?
C5_2 C6_2 H6_2 120.3 . . ?
C7_2 C6_2 H6_2 120.3 . . ?
C2_2 C7_2 C6_2 120.3(8) . . ?
C2_2 C7_2 C8_2 119.3(7) . . ?
C6_2 C7_2 C8_2 120.3(6) . . ?
O3_2 C8_2 O4_2 129.6(7) . . ?
O3_2 C8_2 C7_2 114.2(5) . . ?
O4_2 C8_2 C7_2 115.9(6) . . ?
O5_2 C9_2 C10_2 108.9(10) . . ?
O5_2 C9_2 H9A_2 109.9 . . ?
C10_2 C9_2 H9A_2 109.9 . . ?
O5_2 C9_2 H9B_2 109.9 . . ?
C10_2 C9_2 H9B_2 109.9 . . ?
H9A_2 C9_2 H9B_2 108.3 . . ?
C1_3 O1_3 Cu3 120.9(5) . . ?
C1_3 O2_3 Cu4 124.9(4) . . ?
C5_3 O5_3 C9_3 123.5(11) . . ?
C5_3 O5_3 C9_3 123.5(11) . 6_565 ?
C9_3 O5_3 C9_3 93(3) . 6_565 ?
O2_3 C1_3 O1_3 126.5(6) . . ?
O2_3 C1_3 C3_3 118.2(6) . . ?
O1_3 C1_3 C3_3 115.3(6) . . ?
C3_3 C2_3 C3_3 120.5(8) . 6_565 ?
C3_3 C2_3 H2_3 119.7 . . ?
C3_3 C2_3 H2_3 119.7 6_565 . ?
C2_3 C3_3 C4_3 120.4(7) . . ?
C2_3 C3_3 C1_3 121.0(6) . . ?
C4_3 C3_3 C1_3 118.6(6) . . ?
C5_3 C4_3 C3_3 117.8(7) . . ?
C5_3 C4_3 H4_3 121.1 . . ?
C3_3 C4_3 H4_3 121.1 . . ?
O5_3 C5_3 C4_3 118.6(5) . 6_565 ?
O5_3 C5_3 C4_3 118.6(5) . . ?
C4_3 C5_3 C4_3 122.8(9) 6_565 . ?
C1_4 O1_4 Cu3 120.2(5) . . ?
C1_4 O2_4 Cu4 123.3(5) . . ?
C8_4 O3_4 Cu5 123.2(6) . . ?
C8_4 O4_4 Cu6 120.6(5) . . ?
C5_4 O5_4 C9_6 112.6(11) . . ?
O2_4 C1_4 O1_4 128.6(8) . . ?
O2_4 C1_4 C3_4 117.2(6) . . ?
O1_4 C1_4 C3_4 114.0(7) . . ?
C3_4 C2_4 C7_4 121.6(7) . . ?
C3_4 C2_4 H2_4 119.2 . . ?
C7_4 C2_4 H2_4 119.2 . . ?
C2_4 C3_4 C4_4 120.0(9) . . ?
C2_4 C3_4 C1_4 121.8(7) . . ?
C4_4 C3_4 C1_4 118.0(8) . . ?
C5_4 C4_4 C3_4 117.8(9) . . ?
C5_4 C4_4 H4_4 121.1 . . ?
C3_4 C4_4 H4_4 121.1 . . ?
C4_4 C5_4 O5_4 123.2(10) . . ?
C4_4 C5_4 C6_4 121.9(9) . . ?
O5_4 C5_4 C6_4 114.8(10) . . ?
C7_4 C6_4 C5_4 118.6(9) . . ?
C7_4 C6_4 H6_4 120.7 . . ?
C5_4 C6_4 H6_4 120.7 . . ?
C6_4 C7_4 C2_4 119.9(8) . . ?
C6_4 C7_4 C8_4 119.5(8) . . ?
C2_4 C7_4 C8_4 120.5(7) . . ?
O4_4 C8_4 O3_4 126.8(8) . . ?
O4_4 C8_4 C7_4 116.9(7) . . ?
O3_4 C8_4 C7_4 116.0(7) . . ?
C1_5 O1_5 Cu5 119.1(5) . . ?
C1_5 O2_5 Cu6 120.9(6) . . ?
C8_5 O3_5 Cu7 121.7(5) . . ?
C8_5 O4_5 Cu8 121.5(6) . . ?
C5_5 O5_5 C9_5 119.5(9) . . ?
O1_5 C1_5 O2_5 130.5(7) . . ?
O1_5 C1_5 C3_5 116.1(6) . . ?
O2_5 C1_5 C3_5 113.3(7) . . ?
C3_5 C2_5 C7_5 119.0(8) . . ?
C3_5 C2_5 H2_5 120.5 . . ?
C7_5 C2_5 H2_5 120.5 . . ?
C2_5 C3_5 C4_5 120.3(8) . . ?
C2_5 C3_5 C1_5 119.1(8) . . ?
C4_5 C3_5 C1_5 120.3(7) . . ?
C3_5 C4_5 C5_5 120.5(7) . . ?
C3_5 C4_5 H4_5 119.7 . . ?
C5_5 C4_5 H4_5 119.7 . . ?
C4_5 C5_5 O5_5 126.0(8) . . ?
C4_5 C5_5 C6_5 118.4(9) . . ?
O5_5 C5_5 C6_5 115.6(8) . . ?
C7_5 C6_5 C5_5 121.1(9) . . ?
C7_5 C6_5 H6_5 119.4 . . ?
C5_5 C6_5 H6_5 119.4 . . ?
C6_5 C7_5 C2_5 120.7(7) . . ?
C6_5 C7_5 C8_5 122.2(8) . . ?
C2_5 C7_5 C8_5 116.9(8) . . ?
O3_5 C8_5 O4_5 127.8(7) . . ?
O3_5 C8_5 C7_5 118.5(7) . . ?
O4_5 C8_5 C7_5 113.3(8) . . ?
O5_5 C9_5 C10_5 108.0(11) . . ?
O5_5 C9_5 H9A_5 110.1 . . ?
C10_5 C9_5 H9A_5 110.1 . . ?
O5_5 C9_5 H9B_5 110.1 . . ?
C10_5 C9_5 H9B_5 110.1 . . ?
H9A_5 C9_5 H9B_5 108.4 . . ?
C9_5 C10_5 C11_5 119.8(15) . . ?
C9_5 C10_5 H10A_5 107.4 . . ?
C11_5 C10_5 H10A_5 107.4 . . ?
C9_5 C10_5 H10B_5 107.4 . . ?
C11_5 C10_5 H10B_5 107.4 . . ?
H10A_5 C10_5 H10B_5 106.9 . . ?
C1_6 O1_6 Cu7 122.7(7) . . ?
C1_6 O2_6 Cu8 120.6(6) . . ?
C8_6 O3_6 Cu1 122.1(6) . 5_666 ?
C8_6 O4_6 Cu2 119.7(6) . 5_666 ?
O1_6 C1_6 O2_6 127.7(9) . . ?
O1_6 C1_6 C3_6 117.1(9) . . ?
O2_6 C1_6 C3_6 115.1(8) . . ?
C3_6 C2_6 C7_6 117.9(9) . . ?
C3_6 C2_6 H2_6 121.0 . . ?
C7_6 C2_6 H2_6 121.0 . . ?
C2_6 C3_6 C4_6 121.4(10) . . ?
C2_6 C3_6 C1_6 118.1(8) . . ?
C4_6 C3_6 C1_6 120.4(10) . . ?
C5_6 C4_6 C3_6 118.9(13) . . ?
C5_6 C4_6 H4_6 120.6 . . ?
C3_6 C4_6 H4_6 120.6 . . ?
C6_6 C5_6 C4_6 120.7(12) . . ?
C6_6 C5_6 O5_6 121.1(13) . . ?
C4_6 C5_6 O5_6 118.0(14) . . ?
C5_6 C6_6 C7_6 121.3(11) . . ?
C5_6 C6_6 H6_6 119.4 . . ?
C7_6 C6_6 H6_6 119.4 . . ?
C6_6 C7_6 C2_6 119.9(10) . . ?
C6_6 C7_6 C8_6 121.7(9) . . ?
C2_6 C7_6 C8_6 118.4(8) . . ?
O3_6 C8_6 O4_6 128.9(9) . . ?
O3_6 C8_6 C7_6 117.5(7) . . ?
O4_6 C8_6 C7_6 113.5(8) . . ?
C1_7 O1_7 Cu7 121.9(6) . . ?
C1_7 O2_7 Cu8 120.8(7) . . ?
O2_7 C1_7 O1_7 128.8(9) . . ?
O2_7 C1_7 C3_7 115.4(9) . . ?
O1_7 C1_7 C3_7 115.8(8) . . ?
C3_7 C2_7 C3_7 116.3(13) . 6_565 ?
C3_7 C2_7 H2_7 121.9 . . ?
C3_7 C2_7 H2_7 121.9 6_565 . ?
C4_7 C3_7 C2_7 122.0(10) . . ?
C4_7 C3_7 C1_7 120.7(9) . . ?
C2_7 C3_7 C1_7 117.3(9) . . ?
C3_7 C4_7 C5_7 119.8(11) . . ?
C3_7 C4_7 H4_7 120.1 . . ?
C5_7 C4_7 H4_7 120.1 . . ?
C4_7 C5_7 C4_7 119.7(16) 6_565 . ?
C4_7 C5_7 O5_7 120.1(8) 6_565 . ?
C4_7 C5_7 O5_7 120.1(8) . . ?
C1A_8 O1A_8 Cu4 116.2(17) . . ?
C1A_8 N1A_8 C3A_8 119.8(14) . . ?
C1A_8 N1A_8 C2A_8 118.3(13) . . ?
C3A_8 N1A_8 C2A_8 121.7(12) . . ?
N1A_8 C1A_8 O1A_8 123.2(16) . . ?
N1A_8 C1A_8 H1A_8 118.4 . . ?
O1A_8 C1A_8 H1A_8 118.4 . . ?
N1A_8 C2A_8 H2AA_8 109.5 . . ?
N1A_8 C2A_8 H2AB_8 109.5 . . ?
H2AA_8 C2A_8 H2AB_8 109.5 . . ?
N1A_8 C2A_8 H2AC_8 109.5 . . ?
H2AA_8 C2A_8 H2AC_8 109.5 . . ?
H2AB_8 C2A_8 H2AC_8 109.5 . . ?
N1A_8 C3A_8 H3AA_8 109.5 . . ?
N1A_8 C3A_8 H3AB_8 109.5 . . ?
H3AA_8 C3A_8 H3AB_8 109.5 . . ?
N1A_8 C3A_8 H3AC_8 109.5 . . ?
H3AA_8 C3A_8 H3AC_8 109.5 . . ?
H3AB_8 C3A_8 H3AC_8 109.5 . . ?
C1B_8 O1B_8 Cu4 116(2) . . ?
C1B_8 N1B_8 C3B_8 121.7(16) . . ?
C1B_8 N1B_8 C2B_8 123.4(16) . . ?
C3B_8 N1B_8 C2B_8 114.8(15) . . ?
O1B_8 C1B_8 N1B_8 118(2) . . ?
O1B_8 C1B_8 H1B_8 120.8 . . ?
N1B_8 C1B_8 H1B_8 120.8 . . ?
N1B_8 C2B_8 H2BA_8 109.5 . . ?
N1B_8 C2B_8 H2BB_8 109.5 . . ?
H2BA_8 C2B_8 H2BB_8 109.5 . . ?
N1B_8 C2B_8 H2BC_8 109.5 . . ?
H2BA_8 C2B_8 H2BC_8 109.5 . . ?
H2BB_8 C2B_8 H2BC_8 109.5 . . ?
N1B_8 C3B_8 H3BA_8 109.5 . . ?
N1B_8 C3B_8 H3BB_8 109.5 . . ?
H3BA_8 C3B_8 H3BB_8 109.5 . . ?
N1B_8 C3B_8 H3BC_8 109.5 . . ?
H3BA_8 C3B_8 H3BC_8 109.5 . . ?
H3BB_8 C3B_8 H3BC_8 109.5 . . ?
C1_9 O1_9 Cu3 104.4(4) . . ?
C1_9 N1_9 C3_9 121.8 . . ?
C1_9 N1_9 C2_9 120.6 . . ?
C3_9 N1_9 C2_9 117.7 . . ?
O1_9 C1_9 N1_9 126.0 . . ?
O1_9 C1_9 H1_9 117.0 . . ?
N1_9 C1_9 H1_9 117.0 . . ?
N1_9 C2_9 H2A_9 109.5 . . ?
N1_9 C2_9 H2B_9 109.5 . . ?
H2A_9 C2_9 H2B_9 109.5 . . ?
N1_9 C2_9 H2C_9 109.5 . . ?
H2A_9 C2_9 H2C_9 109.5 . . ?
H2B_9 C2_9 H2C_9 109.5 . . ?
N1_9 C3_9 H3A_9 109.5 . . ?
N1_9 C3_9 H3B_9 109.5 . . ?
H3A_9 C3_9 H3B_9 109.5 . . ?
N1_9 C3_9 H3C_9 109.5 . . ?
H3A_9 C3_9 H3C_9 109.5 . . ?
H3B_9 C3_9 H3C_9 109.5 . . ?
loop_
_geom_bond_atom_site_label_1
_geom_bond_atom_site_label_2
_geom_bond_distance
_geom_bond_site_symmetry_2
_geom_bond_publ_flag
Cu1 O3_6 1.930(7) 5_666 ?
Cu1 O3_6 1.930(7) 6_565 ?
Cu1 O1_1 1.961(4) . ?
Cu1 O1_1 1.961(4) 2_656 ?
Cu1 O1 2.132(10) . ?
Cu1 Cu2 2.633(2) . ?
Cu2 O2_1 1.962(4) 2_656 ?
Cu2 O2_1 1.962(4) . ?
Cu2 O4_6 1.966(7) 6_565 ?
Cu2 O4_6 1.966(7) 5_666 ?
Cu2 O2 2.159(8) . ?
Cu3 O3_1 1.944(5) . ?
Cu3 O1_3 1.952(5) . ?
Cu3 O1_4 1.955(6) . ?
Cu3 O3_2 1.967(6) . ?
Cu3 O1_9 2.187(6) . ?
Cu3 Cu4 2.6528(11) . ?
Cu4 O4_2 1.945(6) . ?
Cu4 O2_4 1.960(6) . ?
Cu4 O4_1 1.970(5) . ?
Cu4 O2_3 1.987(5) . ?
Cu4 O1A_8 2.077(19) . ?
Cu4 O1B_8 2.26(2) . ?
Cu5 O3_4 1.953(5) . ?
Cu5 O3_4 1.953(5) 6_565 ?
Cu5 O1_5 1.981(6) . ?
Cu5 O1_5 1.981(5) 6_565 ?
Cu5 O3 2.162(10) . ?
Cu5 Cu6 2.631(2) . ?
Cu6 O4_4 1.952(6) . ?
Cu6 O4_4 1.952(6) 6_565 ?
Cu6 O2_5 1.961(5) . ?
Cu6 O2_5 1.961(5) 6_565 ?
Cu6 O4 2.125(9) . ?
Cu7 O1_2 1.942(5) 5_666 ?
Cu7 O1_6 1.945(6) . ?
Cu7 O1_7 1.948(6) . ?
Cu7 O3_5 1.954(5) . ?
Cu7 O5 2.149(8) . ?
Cu7 Cu8 2.6357(18) . ?
Cu8 O2_6 1.939(7) . ?
Cu8 O2_7 1.949(7) . ?
Cu8 O4_5 1.963(5) . ?
Cu8 O2_2 1.969(5) 5_666 ?
Cu8 O6 2.169(7) . ?
O1_1 C1_1 1.246(8) . ?
O2_1 C1_1 1.261(8) . ?
O3_1 C8_1 1.244(8) . ?
O4_1 C8_1 1.252(7) . ?
O5_1 C5_1 1.352(9) . ?
O5_1 C9_1 1.458(9) . ?
C1_1 C3_1 1.517(9) . ?
C2_1 C3_1 1.357(9) . ?
C2_1 C7_1 1.411(8) . ?
C2_1 H2_1 0.9500 . ?
C3_1 C4_1 1.373(10) . ?
C4_1 C5_1 1.420(9) . ?
C4_1 H4_1 0.9500 . ?
C5_1 C6_1 1.376(10) . ?
C6_1 C7_1 1.360(9) . ?
C6_1 H6_1 0.9500 . ?
C7_1 C8_1 1.531(9) . ?
C9_1 C10_1 1.492(13) . ?
C9_1 H9A_1 0.9900 . ?
C9_1 H9B_1 0.9900 . ?
C10_1 C11_1 1.61(3) . ?
C10_1 H10A_1 0.9900 . ?
C10_1 H10B_1 0.9900 . ?
O1_2 C1_2 1.252(9) . ?
O2_2 C1_2 1.261(10) . ?
O3_2 C8_2 1.208(8) . ?
O4_2 C8_2 1.232(7) . ?
O5_2 C5_2 1.383(10) . ?
O5_2 C9_2 1.421(11) . ?
C1_2 C3_2 1.511(10) . ?
C2_2 C7_2 1.375(10) . ?
C2_2 C3_2 1.394(11) . ?
C2_2 H2_2 0.9500 . ?
C3_2 C4_2 1.397(11) . ?
C4_2 C5_2 1.400(11) . ?
C4_2 H4_2 0.9500 . ?
C5_2 C6_2 1.362(12) . ?
C6_2 C7_2 1.414(11) . ?
C6_2 H6_2 0.9500 . ?
C7_2 C8_2 1.538(11) . ?
C9_2 C10_2 1.563(18) . ?
C9_2 H9A_2 0.9900 . ?
C9_2 H9B_2 0.9900 . ?
O1_3 C1_3 1.262(8) . ?
O2_3 C1_3 1.230(8) . ?
O5_3 C5_3 1.356(13) . ?
O5_3 C9_3 1.47(3) . ?
O5_3 C9_3 1.47(3) 6_565 ?
C1_3 C3_3 1.511(10) . ?
C2_3 C3_3 1.383(8) . ?
C2_3 C3_3 1.383(8) 6_565 ?
C2_3 H2_3 0.9500 . ?
C3_3 C4_3 1.403(10) . ?
C4_3 C5_3 1.389(9) . ?
C4_3 H4_3 0.9500 . ?
O1_4 C1_4 1.256(8) . ?
O2_4 C1_4 1.223(9) . ?
O3_4 C8_4 1.267(9) . ?
O4_4 C8_4 1.254(10) . ?
O5_4 C5_4 1.396(13) . ?
O5_4 C9_6 1.49(2) . ?
C1_4 C3_4 1.539(12) . ?
C2_4 C3_4 1.379(11) . ?
C2_4 C7_4 1.381(11) . ?
C2_4 H2_4 0.9500 . ?
C3_4 C4_4 1.395(12) . ?
C4_4 C5_4 1.383(16) . ?
C4_4 H4_4 0.9500 . ?
C5_4 C6_4 1.414(14) . ?
C6_4 C7_4 1.364(12) . ?
C6_4 H6_4 0.9500 . ?
C7_4 C8_4 1.508(12) . ?
O1_5 C1_5 1.202(9) . ?
O2_5 C1_5 1.283(9) . ?
O3_5 C8_5 1.216(10) . ?
O4_5 C8_5 1.273(10) . ?
O5_5 C5_5 1.388(12) . ?
O5_5 C9_5 1.440(13) . ?
C1_5 C3_5 1.548(11) . ?
C2_5 C3_5 1.369(10) . ?
C2_5 C7_5 1.396(11) . ?
C2_5 H2_5 0.9500 . ?
C3_5 C4_5 1.372(13) . ?
C4_5 C5_5 1.382(12) . ?
C4_5 H4_5 0.9500 . ?
C5_5 C6_5 1.391(12) . ?
C6_5 C7_5 1.332(12) . ?
C6_5 H6_5 0.9500 . ?
C7_5 C8_5 1.543(11) . ?
C9_5 C10_5 1.49(2) . ?
C9_5 H9A_5 0.9900 . ?
C9_5 H9B_5 0.9900 . ?
C10_5 C11_5 1.74(3) . ?
C10_5 H10A_5 0.9900 . ?
C10_5 H10B_5 0.9900 . ?
O1_6 C1_6 1.215(10) . ?
O2_6 C1_6 1.292(11) . ?
O3_6 C8_6 1.243(9) . ?
O4_6 C8_6 1.263(9) . ?
O5_6 C5_6 1.391(15) . ?
C1_6 C3_6 1.565(13) . ?
C2_6 C3_6 1.339(12) . ?
C2_6 C7_6 1.415(12) . ?
C2_6 H2_6 0.9500 . ?
C3_6 C4_6 1.402(14) . ?
C4_6 C5_6 1.376(17) . ?
C4_6 H4_6 0.9500 . ?
C5_6 C6_6 1.315(17) . ?
C6_6 C7_6 1.375(13) . ?
C6_6 H6_6 0.9500 . ?
C7_6 C8_6 1.544(13) . ?
O1_7 C1_7 1.243(11) . ?
O2_7 C1_7 1.243(10) . ?
O5_7 C5_7 1.42(2) . ?
C1_7 C3_7 1.557(13) . ?
C2_7 C3_7 1.404(12) . ?
C2_7 C3_7 1.404(11) 6_565 ?
C2_7 H2_7 0.9500 . ?
C3_7 C4_7 1.333(14) . ?
C4_7 C5_7 1.388(14) . ?
C4_7 H4_7 0.9500 . ?
O1A_8 C1A_8 1.42(3) . ?
N1A_8 C1A_8 1.380(15) . ?
N1A_8 C3A_8 1.42(2) . ?
N1A_8 C2A_8 1.65(2) . ?
C1A_8 H1A_8 0.9500 . ?
C2A_8 H2AA_8 0.9800 . ?
C2A_8 H2AB_8 0.9800 . ?
C2A_8 H2AC_8 0.9800 . ?
C3A_8 H3AA_8 0.9800 . ?
C3A_8 H3AB_8 0.9800 . ?
C3A_8 H3AC_8 0.9800 . ?
O1B_8 C1B_8 1.23(3) . ?
N1B_8 C1B_8 1.310(19) . ?
N1B_8 C3B_8 1.37(2) . ?
N1B_8 C2B_8 1.41(3) . ?
C1B_8 H1B_8 0.9500 . ?
C2B_8 H2BA_8 0.9800 . ?
C2B_8 H2BB_8 0.9800 . ?
C2B_8 H2BC_8 0.9800 . ?
C3B_8 H3BA_8 0.9800 . ?
C3B_8 H3BB_8 0.9800 . ?
C3B_8 H3BC_8 0.9800 . ?
O1_9 C1_9 1.2164 . ?
N1_9 C1_9 1.3622 . ?
N1_9 C3_9 1.4505 . ?
N1_9 C2_9 1.4537 . ?
C1_9 H1_9 0.9500 . ?
C2_9 H2A_9 0.9800 . ?
C2_9 H2B_9 0.9800 . ?
C2_9 H2C_9 0.9800 . ?
C3_9 H3A_9 0.9800 . ?
C3_9 H3B_9 0.9800 . ?
C3_9 H3C_9 0.9800 . ?
loop_
_geom_torsion_atom_site_label_1
_geom_torsion_atom_site_label_2
_geom_torsion_atom_site_label_3
_geom_torsion_atom_site_label_4
_geom_torsion
_geom_torsion_site_symmetry_1
_geom_torsion_site_symmetry_2
_geom_torsion_site_symmetry_3
_geom_torsion_site_symmetry_4
_geom_torsion_publ_flag
Cu1 O1_1 C1_1 O2_1 12.7(14) . . . . ?
Cu1 O1_1 C1_1 C3_1 -174.4(6) . . . . ?
Cu2 O2_1 C1_1 O1_1 -12.9(14) . . . . ?
Cu2 O2_1 C1_1 C3_1 174.2(6) . . . . ?
C7_1 C2_1 C3_1 C4_1 -4.8(13) . . . . ?
C7_1 C2_1 C3_1 C1_1 171.8(8) . . . . ?
O1_1 C1_1 C3_1 C2_1 11.2(13) . . . . ?
O2_1 C1_1 C3_1 C2_1 -175.2(8) . . . . ?
O1_1 C1_1 C3_1 C4_1 -172.1(8) . . . . ?
O2_1 C1_1 C3_1 C4_1 1.5(13) . . . . ?
C2_1 C3_1 C4_1 C5_1 1.4(14) . . . . ?
C1_1 C3_1 C4_1 C5_1 -175.2(9) . . . . ?
C9_1 O5_1 C5_1 C6_1 -14.3(15) . . . . ?
C9_1 O5_1 C5_1 C4_1 168.8(9) . . . . ?
C3_1 C4_1 C5_1 O5_1 -178.3(8) . . . . ?
C3_1 C4_1 C5_1 C6_1 4.5(14) . . . . ?
O5_1 C5_1 C6_1 C7_1 176.0(9) . . . . ?
C4_1 C5_1 C6_1 C7_1 -7.2(14) . . . . ?
C5_1 C6_1 C7_1 C2_1 3.9(13) . . . . ?
C5_1 C6_1 C7_1 C8_1 -179.6(8) . . . . ?
C3_1 C2_1 C7_1 C6_1 2.2(13) . . . . ?
C3_1 C2_1 C7_1 C8_1 -174.3(8) . . . . ?
Cu3 O3_1 C8_1 O4_1 -6.1(12) . . . . ?
Cu3 O3_1 C8_1 C7_1 178.2(5) . . . . ?
Cu4 O4_1 C8_1 O3_1 7.8(12) . . . . ?
Cu4 O4_1 C8_1 C7_1 -176.5(5) . . . . ?
C6_1 C7_1 C8_1 O3_1 178.1(8) . . . . ?
C2_1 C7_1 C8_1 O3_1 -5.4(12) . . . . ?
C6_1 C7_1 C8_1 O4_1 2.0(12) . . . . ?
C2_1 C7_1 C8_1 O4_1 178.5(7) . . . . ?
C5_1 O5_1 C9_1 C10_1 -166.3(10) . . . . ?
O5_1 C9_1 C10_1 C11_1 175.7(15) . . . . ?
Cu7 O1_2 C1_2 O2_2 -9.5(14) 5_666 . . . ?
Cu7 O1_2 C1_2 C3_2 174.3(5) 5_666 . . . ?
Cu8 O2_2 C1_2 O1_2 8.5(13) 5_666 . . . ?
Cu8 O2_2 C1_2 C3_2 -175.2(5) 5_666 . . . ?
C7_2 C2_2 C3_2 C4_2 0.3(12) . . . . ?
C7_2 C2_2 C3_2 C1_2 -173.5(7) . . . . ?
O1_2 C1_2 C3_2 C2_2 -11.4(12) . . . . ?
O2_2 C1_2 C3_2 C2_2 171.9(8) . . . . ?
O1_2 C1_2 C3_2 C4_2 174.8(8) . . . . ?
O2_2 C1_2 C3_2 C4_2 -1.9(12) . . . . ?
C2_2 C3_2 C4_2 C5_2 1.1(13) . . . . ?
C1_2 C3_2 C4_2 C5_2 174.9(8) . . . . ?
C9_2 O5_2 C5_2 C6_2 12.4(15) . . . . ?
C9_2 O5_2 C5_2 C4_2 -168.7(10) . . . . ?
C3_2 C4_2 C5_2 C6_2 -3.8(14) . . . . ?
C3_2 C4_2 C5_2 O5_2 177.3(8) . . . . ?
O5_2 C5_2 C6_2 C7_2 -176.3(8) . . . . ?
C4_2 C5_2 C6_2 C7_2 4.9(13) . . . . ?
C3_2 C2_2 C7_2 C6_2 0.8(11) . . . . ?
C3_2 C2_2 C7_2 C8_2 177.1(6) . . . . ?
C5_2 C6_2 C7_2 C2_2 -3.3(11) . . . . ?
C5_2 C6_2 C7_2 C8_2 -179.6(7) . . . . ?
Cu3 O3_2 C8_2 O4_2 8.1(11) . . . . ?
Cu3 O3_2 C8_2 C7_2 -178.1(4) . . . . ?
Cu4 O4_2 C8_2 O3_2 -8.9(10) . . . . ?
Cu4 O4_2 C8_2 C7_2 177.4(4) . . . . ?
C2_2 C7_2 C8_2 O3_2 6.2(9) . . . . ?
C6_2 C7_2 C8_2 O3_2 -177.5(6) . . . . ?
C2_2 C7_2 C8_2 O4_2 -179.1(6) . . . . ?
C6_2 C7_2 C8_2 O4_2 -2.8(9) . . . . ?
C5_2 O5_2 C9_2 C10_2 159.0(13) . . . . ?
Cu4 O2_3 C1_3 O1_3 5.1(13) . . . . ?
Cu4 O2_3 C1_3 C3_3 -177.1(6) . . . . ?
Cu3 O1_3 C1_3 O2_3 -4.7(13) . . . . ?
Cu3 O1_3 C1_3 C3_3 177.5(6) . . . . ?
C3_3 C2_3 C3_3 C4_3 4.0(18) 6_565 . . . ?
C3_3 C2_3 C3_3 C1_3 -174.6(7) 6_565 . . . ?
O2_3 C1_3 C3_3 C2_3 172.2(9) . . . . ?
O1_3 C1_3 C3_3 C2_3 -9.8(13) . . . . ?
O2_3 C1_3 C3_3 C4_3 -6.4(13) . . . . ?
O1_3 C1_3 C3_3 C4_3 171.6(9) . . . . ?
C2_3 C3_3 C4_3 C5_3 -2.4(17) . . . . ?
C1_3 C3_3 C4_3 C5_3 176.2(11) . . . . ?
C9_3 O5_3 C5_3 C4_3 150(2) . . . 6_565 ?
C9_3 O5_3 C5_3 C4_3 29(3) 6_565 . . 6_565 ?
C9_3 O5_3 C5_3 C4_3 -29(3) . . . . ?
C9_3 O5_3 C5_3 C4_3 -150(2) 6_565 . . . ?
C3_3 C4_3 C5_3 O5_3 -179.9(14) . . . . ?
C3_3 C4_3 C5_3 C4_3 1(2) . . . 6_565 ?
Cu4 O2_4 C1_4 O1_4 -6.1(13) . . . . ?
Cu4 O2_4 C1_4 C3_4 179.4(5) . . . . ?
Cu3 O1_4 C1_4 O2_4 6.6(12) . . . . ?
Cu3 O1_4 C1_4 C3_4 -178.8(5) . . . . ?
C7_4 C2_4 C3_4 C4_4 -0.2(15) . . . . ?
C7_4 C2_4 C3_4 C1_4 174.5(8) . . . . ?
O2_4 C1_4 C3_4 C2_4 -173.4(8) . . . . ?
O1_4 C1_4 C3_4 C2_4 11.3(12) . . . . ?
O2_4 C1_4 C3_4 C4_4 1.4(14) . . . . ?
O1_4 C1_4 C3_4 C4_4 -173.9(10) . . . . ?
C2_4 C3_4 C4_4 C5_4 -2.3(19) . . . . ?
C1_4 C3_4 C4_4 C5_4 -177.2(12) . . . . ?
C3_4 C4_4 C5_4 O5_4 -179.6(14) . . . . ?
C3_4 C4_4 C5_4 C6_4 5(2) . . . . ?
C9_6 O5_4 C5_4 C4_4 2(3) . . . . ?
C9_6 O5_4 C5_4 C6_4 177.6(18) . . . . ?
C4_4 C5_4 C6_4 C7_4 -5(2) . . . . ?
O5_4 C5_4 C6_4 C7_4 179.0(13) . . . . ?
C5_4 C6_4 C7_4 C2_4 2.6(17) . . . . ?
C5_4 C6_4 C7_4 C8_4 178.0(11) . . . . ?
C3_4 C2_4 C7_4 C6_4 0.0(14) . . . . ?
C3_4 C2_4 C7_4 C8_4 -175.3(8) . . . . ?
Cu6 O4_4 C8_4 O3_4 7.6(13) . . . . ?
Cu6 O4_4 C8_4 C7_4 -177.8(6) . . . . ?
Cu5 O3_4 C8_4 O4_4 -8.5(13) . . . . ?
Cu5 O3_4 C8_4 C7_4 176.9(5) . . . . ?
C6_4 C7_4 C8_4 O4_4 -1.6(13) . . . . ?
C2_4 C7_4 C8_4 O4_4 173.7(8) . . . . ?
C6_4 C7_4 C8_4 O3_4 173.5(9) . . . . ?
C2_4 C7_4 C8_4 O3_4 -11.1(12) . . . . ?
Cu5 O1_5 C1_5 O2_5 -7.0(12) . . . . ?
Cu5 O1_5 C1_5 C3_5 175.3(5) . . . . ?
Cu6 O2_5 C1_5 O1_5 7.7(12) . . . . ?
Cu6 O2_5 C1_5 C3_5 -174.6(5) . . . . ?
C7_5 C2_5 C3_5 C4_5 -1.1(13) . . . . ?
C7_5 C2_5 C3_5 C1_5 -175.3(8) . . . . ?
O1_5 C1_5 C3_5 C2_5 -7.1(12) . . . . ?
O2_5 C1_5 C3_5 C2_5 174.8(7) . . . . ?
O1_5 C1_5 C3_5 C4_5 178.6(8) . . . . ?
O2_5 C1_5 C3_5 C4_5 0.6(12) . . . . ?
C2_5 C3_5 C4_5 C5_5 0.9(15) . . . . ?
C1_5 C3_5 C4_5 C5_5 175.1(9) . . . . ?
C3_5 C4_5 C5_5 O5_5 178.6(10) . . . . ?
C3_5 C4_5 C5_5 C6_5 0.0(16) . . . . ?
C9_5 O5_5 C5_5 C4_5 0.2(19) . . . . ?
C9_5 O5_5 C5_5 C6_5 178.9(11) . . . . ?
C4_5 C5_5 C6_5 C7_5 -0.7(17) . . . . ?
O5_5 C5_5 C6_5 C7_5 -179.5(10) . . . . ?
C5_5 C6_5 C7_5 C2_5 0.6(16) . . . . ?
C5_5 C6_5 C7_5 C8_5 -174.1(9) . . . . ?
C3_5 C2_5 C7_5 C6_5 0.3(14) . . . . ?
C3_5 C2_5 C7_5 C8_5 175.3(8) . . . . ?
Cu7 O3_5 C8_5 O4_5 10.6(15) . . . . ?
Cu7 O3_5 C8_5 C7_5 -176.6(6) . . . . ?
Cu8 O4_5 C8_5 O3_5 -10.6(15) . . . . ?
Cu8 O4_5 C8_5 C7_5 176.3(6) . . . . ?
C6_5 C7_5 C8_5 O3_5 -177.6(10) . . . . ?
C2_5 C7_5 C8_5 O3_5 7.6(14) . . . . ?
C6_5 C7_5 C8_5 O4_5 -3.7(14) . . . . ?
C2_5 C7_5 C8_5 O4_5 -178.6(8) . . . . ?
C5_5 O5_5 C9_5 C10_5 -170.7(13) . . . . ?
O5_5 C9_5 C10_5 C11_5 162.7(17) . . . . ?
Cu7 O1_6 C1_6 O2_6 -7.6(11) . . . . ?
Cu7 O1_6 C1_6 C3_6 177.2(4) . . . . ?
Cu8 O2_6 C1_6 O1_6 8.4(11) . . . . ?
Cu8 O2_6 C1_6 C3_6 -176.3(4) . . . . ?
C7_6 C2_6 C3_6 C4_6 -0.6(12) . . . . ?
C7_6 C2_6 C3_6 C1_6 -176.5(6) . . . . ?
O1_6 C1_6 C3_6 C2_6 -8.2(10) . . . . ?
O2_6 C1_6 C3_6 C2_6 176.0(7) . . . . ?
O1_6 C1_6 C3_6 C4_6 175.9(8) . . . . ?
O2_6 C1_6 C3_6 C4_6 0.1(11) . . . . ?
C2_6 C3_6 C4_6 C5_6 1.4(16) . . . . ?
C1_6 C3_6 C4_6 C5_6 177.1(10) . . . . ?
C3_6 C4_6 C5_6 C6_6 -1(2) . . . . ?
C3_6 C4_6 C5_6 O5_6 174.1(12) . . . . ?
C4_6 C5_6 C6_6 C7_6 0(2) . . . . ?
O5_6 C5_6 C6_6 C7_6 -174.9(13) . . . . ?
C5_6 C6_6 C7_6 C2_6 0.6(17) . . . . ?
C5_6 C6_6 C7_6 C8_6 -177.8(11) . . . . ?
C3_6 C2_6 C7_6 C6_6 -0.3(11) . . . . ?
C3_6 C2_6 C7_6 C8_6 178.1(6) . . . . ?
Cu1 O3_6 C8_6 O4_6 6.6(10) 5_666 . . . ?
Cu1 O3_6 C8_6 C7_6 -178.2(4) 5_666 . . . ?
Cu2 O4_6 C8_6 O3_6 -6.6(10) 5_666 . . . ?
Cu2 O4_6 C8_6 C7_6 178.1(4) 5_666 . . . ?
C6_6 C7_6 C8_6 O3_6 -173.0(8) . . . . ?
C2_6 C7_6 C8_6 O3_6 8.6(9) . . . . ?
C6_6 C7_6 C8_6 O4_6 2.9(10) . . . . ?
C2_6 C7_6 C8_6 O4_6 -175.5(6) . . . . ?
Cu8 O2_7 C1_7 O1_7 4.6(11) . . . . ?
Cu8 O2_7 C1_7 C3_7 -175.2(5) . . . . ?
Cu7 O1_7 C1_7 O2_7 -4.5(12) . . . . ?
Cu7 O1_7 C1_7 C3_7 175.3(5) . . . . ?
C3_7 C2_7 C3_7 C4_7 7.4(16) 6_565 . . . ?
C3_7 C2_7 C3_7 C1_7 -173.6(5) 6_565 . . . ?
O2_7 C1_7 C3_7 C4_7 -3.8(12) . . . . ?
O1_7 C1_7 C3_7 C4_7 176.4(8) . . . . ?
O2_7 C1_7 C3_7 C2_7 177.2(8) . . . . ?
O1_7 C1_7 C3_7 C2_7 -2.7(11) . . . . ?
C2_7 C3_7 C4_7 C5_7 -2.9(18) . . . . ?
C1_7 C3_7 C4_7 C5_7 178.1(12) . . . . ?
C3_7 C4_7 C5_7 C4_7 -2(3) . . . 6_565 ?
C3_7 C4_7 C5_7 O5_7 -177.5(14) . . . . ?
C3A_8 N1A_8 C1A_8 O1A_8 -178.3(19) . . . . ?
C2A_8 N1A_8 C1A_8 O1A_8 6(3) . . . . ?
Cu4 O1A_8 C1A_8 N1A_8 172.5(14) . . . . ?
Cu4 O1B_8 C1B_8 N1B_8 -170.8(16) . . . . ?
C3B_8 N1B_8 C1B_8 O1B_8 175(2) . . . . ?
C2B_8 N1B_8 C1B_8 O1B_8 -10(3) . . . . ?
Cu3 O1_9 C1_9 N1_9 172.4(6) . . . . ?
C3_9 N1_9 C1_9 O1_9 179.9 . . . . ?
C2_9 N1_9 C1_9 O1_9 0.0 . . . . ?
