#------------------------------------------------------------------------------
#$Date: 2020-10-06 16:54:14 +0300 (Tue, 06 Oct 2020) $
#$Revision: 258172 $
#$URL: file:///home/coder/svn-repositories/cod/cif/1/55/92/1559274.cif $
#------------------------------------------------------------------------------
#
# This file is available in the Crystallography Open Database (COD),
# http://www.crystallography.net/
#
# All data on this site have been placed in the public domain by the
# contributors.
#
data_1559274
loop_
_publ_author_name
'\/Oien-\/Odegaard, Sigurd'
'Lillerud, Karl'
_publ_section_title
;
 Twinning in Zr-Based Metal-Organic Framework Crystals
;
_journal_issue                   3
_journal_name_full               Chemistry
_journal_page_first              777
_journal_page_last               786
_journal_paper_doi               10.3390/chemistry2030050
_journal_volume                  2
_journal_year                    2020
_chemical_formula_moiety         '(C96 O32 Zr6), 8(O)'
_chemical_formula_sum            'C96 O40 Zr6'
_chemical_formula_weight         2340.28
_chemical_name_common            UiO-67-Me~2~
_space_group_crystal_system      cubic
_space_group_IT_number           225
_space_group_name_Hall           '-F 4 2 3'
_space_group_name_H-M_alt        'F m -3 m'
_audit_creation_date             2017-01-11
_audit_creation_method
;
Olex2 1.2
(compiled 2017.01.04 svn.r3372 for OlexSys, GUI svn.r5289)
;
_audit_update_record
;
2020-08-19 deposited with the CCDC.	2020-08-19 downloaded from the CCDC.
;
_cell_angle_alpha                90
_cell_angle_beta                 90
_cell_angle_gamma                90
_cell_formula_units_Z            4
_cell_length_a                   26.8903(12)
_cell_length_b                   26.8903(12)
_cell_length_c                   26.8903(12)
_cell_measurement_reflns_used    9868
_cell_measurement_temperature    100(2)
_cell_measurement_theta_max      27.48
_cell_measurement_theta_min      2.51
_cell_volume                     19444.1(15)
_computing_cell_refinement       'APEX3 (Bruker AXS, 2016)'
_computing_data_collection       'APEX3 (Bruker AXS, 2016)'
_computing_data_reduction        'APEX3 (Bruker AXS, 2016)'
_computing_molecular_graphics    'Diamond v4 (Brandenburg, 2012)'
_computing_publication_material  'Olex2 (Dolomanov et al., 2009)'
_computing_structure_refinement  'SHELXL (Sheldrick, 2015b)'
_computing_structure_solution    'SHELXT (Sheldrick, 2015a)'
_diffrn_ambient_temperature      99.99
_diffrn_detector                 'Bruker PHOTON100 area detector'
_diffrn_detector_area_resol_mean 10.4167
_diffrn_detector_type            'CMOS area detector'
_diffrn_measured_fraction_theta_full 0.996
_diffrn_measured_fraction_theta_max 0.997
_diffrn_measurement_device       'three-circle diffractometer'
_diffrn_measurement_device_type  'Bruker D8 Venture, CMOS detector'
_diffrn_measurement_method       '\w and \f scans'
_diffrn_radiation_probe          x-ray
_diffrn_radiation_type           MoK\a
_diffrn_radiation_wavelength     0.71073
_diffrn_reflns_av_R_equivalents  0.0355
_diffrn_reflns_av_unetI/netI     0.0221
_diffrn_reflns_Laue_measured_fraction_full 0.996
_diffrn_reflns_Laue_measured_fraction_max 0.997
_diffrn_reflns_limit_h_max       20
_diffrn_reflns_limit_h_min       0
_diffrn_reflns_limit_k_max       24
_diffrn_reflns_limit_k_min       0
_diffrn_reflns_limit_l_max       34
_diffrn_reflns_limit_l_min       3
_diffrn_reflns_number            4388
_diffrn_reflns_point_group_measured_fraction_full 0.996
_diffrn_reflns_point_group_measured_fraction_max 0.997
_diffrn_reflns_theta_full        25.242
_diffrn_reflns_theta_max         27.478
_diffrn_reflns_theta_min         2.512
_diffrn_source                   'microfocus sealed X-ray tube'
_diffrn_standards_number         0
_exptl_absorpt_coefficient_mu    0.354
_exptl_absorpt_correction_type   multi-scan
_exptl_absorpt_process_details
;
 TWINABS-2012/1 (Bruker,2012) was used for absorption correction.
 
For component 1:
 wR2(int) was 0.0553 before and 0.0393 after correction.
 The Ratio of minimum to maximum transmission not present.
 The \l/2 correction factor is Not present
 
For component 2:
 wR2(int) was 0.0746 before and 0.0477 after correction.
 The Ratio of minimum to maximum transmission is 0.91.
 The \l/2 correction factor is Not present

Final HKLF 4 output contains 65680 reflections, Rint = 0.0355
 (48576 with I > 3sig(I), Rint = 0.0312)
;
_exptl_crystal_colour            colourless
_exptl_crystal_density_diffrn    0.799
_exptl_crystal_description       octahedron
_exptl_crystal_F_000             4544
_exptl_crystal_size_max          0.06
_exptl_crystal_size_mid          0.06
_exptl_crystal_size_min          0.02
_exptl_transmission_factor_max   1.00
_exptl_transmission_factor_min   0.91
_refine_diff_density_max         1.034
_refine_diff_density_min         -1.052
_refine_diff_density_rms         0.286
_refine_ls_extinction_method     none
_refine_ls_goodness_of_fit_ref   1.127
_refine_ls_hydrogen_treatment    undef
_refine_ls_matrix_type           full
_refine_ls_number_parameters     59
_refine_ls_number_reflns         4388
_refine_ls_number_restraints     0
_refine_ls_restrained_S_all      1.127
_refine_ls_R_factor_all          0.0531
_refine_ls_R_factor_gt           0.0479
_refine_ls_shift/su_max          0.000
_refine_ls_shift/su_mean         0.000
_refine_ls_structure_factor_coef Fsqd
_refine_ls_weighting_details
'w=1/[\s^2^(Fo^2^)+(0.1110P)^2^+167.3671P] where P=(Fo^2^+2Fc^2^)/3'
_refine_ls_weighting_scheme      calc
_refine_ls_wR_factor_gt          0.1686
_refine_ls_wR_factor_ref         0.1743
_reflns_Friedel_coverage         0.000
_reflns_number_gt                4155
_reflns_number_total             4388
_reflns_threshold_expression     'I > 2\s(I)'
_iucr_refine_instructions_details
;

    twin-hkl4.res created by SHELXL-2014/7

TITL twin-hkl4_a.res in Fm-3m
REM Old TITL twin-hkl4 in Fm-3m
REM SHELXT solution in Fm-3m
REM R1 0.256, Rweak 0.029, Alpha 0.026, Orientation as input
REM Formula found by SHELXT: C18 O20 Zr3
CELL 0.71073 26.8903 26.8903 26.8903 90 90 90
ZERR 4 0.0012 0.0012 0.0012 0 0 0
LATT 4
SYMM -X,-Y,+Z
SYMM -X,+Y,-Z
SYMM +X,-Y,-Z
SYMM +Z,+X,+Y
SYMM +Z,-X,-Y
SYMM -Z,-X,+Y
SYMM -Z,+X,-Y
SYMM +Y,+Z,+X
SYMM -Y,+Z,-X
SYMM +Y,-Z,-X
SYMM -Y,-Z,+X
SYMM +Y,+X,-Z
SYMM -Y,-X,-Z
SYMM +Y,-X,+Z
SYMM -Y,+X,+Z
SYMM +X,+Z,-Y
SYMM -X,+Z,+Y
SYMM -X,-Z,-Y
SYMM +X,-Z,+Y
SYMM +Z,+Y,-X
SYMM +Z,-Y,+X
SYMM -Z,+Y,+X
SYMM -Z,-Y,-X
SFAC C O Zr
UNIT 384 160 24
 
L.S. 40
PLAN  20
TEMP -173.16
BOND $H
LIST 8
fmap 2
acta
OMIT 0 8 0
REM <olex2.extras>
REM <HklSrc "%.\\mo_SOE_SC31t_0m_5.hkl">
REM </olex2.extras>
 
WGHT    0.111000  167.367111
BASF   0.28029
FVAR       0.13964
ZR01  3    0.407921    0.500000    0.500000    10.12500    0.00149    0.00550 =
         0.00550    0.00000    0.00000    0.00000
O002  2    0.368335    0.427493    0.500000    10.50000    0.00867    0.01218 =
         0.01829    0.00000    0.00000   -0.00486
C004  1    0.382781    0.382781    0.500000    10.25000    0.01184    0.01184 =
         0.01821    0.00000    0.00000   -0.00676
C005  1    0.343230    0.343230    0.500000    10.25000    0.01619    0.01619 =
         0.03507    0.00000    0.00000   -0.01320
O006  2    0.372299    0.372299    0.372299    10.16667    0.13690    0.13690 =
         0.13690    0.07778    0.07778    0.07778
C007  1    0.269628    0.269628    0.500000    10.25000    0.01345    0.01345 =
         0.04472    0.00000    0.00000   -0.01052
C2    1    0.317868    0.258693    0.485759    10.50000    0.01627    0.01270 =
         0.05426   -0.00330    0.00029   -0.00475
O1    2    0.448011    0.551989    0.551989    10.08333    0.00685    0.00685 =
         0.00685   -0.00260    0.00260    0.00260
O2    2    0.461066    0.538934    0.538934    10.08333    0.00382    0.00382 =
         0.00382    0.00010   -0.00010   -0.00010
C4    1    0.408377    0.274590    0.464599    10.25000    0.01670    0.01068 =
         0.09704   -0.01061    0.01451   -0.00806
C5    1    0.354956    0.294744    0.485817    10.50000    0.01426    0.02180 =
         0.05342    0.00825   -0.00144   -0.00791
HKLF 5
 
REM  twin-hkl4_a.res in Fm-3m
REM R1 =  0.0479 for    4155 Fo > 4sig(Fo)  and  0.0531 for all    4388 data
REM     59 parameters refined using      0 restraints
 
END  
     
WGHT      0.1109    167.4536 

REM Highest difference peak  1.034,  deepest hole -1.052,  1-sigma level  0.286
Q1    1   0.3803  0.3803  0.3803  10.16667  0.05    0.96
Q2    1   0.3640  0.3640  0.3380  10.50000  0.05    0.88
Q3    1   0.4344  0.5656  0.5656  10.16667  0.05    0.84
Q4    1   0.4317  0.3073  0.4317  10.50000  0.05    0.80
Q5    1   0.4209  0.1884  0.4209  10.50000  0.05    0.71
Q6    1   0.3200  0.2354  0.3799  11.00000  0.05    0.68
Q7    1   0.4085  0.2081  0.4085  10.50000  0.05    0.68
Q8    1   0.3173  0.3173  0.4358  10.50000  0.05    0.65
Q9    1   0.3093  0.1907  0.4371  10.50000  0.05    0.62
Q10   1   0.4355  0.0645  0.4355  10.16667  0.05    0.58
Q11   1   0.4508  0.1875  0.5000  10.50000  0.05    0.53
Q12   1   0.3078  0.1922  0.3078  10.16667  0.05    0.51
Q13   1   0.3185  0.2166  0.4634  11.00000  0.05    0.51
Q14   1   0.3291  0.2233  0.3841  11.00000  0.05    0.50
Q15   1   0.3618  0.4366  0.5634  10.50000  0.05    0.49
Q16   1   0.3194  0.3194  0.3194  10.16667  0.05    0.48
Q17   1   0.5000  0.5701  0.5701  10.25000  0.05    0.40
Q18   1   0.4315  0.2907  0.5000  10.50000  0.05    0.31
Q19   1   0.3136  0.1865  0.3645  10.50000  0.05    0.26
Q20   1   0.5000  0.0176  0.5000  10.12500  0.05    0.25

  REM The information below was added by Olex2.
  REM
  REM R1 = 0.0479 for 4155 Fo > 4sig(Fo) and 0.0531 for all 4388 data
  REM n/a parameters refined using n/a restraints
  REM Highest difference peak 1.03, deepest hole -1.05
  REM Mean Shift 0, Max Shift 0.000.

  REM +++ Tabular Listing of Refinement Information +++
  REM R1_all = 0.0531
  REM R1_gt = 0.0479
  REM wR_ref = 0.1743
  REM GOOF = 1.127
  REM Shift_max = 0.000
  REM Shift_mean = 0
  REM Reflections_all = 4388
  REM Reflections_gt = 4155
  REM Parameters = n/a
  REM Hole = -1.05
  REM Peak = 1.03
  REM Flack = n/a

  
;
_cod_data_source_file            2024088.cif
_cod_data_source_block           UiO-67-Me-twin
_cod_original_cell_volume        19444(3)
_cod_database_code               1559274
_shelx_shelxl_version_number     2014/7
_shelx_space_group_comment
;
The symmetry employed for this shelxl refinement is uniquely defined
by the following loop, which should always be used as a source of
symmetry information in preference to the above space-group names.
They are only intended as comments.
;
_olex2_refinement_description
;
1. Twinned data refinement
 Scales: 0.720(4) 0.280(4)
2. Others
 Fixed Sof: C2(0.5) O1(0.08333) O2(0.08333) C4(0.25) C5(0.5)
;
_olex2_submission_special_instructions 'No special instructions were received'
loop_
_space_group_symop_operation_xyz
'x, y, z'
'-x, -y, z'
'-x, y, -z'
'x, -y, -z'
'z, x, y'
'z, -x, -y'
'-z, -x, y'
'-z, x, -y'
'y, z, x'
'-y, z, -x'
'y, -z, -x'
'-y, -z, x'
'y, x, -z'
'-y, -x, -z'
'y, -x, z'
'-y, x, z'
'x, z, -y'
'-x, z, y'
'-x, -z, -y'
'x, -z, y'
'z, y, -x'
'z, -y, x'
'-z, y, x'
'-z, -y, -x'
'x, y+1/2, z+1/2'
'-x, -y+1/2, z+1/2'
'-x, y+1/2, -z+1/2'
'x, -y+1/2, -z+1/2'
'z, x+1/2, y+1/2'
'z, -x+1/2, -y+1/2'
'-z, -x+1/2, y+1/2'
'-z, x+1/2, -y+1/2'
'y, z+1/2, x+1/2'
'-y, z+1/2, -x+1/2'
'y, -z+1/2, -x+1/2'
'-y, -z+1/2, x+1/2'
'y, x+1/2, -z+1/2'
'-y, -x+1/2, -z+1/2'
'y, -x+1/2, z+1/2'
'-y, x+1/2, z+1/2'
'x, z+1/2, -y+1/2'
'-x, z+1/2, y+1/2'
'-x, -z+1/2, -y+1/2'
'x, -z+1/2, y+1/2'
'z, y+1/2, -x+1/2'
'z, -y+1/2, x+1/2'
'-z, y+1/2, x+1/2'
'-z, -y+1/2, -x+1/2'
'x+1/2, y, z+1/2'
'-x+1/2, -y, z+1/2'
'-x+1/2, y, -z+1/2'
'x+1/2, -y, -z+1/2'
'z+1/2, x, y+1/2'
'z+1/2, -x, -y+1/2'
'-z+1/2, -x, y+1/2'
'-z+1/2, x, -y+1/2'
'y+1/2, z, x+1/2'
'-y+1/2, z, -x+1/2'
'y+1/2, -z, -x+1/2'
'-y+1/2, -z, x+1/2'
'y+1/2, x, -z+1/2'
'-y+1/2, -x, -z+1/2'
'y+1/2, -x, z+1/2'
'-y+1/2, x, z+1/2'
'x+1/2, z, -y+1/2'
'-x+1/2, z, y+1/2'
'-x+1/2, -z, -y+1/2'
'x+1/2, -z, y+1/2'
'z+1/2, y, -x+1/2'
'z+1/2, -y, x+1/2'
'-z+1/2, y, x+1/2'
'-z+1/2, -y, -x+1/2'
'x+1/2, y+1/2, z'
'-x+1/2, -y+1/2, z'
'-x+1/2, y+1/2, -z'
'x+1/2, -y+1/2, -z'
'z+1/2, x+1/2, y'
'z+1/2, -x+1/2, -y'
'-z+1/2, -x+1/2, y'
'-z+1/2, x+1/2, -y'
'y+1/2, z+1/2, x'
'-y+1/2, z+1/2, -x'
'y+1/2, -z+1/2, -x'
'-y+1/2, -z+1/2, x'
'y+1/2, x+1/2, -z'
'-y+1/2, -x+1/2, -z'
'y+1/2, -x+1/2, z'
'-y+1/2, x+1/2, z'
'x+1/2, z+1/2, -y'
'-x+1/2, z+1/2, y'
'-x+1/2, -z+1/2, -y'
'x+1/2, -z+1/2, y'
'z+1/2, y+1/2, -x'
'z+1/2, -y+1/2, x'
'-z+1/2, y+1/2, x'
'-z+1/2, -y+1/2, -x'
'-x, -y, -z'
'x, y, -z'
'x, -y, z'
'-x, y, z'
'-z, -x, -y'
'-z, x, y'
'z, x, -y'
'z, -x, y'
'-y, -z, -x'
'y, -z, x'
'-y, z, x'
'y, z, -x'
'-y, -x, z'
'y, x, z'
'-y, x, -z'
'y, -x, -z'
'-x, -z, y'
'x, -z, -y'
'x, z, y'
'-x, z, -y'
'-z, -y, x'
'-z, y, -x'
'z, -y, -x'
'z, y, x'
'-x, -y+1/2, -z+1/2'
'x, y+1/2, -z+1/2'
'x, -y+1/2, z+1/2'
'-x, y+1/2, z+1/2'
'-z, -x+1/2, -y+1/2'
'-z, x+1/2, y+1/2'
'z, x+1/2, -y+1/2'
'z, -x+1/2, y+1/2'
'-y, -z+1/2, -x+1/2'
'y, -z+1/2, x+1/2'
'-y, z+1/2, x+1/2'
'y, z+1/2, -x+1/2'
'-y, -x+1/2, z+1/2'
'y, x+1/2, z+1/2'
'-y, x+1/2, -z+1/2'
'y, -x+1/2, -z+1/2'
'-x, -z+1/2, y+1/2'
'x, -z+1/2, -y+1/2'
'x, z+1/2, y+1/2'
'-x, z+1/2, -y+1/2'
'-z, -y+1/2, x+1/2'
'-z, y+1/2, -x+1/2'
'z, -y+1/2, -x+1/2'
'z, y+1/2, x+1/2'
'-x+1/2, -y, -z+1/2'
'x+1/2, y, -z+1/2'
'x+1/2, -y, z+1/2'
'-x+1/2, y, z+1/2'
'-z+1/2, -x, -y+1/2'
'-z+1/2, x, y+1/2'
'z+1/2, x, -y+1/2'
'z+1/2, -x, y+1/2'
'-y+1/2, -z, -x+1/2'
'y+1/2, -z, x+1/2'
'-y+1/2, z, x+1/2'
'y+1/2, z, -x+1/2'
'-y+1/2, -x, z+1/2'
'y+1/2, x, z+1/2'
'-y+1/2, x, -z+1/2'
'y+1/2, -x, -z+1/2'
'-x+1/2, -z, y+1/2'
'x+1/2, -z, -y+1/2'
'x+1/2, z, y+1/2'
'-x+1/2, z, -y+1/2'
'-z+1/2, -y, x+1/2'
'-z+1/2, y, -x+1/2'
'z+1/2, -y, -x+1/2'
'z+1/2, y, x+1/2'
'-x+1/2, -y+1/2, -z'
'x+1/2, y+1/2, -z'
'x+1/2, -y+1/2, z'
'-x+1/2, y+1/2, z'
'-z+1/2, -x+1/2, -y'
'-z+1/2, x+1/2, y'
'z+1/2, x+1/2, -y'
'z+1/2, -x+1/2, y'
'-y+1/2, -z+1/2, -x'
'y+1/2, -z+1/2, x'
'-y+1/2, z+1/2, x'
'y+1/2, z+1/2, -x'
'-y+1/2, -x+1/2, z'
'y+1/2, x+1/2, z'
'-y+1/2, x+1/2, -z'
'y+1/2, -x+1/2, -z'
'-x+1/2, -z+1/2, y'
'x+1/2, -z+1/2, -y'
'x+1/2, z+1/2, y'
'-x+1/2, z+1/2, -y'
'-z+1/2, -y+1/2, x'
'-z+1/2, y+1/2, -x'
'z+1/2, -y+1/2, -x'
'z+1/2, y+1/2, x'
loop_
_atom_site_label
_atom_site_type_symbol
_atom_site_fract_x
_atom_site_fract_y
_atom_site_fract_z
_atom_site_U_iso_or_equiv
_atom_site_adp_type
_atom_site_occupancy
_atom_site_site_symmetry_order
_atom_site_calc_flag
_atom_site_refinement_flags_posn
_atom_site_refinement_flags_adp
_atom_site_refinement_flags_occupancy
_atom_site_disorder_assembly
_atom_site_disorder_group
Zr01 Zr 0.40792(3) 0.5000 0.5000 0.0042(3) Uani 1 8 d S T P . .
O002 O 0.36834(12) 0.42749(13) 0.5000 0.0130(7) Uani 1 2 d S T P . .
C004 C 0.38278(17) 0.38278(17) 0.5000 0.0140(13) Uani 1 4 d S T P . .
C005 C 0.34323(18) 0.34323(18) 0.5000 0.0225(17) Uani 1 4 d S T P . .
O006 O 0.3723(6) 0.3723(6) 0.3723(6) 0.137(9) Uani 1 6 d S T P . .
C007 C 0.26963(17) 0.26963(17) 0.5000 0.0239(17) Uani 1 4 d S T P . .
C2 C 0.3179(3) 0.2587(3) 0.4858(3) 0.028(2) Uani 0.5 1 d . . . . .
O1 O 0.4480(3) 0.5520(3) 0.5520(3) 0.007(3) Uani 0.5 6 d S T P . .
O2 O 0.4611(3) 0.5389(3) 0.5389(3) 0.004(2) Uani 0.5 6 d S T P . .
C4 C 0.4084(6) 0.2746(6) 0.4646(10) 0.041(5) Uani 0.25 1 d . . . . .
C5 C 0.3550(3) 0.2947(3) 0.4858(3) 0.030(3) Uani 0.5 1 d . . . . .
loop_
_atom_site_aniso_label
_atom_site_aniso_U_11
_atom_site_aniso_U_22
_atom_site_aniso_U_33
_atom_site_aniso_U_23
_atom_site_aniso_U_13
_atom_site_aniso_U_12
Zr01 0.0015(4) 0.0055(4) 0.0055(4) 0.000 0.000 0.000
O002 0.0087(16) 0.0122(17) 0.0183(18) 0.000 0.000 -0.0049(13)
C004 0.012(2) 0.012(2) 0.018(3) 0.000 0.000 -0.007(2)
C005 0.016(2) 0.016(2) 0.035(4) 0.000 0.000 -0.013(3)
O006 0.137(9) 0.137(9) 0.137(9) 0.078(11) 0.078(11) 0.078(11)
C007 0.013(2) 0.013(2) 0.045(5) 0.000 0.000 -0.011(3)
C2 0.016(3) 0.013(3) 0.054(7) -0.003(3) 0.000(3) -0.005(3)
O1 0.007(3) 0.007(3) 0.007(3) -0.003(3) 0.003(3) 0.003(3)
O2 0.004(2) 0.004(2) 0.004(2) 0.000(3) 0.000(3) 0.000(3)
C4 0.017(8) 0.011(8) 0.097(18) -0.011(9) 0.015(9) -0.008(6)
C5 0.014(3) 0.022(4) 0.053(8) 0.008(3) -0.001(3) -0.008(3)
loop_
_atom_type_symbol
_atom_type_description
_atom_type_scat_dispersion_real
_atom_type_scat_dispersion_imag
_atom_type_scat_source
C C 0.0033 0.0016 'International Tables Vol C Tables 4.2.6.8 and 6.1.1.4'
O O 0.0106 0.0060 'International Tables Vol C Tables 4.2.6.8 and 6.1.1.4'
Zr Zr -2.9673 0.5597 'International Tables Vol C Tables 4.2.6.8 and 6.1.1.4'
loop_
_geom_angle_atom_site_label_1
_geom_angle_atom_site_label_2
_geom_angle_atom_site_label_3
_geom_angle
_geom_angle_site_symmetry_1
_geom_angle_site_symmetry_3
_geom_angle_publ_flag
O002 Zr01 O002 76.73(8) . 115 ?
O002 Zr01 O002 122.73(18) 115 17_556 ?
O002 Zr01 O002 76.73(8) . 17_556 ?
O002 Zr01 O002 122.74(18) . 99_565 ?
O002 Zr01 O002 76.73(8) 115 99_565 ?
O002 Zr01 O002 76.73(8) 99_565 17_556 ?
O002 Zr01 O1 71.6(3) 17_556 99_565 ?
O002 Zr01 O1 71.6(3) 17_556 . ?
O002 Zr01 O1 140.74(7) 115 . ?
O002 Zr01 O1 71.6(3) 115 98_556 ?
O002 Zr01 O1 140.74(7) 99_565 99_565 ?
O002 Zr01 O1 140.74(7) 17_556 98_556 ?
O002 Zr01 O1 140.74(7) . 98_556 ?
O002 Zr01 O1 71.6(3) . 4_566 ?
O002 Zr01 O1 71.6(3) 99_565 98_556 ?
O002 Zr01 O1 71.6(3) 115 4_566 ?
O002 Zr01 O1 140.74(7) . . ?
O002 Zr01 O1 140.74(7) 99_565 4_566 ?
O002 Zr01 O1 71.6(3) 99_565 . ?
O002 Zr01 O1 71.6(3) . 99_565 ?
O002 Zr01 O1 140.74(7) 115 99_565 ?
O002 Zr01 O1 140.74(7) 17_556 4_566 ?
O1 Zr01 O1 76.8(3) 98_556 . ?
O1 Zr01 O1 122.8(7) 99_565 98_556 ?
O1 Zr01 O1 76.7(3) 4_566 98_556 ?
O1 Zr01 O1 76.7(3) 4_566 99_565 ?
O1 Zr01 O1 122.8(7) 4_566 . ?
O1 Zr01 O1 76.8(3) 99_565 . ?
O2 Zr01 O002 141.20(8) . . ?
O2 Zr01 O002 83.5(3) . 17_556 ?
O2 Zr01 O002 141.20(8) 4_566 17_556 ?
O2 Zr01 O002 83.5(3) . 99_565 ?
O2 Zr01 O002 83.5(3) 98_556 115 ?
O2 Zr01 O002 141.20(8) 99_565 99_565 ?
O2 Zr01 O002 141.20(8) . 115 ?
O2 Zr01 O002 83.5(3) 98_556 99_565 ?
O2 Zr01 O002 83.5(3) 99_565 17_556 ?
O2 Zr01 O002 141.20(8) 4_566 99_565 ?
O2 Zr01 O002 141.20(8) 98_556 17_556 ?
O2 Zr01 O002 141.20(8) 99_565 115 ?
O2 Zr01 O002 83.5(3) 4_566 . ?
O2 Zr01 O002 83.5(3) 4_566 115 ?
O2 Zr01 O002 141.20(8) 98_556 . ?
O2 Zr01 O002 83.5(3) 99_565 . ?
O2 Zr01 O1 15.4(3) 99_565 99_565 ?
O2 Zr01 O1 70.6(4) 98_556 4_566 ?
O2 Zr01 O1 70.6(4) . 99_565 ?
O2 Zr01 O1 107.4(7) 98_556 99_565 ?
O2 Zr01 O1 70.6(4) 4_566 98_556 ?
O2 Zr01 O1 15.4(3) 4_566 4_566 ?
O2 Zr01 O1 107.4(7) 4_566 . ?
O2 Zr01 O1 70.6(3) 99_565 4_566 ?
O2 Zr01 O1 70.6(4) 4_566 99_565 ?
O2 Zr01 O1 15.4(3) . . ?
O2 Zr01 O1 107.4(7) . 4_566 ?
O2 Zr01 O1 70.6(4) 99_565 . ?
O2 Zr01 O1 70.6(4) 98_556 . ?
O2 Zr01 O1 70.6(4) . 98_556 ?
O2 Zr01 O1 15.4(3) 98_556 98_556 ?
O2 Zr01 O1 107.4(7) 99_565 98_556 ?
O2 Zr01 O2 61.2(5) 99_565 4_566 ?
O2 Zr01 O2 92.0(9) 99_565 98_556 ?
O2 Zr01 O2 92.0(9) . 4_566 ?
O2 Zr01 O2 61.2(5) 98_556 4_566 ?
O2 Zr01 O2 61.2(5) . 99_565 ?
O2 Zr01 O2 61.2(5) . 98_556 ?
C004 O002 Zr01 133.5(3) . . ?
O002 C004 O002 125.8(6) . 13_556 ?
O002 C004 C005 117.1(3) 13_556 . ?
O002 C004 C005 117.1(3) . . ?
C5 C005 C004 120.1(4) 13_556 . ?
C5 C005 C004 120.1(4) 98_556 . ?
C5 C005 C004 120.1(4) 110 . ?
C5 C005 C004 120.1(4) . . ?
C5 C005 C5 119.8(8) 110 98_556 ?
C5 C005 C5 31.7(7) . 98_556 ?
C5 C005 C5 119.8(8) . 13_556 ?
C5 C005 C5 110.4(8) 13_556 98_556 ?
C5 C005 C5 110.4(8) . 110 ?
C5 C005 C5 31.7(7) 110 13_556 ?
C2 C007 C007 120.8(4) . 169_556 ?
C2 C007 C007 120.8(4) 98_556 169_556 ?
C2 C007 C007 120.8(4) 13_556 169_556 ?
C2 C007 C007 120.8(4) 110 169_556 ?
C2 C007 C2 108.8(8) 110 . ?
C2 C007 C2 32.1(7) 98_556 . ?
C2 C007 C2 108.8(8) 13_556 98_556 ?
C2 C007 C2 32.1(7) 13_556 110 ?
C2 C007 C2 118.3(8) 98_556 110 ?
C2 C007 C2 118.3(8) 13_556 . ?
C007 C2 C5 121.6(7) . . ?
C007 C2 C5 109.0(6) . 98_556 ?
C2 C2 C007 73.9(4) 98_556 . ?
C2 C2 C5 89.9(5) 98_556 . ?
C2 C2 C5 61.2(4) 98_556 98_556 ?
C5 C2 C5 28.7(7) . 98_556 ?
Zr01 O1 Zr01 102.1(4) 105_666 . ?
Zr01 O1 Zr01 102.1(4) 105_666 101_666 ?
Zr01 O1 Zr01 102.1(4) 101_666 . ?
O2 O1 Zr01 63.9(3) . . ?
O2 O1 Zr01 63.9(3) . 101_666 ?
O2 O1 Zr01 63.9(3) . 105_666 ?
Zr01 O2 Zr01 116.6(3) 105_666 . ?
Zr01 O2 Zr01 116.6(3) 101_666 . ?
Zr01 O2 Zr01 116.6(3) 105_666 101_666 ?
O1 O2 Zr01 100.8(4) . . ?
O1 O2 Zr01 100.8(4) . 105_666 ?
O1 O2 Zr01 100.8(4) . 101_666 ?
C4 C4 C5 49.0(7) 98_556 98_556 ?
C5 C4 C4 69.6(10) . 98_556 ?
C5 C4 C5 20.6(6) . 98_556 ?
C005 C5 C2 107.3(6) . 98_556 ?
C005 C5 C4 127.1(8) . . ?
C005 C5 C4 103.3(8) . 98_556 ?
C2 C5 C005 119.3(7) . . ?
C2 C5 C2 28.9(7) . 98_556 ?
C2 C5 C4 121.1(9) 98_556 . ?
C2 C5 C4 108.8(7) . 98_556 ?
C2 C5 C4 88.0(7) 98_556 98_556 ?
C2 C5 C4 113.4(9) . . ?
C4 C5 C4 61.4(17) . 98_556 ?
C5 C5 C005 74.1(4) 98_556 . ?
C5 C5 C2 61.2(4) 98_556 98_556 ?
C5 C5 C2 90.1(5) 98_556 . ?
C5 C5 C4 49.0(8) 98_556 98_556 ?
C5 C5 C4 110.4(10) 98_556 . ?
loop_
_geom_bond_atom_site_label_1
_geom_bond_atom_site_label_2
_geom_bond_distance
_geom_bond_site_symmetry_2
_geom_bond_publ_flag
Zr01 O002 2.221(3) . ?
Zr01 O002 2.221(3) 99_565 ?
Zr01 O002 2.221(3) 115 ?
Zr01 O002 2.221(3) 17_556 ?
Zr01 O1 2.252(7) 99_565 ?
Zr01 O1 2.252(7) . ?
Zr01 O1 2.252(7) 98_556 ?
Zr01 O1 2.252(7) 4_566 ?
Zr01 O2 2.058(3) . ?
Zr01 O2 2.058(3) 98_556 ?
Zr01 O2 2.058(3) 4_566 ?
Zr01 O2 2.058(3) 99_565 ?
O002 C004 1.263(5) . ?
C004 O002 1.263(5) 13_556 ?
C004 C005 1.504(9) . ?
C005 C5 1.395(9) 13_556 ?
C005 C5 1.395(9) 110 ?
C005 C5 1.395(9) . ?
C005 C5 1.395(9) 98_556 ?
C007 C007 1.493(13) 169_556 ?
C007 C2 1.384(8) 98_556 ?
C007 C2 1.384(8) 13_556 ?
C007 C2 1.384(8) 110 ?
C007 C2 1.384(8) . ?
C2 C2 0.766(17) 98_556 ?
C2 C5 1.587(10) 98_556 ?
C2 C5 1.391(10) . ?
O1 Zr01 2.252(7) 101_666 ?
O1 Zr01 2.252(7) 105_666 ?
O1 O2 0.608(12) . ?
O2 Zr01 2.058(3) 101_666 ?
O2 Zr01 2.058(3) 105_666 ?
C4 C4 1.90(5) 98_556 ?
C4 C5 1.638(19) . ?
C4 C5 2.03(2) 98_556 ?
C5 C2 1.587(10) 98_556 ?
C5 C4 2.03(2) 98_556 ?
C5 C5 0.763(17) 98_556 ?
loop_
_refln_index_h
_refln_index_k
_refln_index_l
_refln_F_squared_meas
_refln_F_squared_sigma
_refln_scale_group_code
1 1 3 2174.44 13.2772 -2
1 1 3 2174.44 13.2772 1
1 1 3 1584.21 9.4449 1
1 3 3 215.627 0.95396 1
1 1 5 3596.2 23.9099 -2
3 3 3 3596.2 23.9099 1
3 3 3 4445.05 53.2774 -2
3 3 3 4445.05 53.2774 1
0 0 4 3238.56 25.4226 1
0 2 4 133.888 1.02682 1
0 2 4 181.431 1.16313 -2
0 2 4 181.431 1.16313 1
2 2 4 30.446 0.42296 1
2 2 4 42.9046 0.88612 -2
2 2 4 42.9046 0.88612 1
0 4 4 380.695 2.85417 -2
0 4 4 380.695 2.85417 1
0 4 4 279.124 2.4705 1
2 4 4 791.404 3.35136 1
0 0 6 3388.81 20.9608 -2
2 4 4 3388.81 20.9608 1
4 4 4 190.779 2.02529 1
4 4 4 248.531 4.20684 -2
4 4 4 248.531 4.20684 1
1 1 5 668.976 2.82709 1
3 3 3 2030.79 15.1702 -2
1 1 5 2030.79 15.1702 1
1 3 5 1239.14 4.43388 1
1 3 5 1681.5 5.68016 -2
1 3 5 1681.5 5.68016 1
3 3 5 1296.37 4.64225 1
2 4 4 1591.84 39.4571 -2
3 3 5 1591.84 39.4571 1
1 1 7 1935.75 13.6888 -2
1 5 5 1935.75 13.6888 1
1 5 5 773.99 3.51564 1
3 5 5 5047.27 24.2815 1
1 3 7 5443.31 27.0387 -2
3 5 5 5443.31 27.0387 1
4 4 6 5505.26 131.52 -2
3 5 5 5505.26 131.52 1
5 5 5 3957.93 26.1413 1
5 5 5 5196.03 61.7789 -2
5 5 5 5196.03 61.7789 1
2 4 4 6883.75 57.643 -2
0 0 6 6883.75 57.643 1
0 2 6 312.792 1.49268 1
2 2 6 555.098 3.36881 -2
2 2 6 555.098 3.36881 1
2 2 6 411.661 2.66141 1
1 5 5 3.49152 1.35358 -2
2 2 6 3.49152 1.35358 1
0 4 6 863.925 3.23209 1
1 3 7 1337.57 34.0319 -2
0 4 6 1337.57 34.0319 1
2 4 6 1379.29 5.10594 1
2 4 6 1852.15 6.96202 -2
2 4 6 1852.15 6.96202 1
0 2 8 491.05 2.8256 -2
4 4 6 491.05 2.8256 1
4 4 6 499.923 3.14082 1
3 5 5 2572.26 62.998 -2
4 4 6 2572.26 62.998 1
0 6 6 2520.47 17.0172 -2
0 6 6 2520.47 17.0172 1
2 2 8 2926.99 19.6765 -2
0 6 6 2926.99 19.6765 1
2 6 6 1672.87 5.72392 1
1 1 9 3812.83 91.5323 -2
2 6 6 3812.83 91.5323 1
3 3 7 2025.95 50.4018 -2
2 6 6 2025.95 50.4018 1
4 6 6 2779.12 9.90229 1
5 5 7 3578.25 60.7731 -2
4 6 6 3578.25 60.7731 1
2 2 10 6447.83 42.3903 -2
6 6 6 6447.83 42.3903 1
6 6 6 7579.11 127.649 -2
6 6 6 7579.11 127.649 1
1 1 7 2964.46 15.0236 1
1 5 5 3250.82 29.7437 -2
1 1 7 3250.82 29.7437 1
1 3 7 1844.74 9.72052 -2
1 3 7 1844.74 9.72052 1
1 3 7 1358.92 4.97498 1
3 5 5 3312.31 18.1078 -2
1 3 7 3312.31 18.1078 1
3 3 7 802.595 3.15654 1
2 6 6 361.094 9.89116 -2
3 3 7 361.094 9.89116 1
1 5 7 1850.47 5.50349 1
1 5 7 2514.43 12.788 -2
1 5 7 2514.43 12.788 1
0 2 8 2034.38 50.7556 -2
1 5 7 2034.38 50.7556 1
2 4 8 2090.86 52.0799 -2
1 5 7 2090.86 52.0799 1
1 1 9 2764.92 12.8999 -2
3 5 7 2764.92 12.8999 1
3 5 7 697.802 2.77262 1
3 5 7 950.734 5.15294 -2
3 5 7 950.734 5.15294 1
4 6 6 2989.38 51.7006 -2
5 5 7 2989.38 51.7006 1
5 5 7 1960.89 8.28759 1
3 3 9 1956.65 13.4326 -2
5 5 7 1956.65 13.4326 1
0 2 10 2376.39 41.3963 -2
5 5 7 2376.39 41.3963 1
3 3 9 48.1363 1.20435 -2
1 7 7 48.1363 1.20435 1
1 7 7 2.77262 0.43887 1
2 2 10 977.475 27.0778 -2
1 7 7 977.475 27.0778 1
1 5 9 2814.13 13.4417 -2
3 7 7 2814.13 13.4417 1
3 7 7 2823.02 13.6679 1
5 7 7 6106.32 24.8151 1
1 1 11 6382.3 42.0445 -2
5 7 7 6382.3 42.0445 1
6 6 8 8234.9 138.896 -2
5 7 7 8234.9 138.896 1
7 7 7 7514.71 49.2261 1
7 7 7 9999.99 117.878 -2
7 7 7 9999.99 117.878 1
2 2 12 7523 179.454 -2
7 7 7 7523 179.454 1
0 0 8 -0.072 0.87152 1
0 2 8 13.2383 0.50731 1
4 4 6 206.25 1.63543 -2
0 2 8 206.25 1.63543 1
1 5 7 690.718 17.967 -2
0 2 8 690.718 17.967 1
2 2 8 2838.59 11.5261 1
0 6 6 3483.36 24.2698 -2
2 2 8 3483.36 24.2698 1
0 4 8 1044.06 5.18321 -2
0 4 8 1044.06 5.18321 1
0 4 8 764.773 4.4634 1
3 5 7 1043.65 29.3731 -2
0 4 8 1043.65 29.3731 1
2 4 8 623.49 3.45259 -2
2 4 8 623.49 3.45259 1
2 4 8 453.319 1.57948 1
4 4 8 59.2556 0.79392 1
4 4 8 84.0923 1.50178 -2
4 4 8 84.0923 1.50178 1
3 7 7 1136.43 20.9305 -2
4 4 8 1136.43 20.9305 1
0 6 8 31.5696 0.48771 1
1 3 9 154.815 8.74116 -2
0 6 8 154.815 8.74116 1
2 6 8 450.234 2.62976 -2
2 6 8 450.234 2.62976 1
2 6 8 328.921 1.56608 1
0 2 10 747.617 4.07752 -2
2 6 8 747.617 4.07752 1
3 5 9 495.03 11.2838 -2
2 6 8 495.03 11.2838 1
4 6 8 2177.84 7.66568 1
4 6 8 2917.09 14.4724 -2
4 6 8 2917.09 14.4724 1
0 4 10 2113.94 10.2628 -2
4 6 8 2113.94 10.2628 1
1 1 11 2724.73 47.4492 -2
4 6 8 2724.73 47.4492 1
6 6 8 5805.42 20.5518 1
5 7 7 8183.75 96.911 -2
6 6 8 8183.75 96.911 1
1 3 11 6004.98 101.199 -2
6 6 8 6004.98 101.199 1
3 3 11 6119.12 144.805 -2
6 6 8 6119.12 144.805 1
0 8 8 2515.89 16.5147 -2
0 8 8 2515.89 16.5147 1
0 8 8 1835.39 13.7983 1
3 3 11 2021.79 51.092 -2
0 8 8 2021.79 51.092 1
2 8 8 16.6179 0.54197 1
4 4 10 37.2027 1.29391 -2
2 8 8 37.2027 1.29391 1
0 0 12 4682.57 32.3711 -2
4 8 8 4682.57 32.3711 1
4 8 8 2428.48 10.2558 1
1 5 11 2429.8 60.2444 -2
4 8 8 2429.8 60.2444 1
6 8 8 3724.17 20.6083 1
2 4 12 3654.5 18.11 -2
6 8 8 3654.5 18.11 1
7 7 9 4961.91 68.5095 -2
6 8 8 4961.91 68.5095 1
1 1 13 5119.35 122.841 -2
6 8 8 5119.35 122.841 1
8 8 8 3820.63 27.9841 1
8 8 8 5079.8 60.8245 -2
8 8 8 5079.8 60.8245 1
3 3 13 4176.63 71.6427 -2
8 8 8 4176.63 71.6427 1
1 1 9 5300.65 26.7492 1
3 5 7 5462.56 27.3409 -2
1 1 9 5462.56 27.3409 1
1 3 9 290.363 1.05491 1
4 6 6 1431.15 35.5305 -2
1 3 9 1431.15 35.5305 1
0 6 8 308.344 9.65093 -2
1 3 9 308.344 9.65093 1
5 5 7 864.994 6.97591 -2
3 3 9 864.994 6.97591 1
1 7 7 119.26 1.90813 -2
3 3 9 119.26 1.90813 1
3 3 9 163.758 1.4116 -2
3 3 9 163.758 1.4116 1
1 5 9 50.5048 0.62317 1
3 7 7 1172.18 6.21405 -2
1 5 9 1172.18 6.21405 1
1 5 9 69.8094 0.96179 -2
1 5 9 69.8094 0.96179 1
3 5 9 371.01 1.20709 1
2 6 8 488.557 10.9063 -2
3 5 9 488.557 10.9063 1
4 6 8 1243.6 31.9386 -2
3 5 9 1243.6 31.9386 1
1 3 11 727.792 3.98638 -2
5 5 9 727.792 3.98638 1
5 5 9 655.318 4.54362 1
4 8 8 1596.77 17.8624 -2
5 5 9 1596.77 17.8624 1
4 4 10 715.537 20.5301 -2
5 5 9 715.537 20.5301 1
1 7 9 447.164 2.02542 1
1 3 11 532.135 3.14569 -2
1 7 9 532.135 3.14569 1
2 8 8 455.983 12.6678 -2
1 7 9 455.983 12.6678 1
1 7 9 612.632 3.46465 -2
1 7 9 612.632 3.46465 1
2 4 10 455.524 11.2123 -2
1 7 9 455.524 11.2123 1
3 7 9 166.884 0.77661 1
4 6 10 243.855 8.29823 -2
3 7 9 243.855 8.29823 1
0 2 12 359.04 13.5614 -2
3 7 9 359.04 13.5614 1
5 7 9 3015.87 14.4833 -2
5 7 9 3015.87 14.4833 1
5 7 9 2237.11 8.11525 1
3 5 11 2225.55 11.8399 -2
5 7 9 2225.55 11.8399 1
0 2 12 2474.21 61.5786 -2
5 7 9 2474.21 61.5786 1
7 7 9 3016.82 16.9662 1
1 3 13 2942.32 14.1917 -2
7 7 9 2942.32 14.1917 1
6 8 8 4413.5 75.0772 -2
7 7 9 4413.5 75.0772 1
4 4 12 3015.54 73.6902 -2
7 7 9 3015.54 73.6902 1
1 9 9 5005.71 17.8632 1
5 5 11 1615.02 13.07 -2
3 9 9 1615.02 13.07 1
1 1 13 3026.73 21.3165 -2
3 9 9 3026.73 21.3165 1
1 7 11 2193.91 11.2363 -2
3 9 9 2193.91 11.2363 1
5 9 9 1.53914 0.50968 1
0 0 14 2807.2 70.3801 -2
5 9 9 2807.2 70.3801 1
6 6 10 588.509 13.7087 -2
5 9 9 588.509 13.7087 1
7 9 9 91.0714 1.2017 1
2 2 14 284.586 12.4479 -2
7 9 9 284.586 12.4479 1
8 8 10 235.601 4.67554 -2
7 9 9 235.601 4.67554 1
2 4 14 664.91 14.6813 -2
7 9 9 664.91 14.6813 1
9 9 9 2095.07 30.3492 -2
9 9 9 2095.07 30.3492 1
3 3 15 1629.94 12.9159 -2
9 9 9 1629.94 12.9159 1
0 0 10 6317.43 43.0655 1
0 2 10 1114.8 6.32725 1
2 6 8 1227.24 6.19828 -2
0 2 10 1227.24 6.19828 1
5 5 7 1867.11 45.2317 -2
0 2 10 1867.11 45.2317 1
6 6 6 4640.3 33.8282 -2
2 2 10 4640.3 33.8282 1
2 2 10 2470.45 10.184 1
3 5 9 2620.04 66.8661 -2
2 2 10 2620.04 66.8661 1
0 4 10 10.0536 0.48716 1
4 6 8 848.578 5.05427 -2
0 4 10 848.578 5.05427 1
2 4 10 57.4582 0.91252 -2
2 4 10 57.4582 0.91252 1
2 4 10 35.1311 0.46056 1
4 4 10 55.9018 0.79957 1
2 8 8 62.7095 1.38287 -2
4 4 10 62.7095 1.38287 1
5 5 9 312.856 11.6858 -2
4 4 10 312.856 11.6858 1
1 5 11 6.96654 7.59772 -2
0 6 10 6.96654 7.59772 1
0 6 10 3.43089 0.38906 1
3 7 9 67.6268 6.88265 -2
0 6 10 67.6268 6.88265 1
2 6 10 148.739 1.02577 -2
2 6 10 148.739 1.02577 1
2 6 10 107.241 1.02607 1
3 7 9 185.58 9.69132 -2
2 6 10 185.58 9.69132 1
4 6 10 132.517 1.00991 1
4 6 10 180.563 1.65225 -2
4 6 10 180.563 1.65225 1
3 7 9 198.375 7.08318 -2
4 6 10 198.375 7.08318 1
2 2 12 133.71 1.44708 -2
4 6 10 133.71 1.44708 1
6 6 10 1533.63 6.10096 1
5 9 9 1574.75 16.5717 -2
6 6 10 1574.75 16.5717 1
1 3 13 1480.94 39.4345 -2
6 6 10 1480.94 39.4345 1
0 8 10 4119.66 19.4715 1
2 4 12 4091.16 19.7671 -2
0 8 10 4091.16 19.7671 1
1 9 9 6124.9 145.173 -2
0 8 10 6124.9 145.173 1
2 8 10 4838.65 14.3607 1
2 8 10 6463.78 30.2318 -2
2 8 10 6463.78 30.2318 1
3 5 11 4735.66 115.277 -2
2 8 10 4735.66 115.277 1
1 3 13 4883.92 83.0241 -2
2 8 10 4883.92 83.0241 1
4 8 10 545.569 2.06412 1
0 6 12 878.735 5.13225 -2
4 8 10 878.735 5.13225 1
3 7 11 1177.34 22.645 -2
4 8 10 1177.34 22.645 1
5 7 11 562.985 10.6678 -2
4 8 10 562.985 10.6678 1
6 8 10 58.7983 1.32117 -2
6 8 10 58.7983 1.32117 1
6 8 10 42.5757 0.7492 1
0 2 14 545.684 3.684 -2
6 8 10 545.684 3.684 1
3 5 13 378.439 9.82883 -2
6 8 10 378.439 9.82883 1
1 5 13 123.152 11.17 -2
6 8 10 123.152 11.17 1
4 4 14 1065.85 8.81505 -2
8 8 10 1065.85 8.81505 1
8 8 10 383.571 2.68877 1
1 3 15 443.769 9.8754 -2
8 8 10 443.769 9.8754 1
7 9 9 408.295 9.3165 -2
8 8 10 408.295 9.3165 1
3 3 13 3030.51 53.4559 -2
0 10 10 3030.51 53.4559 1
0 10 10 2906.67 24.9443 1
0 10 10 3844.64 29.7509 -2
0 10 10 3844.64 29.7509 1
2 10 10 4057.25 18.5884 1
2 2 14 4111.87 27.5784 -2
2 10 10 4111.87 27.5784 1
5 5 13 4201.78 102.044 -2
2 10 10 4201.78 102.044 1
4 10 10 299.278 2.0986 1
6 6 12 297.571 3.27228 -2
4 10 10 297.571 3.27228 1
1 7 13 486.578 15.1439 -2
4 10 10 486.578 15.1439 1
1 1 15 1361.76 37.1815 -2
4 10 10 1361.76 37.1815 1
2 6 14 147.948 1.86569 -2
6 10 10 147.948 1.86569 1
6 10 10 92.8643 2.01536 1
7 7 11 94.6725 4.59588 -2
6 10 10 94.6725 4.59588 1
2 2 16 2192.09 17.7612 -2
8 10 10 2192.09 17.7612 1
9 9 11 2756.48 24.342 -2
8 10 10 2756.48 24.342 1
8 10 10 2204.58 12.8361 1
3 5 15 3318.71 57.6066 -2
8 10 10 3318.71 57.6066 1
10 10 10 1908.71 18.7734 1
10 10 10 2683.34 38.4739 -2
10 10 10 2683.34 38.4739 1
3 3 17 2056.77 54.3001 -2
10 10 10 2056.77 54.3001 1
1 1 11 1399.52 6.00843 1
5 7 7 3737.26 27.4336 -2
1 1 11 3737.26 27.4336 1
1 3 11 235.805 1.31565 1
1 7 9 404.17 2.63006 -2
1 3 11 404.17 2.63006 1
5 5 9 488.016 3.08729 -2
1 3 11 488.016 3.08729 1
6 6 8 2614.2 62.7324 -2
1 3 11 2614.2 62.7324 1
2 6 10 284.932 8.82004 -2
1 3 11 284.932 8.82004 1
3 3 11 479.732 2.27868 1
4 4 10 495.181 13.6979 -2
3 3 11 495.181 13.6979 1
1 5 11 3.59198 0.3705 1
1 5 11 4.6419 0.62937 -2
1 5 11 4.6419 0.62937 1
5 7 9 888.456 5.10724 -2
3 5 11 888.456 5.10724 1
3 5 11 20.2685 0.50345 1
3 5 11 26.32 0.8836 -2
3 5 11 26.32 0.8836 1
2 8 10 1894.34 24.0917 -2
3 5 11 1894.34 24.0917 1
5 5 11 159.688 1.33679 1
3 9 9 750.51 5.62421 -2
5 5 11 750.51 5.62421 1
1 7 11 1721.62 5.14145 1
3 9 9 2282.88 11.6418 -2
1 7 11 2282.88 11.6418 1
2 6 12 1707.38 31.7811 -2
1 7 11 1707.38 31.7811 1
2 8 10 3586.31 86.3175 -2
1 7 11 3586.31 86.3175 1
3 7 11 1588.48 5.89931 1
1 3 13 1572.18 8.61377 -2
3 7 11 1572.18 8.61377 1
3 7 11 2172.44 11.2968 -2
3 7 11 2172.44 11.2968 1
4 8 10 1857.88 46.9246 -2
3 7 11 1857.88 46.9246 1
1 5 13 93.3342 1.45275 -2
5 7 11 93.3342 1.45275 1
5 7 11 6.05684 0.42095 1
4 8 10 216.832 4.66499 -2
5 7 11 216.832 4.66499 1
4 6 12 -3.3958 8.64217 -2
5 7 11 -3.3958 8.64217 1
7 7 11 8.32247 0.74344 1
6 10 10 46.5959 4.94103 -2
7 7 11 46.5959 4.94103 1
5 5 13 36.372 1.54278 -2
7 7 11 36.372 1.54278 1
1 9 11 4952.9 25.9895 -2
1 9 11 4952.9 25.9895 1
1 9 11 3656.24 13.8495 1
3 5 13 3921.16 20.2517 -2
1 9 11 3921.16 20.2517 1
2 4 14 4182.26 59.0007 -2
1 9 11 4182.26 59.0007 1
2 10 10 5312.21 126.79 -2
1 9 11 5312.21 126.79 1
3 9 11 2361.01 6.68334 1
4 6 12 2388.04 42.9613 -2
3 9 11 2388.04 42.9613 1
0 2 14 2805.57 70.3989 -2
3 9 11 2805.57 70.3989 1
0 8 12 3363.72 81.5635 -2
3 9 11 3363.72 81.5635 1
5 9 11 258.579 1.87638 1
3 7 13 332.131 2.67215 -2
5 9 11 332.131 2.67215 1
1 1 15 1332.69 7.52843 -2
5 9 11 1332.69 7.52843 1
6 8 12 270.914 7.63948 -2
5 9 11 270.914 7.63948 1
0 6 14 293.696 9.38475 -2
5 9 11 293.696 9.38475 1
7 9 11 503.76 2.85609 1
1 5 15 970.805 6.10524 -2
7 9 11 970.805 6.10524 1
7 9 11 698.409 4.73736 -2
7 9 11 698.409 4.73736 1
4 6 14 1516.09 28.3144 -2
7 9 11 1516.09 28.3144 1
0 2 16 575.815 10.2191 -2
7 9 11 575.815 10.2191 1
9 9 11 1353.84 7.1682 1
8 10 10 2238.42 21.6606 -2
9 9 11 2238.42 21.6606 1
2 4 16 1870.93 50.1096 -2
9 9 11 1870.93 50.1096 1
4 4 16 2067.83 52.3429 -2
9 9 11 2067.83 52.3429 1
1 11 11 3410.14 16.6781 1
0 10 12 4715.59 113.835 -2
1 11 11 4715.59 113.835 1
3 3 15 3517.67 27.0789 -2
1 11 11 3517.67 27.0789 1
4 4 14 4113.17 71.6143 -2
1 11 11 4113.17 71.6143 1
3 11 11 1885.92 12.2693 1
2 2 16 1849.79 34.8268 -2
3 11 11 1849.79 34.8268 1
1 9 13 2659.04 15.6506 -2
3 11 11 2659.04 15.6506 1
6 6 14 2511.69 45.5478 -2
3 11 11 2511.69 45.5478 1
5 11 11 163.589 1.81399 1
7 7 13 493.475 5.74438 -2
5 11 11 493.475 5.74438 1
2 8 14 167.656 13.6961 -2
5 11 11 167.656 13.6961 1
0 0 16 1903.35 49.5381 -2
5 11 11 1903.35 49.5381 1
1 1 17 2689.85 23.9694 -2
7 11 11 2689.85 23.9694 1
7 11 11 2399.1 13.2337 1
8 8 12 2387.36 22.9358 -2
7 11 11 2387.36 22.9358 1
3 5 17 2644.22 16.7479 -2
9 11 11 2644.22 16.7479 1
2 2 18 2070.89 38.5804 -2
9 11 11 2070.89 38.5804 1
9 11 11 1979.81 19.3591 1
10 10 12 2674.78 25.5968 -2
9 11 11 2674.78 25.5968 1
11 11 11 2487.47 25.9823 1
4 4 18 2865.82 51.5039 -2
11 11 11 2865.82 51.5039 1
11 11 11 3406.85 85.7911 -2
11 11 11 3406.85 85.7911 1
4 8 8 6876.98 58.2526 -2
0 0 12 6876.98 58.2526 1
5 7 9 1366.49 33.723 -2
0 2 12 1366.49 33.723 1
0 2 12 458.409 2.28408 1
2 2 12 9.51743 0.80397 1
4 6 10 60.4771 0.95056 -2
2 2 12 60.4771 0.95056 1
0 4 12 481.842 2.38294 1
2 4 12 24.2385 0.55638 1
3 5 11 33.6076 4.49157 -2
2 4 12 33.6076 4.49157 1
0 8 10 1628.29 10.2235 -2
2 4 12 1628.29 10.2235 1
6 8 8 1468.33 8.57293 -2
2 4 12 1468.33 8.57293 1
4 4 12 8.63134 0.77605 1
4 4 12 11.9064 0.7808 -2
4 4 12 11.9064 0.7808 1
7 7 9 717.946 18.4891 -2
4 4 12 717.946 18.4891 1
0 6 12 1238.18 6.56898 -2
0 6 12 1238.18 6.56898 1
4 8 10 1099.65 6.35228 -2
0 6 12 1099.65 6.35228 1
2 6 12 126.609 0.75156 1
3 7 11 770.196 21.6533 -2
2 6 12 770.196 21.6533 1
1 7 11 788.144 21.5195 -2
2 6 12 788.144 21.5195 1
5 9 9 143.615 9.36159 -2
2 6 12 143.615 9.36159 1
1 5 13 247.887 13.8535 -2
2 6 12 247.887 13.8535 1
4 6 12 5.67421 0.36722 1
3 9 11 896.765 13.5532 -2
4 6 12 896.765 13.5532 1
5 7 11 -2.2574 8.26613 -2
4 6 12 -2.2574 8.26613 1
2 4 14 599.882 3.66384 -2
6 6 12 599.882 3.66384 1
4 10 10 138.549 2.23731 -2
6 6 12 138.549 2.23731 1
6 6 12 38.1879 1.68001 -2
6 6 12 38.1879 1.68001 1
0 8 12 2592.38 10.3984 1
1 5 13 2663.39 47.7757 -2
0 8 12 2663.39 47.7757 1
0 4 14 1043.03 6.23406 -2
2 8 12 1043.03 6.23406 1
2 8 12 889.866 3.98804 1
2 8 12 1216.29 7.60368 -2
2 8 12 1216.29 7.60368 1
3 7 13 920.372 19.7587 -2
2 8 12 920.372 19.7587 1
3 9 11 1859.34 47.334 -2
2 8 12 1859.34 47.334 1
4 8 12 857.893 3.85815 -2
4 8 12 857.893 3.85815 1
4 8 12 634.624 3.271 1
1 7 13 837.105 23.9461 -2
4 8 12 837.105 23.9461 1
1 3 15 688.565 22.0302 -2
4 8 12 688.565 22.0302 1
6 8 12 11.5622 0.51745 1
5 9 11 110.944 3.32174 -2
6 8 12 110.944 3.32174 1
1 5 15 476.393 19.3882 -2
6 8 12 476.393 19.3882 1
5 7 13 165.884 12.0307 -2
6 8 12 165.884 12.0307 1
0 4 16 360.668 2.92925 -2
8 8 12 360.668 2.92925 1
7 11 11 917.944 14.2332 -2
8 8 12 917.944 14.2332 1
8 8 12 9.24753 1.27116 1
5 5 15 1959.22 49.2212 -2
8 8 12 1959.22 49.2212 1
0 10 12 3328.97 13.376 1
3 5 15 4348.53 61.5138 -2
0 10 12 4348.53 61.5138 1
1 11 11 4680.5 112.382 -2
0 10 12 4680.5 112.382 1
2 10 12 2498.93 10.5438 1
2 10 12 3362.8 19.4856 -2
2 10 12 3362.8 19.4856 1
4 6 14 3417.58 20.2962 -2
2 10 12 3417.58 20.2962 1
1 3 15 2477.92 63.5412 -2
2 10 12 2477.92 63.5412 1
1 9 13 3224.25 56.0624 -2
2 10 12 3224.25 56.0624 1
5 7 13 709.069 10.3322 -2
4 10 12 709.069 10.3322 1
0 2 16 597.927 4.2149 -2
4 10 12 597.927 4.2149 1
4 10 12 551.178 3.42998 1
0 8 14 905.473 6.46872 -2
4 10 12 905.473 6.46872 1
3 9 13 696.018 22.6937 -2
4 10 12 696.018 22.6937 1
6 10 12 464.348 2.1943 1
7 9 13 520.821 5.86292 -2
6 10 12 520.821 5.86292 1
1 1 17 870.867 13.7969 -2
6 10 12 870.867 13.7969 1
1 7 15 500.189 17.1216 -2
6 10 12 500.189 17.1216 1
3 7 15 872.625 27.4144 -2
6 10 12 872.625 27.4144 1
8 10 12 1103.08 5.66387 1
8 10 12 1514.79 8.71592 -2
8 10 12 1514.79 8.71592 1
4 6 16 2621.8 16.6066 -2
8 10 12 2621.8 16.6066 1
1 3 17 1166.41 23.5442 -2
8 10 12 1166.41 23.5442 1
1 5 17 1629.46 45.1575 -2
8 10 12 1629.46 45.1575 1
9 11 11 2266.39 24.1755 -2
10 10 12 2266.39 24.1755 1
2 4 18 1675.61 11.6008 -2
10 10 12 1675.61 11.6008 1
10 10 12 1508.71 15.6407 1
5 5 17 2647.66 68.4215 -2
10 10 12 2647.66 68.4215 1
4 4 16 4713.84 35.9388 -2
0 12 12 4713.84 35.9388 1
0 12 12 5504.81 47.2062 -2
0 12 12 5504.81 47.2062 1
2 12 12 1818.12 8.38515 1
3 3 17 1996.97 37.6706 -2
2 12 12 1996.97 37.6706 1
1 11 13 2704.37 68.3364 -2
2 12 12 2704.37 68.3364 1
5 5 15 3764.67 66.2703 -2
2 12 12 3764.67 66.2703 1
1 1 17 718.228 24.0739 -2
4 12 12 718.228 24.0739 1
7 7 15 1069.31 15.7232 -2
4 12 12 1069.31 15.7232 1
4 12 12 336.84 2.6815 1
1 9 15 517.981 12.9864 -2
4 12 12 517.981 12.9864 1
0 0 18 1662.46 16.7193 -2
6 12 12 1662.46 16.7193 1
8 8 14 1085.13 10.6793 -2
6 12 12 1085.13 10.6793 1
2 8 16 942.46 6.63055 -2
6 12 12 942.46 6.63055 1
8 12 12 1352.39 7.74272 1
1 1 19 1803.21 34.6912 -2
8 12 12 1803.21 34.6912 1
9 9 13 1516.3 17.1631 -2
8 12 12 1516.3 17.1631 1
3 5 19 1368.2 19.5635 -2
10 12 12 1368.2 19.5635 1
10 12 12 1223.02 8.23119 1
11 11 13 1532.09 19.4825 -2
10 12 12 1532.09 19.4825 1
3 3 19 1260.54 36.4501 -2
10 12 12 1260.54 36.4501 1
12 12 12 1354.55 18.9452 -2
12 12 12 1354.55 18.9452 1
4 4 20 946.197 10.9564 -2
12 12 12 946.197 10.9564 1
1 1 13 3750.01 15.5999 1
3 9 9 4265.16 34.5292 -2
1 1 13 4265.16 34.5292 1
1 3 13 4.11615 0.51674 1
7 7 9 1156.38 8.11959 -2
1 3 13 1156.38 8.11959 1
3 7 11 610.456 3.55593 -2
1 3 13 610.456 3.55593 1
3 3 13 940.357 4.22561 1
4 6 12 957.447 24.5476 -2
3 3 13 957.447 24.5476 1
1 5 13 219.132 1.25648 1
6 8 10 260.662 10.7112 -2
1 5 13 260.662 10.7112 1
5 7 11 222.725 2.45235 -2
1 5 13 222.725 2.45235 1
0 8 12 1214.88 31.2706 -2
1 5 13 1214.88 31.2706 1
2 6 12 268.64 8.15392 -2
1 5 13 268.64 8.15392 1
1 9 11 2210.93 13.9161 -2
3 5 13 2210.93 13.9161 1
3 5 13 1124.96 6.72108 -2
3 5 13 1124.96 6.72108 1
3 5 13 833.319 4.04146 1
6 8 10 869.217 24.1647 -2
3 5 13 869.217 24.1647 1
4 6 12 863.299 23.029 -2
3 5 13 863.299 23.029 1
5 5 13 73.5368 1.20286 1
7 7 11 72.4027 1.98864 -2
5 5 13 72.4027 1.98864 1
2 10 10 1699.38 43.5681 -2
5 5 13 1699.38 43.5681 1
4 4 14 752.431 20.6747 -2
5 5 13 752.431 20.6747 1
1 7 13 653.675 4.41954 -2
1 7 13 653.675 4.41954 1
1 7 13 475.106 2.17764 1
4 8 12 748.337 21.5 -2
1 7 13 748.337 21.5 1
0 6 14 500.224 10.8077 -2
1 7 13 500.224 10.8077 1
5 9 11 299.613 3.05967 -2
3 7 13 299.613 3.05967 1
3 7 13 202.517 1.52592 1
3 7 13 282.099 2.51 -2
3 7 13 282.099 2.51 1
2 8 12 526.814 10.5606 -2
3 7 13 526.814 10.5606 1
5 7 13 387.448 2.07495 1
3 3 15 515.274 3.59654 -2
5 7 13 515.274 3.59654 1
4 10 12 588.759 7.65326 -2
5 7 13 588.759 7.65326 1
2 6 14 454.2 11.3687 -2
5 7 13 454.2 11.3687 1
7 7 13 858.039 4.95275 1
5 11 11 900.516 7.40243 -2
7 7 13 900.516 7.40243 1
2 4 16 1433.35 40.2082 -2
7 7 13 1433.35 40.2082 1
6 6 14 1492.18 37.7938 -2
7 7 13 1492.18 37.7938 1
1 5 15 2567.61 14.3637 -2
1 9 13 2567.61 14.3637 1
1 9 13 2146.27 9.25653 1
3 11 11 2799.79 16.0131 -2
1 9 13 2799.79 16.0131 1
2 6 14 2210.58 33.2537 -2
1 9 13 2210.58 33.2537 1
2 10 12 3182.56 77.8906 -2
1 9 13 3182.56 77.8906 1
3 9 13 318.903 1.54448 1
0 4 16 657.376 11.4098 -2
3 9 13 657.376 11.4098 1
4 8 14 596.169 9.20576 -2
3 9 13 596.169 9.20576 1
2 8 14 367.665 11.2772 -2
3 9 13 367.665 11.2772 1
5 9 13 65.4892 1.43116 -2
5 9 13 65.4892 1.43116 1
5 9 13 52.5366 1.02372 1
1 7 15 89.0218 1.7569 -2
5 9 13 89.0218 1.7569 1
2 2 16 95.5425 7.99601 -2
5 9 13 95.5425 7.99601 1
4 8 14 316.265 15.7691 -2
5 9 13 316.265 15.7691 1
7 9 13 105.274 1.83915 1
6 10 12 286.384 4.84382 -2
7 9 13 286.384 4.84382 1
5 7 15 1513.36 10.1024 -2
7 9 13 1513.36 10.1024 1
1 3 17 157.588 2.23187 -2
7 9 13 157.588 2.23187 1
8 12 12 901.743 9.74872 -2
9 9 13 901.743 9.74872 1
9 9 13 367.428 3.05923 1
0 4 18 566.126 12.8004 -2
9 9 13 566.126 12.8004 1
1 11 13 2270.98 8.36497 1
2 4 16 2840.05 51.3866 -2
1 11 13 2840.05 51.3866 1
1 11 13 3048.3 17.882 -2
1 11 13 3048.3 17.882 1
4 6 16 3820.65 47.5974 -2
1 11 13 3820.65 47.5974 1
2 12 12 3004.77 74.6706 -2
1 11 13 3004.77 74.6706 1
2 10 14 704.977 23.6979 -2
3 11 13 704.977 23.6979 1
5 7 15 1740.61 11.2469 -2
3 11 13 1740.61 11.2469 1
3 11 13 373.296 2.61232 1
0 10 14 989.036 29.1508 -2
3 11 13 989.036 29.1508 1
1 3 17 417.524 3.29954 -2
3 11 13 417.524 3.29954 1
3 9 15 107.635 2.12833 -2
5 11 13 107.635 2.12833 1
5 11 13 78.9231 1.24074 1
6 8 14 454.572 6.25993 -2
5 11 13 454.572 6.25993 1
0 2 18 178.909 8.43925 -2
5 11 13 178.909 8.43925 1
0 8 16 186.338 15.5117 -2
5 11 13 186.338 15.5117 1
1 7 17 470.97 4.38196 -2
7 11 13 470.97 4.38196 1
7 11 13 402.922 2.71148 1
0 2 18 503.127 13.9772 -2
7 11 13 503.127 13.9772 1
8 10 14 441.025 5.48644 -2
7 11 13 441.025 5.48644 1
4 8 16 1036.66 31.8217 -2
7 11 13 1036.66 31.8217 1
1 3 19 763.469 6.64836 -2
9 11 13 763.469 6.64836 1
9 11 13 767.96 4.41671 1
9 11 13 1063.44 7.34597 -2
9 11 13 1063.44 7.34597 1
4 6 18 1384.56 40.4665 -2
9 11 13 1384.56 40.4665 1
10 12 12 1189.35 11.6887 -2
11 11 13 1189.35 11.6887 1
11 11 13 715.042 7.72031 1
2 4 20 723.398 12.9773 -2
11 11 13 723.398 12.9773 1
5 5 19 969.493 10.412 -2
11 11 13 969.493 10.412 1
5 5 17 3436.77 28.1053 -2
1 13 13 3436.77 28.1053 1
1 13 13 2317.37 12.8223 1
4 4 18 2692.43 49.555 -2
1 13 13 2692.43 49.555 1
0 12 14 2986.23 52.415 -2
1 13 13 2986.23 52.415 1
1 11 15 200.566 2.66358 -2
3 13 13 200.566 2.66358 1
3 13 13 -0.0291 1.1107 1
2 2 18 44.7184 12.4761 -2
3 13 13 44.7184 12.4761 1
6 6 16 2146.19 40.3303 -2
3 13 13 2146.19 40.3303 1
1 1 19 507.565 6.84593 -2
5 13 13 507.565 6.84593 1
5 13 13 73.8014 1.79258 1
8 8 16 235.585 6.64074 -2
5 13 13 235.585 6.64074 1
2 10 16 116.264 14.8681 -2
5 13 13 116.264 14.8681 1
9 9 15 156.928 3.3813 -2
7 13 13 156.928 3.3813 1
7 13 13 135.69 2.27566 1
0 0 20 1121.54 24.694 -2
7 13 13 1121.54 24.694 1
2 8 18 161.105 15.0736 -2
7 13 13 161.105 15.0736 1
3 7 19 379.959 3.86729 -2
9 13 13 379.959 3.86729 1
9 13 13 380.483 6.50035 1
10 10 14 585.934 9.04592 -2
9 13 13 585.934 9.04592 1
2 2 20 639.347 23.8394 -2
9 13 13 639.347 23.8394 1
4 6 20 230.414 10.5966 -2
11 13 13 230.414 10.5966 1
11 13 13 211.553 4.05945 1
12 12 14 269.747 6.42328 -2
11 13 13 269.747 6.42328 1
3 3 21 319.837 6.34283 -2
11 13 13 319.837 6.34283 1
13 13 13 569.322 12.3064 -2
13 13 13 569.322 12.3064 1
13 13 13 442.173 8.52956 1
4 4 22 815.888 20.6121 -2
13 13 13 815.888 20.6121 1
0 0 14 7275.45 54.6471 1
0 2 14 1275.19 8.3046 1
6 8 10 1278.01 8.3866 -2
0 2 14 1278.01 8.3866 1
2 2 14 460.095 3.16532 1
2 10 10 2015.06 19.3149 -2
2 2 14 2015.06 19.3149 1
2 8 12 743.16 5.32428 -2
0 4 14 743.16 5.32428 1
0 4 14 415.818 3.65788 1
2 4 14 1469.55 5.63833 1
3 7 13 1557.57 27.1474 -2
2 4 14 1557.57 27.1474 1
6 6 12 1454.49 10.62 -2
2 4 14 1454.49 10.62 1
7 9 9 1539.09 38.8906 -2
2 4 14 1539.09 38.8906 1
8 8 10 1884.46 17.0767 -2
4 4 14 1884.46 17.0767 1
4 4 14 1781.55 9.07381 1
0 6 14 83.8131 1.23745 1
5 9 11 161.682 9.87226 -2
0 6 14 161.682 9.87226 1
2 6 14 141.838 1.58275 1
2 6 14 199.655 2.20252 -2
2 6 14 199.655 2.20252 1
6 10 10 175.954 2.29496 -2
2 6 14 175.954 2.29496 1
5 7 13 316.782 12.0993 -2
2 6 14 316.782 12.0993 1
1 9 13 975.652 19.6211 -2
2 6 14 975.652 19.6211 1
4 6 14 3558.42 21.095 -2
4 6 14 3558.42 21.095 1
2 10 12 3511.44 20.3666 -2
4 6 14 3511.44 20.3666 1
4 6 14 2616.16 10.7911 1
6 6 14 1531.67 7.1288 1
7 7 13 1891.82 46.6011 -2
6 6 14 1891.82 46.6011 1
3 5 15 2651.34 64.6791 -2
6 6 14 2651.34 64.6791 1
3 11 11 2075.7 36.5267 -2
6 6 14 2075.7 36.5267 1
1 7 15 1023.2 17.7289 -2
0 8 14 1023.2 17.7289 1
4 10 12 1182.04 7.34571 -2
0 8 14 1182.04 7.34571 1
0 8 14 990.455 6.99319 1
2 8 14 63.949 0.85851 1
2 8 14 93.14 1.62113 -2
2 8 14 93.14 1.62113 1
5 11 11 141.999 10.7512 -2
2 8 14 141.999 10.7512 1
1 5 15 525.012 13.7807 -2
2 8 14 525.012 13.7807 1
3 9 13 196.217 11.5008 -2
2 8 14 196.217 11.5008 1
2 4 16 1279.67 8.10636 -2
4 8 14 1279.67 8.10636 1
4 8 14 728.783 3.27765 1
3 9 13 842.881 11.8671 -2
4 8 14 842.881 11.8671 1
3 7 15 1139.92 22.9103 -2
4 8 14 1139.92 22.9103 1
5 9 13 728.333 22.8394 -2
4 8 14 728.333 22.8394 1
6 8 14 1368.7 9.57133 -2
6 8 14 1368.7 9.57133 1
6 8 14 993.796 5.68436 1
5 11 13 1046.57 8.87655 -2
6 8 14 1046.57 8.87655 1
3 3 17 1190.17 25.2127 -2
6 8 14 1190.17 25.2127 1
2 6 16 1484.05 9.31599 -2
6 8 14 1484.05 9.31599 1
8 8 14 360.138 2.80239 1
6 12 12 715.846 7.34977 -2
8 8 14 715.846 7.34977 1
1 5 17 886.093 29.3075 -2
8 8 14 886.093 29.3075 1
0 10 14 1503.22 9.98544 1
2 6 16 2023.84 11.8555 -2
0 10 14 2023.84 11.8555 1
3 11 13 1732.03 42.6621 -2
0 10 14 1732.03 42.6621 1
2 10 14 852.415 3.61347 1
2 10 14 1158.76 7.52289 -2
2 10 14 1158.76 7.52289 1
1 5 17 1390.19 19.8383 -2
2 10 14 1390.19 19.8383 1
3 7 15 1231.66 20.7978 -2
2 10 14 1231.66 20.7978 1
3 11 13 1013.84 29.3986 -2
2 10 14 1013.84 29.3986 1
4 10 14 31.8411 0.81782 1
4 10 14 46.5441 1.63084 -2
4 10 14 46.5441 1.63084 1
5 9 15 589.31 9.00777 -2
4 10 14 589.31 9.00777 1
1 3 17 83.3283 8.50254 -2
4 10 14 83.3283 8.50254 1
1 9 15 254.148 12.4665 -2
4 10 14 254.148 12.4665 1
6 10 14 106.951 1.55901 1
2 2 18 142.42 2.35509 -2
6 10 14 142.42 2.35509 1
6 10 14 145.561 2.29012 -2
6 10 14 145.561 2.29012 1
1 7 17 209.527 16.7248 -2
6 10 14 209.527 16.7248 1
7 11 13 224.895 4.05148 -2
8 10 14 224.895 4.05148 1
0 6 18 235.241 2.78362 -2
8 10 14 235.241 2.78362 1
1 3 19 71.1416 6.67964 -2
8 10 14 71.1416 6.67964 1
8 10 14 64.1876 1.28572 1
5 7 17 1391.91 39.7797 -2
8 10 14 1391.91 39.7797 1
10 10 14 457.032 5.07968 1
9 13 13 624.775 7.5729 -2
10 10 14 624.775 7.5729 1
6 6 18 1296.14 12.8174 -2
10 10 14 1296.14 12.8174 1
1 5 19 551.473 15.0424 -2
10 10 14 551.473 15.0424 1
0 12 14 1619.45 7.89092 1
3 5 17 2319.87 30.606 -2
0 12 14 2319.87 30.606 1
5 7 17 1563.57 22.17 -2
2 12 14 1563.57 22.17 1
1 11 15 384.297 11.7384 -2
2 12 14 384.297 11.7384 1
2 12 14 195.969 1.95092 1
2 12 14 266.524 3.16795 -2
2 12 14 266.524 3.16795 1
2 4 18 403.053 3.40374 -2
2 12 14 403.053 3.40374 1
4 12 14 132.746 1.81438 1
0 10 16 273.05 3.33718 -2
4 12 14 273.05 3.33718 1
6 8 16 1226.64 8.6715 -2
4 12 14 1226.64 8.6715 1
1 3 19 139.259 7.64129 -2
4 12 14 139.259 7.64129 1
3 11 15 110.716 13.9985 -2
4 12 14 110.716 13.9985 1
6 12 14 21.3448 0.88168 1
7 9 15 269.844 4.7545 -2
6 12 14 269.844 4.7545 1
3 9 17 64.6226 14.3294 -2
6 12 14 64.6226 14.3294 1
1 9 17 121.838 9.28 -2
6 12 14 121.838 9.28 1
1 1 19 466.848 13.9336 -2
6 12 14 466.848 13.9336 1
4 8 18 198.965 2.84873 -2
8 12 14 198.965 2.84873 1
9 11 15 97.3652 4.07892 -2
8 12 14 97.3652 4.07892 1
8 12 14 56.3018 1.66369 1
0 2 20 489.728 4.83404 -2
8 12 14 489.728 4.83404 1
1 7 19 87.0518 16.5087 -2
8 12 14 87.0518 16.5087 1
10 12 14 242.534 3.21625 -2
10 12 14 242.534 3.21625 1
10 12 14 174.69 2.59376 1
1 3 21 455.424 12.1059 -2
10 12 14 455.424 12.1059 1
2 6 20 226.48 3.33507 -2
10 12 14 226.48 3.33507 1
5 7 19 295.987 19.7916 -2
10 12 14 295.987 19.7916 1
11 13 13 218.207 6.89091 -2
12 12 14 218.207 6.89091 1
12 12 14 122.913 2.98467 1
5 5 21 207.19 11.8548 -2
12 12 14 207.19 11.8548 1
3 5 21 190.433 9.39074 -2
12 12 14 190.433 9.39074 1
0 14 14 2977.7 28.2923 -2
0 14 14 2977.7 28.2923 1
0 14 14 2196.52 23.0379 1
5 5 19 2575.92 48.1185 -2
0 14 14 2575.92 48.1185 1
6 6 18 1123.13 11.1044 -2
2 14 14 1123.13 11.1044 1
2 14 14 298.155 2.95905 1
1 13 15 521.754 11.6719 -2
2 14 14 521.754 11.6719 1
3 3 19 307.42 18.9301 -2
2 14 14 307.42 18.9301 1
4 14 14 208.57 2.68738 1
7 7 17 1284.16 22.3268 -2
4 14 14 1284.16 22.3268 1
2 2 20 429.506 6.87225 -2
4 14 14 429.506 6.87225 1
1 11 17 306.435 11.2649 -2
4 14 14 306.435 11.2649 1
2 10 18 164.48 2.97287 -2
6 14 14 164.48 2.97287 1
9 9 17 321.99 8.8856 -2
6 14 14 321.99 8.8856 1
6 14 14 119.731 3.63149 1
1 1 21 1193.54 26.4464 -2
6 14 14 1193.54 26.4464 1
8 14 14 1.37317 1.32493 1
3 9 19 -30.394 15.5992 -2
8 14 14 -30.394 15.5992 1
1 1 21 1134.7 34.7026 -2
8 14 14 1134.7 34.7026 1
10 10 16 169.319 4.45617 -2
8 14 14 169.319 4.45617 1
2 2 22 433.499 7.44576 -2
10 14 14 433.499 7.44576 1
10 14 14 24.0335 2.18173 1
11 11 15 150.76 6.95523 -2
10 14 14 150.76 6.95523 1
3 7 21 45.1393 9.29975 -2
10 14 14 45.1393 9.29975 1
4 6 22 99.7594 2.76249 -2
12 14 14 99.7594 2.76249 1
13 13 15 50.8713 6.07277 -2
12 14 14 50.8713 6.07277 1
3 3 23 411.246 15.2906 -2
12 14 14 411.246 15.2906 1
12 14 14 49.5319 4.42235 1
14 14 14 92.0715 5.87291 -2
14 14 14 92.0715 5.87291 1
5 5 23 321.149 14.6348 -2
14 14 14 321.149 14.6348 1
14 14 14 75.8303 4.97309 1
1 1 15 2771.1 19.8115 1
5 9 11 2837.7 19.4723 -2
1 1 15 2837.7 19.4723 1
1 3 15 166.167 1.15863 1
4 8 12 425.013 12.1684 -2
1 3 15 425.013 12.1684 1
5 7 13 490.514 4.86991 -2
3 3 15 490.514 4.86991 1
9 9 9 918.113 10.6469 -2
3 3 15 918.113 10.6469 1
1 11 11 1667.45 17.7134 -2
3 3 15 1667.45 17.7134 1
1 5 15 1246.94 6.21854 1
1 9 13 2029.38 14.43 -2
1 5 15 2029.38 14.43 1
7 9 11 1408.9 9.29812 -2
1 5 15 1408.9 9.29812 1
6 8 12 1330.94 34.2319 -2
1 5 15 1330.94 34.2319 1
3 5 15 2788.6 9.32015 1
0 10 12 4069.19 49.7452 -2
3 5 15 4069.19 49.7452 1
5 5 15 6702.22 40.1155 -2
5 5 15 6702.22 40.1155 1
5 5 15 4906.23 37.4614 1
2 12 12 5685.25 79.4619 -2
5 5 15 5685.25 79.4619 1
8 8 12 5229.86 124.6 -2
5 5 15 5229.86 124.6 1
1 7 15 112.887 1.44293 1
1 7 15 149.342 2.01172 -2
1 7 15 149.342 2.01172 1
5 9 13 128.702 2.1228 -2
1 7 15 128.702 2.1228 1
0 8 14 496.358 15.784 -2
1 7 15 496.358 15.784 1
6 10 12 307.11 13.4324 -2
1 7 15 307.11 13.4324 1
3 7 15 1014.53 3.70701 1
2 10 14 1359.21 18.9857 -2
3 7 15 1359.21 18.9857 1
2 6 16 1578.01 28.943 -2
3 7 15 1578.01 28.943 1
6 10 12 1270.88 34.254 -2
3 7 15 1270.88 34.254 1
4 8 14 1268.11 33.2809 -2
3 7 15 1268.11 33.2809 1
5 7 15 3600.56 15.3763 1
7 9 13 3546.81 21.827 -2
5 7 15 3546.81 21.827 1
3 11 13 3633.54 22.4785 -2
5 7 15 3633.54 22.4785 1
4 4 16 4353.76 103.717 -2
5 7 15 4353.76 103.717 1
4 6 16 5174.34 123.035 -2
5 7 15 5174.34 123.035 1
3 5 17 2561.79 14.3873 -2
7 7 15 2561.79 14.3873 1
4 12 12 2080.44 23.8988 -2
7 7 15 2080.44 23.8988 1
7 7 15 1922.74 15.727 1
1 9 15 515.529 2.11294 1
0 6 16 728.469 14.3763 -2
1 9 15 728.469 14.3763 1
4 12 12 598.56 20.4104 -2
1 9 15 598.56 20.4104 1
2 8 16 536.241 12.1454 -2
1 9 15 536.241 12.1454 1
5 11 13 110.796 2.01649 -2
3 9 15 110.796 2.01649 1
1 5 17 612.354 4.54869 -2
3 9 15 612.354 4.54869 1
3 9 15 109.942 1.22485 -2
3 9 15 109.942 1.22485 1
5 9 15 1480.13 5.35488 1
4 10 14 1484.19 16.9551 -2
5 9 15 1484.19 16.9551 1
2 4 18 1701 26.9827 -2
5 9 15 1701 26.9827 1
7 9 15 627.728 2.80938 1
2 6 18 830.308 28.5634 -2
7 9 15 830.308 28.5634 1
6 12 14 641.634 6.86019 -2
7 9 15 641.634 6.86019 1
6 8 16 1787.97 45.2881 -2
7 9 15 1787.97 45.2881 1
7 13 13 88.4832 2.98108 -2
9 9 15 88.4832 2.98108 1
7 7 17 1142.71 12.2418 -2
9 9 15 1142.71 12.2418 1
1 5 19 114.37 2.45123 -2
9 9 15 114.37 2.45123 1
3 13 13 510.072 4.22865 -2
1 11 15 510.072 4.22865 1
1 11 15 521.818 3.7403 1
3 7 17 1072.18 7.89407 -2
1 11 15 1072.18 7.89407 1
2 12 14 588.308 11.0382 -2
1 11 15 588.308 11.0382 1
2 6 18 731.727 13.1812 -2
1 11 15 731.727 13.1812 1
3 11 15 11.8034 0.6447 1
2 10 16 71.5904 15.2863 -2
3 11 15 71.5904 15.2863 1
4 12 14 73.1277 13.3642 -2
3 11 15 73.1277 13.3642 1
4 8 16 659.92 14.0072 -2
3 11 15 659.92 14.0072 1
0 4 18 203.668 10.6725 -2
3 11 15 203.668 10.6725 1
1 3 19 680.301 5.31006 -2
5 11 15 680.301 5.31006 1
1 9 17 755.518 6.09945 -2
5 11 15 755.518 6.09945 1
5 11 15 686.652 4.75442 1
6 10 16 976.712 11.8434 -2
5 11 15 976.712 11.8434 1
4 10 16 845.061 27.5313 -2
5 11 15 845.061 27.5313 1
7 11 15 23.3639 1.49351 -2
7 11 15 23.3639 1.49351 1
7 11 15 18.0636 1.21024 1
5 9 17 299.362 3.3373 -2
7 11 15 299.362 3.3373 1
2 2 20 247.113 10.0608 -2
7 11 15 247.113 10.0608 1
8 12 14 137.947 3.99581 -2
9 11 15 137.947 3.99581 1
9 11 15 111.864 1.60102 1
0 6 20 162.043 12.7032 -2
9 11 15 162.043 12.7032 1
0 4 20 148.91 10.5154 -2
9 11 15 148.91 10.5154 1
6 8 18 459.588 13.1122 -2
9 11 15 459.588 13.1122 1
1 5 21 487.127 4.85654 -2
11 11 15 487.127 4.85654 1
10 14 14 347.543 6.29487 -2
11 11 15 347.543 6.29487 1
11 11 15 326.616 7.38462 1
6 6 20 345.994 21.2186 -2
11 11 15 345.994 21.2186 1
3 5 19 630.567 5.46792 -2
1 13 15 630.567 5.46792 1
2 14 14 643.253 16.9771 -2
1 13 15 643.253 16.9771 1
1 13 15 506.859 3.22269 1
4 6 18 1094.46 17.2476 -2
1 13 15 1094.46 17.2476 1
1 13 15 684.57 5.85553 -2
1 13 15 684.57 5.85553 1
3 13 15 165.284 1.44983 1
0 12 16 377.062 14.8328 -2
3 13 15 377.062 14.8328 1
2 4 20 172.054 8.24223 -2
3 13 15 172.054 8.24223 1
6 8 18 517.626 10.3363 -2
3 13 15 517.626 10.3363 1
2 12 16 170.229 11.0201 -2
3 13 15 170.229 11.0201 1
7 9 17 854.894 6.37725 -2
5 13 15 854.894 6.37725 1
0 2 20 1188.6 25.6752 -2
5 13 15 1188.6 25.6752 1
5 13 15 707.441 4.87313 1
0 10 18 837.051 29.5373 -2
5 13 15 837.051 29.5373 1
3 11 17 691.465 6.01764 -2
5 13 15 691.465 6.01764 1
7 13 15 310.726 3.12783 1
8 10 16 313.788 5.76844 -2
7 13 15 313.788 5.76844 1
1 1 21 1355.4 10.5656 -2
7 13 15 1355.4 10.5656 1
4 10 18 357.408 20.1187 -2
7 13 15 357.408 20.1187 1
1 9 19 355.32 4.15264 -2
7 13 15 355.32 4.15264 1
10 12 16 116.285 4.85345 -2
9 13 15 116.285 4.85345 1
9 13 15 53.7728 1.28446 1
0 2 22 932.603 15.9545 -2
9 13 15 932.603 15.9545 1
4 8 20 99.1661 11.068 -2
9 13 15 99.1661 11.068 1
11 13 15 34.863 1.70352 1
11 13 15 49.5675 2.05183 -2
11 13 15 49.5675 2.05183 1
5 7 21 129.094 2.99004 -2
11 13 15 129.094 2.99004 1
2 6 22 63.4871 9.94916 -2
11 13 15 63.4871 9.94916 1
2 4 22 294.268 12.4214 -2
11 13 15 294.268 12.4214 1
12 14 14 27.0819 6.02947 -2
13 13 15 27.0819 6.02947 1
3 5 23 7.84594 1.96603 -2
13 13 15 7.84594 1.96603 1
13 13 15 3.3817 3.44681 1
6 6 22 476.242 25.9191 -2
13 13 15 476.242 25.9191 1
1 15 15 478.026 3.54513 1
4 4 20 488.506 16.3018 -2
1 15 15 488.506 16.3018 1
6 6 20 466.133 16.6048 -2
1 15 15 466.133 16.6048 1
0 14 16 525.337 11.0874 -2
1 15 15 525.337 11.0874 1
7 7 19 231.917 4.41699 -2
3 15 15 231.917 4.41699 1
1 13 17 219.123 3.18366 -2
3 15 15 219.123 3.18366 1
3 3 21 318.425 5.61441 -2
3 15 15 318.425 5.61441 1
8 8 18 2020.83 32.5439 -2
5 15 15 2020.83 32.5439 1
2 2 22 2457.43 46.8929 -2
5 15 15 2457.43 46.8929 1
5 15 15 2044.35 11.6805 1
2 12 18 2034.14 38.978 -2
5 15 15 2034.14 38.978 1
7 15 15 763.518 5.78175 1
10 10 18 1017.15 14.9146 -2
7 15 15 1017.15 14.9146 1
0 0 22 2893.41 75.4606 -2
7 15 15 2893.41 75.4606 1
2 10 20 1098.76 36.0644 -2
7 15 15 1098.76 36.0644 1
11 11 17 208.674 5.22603 -2
9 15 15 208.674 5.22603 1
3 9 21 360.792 4.49885 -2
9 15 15 360.792 4.49885 1
1 1 23 1219.76 14.7055 -2
9 15 15 1219.76 14.7055 1
11 15 15 2.7337 1.94587 1
4 8 22 68.4457 11.6326 -2
11 15 15 68.4457 11.6326 1
2 2 24 475.016 13.8873 -2
11 15 15 475.016 13.8873 1
12 12 16 12.5652 6.38489 -2
11 15 15 12.5652 6.38489 1
13 15 15 148.389 3.63502 1
4 6 24 414.791 10.2526 -2
13 15 15 414.791 10.2526 1
14 14 16 284.305 7.35121 -2
13 15 15 284.305 7.35121 1
4 4 24 341.972 20.3446 -2
13 15 15 341.972 20.3446 1
5 5 25 645.273 10.1968 -2
15 15 15 645.273 10.1968 1
15 15 15 296.907 10.2542 -2
15 15 15 296.907 10.2542 1
0 0 16 4693.47 42.5093 1
0 2 16 170.648 2.09424 1
4 10 12 374.335 3.5566 -2
0 2 16 374.335 3.5566 1
2 2 16 108.754 1.53048 1
8 10 10 931.234 12.0785 -2
2 2 16 931.234 12.0785 1
5 9 13 123.586 7.13968 -2
2 2 16 123.586 7.13968 1
8 8 12 921.809 7.21906 -2
0 4 16 921.809 7.21906 1
0 4 16 939.792 6.96749 1
4 8 14 1730.36 10.4138 -2
2 4 16 1730.36 10.4138 1
2 4 16 1484.18 6.28268 1
7 7 13 1906.99 47.0215 -2
2 4 16 1906.99 47.0215 1
4 4 16 1818.16 10.1956 1
0 12 12 3351.31 33.8837 -2
4 4 16 3351.31 33.8837 1
0 6 16 564.189 3.76969 1
1 9 15 762.062 13.9549 -2
0 6 16 762.062 13.9549 1
7 9 13 634.808 19.4554 -2
0 6 16 634.808 19.4554 1
2 6 16 1363.47 6.51172 1
6 8 14 1730.33 12.0324 -2
2 6 16 1730.33 12.0324 1
0 10 14 1907.5 13.2146 -2
2 6 16 1907.5 13.2146 1
7 11 11 2417.42 59.9594 -2
2 6 16 2417.42 59.9594 1
1 11 13 4878.07 48.6047 -2
4 6 16 4878.07 48.6047 1
4 6 16 3997.93 20.788 1
8 10 12 4314.85 28.1263 -2
4 6 16 4314.85 28.1263 1
4 6 16 5397.26 31.5394 -2
4 6 16 5397.26 31.5394 1
5 7 15 5418.05 128.422 -2
4 6 16 5418.05 128.422 1
6 6 16 5601.11 24.5858 1
3 13 13 5729.16 98.665 -2
6 6 16 5729.16 98.665 1
5 5 17 6797.98 160.324 -2
6 6 16 6797.98 160.324 1
0 8 16 307.223 3.65606 1
0 8 16 423.989 3.5176 -2
0 8 16 423.989 3.5176 1
5 11 13 341.236 14.6604 -2
0 8 16 341.236 14.6604 1
2 8 16 63.6045 1.06421 1
6 12 12 428.003 4.37337 -2
2 8 16 428.003 4.37337 1
1 9 15 262.608 7.241 -2
2 8 16 262.608 7.241 1
1 7 17 140.13 5.66048 -2
2 8 16 140.13 5.66048 1
5 9 15 636.596 14.3639 -2
2 8 16 636.596 14.3639 1
4 8 16 1680.82 7.14903 1
3 11 15 1710.99 17.4427 -2
4 8 16 1710.99 17.4427 1
4 8 16 2312.15 14.712 -2
4 8 16 2312.15 14.712 1
3 5 17 2434.93 59.263 -2
4 8 16 2434.93 59.263 1
7 11 13 1749.87 45.9229 -2
4 8 16 1749.87 45.9229 1
6 8 16 2850.56 13.0445 1
4 12 14 2858.25 16.8389 -2
6 8 16 2858.25 16.8389 1
4 4 18 3134.6 17.8622 -2
6 8 16 3134.6 17.8622 1
3 7 17 3500.44 85.006 -2
6 8 16 3500.44 85.006 1
8 8 16 457.494 4.04362 1
8 8 16 627.544 7.7026 -2
8 8 16 627.544 7.7026 1
5 13 13 495.046 7.20172 -2
8 8 16 495.046 7.20172 1
3 5 19 570.965 16.9131 -2
8 8 16 570.965 16.9131 1
0 10 16 396.246 3.77992 1
1 7 17 469.581 11.7667 -2
0 10 16 469.581 11.7667 1
4 12 14 427.573 3.84363 -2
0 10 16 427.573 3.84363 1
2 10 16 153.482 1.44792 1
0 6 18 333.097 3.50733 -2
2 10 16 333.097 3.50733 1
3 11 15 152.393 6.17874 -2
2 10 16 152.393 6.17874 1
3 9 17 163.028 8.9791 -2
2 10 16 163.028 8.9791 1
5 13 13 166.927 13.8473 -2
2 10 16 166.927 13.8473 1
4 10 16 360.707 2.18248 1
4 10 16 501.235 4.08752 -2
4 10 16 501.235 4.08752 1
1 5 19 430.454 11.5678 -2
4 10 16 430.454 11.5678 1
5 11 15 674.185 23.5987 -2
4 10 16 674.185 23.5987 1
6 10 16 802.78 5.12326 1
6 10 16 1082.85 8.36189 -2
6 10 16 1082.85 8.36189 1
2 8 18 785.489 6.26601 -2
6 10 16 785.489 6.26601 1
5 11 15 1068.32 13.5593 -2
6 10 16 1068.32 13.5593 1
3 3 19 828.994 19.7663 -2
6 10 16 828.994 19.7663 1
8 10 16 17.4923 0.99692 1
7 13 15 129.099 4.80545 -2
8 10 16 129.099 4.80545 1
2 4 20 22.6633 1.52405 -2
8 10 16 22.6633 1.52405 1
7 9 17 181.076 10.2392 -2
8 10 16 181.076 10.2392 1
10 10 16 434.531 4.20055 1
1 5 21 598.153 10.949 -2
10 10 16 598.153 10.949 1
8 14 14 416.379 5.72435 -2
10 10 16 416.379 5.72435 1
7 7 19 432.594 21.642 -2
10 10 16 432.594 21.642 1
0 12 16 490.2 3.54085 1
3 13 15 569.133 13.6552 -2
0 12 16 569.133 13.6552 1
3 7 19 500.278 11.2184 -2
0 12 16 500.278 11.2184 1
4 8 18 153.312 2.45819 -2
2 12 16 153.312 2.45819 1
2 12 16 14.4931 1.01491 1
2 12 16 19.6192 1.77375 -2
2 12 16 19.6192 1.77375 1
1 5 19 89.6124 10.4136 -2
2 12 16 89.6124 10.4136 1
4 12 16 450.25 4.26928 -2
4 12 16 450.25 4.26928 1
4 12 16 324.737 2.9349 1
5 9 17 587.59 9.61526 -2
4 12 16 587.59 9.61526 1
0 4 20 338.73 3.58486 -2
4 12 16 338.73 3.58486 1
1 11 17 425.259 19.4093 -2
4 12 16 425.259 19.4093 1
6 12 16 432.364 2.59976 1
7 11 17 444.213 6.69884 -2
6 12 16 444.213 6.69884 1
1 9 19 509.308 23.3387 -2
6 12 16 509.308 23.3387 1
1 3 21 738.678 13.844 -2
6 12 16 738.678 13.844 1
5 11 17 507.801 22.3478 -2
6 12 16 507.801 22.3478 1
8 12 16 52.0715 1.84638 -2
8 12 16 52.0715 1.84638 1
8 12 16 38.1868 1.36174 1
0 8 20 61.7792 2.10826 -2
8 12 16 61.7792 2.10826 1
1 3 21 324.996 10.4866 -2
8 12 16 324.996 10.4866 1
5 9 19 77.2725 16.4624 -2
8 12 16 77.2725 16.4624 1
10 12 16 88.1091 2.39443 1
9 13 15 116.12 4.05559 -2
10 12 16 116.12 4.05559 1
0 4 22 535.489 5.51782 -2
10 12 16 535.489 5.51782 1
6 8 20 144.097 3.20242 -2
10 12 16 144.097 3.20242 1
1 7 21 79.1187 19.3923 -2
10 12 16 79.1187 19.3923 1
1 5 23 60.6564 8.79462 -2
12 12 16 60.6564 8.79462 1
11 15 15 36.1609 6.06032 -2
12 12 16 36.1609 6.06032 1
12 12 16 31.8596 2.25124 1
7 7 21 349.401 13.6071 -2
12 12 16 349.401 13.6071 1
4 6 20 118.292 2.58192 -2
0 14 16 118.292 2.58192 1
0 14 16 103.655 2.97261 1
1 15 15 288.911 8.41699 -2
0 14 16 288.911 8.41699 1
2 14 16 182.03 3.09527 -2
2 14 16 182.03 3.09527 1
2 14 16 137.642 1.76095 1
5 7 19 280.522 9.86106 -2
2 14 16 280.522 9.86106 1
3 5 21 205.931 9.29851 -2
2 14 16 205.931 9.29851 1
1 13 17 138.862 9.02324 -2
2 14 16 138.862 9.02324 1
4 14 16 1671.4 7.72054 1
0 12 18 1718.5 11.944 -2
4 14 16 1718.5 11.944 1
7 9 19 1694.41 20.0448 -2
4 14 16 1694.41 20.0448 1
3 13 17 1847.33 50.8406 -2
4 14 16 1847.33 50.8406 1
1 3 21 1962.33 54.77 -2
4 14 16 1962.33 54.77 1
8 10 18 2262.89 15.1458 -2
6 14 16 2262.89 15.1458 1
6 14 16 2172.7 11.0221 1
0 2 22 3007.53 21.1827 -2
6 14 16 3007.53 21.1827 1
1 11 19 2379.23 64.1129 -2
6 14 16 2379.23 64.1129 1
9 11 17 739.861 7.81129 -2
8 14 16 739.861 7.81129 1
4 10 20 723.704 6.57716 -2
8 14 16 723.704 6.57716 1
8 14 16 633.003 4.73173 1
1 1 23 1749.78 22.3206 -2
8 14 16 1749.78 22.3206 1
1 9 21 946.933 33.9005 -2
8 14 16 946.933 33.9005 1
2 8 22 199.027 3.757 -2
10 14 16 199.027 3.757 1
11 13 17 98.9857 6.1623 -2
10 14 16 98.9857 6.1623 1
1 3 23 512.734 16.2585 -2
10 14 16 512.734 16.2585 1
10 14 16 104.349 2.12248 1
5 9 21 184.295 21.0959 -2
10 14 16 184.295 21.0959 1
12 14 16 141.26 2.79107 1
3 7 23 148.462 10.6184 -2
12 14 16 148.462 10.6184 1
12 14 16 196.304 3.46276 -2
12 14 16 196.304 3.46276 1
2 4 24 148.947 3.72988 -2
12 14 16 148.947 3.72988 1
5 7 23 413.972 13.33 -2
12 14 16 413.972 13.33 1
3 5 25 585.126 10.2198 -2
14 14 16 585.126 10.2198 1
6 6 24 462.166 7.80042 -2
14 14 16 462.166 7.80042 1
13 15 15 385.708 7.95025 -2
14 14 16 385.708 7.95025 1
14 14 16 318.522 7.52669 1
0 16 16 315.194 5.65355 -2
0 16 16 315.194 5.65355 1
0 16 16 238.695 5.36579 1
5 5 21 288.711 15.1118 -2
0 16 16 288.711 15.1118 1
2 16 16 43.2844 1.82996 1
4 4 22 442.266 6.68858 -2
2 16 16 442.266 6.68858 1
7 7 21 341.71 16.3148 -2
2 16 16 341.71 16.3148 1
1 15 17 65.2433 7.85755 -2
2 16 16 65.2433 7.85755 1
4 16 16 1996.7 12.5303 1
8 8 20 2013.13 18.6984 -2
4 16 16 2013.13 18.6984 1
3 3 23 2364.73 46.1317 -2
4 16 16 2364.73 46.1317 1
1 13 19 2070.75 38.9744 -2
4 16 16 2070.75 38.9744 1
6 16 16 2797.93 26.9334 1
1 1 23 3816.25 97.6881 -2
6 16 16 3816.25 97.6881 1
2 12 20 2912.93 20.0651 -2
6 16 16 2912.93 20.0651 1
9 9 19 2936.88 33.7794 -2
6 16 16 2936.88 33.7794 1
0 0 24 1690.39 19.2182 -2
8 16 16 1690.39 19.2182 1
8 16 16 596.561 6.5811 1
11 11 19 1225.01 17.5403 -2
8 16 16 1225.01 17.5403 1
3 11 21 1048.82 33.0074 -2
8 16 16 1048.82 33.0074 1
10 16 16 80.6276 2.63156 1
12 12 18 147.896 4.83502 -2
10 16 16 147.896 4.83502 1
3 9 23 341.293 15.2872 -2
10 16 16 341.293 15.2872 1
1 1 25 685.565 16.6202 -2
10 16 16 685.565 16.6202 1
4 8 24 612.442 6.36699 -2
12 16 16 612.442 6.36699 1
3 3 25 671.779 28.2104 -2
12 16 16 671.779 28.2104 1
13 13 17 510.658 9.73405 -2
12 16 16 510.658 9.73405 1
12 16 16 498.541 9.80268 1
4 4 26 1252.49 15.76 -2
14 16 16 1252.49 15.76 1
15 15 17 1318.54 16.1353 -2
14 16 16 1318.54 16.1353 1
14 16 16 845.877 9.60413 1
5 7 25 1141.43 21.8368 -2
14 16 16 1141.43 21.8368 1
16 16 16 935.558 16.2189 1
16 16 16 1300.19 23.2169 -2
16 16 16 1300.19 23.2169 1
5 5 27 1614.14 47.3764 -2
16 16 16 1614.14 47.3764 1
1 1 17 1116.16 6.95877 1
7 11 11 2005.08 20.9569 -2
1 1 17 2005.08 20.9569 1
1 3 17 131.301 1.4543 1
7 9 13 167.381 2.231 -2
1 3 17 167.381 2.231 1
3 11 13 272.4 3.50717 -2
1 3 17 272.4 3.50717 1
3 3 17 453.556 3.06851 1
1 5 17 1387.36 6.05932 1
3 9 15 1404.49 9.60924 -2
1 5 17 1404.49 9.60924 1
8 10 12 1858.88 46.7177 -2
1 5 17 1858.88 46.7177 1
8 8 14 1579.09 40.0561 -2
1 5 17 1579.09 40.0561 1
9 11 11 2463.88 16.6639 -2
3 5 17 2463.88 16.6639 1
7 7 15 2455.55 17.2331 -2
3 5 17 2455.55 17.2331 1
3 5 17 1757.83 8.92266 1
0 12 14 2359.18 43.9552 -2
3 5 17 2359.18 43.9552 1
4 8 16 2448.36 59.7495 -2
3 5 17 2448.36 59.7495 1
5 5 17 2915.46 15.8924 1
1 13 13 3724 37.6167 -2
5 5 17 3724 37.6167 1
6 6 16 5105.08 86.6576 -2
5 5 17 5105.08 86.6576 1
1 7 17 210.508 1.71745 1
2 8 16 236.542 8.98956 -2
1 7 17 236.542 8.98956 1
7 11 13 364.844 4.23832 -2
1 7 17 364.844 4.23832 1
0 10 16 342.917 9.47404 -2
1 7 17 342.917 9.47404 1
6 10 14 274.396 12.8053 -2
1 7 17 274.396 12.8053 1
3 7 17 2011.63 12.1864 -2
3 7 17 2011.63 12.1864 1
3 7 17 1464.17 7.78757 1
1 11 15 1632.86 12.1008 -2
3 7 17 1632.86 12.1008 1
6 8 16 2643.5 65.1363 -2
3 7 17 2643.5 65.1363 1
5 7 17 3627.59 15.61 1
5 7 17 4972.01 28.4059 -2
5 7 17 4972.01 28.4059 1
2 12 14 3767.54 47.3262 -2
5 7 17 3767.54 47.3262 1
4 6 18 4201.19 105.038 -2
5 7 17 4201.19 105.038 1
9 9 15 2776.88 26.454 -2
7 7 17 2776.88 26.454 1
7 7 17 2823 17.332 1
4 14 14 2903.27 42.9587 -2
7 7 17 2903.27 42.9587 1
4 6 18 3572.65 86.3383 -2
7 7 17 3572.65 86.3383 1
1 9 17 245.199 2.21904 1
5 11 15 507.243 4.85106 -2
1 9 17 507.243 4.85106 1
1 9 17 340.469 3.67498 -2
1 9 17 340.469 3.67498 1
0 8 18 322.035 7.32777 -2
1 9 17 322.035 7.32777 1
3 9 17 60.6626 0.97799 1
2 10 16 125.912 7.49489 -2
3 9 17 125.912 7.49489 1
2 6 18 264.426 12.1242 -2
3 9 17 264.426 12.1242 1
5 9 17 709.445 4.79575 1
3 5 19 837.344 6.0839 -2
5 9 17 837.344 6.0839 1
7 11 15 702.669 6.09216 -2
5 9 17 702.669 6.09216 1
4 12 16 857.588 9.17198 -2
5 9 17 857.588 9.17198 1
7 9 17 393.434 3.15442 1
3 7 19 382.214 3.85919 -2
7 9 17 382.214 3.85919 1
5 13 15 653.672 5.21434 -2
7 9 17 653.672 5.21434 1
4 4 20 414.711 10.9406 -2
7 9 17 414.711 10.9406 1
8 10 16 388.685 13.7571 -2
7 9 17 388.685 13.7571 1
9 9 17 480.666 3.66053 1
6 14 14 530.653 8.56181 -2
9 9 17 530.653 8.56181 1
2 6 20 527.692 19.0749 -2
9 9 17 527.692 19.0749 1
4 12 16 353.403 17.6452 -2
1 11 17 353.403 17.6452 1
1 11 17 238.86 1.91741 1
1 7 19 275.86 3.69318 -2
1 11 17 275.86 3.69318 1
2 8 18 252.14 10.3527 -2
1 11 17 252.14 10.3527 1
4 14 14 339.143 17.662 -2
1 11 17 339.143 17.662 1
3 11 17 3.07487 0.95122 1
5 13 15 283.116 3.29918 -2
3 11 17 283.116 3.29918 1
0 6 20 61.0211 8.91101 -2
3 11 17 61.0211 8.91101 1
3 11 17 5.1872 1.3709 -2
3 11 17 5.1872 1.3709 1
4 10 18 24.439 5.9344 -2
3 11 17 24.439 5.9344 1
5 11 17 225.326 1.93166 1
5 11 17 313.754 3.42053 -2
5 11 17 313.754 3.42053 1
2 4 20 248.097 11.6651 -2
5 11 17 248.097 11.6651 1
2 10 18 260.387 16.0904 -2
5 11 17 260.387 16.0904 1
6 12 16 197.58 5.10522 -2
7 11 17 197.58 5.10522 1
7 11 17 25.401 1.18487 1
3 3 21 138.583 2.88024 -2
7 11 17 138.583 2.88024 1
6 10 18 79.3645 9.10857 -2
7 11 17 79.3645 9.10857 1
2 8 20 51.9268 11 -2
7 11 17 51.9268 11 1
8 14 16 489.998 6.21169 -2
9 11 17 489.998 6.21169 1
7 9 19 243.644 3.28948 -2
9 11 17 243.644 3.28948 1
9 11 17 239.417 4.03428 1
2 4 22 499.614 10.4774 -2
9 11 17 499.614 10.4774 1
1 7 21 248.686 3.58859 -2
9 11 17 248.686 3.58859 1
11 11 17 226.973 3.26231 1
9 15 15 276.697 4.7515 -2
11 11 17 276.697 4.7515 1
0 6 22 251.915 11.0283 -2
11 11 17 251.915 11.0283 1
8 8 20 258.659 21.311 -2
11 11 17 258.659 21.311 1
3 15 15 89.0575 2.17727 -2
1 13 17 89.0575 2.17727 1
1 13 17 5.77152 1.00742 1
2 6 20 68.1573 7.29128 -2
1 13 17 68.1573 7.29128 1
4 8 20 15.4166 8.24145 -2
1 13 17 15.4166 8.24145 1
2 14 16 30.9827 14.306 -2
1 13 17 30.9827 14.306 1
2 12 18 406.365 22.5702 -2
3 13 17 406.365 22.5702 1
5 9 19 423.373 4.03586 -2
3 13 17 423.373 4.03586 1
4 14 16 1012.56 32.5898 -2
3 13 17 1012.56 32.5898 1
3 13 17 387.291 3.2512 1
1 5 21 550.293 4.89282 -2
3 13 17 550.293 4.89282 1
5 13 17 608.198 3.75303 1
1 11 19 765.159 6.53789 -2
5 13 17 765.159 6.53789 1
4 12 18 627.619 16.4525 -2
5 13 17 627.619 16.4525 1
6 10 18 628.708 9.08156 -2
5 13 17 628.708 9.08156 1
0 4 22 1051.62 15.8692 -2
5 13 17 1051.62 15.8692 1
7 13 17 562.768 4.05569 1
8 12 18 635.736 7.01184 -2
7 13 17 635.736 7.01184 1
5 11 19 549.694 5.30532 -2
7 13 17 549.694 5.30532 1
2 2 22 1002.66 23.511 -2
7 13 17 1002.66 23.511 1
9 13 17 13.4717 1.74542 -2
9 13 17 13.4717 1.74542 1
9 13 17 8.13909 1.33286 1
1 3 23 413.788 5.051 -2
9 13 17 413.788 5.051 1
6 10 20 202.742 11.49 -2
9 13 17 202.742 11.49 1
0 8 22 250.255 21.2569 -2
9 13 17 250.255 21.2569 1
11 13 17 12.9576 1.57533 1
0 4 24 33.3376 7.89761 -2
11 13 17 33.3376 7.89761 1
1 7 23 53.4248 2.41786 -2
11 13 17 53.4248 2.41786 1
10 14 16 50.7702 4.24805 -2
11 13 17 50.7702 4.24805 1
6 8 22 181.001 12.6892 -2
11 13 17 181.001 12.6892 1
2 6 24 34.8199 8.75519 -2
13 13 17 34.8199 8.75519 1
12 16 16 199.455 8.11678 -2
13 13 17 199.455 8.11678 1
13 13 17 4.35271 2.70211 1
7 7 23 169.95 5.46146 -2
13 13 17 169.95 5.46146 1
1 15 17 81.7096 1.79662 1
1 15 17 104.285 2.83443 -2
1 15 17 104.285 2.83443 1
2 16 16 79.999 12.1108 -2
1 15 17 79.999 12.1108 1
5 7 21 159.676 2.87786 -2
1 15 17 159.676 2.87786 1
4 6 22 139.657 9.03151 -2
1 15 17 139.657 9.03151 1
3 15 17 1437.74 5.91042 1
6 8 20 1506.93 18.4041 -2
3 15 17 1506.93 18.4041 1
2 14 18 1604.56 46.1751 -2
3 15 17 1604.56 46.1751 1
0 14 18 1457.11 38.6017 -2
3 15 17 1457.11 38.6017 1
3 13 19 3415.29 22.2557 -2
5 15 17 3415.29 22.2557 1
5 15 17 3493.7 19.4647 1
8 10 20 3754.02 36.2841 -2
5 15 17 3754.02 36.2841 1
1 3 23 3832.64 26.5704 -2
5 15 17 3832.64 26.5704 1
0 12 20 3913.49 99.3163 -2
5 15 17 3913.49 99.3163 1
1 11 21 2798.22 20.9621 -2
7 15 17 2798.22 20.9621 1
0 2 24 2808.96 37.6771 -2
7 15 17 2808.96 37.6771 1
9 11 19 2498.31 16.8238 -2
7 15 17 2498.31 16.8238 1
7 15 17 2205.43 13.4667 1
4 12 20 2299.72 62.8053 -2
7 15 17 2299.72 62.8053 1
10 12 18 518.124 7.44151 -2
9 15 17 518.124 7.44151 1
9 15 17 413.163 3.23471 1
4 10 22 842.813 21.6931 -2
9 15 17 842.813 21.6931 1
0 2 24 977.252 34.3794 -2
9 15 17 977.252 34.3794 1
1 3 25 395.173 5.27909 -2
11 15 17 395.173 5.27909 1
5 9 23 405.27 4.97022 -2
11 15 17 405.27 4.97022 1
12 14 18 441.146 6.83029 -2
11 15 17 441.146 6.83029 1
11 15 17 415.123 6.65751 1
2 8 24 497.328 12.7726 -2
11 15 17 497.328 12.7726 1
2 4 26 1060.06 16.6284 -2
13 15 17 1060.06 16.6284 1
13 15 17 1056.81 8.17394 -2
13 15 17 1056.81 8.17394 1
13 15 17 772.547 6.27925 1
3 7 25 842.067 8.15799 -2
13 15 17 842.067 8.15799 1
6 8 24 875.32 22.6587 -2
13 15 17 875.32 22.6587 1
6 6 26 1605.62 27.5331 -2
15 15 17 1605.62 27.5331 1
15 15 17 1149.31 11.3565 1
14 16 16 1493.66 17.5637 -2
15 15 17 1493.66 17.5637 1
4 6 26 1627.45 48.1312 -2
15 15 17 1627.45 48.1312 1
1 17 17 3.39485 1.68279 1
5 5 23 252.249 5.37444 -2
1 17 17 252.249 5.37444 1
6 6 22 500.528 18.8398 -2
1 17 17 500.528 18.8398 1
0 16 18 -17.176 17.8885 -2
1 17 17 -17.176 17.8885 1
1 15 19 657.146 6.58752 -2
3 17 17 657.146 6.58752 1
3 17 17 669.399 8.12357 1
8 8 22 682.754 21.5201 -2
3 17 17 682.754 21.5201 1
4 4 24 877.393 24.3015 -2
3 17 17 877.393 24.3015 1
5 17 17 1653.72 12.1313 1
9 9 21 2029.37 22.4308 -2
5 17 17 2029.37 22.4308 1
2 14 20 1721.95 48.7959 -2
5 17 17 1721.95 48.7959 1
2 2 24 2089.85 59.1935 -2
5 17 17 2089.85 59.1935 1
1 1 25 1647.59 19.0053 -2
7 17 17 1647.59 19.0053 1
7 17 17 1058.18 10.1035 1
10 10 20 2088.08 29.6918 -2
7 17 17 2088.08 29.6918 1
2 12 22 1610.06 33.6994 -2
7 17 17 1610.06 33.6994 1
12 12 20 582.928 10.2762 -2
9 17 17 582.928 10.2762 1
3 11 23 389.024 5.66623 -2
9 17 17 389.024 5.66623 1
9 17 17 4.0402 4.07105 1
0 0 26 626.349 21.2853 -2
9 17 17 626.349 21.2853 1
2 2 26 317.504 14.1323 -2
11 17 17 317.504 14.1323 1
11 17 17 292.474 4.68479 1
13 13 19 342.673 6.54286 -2
11 17 17 342.673 6.54286 1
4 10 24 313.577 26.3244 -2
11 17 17 313.577 26.3244 1
4 8 26 659.851 15.8298 -2
13 17 17 659.851 15.8298 1
3 3 27 673.262 11.9465 -2
13 17 17 673.262 11.9465 1
13 17 17 446.462 7.6721 1
14 14 18 595.624 12.5938 -2
13 17 17 595.624 12.5938 1
5 7 27 1653.63 13.4663 -2
15 17 17 1653.63 13.4663 1
16 16 18 1630.25 22.3574 -2
15 17 17 1630.25 22.3574 1
15 17 17 1130.45 19.0294 1
4 4 28 1489.98 27.4366 -2
15 17 17 1489.98 27.4366 1
17 17 17 626.8 16.5555 1
6 6 28 1092.12 20.0893 -2
17 17 17 1092.12 20.0893 1
17 17 17 887.833 23.9071 -2
17 17 17 887.833 23.9071 1
6 12 12 2316.89 26.6601 -2
0 0 18 2316.89 26.6601 1
0 2 18 267.295 2.20112 1
6 10 14 133.188 2.10673 -2
2 2 18 133.188 2.10673 1
2 2 18 97.0392 2.87057 1
0 4 18 482.716 3.19357 1
9 9 13 616.673 18.5998 -2
0 4 18 616.673 18.5998 1
2 4 18 554.861 3.56023 1
2 12 14 619.87 6.11578 -2
2 4 18 619.87 6.11578 1
10 10 12 1131.66 9.22647 -2
2 4 18 1131.66 9.22647 1
5 9 15 1162.97 29.3632 -2
2 4 18 1162.97 29.3632 1
6 8 16 1997.12 12.3559 -2
4 4 18 1997.12 12.3559 1
4 4 18 912.686 7.8273 1
2 10 16 523.614 4.64871 -2
0 6 18 523.614 4.64871 1
8 10 14 485.042 4.7793 -2
0 6 18 485.042 4.7793 1
2 6 18 573.434 2.79769 1
3 9 17 611.612 12.2211 -2
2 6 18 611.612 12.2211 1
9 11 13 880.903 25.7956 -2
2 6 18 880.903 25.7956 1
1 11 15 771.466 12.2355 -2
2 6 18 771.466 12.2355 1
7 9 15 831.593 24.1167 -2
2 6 18 831.593 24.1167 1
4 6 18 1556.59 6.15387 1
1 13 15 1792.8 22.0032 -2
4 6 18 1792.8 22.0032 1
7 7 17 2718.62 66.6137 -2
4 6 18 2718.62 66.6137 1
5 7 17 3055.15 52.265 -2
4 6 18 3055.15 52.265 1
6 6 18 2931.95 17.2498 -2
6 6 18 2931.95 17.2498 1
2 14 14 2209.97 21.7461 -2
6 6 18 2209.97 21.7461 1
10 10 14 2241.88 23.8544 -2
6 6 18 2241.88 23.8544 1
0 8 18 165.836 2.00394 1
1 9 17 269.599 10.0568 -2
0 8 18 269.599 10.0568 1
6 10 16 322.458 3.71806 -2
2 8 18 322.458 3.71806 1
2 8 18 13.7887 1.47708 -2
2 8 18 13.7887 1.47708 1
2 8 18 10.8044 1.03545 1
1 11 17 103.88 5.69196 -2
2 8 18 103.88 5.69196 1
2 12 16 359.931 4.36278 -2
4 8 18 359.931 4.36278 1
8 12 14 383.463 4.8301 -2
4 8 18 383.463 4.8301 1
4 8 18 368.142 2.72894 1
3 7 19 386.453 20.6294 -2
4 8 18 386.453 20.6294 1
6 8 18 910.777 3.97286 1
3 13 15 978.454 11.7265 -2
6 8 18 978.454 11.7265 1
5 7 19 1094.08 23.2389 -2
6 8 18 1094.08 23.2389 1
4 6 20 17.2789 1.45302 -2
8 8 18 17.2789 1.45302 1
8 8 18 2.86347 2.15958 1
5 15 15 731.564 19.4832 -2
8 8 18 731.564 19.4832 1
0 10 18 197.202 2.34174 1
1 9 19 264.404 12.7445 -2
0 10 18 264.404 12.7445 1
2 10 18 88.1303 1.66342 1
2 10 18 118.379 2.9284 -2
2 10 18 118.379 2.9284 1
6 14 14 141.639 3.05294 -2
2 10 18 141.639 3.05294 1
1 7 19 130.275 10.884 -2
2 10 18 130.275 10.884 1
5 11 17 190.649 13.5667 -2
2 10 18 190.649 13.5667 1
4 10 18 57.8883 1.66357 -2
4 10 18 57.8883 1.66357 1
4 10 18 44.7603 1.6099 1
2 6 20 95.0079 2.24363 -2
4 10 18 95.0079 2.24363 1
3 11 17 36.8436 6.46764 -2
4 10 18 36.8436 6.46764 1
7 13 15 181.252 10.7379 -2
4 10 18 181.252 10.7379 1
6 10 18 84.7577 1.20378 1
5 13 17 323.696 6.477 -2
6 10 18 323.696 6.477 1
3 5 21 142.868 10.2016 -2
6 10 18 142.868 10.2016 1
3 9 19 90.74 12.2632 -2
6 10 18 90.74 12.2632 1
6 14 16 1054.39 7.37276 -2
8 10 18 1054.39 7.37276 1
8 10 18 322.548 3.8753 -2
8 10 18 322.548 3.8753 1
8 10 18 240.185 2.55699 1
3 5 21 307.93 11.2348 -2
8 10 18 307.93 11.2348 1
3 7 21 293.076 21.6429 -2
8 10 18 293.076 21.6429 1
2 6 22 623.587 5.69464 -2
10 10 18 623.587 5.69464 1
10 10 18 618.696 6.8692 1
7 15 15 941.115 16.0176 -2
10 10 18 941.115 16.0176 1
4 14 16 882.596 7.43722 -2
0 12 18 882.596 7.43722 1
2 8 20 251.134 3.11673 -2
0 12 18 251.134 3.11673 1
2 12 18 17.4316 0.81811 1
1 7 21 27.4077 6.26694 -2
2 12 18 27.4077 6.26694 1
3 13 17 157.711 15.5416 -2
2 12 18 157.711 15.5416 1
3 9 19 9.83712 9.40668 -2
2 12 18 9.83712 9.40668 1
5 15 15 760 26.5794 -2
2 12 18 760 26.5794 1
4 12 18 40.0014 0.95249 1
5 11 19 51.951 4.42421 -2
4 12 18 51.951 4.42421 1
5 13 17 304.538 19.2145 -2
4 12 18 304.538 19.2145 1
1 5 21 201.453 12.8729 -2
4 12 18 201.453 12.8729 1
3 11 19 86.6643 6.6369 -2
4 12 18 86.6643 6.6369 1
2 4 22 267.039 3.60158 -2
6 12 18 267.039 3.60158 1
2 10 20 359.833 4.4445 -2
6 12 18 359.833 4.4445 1
6 12 18 21.5421 1.1833 -2
6 12 18 21.5421 1.1833 1
3 3 23 512.967 10.4646 -2
8 12 18 512.967 10.4646 1
7 11 19 387.611 15.7033 -2
8 12 18 387.611 15.7033 1
7 13 17 356.846 6.56389 -2
8 12 18 356.846 6.56389 1
8 12 18 139.776 1.95747 1
1 9 21 474.971 21.5813 -2
8 12 18 474.971 21.5813 1
1 7 23 302.94 9.51463 -2
10 12 18 302.94 9.51463 1
10 12 18 257.332 2.59696 1
9 15 17 413.541 5.77919 -2
10 12 18 413.541 5.77919 1
1 5 23 302.163 11.9137 -2
10 12 18 302.163 11.9137 1
7 9 21 256.943 21.4293 -2
10 12 18 256.943 21.4293 1
0 6 24 186.887 3.95826 -2
12 12 18 186.887 3.95826 1
10 16 16 221.308 5.24178 -2
12 12 18 221.308 5.24178 1
8 8 22 188.194 4.99604 -2
12 12 18 188.194 4.99604 1
0 14 18 1.95342 1.4317 1
3 7 21 22.9066 7.19045 -2
0 14 18 22.9066 7.19045 1
3 15 17 574.407 17.885 -2
0 14 18 574.407 17.885 1
2 14 18 220.499 2.65856 1
2 14 18 291.759 4.35064 -2
2 14 18 291.759 4.35064 1
2 6 22 218.867 3.29939 -2
2 14 18 218.867 3.29939 1
5 9 21 313.376 9.01487 -2
2 14 18 313.376 9.01487 1
4 14 18 920.09 6.07642 1
6 10 20 1086.25 7.92006 -2
4 14 18 1086.25 7.92006 1
4 14 18 1280.29 10.0045 -2
4 14 18 1280.29 10.0045 1
1 5 23 950.83 15.4759 -2
4 14 18 950.83 15.4759 1
1 13 19 1015.86 28.2738 -2
4 14 18 1015.86 28.2738 1
6 14 18 1120.22 5.21484 1
1 3 23 1500.01 26.1629 -2
6 14 18 1500.01 26.1629 1
7 11 19 1335.9 15.5934 -2
6 14 18 1335.9 15.5934 1
5 13 19 1086.38 36.2474 -2
6 14 18 1086.38 36.2474 1
1 11 21 1797.32 36.1898 -2
6 14 18 1797.32 36.1898 1
9 13 19 264.874 6.57692 -2
8 14 18 264.874 6.57692 1
8 14 18 210.174 4.28825 1
2 2 24 652.442 6.64228 -2
8 14 18 652.442 6.64228 1
0 10 22 818.175 7.9443 -2
8 14 18 818.175 7.9443 1
5 11 21 529.253 16.9922 -2
8 14 18 529.253 16.9922 1
1 3 25 44.0917 8.37305 -2
10 14 18 44.0917 8.37305 1
10 14 18 61.6428 2.49731 -2
10 14 18 61.6428 2.49731 1
10 14 18 48.601 2.00967 1
6 10 22 77.9109 2.81768 -2
10 14 18 77.9109 2.81768 1
1 9 23 426.964 17.175 -2
10 14 18 426.964 17.175 1
12 14 18 56.4446 1.78013 1
1 7 25 141.13 9.17098 -2
12 14 18 141.13 9.17098 1
11 15 17 222.484 6.38037 -2
12 14 18 222.484 6.38037 1
1 5 25 85.9869 10.735 -2
12 14 18 85.9869 10.735 1
7 9 23 41.6108 12.6371 -2
12 14 18 41.6108 12.6371 1
14 14 18 407.069 8.38947 1
2 6 26 540.424 6.38859 -2
14 14 18 540.424 6.38859 1
7 7 25 458.32 18.005 -2
14 14 18 458.32 18.005 1
13 17 17 581.688 12.1888 -2
14 14 18 581.688 12.1888 1
0 16 18 33.2135 1.64463 1
5 7 23 296.323 9.68696 -2
0 16 18 296.323 9.68696 1
1 17 17 45.2253 17.8192 -2
0 16 18 45.2253 17.8192 1
2 16 18 429.859 3.92663 1
6 8 22 621.858 5.5269 -2
2 16 18 621.858 5.5269 1
3 5 23 454.944 13.2286 -2
2 16 18 454.944 13.2286 1
2 16 18 592.911 5.90843 -2
2 16 18 592.911 5.90843 1
1 15 19 476.484 25.1998 -2
2 16 18 476.484 25.1998 1
2 4 24 1929.37 15.278 -2
4 16 18 1929.37 15.278 1
4 16 18 1935.64 12.2827 1
0 14 20 2069.59 15.4816 -2
4 16 18 2069.59 15.4816 1
3 15 19 2071.45 40.1661 -2
4 16 18 2071.45 40.1661 1
7 9 21 1929.77 21.1836 -2
4 16 18 1929.77 21.1836 1
6 16 18 2331.72 11.3376 1
9 11 21 3234.24 28.3016 -2
6 16 18 3234.24 28.3016 1
3 13 21 2443.59 66.2963 -2
6 16 18 2443.59 66.2963 1
1 3 25 2348.53 28.9885 -2
6 16 18 2348.53 28.9885 1
1 13 21 2720.11 71.8167 -2
6 16 18 2720.11 71.8167 1
1 1 25 1213.92 23.2174 -2
8 16 18 1213.92 23.2174 1
4 12 22 962.098 9.12184 -2
8 16 18 962.098 9.12184 1
10 12 20 1263.04 10.4212 -2
8 16 18 1263.04 10.4212 1
8 16 18 616.185 5.3538 1
1 11 23 1093.89 26.4213 -2
8 16 18 1093.89 26.4213 1
10 16 18 216.168 4.95792 1
0 2 26 286.119 4.85269 -2
10 16 18 286.119 4.85269 1
2 10 24 438.48 5.72092 -2
10 16 18 438.48 5.72092 1
5 11 23 252.671 15.06 -2
10 16 18 252.671 15.06 1
11 13 19 326.164 6.97381 -2
10 16 18 326.164 6.97381 1
12 16 18 479.772 4.37496 1
13 15 19 578.072 8.41157 -2
12 16 18 578.072 8.41157 1
1 3 27 548.452 14.415 -2
12 16 18 548.452 14.415 1
3 9 25 480.51 15.9277 -2
12 16 18 480.51 15.9277 1
5 9 25 669.5 20.7029 -2
12 16 18 669.5 20.7029 1
3 7 27 1142.58 19.3612 -2
14 16 18 1142.58 19.3612 1
14 16 18 932.932 8.61632 1
3 5 27 1307.68 18.9486 -2
14 16 18 1307.68 18.9486 1
6 8 26 1152.23 10.7019 -2
14 16 18 1152.23 10.7019 1
14 16 18 1266.27 9.68467 -2
14 16 18 1266.27 9.68467 1
16 16 18 1178.7 18.0532 1
4 6 28 1630.35 13.9213 -2
16 16 18 1630.35 13.9213 1
15 17 17 1533.11 28.1671 -2
16 16 18 1533.11 28.1671 1
7 7 27 1529.4 46.3549 -2
16 16 18 1529.4 46.3549 1
6 6 24 204.157 5.28346 -2
0 18 18 204.157 5.28346 1
0 18 18 67.872 3.96393 -2
0 18 18 67.872 3.96393 1
2 18 18 135.04 3.15512 1
7 7 23 311.471 14.6208 -2
2 18 18 311.471 14.6208 1
1 17 19 147.386 14.6619 -2
2 18 18 147.386 14.6619 1
5 5 25 584.472 21.3666 -2
2 18 18 584.472 21.3666 1
4 18 18 501.778 5.18015 1
9 9 23 849.334 19.5783 -2
4 18 18 849.334 19.5783 1
1 15 21 570.714 28.6069 -2
4 18 18 570.714 28.6069 1
3 3 25 702.324 30.6152 -2
4 18 18 702.324 30.6152 1
2 14 22 829.52 8.45715 -2
6 18 18 829.52 8.45715 1
10 10 22 1810.91 19.1206 -2
6 18 18 1810.91 19.1206 1
2 2 26 737.74 10.8914 -2
6 18 18 737.74 10.8914 1
8 18 18 101.431 3.2825 1
11 11 21 1484.44 19.9619 -2
8 18 18 1484.44 19.9619 1
1 1 27 129.835 14.4541 -2
8 18 18 129.835 14.4541 1
3 13 23 239.581 19.9475 -2
8 18 18 239.581 19.9475 1
10 18 18 9.09895 2.67849 1
13 13 21 444.586 10.2291 -2
10 18 18 444.586 10.2291 1
1 1 27 59.3524 14.3344 -2
10 18 18 59.3524 14.3344 1
3 11 25 12.5458 14.0238 -2
10 18 18 12.5458 14.0238 1
4 10 26 93.2674 3.57473 -2
12 18 18 93.2674 3.57473 1
2 2 28 61.0262 4.64332 -2
12 18 18 61.0262 4.64332 1
14 14 20 49.8751 4.17689 -2
12 18 18 49.8751 4.17689 1
14 18 18 495.991 6.86917 1
15 15 19 722.915 16.6879 -2
14 18 18 722.915 16.6879 1
3 3 29 623.902 18.8128 -2
14 18 18 623.902 18.8128 1
5 9 27 632.171 19.1533 -2
14 18 18 632.171 19.1533 1
16 18 18 794.402 9.35703 1
5 7 29 1141.95 18.7164 -2
16 18 18 1141.95 18.7164 1
17 17 19 1065.08 19.777 -2
16 18 18 1065.08 19.777 1
5 5 29 1166.02 23.4637 -2
16 18 18 1166.02 23.4637 1
6 6 30 397.928 9.0968 -2
18 18 18 397.928 9.0968 1
18 18 18 178.524 12.8365 -2
18 18 18 178.524 12.8365 1
1 1 19 1170.43 7.11562 1
5 13 13 1162.77 13.3644 -2
1 1 19 1162.77 13.3644 1
9 11 13 336.163 4.19891 -2
1 3 19 336.163 4.19891 1
1 3 19 34.7407 0.9944 1
5 11 15 303.345 3.74987 -2
1 3 19 303.345 3.74987 1
3 3 19 26.8845 0.94054 1
2 14 14 128.798 15.5341 -2
3 3 19 128.798 15.5341 1
1 5 19 194.746 1.64677 1
9 9 15 209.01 3.04087 -2
1 5 19 209.01 3.04087 1
2 12 16 200.108 12.7116 -2
1 5 19 200.108 12.7116 1
10 10 14 389.11 15.4913 -2
1 5 19 389.11 15.4913 1
1 13 15 526.273 5.34869 -2
3 5 19 526.273 5.34869 1
8 8 16 520.35 17.1737 -2
3 5 19 520.35 17.1737 1
3 5 19 336.222 3.01352 1
5 9 17 615.477 5.54485 -2
3 5 19 615.477 5.54485 1
10 12 12 804.999 24.1884 -2
3 5 19 804.999 24.1884 1
11 11 13 970.984 13.2909 -2
5 5 19 970.984 13.2909 1
6 8 18 1054.51 28.5894 -2
5 5 19 1054.51 28.5894 1
0 14 14 1556.98 25.2152 -2
5 5 19 1556.98 25.2152 1
5 5 19 701.911 5.61252 1
1 7 19 87.6057 1.45698 1
1 11 17 184.496 3.14187 -2
1 7 19 184.496 3.14187 1
2 10 18 119.297 5.12585 -2
1 7 19 119.297 5.12585 1
8 10 16 92.4158 11.3272 -2
1 7 19 92.4158 11.3272 1
3 7 19 5.90687 1.02344 1
9 13 13 157.35 2.918 -2
3 7 19 157.35 2.918 1
7 9 17 162.966 2.97218 -2
3 7 19 162.966 2.97218 1
0 12 16 198.274 6.36852 -2
3 7 19 198.274 6.36852 1
4 8 18 142.3 8.41635 -2
3 7 19 142.3 8.41635 1
5 7 19 383.34 2.88608 1
2 14 16 445.947 9.53813 -2
5 7 19 445.947 9.53813 1
5 7 19 530.903 4.36697 -2
5 7 19 530.903 4.36697 1
7 7 19 44.7148 1.25331 1
6 6 20 44.9603 10.2979 -2
7 7 19 44.9603 10.2979 1
3 15 15 128.129 4.68629 -2
7 7 19 128.129 4.68629 1
1 9 19 135.305 2.0655 1
7 13 15 248.851 3.61103 -2
1 9 19 248.851 3.61103 1
1 9 19 189.439 3.79429 -2
1 9 19 189.439 3.79429 1
0 10 18 208.829 10.3786 -2
1 9 19 208.829 10.3786 1
3 9 19 13.2411 0.92102 1
2 12 18 20.9239 7.91698 -2
3 9 19 20.9239 7.91698 1
2 8 20 23.6229 5.86081 -2
3 9 19 23.6229 5.86081 1
8 14 14 19.5125 8.73319 -2
3 9 19 19.5125 8.73319 1
3 13 17 248.156 4.12454 -2
5 9 19 248.156 4.12454 1
5 9 19 103.134 1.84108 1
5 9 19 148.584 3.29807 -2
5 9 19 148.584 3.29807 1
4 6 20 117.055 16.6012 -2
5 9 19 117.055 16.6012 1
5 5 21 43.1442 1.70124 -2
7 9 19 43.1442 1.70124 1
7 9 19 3.84782 1.37718 1
4 14 16 649.338 10.1079 -2
7 9 19 649.338 10.1079 1
9 11 17 96.8938 2.63692 -2
7 9 19 96.8938 2.63692 1
9 9 19 337.06 3.46936 1
6 16 16 1372.05 24.092 -2
9 9 19 1372.05 24.092 1
4 6 22 404.133 13.5646 -2
9 9 19 404.133 13.5646 1
1 11 19 459.553 3.09681 1
0 8 20 480.043 9.87124 -2
1 11 19 480.043 9.87124 1
5 13 17 668.461 6.8395 -2
1 11 19 668.461 6.8395 1
2 10 20 791.089 13.0689 -2
1 11 19 791.089 13.0689 1
3 11 19 134.151 2.42649 1
3 11 19 182.6 3.51512 -2
3 11 19 182.6 3.51512 1
1 7 21 139.031 3.00038 -2
3 11 19 139.031 3.00038 1
4 12 18 153.442 15.0224 -2
3 11 19 153.442 15.0224 1
5 11 19 20.2768 1.10137 1
4 12 18 39.6365 4.36599 -2
5 11 19 39.6365 4.36599 1
2 6 22 40.7063 6.70824 -2
5 11 19 40.7063 6.70824 1
4 10 20 123.944 7.29674 -2
5 11 19 123.944 7.29674 1
7 13 17 234.495 3.8882 -2
5 11 19 234.495 3.8882 1
3 9 21 832.26 7.18793 -2
7 11 19 832.26 7.18793 1
6 14 18 1020.57 11.6721 -2
7 11 19 1020.57 11.6721 1
7 11 19 598.794 3.79687 1
4 4 22 1006.62 19.709 -2
7 11 19 1006.62 19.709 1
8 12 18 645.222 20.4452 -2
7 11 19 645.222 20.4452 1
9 11 19 826.964 5.33298 1
7 15 17 1650.26 11.2732 -2
9 11 19 1650.26 11.2732 1
3 5 23 814.085 6.85409 -2
9 11 19 814.085 6.85409 1
2 8 22 910.746 18.4521 -2
9 11 19 910.746 18.4521 1
9 9 21 1979.51 18.9547 -2
11 11 19 1979.51 18.9547 1
11 11 19 1584.32 14.2458 1
2 6 24 1613.91 35.3282 -2
11 11 19 1613.91 35.3282 1
8 16 16 1848.63 23.7218 -2
11 11 19 1848.63 23.7218 1
1 13 19 166.631 2.34566 1
3 9 21 393.038 4.14924 -2
1 13 19 393.038 4.14924 1
4 14 18 530.462 26.6038 -2
1 13 19 530.462 26.6038 1
2 8 22 275.333 9.67599 -2
1 13 19 275.333 9.67599 1
3 13 19 24.7317 1.3264 1
5 15 17 1403.24 11.1495 -2
3 13 19 1403.24 11.1495 1
3 13 19 33.2322 1.92597 -2
3 13 19 33.2322 1.92597 1
4 10 20 126.217 8.10439 -2
3 13 19 126.217 8.10439 1
0 6 22 17.8554 7.5147 -2
3 13 19 17.8554 7.5147 1
1 5 23 74.1912 2.27013 -2
5 13 19 74.1912 2.27013 1
5 13 19 69.7183 1.52834 1
6 12 20 259.217 6.66579 -2
5 13 19 259.217 6.66579 1
2 12 20 269.071 18.5388 -2
5 13 19 269.071 18.5388 1
7 13 19 18.8822 1.26882 1
7 13 19 25.1746 1.81919 -2
7 13 19 25.1746 1.81919 1
2 4 24 27.9636 9.27786 -2
7 13 19 27.9636 9.27786 1
2 10 22 531.903 28.1277 -2
7 13 19 531.903 28.1277 1
7 11 21 406.326 5.56963 -2
9 13 19 406.326 5.56963 1
1 9 23 494.953 5.7603 -2
9 13 19 494.953 5.7603 1
8 14 18 194.437 5.73668 -2
9 13 19 194.437 5.73668 1
2 4 24 110.404 11.1296 -2
9 13 19 110.404 11.1296 1
9 13 19 107.336 3.14408 1
10 16 18 367.184 6.27006 -2
11 13 19 367.184 6.27006 1
11 13 19 284.234 3.73536 1
1 5 25 317.43 4.89493 -2
11 13 19 317.43 4.89493 1
0 8 24 480.199 14.8313 -2
11 13 19 480.199 14.8313 1
8 10 22 563.163 28.2508 -2
11 13 19 563.163 28.2508 1
11 17 17 200.271 5.88531 -2
13 13 19 200.271 5.88531 1
13 13 19 93.5556 2.89997 1
0 6 26 121.527 11.8987 -2
13 13 19 121.527 11.8987 1
3 17 17 274.987 4.91895 -2
1 15 19 274.987 4.91895 1
4 8 22 92.9661 9.00472 -2
1 15 19 92.9661 9.00472 1
1 15 19 0.60595 1.68526 1
3 7 23 4.37074 1.83205 -2
1 15 19 4.37074 1.83205 1
2 16 18 173.298 18.3074 -2
1 15 19 173.298 18.3074 1
3 15 19 307.051 2.55403 1
2 6 24 323.213 10.7112 -2
3 15 19 323.213 10.7112 1
6 10 22 344.79 10.1425 -2
3 15 19 344.79 10.1425 1
4 16 18 1051.8 35.7734 -2
3 15 19 1051.8 35.7734 1
2 14 20 379.423 24.504 -2
3 15 19 379.423 24.504 1
1 13 21 1594.84 13.077 -2
5 15 19 1594.84 13.077 1
5 15 19 1177.55 7.6451 1
7 11 21 1474.05 11.652 -2
5 15 19 1474.05 11.652 1
4 14 20 1233 27.1703 -2
5 15 19 1233 27.1703 1
0 4 24 1210 28.5007 -2
5 15 19 1210 28.5007 1
5 13 21 521.25 6.03025 -2
7 15 19 521.25 6.03025 1
0 12 22 1195.4 37.9828 -2
7 15 19 1195.4 37.9828 1
1 3 25 450.438 5.57467 -2
7 15 19 450.438 5.57467 1
8 12 20 712.266 12.1296 -2
7 15 19 712.266 12.1296 1
7 15 19 460.364 5.04105 1
10 14 20 298.779 7.29407 -2
9 15 19 298.779 7.29407 1
0 10 24 501.48 18.987 -2
9 15 19 501.48 18.987 1
9 15 19 192.321 2.80419 1
2 2 26 207.315 12.5136 -2
9 15 19 207.315 12.5136 1
6 12 22 380.238 19.7409 -2
9 15 19 380.238 19.7409 1
11 15 19 14.9513 2.73881 -2
11 15 19 14.9513 2.73881 1
11 15 19 10.8707 1.88351 1
1 9 25 140.084 3.79931 -2
11 15 19 140.084 3.79931 1
0 4 26 60.4897 11.363 -2
11 15 19 60.4897 11.363 1
6 10 24 38.8515 16.0492 -2
11 15 19 38.8515 16.0492 1
7 9 25 199.989 4.39785 -2
13 15 19 199.989 4.39785 1
12 16 18 371.414 7.99406 -2
13 15 19 371.414 7.99406 1
13 15 19 180.114 5.65745 1
1 5 27 385.532 6.00922 -2
13 15 19 385.532 6.00922 1
2 8 26 223.287 23.0008 -2
13 15 19 223.287 23.0008 1
8 8 26 553.629 25.6304 -2
15 15 19 553.629 25.6304 1
2 6 28 650.543 11.8332 -2
15 15 19 650.543 11.8332 1
15 15 19 526.933 7.42579 1
14 18 18 739.507 15.1384 -2
15 15 19 739.507 15.1384 1
2 18 18 125.475 14.5517 -2
1 17 19 125.475 14.5517 1
1 17 19 106.105 3.19368 -2
1 17 19 106.105 3.19368 1
1 17 19 81.1555 2.00689 1
6 8 24 211.972 10.9329 -2
1 17 19 211.972 10.9329 1
4 6 24 359.821 10.515 -2
1 17 19 359.821 10.515 1
3 17 19 625.658 5.17832 1
3 5 25 874.58 8.21603 -2
3 17 19 874.58 8.21603 1
7 9 23 626.347 6.17639 -2
3 17 19 626.347 6.17639 1
2 16 20 611.317 28.0671 -2
3 17 19 611.317 28.0671 1
0 16 20 632.525 27.7047 -2
3 17 19 632.525 27.7047 1
5 17 19 1291.28 8.13048 1
8 10 22 1581.51 16.2179 -2
5 17 19 1581.51 16.2179 1
3 15 21 1237.14 10.8956 -2
5 17 19 1237.14 10.8956 1
2 4 26 1588.33 28.7862 -2
5 17 19 1588.33 28.7862 1
10 12 22 1729.51 17.9194 -2
7 17 19 1729.51 17.9194 1
7 17 19 869.164 8.05112 1
4 14 22 852.362 19.0355 -2
7 17 19 852.362 19.0355 1
1 13 23 1245.09 11.254 -2
7 17 19 1245.09 11.254 1
0 2 26 978.44 20.2624 -2
7 17 19 978.44 20.2624 1
11 13 21 737.961 7.88843 -2
9 17 19 737.961 7.88843 1
1 1 27 234.599 4.75591 -2
9 17 19 234.599 4.75591 1
9 17 19 184.772 3.66126 1
4 12 24 196.394 13.4251 -2
9 17 19 196.394 13.4251 1
11 17 19 70.2377 3.06561 1
5 11 25 71.8367 3.23691 -2
11 17 19 71.8367 3.23691 1
2 10 26 90.0618 15.2279 -2
11 17 19 90.0618 15.2279 1
12 14 20 221.316 7.73477 -2
11 17 19 221.316 7.73477 1
0 2 28 79.7747 8.96124 -2
11 17 19 79.7747 8.96124 1
13 17 19 281.655 4.54538 1
14 16 20 367.63 10.1292 -2
13 17 19 367.63 10.1292 1
3 9 27 276.377 5.0718 -2
13 17 19 276.377 5.0718 1
2 4 28 439.216 11.9432 -2
13 17 19 439.216 11.9432 1
15 17 19 1359.75 11.2473 -2
15 17 19 1359.75 11.2473 1
15 17 19 972.38 9.14785 1
6 8 28 1340.74 22.9474 -2
15 17 19 1340.74 22.9474 1
4 8 28 1142.19 29.8457 -2
15 17 19 1142.19 29.8457 1
3 5 29 1156.88 10.7488 -2
15 17 19 1156.88 10.7488 1
16 18 18 1060.56 18.0168 -2
17 17 19 1060.56 18.0168 1
17 17 19 695.761 11.6083 1
7 7 29 951.698 15.7185 -2
17 17 19 951.698 15.7185 1
4 6 30 926.757 15.7156 -2
17 17 19 926.757 15.7156 1
7 7 25 480.234 8.08019 -2
1 19 19 480.234 8.08019 1
1 19 19 456.631 6.2491 1
0 18 20 493.124 28.4262 -2
1 19 19 493.124 28.4262 1
3 19 19 126.958 5.37467 1
8 8 24 108.966 10.9667 -2
3 19 19 108.966 10.9667 1
1 17 21 176.391 4.56885 -2
3 19 19 176.391 4.56885 1
4 4 26 525.874 18.0444 -2
3 19 19 525.874 18.0444 1
3 3 27 227.225 6.92413 -2
5 19 19 227.225 6.92413 1
5 19 19 6.34503 2.64195 1
2 16 22 30.7378 22.398 -2
5 19 19 30.7378 22.398 1
10 10 24 511.261 13.3153 -2
5 19 19 511.261 13.3153 1
7 19 19 32.0461 2.74912 1
2 2 28 23.7342 10.1645 -2
7 19 19 23.7342 10.1645 1
11 11 23 956.542 13.5367 -2
7 19 19 956.542 13.5367 1
2 14 24 44.4098 24.1061 -2
7 19 19 44.4098 24.1061 1
9 19 19 92.8822 6.37693 1
3 13 25 185.556 4.84426 -2
9 19 19 185.556 4.84426 1
12 12 22 969.98 15.4661 -2
9 19 19 969.98 15.4661 1
0 0 28 311.887 17.3578 -2
9 19 19 311.887 17.3578 1
1 1 29 773.044 11.9165 -2
11 19 19 773.044 11.9165 1
11 19 19 586.513 7.93428 1
14 14 22 644.176 19.8791 -2
11 19 19 644.176 19.8791 1
13 19 19 50.8115 4.04834 1
2 2 30 120.618 14.7112 -2
13 19 19 120.618 14.7112 1
4 10 28 67.9979 15.2815 -2
13 19 19 67.9979 15.2815 1
15 15 21 61.0319 5.66289 -2
13 19 19 61.0319 5.66289 1
15 19 19 140.183 9.49656 1
5 9 29 257.075 6.19211 -2
15 19 19 257.075 6.19211 1
16 16 20 401.723 13.1049 -2
15 19 19 401.723 13.1049 1
4 4 30 155.164 14.1165 -2
15 19 19 155.164 14.1165 1
6 8 30 282.915 24.5704 -2
17 19 19 282.915 24.5704 1
18 18 20 42.3818 14.668 -2
17 19 19 42.3818 14.668 1
5 5 31 194.811 7.20907 -2
17 19 19 194.811 7.20907 1
17 19 19 54.9053 5.83612 1
19 19 19 372.822 15.7842 1
19 19 19 501.865 21.8532 -2
19 19 19 501.865 21.8532 1
6 6 32 327.173 39.8024 -2
19 19 19 327.173 39.8024 1
0 0 20 2551.25 33.4741 1
0 2 20 1126.95 9.69859 1
8 12 14 1152.74 9.37155 -2
0 2 20 1152.74 9.37155 1
2 2 20 605.373 4.49485 1
4 14 14 684.055 12.0438 -2
2 2 20 684.055 12.0438 1
4 12 16 183.513 2.94786 -2
0 4 20 183.513 2.94786 1
0 4 20 57.761 1.66768 1
2 4 20 10.6534 0.83573 1
8 10 16 18.4708 1.48752 -2
2 4 20 18.4708 1.48752 1
4 4 20 24.2619 1.1762 1
12 12 12 393.401 6.57769 -2
4 4 20 393.401 6.57769 1
1 15 15 205.203 13.4081 -2
4 4 20 205.203 13.4081 1
7 9 17 186.5 11.1192 -2
4 4 20 186.5 11.1192 1
0 6 20 135.103 2.02086 1
9 11 15 188.065 12.9651 -2
0 6 20 188.065 12.9651 1
3 11 17 129.546 18.2944 -2
0 6 20 129.546 18.2944 1
2 6 20 133.829 2.21239 1
4 10 18 157.984 2.25991 -2
2 6 20 157.984 2.25991 1
10 12 14 199.053 2.90338 -2
2 6 20 199.053 2.90338 1
9 9 17 329.883 14.8296 -2
2 6 20 329.883 14.8296 1
1 13 17 127.072 8.09775 -2
2 6 20 127.072 8.09775 1
8 8 18 37.8543 1.63533 -2
4 6 20 37.8543 1.63533 1
0 14 16 77.427 2.65768 -2
4 6 20 77.427 2.65768 1
4 6 20 38.6158 1.20053 1
5 9 19 59.93 8.42374 -2
4 6 20 59.93 8.42374 1
6 6 20 3.77995 1.33022 1
1 15 15 172.38 12.7237 -2
6 6 20 172.38 12.7237 1
7 7 19 -9.6527 10.2154 -2
6 6 20 -9.6527 10.2154 1
0 8 20 69.2418 2.28055 1
8 12 16 83.3739 2.38 -2
0 8 20 83.3739 2.38 1
1 11 19 255.277 7.69529 -2
0 8 20 255.277 7.69529 1
3 9 19 44.1605 16.9437 -2
2 8 20 44.1605 16.9437 1
2 8 20 34.1431 1.10753 1
0 12 18 133.336 2.92141 -2
2 8 20 133.336 2.92141 1
4 8 20 47.5592 1.36946 1
4 8 20 64.7136 2.15514 -2
4 8 20 64.7136 2.15514 1
1 13 17 38.0988 8.48854 -2
4 8 20 38.0988 8.48854 1
7 9 19 44.4033 11.9872 -2
4 8 20 44.4033 11.9872 1
3 15 17 699.428 11.0652 -2
6 8 20 699.428 11.0652 1
6 8 20 148.378 2.8661 1
6 8 20 207.302 3.06411 -2
6 8 20 207.302 3.06411 1
10 12 16 177.874 3.25321 -2
6 8 20 177.874 3.25321 1
5 7 21 201.137 14.3044 -2
6 8 20 201.137 14.3044 1
8 8 20 76.3119 1.76086 1
4 16 16 818.484 11.0525 -2
8 8 20 818.484 11.0525 1
5 7 21 130.288 18.8849 -2
8 8 20 130.288 18.8849 1
0 10 20 1083.16 9.99827 -2
0 10 20 1083.16 9.99827 1
0 10 20 790.816 7.30473 1
1 11 19 1109.56 17.0213 -2
2 10 20 1109.56 17.0213 1
2 10 20 900.908 5.12798 1
6 12 18 878.913 7.48937 -2
2 10 20 878.913 7.48937 1
1 9 21 1250.07 21.7682 -2
2 10 20 1250.07 21.7682 1
7 15 15 1163.76 34.819 -2
2 10 20 1163.76 34.819 1
4 10 20 256.466 2.59437 1
8 14 16 499.482 5.42572 -2
4 10 20 499.482 5.42572 1
3 13 19 260.945 7.14429 -2
4 10 20 260.945 7.14429 1
3 7 21 248.211 21.2837 -2
4 10 20 248.211 21.2837 1
4 6 22 490.569 4.60239 -2
6 10 20 490.569 4.60239 1
6 10 20 446.386 3.29163 1
4 14 18 783.238 7.64752 -2
6 10 20 783.238 7.64752 1
8 10 20 558.245 3.93228 1
5 15 17 1896.91 21.5385 -2
8 10 20 1896.91 21.5385 1
4 8 22 611.573 5.72958 -2
8 10 20 611.573 5.72958 1
5 5 23 799.577 18.266 -2
8 10 20 799.577 18.266 1
10 10 20 2686.71 20.3064 1
10 10 20 3675.12 34.9473 -2
10 10 20 3675.12 34.9473 1
3 7 23 2713.86 41.2306 -2
10 10 20 2713.86 41.2306 1
7 17 17 3088.63 56.6537 -2
10 10 20 3088.63 56.6537 1
1 9 21 1256.88 23.5901 -2
0 12 20 1256.88 23.5901 1
0 12 20 923.143 6.11018 1
6 16 16 1638.89 12.8434 -2
2 12 20 1638.89 12.8434 1
2 12 20 562.029 5.41919 1
0 8 22 782.104 6.54391 -2
2 12 20 782.104 6.54391 1
3 11 21 1017.32 13.2317 -2
2 12 20 1017.32 13.2317 1
5 13 19 582.843 23.0977 -2
2 12 20 582.843 23.0977 1
4 12 20 83.7985 1.95696 1
4 12 20 108.473 2.37456 -2
4 12 20 108.473 2.37456 1
1 7 23 143.319 8.33562 -2
4 12 20 143.319 8.33562 1
7 15 17 969.682 27.9112 -2
4 12 20 969.682 27.9112 1
6 12 20 495.299 3.13269 1
5 13 19 513.79 7.27663 -2
6 12 20 513.79 7.27663 1
3 5 23 527.377 11.9272 -2
6 12 20 527.377 11.9272 1
7 13 19 541.355 19.5591 -2
6 12 20 541.355 19.5591 1
3 11 21 894.414 29.5961 -2
6 12 20 894.414 29.5961 1
8 12 20 685.732 6.64834 1
7 15 19 870.818 10.2762 -2
8 12 20 870.818 10.2762 1
4 4 24 859.065 7.98755 -2
8 12 20 859.065 7.98755 1
8 12 20 935.549 8.37865 -2
8 12 20 935.549 8.37865 1
3 9 23 939.505 36.7849 -2
8 12 20 939.505 36.7849 1
10 12 20 1717.41 10.8084 1
2 8 24 1761.71 13.6672 -2
10 12 20 1761.71 13.6672 1
8 16 18 1942.61 15.0366 -2
10 12 20 1942.61 15.0366 1
3 5 25 1995.23 29.0553 -2
10 12 20 1995.23 29.0553 1
9 11 21 2617.58 48.0471 -2
10 12 20 2617.58 48.0471 1
12 12 20 1461.63 10.9516 1
1 7 25 1526.33 32.3283 -2
12 12 20 1526.33 32.3283 1
9 17 17 1458.97 23.0429 -2
12 12 20 1458.97 23.0429 1
0 14 20 459.958 7.71912 1
3 9 23 691.277 13.6628 -2
0 14 20 691.277 13.6628 1
4 16 18 1192.85 10.5701 -2
0 14 20 1192.85 10.5701 1
2 14 20 118.571 2.16367 1
4 10 22 543.061 5.74827 -2
2 14 20 543.061 5.74827 1
3 15 19 225.052 18.9432 -2
2 14 20 225.052 18.9432 1
1 7 23 146.283 7.99528 -2
2 14 20 146.283 7.99528 1
4 14 20 73.8488 1.82543 1
5 11 21 403.965 9.45245 -2
4 14 20 403.965 9.45245 1
0 6 24 79.5291 2.6146 -2
4 14 20 79.5291 2.6146 1
3 13 21 203.511 23.8144 -2
4 14 20 203.511 23.8144 1
5 15 19 551.264 22.1763 -2
4 14 20 551.264 22.1763 1
7 13 21 116.717 6.24392 -2
6 14 20 116.717 6.24392 1
6 14 20 42.0243 2.30814 1
6 14 20 57.2277 2.80745 -2
6 14 20 57.2277 2.80745 1
2 12 22 584.218 6.55472 -2
6 14 20 584.218 6.55472 1
1 5 25 89.2385 9.40715 -2
6 14 20 89.2385 9.40715 1
8 14 20 1.22828 1.42112 1
8 14 20 3.14202 2.44283 -2
8 14 20 3.14202 2.44283 1
3 3 25 173.608 10.0441 -2
8 14 20 173.608 10.0441 1
7 13 21 102.894 13.0727 -2
8 14 20 102.894 13.0727 1
1 9 25 397.841 15.5268 -2
10 14 20 397.841 15.5268 1
2 4 26 525.849 6.30503 -2
10 14 20 525.849 6.30503 1
10 14 20 259.572 3.74258 1
9 15 19 323.489 8.08977 -2
10 14 20 323.489 8.08977 1
7 11 23 408.558 20.3083 -2
10 14 20 408.558 20.3083 1
0 8 26 487.384 6.2971 -2
12 14 20 487.384 6.2971 1
12 14 20 375.774 7.22438 1
1 5 27 591.429 17.3119 -2
12 14 20 591.429 17.3119 1
11 17 19 438.788 10.1014 -2
12 14 20 438.788 10.1014 1
8 10 24 477.161 5.6467 -2
12 14 20 477.161 5.6467 1
14 14 20 1.76074 2.57481 1
1 7 27 74.9038 22.1603 -2
14 14 20 74.9038 22.1603 1
12 18 18 13.7068 4.04215 -2
14 14 20 13.7068 4.04215 1
0 16 20 2.33958 2.78623 1
4 8 24 126.139 3.31802 -2
0 16 20 126.139 3.31802 1
3 17 19 246.33 24.3869 -2
0 16 20 246.33 24.3869 1
2 16 20 8.16491 1.51296 1
3 7 25 105.529 10.0163 -2
2 16 20 105.529 10.0163 1
2 16 20 11.8528 2.35936 -2
2 16 20 11.8528 2.35936 1
5 9 23 -0.4998 7.57621 -2
2 16 20 -0.4998 7.57621 1
3 17 19 204.831 22.5107 -2
2 16 20 204.831 22.5107 1
1 5 25 639.281 17.4783 -2
4 16 20 639.281 17.4783 1
4 16 20 587.084 4.61274 1
7 11 23 726.155 12.5917 -2
4 16 20 726.155 12.5917 1
4 16 20 790.676 7.9935 -2
4 16 20 790.676 7.9935 1
6 16 20 747.646 6.02213 1
0 4 26 787.437 7.82371 -2
6 16 20 787.437 7.82371 1
8 12 22 1178.37 10.7882 -2
6 16 20 1178.37 10.7882 1
5 15 21 859.558 22.1105 -2
6 16 20 859.558 22.1105 1
1 13 23 1201.06 42.3861 -2
6 16 20 1201.06 42.3861 1
8 16 20 442.243 4.84251 1
9 13 21 812.827 13.5132 -2
8 16 20 812.827 13.5132 1
1 3 27 491.723 16.4037 -2
8 16 20 491.723 16.4037 1
0 12 24 710.843 8.30655 -2
8 16 20 710.843 8.30655 1
5 13 23 454.776 17.8786 -2
8 16 20 454.776 17.8786 1
10 16 20 3.58684 2.13838 1
6 12 24 21.7834 2.69997 -2
10 16 20 21.7834 2.69997 1
11 15 21 160.511 7.20382 -2
10 16 20 160.511 7.20382 1
1 3 27 50.1755 9.7843 -2
10 16 20 50.1755 9.7843 1
1 11 25 156.031 21.009 -2
10 16 20 156.031 21.009 1
12 16 20 6.36233 2.20766 1
12 16 20 2.06534 3.51981 -2
12 16 20 2.06534 3.51981 1
1 9 27 37.7268 11.7834 -2
12 16 20 37.7268 11.7834 1
0 4 28 67.8315 3.22498 -2
12 16 20 67.8315 3.22498 1
7 11 25 52.4982 14.9325 -2
12 16 20 52.4982 14.9325 1
2 8 28 235.967 5.30134 -2
14 16 20 235.967 5.30134 1
1 5 29 253.291 11.6667 -2
14 16 20 253.291 11.6667 1
14 16 20 231.212 5.01672 1
13 17 19 349.828 8.63141 -2
14 16 20 349.828 8.63141 1
7 9 27 272.954 15.9476 -2
14 16 20 272.954 15.9476 1
16 16 20 660.147 11.075 1
15 19 19 734.821 16.5847 -2
16 16 20 734.821 16.5847 1
3 7 29 750.552 17.2572 -2
16 16 20 750.552 17.2572 1
8 8 28 699.191 12.9409 -2
16 16 20 699.191 12.9409 1
0 18 20 192.781 3.80551 1
5 7 25 510.674 31.4008 -2
0 18 20 510.674 31.4008 1
2 18 20 83.3577 3.49117 -2
2 18 20 83.3577 3.49117 1
4 6 26 583.265 6.68179 -2
2 18 20 583.265 6.68179 1
2 18 20 60.7048 2.58689 1
7 9 25 100.583 12.3756 -2
2 18 20 100.583 12.3756 1
1 17 21 124.412 23.4453 -2
2 18 20 124.412 23.4453 1
4 18 20 14.0282 2.2685 1
3 5 27 435.342 22.1212 -2
4 18 20 435.342 22.1212 1
8 10 24 114.911 3.64847 -2
4 18 20 114.911 3.64847 1
0 16 22 67.8714 3.13692 -2
4 18 20 67.8714 3.13692 1
3 17 21 19.5872 22.6829 -2
4 18 20 19.5872 22.6829 1
6 18 20 79.2027 2.16675 1
9 11 23 630.498 9.96898 -2
6 18 20 630.498 9.96898 1
1 3 27 108.701 12.5223 -2
6 18 20 108.701 12.5223 1
3 15 23 55.1169 22.9953 -2
6 18 20 55.1169 22.9953 1
8 18 20 16.2694 3.22968 1
11 13 23 452.361 10.888 -2
8 18 20 452.361 10.888 1
4 14 24 121.504 4.00536 -2
8 18 20 121.504 4.00536 1
0 2 28 37.6234 3.07716 -2
8 18 20 37.6234 3.07716 1
1 13 25 41.1193 20.8873 -2
8 18 20 41.1193 20.8873 1
12 14 22 513.895 7.18559 -2
10 18 20 513.895 7.18559 1
10 18 20 153.291 4.05244 1
2 12 26 177.508 4.60447 -2
10 18 20 177.508 4.60447 1
5 13 25 291.671 17.1956 -2
10 18 20 291.671 17.1956 1
1 1 29 344.001 11.7136 -2
10 18 20 344.001 11.7136 1
12 18 20 168.433 3.30027 1
13 15 21 189.131 8.9797 -2
12 18 20 189.131 8.9797 1
1 3 29 164.948 10.925 -2
12 18 20 164.948 10.925 1
3 11 27 237.304 18.1788 -2
12 18 20 237.304 18.1788 1
6 10 28 151.18 5.22526 -2
14 18 20 151.18 5.22526 1
15 17 21 153.794 8.50424 -2
14 18 20 153.794 8.50424 1
2 4 30 90.5653 3.88589 -2
14 18 20 90.5653 3.88589 1
14 18 20 86.4968 5.48779 1
3 9 29 113.396 10.8109 -2
14 18 20 113.396 10.8109 1
4 8 30 361.583 7.02774 -2
16 18 20 361.583 7.02774 1
16 18 20 429.771 6.96048 -2
16 18 20 429.771 6.96048 1
16 18 20 316.111 6.56045 1
7 9 29 434.259 20.8652 -2
16 18 20 434.259 20.8652 1
3 5 31 338.821 15.2835 -2
16 18 20 338.821 15.2835 1
18 18 20 1.27145 4.42242 1
17 19 19 11.9361 16.5485 -2
18 18 20 11.9361 16.5485 1
5 7 31 94.7374 25.8557 -2
18 18 20 94.7374 25.8557 1
7 7 31 37.0223 36.2338 -2
18 18 20 37.0223 36.2338 1
0 20 20 1303.38 18.5793 -2
0 20 20 1303.38 18.5793 1
7 7 27 1296.29 23.7568 -2
0 20 20 1296.29 23.7568 1
0 20 20 985.72 17.7023 1
2 20 20 983.942 9.41879 1
8 8 26 968.811 13.739 -2
2 20 20 968.811 13.739 1
1 19 21 1239.18 43.0709 -2
2 20 20 1239.18 43.0709 1
5 5 27 1655.57 38.7477 -2
2 20 20 1655.57 38.7477 1
4 4 28 715.946 11.2312 -2
4 20 20 715.946 11.2312 1
4 20 20 344.127 7.22713 1
9 9 25 424.33 16.8516 -2
4 20 20 424.33 16.8516 1
1 17 23 438.353 19.6683 -2
4 20 20 438.353 19.6683 1
6 20 20 240.799 10.7424 1
11 11 25 443.683 17.7805 -2
6 20 20 443.683 17.7805 1
3 3 29 359.099 17.7744 -2
6 20 20 359.099 17.7744 1
2 16 24 246.353 6.64633 -2
6 20 20 246.353 6.64633 1
1 1 29 200.338 16.7702 -2
8 20 20 200.338 16.7702 1
8 20 20 252.299 6.20823 1
12 12 24 595.536 12.4293 -2
8 20 20 595.536 12.4293 1
3 15 25 525.451 35.9562 -2
8 20 20 525.451 35.9562 1
10 20 20 1033.86 16.5064 1
0 0 30 1476.4 17.6459 -2
10 20 20 1476.4 17.6459 1
3 13 27 1252.84 34.4929 -2
10 20 20 1252.84 34.4929 1
13 13 23 1431.08 25.448 -2
10 20 20 1431.08 25.448 1
12 20 20 1234.35 23.704 1
15 15 23 1264.1 19.6798 -2
12 20 20 1264.1 19.6798 1
4 12 28 1345.69 14.0162 -2
12 20 20 1345.69 14.0162 1
1 1 31 1702.38 60.1828 -2
12 20 20 1702.38 60.1828 1
14 20 20 180.188 5.34467 1
16 16 22 201.42 8.20933 -2
14 20 20 201.42 8.20933 1
5 11 29 175.901 33.5561 -2
14 20 20 175.901 33.5561 1
4 4 32 4.48709 5.43825 -2
16 20 20 4.48709 5.43825 1
16 20 20 12.0204 6.56962 1
17 17 21 75.3604 16.4831 -2
16 20 20 75.3604 16.4831 1
5 9 31 -5.2288 20.207 -2
16 20 20 -5.2288 20.207 1
6 8 32 304.597 8.95213 -2
18 20 20 304.597 8.95213 1
19 19 21 506.948 19.1917 -2
18 20 20 506.948 19.1917 1
18 20 20 336.58 20.3228 1
5 5 33 205.13 20.0079 -2
18 20 20 205.13 20.0079 1
20 20 20 1230.43 33.886 1
7 7 33 1294.45 39.5964 -2
20 20 20 1294.45 39.5964 1
20 20 20 1642.6 39.4897 -2
20 20 20 1642.6 39.4897 1
7 13 15 2808.44 22.8176 -2
1 1 21 2808.44 22.8176 1
1 1 21 2791.58 20.3705 1
1 3 21 765.415 3.59128 1
4 14 16 1414.4 42.8083 -2
1 3 21 1414.4 42.8083 1
11 13 13 380.407 6.38811 -2
3 3 21 380.407 6.38811 1
3 15 15 380.545 6.25709 -2
3 3 21 380.545 6.25709 1
7 11 17 296.35 4.53702 -2
3 3 21 296.35 4.53702 1
11 11 15 553.196 5.73414 -2
1 5 21 553.196 5.73414 1
3 13 17 570.813 6.1722 -2
1 5 21 570.813 6.1722 1
1 5 21 439.006 3.25517 1
4 12 18 481.623 23.8165 -2
1 5 21 481.623 23.8165 1
10 10 16 577.836 19.3368 -2
1 5 21 577.836 19.3368 1
3 5 21 158.46 1.66131 1
2 14 16 229.499 13.9945 -2
3 5 21 229.499 13.9945 1
8 10 18 264.355 13.4187 -2
3 5 21 264.355 13.4187 1
5 5 21 100.737 3.10441 1
7 9 19 98.6956 2.2687 -2
5 5 21 98.6956 2.2687 1
0 16 16 180.618 13.9121 -2
5 5 21 180.618 13.9121 1
9 11 17 115.685 2.73555 -2
1 7 21 115.685 2.73555 1
3 11 19 70.9977 1.98711 -2
1 7 21 70.9977 1.98711 1
1 7 21 17.5936 1.30498 1
2 12 18 19.6051 8.38241 -2
1 7 21 19.6051 8.38241 1
3 7 21 58.9103 1.1327 1
4 10 20 162.566 20.101 -2
3 7 21 162.566 20.101 1
0 14 18 58.4069 7.40987 -2
3 7 21 58.4069 7.40987 1
8 10 18 140.043 13.4189 -2
3 7 21 140.043 13.4189 1
5 7 21 196.871 2.3001 1
11 13 15 203.063 4.80357 -2
5 7 21 203.063 4.80357 1
1 15 17 218.384 4.48394 -2
5 7 21 218.384 4.48394 1
6 8 20 245.225 7.00476 -2
5 7 21 245.225 7.00476 1
8 8 20 234.486 14.4772 -2
5 7 21 234.486 14.4772 1
7 7 21 1083.46 9.03538 -2
7 7 21 1083.46 9.03538 1
2 16 16 798.527 20.1365 -2
7 7 21 798.527 20.1365 1
7 7 21 790.391 10.3738 1
1 9 21 813.113 4.08615 1
2 10 20 1184.48 21.1154 -2
1 9 21 1184.48 21.1154 1
0 12 20 1193.74 22.6375 -2
1 9 21 1193.74 22.6375 1
7 11 19 821.777 7.49957 -2
3 9 21 821.777 7.49957 1
1 13 19 651.216 6.43465 -2
3 9 21 651.216 6.43465 1
9 15 15 633.799 6.90745 -2
3 9 21 633.799 6.90745 1
3 9 21 829.324 7.03287 -2
3 9 21 829.324 7.03287 1
5 9 21 238.295 2.15431 1
2 14 18 326.958 9.16045 -2
5 9 21 326.958 9.16045 1
4 8 22 345.833 11.8923 -2
5 9 21 345.833 11.8923 1
7 9 21 14.6385 0.95015 1
4 16 18 731.279 12.9556 -2
7 9 21 731.279 12.9556 1
6 6 22 456.095 24.3099 -2
7 9 21 456.095 24.3099 1
6 8 22 166.152 21.4696 -2
7 9 21 166.152 21.4696 1
11 11 19 1635.35 16.9958 -2
9 9 21 1635.35 16.9958 1
5 7 23 1307.62 10.6852 -2
9 9 21 1307.62 10.6852 1
5 17 17 1653.76 19.0837 -2
9 9 21 1653.76 19.0837 1
7 15 17 2507.51 18.292 -2
1 11 21 2507.51 18.292 1
1 11 21 1684.98 10.5602 1
0 10 22 2283.39 45.0825 -2
1 11 21 2283.39 45.0825 1
1 11 21 2269.45 17.5272 -2
1 11 21 2269.45 17.5272 1
6 14 18 2069.39 54.5481 -2
1 11 21 2069.39 54.5481 1
3 11 21 1151.29 5.28239 1
2 12 20 1394.63 17.3252 -2
3 11 21 1394.63 17.3252 1
2 8 22 1253.88 25.2066 -2
3 11 21 1253.88 25.2066 1
8 14 18 937.359 32.0021 -2
5 11 21 937.359 32.0021 1
4 14 20 886.583 12.0679 -2
5 11 21 886.583 12.0679 1
3 7 23 823.601 7.53146 -2
5 11 21 823.601 7.53146 1
5 11 21 837.454 7.41358 1
5 11 21 1134.79 10.1044 -2
5 11 21 1134.79 10.1044 1
5 15 19 1191.42 10.5433 -2
7 11 21 1191.42 10.5433 1
7 11 21 748.488 5.41936 1
9 13 19 768.069 7.80653 -2
7 11 21 768.069 7.80653 1
4 6 24 1012.28 17.3794 -2
7 11 21 1012.28 17.3794 1
6 16 18 3157.62 33.881 -2
9 11 21 3157.62 33.881 1
4 8 24 2477.44 39.8901 -2
9 11 21 2477.44 39.8901 1
9 11 21 2276.99 10.3871 1
4 6 24 2574.92 39.625 -2
9 11 21 2574.92 39.625 1
11 11 21 3593.01 34.7991 1
3 7 25 3633.09 25.7152 -2
11 11 21 3633.09 25.7152 1
8 18 18 3716.84 48.0829 -2
11 11 21 3716.84 48.0829 1
1 9 23 1524.81 12.6763 -2
1 13 21 1524.81 12.6763 1
5 15 19 1574.94 13.1069 -2
1 13 21 1574.94 13.1069 1
1 13 21 1161.46 8.68678 1
2 10 22 1674.25 20.4486 -2
1 13 21 1674.25 20.4486 1
3 13 21 300.81 2.94208 1
0 8 24 491.902 15.4108 -2
3 13 21 491.902 15.4108 1
4 12 22 680.167 11.2766 -2
3 13 21 680.167 11.2766 1
4 14 20 303.189 19.8379 -2
3 13 21 303.189 19.8379 1
2 6 24 223.235 9.45677 -2
5 13 21 223.235 9.45677 1
5 13 21 256.167 4.74825 -2
5 13 21 256.167 4.74825 1
7 15 19 359.743 5.32738 -2
5 13 21 359.743 5.32738 1
5 13 21 183.89 3.26869 1
6 14 20 183.173 7.32555 -2
7 13 21 183.173 7.32555 1
7 13 21 175.872 4.27074 1
3 5 25 429.57 5.54468 -2
7 13 21 429.57 5.54468 1
3 11 23 540.398 6.32603 -2
7 13 21 540.398 6.32603 1
8 14 20 155.497 13.139 -2
7 13 21 155.497 13.139 1
8 16 20 1127.68 15.7638 -2
9 13 21 1127.68 15.7638 1
9 13 21 933.051 5.63929 1
2 10 24 1194.86 23.0278 -2
9 13 21 1194.86 23.0278 1
4 4 26 1343.23 24.3481 -2
9 13 21 1343.23 24.3481 1
11 13 21 1474.6 10.5321 1
9 11 23 1977.09 15.5893 -2
11 13 21 1977.09 15.5893 1
2 6 26 1647.05 34.3425 -2
11 13 21 1647.05 34.3425 1
9 17 19 1537.91 14.588 -2
11 13 21 1537.91 14.588 1
2 8 26 1496.6 46.3263 -2
11 13 21 1496.6 46.3263 1
13 13 21 1097 15.8202 1
1 7 27 1105.46 9.96757 -2
13 13 21 1105.46 9.96757 1
10 18 18 1133.82 22.8891 -2
13 13 21 1133.82 22.8891 1
10 10 24 1649.57 52.4673 -2
13 13 21 1649.57 52.4673 1
1 15 21 114.194 2.05188 1
4 10 24 110.149 7.46195 -2
1 15 21 110.149 7.46195 1
2 8 24 186.048 9.71568 -2
1 15 21 186.048 9.71568 1
1 7 25 73.8648 2.70033 -2
3 15 21 73.8648 2.70033 1
3 15 21 6.40881 2.63797 -2
3 15 21 6.40881 2.63797 1
5 17 19 507.242 6.41441 -2
3 15 21 507.242 6.41441 1
5 11 23 61.2075 3.23225 -2
3 15 21 61.2075 3.23225 1
5 15 21 251.128 3.00806 1
6 12 22 391.745 10.1541 -2
5 15 21 391.745 10.1541 1
2 14 22 376.498 22.6651 -2
5 15 21 376.498 22.6651 1
0 6 26 268.339 13.8975 -2
5 15 21 268.339 13.8975 1
6 14 22 304.577 20.1622 -2
7 15 21 304.577 20.1622 1
7 15 21 285.691 3.50729 1
8 14 22 307.211 9.7595 -2
7 15 21 307.211 9.7595 1
2 12 24 505.399 19.257 -2
7 15 21 505.399 19.257 1
2 4 26 556.86 13.5393 -2
7 15 21 556.86 13.5393 1
7 13 23 42.5735 3.19374 -2
9 15 21 42.5735 3.19374 1
3 3 27 231.378 5.11327 -2
9 15 21 231.378 5.11327 1
9 15 21 -1.037 2.82605 -2
9 15 21 -1.037 2.82605 1
1 11 25 173.132 4.80911 -2
9 15 21 173.132 4.80911 1
11 15 21 418.608 4.28249 1
8 12 24 484.818 30.6755 -2
11 15 21 484.818 30.6755 1
2 4 28 612.198 14.0774 -2
11 15 21 612.198 14.0774 1
10 16 20 413.941 9.70171 -2
11 15 21 413.941 9.70171 1
0 10 26 583.302 33.4759 -2
11 15 21 583.302 33.4759 1
12 18 20 150.383 8.25807 -2
13 15 21 150.383 8.25807 1
0 6 28 102.055 16.47 -2
13 15 21 102.055 16.47 1
13 15 21 66.6863 2.30151 1
0 8 28 97.9973 15.5751 -2
13 15 21 97.9973 15.5751 1
13 19 19 53.3125 5.54147 -2
15 15 21 53.3125 5.54147 1
9 9 27 100.954 5.83696 -2
15 15 21 100.954 5.83696 1
1 7 29 42.7332 3.52936 -2
15 15 21 42.7332 3.52936 1
3 19 19 199.037 5.39484 -2
1 17 21 199.037 5.39484 1
1 17 21 164.738 3.50893 1
5 9 25 301.514 5.12884 -2
1 17 21 301.514 5.12884 1
2 18 20 221.237 22.9055 -2
1 17 21 221.237 22.9055 1
3 17 21 14.7954 1.71203 1
2 16 22 39.4472 16.0201 -2
3 17 21 39.4472 16.0201 1
6 10 24 20.6695 8.49302 -2
3 17 21 20.6695 8.49302 1
2 6 26 228.881 23.9687 -2
3 17 21 228.881 23.9687 1
4 18 20 50.4562 17.866 -2
3 17 21 50.4562 17.866 1
1 5 27 300.722 5.15051 -2
5 17 21 300.722 5.15051 1
8 12 24 217.017 8.6713 -2
5 17 21 217.017 8.6713 1
5 17 21 112.22 3.74207 1
1 15 23 181.921 5.27437 -2
5 17 21 181.921 5.27437 1
4 16 22 127.333 22.2001 -2
5 17 21 127.333 22.2001 1
7 17 21 282.211 4.6497 1
9 13 23 521.125 7.28591 -2
7 17 21 521.125 7.28591 1
5 15 23 435.973 6.69246 -2
7 17 21 435.973 6.69246 1
0 14 24 423.277 25.8341 -2
7 17 21 423.277 25.8341 1
0 4 28 364.78 27.4459 -2
7 17 21 364.78 27.4459 1
9 17 21 33.2072 2.0825 1
10 14 22 247.062 7.9045 -2
9 17 21 247.062 7.9045 1
2 2 28 43.2555 13.8391 -2
9 17 21 43.2555 13.8391 1
0 12 26 73.7117 22.3326 -2
9 17 21 73.7117 22.3326 1
6 14 24 147.98 19.498 -2
9 17 21 147.98 19.498 1
11 17 21 205.392 6.2644 1
1 3 29 205.501 5.05336 -2
11 17 21 205.501 5.05336 1
1 11 27 202.889 5.57776 -2
11 17 21 202.889 5.57776 1
12 16 22 299.786 12.0021 -2
11 17 21 299.786 12.0021 1
7 11 27 78.4097 4.4698 -2
13 17 21 78.4097 4.4698 1
13 17 21 39.2353 3.65724 1
13 17 21 58.2148 4.34316 -2
13 17 21 58.2148 4.34316 1
0 4 30 46.6706 13.7091 -2
13 17 21 46.6706 13.7091 1
2 10 28 26.9941 14.5817 -2
13 17 21 26.9941 14.5817 1
15 17 21 161.444 3.63336 1
8 10 28 121.135 32.4779 -2
15 17 21 121.135 32.4779 1
14 18 20 197.863 9.07301 -2
15 17 21 197.863 9.07301 1
2 6 30 188.459 12.8326 -2
15 17 21 188.459 12.8326 1
2 8 30 197.906 15.2343 -2
15 17 21 197.906 15.2343 1
17 17 21 118.009 9.41158 1
3 7 31 121.832 4.81497 -2
17 17 21 121.832 4.81497 1
16 20 20 114.613 16.8015 -2
17 17 21 114.613 16.8015 1
8 8 30 180.84 24.5501 -2
17 17 21 180.84 24.5501 1
1 19 21 548.175 5.92855 1
2 20 20 987.243 39.2568 -2
1 19 21 987.243 39.2568 1
1 19 21 724.16 8.54653 -2
1 19 21 724.16 8.54653 1
5 7 27 1044.41 9.61835 -2
1 19 21 1044.41 9.61835 1
6 8 26 766.163 16.2687 -2
1 19 21 766.163 16.2687 1
8 10 26 270.622 13.0431 -2
3 19 21 270.622 13.0431 1
3 19 21 273.433 3.63955 1
4 6 28 738.687 15.1177 -2
3 19 21 738.687 15.1177 1
0 18 22 419.825 26.4701 -2
3 19 21 419.825 26.4701 1
2 18 22 334.058 17.8951 -2
3 19 21 334.058 17.8951 1
5 19 21 40.3356 2.92115 1
2 4 28 107.17 10.034 -2
5 19 21 107.17 10.034 1
3 17 23 36.2873 3.39613 -2
5 19 21 36.2873 3.39613 1
9 11 25 164.586 5.93188 -2
5 19 21 164.586 5.93188 1
0 16 24 65.7886 22.9203 -2
5 19 21 65.7886 22.9203 1
1 3 29 9.24138 2.88991 -2
7 19 21 9.24138 2.88991 1
10 12 24 343.174 10.2856 -2
7 19 21 343.174 10.2856 1
7 19 21 9.1876 3.84342 1
1 15 25 13.4558 3.49352 -2
7 19 21 13.4558 3.49352 1
4 16 24 322.994 28.431 -2
7 19 21 322.994 28.431 1
9 19 21 228.671 4.1545 1
2 14 26 412.734 26.3318 -2
9 19 21 412.734 26.3318 1
0 2 30 406.756 35.5645 -2
9 19 21 406.756 35.5645 1
12 14 24 374.55 14.5188 -2
9 19 21 374.55 14.5188 1
4 14 26 654.531 37.7049 -2
9 19 21 654.531 37.7049 1
11 19 21 864.81 8.88902 1
5 13 27 1120.82 12.407 -2
11 19 21 1120.82 12.407 1
13 15 23 872.958 13.2691 -2
11 19 21 872.958 13.2691 1
0 2 30 1050.24 26.7078 -2
11 19 21 1050.24 26.7078 1
2 12 28 918.979 19.7215 -2
11 19 21 918.979 19.7215 1
1 3 31 479.634 8.64747 -2
13 19 21 479.634 8.64747 1
13 19 21 330.343 8.3224 1
3 11 29 331.355 7.07402 -2
13 19 21 331.355 7.07402 1
14 16 22 329.12 9.58246 -2
13 19 21 329.12 9.58246 1
6 12 28 509.742 37.9757 -2
13 19 21 509.742 37.9757 1
16 18 22 39.3246 9.88719 -2
15 19 21 39.3246 9.88719 1
15 19 21 5.81893 3.24442 1
6 10 30 31.1018 19.5834 -2
15 19 21 31.1018 19.5834 1
2 4 32 55.3722 17.7079 -2
15 19 21 55.3722 17.7079 1
4 10 30 4.74704 31.4567 -2
15 19 21 4.74704 31.4567 1
7 9 31 14.8543 5.55768 -2
17 19 21 14.8543 5.55768 1
17 19 21 15.1313 4.1803 1
17 19 21 16.0815 4.39588 -2
17 19 21 16.0815 4.39588 1
4 8 32 7.45352 25.5042 -2
17 19 21 7.45352 25.5042 1
4 6 32 65.6433 31.0633 -2
17 19 21 65.6433 31.0633 1
5 7 33 460.289 10.6413 -2
19 19 21 460.289 10.6413 1
19 19 21 445.848 19.2618 1
18 20 20 531.132 21.7379 -2
19 19 21 531.132 21.7379 1
8 8 32 485.298 45.8907 -2
19 19 21 485.298 45.8907 1
6 6 28 1850.14 34.8787 -2
1 21 21 1850.14 34.8787 1
8 8 28 1448.46 25.4457 -2
1 21 21 1448.46 25.4457 1
1 21 21 1366.09 14.0424 1
5 5 29 1483.09 21.0759 -2
3 21 21 1483.09 21.0759 1
1 19 23 1273.38 14.0161 -2
3 21 21 1273.38 14.0161 1
9 9 27 1187.46 18.1645 -2
3 21 21 1187.46 18.1645 1
10 10 26 443.541 16.0299 -2
5 21 21 443.541 16.0299 1
4 4 30 466.87 17.8693 -2
5 21 21 466.87 17.8693 1
5 21 21 380.458 7.71941 1
2 18 24 361.179 27.1003 -2
5 21 21 361.179 27.1003 1
2 16 26 376.086 20.5061 -2
7 21 21 376.086 20.5061 1
7 21 21 141.367 4.64881 1
12 12 26 118.061 15.1913 -2
7 21 21 118.061 15.1913 1
2 2 30 230.73 20.8778 -2
7 21 21 230.73 20.8778 1
3 15 27 1096.27 11.9582 -2
9 21 21 1096.27 11.9582 1
1 1 31 1192.7 15.5315 -2
9 21 21 1192.7 15.5315 1
13 13 25 751.814 14.4587 -2
9 21 21 751.814 14.4587 1
0 0 32 2317.81 41.1248 -2
11 21 21 2317.81 41.1248 1
11 21 21 1551.18 15.1048 1
4 14 28 2053.36 67.3432 -2
11 21 21 2053.36 67.3432 1
14 14 24 1600.61 28.2708 -2
11 21 21 1600.61 28.2708 1
16 16 24 1211.23 22.9462 -2
13 21 21 1211.23 22.9462 1
13 21 21 1140.77 12.1999 1
2 2 32 1390.36 35.8708 -2
13 21 21 1390.36 35.8708 1
4 12 30 1234.16 52.2718 -2
13 21 21 1234.16 52.2718 1
17 17 23 185.472 9.07086 -2
15 21 21 185.472 9.07086 1
5 11 31 163.282 6.78642 -2
15 21 21 163.282 6.78642 1
3 3 33 134.627 7.87792 -2
15 21 21 134.627 7.87792 1
17 21 21 179.959 7.45947 1
18 18 22 180.2 17.3568 -2
17 21 21 180.2 17.3568 1
6 10 32 207.582 27.8961 -2
17 21 21 207.582 27.8961 1
4 4 34 168.611 26.8752 -2
17 21 21 168.611 26.8752 1
0 0 22 5410.2 67.0446 1
6 14 16 3111.7 25.171 -2
0 2 22 3111.7 25.171 1
0 2 22 2339.96 17.4179 1
2 2 22 1118.16 7.34646 1
10 14 14 1091.64 14.7001 -2
2 2 22 1091.64 14.7001 1
0 4 22 1178.06 9.79296 1
10 12 16 1195.23 10.5122 -2
0 4 22 1195.23 10.5122 1
2 4 22 654.588 3.83541 1
6 12 18 644.499 6.62853 -2
2 4 22 644.499 6.62853 1
9 11 17 736.604 21.3665 -2
2 4 22 736.604 21.3665 1
3 15 17 1204.88 22.7286 -2
2 4 22 1204.88 22.7286 1
4 4 22 1052.48 6.69096 1
2 16 16 1044.17 12.8144 -2
4 4 22 1044.17 12.8144 1
0 6 22 5.67585 1.0845 1
3 13 19 -18.189 18.2434 -2
0 6 22 -18.189 18.2434 1
10 10 18 272.595 3.34697 -2
2 6 22 272.595 3.34697 1
2 6 22 31.9165 1.26397 1
2 14 18 119.519 2.97698 -2
2 6 22 119.519 2.97698 1
5 11 19 34.7738 6.78949 -2
2 6 22 34.7738 6.78949 1
6 10 20 307.351 4.27512 -2
4 6 22 307.351 4.27512 1
1 15 17 180.12 8.12374 -2
4 6 22 180.12 8.12374 1
12 14 14 151.379 3.8554 -2
4 6 22 151.379 3.8554 1
4 6 22 139.908 2.28871 1
9 9 19 271.668 14.998 -2
4 6 22 271.668 14.998 1
6 6 22 1259.76 7.8638 1
1 17 17 1290.95 23.2614 -2
6 6 22 1290.95 23.2614 1
2 12 20 791.531 7.44553 -2
0 8 22 791.531 7.44553 1
0 8 22 599.658 6.26256 1
10 14 16 298.79 4.0067 -2
2 8 22 298.79 4.0067 1
2 8 22 259.459 2.76239 1
1 13 19 316.178 11.3006 -2
2 8 22 316.178 11.3006 1
3 11 21 704.673 12.1482 -2
2 8 22 704.673 12.1482 1
1 15 19 208.258 9.02583 -2
4 8 22 208.258 9.02583 1
8 10 20 405.925 4.4841 -2
4 8 22 405.925 4.4841 1
4 8 22 194.448 2.99179 1
5 9 21 270.615 22.8576 -2
4 8 22 270.615 22.8576 1
6 8 22 662.068 6.41786 -2
6 8 22 662.068 6.41786 1
6 8 22 480.624 4.31117 1
2 16 18 643.75 8.11446 -2
6 8 22 643.75 8.11446 1
7 9 21 512.96 19.5604 -2
6 8 22 512.96 19.5604 1
8 8 22 7.40567 2.06206 1
3 17 17 239.893 14.1383 -2
8 8 22 239.893 14.1383 1
12 12 18 78.5286 4.78689 -2
8 8 22 78.5286 4.78689 1
7 7 23 151.687 21.3093 -2
8 8 22 151.687 21.3093 1
8 14 18 1619.6 12.6764 -2
0 10 22 1619.6 12.6764 1
0 10 22 1570.1 15.6786 1
1 11 21 2244.57 30.0226 -2
0 10 22 2244.57 30.0226 1
2 10 22 1938.05 15.2849 -2
2 10 22 1938.05 15.2849 1
2 10 22 1411.08 7.72045 1
1 13 21 1865.48 23.3768 -2
2 10 22 1865.48 23.3768 1
7 13 19 1448.9 40.4418 -2
2 10 22 1448.9 40.4418 1
4 10 22 1144.07 6.25389 1
2 14 20 1180.65 10.9038 -2
4 10 22 1180.65 10.9038 1
3 9 23 1418.66 24.5808 -2
4 10 22 1418.66 24.5808 1
7 11 21 1385.15 38.4366 -2
4 10 22 1385.15 38.4366 1
6 10 22 116.561 3.25727 -2
6 10 22 116.561 3.25727 1
10 14 18 107.625 3.80609 -2
6 10 22 107.625 3.80609 1
6 10 22 84.3794 2.57015 1
5 7 23 324.025 23.8409 -2
6 10 22 324.025 23.8409 1
3 15 19 175.09 8.14921 -2
6 10 22 175.09 8.14921 1
8 10 22 779.641 5.07411 1
6 6 24 924.954 8.87596 -2
8 10 22 924.954 8.87596 1
5 17 19 1289.28 18.8656 -2
8 10 22 1289.28 18.8656 1
5 7 25 3313.36 49.6118 -2
10 10 22 3313.36 49.6118 1
10 10 22 2931.95 21.3652 1
6 18 18 3155.62 36.8434 -2
10 10 22 3155.62 36.8434 1
0 12 22 1991.13 12.935 1
1 11 23 2513.1 30.7598 -2
0 12 22 2513.1 30.7598 1
2 12 22 1416.4 9.64541 1
6 14 20 1394.67 11.9542 -2
2 12 22 1394.67 11.9542 1
2 12 22 1947.16 16.3499 -2
2 12 22 1947.16 16.3499 1
7 17 17 1774.26 49.6674 -2
2 12 22 1774.26 49.6674 1
1 9 23 1808.84 38.6738 -2
2 12 22 1808.84 38.6738 1
2 8 24 1017.61 10.1145 -2
4 12 22 1017.61 10.1145 1
4 12 22 944.888 8.54927 1
3 13 21 1077.53 13.0526 -2
4 12 22 1077.53 13.0526 1
8 16 18 1157.63 10.4333 -2
4 12 22 1157.63 10.4333 1
5 13 21 1061.91 33.2304 -2
4 12 22 1061.91 33.2304 1
6 12 22 366.491 3.24206 1
5 15 21 469.018 13.2554 -2
6 12 22 469.018 13.2554 1
3 7 25 468.721 28.4148 -2
6 12 22 468.721 28.4148 1
9 15 19 446.875 16.9138 -2
6 12 22 446.875 16.9138 1
8 12 22 1200.36 8.60721 1
6 16 20 1443.4 12.5937 -2
8 12 22 1443.4 12.5937 1
5 5 25 1638.44 35.9659 -2
8 12 22 1638.44 35.9659 1
4 10 24 1161.03 10.6295 -2
8 12 22 1161.03 10.6295 1
9 13 21 1569.01 47.4926 -2
8 12 22 1569.01 47.4926 1
10 12 22 3067.22 27.5043 -2
10 12 22 3067.22 27.5043 1
3 9 25 2340.52 37.143 -2
10 12 22 2340.52 37.143 1
7 17 19 2616.49 31.8458 -2
10 12 22 2616.49 31.8458 1
4 6 26 2766.43 21.0379 -2
10 12 22 2766.43 21.0379 1
10 12 22 2260.21 20.6233 1
3 7 27 2529.53 31.6855 -2
12 12 22 2529.53 31.6855 1
12 12 22 2260.6 18.3499 1
9 19 19 2372.55 39.5187 -2
12 12 22 2372.55 39.5187 1
2 10 24 890.062 8.6981 -2
0 14 22 890.062 8.6981 1
0 14 22 657.043 7.46342 1
3 11 23 663.857 12.0258 -2
2 14 22 663.857 12.0258 1
2 14 22 285.357 3.75061 1
6 18 18 567.233 6.86333 -2
2 14 22 567.233 6.86333 1
1 9 25 420.931 14.2965 -2
2 14 22 420.931 14.2965 1
4 14 22 47.713 2.24823 1
4 14 22 58.0651 3.33371 -2
4 14 22 58.0651 3.33371 1
5 13 23 54.7809 9.19102 -2
4 14 22 54.7809 9.19102 1
1 7 25 142.149 13.1499 -2
4 14 22 142.149 13.1499 1
2 6 26 223.226 4.35282 -2
6 14 22 223.226 4.35282 1
3 13 23 223.431 16.3491 -2
6 14 22 223.431 16.3491 1
6 14 22 79.3598 2.75319 1
6 14 22 101.482 3.6136 -2
6 14 22 101.482 3.6136 1
7 15 21 151.94 8.92212 -2
8 14 22 151.94 8.92212 1
8 14 22 46.028 2.54691 1
8 14 22 66.4985 3.71576 -2
8 14 22 66.4985 3.71576 1
3 5 27 429.877 11.8448 -2
8 14 22 429.877 11.8448 1
3 11 25 45.4871 19.8332 -2
8 14 22 45.4871 19.8332 1
2 10 26 579.688 7.34612 -2
10 14 22 579.688 7.34612 1
9 17 21 612.918 9.89983 -2
10 14 22 612.918 9.89983 1
10 14 22 582.948 6.02556 1
3 5 27 981.653 20.8023 -2
10 14 22 981.653 20.8023 1
9 13 23 857.725 35.3858 -2
10 14 22 857.725 35.3858 1
1 9 27 1039.67 19.6721 -2
12 14 22 1039.67 19.6721 1
10 18 20 1056.91 10.3967 -2
12 14 22 1056.91 10.3967 1
2 6 28 1105.52 10.6529 -2
12 14 22 1105.52 10.6529 1
12 14 22 982.666 8.57916 1
9 11 25 1136.57 42.6024 -2
12 14 22 1136.57 42.6024 1
10 10 26 278.968 8.91922 -2
14 14 22 278.968 8.91922 1
11 19 19 399.124 13.0451 -2
14 14 22 399.124 13.0451 1
14 14 22 198.149 7.65735 1
1 7 29 197.967 13.3531 -2
14 14 22 197.967 13.3531 1
3 9 25 148.963 11.807 -2
0 16 22 148.963 11.807 1
4 18 20 144.159 4.30812 -2
0 16 22 144.159 4.30812 1
0 16 22 134.528 6.9736 1
2 16 22 89.8387 2.41284 1
5 11 25 99.8479 10.5089 -2
2 16 22 99.8479 10.5089 1
2 8 26 91.6101 3.44722 -2
2 16 22 91.6101 3.44722 1
4 16 22 42.5356 2.13574 1
6 12 24 63.6971 3.83846 -2
4 16 22 63.6971 3.83846 1
1 7 27 86.9345 18.7336 -2
4 16 22 86.9345 18.7336 1
5 17 21 98.2587 15.0564 -2
4 16 22 98.2587 15.0564 1
7 13 23 530.571 11.4616 -2
6 16 22 530.571 11.4616 1
6 16 22 651.2 7.72701 -2
6 16 22 651.2 7.72701 1
2 14 24 503.052 7.79309 -2
6 16 22 503.052 7.79309 1
6 16 22 479.575 7.03481 1
1 5 27 660.278 23.1409 -2
6 16 22 660.278 23.1409 1
2 4 28 220.738 4.971 -2
8 16 22 220.738 4.971 1
8 16 22 47.2929 2.56371 1
9 15 23 68.8486 7.77522 -2
8 16 22 68.8486 7.77522 1
1 13 25 62.3529 20.8986 -2
8 16 22 62.3529 20.8986 1
10 16 22 258.711 3.92547 1
1 11 27 255.835 16.8976 -2
10 16 22 255.835 16.8976 1
3 3 29 372.084 15.0497 -2
10 16 22 372.084 15.0497 1
7 13 25 301.133 29.1344 -2
10 16 22 301.133 29.1344 1
10 16 22 353.935 6.18475 -2
10 16 22 353.935 6.18475 1
11 17 21 344.673 9.39972 -2
12 16 22 344.673 9.39972 1
0 10 28 320.375 6.4892 -2
12 16 22 320.375 6.4892 1
8 12 26 256.268 6.80361 -2
12 16 22 256.268 6.80361 1
12 16 22 247.86 7.24377 1
1 5 29 289.542 15.4625 -2
12 16 22 289.542 15.4625 1
14 16 22 9.83513 3.14913 1
13 19 21 140.874 10.7436 -2
14 16 22 140.874 10.7436 1
0 6 30 4.22748 3.69269 -2
14 16 22 4.22748 3.69269 1
1 9 29 31.1107 13.0641 -2
14 16 22 31.1107 13.0641 1
9 11 27 81.3589 30.4866 -2
14 16 22 81.3589 30.4866 1
14 20 20 108.86 6.24157 -2
16 16 22 108.86 6.24157 1
16 16 22 42.5024 4.65038 1
9 9 29 89.0266 23.1015 -2
16 16 22 89.0266 23.1015 1
1 7 31 102.248 15.4096 -2
16 16 22 102.248 15.4096 1
0 18 22 453.071 5.96134 1
5 9 27 564.347 13.8432 -2
0 18 22 564.347 13.8432 1
3 19 21 583.544 33.287 -2
0 18 22 583.544 33.287 1
6 10 26 214.121 5.19038 -2
2 18 22 214.121 5.19038 1
2 18 22 234.961 5.73106 -2
2 18 22 234.961 5.73106 1
2 18 22 173.542 3.98749 1
3 19 21 312.476 26.5367 -2
2 18 22 312.476 26.5367 1
3 7 27 397.47 12.6629 -2
2 18 22 397.47 12.6629 1
4 18 22 18.3363 3.1499 1
4 18 22 24.8693 3.41959 -2
4 18 22 24.8693 3.41959 1
2 6 28 141.156 4.24713 -2
4 18 22 141.156 4.24713 1
7 11 25 55.3881 10.3039 -2
4 18 22 55.3881 10.3039 1
1 17 23 78.8733 22.284 -2
4 18 22 78.8733 22.284 1
6 18 22 127.584 2.82695 1
9 13 25 160.974 11.083 -2
6 18 22 160.974 11.083 1
1 5 29 147.62 12.6825 -2
6 18 22 147.62 12.6825 1
1 15 25 164.904 27.9768 -2
6 18 22 164.904 27.9768 1
5 17 23 313.614 28.4106 -2
6 18 22 313.614 28.4106 1
0 14 26 6.86409 3.22908 -2
8 18 22 6.86409 3.22908 1
8 18 22 7.05618 2.7276 1
10 14 24 84.803 4.52951 -2
8 18 22 84.803 4.52951 1
1 3 29 17.9629 21.487 -2
8 18 22 17.9629 21.487 1
2 2 30 436.649 7.18142 -2
10 18 22 436.649 7.18142 1
11 15 23 567.643 11.2948 -2
10 18 22 567.643 11.2948 1
10 18 22 338.575 7.33734 1
1 13 27 378.357 27.4957 -2
10 18 22 378.357 27.4957 1
6 14 26 657.518 9.58345 -2
10 18 22 657.518 9.58345 1
12 18 22 349.386 5.11542 1
13 17 23 376.665 11.9031 -2
12 18 22 376.665 11.9031 1
1 11 29 491.18 19.5258 -2
12 18 22 491.18 19.5258 1
1 3 31 484.205 26.9629 -2
12 18 22 484.205 26.9629 1
7 13 27 490.471 25.342 -2
12 18 22 490.471 25.342 1
2 10 30 129.63 5.05809 -2
14 18 22 129.63 5.05809 1
14 18 22 11.9317 3.43614 1
14 18 22 11.0969 4.10962 -2
14 18 22 11.0969 4.10962 1
7 11 29 20.9887 23.3148 -2
14 18 22 20.9887 23.3148 1
15 19 21 63.0744 11.6678 -2
16 18 22 63.0744 11.6678 1
8 10 30 69.3249 5.44772 -2
16 18 22 69.3249 5.44772 1
2 6 32 89.8947 5.36332 -2
16 18 22 89.8947 5.36332 1
16 18 22 67.6843 5.95982 1
3 9 31 150.673 18.4242 -2
16 18 22 150.673 18.4242 1
18 18 22 3.12629 5.54141 1
17 21 21 66.3045 19.1931 -2
18 18 22 66.3045 19.1931 1
3 7 33 -20.015 21.4684 -2
18 18 22 -20.015 21.4684 1
9 9 31 166.867 41.7213 -2
18 18 22 166.867 41.7213 1
6 8 28 1152.9 12.4683 -2
0 20 22 1152.9 12.4683 1
0 20 22 834.476 11.1155 1
1 21 21 1341.17 46.2272 -2
0 20 22 1341.17 46.2272 1
2 20 22 1063.68 11.9243 -2
2 20 22 1063.68 11.9243 1
2 20 22 775.727 8.56947 1
5 7 29 1112.18 18.1144 -2
2 20 22 1112.18 18.1144 1
7 9 27 830.142 15.9568 -2
2 20 22 830.142 15.9568 1
1 19 23 861.101 36.0368 -2
2 20 22 861.101 36.0368 1
4 20 22 356.124 6.00758 1
9 11 27 366.917 12.2524 -2
4 20 22 366.917 12.2524 1
0 18 24 395.173 7.48454 -2
4 20 22 395.173 7.48454 1
3 5 29 524.885 15.6316 -2
4 20 22 524.885 15.6316 1
6 20 22 27.1721 3.10889 1
2 4 30 29.9271 3.44733 -2
6 20 22 29.9271 3.44733 1
10 12 26 36.6747 4.19774 -2
6 20 22 36.6747 4.19774 1
1 17 25 31.6401 23.639 -2
6 20 22 31.6401 23.639 1
11 13 25 149.871 9.91289 -2
8 20 22 149.871 9.91289 1
8 20 22 110.284 4.11458 1
1 3 31 281.977 16.0648 -2
8 20 22 281.977 16.0648 1
4 16 26 837.008 13.074 -2
8 20 22 837.008 13.074 1
1 15 27 191.174 17.2973 -2
8 20 22 191.174 17.2973 1
10 20 22 834.237 8.66683 1
13 15 25 895.005 13.5796 -2
10 20 22 895.005 13.5796 1
2 14 28 891.106 10.7466 -2
10 20 22 891.106 10.7466 1
1 1 31 1304.16 28.0825 -2
10 20 22 1304.16 28.0825 1
14 16 24 1119.7 13.1753 -2
12 20 22 1119.7 13.1753 1
12 20 22 1111.1 10.7392 1
0 2 32 1487.47 13.9513 -2
12 20 22 1487.47 13.9513 1
5 13 29 1310.93 53.0611 -2
12 20 22 1310.93 53.0611 1
3 13 29 1101.17 34.834 -2
12 20 22 1101.17 34.834 1
6 12 30 219.1 7.00811 -2
14 20 22 219.1 7.00811 1
1 3 33 339.136 18.9959 -2
14 20 22 339.136 18.9959 1
14 20 22 218.536 6.18989 1
15 17 23 232.562 11.351 -2
14 20 22 232.562 11.351 1
3 11 31 414.976 23.1381 -2
14 20 22 414.976 23.1381 1
17 19 23 21.8956 12.635 -2
16 20 22 21.8956 12.635 1
4 10 32 90.6465 6.30127 -2
16 20 22 90.6465 6.30127 1
16 20 22 13.2281 4.49883 1
7 11 31 48.0631 26.4193 -2
16 20 22 48.0631 26.4193 1
3 5 33 -8.4627 22.4161 -2
16 20 22 -8.4627 22.4161 1
18 20 22 204.805 7.2792 1
7 9 33 258.495 21.0185 -2
18 20 22 258.495 21.0185 1
18 20 22 281.003 7.97864 -2
18 20 22 281.003 7.97864 1
4 6 34 217.103 8.49158 -2
18 20 22 217.103 8.49158 1
5 9 33 301.854 30.0443 -2
18 20 22 301.854 30.0443 1
0 22 22 2114.49 30.9711 -2
0 22 22 2114.49 30.9711 1
7 7 29 1784.55 29.574 -2
0 22 22 1784.55 29.574 1
2 22 22 1338.25 15.0433 1
6 6 30 1561.93 22.4402 -2
2 22 22 1561.93 22.4402 1
9 9 29 1327.47 26.1597 -2
2 22 22 1327.47 26.1597 1
4 22 22 737.233 11.5612 1
5 5 31 860.345 22.1177 -2
4 22 22 860.345 22.1177 1
10 10 28 808.794 15.1954 -2
4 22 22 808.794 15.1954 1
1 19 25 710.833 25.7613 -2
4 22 22 710.833 25.7613 1
2 18 26 179.067 6.60836 -2
6 22 22 179.067 6.60836 1
11 11 27 33.3396 15.6366 -2
6 22 22 33.3396 15.6366 1
6 22 22 23.3057 7.00748 1
3 3 31 122.531 19.2609 -2
6 22 22 122.531 19.2609 1
8 22 22 162.941 6.15515 1
13 13 27 155.022 15.0036 -2
8 22 22 155.022 15.0036 1
2 2 32 386.716 10.4776 -2
8 22 22 386.716 10.4776 1
14 14 26 1295.23 20.4862 -2
10 22 22 1295.23 20.4862 1
10 22 22 1189.44 14.0058 1
1 1 33 1710.83 35.2705 -2
10 22 22 1710.83 35.2705 1
3 15 29 1305.79 38.2903 -2
10 22 22 1305.79 38.2903 1
4 14 30 1447.87 15.7286 -2
12 22 22 1447.87 15.7286 1
15 15 25 1556.66 29.1815 -2
12 22 22 1556.66 29.1815 1
1 1 33 1978.42 46.2993 -2
12 22 22 1978.42 46.2993 1
12 22 22 1519.99 29.5317 1
5 13 31 550.996 21.9347 -2
14 22 22 550.996 21.9347 1
17 17 25 711.239 21.0333 -2
14 22 22 711.239 21.0333 1
14 22 22 517.515 13.4041 1
2 2 34 519.574 13.9239 -2
14 22 22 519.574 13.9239 1
1 1 23 2904.67 22.1293 1
9 15 15 2927.9 30.4291 -2
1 1 23 2927.9 30.4291 1
9 13 17 1033.16 9.31579 -2
1 3 23 1033.16 9.31579 1
5 15 17 2388.21 18.9252 -2
1 3 23 2388.21 18.9252 1
1 3 23 1048.25 7.24941 1
3 3 23 955.453 5.96492 1
1 5 23 26.7432 1.07545 1
5 13 19 48.3446 2.60589 -2
1 5 23 48.3446 2.60589 1
4 14 18 423.815 25.7743 -2
1 5 23 423.815 25.7743 1
3 5 23 17.7775 1.31157 1
9 11 19 346.367 4.19511 -2
3 5 23 346.367 4.19511 1
13 13 15 17.7357 2.27462 -2
3 5 23 17.7357 2.27462 1
2 16 18 199.37 12.0694 -2
3 5 23 199.37 12.0694 1
6 12 20 194.874 22.9331 -2
3 5 23 194.874 22.9331 1
5 5 23 628.307 4.89264 1
1 17 17 621.155 10.5166 -2
5 5 23 621.155 10.5166 1
1 7 23 101.027 2.12111 1
11 13 17 109.139 3.21314 -2
1 7 23 109.139 3.21314 1
2 14 20 142.551 8.02499 -2
1 7 23 142.551 8.02499 1
4 12 20 82.6666 21.8099 -2
1 7 23 82.6666 21.8099 1
3 7 23 4.9633 1.52735 1
1 15 19 5.94043 2.18189 -2
3 7 23 5.94043 2.18189 1
5 11 21 327.682 5.96086 -2
3 7 23 327.682 5.96086 1
9 9 21 1113.03 10.3925 -2
5 7 23 1113.03 10.3925 1
5 7 23 721.152 5.07975 1
0 16 18 731.311 13.4916 -2
5 7 23 731.311 13.4916 1
7 7 23 434.003 5.37345 1
13 13 17 420.925 9.15469 -2
7 7 23 420.925 9.15469 1
2 18 18 497.256 14.785 -2
7 7 23 497.256 14.785 1
2 12 22 1560.64 20.4216 -2
1 9 23 1560.64 20.4216 1
1 13 21 1412.83 12.4333 -2
1 9 23 1412.83 12.4333 1
1 9 23 1001.09 7.80349 1
9 13 19 1009.06 9.28966 -2
1 9 23 1009.06 9.28966 1
3 9 23 651.47 4.20647 1
0 14 20 837.022 19.4271 -2
3 9 23 837.022 19.4271 1
4 10 22 1174.21 40.6806 -2
3 9 23 1174.21 40.6806 1
11 15 17 171.57 4.88617 -2
5 9 23 171.57 4.88617 1
5 9 23 7.98923 2.09448 1
5 9 23 11.3213 2.06358 -2
5 9 23 11.3213 2.06358 1
2 16 20 14.8321 8.30391 -2
5 9 23 14.8321 8.30391 1
3 17 19 245.781 5.34834 -2
7 9 23 245.781 5.34834 1
7 9 23 10.4414 2.412 -2
7 9 23 10.4414 2.412 1
7 9 23 5.57036 1.93405 1
6 8 24 140.041 23.3193 -2
7 9 23 140.041 23.3193 1
4 18 18 1137.89 39.3356 -2
9 9 23 1137.89 39.3356 1
9 9 23 915.661 7.55837 1
1 11 23 1244.31 7.15202 1
1 11 23 1704 14.7406 -2
1 11 23 1704 14.7406 1
0 12 22 2024.45 33.7693 -2
1 11 23 2024.45 33.7693 1
7 13 21 1010.72 9.49104 -2
3 11 23 1010.72 9.49104 1
3 11 23 962.141 8.8493 1
2 14 22 1072.6 16.1026 -2
3 11 23 1072.6 16.1026 1
9 17 17 932.567 8.95682 -2
3 11 23 932.567 8.95682 1
2 10 24 1215.19 26.3813 -2
3 11 23 1215.19 26.3813 1
3 15 21 149.016 4.31515 -2
5 11 23 149.016 4.31515 1
5 11 23 159.306 2.63149 1
6 12 22 298.008 19.1358 -2
5 11 23 298.008 19.1358 1
4 8 24 269.844 12.9071 -2
5 11 23 269.844 12.9071 1
7 11 23 395.43 4.22678 1
6 10 24 408.117 21.9672 -2
7 11 23 408.117 21.9672 1
4 16 20 620.207 13.9322 -2
7 11 23 620.207 13.9322 1
5 7 25 680.958 8.09599 -2
7 11 23 680.958 8.09599 1
9 11 23 1447.46 13.8186 1
11 13 21 1990.8 19.037 -2
9 11 23 1990.8 19.037 1
5 9 25 1561.91 12.8005 -2
9 11 23 1561.91 12.8005 1
6 18 20 1498.33 21.3945 -2
9 11 23 1498.33 21.3945 1
6 6 26 1942.1 33.8446 -2
9 11 23 1942.1 33.8446 1
11 11 23 2395.35 17.6788 1
7 19 19 2400.97 33.1063 -2
11 11 23 2400.97 33.1063 1
4 8 26 2646.65 50.3136 -2
11 11 23 2646.65 50.3136 1
0 10 24 1274.39 18.8649 -2
1 13 23 1274.39 18.8649 1
7 17 19 1308.28 12.9389 -2
1 13 23 1308.28 12.9389 1
1 13 23 1002.1 7.82922 1
6 16 20 1288.47 39.3836 -2
1 13 23 1288.47 39.3836 1
2 12 24 1228.69 24.3988 -2
1 13 23 1228.69 24.3988 1
3 13 23 408.088 5.12654 1
3 13 23 560.269 7.60041 -2
3 13 23 560.269 7.60041 1
1 9 25 521.921 6.59592 -2
3 13 23 521.921 6.59592 1
8 18 18 483.3 25.4772 -2
3 13 23 483.3 25.4772 1
5 13 23 18.668 2.14409 1
5 13 23 21.1733 2.98442 -2
5 13 23 21.1733 2.98442 1
4 14 22 30.6194 8.15716 -2
5 13 23 30.6194 8.15716 1
8 16 20 121.048 21.9812 -2
5 13 23 121.048 21.9812 1
6 16 22 295.492 9.59438 -2
7 13 23 295.492 9.59438 1
9 15 21 93.9627 4.10321 -2
7 13 23 93.9627 4.10321 1
7 13 23 95.8278 2.48815 1
4 6 26 606.639 21.753 -2
7 13 23 606.639 21.753 1
9 13 23 651.692 6.16278 1
7 17 21 735.44 8.28596 -2
9 13 23 735.44 8.28596 1
5 5 27 1270.3 11.4894 -2
9 13 23 1270.3 11.4894 1
4 10 26 717.08 19.2257 -2
9 13 23 717.08 19.2257 1
8 18 20 1183 14.2588 -2
11 13 23 1183 14.2588 1
3 9 27 1182.28 11.6728 -2
11 13 23 1182.28 11.6728 1
4 6 28 1691.07 27.4378 -2
11 13 23 1691.07 27.4378 1
11 13 23 1187.46 9.33893 1
10 12 24 1507.85 48.7633 -2
11 13 23 1507.85 48.7633 1
11 11 25 1216.47 16.6359 -2
13 13 23 1216.47 16.6359 1
10 20 20 1446.4 22.0659 -2
13 13 23 1446.4 22.0659 1
2 8 28 1098.97 28.2594 -2
13 13 23 1098.97 28.2594 1
13 13 23 1011.1 12.8909 1
5 17 21 254.791 5.62734 -2
1 15 23 254.791 5.62734 1
3 11 25 222.367 6.10375 -2
1 15 23 222.367 6.10375 1
1 15 23 212.678 4.62066 1
2 10 26 226.417 12.29 -2
1 15 23 226.417 12.29 1
0 8 26 124.926 13.7796 -2
3 15 23 124.926 13.7796 1
3 15 23 11.8216 1.78529 1
4 12 24 28.2221 9.87785 -2
3 15 23 28.2221 9.87785 1
6 18 20 77.8633 18.1968 -2
3 15 23 77.8633 18.1968 1
7 17 21 494.782 7.46469 -2
5 15 23 494.782 7.46469 1
5 15 23 414.591 6.46787 1
1 7 27 429.663 6.04439 -2
5 15 23 429.663 6.04439 1
6 14 24 477.512 10.7376 -2
5 15 23 477.512 10.7376 1
4 14 24 514.724 26.0924 -2
5 15 23 514.724 26.0924 1
7 15 23 210.017 5.35194 -2
7 15 23 210.017 5.35194 1
3 13 25 231.408 5.5427 -2
7 15 23 231.408 5.5427 1
7 15 23 162.841 3.7187 1
2 6 28 254.647 28.0366 -2
7 15 23 254.647 28.0366 1
9 15 23 51.0502 2.28599 1
2 12 26 44.8872 17.5256 -2
9 15 23 44.8872 17.5256 1
8 16 22 81.1668 7.77042 -2
9 15 23 81.1668 7.77042 1
4 4 28 397.622 28.7907 -2
9 15 23 397.622 28.7907 1
3 5 29 702.784 9.05437 -2
11 15 23 702.784 9.05437 1
9 13 25 544.945 7.72411 -2
11 15 23 544.945 7.72411 1
11 15 23 552.026 9.26869 1
10 18 22 699.088 12.48 -2
11 15 23 699.088 12.48 1
2 10 28 532.139 16.0421 -2
11 15 23 532.139 16.0421 1
13 15 23 90.1384 3.59484 1
1 9 29 133.331 4.6997 -2
13 15 23 133.331 4.6997 1
11 19 21 422.838 6.94759 -2
13 15 23 422.838 6.94759 1
2 6 30 71.7965 22.7655 -2
13 15 23 71.7965 22.7655 1
0 8 30 110.425 26.1974 -2
15 15 23 110.425 26.1974 1
10 10 28 106.016 22.4476 -2
15 15 23 106.016 22.4476 1
15 15 23 5.74844 3.84181 1
12 20 20 496.096 16.7239 -2
15 15 23 496.096 16.7239 1
1 17 23 153.831 3.13124 1
3 9 27 160.97 4.59662 -2
1 17 23 160.97 4.59662 1
4 10 26 235.524 10.1385 -2
1 17 23 235.524 10.1385 1
2 8 28 -8.5597 11.1082 -2
3 17 23 -8.5597 11.1082 1
3 17 23 4.06298 3.33355 -2
3 17 23 4.06298 3.33355 1
5 19 21 24.1667 3.24284 -2
3 17 23 24.1667 3.24284 1
6 12 26 64.1814 9.10065 -2
3 17 23 64.1814 9.10065 1
3 17 23 -2.1164 3.37512 1
5 17 23 423.134 4.40761 1
7 13 25 430.692 7.71282 -2
5 17 23 430.692 7.71282 1
0 6 28 540.551 32.1403 -2
5 17 23 540.551 32.1403 1
1 5 29 272.395 6.15981 -2
7 17 23 272.395 6.15981 1
7 17 23 255.752 4.94879 1
8 14 24 253.337 10.4366 -2
7 17 23 253.337 10.4366 1
2 14 26 421.977 17.2303 -2
7 17 23 421.977 17.2303 1
7 15 25 204.973 6.1935 -2
9 17 23 204.973 6.1935 1
1 13 27 57.5202 3.6546 -2
9 17 23 57.5202 3.6546 1
10 16 24 61.6749 9.94537 -2
9 17 23 61.6749 9.94537 1
9 17 23 51.1803 5.5741 1
2 4 30 57.1879 17.4261 -2
9 17 23 57.1879 17.4261 1
11 17 23 170.527 3.39189 1
11 17 23 215.772 6.5812 -2
11 17 23 215.772 6.5812 1
0 12 28 137.575 20.3048 -2
11 17 23 137.575 20.3048 1
12 18 22 140.388 11.1758 -2
13 17 23 140.388 11.1758 1
13 17 23 14.2735 3.2853 1
1 5 31 8.38196 4.22476 -2
13 17 23 8.38196 4.22476 1
0 10 30 254.843 18.1841 -2
13 17 23 254.843 18.1841 1
1 9 31 314.034 7.75374 -2
15 17 23 314.034 7.75374 1
15 17 23 45.9748 6.60615 1
9 11 29 99.0123 5.15714 -2
15 17 23 99.0123 5.15714 1
14 20 22 152.183 12.3174 -2
15 17 23 152.183 12.3174 1
0 6 32 134.378 26.7273 -2
15 17 23 134.378 26.7273 1
2 8 32 220.959 35.4444 -2
17 17 23 220.959 35.4444 1
10 10 30 273.781 39.9025 -2
17 17 23 273.781 39.9025 1
15 21 21 193.203 8.28494 -2
17 17 23 193.203 8.28494 1
17 17 23 117.365 5.83994 1
4 8 28 525.749 13.2562 -2
1 19 23 525.749 13.2562 1
1 19 23 378.815 5.95158 1
6 10 28 460.84 13.4758 -2
1 19 23 460.84 13.4758 1
3 21 21 794.828 10.1022 -2
1 19 23 794.828 10.1022 1
7 11 27 130.298 5.15089 -2
3 19 23 130.298 5.15089 1
3 19 23 113.086 3.8398 1
3 7 29 205.392 5.52219 -2
3 19 23 205.392 5.52219 1
2 18 24 99.5969 15.2316 -2
3 19 23 99.5969 15.2316 1
5 19 23 3.4637 3.6503 1
1 17 25 8.40655 3.7109 -2
5 19 23 8.40655 3.7109 1
2 6 30 3.41619 8.59013 -2
5 19 23 3.41619 8.59013 1
8 12 26 1.48713 10.2362 -2
5 19 23 1.48713 10.2362 1
7 19 23 8.3739 3.05596 1
5 17 25 467.415 9.3774 -2
7 19 23 467.415 9.3774 1
0 4 30 34.7234 11.5105 -2
7 19 23 34.7234 11.5105 1
10 14 26 37.6987 11.195 -2
7 19 23 37.6987 11.195 1
0 16 26 59.106 23.8439 -2
7 19 23 59.106 23.8439 1
9 19 23 128.044 3.8509 1
11 15 25 130.25 5.4706 -2
9 19 23 130.25 5.4706 1
1 3 31 277.776 6.65354 -2
9 19 23 277.776 6.65354 1
0 14 28 76.3826 20.2746 -2
9 19 23 76.3826 20.2746 1
11 19 23 669.067 8.78915 1
2 2 32 897.339 19.5956 -2
11 19 23 897.339 19.5956 1
12 16 24 652.854 15.0798 -2
11 19 23 652.854 15.0798 1
1 13 29 684.368 10.0098 -2
11 19 23 684.368 10.0098 1
6 14 28 993.141 32.3144 -2
11 19 23 993.141 32.3144 1
7 13 29 181.019 6.22332 -2
13 19 23 181.019 6.22332 1
14 18 24 189.997 13.4583 -2
13 19 23 189.997 13.4583 1
13 19 23 142.07 5.01736 1
2 12 30 293.045 27.7036 -2
13 19 23 293.045 27.7036 1
0 4 32 137.854 24.1718 -2
13 19 23 137.854 24.1718 1
1 5 33 77.2904 4.95301 -2
15 19 23 77.2904 4.95301 1
15 19 23 20.5798 4.77694 -2
15 19 23 20.5798 4.77694 1
15 19 23 9.55852 4.1991 1
8 12 30 129.251 37.2777 -2
15 19 23 129.251 37.2777 1
2 10 32 370.172 30.3603 -2
15 19 23 370.172 30.3603 1
17 19 23 20.8329 5.42524 1
3 9 33 112.641 6.7764 -2
17 19 23 112.641 6.7764 1
2 6 34 11.8272 14.2477 -2
17 19 23 11.8272 14.2477 1
16 20 22 40.9214 13.2401 -2
17 19 23 40.9214 13.2401 1
8 10 32 132.087 19.6747 -2
17 19 23 132.087 19.6747 1
6 8 30 1184.25 17.1156 -2
1 21 23 1184.25 17.1156 1
1 21 23 1346.43 14.1561 -2
1 21 23 1346.43 14.1561 1
7 9 29 1096.54 12.596 -2
1 21 23 1096.54 12.596 1
1 21 23 986.738 12.6108 1
2 22 22 1516.16 53.9155 -2
1 21 23 1516.16 53.9155 1
3 21 23 746.223 7.69707 1
4 6 30 960.432 17.1498 -2
3 21 23 960.432 17.1498 1
8 10 28 743.983 14.5814 -2
3 21 23 743.983 14.5814 1
0 20 24 796.046 25.266 -2
3 21 23 796.046 25.266 1
10 12 28 108.301 11.0296 -2
5 21 23 108.301 11.0296 1
0 18 26 115.094 27.5208 -2
5 21 23 115.094 27.5208 1
3 5 31 119.475 5.09338 -2
5 21 23 119.475 5.09338 1
5 21 23 108.941 5.70563 1
3 19 25 147.283 6.07434 -2
5 21 23 147.283 6.07434 1
11 13 27 34.5527 5.21978 -2
7 21 23 34.5527 5.21978 1
7 21 23 14.6522 4.16806 1
2 4 32 55.1899 13.0218 -2
7 21 23 55.1899 13.0218 1
1 17 27 124.462 5.13674 -2
7 21 23 124.462 5.13674 1
4 18 26 265.014 35.2902 -2
7 21 23 265.014 35.2902 1
9 21 23 416.886 6.24581 1
12 14 26 412.992 12.4882 -2
9 21 23 412.992 12.4882 1
2 16 28 496.882 41.9384 -2
9 21 23 496.882 41.9384 1
0 2 32 771.628 19.1879 -2
9 21 23 771.628 19.1879 1
4 16 28 844.852 31.5635 -2
9 21 23 844.852 31.5635 1
11 21 23 1232.54 15.9388 1
14 16 26 1474.28 16.9788 -2
11 21 23 1474.28 16.9788 1
5 15 29 1495.02 16.0299 -2
11 21 23 1495.02 16.0299 1
1 1 33 1722.38 17.3712 -2
11 21 23 1722.38 17.3712 1
2 14 30 1334.11 54.6873 -2
11 21 23 1334.11 54.6873 1
13 21 23 692.942 10.5287 1
3 13 31 830.209 11.9101 -2
13 21 23 830.209 11.9101 1
15 17 25 869.733 11.0681 -2
13 21 23 869.733 11.0681 1
0 2 34 933.97 19.9282 -2
13 21 23 933.97 19.9282 1
6 14 30 764.757 32.3208 -2
13 21 23 764.757 32.3208 1
4 12 32 199.486 24.2208 -2
15 21 23 199.486 24.2208 1
15 21 23 73.9265 4.44816 1
6 12 32 229.494 24.5892 -2
15 21 23 229.494 24.5892 1
2 4 34 59.5057 17.2982 -2
15 21 23 59.5057 17.2982 1
16 18 24 168.821 13.9518 -2
15 21 23 168.821 13.9518 1
8 8 30 1018.31 24.719 -2
1 23 23 1018.31 24.719 1
7 7 31 1067.95 18.3352 -2
1 23 23 1067.95 18.3352 1
1 23 23 990.078 15.3435 1
0 22 24 1331.55 51.2831 -2
1 23 23 1331.55 51.2831 1
1 21 25 574.762 10.2596 -2
3 23 23 574.762 10.2596 1
10 10 30 603.914 30.4654 -2
3 23 23 603.914 30.4654 1
6 6 32 475.726 17.5406 -2
3 23 23 475.726 17.5406 1
2 20 26 33.2323 38.9203 -2
5 23 23 33.2323 38.9203 1
11 11 29 123.539 7.955 -2
5 23 23 123.539 7.955 1
4 4 32 -10.655 18.1901 -2
5 23 23 -10.655 18.1901 1
5 23 23 16.4517 6.39861 1
7 23 23 -2.4379 5.75493 1
12 12 28 16.9518 20.448 -2
7 23 23 16.9518 20.448 1
3 3 33 3.2947 7.82061 -2
7 23 23 3.2947 7.82061 1
2 18 28 207.66 28.1705 -2
7 23 23 207.66 28.1705 1
3 17 29 556.721 10.1497 -2
9 23 23 556.721 10.1497 1
14 14 28 412.786 20.773 -2
9 23 23 412.786 20.773 1
9 23 23 292.058 30.3189 1
2 2 34 355.37 24.29 -2
9 23 23 355.37 24.29 1
0 0 34 1780.59 47.0413 -2
11 23 23 1780.59 47.0413 1
15 15 27 1285.78 19.3856 -2
11 23 23 1285.78 19.3856 1
11 23 23 1098.99 13.3341 1
8 16 16 3122 41.0389 -2
0 0 24 3122 41.0389 1
0 2 24 1449.51 10.0541 1
2 2 24 1178.21 11.3197 1
8 14 18 1223.21 12.5161 -2
2 2 24 1223.21 12.5161 1
5 15 19 500.242 16.0863 -2
0 4 24 500.242 16.0863 1
0 4 24 44.2746 2.10236 1
12 14 16 67.4089 3.01836 -2
2 4 24 67.4089 3.01836 1
2 4 24 12.6916 1.40307 1
4 16 18 760.423 8.39084 -2
2 4 24 760.423 8.39084 1
4 4 24 515.465 7.15957 1
8 12 20 769.221 9.1647 -2
4 4 24 769.221 9.1647 1
3 17 17 738.311 31.2155 -2
4 4 24 738.311 31.2155 1
12 12 18 87.9663 3.44615 -2
0 6 24 87.9663 3.44615 1
4 14 20 49.049 2.5549 -2
0 6 24 49.049 2.5549 1
2 6 24 52.189 1.47516 1
3 15 19 190.205 12.8904 -2
2 6 24 190.205 12.8904 1
5 13 21 97.2263 22.656 -2
2 6 24 97.2263 22.656 1
4 6 24 709.328 4.42478 1
1 17 19 726.644 15.9293 -2
4 6 24 726.644 15.9293 1
7 11 21 1012.62 38.2049 -2
4 6 24 1012.62 38.2049 1
14 14 16 517.575 11.8985 -2
6 6 24 517.575 11.8985 1
8 10 22 693.931 8.11922 -2
6 6 24 693.931 8.11922 1
0 18 18 414.261 8.95499 -2
6 6 24 414.261 8.95499 1
0 8 24 505.642 5.67407 1
3 13 21 630.083 14.8469 -2
0 8 24 630.083 14.8469 1
2 8 24 218.035 4.21765 1
1 15 21 261.465 9.55784 -2
2 8 24 261.465 9.55784 1
4 12 22 576.292 8.05521 -2
2 8 24 576.292 8.05521 1
10 12 20 873.06 8.79933 -2
2 8 24 873.06 8.79933 1
0 16 20 300.973 5.59368 -2
4 8 24 300.973 5.59368 1
4 8 24 306.928 3.86802 1
12 16 16 523.108 7.22335 -2
4 8 24 523.108 7.22335 1
5 11 23 388.248 19.4336 -2
4 8 24 388.248 19.4336 1
6 8 24 327.21 3.00001 1
1 17 19 376.97 9.78802 -2
6 8 24 376.97 9.78802 1
8 8 24 3.85642 3.66198 1
3 19 19 24.3863 13.935 -2
8 8 24 24.3863 13.935 1
8 8 24 1.62869 3.01067 -2
8 8 24 1.62869 3.01067 1
0 10 24 719.409 7.18718 1
1 13 23 1111.52 22.835 -2
0 10 24 1111.52 22.835 1
2 10 24 584.745 5.44252 1
0 14 22 829.689 8.64496 -2
2 10 24 829.689 8.64496 1
10 16 18 669.31 7.88007 -2
2 10 24 669.31 7.88007 1
3 11 23 953.508 17.3114 -2
2 10 24 953.508 17.3114 1
4 10 24 14.3116 2.54703 1
8 12 22 462.346 6.13653 -2
4 10 24 462.346 6.13653 1
1 15 21 53.5001 9.54399 -2
4 10 24 53.5001 9.54399 1
4 10 24 11.206 3.12885 -2
4 10 24 11.206 3.12885 1
3 17 21 27.4566 10.9939 -2
6 10 24 27.4566 10.9939 1
6 10 24 4.14056 1.75098 1
5 9 25 131.195 23.8792 -2
6 10 24 131.195 23.8792 1
7 11 23 100.805 16.3495 -2
6 10 24 100.805 16.3495 1
12 14 20 397.794 7.36865 -2
8 10 24 397.794 7.36865 1
8 10 24 256.835 4.09918 1
4 18 20 267.67 6.08149 -2
8 10 24 267.67 6.08149 1
7 7 25 301.249 26.3555 -2
8 10 24 301.249 26.3555 1
7 9 25 284.726 18.9826 -2
8 10 24 284.726 18.9826 1
6 8 26 1532.41 13.9503 -2
10 10 24 1532.41 13.9503 1
10 10 24 1346.16 16.0926 1
5 19 19 1312.38 25.6228 -2
10 10 24 1312.38 25.6228 1
0 12 24 952.756 9.86813 -2
0 12 24 952.756 9.86813 1
8 16 20 823.664 9.21277 -2
0 12 24 823.664 9.21277 1
2 12 24 486.878 4.67156 1
1 13 23 869.269 15.8063 -2
2 12 24 869.269 15.8063 1
1 11 25 653.679 30.1232 -2
2 12 24 653.679 30.1232 1
4 12 24 1.40977 1.71991 1
3 9 25 43.5704 22.902 -2
4 12 24 43.5704 22.902 1
3 15 23 3.90264 7.79404 -2
4 12 24 3.90264 7.79404 1
4 8 26 225.874 5.48094 -2
6 12 24 225.874 5.48094 1
10 16 20 57.146 3.7373 -2
6 12 24 57.146 3.7373 1
6 12 24 78.1462 3.31253 -2
6 12 24 78.1462 3.31253 1
4 16 22 75.3422 3.54499 -2
6 12 24 75.3422 3.54499 1
8 12 24 298.736 3.61147 1
5 11 25 311.696 20.4907 -2
8 12 24 311.696 20.4907 1
5 17 21 323.42 9.81912 -2
8 12 24 323.42 9.81912 1
5 7 27 831.167 26.8906 -2
8 12 24 831.167 26.8906 1
10 12 24 865.941 6.17542 1
7 19 21 889.956 11.941 -2
10 12 24 889.956 11.941 1
5 9 27 999.495 23.9271 -2
10 12 24 999.495 23.9271 1
5 7 27 1371.58 46.1471 -2
10 12 24 1371.58 46.1471 1
8 20 20 1051.55 16.2744 -2
12 12 24 1051.55 16.2744 1
4 8 28 1127.54 12.7884 -2
12 12 24 1127.54 12.7884 1
12 12 24 1325.39 17.6481 -2
12 12 24 1325.39 17.6481 1
0 14 24 310.829 5.19929 1
7 17 21 391.251 24.2698 -2
0 14 24 391.251 24.2698 1
1 11 25 503.243 18.3679 -2
0 14 24 503.243 18.3679 1
0 10 26 228.158 5.28304 -2
2 14 24 228.158 5.28304 1
3 13 25 177.46 10.6883 -2
2 14 24 177.46 10.6883 1
6 16 22 278.13 5.59988 -2
2 14 24 278.13 5.59988 1
2 14 24 89.8752 3.76567 1
4 14 24 350.734 6.49006 -2
4 14 24 350.734 6.49006 1
4 14 24 254.763 4.83666 1
8 18 20 254.696 6.16099 -2
4 14 24 254.696 6.16099 1
1 9 27 296.383 12.0848 -2
4 14 24 296.383 12.0848 1
6 14 24 199.66 3.34091 1
5 15 23 351.692 9.39708 -2
6 14 24 351.692 9.39708 1
9 17 21 217.842 24.7593 -2
6 14 24 217.842 24.7593 1
4 12 26 123.796 4.02004 -2
8 14 24 123.796 4.02004 1
8 14 24 -0.3947 3.39113 1
4 6 28 455.766 7.11951 -2
8 14 24 455.766 7.11951 1
9 15 23 28.9105 24.3483 -2
8 14 24 28.9105 24.3483 1
7 17 23 96.1685 8.64674 -2
8 14 24 96.1685 8.64674 1
10 14 24 285.456 6.71368 -2
10 14 24 285.456 6.71368 1
8 18 22 208.102 5.4543 -2
10 14 24 208.102 5.4543 1
10 14 24 209.784 4.94839 1
5 5 29 534.929 24.825 -2
10 14 24 534.929 24.825 1
3 11 27 281.553 19.7328 -2
10 14 24 281.553 19.7328 1
12 14 24 324.635 4.6572 1
3 9 29 364.24 21.9855 -2
12 14 24 364.24 21.9855 1
9 19 21 412.517 10.3405 -2
12 14 24 412.517 10.3405 1
3 7 29 512.458 37.4574 -2
12 14 24 512.458 37.4574 1
2 8 30 27.1177 4.13505 -2
14 14 24 27.1177 4.13505 1
14 14 24 3.81551 5.83287 1
11 21 21 587.227 17.7197 -2
14 14 24 587.227 17.7197 1
3 11 27 143.974 10.1905 -2
0 16 24 143.974 10.1905 1
0 16 24 65.5391 3.24033 1
1 9 27 47.4752 8.43889 -2
2 16 24 47.4752 8.43889 1
6 20 20 104.998 4.32705 -2
2 16 24 104.998 4.32705 1
4 12 26 128.56 4.50414 -2
2 16 24 128.56 4.50414 1
2 16 24 6.60633 2.86021 1
5 17 23 156.344 21.3236 -2
2 16 24 156.344 21.3236 1
5 13 25 934.408 14.395 -2
4 16 24 934.408 14.395 1
4 16 24 824.065 9.26169 1
4 16 24 1111.8 11.3312 -2
4 16 24 1111.8 11.3312 1
0 8 28 820.047 8.98441 -2
4 16 24 820.047 8.98441 1
6 16 24 669.018 5.68693 1
7 15 25 833.263 14.0409 -2
6 16 24 833.263 14.0409 1
1 7 29 651.485 21.3873 -2
6 16 24 651.485 21.3873 1
8 16 24 92.905 3.51428 1
8 16 24 127.141 3.23616 -2
8 16 24 127.141 3.23616 1
3 5 29 259.489 28.094 -2
8 16 24 259.489 28.094 1
3 13 27 299.752 20.7117 -2
8 16 24 299.752 20.7117 1
2 12 28 71.0959 3.86354 -2
10 16 24 71.0959 3.86354 1
4 4 30 137.43 4.7051 -2
10 16 24 137.43 4.7051 1
9 17 23 78.9047 8.81948 -2
10 16 24 78.9047 8.81948 1
10 16 24 57.8598 4.51966 1
1 11 29 121.78 16.302 -2
12 16 24 121.78 16.302 1
12 16 24 1.09399 2.6053 1
11 19 23 247.916 12.9576 -2
12 16 24 247.916 12.9576 1
9 13 27 12.911 31.1861 -2
12 16 24 12.911 31.1861 1
3 5 31 13.2204 18.5153 -2
12 16 24 13.2204 18.5153 1
14 16 24 57.8803 4.00418 1
10 12 28 68.8949 4.58034 -2
14 16 24 68.8949 4.58034 1
12 20 22 496.55 8.30885 -2
14 16 24 496.55 8.30885 1
1 9 31 286.678 26.2381 -2
14 16 24 286.678 26.2381 1
1 7 31 139.532 28.9598 -2
14 16 24 139.532 28.9598 1
0 8 32 444.611 9.27502 -2
16 16 24 444.611 9.27502 1
16 16 24 179.961 9.56413 1
13 21 21 641.975 23.5583 -2
16 16 24 641.975 23.5583 1
11 11 29 341.195 39.1949 -2
16 16 24 341.195 39.1949 1
4 10 28 162.067 4.98691 -2
0 18 24 162.067 4.98691 1
4 20 22 265.314 6.64631 -2
0 18 24 265.314 6.64631 1
3 9 29 7.20689 9.69565 -2
2 18 24 7.20689 9.69565 1
2 18 24 0.06601 2.26238 1
5 11 27 124.482 12.098 -2
2 18 24 124.482 12.098 1
3 19 23 25.9797 23.1725 -2
2 18 24 25.9797 23.1725 1
7 13 27 434.167 12.7432 -2
4 18 24 434.167 12.7432 1
1 7 29 346.084 13.7649 -2
4 18 24 346.084 13.7649 1
4 18 24 332.675 4.55173 1
3 17 25 586.598 31.3102 -2
4 18 24 586.598 31.3102 1
5 19 23 334.122 33.7876 -2
4 18 24 334.122 33.7876 1
0 6 30 335.258 7.32168 -2
6 18 24 335.258 7.32168 1
8 14 26 360.023 7.06078 -2
6 18 24 360.023 7.06078 1
6 18 24 450.02 8.21522 -2
6 18 24 450.02 8.21522 1
2 16 26 578.597 8.71045 -2
6 18 24 578.597 8.71045 1
8 18 24 22.9098 2.76381 1
9 15 25 46.0512 8.65649 -2
8 18 24 46.0512 8.65649 1
1 5 31 29.6673 13.0701 -2
8 18 24 29.6673 13.0701 1
1 15 27 83.5924 17.7911 -2
8 18 24 83.5924 17.7911 1
10 18 24 102.989 3.61802 1
3 3 31 169.74 14.8218 -2
10 18 24 169.74 14.8218 1
11 17 25 105.788 12.5404 -2
10 18 24 105.788 12.5404 1
1 13 29 120.738 17.9928 -2
10 18 24 120.738 17.9928 1
7 15 27 364.258 25.9972 -2
10 18 24 364.258 25.9972 1
2 4 32 71.2346 4.55389 -2
12 18 24 71.2346 4.55389 1
8 14 28 104.671 5.44482 -2
12 18 24 104.671 5.44482 1
0 12 30 327.858 8.817 -2
12 18 24 327.858 8.817 1
12 18 24 46.3551 5.97069 -2
12 18 24 46.3551 5.97069 1
9 13 29 100.036 36.2138 -2
14 18 24 100.036 36.2138 1
13 19 23 158.721 14.3835 -2
14 18 24 158.721 14.3835 1
14 18 24 87.4287 3.87696 1
1 5 33 129.357 17.9094 -2
14 18 24 129.357 17.9094 1
1 11 31 499.687 29.7717 -2
14 18 24 499.687 29.7717 1
1 9 33 588.731 26.6096 -2
16 18 24 588.731 26.6096 1
16 18 24 264.516 5.7376 1
1 7 33 428.865 26.0149 -2
16 18 24 428.865 26.0149 1
9 11 31 454.365 24.3511 -2
16 18 24 454.365 24.3511 1
15 21 23 272.795 14.21 -2
16 18 24 272.795 14.21 1
5 9 29 392.978 14.9014 -2
0 20 24 392.978 14.9014 1
0 20 24 269.159 7.76821 1
4 8 30 322.93 7.58003 -2
2 20 24 322.93 7.58003 1
7 11 29 279.52 11.9696 -2
2 20 24 279.52 11.9696 1
2 20 24 372.045 8.06962 -2
2 20 24 372.045 8.06962 1
2 20 24 275.703 7.9346 1
1 19 25 47.9278 19.8006 -2
4 20 24 47.9278 19.8006 1
4 20 24 12.1908 4.49529 1
3 7 31 5.41351 12.5735 -2
4 20 24 5.41351 12.5735 1
4 20 24 17.7454 4.99436 -2
4 20 24 17.7454 4.99436 1
8 12 28 17.0483 4.70336 -2
4 20 24 17.0483 4.70336 1
9 13 27 10.4131 11.9368 -2
6 20 24 10.4131 11.9368 1
6 20 24 6.7511 2.83467 1
1 5 31 16.3705 16.4811 -2
6 20 24 16.3705 16.4811 1
1 17 27 111.087 21.2986 -2
6 20 24 111.087 21.2986 1
0 4 32 62.3051 4.99351 -2
8 20 24 62.3051 4.99351 1
8 20 24 15.4404 5.17835 1
11 15 27 51.3101 11.4727 -2
8 20 24 51.3101 11.4727 1
0 16 28 54.4713 4.35553 -2
8 20 24 54.4713 4.35553 1
5 17 27 609.318 39.2121 -2
8 20 24 609.318 39.2121 1
10 20 24 444.982 8.64446 1
12 16 26 555.053 9.75762 -2
10 20 24 555.053 9.75762 1
6 16 28 815.123 11.4558 -2
10 20 24 815.123 11.4558 1
1 3 33 517.784 17.163 -2
10 20 24 517.784 17.163 1
12 20 24 548.012 7.07358 1
13 17 25 581.427 12.7871 -2
12 20 24 581.427 12.7871 1
1 3 33 649.359 21.3704 -2
12 20 24 649.359 21.3704 1
1 13 31 875.193 35.6814 -2
12 20 24 875.193 35.6814 1
0 4 34 92.3279 5.37764 -2
14 20 24 92.3279 5.37764 1
15 19 25 125.78 13.2156 -2
14 20 24 125.78 13.2156 1
7 13 31 130.971 28.4893 -2
14 20 24 130.971 28.4893 1
2 12 32 453.616 11.1065 -2
14 20 24 453.616 11.1065 1
14 20 24 30.6085 6.8945 1
0 22 24 814.096 13.9063 1
7 9 31 822.045 15.266 -2
0 22 24 822.045 15.266 1
5 7 31 704.171 15.6103 -2
2 22 24 704.171 15.6103 1
8 10 30 584.897 10.1154 -2
2 22 24 584.897 10.1154 1
2 22 24 597.363 12.796 1
2 22 24 817.599 12.1748 -2
2 22 24 817.599 12.1748 1
1 21 25 687.929 41.6155 -2
2 22 24 687.929 41.6155 1
3 21 25 97.9379 19.4406 -2
4 22 24 97.9379 19.4406 1
0 20 26 123.907 6.02441 -2
4 22 24 123.907 6.02441 1
9 11 29 152.951 12.807 -2
4 22 24 152.951 12.807 1
4 22 24 121.681 7.39536 1
4 6 32 127.244 6.05399 -2
4 22 24 127.244 6.05399 1
6 22 24 2.23726 3.72318 1
3 19 27 168.698 35.5218 -2
6 22 24 168.698 35.5218 1
11 13 29 36.4369 11.8902 -2
6 22 24 36.4369 11.8902 1
3 5 33 -5.7662 16.6027 -2
6 22 24 -5.7662 16.6027 1
1 19 27 41.3903 30.8408 -2
6 22 24 41.3903 30.8408 1
4 18 28 522.467 10.4935 -2
8 22 24 522.467 10.4935 1
12 14 28 54.766 5.65777 -2
8 22 24 54.766 5.65777 1
8 22 24 47.9841 5.06741 1
1 17 29 113.986 22.8112 -2
8 22 24 113.986 22.8112 1
1 3 33 166.197 16.8825 -2
8 22 24 166.197 16.8825 1
13 15 27 810.738 14.5241 -2
10 22 24 810.738 14.5241 1
10 22 24 655.453 11.6934 1
2 16 30 664.109 10.9553 -2
10 22 24 664.109 10.9553 1
0 2 34 846.378 13.8155 -2
10 22 24 846.378 13.8155 1
5 17 29 1135.33 53.5118 -2
10 22 24 1135.33 53.5118 1
12 22 24 631.753 5.65812 1
5 15 31 755.721 34.3684 -2
12 22 24 755.721 34.3684 1
8 8 32 423.59 13.7914 -2
0 24 24 423.59 13.7914 1
0 24 24 598.062 18.0826 -2
0 24 24 598.062 18.0826 1
2 24 24 195.492 8.3471 1
7 7 33 218.206 21.4619 -2
2 24 24 218.206 21.4619 1
9 9 31 245.916 19.092 -2
2 24 24 245.916 19.092 1
4 24 24 35.7188 6.80202 1
11 11 31 322.416 18.6686 -2
4 24 24 322.416 18.6686 1
5 5 33 78.5543 20.1898 -2
4 24 24 78.5543 20.1898 1
1 21 27 64.28 36.923 -2
4 24 24 64.28 36.923 1
12 12 30 256.982 11.1885 -2
6 24 24 256.982 11.1885 1
2 20 28 75.9416 6.15938 -2
6 24 24 75.9416 6.15938 1
4 4 34 74.8138 9.33434 -2
6 24 24 74.8138 9.33434 1
8 24 24 -0.0057 5.30734 1
13 13 29 27.9269 17.1497 -2
8 24 24 27.9269 17.1497 1
3 19 29 73.8287 44.422 -2
8 24 24 73.8287 44.422 1
1 1 25 1557.97 13.5744 1
7 17 17 1969.12 28.0352 -2
1 1 25 1969.12 28.0352 1
11 15 17 156.8 4.51873 -2
1 3 25 156.8 4.51873 1
1 3 25 3.68611 1.64352 1
7 15 19 173.916 5.90326 -2
1 3 25 173.916 5.90326 1
4 18 18 650.04 22.3637 -2
3 3 25 650.04 22.3637 1
3 3 25 450.279 5.23376 1
11 13 19 211.585 5.39198 -2
1 5 25 211.585 5.39198 1
1 5 25 97.7799 2.37002 1
4 16 20 328.475 15.0938 -2
1 5 25 328.475 15.0938 1
6 14 20 104.427 24.338 -2
1 5 25 104.427 24.338 1
3 17 19 931.841 9.82669 -2
3 5 25 931.841 9.82669 1
3 5 25 682.222 5.72207 1
7 13 21 743.258 9.21612 -2
3 5 25 743.258 9.21612 1
5 5 25 1110.01 10.9748 1
15 15 15 1161.16 16.4387 -2
5 5 25 1161.16 16.4387 1
2 18 18 1214.37 29.7774 -2
5 5 25 1214.37 29.7774 1
1 7 25 189.125 3.04913 1
3 15 21 176.273 5.18884 -2
1 7 25 176.273 5.18884 1
4 14 22 207.629 17.4239 -2
1 7 25 207.629 17.4239 1
2 16 20 270.535 10.637 -2
3 7 25 270.535 10.637 1
3 7 25 254.085 4.71088 1
13 15 17 536.044 7.28162 -2
3 7 25 536.044 7.28162 1
11 11 21 1623.16 16.058 -2
3 7 25 1623.16 16.058 1
5 7 25 731.688 6.43315 1
7 11 23 882.293 12.1503 -2
5 7 25 882.293 12.1503 1
0 18 20 832.02 15.7147 -2
5 7 25 832.02 15.7147 1
7 7 25 144.703 4.17989 1
1 19 19 298.749 8.6811 -2
7 7 25 298.749 8.6811 1
8 10 24 213.801 18.6089 -2
7 7 25 213.801 18.6089 1
3 13 23 444.735 8.17049 -2
1 9 25 444.735 8.17049 1
1 9 25 306.666 5.38014 1
2 14 22 396 18.5619 -2
1 9 25 396 18.5619 1
11 15 19 315.18 7.24502 -2
1 9 25 315.18 7.24502 1
3 9 25 94.7328 2.30423 1
0 16 22 152.037 11.7047 -2
3 9 25 152.037 11.7047 1
4 12 24 82.5518 24.4841 -2
3 9 25 82.5518 24.4841 1
9 11 23 956.315 9.50555 -2
5 9 25 956.315 9.50555 1
1 17 21 449.678 7.27792 -2
5 9 25 449.678 7.27792 1
5 9 25 397.336 5.21338 1
7 9 25 38.4414 2.82384 1
2 18 20 67.0353 8.81688 -2
7 9 25 67.0353 8.81688 1
13 15 19 113.034 4.38883 -2
7 9 25 113.034 4.38883 1
7 9 25 49.5038 3.58546 -2
7 9 25 49.5038 3.58546 1
9 9 25 208.661 5.08294 1
4 20 20 339.088 16.7184 -2
9 9 25 339.088 16.7184 1
8 8 26 232.044 19.4739 -2
9 9 25 232.044 19.4739 1
9 15 21 430.494 6.768 -2
1 11 25 430.494 6.768 1
0 14 24 563.339 16.8609 -2
1 11 25 563.339 16.8609 1
1 11 25 436.946 5.17653 1
2 12 24 661.062 30.5467 -2
1 11 25 661.062 30.5467 1
3 11 25 -0.2524 1.9996 1
1 15 23 89.7298 3.65462 -2
3 11 25 89.7298 3.65462 1
3 11 25 7.16246 3.21462 -2
3 11 25 7.16246 3.21462 1
4 10 26 92.8373 14.6108 -2
5 11 25 92.8373 14.6108 1
5 11 25 21.1092 2.28672 1
2 16 22 53.9496 9.08929 -2
5 11 25 53.9496 9.08929 1
11 17 19 46.2216 3.65129 -2
5 11 25 46.2216 3.65129 1
4 18 22 89.058 10.6935 -2
7 11 25 89.058 10.6935 1
7 11 25 71.4745 2.59777 1
7 11 25 97.753 3.97232 -2
7 11 25 97.753 3.97232 1
6 8 26 274.3 28.4937 -2
7 11 25 274.3 28.4937 1
7 7 27 582.67 8.21078 -2
9 11 25 582.67 8.21078 1
9 11 25 307.761 4.9528 1
5 19 21 294.646 6.41431 -2
9 11 25 294.646 6.41431 1
6 10 26 326.022 27.7832 -2
9 11 25 326.022 27.7832 1
6 20 20 647.855 16.9044 -2
11 11 25 647.855 16.9044 1
11 11 25 555.894 10.1625 1
13 13 23 941.413 14.2057 -2
11 11 25 941.413 14.2057 1
6 8 28 944.572 29.9382 -2
11 11 25 944.572 29.9382 1
8 18 20 82.9027 21.2543 -2
1 13 25 82.9027 21.2543 1
1 13 25 89.7141 2.68628 1
0 12 26 126.457 11.5144 -2
1 13 25 126.457 11.5144 1
1 13 25 121.465 4.03674 -2
1 13 25 121.465 4.03674 1
2 10 26 221.797 13.24 -2
3 13 25 221.797 13.24 1
9 19 19 228.975 6.04092 -2
3 13 25 228.975 6.04092 1
7 15 23 257.979 5.9649 -2
3 13 25 257.979 5.9649 1
3 13 25 184.2 6.29655 1
2 14 24 237.112 9.17893 -2
3 13 25 237.112 9.17893 1
5 13 25 322.919 4.52165 1
4 16 24 629.669 13.054 -2
5 13 25 629.669 13.054 1
3 9 27 318.815 6.8166 -2
5 13 25 318.815 6.8166 1
7 13 25 34.3988 2.38957 1
5 17 23 204.766 5.70076 -2
7 13 25 204.766 5.70076 1
4 8 28 176.456 16.8567 -2
7 13 25 176.456 16.8567 1
11 15 23 270.688 6.86194 -2
9 13 25 270.688 6.86194 1
5 11 27 175.458 5.08667 -2
9 13 25 175.458 5.08667 1
9 13 25 54.787 4.30134 1
6 18 22 107.513 9.02435 -2
9 13 25 107.513 9.02435 1
6 6 28 516.272 32.6494 -2
9 13 25 516.272 32.6494 1
11 13 25 117.335 3.49053 1
5 7 29 404.622 7.64976 -2
11 13 25 404.622 7.64976 1
8 20 22 144.602 9.79465 -2
11 13 25 144.602 9.79465 1
4 10 28 169.825 19.9391 -2
11 13 25 169.825 19.9391 1
13 13 25 107.099 4.66503 1
9 21 21 377.79 10.6525 -2
13 13 25 377.79 10.6525 1
4 8 30 158.881 19.4927 -2
13 13 25 158.881 19.4927 1
1 11 27 16.3041 3.84366 -2
1 15 25 16.3041 3.84366 1
7 19 21 10.0775 3.36959 -2
1 15 25 10.0775 3.36959 1
1 15 25 5.84767 3.21869 1
2 12 26 21.157 9.71711 -2
1 15 25 21.157 9.71711 1
6 18 22 72.7508 22.3273 -2
1 15 25 72.7508 22.3273 1
3 15 25 615.427 5.79062 1
0 10 28 670.98 14.2228 -2
3 15 25 670.98 14.2228 1
4 14 26 1034.42 14.5581 -2
3 15 25 1034.42 14.5581 1
8 20 20 704.386 32.4696 -2
3 15 25 704.386 32.4696 1
5 15 25 1834.54 11.2904 -2
5 15 25 1834.54 11.2904 1
5 15 25 1345.15 11.0836 1
8 18 22 1292.99 42.9634 -2
5 15 25 1292.99 42.9634 1
2 8 28 1377.13 27.6803 -2
5 15 25 1377.13 27.6803 1
3 7 29 485.999 8.56859 -2
7 15 25 485.999 8.56859 1
6 16 24 662.539 11.803 -2
7 15 25 662.539 11.803 1
9 17 23 402.377 7.3872 -2
7 15 25 402.377 7.3872 1
7 15 25 403.902 6.82972 1
4 14 26 808.237 25.8706 -2
7 15 25 808.237 25.8706 1
9 15 25 44.21 2.72385 1
8 18 24 59.5452 9.18805 -2
9 15 25 59.5452 9.18805 1
4 6 30 264.136 18.8683 -2
9 15 25 264.136 18.8683 1
4 12 28 176.139 23.3206 -2
9 15 25 176.139 23.3206 1
10 16 24 55.6518 26.6534 -2
9 15 25 55.6518 26.6534 1
9 19 23 47.7231 4.17006 -2
11 15 25 47.7231 4.17006 1
3 11 29 7.9647 3.62191 -2
11 15 25 7.9647 3.62191 1
11 15 25 5.92748 3.15451 1
4 6 30 199.893 31.354 -2
11 15 25 199.893 31.354 1
10 20 22 430.247 12.6317 -2
13 15 25 430.247 12.6317 1
11 13 27 145.872 5.16499 -2
13 15 25 145.872 5.16499 1
3 7 31 124.158 5.63601 -2
13 15 25 124.158 5.63601 1
13 15 25 133.963 6.95177 1
2 10 30 252.303 37.2176 -2
13 15 25 252.303 37.2176 1
15 15 25 292.926 7.69687 1
2 8 32 425.831 22.1483 -2
15 15 25 425.831 22.1483 1
12 22 22 857.703 33.3274 -2
15 15 25 857.703 33.3274 1
12 12 28 268.748 36.5953 -2
15 15 25 268.748 36.5953 1
1 17 25 6.93893 2.8415 1
5 19 23 11.0509 3.73005 -2
1 17 25 11.0509 3.73005 1
2 10 28 6.28552 10.4856 -2
1 17 25 6.28552 10.4856 1
4 12 28 159.894 14.1028 -2
1 17 25 159.894 14.1028 1
3 17 25 704.575 7.11111 1
1 9 29 738.453 9.77502 -2
3 17 25 738.453 9.77502 1
5 13 27 999.887 10.9981 -2
3 17 25 999.887 10.9981 1
6 20 22 653.963 39.1416 -2
3 17 25 653.963 39.1416 1
7 19 23 1157.82 12.7284 -2
5 17 25 1157.82 12.7284 1
6 14 26 1520.58 19.8709 -2
5 17 25 1520.58 19.8709 1
4 16 26 1876.35 56.0185 -2
5 17 25 1876.35 56.0185 1
5 17 25 1178.96 10.3194 1
0 8 30 1334.63 23.1888 -2
5 17 25 1334.63 23.1888 1
7 17 25 375.239 6.43832 1
3 15 27 760.641 9.1966 -2
7 17 25 760.641 9.1966 1
2 6 30 383.311 20.1873 -2
7 17 25 383.311 20.1873 1
8 16 26 490.511 11.4339 -2
7 17 25 490.511 11.4339 1
8 18 24 385.996 35.2682 -2
7 17 25 385.996 35.2682 1
9 17 25 9.3806 3.00492 1
9 17 25 7.11668 4.04909 -2
9 17 25 7.11668 4.04909 1
3 5 31 3.68759 3.98737 -2
9 17 25 3.68759 3.98737 1
11 17 25 31.2533 4.2966 1
10 18 24 102.828 13.2312 -2
11 17 25 102.828 13.2312 1
9 15 27 101.152 4.82527 -2
11 17 25 101.152 4.82527 1
4 4 32 27.7477 16.6913 -2
11 17 25 27.7477 16.6913 1
2 12 30 155.783 26.9444 -2
11 17 25 155.783 26.9444 1
1 11 31 528.673 9.92268 -2
13 17 25 528.673 9.92268 1
13 17 25 142.72 4.98279 1
12 20 24 338.012 17.4213 -2
13 17 25 338.012 17.4213 1
2 6 32 193.721 22.9905 -2
13 17 25 193.721 22.9905 1
10 14 28 110.182 25.782 -2
13 17 25 110.182 25.782 1
13 21 23 746.195 11.8075 -2
15 17 25 746.195 11.8075 1
0 10 32 879.534 41.5741 -2
15 17 25 879.534 41.5741 1
15 17 25 473.708 8.39521 1
1 7 33 632.167 11.1475 -2
15 17 25 632.167 11.1475 1
10 12 30 542.892 43.2396 -2
15 17 25 542.892 43.2396 1
17 17 25 539.466 11.8454 1
11 11 31 837.094 18.2659 -2
17 17 25 837.094 18.2659 1
14 22 22 767.411 23.6085 -2
17 17 25 767.411 23.6085 1
1 19 25 29.4967 3.20624 1
5 11 29 62.9353 5.55733 -2
1 19 25 62.9353 5.55733 1
4 10 30 45.2689 14.0638 -2
1 19 25 45.2689 14.0638 1
6 12 28 224.109 13.8962 -2
3 19 25 224.109 13.8962 1
3 19 25 159.448 5.85202 -2
3 19 25 159.448 5.85202 1
3 19 25 122.327 6.41699 1
5 21 23 153.294 6.18873 -2
3 19 25 153.294 6.18873 1
2 8 30 169.993 14.9766 -2
3 19 25 169.993 14.9766 1
2 18 26 328.806 18.1016 -2
5 19 25 328.806 18.1016 1
8 14 28 275.778 11.2651 -2
5 19 25 275.778 11.2651 1
5 19 25 211.934 5.49195 1
1 7 31 280.978 7.37382 -2
5 19 25 280.978 7.37382 1
9 15 27 107.988 5.57095 -2
7 19 25 107.988 5.57095 1
0 6 32 89.5681 16.255 -2
7 19 25 89.5681 16.255 1
7 19 25 44.4261 3.62657 1
6 18 26 195.06 35.7491 -2
7 19 25 195.06 35.7491 1
2 16 28 79.4035 35.0486 -2
7 19 25 79.4035 35.0486 1
1 15 29 18.6978 4.72936 -2
9 19 25 18.6978 4.72936 1
7 17 27 278.081 8.16158 -2
9 19 25 278.081 8.16158 1
9 19 25 14.4395 8.05925 1
10 16 26 56.1307 12.7249 -2
9 19 25 56.1307 12.7249 1
2 4 32 58.1427 11.9711 -2
9 19 25 58.1427 11.9711 1
12 18 26 133.847 11.8767 -2
11 19 25 133.847 11.8767 1
11 19 25 110.956 4.5373 1
8 16 28 269.152 27.9356 -2
11 19 25 269.152 27.9356 1
3 3 33 98.2079 5.44362 -2
11 19 25 98.2079 5.44362 1
0 14 30 267.839 39.2684 -2
11 19 25 267.839 39.2684 1
13 19 25 4.68681 4.83107 -2
13 19 25 4.68681 4.83107 1
2 4 34 45.9488 15.0745 -2
13 19 25 45.9488 15.0745 1
13 19 25 5.7485 4.14194 1
0 12 32 490.403 22.8705 -2
13 19 25 490.403 22.8705 1
1 11 33 760.895 13.4152 -2
15 19 25 760.895 13.4152 1
14 20 24 274.468 14.5127 -2
15 19 25 274.468 14.5127 1
9 13 31 406.668 10.141 -2
15 19 25 406.668 10.141 1
0 6 34 313.358 19.9052 -2
15 19 25 313.358 19.9052 1
15 19 25 250.295 10.7916 1
6 10 30 277.912 14.2797 -2
1 21 25 277.912 14.2797 1
5 9 31 241.85 7.99982 -2
1 21 25 241.85 7.99982 1
1 21 25 269.186 9.84701 1
3 23 23 435.081 9.51437 -2
1 21 25 435.081 9.51437 1
3 21 25 49.3391 4.05869 1
4 8 32 54.6829 14.1119 -2
3 21 25 54.6829 14.1119 1
8 12 30 109.044 12.7381 -2
3 21 25 109.044 12.7381 1
9 13 29 7.16258 5.30768 -2
5 21 25 7.16258 5.30768 1
2 6 32 45.588 14.7955 -2
5 21 25 45.588 14.7955 1
1 19 27 34.5749 5.28394 -2
5 21 25 34.5749 5.28394 1
5 21 25 12.6261 4.39175 1
4 20 26 69.7448 35.1789 -2
5 21 25 69.7448 35.1789 1
10 14 28 3.28018 12.3308 -2
7 21 25 3.28018 12.3308 1
5 19 27 189.311 6.90141 -2
7 21 25 189.311 6.90141 1
1 5 33 51.2934 5.82898 -2
7 21 25 51.2934 5.82898 1
7 21 25 -0.673 5.32457 1
9 21 25 155.201 4.55096 1
0 16 30 178.725 41.5956 -2
9 21 25 178.725 41.5956 1
12 16 28 240.07 12.3294 -2
9 21 25 240.07 12.3294 1
0 4 34 216.889 17.0131 -2
9 21 25 216.889 17.0131 1
6 18 28 499.914 43.2284 -2
9 21 25 499.914 43.2284 1
11 21 25 307.396 8.89221 1
1 15 31 329.393 9.80644 -2
11 21 25 329.393 9.80644 1
2 2 34 347.428 17.9501 -2
11 21 25 347.428 17.9501 1
13 17 27 448.557 9.43057 -2
11 21 25 448.557 9.43057 1
6 16 30 642.92 26.7702 -2
11 21 25 642.92 26.7702 1
8 10 32 522.168 14.8984 -2
1 23 25 522.168 14.8984 1
1 23 25 419.744 11.9129 1
6 8 32 405.717 14.1468 -2
1 23 25 405.717 14.1468 1
1 23 25 563.565 11.8578 -2
1 23 25 563.565 11.8578 1
2 24 24 559.388 43.6469 -2
1 23 25 559.388 43.6469 1
5 7 33 37.6362 5.69073 -2
3 23 25 37.6362 5.69073 1
9 11 31 199.051 7.10253 -2
3 23 25 199.051 7.10253 1
3 23 25 23.745 4.4325 1
2 22 26 58.5456 36.0127 -2
3 23 25 58.5456 36.0127 1
3 21 27 48.2983 6.10687 -2
5 23 25 48.2983 6.10687 1
4 6 34 74.5018 16.0554 -2
5 23 25 74.5018 16.0554 1
10 12 30 155.042 12.0176 -2
5 23 25 155.042 12.0176 1
5 23 25 46.8193 6.90841 1
0 20 28 55.1799 38.8148 -2
5 23 25 55.1799 38.8148 1
1 19 29 19.6203 6.23752 -2
7 23 25 19.6203 6.23752 1
7 23 25 5.9027 3.83057 1
4 20 28 74.1055 41.0388 -2
7 23 25 74.1055 41.0388 1
2 4 34 5.75504 16.7233 -2
7 23 25 5.75504 16.7233 1
0 0 26 1567.52 23.9397 1
10 16 18 278.661 6.79271 -2
0 2 26 278.661 6.79271 1
0 2 26 186.954 6.64512 1
7 17 19 548.688 30.7956 -2
0 2 26 548.688 30.7956 1
2 2 26 40.9516 3.21464 1
6 18 18 328.232 10.112 -2
2 2 26 328.232 10.112 1
6 16 20 455.946 8.24637 -2
0 4 26 455.946 8.24637 1
0 4 26 165.412 5.30183 1
10 14 20 761.088 11.3079 -2
2 4 26 761.088 11.3079 1
2 4 26 665.581 6.23444 1
7 15 21 833.606 37.5475 -2
2 4 26 833.606 37.5475 1
5 17 19 1121.52 40.9168 -2
2 4 26 1121.52 40.9168 1
4 4 26 1039.15 15.343 1
14 16 16 1294.65 23.6728 -2
4 4 26 1294.65 23.6728 1
3 19 19 1139.54 41.1233 -2
4 4 26 1139.54 41.1233 1
0 6 26 42.5491 2.66044 1
5 15 21 164.564 17.9578 -2
0 6 26 164.564 17.9578 1
2 6 26 402.755 6.59111 1
14 14 18 529.925 7.89447 -2
2 6 26 529.925 7.89447 1
6 14 22 442.539 10.8649 -2
2 6 26 442.539 10.8649 1
3 17 21 418.407 27.7581 -2
2 6 26 418.407 27.7581 1
2 18 20 1343.49 14.045 -2
4 6 26 1343.49 14.045 1
10 12 22 2154.14 23.4961 -2
4 6 26 2154.14 23.4961 1
4 6 26 1336.89 11.1841 1
6 6 26 1172.7 10.7131 1
1 19 19 1356.61 29.7365 -2
6 6 26 1356.61 29.7365 1
0 8 26 290.201 8.71541 1
12 14 20 433.574 7.93116 -2
0 8 26 433.574 7.93116 1
3 15 23 321.699 30.8202 -2
0 8 26 321.699 30.8202 1
2 16 22 58.7001 4.35361 -2
2 8 26 58.7001 4.35361 1
2 8 26 22.1082 2.07721 1
4 8 26 447.7 4.77451 1
6 12 24 478.977 8.29559 -2
4 8 26 478.977 8.29559 1
1 17 21 532.12 17.8439 -2
4 8 26 532.12 17.8439 1
10 10 24 1098.92 12.3913 -2
6 8 26 1098.92 12.3913 1
1 19 21 802.19 14.8836 -2
6 8 26 802.19 14.8836 1
14 16 18 946.987 10.5843 -2
6 8 26 946.987 10.5843 1
6 8 26 585.197 8.10319 1
7 11 25 656.071 24.6726 -2
6 8 26 656.071 24.6726 1
8 8 26 5.55508 2.94825 1
9 9 25 46.7498 26.1531 -2
8 8 26 46.7498 26.1531 1
2 20 20 383.929 9.74601 -2
8 8 26 383.929 9.74601 1
2 14 24 375.001 7.2224 -2
0 10 26 375.001 7.2224 1
0 10 26 356.273 6.68882 1
10 14 22 226.929 6.08892 -2
2 10 26 226.929 6.08892 1
2 10 26 6.56238 2.22234 1
1 15 23 95.6188 14.448 -2
2 10 26 95.6188 14.448 1
3 13 25 75.117 14.1525 -2
2 10 26 75.117 14.1525 1
12 18 18 144.796 4.99895 -2
4 10 26 144.796 4.99895 1
4 10 26 131.948 3.13965 1
1 17 23 187.67 13.1136 -2
4 10 26 187.67 13.1136 1
6 10 26 136.007 3.43149 1
2 18 22 197.553 5.98504 -2
6 10 26 197.553 5.98504 1
6 10 26 182.318 5.77151 -2
6 10 26 182.318 5.77151 1
8 10 26 47.8164 3.84873 -2
8 10 26 47.8164 3.84873 1
8 10 26 33.3914 2.57578 1
3 19 21 119.202 11.1002 -2
8 10 26 119.202 11.1002 1
7 9 27 66.9785 20.1921 -2
8 10 26 66.9785 20.1921 1
7 9 27 320.113 30.0487 -2
10 10 26 320.113 30.0487 1
14 14 22 301.049 10.3385 -2
10 10 26 301.049 10.3385 1
10 10 26 222.411 6.8871 1
5 21 21 394.703 21.9453 -2
10 10 26 394.703 21.9453 1
0 12 26 121.502 3.60698 1
1 13 25 169.797 13.4535 -2
0 12 26 169.797 13.4535 1
2 12 26 92.8702 4.45604 -2
2 12 26 92.8702 4.45604 1
2 12 26 74.5375 3.71134 1
10 18 20 121.803 4.57004 -2
2 12 26 121.803 4.57004 1
1 15 25 59.109 11.5339 -2
2 12 26 59.109 11.5339 1
4 12 26 325.736 5.61792 1
2 16 24 316.539 6.60862 -2
4 12 26 316.539 6.60862 1
8 14 24 313.96 6.84529 -2
4 12 26 313.96 6.84529 1
3 11 27 401.612 12.5415 -2
4 12 26 401.612 12.5415 1
6 12 26 164.925 3.07403 1
3 17 23 169.885 9.9267 -2
6 12 26 169.885 9.9267 1
5 9 27 254.965 29.5475 -2
6 12 26 254.965 29.5475 1
7 13 25 186.71 30.591 -2
6 12 26 186.71 30.591 1
12 16 22 109.209 4.42044 -2
8 12 26 109.209 4.42044 1
6 8 28 334.478 7.50469 -2
8 12 26 334.478 7.50469 1
8 12 26 7.33193 3.20388 1
5 19 23 26.331 12.1481 -2
8 12 26 26.331 12.1481 1
7 11 27 -9.8017 29.1167 -2
8 12 26 -9.8017 29.1167 1
6 20 22 26.5167 4.20057 -2
10 12 26 26.5167 4.20057 1
10 12 26 18.641 2.98606 1
6 10 28 95.0705 4.97152 -2
10 12 26 95.0705 4.97152 1
7 7 29 310.539 36.0776 -2
10 12 26 310.539 36.0776 1
12 12 26 3.74612 3.67141 1
5 9 29 147.746 30.6177 -2
12 12 26 147.746 30.6177 1
7 21 21 34.1784 13.7442 -2
12 12 26 34.1784 13.7442 1
8 18 22 -1.7599 3.40094 -2
0 14 26 -1.7599 3.40094 1
1 13 27 5.30391 11.0606 -2
0 14 26 5.30391 11.0606 1
0 14 26 1.27593 6.35859 1
2 14 26 422.436 4.73047 1
2 14 26 572.503 8.63771 -2
2 14 26 572.503 8.63771 1
7 17 23 507.043 28.0516 -2
2 14 26 507.043 28.0516 1
1 11 27 445.792 16.8976 -2
2 14 26 445.792 16.8976 1
3 15 25 1299.03 15.5859 -2
4 14 26 1299.03 15.5859 1
4 14 26 1064.32 8.62617 1
2 10 28 1039.02 11.6977 -2
4 14 26 1039.02 11.6977 1
9 19 21 1170.13 40.8251 -2
4 14 26 1170.13 40.8251 1
10 18 22 970.262 10.8956 -2
6 14 26 970.262 10.8956 1
6 14 26 1148.51 12.6504 -2
6 14 26 1148.51 12.6504 1
3 9 29 877.529 21.1681 -2
6 14 26 877.529 21.1681 1
5 17 25 1302.34 18.1329 -2
6 14 26 1302.34 18.1329 1
6 14 26 869.42 15.18 1
6 18 24 231.91 6.00736 -2
8 14 26 231.91 6.00736 1
8 14 26 105.305 2.89737 1
5 7 29 476.244 24.4775 -2
8 14 26 476.244 24.4775 1
5 13 27 393.605 35.4886 -2
8 14 26 393.605 35.4886 1
6 6 30 292.137 8.00865 -2
10 14 26 292.137 8.00865 1
10 14 26 40.4874 3.22547 1
7 19 23 31.447 9.69568 -2
10 14 26 31.447 9.69568 1
5 11 29 61.6847 15.4048 -2
10 14 26 61.6847 15.4048 1
12 14 26 30.1581 6.36576 1
12 14 26 42.9284 4.65782 -2
12 14 26 42.9284 4.65782 1
4 10 30 29.9722 4.71491 -2
12 14 26 29.9722 4.71491 1
5 7 31 166.913 17.2552 -2
12 14 26 166.913 17.2552 1
9 21 23 158.16 11.9576 -2
12 14 26 158.16 11.9576 1
3 9 31 369.144 26.7954 -2
14 14 26 369.144 26.7954 1
14 14 26 250.358 6.78175 1
10 22 22 667.939 16.0427 -2
14 14 26 667.939 16.0427 1
7 19 23 35.9224 26.2253 -2
0 16 26 35.9224 26.2253 1
0 16 26 76.9543 4.84705 1
2 12 28 87.6684 4.59867 -2
0 16 26 87.6684 4.59867 1
2 16 26 636.483 8.3038 1
3 13 27 871.775 15.6092 -2
2 16 26 871.775 15.6092 1
6 18 24 738.744 9.91084 -2
2 16 26 738.744 9.91084 1
1 11 29 782.794 13.5835 -2
2 16 26 782.794 13.5835 1
7 21 21 660.258 40.7853 -2
2 16 26 660.258 40.7853 1
4 16 26 1895.31 15.2337 1
5 15 27 2537.62 28.4458 -2
4 16 26 2537.62 28.4458 1
8 20 22 1879.03 17.1203 -2
4 16 26 1879.03 17.1203 1
1 9 29 1962.54 32.2415 -2
4 16 26 1962.54 32.2415 1
5 17 25 2384.63 48.9508 -2
4 16 26 2384.63 48.9508 1
6 16 26 1411.06 10.7806 1
6 16 26 1901.42 16.2749 -2
6 16 26 1901.42 16.2749 1
2 8 30 1353.53 13.6056 -2
6 16 26 1353.53 13.6056 1
7 17 25 440.181 10.453 -2
8 16 26 440.181 10.453 1
8 16 26 288.486 6.2662 1
4 14 28 593.782 9.20328 -2
8 16 26 593.782 9.20328 1
3 7 31 329.332 18.1596 -2
8 16 26 329.332 18.1596 1
10 16 26 127.057 4.29616 1
10 16 26 169.299 5.75168 -2
10 16 26 169.299 5.75168 1
9 19 25 125.049 11.425 -2
10 16 26 125.049 11.425 1
5 5 31 282.48 23.4528 -2
10 16 26 282.48 23.4528 1
3 13 29 137.411 22.6894 -2
10 16 26 137.411 22.6894 1
12 16 26 351.722 7.07463 1
10 20 24 521.949 11.2001 -2
12 16 26 521.949 11.2001 1
4 6 32 350.307 9.1975 -2
12 16 26 350.307 9.1975 1
3 11 31 538.156 20.3202 -2
12 16 26 538.156 20.3202 1
3 7 33 513.403 17.5138 -2
14 16 26 513.403 17.5138 1
11 21 23 1004.67 17.6171 -2
14 16 26 1004.67 17.6171 1
2 10 32 847.874 12.8728 -2
14 16 26 847.874 12.8728 1
14 16 26 513.24 9.1042 1
11 13 29 542.048 30.1654 -2
14 16 26 542.048 30.1654 1
16 16 26 868.537 14.1574 1
12 12 30 997.757 17.0621 -2
16 16 26 997.757 17.0621 1
1 9 33 1140.54 30.5232 -2
16 16 26 1140.54 30.5232 1
3 11 29 25.3689 11.7323 -2
0 18 26 25.3689 11.7323 1
0 18 26 -5.0938 3.97344 1
2 10 30 486.217 8.81501 -2
2 18 26 486.217 8.81501 1
6 22 22 366.353 8.40204 -2
2 18 26 366.353 8.40204 1
2 18 26 366.062 7.85231 1
5 13 29 528.376 18.0577 -2
2 18 26 528.376 18.0577 1
4 18 26 1051.63 13.3676 -2
4 18 26 1051.63 13.3676 1
4 18 26 768.172 10.2224 1
1 9 31 1018.5 20.8615 -2
4 18 26 1018.5 20.8615 1
6 14 28 1079.56 13.5228 -2
4 18 26 1079.56 13.5228 1
7 21 23 773.966 43.9593 -2
4 18 26 773.966 43.9593 1
6 18 26 516.257 6.52957 1
7 15 27 814.383 17.7082 -2
6 18 26 814.383 17.7082 1
1 7 31 568.429 24.438 -2
6 18 26 568.429 24.438 1
3 17 27 846.339 45.0882 -2
6 18 26 846.339 45.0882 1
7 19 25 509.994 40.43 -2
6 18 26 509.994 40.43 1
9 17 27 73.2021 12.7176 -2
8 18 26 73.2021 12.7176 1
8 18 26 35.4844 5.35135 1
8 18 26 27.8602 5.24505 -2
8 18 26 27.8602 5.24505 1
2 6 32 54.6967 4.99432 -2
8 18 26 54.6967 4.99432 1
10 18 26 6.1745 4.41111 1
10 18 26 -2.086 5.13973 -2
10 18 26 -2.086 5.13973 1
2 14 30 47.1239 4.80797 -2
10 18 26 47.1239 4.80797 1
3 5 33 13.2989 17.2404 -2
10 18 26 13.2989 17.2404 1
11 19 25 99.8213 12.494 -2
12 18 26 99.8213 12.494 1
3 5 33 53.1988 18.1977 -2
12 18 26 53.1988 18.1977 1
9 15 29 53.239 22.31 -2
12 18 26 53.239 22.31 1
12 18 26 43.3793 3.98704 1
1 13 31 378.245 22.4293 -2
12 18 26 378.245 22.4293 1
14 18 26 333.221 7.98627 1
2 6 34 340.495 9.68894 -2
14 18 26 340.495 9.68894 1
10 14 30 370.165 9.84855 -2
14 18 26 370.165 9.84855 1
1 11 33 766.137 23.9218 -2
14 18 26 766.137 23.9218 1
4 22 24 74.4291 5.43018 -2
0 20 26 74.4291 5.43018 1
0 20 26 22.9137 14.4662 1
5 11 31 92.3675 15.4154 -2
0 20 26 92.3675 15.4154 1
6 12 30 22.0252 5.61215 -2
2 20 26 22.0252 5.61215 1
2 20 26 21.1262 3.73727 1
3 9 31 136.206 15.2261 -2
2 20 26 136.206 15.2261 1
3 21 25 60.8916 31.3759 -2
2 20 26 60.8916 31.3759 1
7 13 29 169.302 16.2606 -2
4 20 26 169.302 16.2606 1
2 8 32 292.873 9.37908 -2
4 20 26 292.873 9.37908 1
4 20 26 135.673 4.82189 1
3 19 27 270.284 39.2904 -2
4 20 26 270.284 39.2904 1
5 21 25 173.839 37.9527 -2
4 20 26 173.839 37.9527 1
6 20 26 166.722 6.57583 -2
6 20 26 166.722 6.57583 1
2 18 28 329.512 9.66696 -2
6 20 26 329.512 9.66696 1
6 20 26 116.615 10.0403 1
9 15 29 163.014 15.294 -2
6 20 26 163.014 15.294 1
1 7 33 277.548 27.2942 -2
6 20 26 277.548 27.2942 1
10 16 28 6.8871 5.45303 -2
8 20 26 6.8871 5.45303 1
8 20 26 3.12396 3.54565 1
1 5 33 52.8467 19.2802 -2
8 20 26 52.8467 19.2802 1
11 17 27 115.696 12.3253 -2
10 20 26 115.696 12.3253 1
10 20 26 17.759 5.0232 1
2 4 34 20.5283 5.58546 -2
10 20 26 20.5283 5.58546 1
1 15 31 94.8576 23.8891 -2
10 20 26 94.8576 23.8891 1
7 17 29 345.97 31.3554 -2
10 20 26 345.97 31.3554 1
6 10 32 391.504 10.3325 -2
0 22 26 391.504 10.3325 1
0 22 26 342.367 10.3325 1
3 23 25 314.355 38.7686 -2
0 22 26 314.355 38.7686 1
5 9 33 61.4305 14.2115 -2
2 22 26 61.4305 14.2115 1
2 22 26 70.7976 5.76415 -2
2 22 26 70.7976 5.76415 1
2 22 26 52.2203 6.32252 1
7 11 31 121.558 12.8224 -2
2 22 26 121.558 12.8224 1
3 23 25 83.0289 36.8331 -2
2 22 26 83.0289 36.8331 1
4 22 26 29.8552 6.21728 1
9 13 31 171.212 14.5094 -2
4 22 26 171.212 14.5094 1
4 22 26 35.3889 5.76735 -2
4 22 26 35.3889 5.76735 1
3 7 33 29.3026 15.4926 -2
4 22 26 29.3026 15.4926 1
6 22 26 63.8598 5.23157 1
1 19 29 137.984 29.9214 -2
6 22 26 137.984 29.9214 1
2 6 34 46.2826 6.01839 -2
6 22 26 46.2826 6.01839 1
10 14 30 102.284 6.93967 -2
6 22 26 102.284 6.93967 1
5 21 27 112.712 40.7645 -2
6 22 26 112.712 40.7645 1
1 1 27 160.961 6.29242 1
9 17 19 232.713 7.59015 -2
1 1 27 232.713 7.59015 1
1 3 27 108.768 2.87022 1
5 19 19 577.156 15.5641 -2
3 3 27 577.156 15.5641 1
9 15 21 567.802 9.25605 -2
3 3 27 567.802 9.25605 1
13 17 17 756.224 15.1077 -2
3 3 27 756.224 15.1077 1
5 17 21 533.395 9.80955 -2
1 5 27 533.395 9.80955 1
13 15 19 556.836 9.86364 -2
1 5 27 556.836 9.86364 1
1 5 27 506.179 7.06726 1
6 16 22 651.847 34.4413 -2
1 5 27 651.847 34.4413 1
3 5 27 1021.13 7.21868 1
4 18 20 1049.94 43.2555 -2
3 5 27 1049.94 43.2555 1
9 13 23 1864.32 19.7061 -2
5 5 27 1864.32 19.7061 1
5 5 27 1669.2 20.3014 1
13 13 21 512.985 9.11338 -2
1 7 27 512.985 9.11338 1
5 15 23 231.569 7.12449 -2
1 7 27 231.569 7.12449 1
1 7 27 76.2002 3.4968 1
4 16 22 52.4888 18.2125 -2
1 7 27 52.4888 18.2125 1
3 7 27 603.945 5.28762 1
2 18 22 661.361 20.5445 -2
3 7 27 661.361 20.5445 1
6 14 24 705.482 34.5699 -2
3 7 27 705.482 34.5699 1
1 19 21 1521.58 17.212 -2
5 7 27 1521.58 17.212 1
15 17 17 1751.41 17.1854 -2
5 7 27 1751.41 17.1854 1
5 7 27 1344.64 11.4817 1
9 11 25 928.287 12.6207 -2
7 7 27 928.287 12.6207 1
7 7 27 855.92 13.4259 1
0 20 20 1266.04 32.8701 -2
7 7 27 1266.04 32.8701 1
1 9 27 120.518 2.66397 1
4 14 24 225.029 13.6638 -2
1 9 27 225.029 13.6638 1
2 16 24 126.962 13.6146 -2
1 9 27 126.962 13.6146 1
5 13 25 150.986 5.80966 -2
3 9 27 150.986 5.80966 1
11 13 23 491.203 8.54782 -2
3 9 27 491.203 8.54782 1
1 17 23 79.3178 4.42126 -2
3 9 27 79.3178 4.42126 1
13 17 19 129.322 4.55458 -2
3 9 27 129.322 4.55458 1
5 9 27 272.301 3.99504 1
0 18 22 466.021 30.2632 -2
5 9 27 466.021 30.2632 1
6 12 26 282.081 28.8524 -2
5 9 27 282.081 28.8524 1
7 9 27 178.907 3.4382 1
2 20 22 491.003 19.0708 -2
7 9 27 491.003 19.0708 1
10 10 26 289.101 30.1822 -2
7 9 27 289.101 30.1822 1
3 21 21 549.284 11.5588 -2
9 9 27 549.284 11.5588 1
9 9 27 212.54 6.56731 -2
9 9 27 212.54 6.56731 1
15 15 21 172.89 10.6893 -2
9 9 27 172.89 10.6893 1
11 17 21 90.2878 4.34269 -2
1 11 27 90.2878 4.34269 1
2 14 26 168.803 12.7363 -2
1 11 27 168.803 12.7363 1
1 11 27 8.64529 3.01602 1
1 15 25 11.1205 3.73661 -2
1 11 27 11.1205 3.73661 1
3 11 27 172.836 3.08126 1
0 16 24 195.873 12.2138 -2
3 11 27 195.873 12.2138 1
4 12 26 299.932 22.088 -2
3 11 27 299.932 22.088 1
5 11 27 294.568 6.14478 1
2 18 24 274.34 13.7878 -2
5 11 27 274.34 13.7878 1
5 11 27 401.623 7.65768 -2
5 11 27 401.623 7.65768 1
9 13 25 299.518 7.19642 -2
5 11 27 299.518 7.19642 1
7 11 27 85.9189 3.78916 1
3 19 23 127.545 5.63738 -2
7 11 27 127.545 5.63738 1
13 17 21 95.708 4.37262 -2
7 11 27 95.708 4.37262 1
6 10 28 118.716 21.567 -2
7 11 27 118.716 21.567 1
9 11 27 27.5459 2.4443 1
4 20 22 185.162 21.7603 -2
9 11 27 185.162 21.7603 1
8 8 28 103.341 30.3062 -2
9 11 27 103.341 30.3062 1
8 10 28 86.3862 32.4793 -2
9 11 27 86.3862 32.4793 1
6 22 22 22.9019 17.7444 -2
11 11 27 22.9019 17.7444 1
11 11 27 -1.0655 5.96795 1
7 9 29 121.083 5.89338 -2
11 11 27 121.083 5.89338 1
9 17 23 41.3822 4.07093 -2
1 13 27 41.3822 4.07093 1
1 13 27 37.5474 4.28914 -2
1 13 27 37.5474 4.28914 1
1 13 27 29.3176 3.08454 1
0 14 26 19.3967 14.0921 -2
1 13 27 19.3967 14.0921 1
2 12 28 619.678 18.8121 -2
3 13 27 619.678 18.8121 1
3 13 27 598.827 5.39695 1
2 16 26 835.335 18.164 -2
3 13 27 835.335 18.164 1
3 17 25 1017.26 12.3792 -2
5 13 27 1017.26 12.3792 1
5 13 27 741.115 8.30005 1
11 19 21 1044.46 11.4104 -2
5 13 27 1044.46 11.4104 1
8 14 26 810.631 40.8955 -2
5 13 27 810.631 40.8955 1
4 10 28 818.627 41.9044 -2
5 13 27 818.627 41.9044 1
7 13 27 364.182 8.66709 -2
7 13 27 364.182 8.66709 1
7 13 27 267.526 6.28931 1
5 9 29 373.247 8.18993 -2
7 13 27 373.247 8.18993 1
4 18 24 365.41 11.9762 -2
7 13 27 365.41 11.9762 1
9 13 27 4.13556 2.64152 1
6 20 24 17.5519 11.1431 -2
9 13 27 17.5519 11.1431 1
6 8 30 193.02 18.7302 -2
9 13 27 193.02 18.7302 1
13 15 25 108.064 5.0048 -2
11 13 27 108.064 5.0048 1
6 8 30 243.997 23.6181 -2
11 13 27 243.997 23.6181 1
11 13 27 55.5146 4.49731 1
7 21 23 49.3864 4.48213 -2
11 13 27 49.3864 4.48213 1
6 10 30 5.07225 23.0944 -2
11 13 27 5.07225 23.0944 1
8 22 22 78.1205 18.096 -2
13 13 27 78.1205 18.096 1
5 9 31 26.4922 4.91515 -2
13 13 27 26.4922 4.91515 1
13 13 27 31.6109 6.29835 1
0 12 28 211.486 13.7261 -2
1 15 27 211.486 13.7261 1
1 15 27 217.849 3.90186 1
8 20 22 299.606 28.4266 -2
1 15 27 299.606 28.4266 1
2 14 28 288.749 12.278 -2
1 15 27 288.749 12.278 1
1 11 29 1132.89 12.8102 -2
3 15 27 1132.89 12.8102 1
9 21 21 1292.72 13.1984 -2
3 15 27 1292.72 13.1984 1
3 15 27 1431.5 15.5745 -2
3 15 27 1431.5 15.5745 1
7 17 25 1168.16 13.7951 -2
3 15 27 1168.16 13.7951 1
4 16 26 2290.08 26.3752 -2
5 15 27 2290.08 26.3752 1
5 15 27 1640.11 10.8929 1
6 16 26 2198.93 69.6101 -2
5 15 27 2198.93 69.6101 1
2 10 30 1772.74 26.8208 -2
5 15 27 1772.74 26.8208 1
7 15 27 766.014 7.04854 1
6 18 26 952.358 16.5732 -2
7 15 27 952.358 16.5732 1
10 18 24 737.736 35.33 -2
7 15 27 737.736 35.33 1
4 8 30 804.53 25.6035 -2
7 15 27 804.53 25.6035 1
6 14 28 1052.58 33.5704 -2
7 15 27 1052.58 33.5704 1
11 17 25 188.172 5.66175 -2
9 15 27 188.172 5.66175 1
5 13 29 284.754 8.86732 -2
9 15 27 284.754 8.86732 1
7 19 25 201.379 6.388 -2
9 15 27 201.379 6.388 1
5 7 31 294.152 8.27979 -2
9 15 27 294.152 8.27979 1
11 15 27 128.897 3.96463 1
8 20 24 134.558 12.5676 -2
11 15 27 134.558 12.5676 1
4 12 30 154.347 19.8474 -2
11 15 27 154.347 19.8474 1
6 6 32 192.613 25.619 -2
11 15 27 192.613 25.619 1
10 22 24 651.576 14.9745 -2
13 15 27 651.576 14.9745 1
13 15 27 392.177 6.60589 1
4 10 32 488.37 24.6225 -2
13 15 27 488.37 24.6225 1
4 8 32 411.311 29.6251 -2
13 15 27 411.311 29.6251 1
11 23 23 957.659 19.5844 -2
15 15 27 957.659 19.5844 1
3 9 33 631.271 12.2004 -2
15 15 27 631.271 12.2004 1
13 13 29 570.284 13.7225 -2
15 15 27 570.284 13.7225 1
7 21 23 273.059 7.78762 -2
1 17 27 273.059 7.78762 1
2 12 30 384.608 13.4933 -2
1 17 27 384.608 13.4933 1
3 13 29 291.263 6.99282 -2
1 17 27 291.263 6.99282 1
1 17 27 279.549 7.63809 1
0 10 30 1392.42 21.7321 -2
3 17 27 1392.42 21.7321 1
3 17 27 1130.29 9.33381 1
4 14 28 1453.74 22.6675 -2
3 17 27 1453.74 22.6675 1
6 18 26 1371.24 54.0082 -2
3 17 27 1371.24 54.0082 1
8 22 22 1167.38 33.3784 -2
3 17 27 1167.38 33.3784 1
5 17 27 2009.89 21.6351 -2
5 17 27 2009.89 21.6351 1
1 9 31 1692.1 16.0218 -2
5 17 27 1692.1 16.0218 1
6 16 28 1867.84 29.0261 -2
5 17 27 1867.84 29.0261 1
5 17 27 1467.32 16.578 1
9 19 25 606.015 10.8362 -2
7 17 27 606.015 10.8362 1
4 16 28 1079.8 33.0104 -2
7 17 27 1079.8 33.0104 1
7 17 27 874.219 13.4195 -2
7 17 27 874.219 13.4195 1
7 17 27 630.927 10.6459 1
2 8 32 840.331 23.4767 -2
7 17 27 840.331 23.4767 1
9 17 27 67.1326 3.99933 1
4 6 32 81.4072 20.8567 -2
9 17 27 81.4072 20.8567 1
8 18 26 63.0987 15.8716 -2
9 17 27 63.0987 15.8716 1
4 14 30 88.2079 25.5809 -2
9 17 27 88.2079 25.5809 1
10 16 28 158.096 27.4792 -2
11 17 27 158.096 27.4792 1
3 13 31 273.149 9.74704 -2
11 17 27 273.149 9.74704 1
11 17 27 160.934 7.12668 1
5 5 33 146.184 6.36001 -2
11 17 27 146.184 6.36001 1
10 20 26 168.329 14.3679 -2
11 17 27 168.329 14.3679 1
2 12 32 784.443 27.6062 -2
13 17 27 784.443 27.6062 1
11 15 29 344.213 9.09898 -2
13 17 27 344.213 9.09898 1
11 21 25 454.238 10.5662 -2
13 17 27 454.238 10.5662 1
4 6 34 370.728 20.17 -2
13 17 27 370.728 20.17 1
13 17 27 362.353 11.4824 1
5 21 25 63.1695 5.81268 -2
1 19 27 63.1695 5.81268 1
3 11 31 212.239 7.41661 -2
1 19 27 212.239 7.41661 1
1 19 27 66.8606 4.93885 1
4 12 30 84.695 16.9308 -2
1 19 27 84.695 16.9308 1
2 10 32 751.77 19.0583 -2
3 19 27 751.77 19.0583 1
3 19 27 408.461 7.54883 1
4 20 26 402.621 25.8715 -2
3 19 27 402.621 25.8715 1
6 14 30 467.77 17.2794 -2
3 19 27 467.77 17.2794 1
6 22 24 510.175 43.7148 -2
3 19 27 510.175 43.7148 1
7 15 29 608.121 11.9183 -2
5 19 27 608.121 11.9183 1
5 19 27 471.922 8.99532 1
7 21 25 488.803 10.2368 -2
5 19 27 488.803 10.2368 1
0 8 32 796.49 33.2841 -2
5 19 27 796.49 33.2841 1
1 7 33 297.314 9.09781 -2
7 19 27 297.314 9.09781 1
8 16 28 293.243 14.8701 -2
7 19 27 293.243 14.8701 1
7 19 27 159.944 7.18669 1
8 20 26 53.2972 39.0876 -2
7 19 27 53.2972 39.0876 1
3 17 29 377.349 10.188 -2
7 19 27 377.349 10.188 1
9 19 27 16.2027 4.36389 1
8 18 28 141.234 29.5155 -2
9 19 27 141.234 29.5155 1
2 6 34 38.3484 16.4928 -2
9 19 27 38.3484 16.4928 1
10 18 28 70.9692 15.6645 -2
9 19 27 70.9692 15.6645 1
2 16 30 50.8888 26.3144 -2
9 19 27 50.8888 26.3144 1
9 17 29 31.2145 5.61854 -2
11 19 27 31.2145 5.61854 1
11 19 27 -1.4877 5.41791 1
11 19 27 5.02335 5.84742 -2
11 19 27 5.02335 5.84742 1
4 4 34 25.4794 18.3852 -2
11 19 27 25.4794 18.3852 1
6 12 32 157.031 17.0579 -2
1 21 27 157.031 17.0579 1
1 21 27 42.301 4.31647 1
4 10 32 132.197 16.829 -2
1 21 27 132.197 16.829 1
4 24 24 90.76 35.9467 -2
1 21 27 90.76 35.9467 1
5 23 25 34.9363 5.67954 -2
3 21 27 34.9363 5.67954 1
3 9 33 108.525 7.0131 -2
3 21 27 108.525 7.0131 1
7 13 31 63.143 6.70479 -2
3 21 27 63.143 6.70479 1
3 21 27 7.51152 5.84642 -2
3 21 27 7.51152 5.84642 1
5 21 27 121.643 4.17396 1
8 14 30 154.987 15.2284 -2
5 21 27 154.987 15.2284 1
0 6 34 55.4319 25.7338 -2
7 21 27 55.4319 25.7338 1
7 21 27 16.5942 4.38327 1
0 0 28 464.246 12.3888 1
8 18 20 61.609 4.57252 -2
0 2 28 61.609 4.57252 1
0 2 28 54.6571 4.49386 1
2 2 28 32.2057 3.61693 1
12 18 18 46.1309 6.19635 -2
2 2 28 46.1309 6.19635 1
7 19 19 71.0419 28.3751 -2
2 2 28 71.0419 28.3751 1
0 4 28 175.223 6.51184 1
7 17 21 244.814 30.3004 -2
0 4 28 244.814 30.3004 1
12 16 20 155.984 5.98124 -2
0 4 28 155.984 5.98124 1
2 4 28 451.986 6.00497 1
5 19 21 486.711 19.2063 -2
2 4 28 486.711 19.2063 1
8 16 22 461.513 8.78948 -2
2 4 28 461.513 8.78948 1
4 20 20 1020.81 18.7113 -2
4 4 28 1020.81 18.7113 1
4 4 28 917.712 10.6246 1
0 6 28 131.174 4.6666 1
5 17 23 331.304 18.0195 -2
0 6 28 331.304 18.0195 1
13 15 21 178.69 28.9432 -2
0 6 28 178.69 28.9432 1
4 18 22 311.234 8.24694 -2
2 6 28 311.234 8.24694 1
12 14 22 710.955 10.9805 -2
2 6 28 710.955 10.9805 1
2 6 28 325.553 6.12463 1
8 14 24 1201.21 14.6434 -2
4 6 28 1201.21 14.6434 1
4 6 28 1201.16 13.154 1
16 16 18 1624.09 19.1802 -2
4 6 28 1624.09 19.1802 1
3 19 21 1308.06 34.6562 -2
4 6 28 1308.06 34.6562 1
6 6 28 1233.15 11.8252 1
1 21 21 1938.47 62.7791 -2
6 6 28 1938.47 62.7791 1
0 8 28 30.1198 4.5696 1
4 16 24 331.974 8.01911 -2
0 8 28 331.974 8.01911 1
2 8 28 28.6117 3.13698 1
14 16 20 131.725 5.59337 -2
2 8 28 131.725 5.59337 1
3 17 23 46.4187 19.9463 -2
2 8 28 46.4187 19.9463 1
5 15 25 577.968 20.6045 -2
2 8 28 577.968 20.6045 1
1 19 23 526.438 20.7166 -2
4 8 28 526.438 20.7166 1
4 8 28 411.89 5.94799 1
12 12 24 775.651 10.8639 -2
4 8 28 775.651 10.8639 1
7 13 25 398.118 23.3466 -2
4 8 28 398.118 23.3466 1
6 8 28 882.5 8.83507 1
0 20 22 1176.13 15.5762 -2
6 8 28 1176.13 15.5762 1
8 12 26 860.521 11.4598 -2
6 8 28 860.521 11.4598 1
8 8 28 195.821 6.12414 1
1 21 21 759.081 40.7976 -2
8 8 28 759.081 40.7976 1
16 16 20 458.146 11.4402 -2
8 8 28 458.146 11.4402 1
9 11 27 242.227 24.0448 -2
8 8 28 242.227 24.0448 1
12 16 22 247.873 7.41766 -2
0 10 28 247.873 7.41766 1
0 10 28 158.89 8.26326 1
3 15 25 388.948 15.8804 -2
0 10 28 388.948 15.8804 1
1 17 25 38.5307 17.6667 -2
2 10 28 38.5307 17.6667 1
2 10 28 19.5412 2.80083 1
4 14 26 418.026 9.05043 -2
2 10 28 418.026 9.05043 1
0 18 24 141.606 5.87261 -2
4 10 28 141.606 5.87261 1
4 10 28 114.753 3.31647 1
5 13 27 404.031 23.9224 -2
4 10 28 404.031 23.9224 1
11 13 25 134.339 31.2736 -2
4 10 28 134.339 31.2736 1
6 10 28 184.672 5.45864 1
10 12 26 188.288 6.14568 -2
6 10 28 188.288 6.14568 1
1 19 23 344.661 15.7016 -2
6 10 28 344.661 15.7016 1
14 18 20 226.281 6.83129 -2
6 10 28 226.281 6.83129 1
7 11 27 264.962 32.4098 -2
6 10 28 264.962 32.4098 1
8 10 28 7.88241 3.05551 1
8 10 28 -0.6371 4.19811 -2
8 10 28 -0.6371 4.19811 1
3 21 23 273.047 13.5388 -2
8 10 28 273.047 13.5388 1
9 9 29 206.758 17.7865 -2
10 10 28 206.758 17.7865 1
4 22 22 465.626 13.6774 -2
10 10 28 465.626 13.6774 1
10 10 28 193.869 6.07389 1
1 15 27 126.532 12.5946 -2
0 12 28 126.532 12.5946 1
0 12 28 38.1715 4.17913 1
2 12 28 35.1178 3.60825 1
10 16 24 54.8919 4.73835 -2
2 12 28 54.8919 4.73835 1
0 16 26 55.8834 4.91563 -2
2 12 28 55.8834 4.91563 1
3 13 27 261.425 16.4896 -2
2 12 28 261.425 16.4896 1
1 17 25 390.498 15.3246 -2
4 12 28 390.498 15.3246 1
4 12 28 563.56 10.4715 -2
4 12 28 563.56 10.4715 1
12 20 20 864.454 10.924 -2
4 12 28 864.454 10.924 1
4 12 28 412.897 8.08495 1
6 12 28 263.025 4.99841 1
5 11 29 282.219 14.9861 -2
6 12 28 282.219 14.9861 1
3 19 25 271.374 13.9053 -2
6 12 28 271.374 13.9053 1
13 19 21 442.327 38.5233 -2
6 12 28 442.327 38.5233 1
9 13 27 287.428 24.6612 -2
6 12 28 287.428 24.6612 1
8 12 28 0.81677 3.25973 1
8 12 28 12.5639 4.75513 -2
8 12 28 12.5639 4.75513 1
4 20 24 17.0217 4.7625 -2
8 12 28 17.0217 4.7625 1
7 9 29 150.932 33.2018 -2
8 12 28 150.932 33.2018 1
14 16 24 33.6278 4.3872 -2
10 12 28 33.6278 4.3872 1
10 12 28 11.1878 5.21746 1
8 8 30 49.4389 5.44844 -2
10 12 28 49.4389 5.44844 1
5 21 23 67.6678 13.2235 -2
10 12 28 67.6678 13.2235 1
7 23 23 4.41961 19.4759 -2
12 12 28 4.41961 19.4759 1
12 12 28 10.5767 4.60315 1
7 9 31 37.9344 25.2586 -2
12 12 28 37.9344 25.2586 1
0 14 28 18.73 4.27582 -2
0 14 28 18.73 4.27582 1
0 14 28 7.79926 4.16356 1
2 14 28 191.109 4.77572 1
1 13 29 236.082 13.5841 -2
2 14 28 236.082 13.5841 1
10 20 22 506.967 8.82891 -2
2 14 28 506.967 8.82891 1
1 15 27 239.24 18.8336 -2
2 14 28 239.24 18.8336 1
4 14 28 854.312 9.0226 1
3 17 27 1303.9 20.7955 -2
4 14 28 1303.9 20.7955 1
8 16 26 951.355 12.6265 -2
4 14 28 951.355 12.6265 1
3 11 29 872.429 25.4943 -2
4 14 28 872.429 25.4943 1
4 10 30 813.891 11.597 -2
6 14 28 813.891 11.597 1
6 14 28 821.77 8.4199 1
7 15 27 1104.7 49.7962 -2
6 14 28 1104.7 49.7962 1
4 18 26 1104.46 15.6202 -2
6 14 28 1104.46 15.6202 1
5 19 25 299.462 14.2314 -2
8 14 28 299.462 14.2314 1
8 14 28 190.054 5.76506 1
12 18 24 192.76 5.85828 -2
8 14 28 192.76 5.85828 1
5 9 31 164.684 21.8379 -2
8 14 28 164.684 21.8379 1
7 13 29 231.933 39.6348 -2
8 14 28 231.933 39.6348 1
10 14 28 17.5084 4.03263 1
6 12 30 20.1979 5.85206 -2
10 14 28 20.1979 5.85206 1
7 21 25 -4.4569 15.6351 -2
10 14 28 -4.4569 15.6351 1
7 7 31 70.9169 19.9302 -2
10 14 28 70.9169 19.9302 1
13 17 25 113.694 32.0777 -2
10 14 28 113.694 32.0777 1
8 22 24 51.1623 5.98488 -2
12 14 28 51.1623 5.98488 1
12 14 28 22.7915 4.03098 1
6 8 32 36.3588 5.81333 -2
12 14 28 36.3588 5.81333 1
5 11 31 60.4696 21.4915 -2
12 14 28 60.4696 21.4915 1
5 9 33 216.435 21.2289 -2
14 14 28 216.435 21.2289 1
9 23 23 333.095 23.3413 -2
14 14 28 333.095 23.3413 1
14 14 28 261.673 9.82941 -2
14 14 28 261.673 9.82941 1
14 14 28 221.687 13.6708 1
8 20 24 110.449 5.66185 -2
0 16 28 110.449 5.66185 1
1 13 29 117.082 13.6826 -2
0 16 28 117.082 13.6826 1
0 16 28 96.6643 7.37947 1
0 12 30 480.712 9.3002 -2
2 16 28 480.712 9.3002 1
2 16 28 193.545 4.30325 1
3 15 29 245.985 17.1196 -2
2 16 28 245.985 17.1196 1
4 16 28 1431.72 16.2758 -2
4 16 28 1431.72 16.2758 1
4 16 28 1077.01 8.83839 1
1 11 31 1446.9 28.8041 -2
4 16 28 1446.9 28.8041 1
10 20 24 1156.71 13.7777 -2
6 16 28 1156.71 13.7777 1
3 9 31 1101.93 50.9141 -2
6 16 28 1101.93 50.9141 1
6 16 28 991.538 15.485 1
6 16 28 1362.67 16.9445 -2
6 16 28 1362.67 16.9445 1
5 17 27 1531.71 23.3728 -2
6 16 28 1531.71 23.3728 1
7 19 27 392.849 18.1952 -2
8 16 28 392.849 18.1952 1
8 16 28 315.521 6.79085 1
4 8 32 300.287 9.65146 -2
8 16 28 300.287 9.65146 1
5 15 29 467.616 23.5782 -2
8 16 28 467.616 23.5782 1
10 16 28 22.2242 4.01939 1
11 17 27 17.0996 25.9859 -2
10 16 28 17.0996 25.9859 1
8 20 26 5.84117 5.57025 -2
10 16 28 5.84117 5.57025 1
5 13 31 33.4671 27.1792 -2
10 16 28 33.4671 27.1792 1
5 7 33 9.66752 21.7997 -2
10 16 28 9.66752 21.7997 1
12 16 28 217.25 6.53255 -2
12 16 28 217.25 6.53255 1
4 12 32 276.849 9.64452 -2
12 16 28 276.849 9.64452 1
12 16 28 151.792 9.67856 1
9 21 25 218.135 17.5279 -2
12 16 28 218.135 17.5279 1
5 7 33 159.647 37.0597 -2
12 16 28 159.647 37.0597 1
0 18 28 250.472 7.50168 1
3 13 31 348.678 19.4087 -2
0 18 28 348.678 19.4087 1
6 20 26 565.636 11.4317 -2
2 18 28 565.636 11.4317 1
1 11 31 910.126 22.3842 -2
2 18 28 910.126 22.3842 1
4 14 30 520.462 11.7606 -2
2 18 28 520.462 11.7606 1
2 18 28 536.991 12.313 1
7 23 23 569.113 43.055 -2
2 18 28 569.113 43.055 1
8 22 24 1183.94 15.9198 -2
4 18 28 1183.94 15.9198 1
0 10 32 1597.22 19.0828 -2
4 18 28 1597.22 19.0828 1
5 15 29 1428.11 26.0589 -2
4 18 28 1428.11 26.0589 1
4 18 28 1203.29 16.9634 1
5 19 27 1374.32 53.3672 -2
4 18 28 1374.32 53.3672 1
7 17 29 1257.49 22.6685 -2
6 18 28 1257.49 22.6685 1
6 18 28 983.029 10.4272 1
9 21 25 1068.96 53.4187 -2
6 18 28 1068.96 53.4187 1
5 17 29 1372.71 39.6659 -2
6 18 28 1372.71 39.6659 1
1 9 33 1214.47 32.8497 -2
6 18 28 1214.47 32.8497 1
4 16 30 509.099 12.6346 -2
8 18 28 509.099 12.6346 1
8 18 28 446.636 11.8898 -2
8 18 28 446.636 11.8898 1
8 18 28 314.685 8.51562 1
3 7 33 337.744 25.3651 -2
8 18 28 337.744 25.3651 1
9 19 27 394.42 29.5388 -2
8 18 28 394.42 29.5388 1
4 6 34 50.2332 6.72448 -2
10 18 28 50.2332 6.72448 1
9 19 27 47.8404 14.6941 -2
10 18 28 47.8404 14.6941 1
10 18 28 55.1385 5.89788 -2
10 18 28 55.1385 5.89788 1
3 15 31 10.9428 22.6062 -2
10 18 28 10.9428 22.6062 1
10 18 28 44.5142 9.75202 1
4 12 32 122.439 7.34723 -2
0 20 28 122.439 7.34723 1
5 23 25 21.7353 39.6337 -2
0 20 28 21.7353 39.6337 1
0 20 28 12.3818 6.48565 1
2 20 28 -5.5886 4.96117 1
3 11 33 174.449 25.5084 -2
2 20 28 174.449 25.5084 1
6 24 24 46.8774 6.28983 -2
2 20 28 46.8774 6.28983 1
5 13 31 36.9977 14.8572 -2
2 20 28 36.9977 14.8572 1
4 20 28 135.344 5.23306 1
1 9 33 466.887 18.862 -2
4 20 28 466.887 18.862 1
4 20 28 199.826 7.94992 -2
4 20 28 199.826 7.94992 1
7 23 25 203.355 41.5089 -2
4 20 28 203.355 41.5089 1
1 1 29 510.807 8.1992 1
11 19 19 727.859 15.7767 -2
1 1 29 727.859 15.7767 1
8 20 20 617.518 38.1507 -2
1 1 29 617.518 38.1507 1
11 17 21 71.8779 4.93241 -2
1 3 29 71.8779 4.93241 1
1 3 29 1.17474 3.13922 1
7 19 21 -0.0396 4.11023 -2
1 3 29 -0.0396 4.11023 1
8 18 22 -13.126 28.3437 -2
1 3 29 -13.126 28.3437 1
12 18 20 78.8404 31.9609 -2
1 3 29 78.8404 31.9609 1
3 3 29 267.432 6.28761 1
6 20 20 290.22 33.6747 -2
3 3 29 290.22 33.6747 1
10 16 22 358.286 23.1171 -2
3 3 29 358.286 23.1171 1
7 17 23 165.399 5.94374 -2
1 5 29 165.399 5.94374 1
1 5 29 65.275 3.10566 1
6 18 22 128.083 17.3725 -2
1 5 29 128.083 17.3725 1
4 20 22 598.744 18.5494 -2
3 5 29 598.744 18.5494 1
3 5 29 462.751 7.94415 1
11 15 23 671.832 10.8886 -2
3 5 29 671.832 10.8886 1
15 17 19 842.619 12.4407 -2
3 5 29 842.619 12.4407 1
8 16 24 482.818 35.7477 -2
3 5 29 482.818 35.7477 1
5 5 29 911.697 10.4971 1
3 21 21 1321.4 22.5508 -2
5 5 29 1321.4 22.5508 1
4 18 24 137.251 15.1284 -2
1 7 29 137.251 15.1284 1
6 16 24 237.255 15.2352 -2
1 7 29 237.255 15.2352 1
15 15 21 17.3074 4.41778 -2
1 7 29 17.3074 4.41778 1
1 7 29 6.16351 3.10698 1
3 19 23 284.929 8.25045 -2
3 7 29 284.929 8.25045 1
7 15 25 409.601 9.25351 -2
3 7 29 409.601 9.25351 1
3 7 29 262.089 5.92063 1
5 7 29 834.835 8.46939 1
2 20 22 1114.68 20.4329 -2
5 7 29 1114.68 20.4329 1
8 14 26 825.596 29.7515 -2
5 7 29 825.596 29.7515 1
11 13 25 861.754 12.4873 -2
5 7 29 861.754 12.4873 1
7 7 29 682.872 11.2108 1
10 12 26 705.486 29.5943 -2
7 7 29 705.486 29.5943 1
0 22 22 1317.88 29.3175 -2
7 7 29 1317.88 29.3175 1
17 17 19 962.489 19.0984 -2
7 7 29 962.489 19.0984 1
13 15 23 149.468 5.84896 -2
1 9 29 149.468 5.84896 1
4 16 26 880.533 19.04 -2
1 9 29 880.533 19.04 1
1 9 29 118.85 5.03509 1
3 17 25 396.819 8.98793 -2
1 9 29 396.819 8.98793 1
3 9 29 19.3925 2.58151 1
6 14 26 328.436 24.7416 -2
3 9 29 328.436 24.7416 1
2 18 24 -0.6912 17.6006 -2
3 9 29 -0.6912 17.6006 1
5 9 29 301.954 7.22597 1
7 13 27 397.481 9.37742 -2
5 9 29 397.481 9.37742 1
15 19 19 348.133 8.93672 -2
5 9 29 348.133 8.93672 1
0 20 24 420.137 15.5783 -2
5 9 29 420.137 15.5783 1
11 11 27 310.28 8.39574 -2
7 9 29 310.28 8.39574 1
7 9 29 326.998 6.72844 1
8 12 28 324.073 25.1504 -2
7 9 29 324.073 25.1504 1
1 21 23 690.013 11.3107 -2
7 9 29 690.013 11.3107 1
2 22 22 521.479 21.5086 -2
9 9 29 521.479 21.5086 1
10 10 28 56.1604 22.8341 -2
9 9 29 56.1604 22.8341 1
9 9 29 12.3987 4.17018 1
1 11 29 310.336 5.66797 1
3 15 27 713.486 11.3766 -2
1 11 29 713.486 11.3766 1
2 16 26 563.634 19.1464 -2
1 11 29 563.634 19.1464 1
11 15 25 -4.7768 4.67766 -2
3 11 29 -4.7768 4.67766 1
4 14 28 318.821 16.049 -2
3 11 29 318.821 16.049 1
0 18 26 -11.128 13.0247 -2
3 11 29 -11.128 13.0247 1
13 19 21 138.436 6.21716 -2
3 11 29 138.436 6.21716 1
3 11 29 -1.5756 6.55946 1
5 11 29 55.6818 3.07986 1
1 19 25 58.1067 5.46419 -2
5 11 29 58.1067 5.46419 1
6 12 28 159.903 32.6682 -2
5 11 29 159.903 32.6682 1
14 20 20 78.3123 32.4069 -2
5 11 29 78.3123 32.4069 1
2 20 24 122.776 14.628 -2
7 11 29 122.776 14.628 1
7 11 29 6.1087 4.62481 -2
7 11 29 6.1087 4.62481 1
7 11 29 -0.2883 3.44933 1
10 12 28 -17.031 19.0583 -2
7 11 29 -17.031 19.0583 1
15 17 23 134.168 6.31463 -2
9 11 29 134.168 6.31463 1
9 11 29 111.387 7.85237 1
9 11 29 168.921 6.33721 -2
9 11 29 168.921 6.33721 1
4 22 24 138.167 12.3613 -2
9 11 29 138.167 12.3613 1
8 10 30 136.142 18.1266 -2
9 11 29 136.142 18.1266 1
11 11 29 282.138 7.35841 1
5 23 23 279.59 13.0704 -2
11 11 29 279.59 13.0704 1
8 10 30 333.858 37.753 -2
11 11 29 333.858 37.753 1
2 14 28 172.838 20.6295 -2
1 13 29 172.838 20.6295 1
0 16 28 109.458 15.4515 -2
1 13 29 109.458 15.4515 1
1 13 29 77.0447 4.18767 1
11 19 23 346.811 8.82398 -2
1 13 29 346.811 8.82398 1
1 17 27 200.846 7.27783 -2
3 13 29 200.846 7.27783 1
3 13 29 93.6625 3.99893 1
3 13 29 127.397 5.70866 -2
3 13 29 127.397 5.70866 1
5 13 29 313.655 7.6172 1
9 15 27 393.17 10.0311 -2
5 13 29 393.17 10.0311 1
2 18 26 448.289 15.4596 -2
5 13 29 448.289 15.4596 1
4 12 30 333.497 17.6578 -2
5 13 29 333.497 17.6578 1
12 20 22 778.547 44.0196 -2
5 13 29 778.547 44.0196 1
7 13 29 101.829 4.92838 1
6 10 30 86.3708 17.8904 -2
7 13 29 86.3708 17.8904 1
13 19 23 148.873 6.79198 -2
7 13 29 148.873 6.79198 1
4 20 26 131.798 13.2619 -2
7 13 29 131.798 13.2619 1
5 21 25 14.392 5.4812 -2
9 13 29 14.392 5.4812 1
9 13 29 5.87615 4.10335 1
7 9 31 -2.4557 4.98593 -2
9 13 29 -2.4557 4.98593 1
8 12 30 79.3735 38.7753 -2
9 13 29 79.3735 38.7753 1
6 22 24 63.8132 12.6486 -2
11 13 29 63.8132 12.6486 1
11 13 29 43.9823 4.78917 1
8 8 32 71.7974 21.6322 -2
11 13 29 71.7974 21.6322 1
7 11 31 106.524 6.67872 -2
11 13 29 106.524 6.67872 1
13 13 29 47.5699 7.67427 1
15 15 27 276.788 10.3364 -2
13 13 29 276.788 10.3364 1
8 24 24 36.0919 18.9937 -2
13 13 29 36.0919 18.9937 1
6 10 32 142.676 27.4572 -2
13 13 29 142.676 27.4572 1
1 15 29 15.4541 5.24329 -2
1 15 29 15.4541 5.24329 1
1 15 29 13.0985 4.70685 1
9 19 25 27.491 5.30325 -2
1 15 29 27.491 5.30325 1
0 14 30 190.038 17.4919 -2
1 15 29 190.038 17.4919 1
2 16 28 198.368 13.4983 -2
3 15 29 198.368 13.4983 1
3 15 29 126.397 4.01705 1
2 12 30 272.17 17.6862 -2
3 15 29 272.17 17.6862 1
4 18 28 1041.13 25.0141 -2
5 15 29 1041.13 25.0141 1
3 11 31 752.97 11.7822 -2
5 15 29 752.97 11.7822 1
11 21 23 1089.07 14.2938 -2
5 15 29 1089.07 14.2938 1
5 15 29 612.193 11.72 1
8 16 28 736.855 46.2451 -2
5 15 29 736.855 46.2451 1
4 10 32 418.54 20.9784 -2
7 15 29 418.54 20.9784 1
7 15 29 475.414 12.1325 -2
7 15 29 475.414 12.1325 1
7 15 29 334.366 8.28212 1
5 19 27 511.35 11.0625 -2
7 15 29 511.35 11.0625 1
9 15 29 26.4749 3.814 1
6 20 26 65.8591 14.7455 -2
9 15 29 65.8591 14.7455 1
6 8 32 48.4142 18.6566 -2
9 15 29 48.4142 18.6566 1
6 14 30 69.7613 26.8336 -2
9 15 29 69.7613 26.8336 1
13 17 27 171.437 6.50098 -2
11 15 29 171.437 6.50098 1
7 7 33 26.6468 6.13904 -2
11 15 29 26.6468 6.13904 1
11 15 29 25.7935 5.11546 1
6 12 32 199.767 39.0373 -2
11 15 29 199.767 39.0373 1
1 13 31 503.579 11.3067 -2
1 17 29 503.579 11.3067 1
1 17 29 141.849 5.72558 1
8 22 24 125.438 39.5728 -2
1 17 29 125.438 39.5728 1
2 14 30 161.636 15.7593 -2
1 17 29 161.636 15.7593 1
8 20 26 0.21648 39.0403 -2
1 17 29 0.21648 39.0403 1
7 19 27 628.306 13.3836 -2
3 17 29 628.306 13.3836 1
0 12 32 1077.42 24.1943 -2
3 17 29 1077.42 24.1943 1
3 17 29 561.203 15.4963 1
9 23 23 673.088 13.5302 -2
3 17 29 673.088 13.5302 1
4 16 30 740.061 24.2735 -2
3 17 29 740.061 24.2735 1
2 10 32 1461.88 32.3353 -2
5 17 29 1461.88 32.3353 1
5 17 29 1552.55 20.281 -2
5 17 29 1552.55 20.281 1
5 17 29 1142.86 11.2186 1
10 22 24 1262.75 56.3665 -2
5 17 29 1262.75 56.3665 1
6 18 28 1398.42 54.4675 -2
5 17 29 1398.42 54.4675 1
3 9 33 786.073 13.3782 -2
7 17 29 786.073 13.3782 1
6 16 30 1076.57 26.9495 -2
7 17 29 1076.57 26.9495 1
7 17 29 736.49 11.6168 1
10 20 26 694.39 49.2483 -2
7 17 29 694.39 49.2483 1
6 18 28 1105.35 22.1114 -2
7 17 29 1105.35 22.1114 1
9 17 29 88.3519 5.2361 1
11 19 27 77.19 6.50036 -2
9 17 29 77.19 6.50036 1
5 15 31 182.118 8.36095 -2
9 17 29 182.118 8.36095 1
1 19 29 42.3081 5.24174 1
2 12 32 429.729 18.3416 -2
1 19 29 429.729 18.3416 1
7 23 25 45.9485 7.42007 -2
1 19 29 45.9485 7.42007 1
6 22 26 50.4391 41.4339 -2
1 19 29 50.4391 41.4339 1
1 11 33 659.078 12.9558 -2
3 19 29 659.078 12.9558 1
5 15 31 282.422 10.9007 -2
3 19 29 282.422 10.9007 1
3 19 29 175.148 6.59285 1
8 24 24 163.473 30.0894 -2
3 19 29 163.473 30.0894 1
10 20 20 1740.98 27.3908 -2
0 0 30 1740.98 27.3908 1
0 2 30 645.826 8.04781 1
9 19 21 855.074 44.0057 -2
0 2 30 855.074 44.0057 1
13 19 19 331.739 36.4167 -2
2 2 30 331.739 36.4167 1
10 18 22 387.157 8.99423 -2
2 2 30 387.157 8.99423 1
2 2 30 264.369 10.494 1
7 21 21 339.919 34.4393 -2
2 2 30 339.919 34.4393 1
0 4 30 -2.5591 3.45621 1
7 19 23 -44.388 21.8265 -2
0 4 30 -44.388 21.8265 1
6 20 22 22.3922 4.74842 -2
2 4 30 22.3922 4.74842 1
14 18 20 37.824 4.85932 -2
2 4 30 37.824 4.85932 1
2 4 30 6.44689 3.40055 1
9 17 23 13.6697 28.3052 -2
2 4 30 13.6697 28.3052 1
5 21 21 367.192 23.9977 -2
4 4 30 367.192 23.9977 1
10 16 24 226.361 7.40589 -2
4 4 30 226.361 7.40589 1
4 4 30 223.464 8.66579 1
14 16 22 3.56303 4.56687 -2
0 6 30 3.56303 4.56687 1
6 18 24 124.124 5.76179 -2
0 6 30 124.124 5.76179 1
2 6 30 13.1834 2.77404 1
7 17 25 164.142 16.5946 -2
2 6 30 164.142 16.5946 1
5 19 23 -1.0321 16.8063 -2
2 6 30 -1.0321 16.8063 1
11 15 25 469.756 27.0007 -2
4 6 30 469.756 27.0007 1
4 6 30 489.61 5.66515 1
3 21 23 815.147 20.6468 -2
4 6 30 815.147 20.6468 1
10 14 26 675.354 11.4859 -2
6 6 30 675.354 11.4859 1
2 22 22 1167.92 21.401 -2
6 6 30 1167.92 21.401 1
18 18 18 693.816 16.2988 -2
6 6 30 693.816 16.2988 1
0 8 30 251.893 6.57447 1
5 17 25 668.592 22.4143 -2
0 8 30 668.592 22.4143 1
14 14 24 50.1103 5.30241 -2
2 8 30 50.1103 5.30241 1
6 16 26 570.211 10.6988 -2
2 8 30 570.211 10.6988 1
2 8 30 48.0861 4.54798 1
3 19 25 85.5911 16.7556 -2
2 8 30 85.5911 16.7556 1
4 8 30 110.058 4.53043 1
2 20 24 210.356 7.23709 -2
4 8 30 210.356 7.23709 1
16 18 20 234.631 7.8714 -2
4 8 30 234.631 7.8714 1
7 15 27 410.918 21.5193 -2
4 8 30 410.918 21.5193 1
6 8 30 487.125 6.10045 1
1 21 23 832.266 21.7899 -2
6 8 30 832.266 21.7899 1
17 19 19 477.943 39.0459 -2
6 8 30 477.943 39.0459 1
9 13 27 518.034 23.3539 -2
6 8 30 518.034 23.3539 1
11 13 27 505.982 30.2201 -2
6 8 30 505.982 30.2201 1
10 12 28 74.257 5.46588 -2
8 8 30 74.257 5.46588 1
1 23 23 425.242 21.9972 -2
8 8 30 425.242 21.9972 1
8 8 30 101.907 7.91979 1
3 17 27 1068.6 19.6228 -2
0 10 30 1068.6 19.6228 1
0 10 30 631.974 9.7208 1
2 10 30 316.326 7.95472 1
2 18 26 458.232 10.0556 -2
2 10 30 458.232 10.0556 1
5 15 27 929.705 20.1878 -2
2 10 30 929.705 20.1878 1
14 18 22 327.222 8.87623 -2
2 10 30 327.222 8.87623 1
13 15 25 351.701 37.2028 -2
2 10 30 351.701 37.2028 1
1 19 25 13.6334 14.1971 -2
4 10 30 13.6334 14.1971 1
6 14 28 313.266 9.4303 -2
4 10 30 313.266 9.4303 1
4 10 30 8.63414 4.39778 1
12 14 26 18.3784 4.86307 -2
4 10 30 18.3784 4.86307 1
15 19 21 6.52116 31.8111 -2
4 10 30 6.52116 31.8111 1
6 10 30 24.0771 3.08876 1
1 21 25 115.47 12.9815 -2
6 10 30 115.47 12.9815 1
7 13 29 57.1652 23.6547 -2
6 10 30 57.1652 23.6547 1
8 10 30 26.4351 4.54008 1
2 22 24 268.313 8.65093 -2
8 10 30 268.313 8.65093 1
16 18 22 41.411 5.86906 -2
8 10 30 41.411 5.86906 1
11 11 29 146.539 18.2251 -2
8 10 30 146.539 18.2251 1
9 11 29 63.7903 24.6219 -2
8 10 30 63.7903 24.6219 1
3 23 23 553.866 20.6315 -2
10 10 30 553.866 20.6315 1
10 10 30 510.674 10.4856 -2
10 10 30 510.674 10.4856 1
10 10 30 384.771 15.7939 1
12 18 24 744.057 11.8242 -2
0 12 30 744.057 11.8242 1
2 16 28 813.253 12.7916 -2
0 12 30 813.253 12.7916 1
2 12 30 310.034 5.55836 1
3 15 29 347.444 19.7631 -2
2 12 30 347.444 19.7631 1
1 17 27 422.626 15.338 -2
2 12 30 422.626 15.338 1
5 13 29 124.966 19.6812 -2
4 12 30 124.966 19.6812 1
4 12 30 5.44819 3.17055 1
1 19 27 19.7224 15.4192 -2
4 12 30 19.7224 15.4192 1
11 15 27 -49.653 35.5414 -2
4 12 30 -49.653 35.5414 1
13 21 21 463.272 38.2097 -2
4 12 30 463.272 38.2097 1
6 12 30 -8.841 5.21171 -2
6 12 30 -8.841 5.21171 1
14 20 22 90.7948 5.9829 -2
6 12 30 90.7948 5.9829 1
2 20 26 10.501 5.61536 -2
6 12 30 10.501 5.61536 1
10 14 28 9.57715 5.28421 -2
6 12 30 9.57715 5.28421 1
8 12 30 134.096 4.60132 1
9 13 29 85.5989 27.659 -2
8 12 30 85.5989 27.659 1
3 21 25 156.809 16.1092 -2
8 12 30 156.809 16.1092 1
7 11 31 197.115 22.621 -2
8 12 30 197.115 22.621 1
9 9 31 349.766 28.6416 -2
10 12 30 349.766 28.6416 1
10 12 30 329.177 6.74988 1
5 23 25 342.04 14.4567 -2
10 12 30 342.04 14.4567 1
9 11 31 506.903 32.2318 -2
10 12 30 506.903 32.2318 1
8 10 32 568.279 12.1622 -2
12 12 30 568.279 12.1622 1
16 16 26 784.051 17.6052 -2
12 12 30 784.051 17.6052 1
6 24 24 438.569 15.5228 -2
12 12 30 438.569 15.5228 1
0 14 30 455.651 9.34825 1
1 15 29 446.676 21.1068 -2
0 14 30 446.676 21.1068 1
1 17 29 159.185 14.0198 -2
2 14 30 159.185 14.0198 1
2 14 30 152.08 6.29424 -2
2 14 30 152.08 6.29424 1
10 18 26 110.632 6.22823 -2
2 14 30 110.632 6.22823 1
2 14 30 113.515 5.91752 1
4 14 30 19.726 4.68361 1
9 17 27 59.312 37.0691 -2
4 14 30 59.312 37.0691 1
2 18 28 225.205 8.06895 -2
4 14 30 225.205 8.06895 1
12 22 22 584.282 11.1031 -2
4 14 30 584.282 11.1031 1
3 13 31 143.098 18.4267 -2
4 14 30 143.098 18.4267 1
6 14 30 98.4406 4.20156 1
5 11 31 151.266 21.5609 -2
6 14 30 151.266 21.5609 1
3 19 27 299.442 14.4804 -2
6 14 30 299.442 14.4804 1
9 15 29 121.022 28.8114 -2
6 14 30 121.022 28.8114 1
8 14 30 20.2235 6.06336 -2
8 14 30 20.2235 6.06336 1
6 10 32 49.113 5.84742 -2
8 14 30 49.113 5.84742 1
5 21 27 54.1815 14.4102 -2
8 14 30 54.1815 14.4102 1
8 14 30 3.33254 5.78301 1
14 18 26 240.507 7.68055 -2
10 14 30 240.507 7.68055 1
7 9 33 128.633 32.9721 -2
10 14 30 128.633 32.9721 1
6 22 26 129.134 7.22318 -2
10 14 30 129.134 7.22318 1
10 14 30 118.794 5.88378 1
7 13 31 172.534 28.2293 -2
10 14 30 172.534 28.2293 1
0 16 30 -1.5397 5.64422 1
1 15 31 22.3175 18.5239 -2
0 16 30 22.3175 18.5239 1
9 21 25 110.39 27.9688 -2
0 16 30 110.39 27.9688 1
1 13 31 399.318 17.1585 -2
2 16 30 399.318 17.1585 1
10 22 24 330.753 10.7919 -2
2 16 30 330.753 10.7919 1
2 16 30 66.1313 6.11467 1
2 16 30 85.2332 7.0491 -2
2 16 30 85.2332 7.0491 1
2 12 32 914.943 13.3569 -2
4 16 30 914.943 13.3569 1
3 17 29 725.782 21.5856 -2
4 16 30 725.782 21.5856 1
8 18 28 615.857 13.792 -2
4 16 30 615.857 13.792 1
4 16 30 503.784 10.5822 1
6 16 30 720.655 7.52248 1
3 11 33 929.653 38.3104 -2
6 16 30 929.653 38.3104 1
7 17 29 959.877 36.1899 -2
6 16 30 959.877 36.1899 1
1 1 31 1281.04 14.4109 1
9 21 21 1536.81 25.548 -2
1 1 31 1536.81 25.548 1
10 20 22 1673.73 43.0358 -2
1 1 31 1673.73 43.0358 1
1 3 31 417.897 7.70999 1
9 19 23 440.482 9.76777 -2
1 3 31 440.482 9.76777 1
13 19 21 526.514 10.4967 -2
1 3 31 526.514 10.4967 1
12 18 22 571.308 37.8282 -2
1 3 31 571.308 37.8282 1
8 20 22 463.665 26.9163 -2
1 3 31 463.665 26.9163 1
3 3 31 164.453 5.70028 1
6 22 22 196.065 24.6527 -2
3 3 31 196.065 24.6527 1
10 18 24 172.168 24.3245 -2
3 3 31 172.168 24.3245 1
14 20 20 170.341 31.3828 -2
3 3 31 170.341 31.3828 1
1 5 31 -1.4495 3.911 1
6 20 24 -13.897 17.4099 -2
1 5 31 -13.897 17.4099 1
13 17 23 4.0821 4.88979 -2
1 5 31 4.0821 4.88979 1
14 18 22 1.54476 24.1771 -2
1 5 31 1.54476 24.1771 1
8 18 24 23.8698 16.3064 -2
1 5 31 23.8698 16.3064 1
9 17 25 11.9787 5.0374 -2
3 5 31 11.9787 5.0374 1
3 5 31 7.37682 3.61392 1
5 21 23 49.427 5.49767 -2
3 5 31 49.427 5.49767 1
4 22 22 689.675 24.308 -2
5 5 31 689.675 24.308 1
5 5 31 374.112 10.6803 1
17 19 19 392.064 14.1544 -2
5 5 31 392.064 14.1544 1
10 16 26 404.426 28.4645 -2
5 5 31 404.426 28.4645 1
1 7 31 148.978 4.18322 1
5 19 25 232.64 8.14912 -2
1 7 31 232.64 8.14912 1
6 18 26 365.918 19.8591 -2
1 7 31 365.918 19.8591 1
3 7 31 0.25188 5.13732 1
8 16 26 103.897 16.9656 -2
3 7 31 103.897 16.9656 1
17 17 21 62.6598 5.64281 -2
3 7 31 62.6598 5.64281 1
4 20 24 12.4664 15.8768 -2
3 7 31 12.4664 15.8768 1
13 15 25 46.663 5.6117 -2
3 7 31 46.663 5.6117 1
2 22 24 574.22 17.1601 -2
5 7 31 574.22 17.1601 1
5 7 31 335.303 6.68423 1
9 15 27 384.398 9.97623 -2
5 7 31 384.398 9.97623 1
12 14 26 275.577 42.9363 -2
5 7 31 275.577 42.9363 1
10 14 28 165.66 26.974 -2
7 7 31 165.66 26.974 1
7 7 31 157.019 6.01712 1
1 23 23 546.371 15.6204 -2
7 7 31 546.371 15.6204 1
15 17 23 697.93 11.4552 -2
1 9 31 697.93 11.4552 1
5 17 27 1243.17 16.1617 -2
1 9 31 1243.17 16.1617 1
1 9 31 713.568 11.0905 1
14 16 24 686.316 43.6307 -2
1 9 31 686.316 43.6307 1
4 18 26 978.71 19.3647 -2
1 9 31 978.71 19.3647 1
3 9 31 249.355 4.78486 1
6 16 28 618.75 21.8357 -2
3 9 31 618.75 21.8357 1
2 20 26 255.561 18.6819 -2
3 9 31 255.561 18.6819 1
5 9 31 9.9391 3.85978 1
1 21 25 114.13 6.45955 -2
5 9 31 114.13 6.45955 1
13 13 27 22.2424 5.22418 -2
5 9 31 22.2424 5.22418 1
8 14 28 125.566 36.2609 -2
5 9 31 125.566 36.2609 1
7 9 31 -1.8268 4.64883 1
9 13 29 -1.2558 5.08746 -2
7 9 31 -1.2558 5.08746 1
17 19 21 2.10689 5.6205 -2
7 9 31 2.10689 5.6205 1
0 22 24 327.055 18.9714 -2
7 9 31 327.055 18.9714 1
12 12 28 30.5542 28.2179 -2
7 9 31 30.5542 28.2179 1
2 24 24 281.954 22.9411 -2
9 9 31 281.954 22.9411 1
10 12 30 311.16 24.4426 -2
9 9 31 311.16 24.4426 1
9 9 31 219.403 6.82278 1
1 11 31 949.864 10.8273 1
2 18 28 1163.61 21.4266 -2
1 11 31 1163.61 21.4266 1
13 17 25 999.715 13.7233 -2
1 11 31 999.715 13.7233 1
4 16 28 1358.82 24.6843 -2
1 11 31 1358.82 24.6843 1
3 11 31 415.805 7.52622 1
1 19 27 458.259 10.6866 -2
3 11 31 458.259 10.6866 1
5 15 29 644.526 12.0746 -2
3 11 31 644.526 12.0746 1
14 20 22 475.057 44.48 -2
3 11 31 475.057 44.48 1
0 20 26 108.843 14.6792 -2
5 11 31 108.843 14.6792 1
15 21 21 112.464 6.87149 -2
5 11 31 112.464 6.87149 1
5 11 31 63.5966 4.70409 1
6 14 30 79.1597 21.8695 -2
5 11 31 79.1597 21.8695 1
12 14 28 120.551 39.3871 -2
5 11 31 120.551 39.3871 1
2 22 26 198.347 15.7593 -2
7 11 31 198.347 15.7593 1
11 13 29 171.398 6.95307 -2
7 11 31 171.398 6.95307 1
7 11 31 154.919 5.25412 1
8 12 30 245.394 23.1869 -2
7 11 31 245.394 23.1869 1
9 11 31 453.959 8.22744 1
9 11 31 620.059 11.6985 -2
9 11 31 620.059 11.6985 1
3 23 25 466.834 11.1655 -2
9 11 31 466.834 11.1655 1
10 12 30 621.788 47.3093 -2
9 11 31 621.788 47.3093 1
11 11 31 840.755 14.3641 1
17 17 25 1011.91 19.8363 -2
11 11 31 1011.91 19.8363 1
4 24 24 868.933 24.8627 -2
11 11 31 868.933 24.8627 1
1 13 31 971.072 9.63947 1
1 17 29 1016.9 14.7898 -2
1 13 31 1016.9 14.7898 1
2 16 30 979.659 20.7101 -2
1 13 31 979.659 20.7101 1
12 20 24 1093.44 56.054 -2
1 13 31 1093.44 56.054 1
4 14 30 334.686 16.8197 -2
3 13 31 334.686 16.8197 1
11 17 27 374.188 10.2621 -2
3 13 31 374.188 10.2621 1
3 13 31 342.415 12.8284 1
0 18 28 416.804 18.217 -2
3 13 31 416.804 18.217 1
13 21 23 577.071 11.2086 -2
3 13 31 577.071 11.2086 1
5 13 31 72.0924 6.21583 -2
5 13 31 72.0924 6.21583 1
5 13 31 55.7796 4.66186 1
2 20 28 38.0684 13.3585 -2
5 13 31 38.0684 13.3585 1
10 16 28 1.93915 39.7706 -2
5 13 31 1.93915 39.7706 1
14 22 22 212.691 43.9319 -2
5 13 31 212.691 43.9319 1
7 13 31 142.114 4.87241 1
6 12 32 248.993 19.8624 -2
7 13 31 248.993 19.8624 1
3 21 27 140.635 7.37404 -2
7 13 31 140.635 7.37404 1
10 14 30 196.196 24.127 -2
7 13 31 196.196 24.127 1
4 22 26 364.695 15.9572 -2
9 13 31 364.695 15.9572 1
9 13 31 495.892 12.1728 -2
9 13 31 495.892 12.1728 1
15 19 25 459.821 11.257 -2
9 13 31 459.821 11.257 1
8 10 32 419.016 22.8359 -2
9 13 31 419.016 22.8359 1
9 13 31 384.335 14.4082 1
11 21 25 190.364 7.528 -2
1 15 31 190.364 7.528 1
1 15 31 81.8278 5.6836 1
0 16 30 119.621 20.4374 -2
1 15 31 119.621 20.4374 1
1 15 31 103.391 6.37633 -2
1 15 31 103.391 6.37633 1
10 20 26 48.5664 39.1357 -2
1 15 31 48.5664 39.1357 1
3 15 31 26.358 3.29526 1
10 18 28 110.202 39.284 -2
3 15 31 110.202 39.284 1
12 22 24 301.63 42.9906 -2
3 15 31 301.63 42.9906 1
9 17 29 320.156 11.3042 -2
5 15 31 320.156 11.3042 1
3 19 29 356.985 11.7901 -2
5 15 31 356.985 11.7901 1
5 15 31 290.678 7.582 1
4 12 32 465.856 22.4293 -2
5 15 31 465.856 22.4293 1
0 0 32 1823.07 34.002 1
11 21 21 2467.06 76.9211 -2
0 0 32 2467.06 76.9211 1
12 20 22 1421.74 17.6007 -2
0 2 32 1421.74 17.6007 1
0 2 32 1037.82 16.9035 1
9 21 23 1195.16 37.6844 -2
0 2 32 1195.16 37.6844 1
8 22 22 684.664 16.9116 -2
2 2 32 684.664 16.9116 1
2 2 32 668.814 11.4282 1
11 19 23 883.602 27.3845 -2
2 2 32 883.602 27.3845 1
8 20 24 109.505 6.27373 -2
0 4 32 109.505 6.27373 1
0 4 32 112.494 6.54867 1
2 4 32 84.7212 4.51616 1
7 21 23 89.9382 18.1328 -2
2 4 32 89.9382 18.1328 1
12 18 24 106.512 6.2637 -2
2 4 32 106.512 6.2637 1
9 19 25 112.077 16.7073 -2
2 4 32 112.077 16.7073 1
4 4 32 2.34587 5.09952 1
5 23 23 38.8003 25.0883 -2
4 4 32 38.8003 25.0883 1
16 20 20 3.80972 7.23334 -2
4 4 32 3.80972 7.23334 1
11 17 25 -44.898 36.8216 -2
4 4 32 -44.898 36.8216 1
0 6 32 106.045 5.81959 1
7 19 25 112.59 18.0727 -2
0 6 32 112.59 18.0727 1
15 17 23 174.128 36.48 -2
0 6 32 174.128 36.48 1
16 18 22 101.264 6.42091 -2
2 6 32 101.264 6.42091 1
8 18 26 96.9775 6.35036 -2
2 6 32 96.9775 6.35036 1
2 6 32 84.2179 5.19024 1
5 21 25 66.8722 18.8896 -2
2 6 32 66.8722 18.8896 1
4 22 24 96.3635 6.36805 -2
4 6 32 96.3635 6.36805 1
12 16 26 186.462 7.38271 -2
4 6 32 186.462 7.38271 1
4 6 32 53.3242 5.05321 1
9 17 27 89.1632 20.524 -2
4 6 32 89.1632 20.524 1
6 6 32 81.4544 5.2701 1
3 23 23 274.895 28.1705 -2
6 6 32 274.895 28.1705 1
11 15 27 147.809 36.5084 -2
6 6 32 147.809 36.5084 1
16 16 24 751.542 13.0888 -2
0 8 32 751.542 13.0888 1
0 8 32 698.247 24.9821 1
5 19 27 845.364 19.5372 -2
0 8 32 845.364 19.5372 1
2 8 32 409.371 7.24966 1
15 15 25 532.065 32.1676 -2
2 8 32 532.065 32.1676 1
4 20 26 433.612 10.7715 -2
2 8 32 433.612 10.7715 1
7 17 27 645.726 20.1159 -2
2 8 32 645.726 20.1159 1
3 21 25 16.7423 18.3321 -2
4 8 32 16.7423 18.3321 1
4 8 32 4.71294 3.72104 1
8 16 28 133.499 6.97616 -2
4 8 32 133.499 6.97616 1
13 15 27 202.596 30.1884 -2
4 8 32 202.596 30.1884 1
12 14 28 31.5642 5.63829 -2
6 8 32 31.5642 5.63829 1
1 23 25 152.602 16.5578 -2
6 8 32 152.602 16.5578 1
9 15 29 44.5932 22.5671 -2
6 8 32 44.5932 22.5671 1
6 8 32 39.6963 6.11351 1
18 20 20 149.461 7.2349 -2
6 8 32 149.461 7.2349 1
8 8 32 51.4136 5.48761 1
0 24 24 219.809 11.2837 -2
8 8 32 219.809 11.2837 1
11 13 29 91.0989 28.8075 -2
8 8 32 91.0989 28.8075 1
0 10 32 1064.5 15.4908 1
4 18 28 1514.94 18.6678 -2
0 10 32 1514.94 18.6678 1
15 17 25 1227.82 55.9382 -2
0 10 32 1227.82 55.9382 1
14 16 26 1086.34 14.7614 -2
2 10 32 1086.34 14.7614 1
2 10 32 893.714 10.1554 1
3 19 27 1049.56 23.1484 -2
2 10 32 1049.56 23.1484 1
5 17 29 1385.77 30.0571 -2
2 10 32 1385.77 30.0571 1
4 10 32 188.734 5.61288 1
1 21 27 205.592 14.3397 -2
4 10 32 205.592 14.3397 1
16 20 22 199.344 7.43737 -2
4 10 32 199.344 7.43737 1
13 15 27 341.22 46.5896 -2
4 10 32 341.22 46.5896 1
7 15 29 361.007 42.6181 -2
4 10 32 361.007 42.6181 1
6 10 32 120.378 5.69473 1
13 13 29 100.449 20.436 -2
6 10 32 100.449 20.436 1
0 22 26 253.888 9.06287 -2
6 10 32 253.888 9.06287 1
8 14 30 117.398 6.77073 -2
6 10 32 117.398 6.77073 1
17 21 21 178.26 44.2597 -2
6 10 32 178.26 44.2597 1
9 13 31 495.868 24.2108 -2
8 10 32 495.868 24.2108 1
8 10 32 323.102 7.35182 1
12 12 30 509.044 11.3459 -2
8 10 32 509.044 11.3459 1
1 23 25 459.946 18.0237 -2
8 10 32 459.946 18.0237 1
0 12 32 1316.06 15.0544 1
3 17 29 1570.84 25.4918 -2
0 12 32 1570.84 25.4918 1
13 17 27 1215.61 39.7405 -2
2 12 32 1215.61 39.7405 1
1 19 29 1095 22.1965 -2
2 12 32 1095 22.1965 1
2 12 32 1076.24 15.1034 1
14 20 24 1041.04 14.5482 -2
2 12 32 1041.04 14.5482 1
4 16 30 1235.08 16.8037 -2
2 12 32 1235.08 16.8037 1
12 16 28 359.232 10.5546 -2
4 12 32 359.232 10.5546 1
0 20 28 294.824 9.69203 -2
4 12 32 294.824 9.69203 1
4 12 32 319.538 8.41837 1
5 15 31 437.079 20.7973 -2
4 12 32 437.079 20.7973 1
15 21 23 269.368 43.1462 -2
4 12 32 269.368 43.1462 1
6 12 32 346.667 6.35705 1
1 21 27 354.743 16.1008 -2
6 12 32 354.743 16.1008 1
7 13 31 362.115 31.4445 -2
6 12 32 362.115 31.4445 1
11 15 29 285.589 51.7466 -2
6 12 32 285.589 51.7466 1
11 21 23 1720.22 20.1717 -2
1 1 33 1720.22 20.1717 1
1 1 33 1298.85 21.8057 1
10 22 22 1749.85 63.9365 -2
1 1 33 1749.85 63.9365 1
12 22 22 1801.49 68.5407 -2
1 1 33 1801.49 68.5407 1
1 3 33 223.399 4.71999 1
12 20 24 541.214 46.2891 -2
1 3 33 541.214 46.2891 1
14 20 22 338.235 29.3314 -2
1 3 33 338.235 29.3314 1
10 20 24 378.611 29.3266 -2
1 3 33 378.611 29.3266 1
8 22 24 263.354 20.5085 -2
1 3 33 263.354 20.5085 1
11 19 25 61.1288 6.34183 -2
3 3 33 61.1288 6.34183 1
7 23 23 26.6815 8.08712 -2
3 3 33 26.6815 8.08712 1
15 21 21 66.4604 8.68331 -2
3 3 33 66.4604 8.68331 1
1 5 33 135.409 5.85693 1
15 19 23 139.692 7.08407 -2
1 5 33 139.692 7.08407 1
7 21 25 137.329 7.09082 -2
1 5 33 137.329 7.09082 1
8 20 26 122.94 20.1899 -2
1 5 33 122.94 20.1899 1
3 5 33 8.82124 3.97348 1
12 18 26 17.3931 28.3489 -2
3 5 33 17.3931 28.3489 1
10 18 26 15.7605 16.6696 -2
3 5 33 15.7605 16.6696 1
16 20 22 -29.786 26.0812 -2
3 5 33 -29.786 26.0812 1
6 22 24 8.82602 19.6465 -2
3 5 33 8.82602 19.6465 1
5 5 33 12.3018 7.16095 1
11 17 27 59.0128 6.54148 -2
5 5 33 59.0128 6.54148 1
4 24 24 55.3822 39.1091 -2
5 5 33 55.3822 39.1091 1
7 19 27 405.953 11.0282 -2
1 7 33 405.953 11.0282 1
6 20 26 436.363 17.8745 -2
1 7 33 436.363 17.8745 1
15 17 25 538.006 12.0244 -2
1 7 33 538.006 12.0244 1
1 7 33 365.324 10.1165 1
16 18 24 460.346 47.2264 -2
1 7 33 460.346 47.2264 1
3 7 33 4.59728 3.96017 1
8 18 28 131.171 18.0694 -2
3 7 33 131.171 18.0694 1
4 22 26 5.78235 16.7134 -2
3 7 33 5.78235 16.7134 1
14 16 26 285.519 30.7125 -2
3 7 33 285.519 30.7125 1
10 16 28 36.4832 28.9107 -2
5 7 33 36.4832 28.9107 1
19 19 21 206.339 8.10931 -2
5 7 33 206.339 8.10931 1
5 7 33 27.6843 5.17812 1
3 23 25 23.0569 6.34308 -2
5 7 33 23.0569 6.34308 1
12 16 28 122.393 24.4652 -2
5 7 33 122.393 24.4652 1
11 15 29 2.88974 5.76885 -2
7 7 33 2.88974 5.76885 1
7 7 33 17.9734 8.16809 1
2 24 24 85.1053 22.4081 -2
7 7 33 85.1053 22.4081 1
4 20 28 929.806 20.1047 -2
1 9 33 929.806 20.1047 1
16 16 26 1242.62 41.7882 -2
1 9 33 1242.62 41.7882 1
1 9 33 874.084 9.50553 1
6 18 28 1235.1 23.248 -2
1 9 33 1235.1 23.248 1
7 17 29 511.432 12.0776 -2
3 9 33 511.432 12.0776 1
17 19 23 243.772 8.07538 -2
3 9 33 243.772 8.07538 1
15 15 27 440.555 10.8416 -2
3 9 33 440.555 10.8416 1
3 21 27 226.901 8.43323 -2
3 9 33 226.901 8.43323 1
5 9 33 44.1159 3.88569 1
18 20 22 77.3465 45.2397 -2
5 9 33 77.3465 45.2397 1
2 22 26 42.8393 15.2869 -2
5 9 33 42.8393 15.2869 1
14 14 28 69.8502 46.6412 -2
5 9 33 69.8502 46.6412 1
7 9 33 77.1756 4.59342 1
10 14 30 78.8874 48.5176 -2
7 9 33 78.8874 48.5176 1
15 19 25 1300.67 16.7683 -2
1 11 33 1300.67 16.7683 1
1 11 33 1218.93 11.8115 1
3 19 29 1244.98 17.2811 -2
1 11 33 1244.98 17.2811 1
3 11 33 576.637 9.10284 1
2 20 28 610.758 23.5476 -2
3 11 33 610.758 23.5476 1
6 16 30 860.751 31.7436 -2
3 11 33 860.751 31.7436 1
11 23 23 2263.45 80.4151 -2
0 0 34 2263.45 80.4151 1
0 0 34 1740.28 33.781 1
10 22 24 774.132 13.668 -2
0 2 34 774.132 13.668 1
13 21 23 767.075 29.0111 -2
0 2 34 767.075 29.0111 1
0 2 34 542.21 15.3858 1
11 21 25 102.292 37.9875 -2
2 2 34 102.292 37.9875 1
9 23 23 183.836 45.7582 -2
2 2 34 183.836 45.7582 1
2 2 34 49.7719 5.94081 1
14 22 22 244.527 12.3037 -2
2 2 34 244.527 12.3037 1
14 20 24 164.807 7.73487 -2
0 4 34 164.807 7.73487 1
9 21 25 228.942 21.3862 -2
0 4 34 228.942 21.3862 1
0 4 34 156.384 12.4192 1
2 4 34 5.05825 4.16063 1
15 21 23 -4.4008 42.713 -2
2 4 34 -4.4008 42.713 1
10 20 26 10.3094 6.23113 -2
2 4 34 10.3094 6.23113 1
7 23 25 17.9316 22.7167 -2
2 4 34 17.9316 22.7167 1
13 19 25 -59.166 41.927 -2
2 4 34 -59.166 41.927 1
4 4 34 6.03945 6.09648 1
11 19 27 -9.9726 23.9177 -2
4 4 34 -9.9726 23.9177 1
6 24 24 40.3571 9.17503 -2
4 4 34 40.3571 9.17503 1
0 6 34 95.0109 6.5539 1
15 19 25 196.456 44.4758 -2
0 6 34 196.456 44.4758 1
7 21 27 78.642 22.0544 -2
0 6 34 78.642 22.0544 1
6 22 26 26.5828 6.69717 -2
2 6 34 26.5828 6.69717 1
14 18 26 135.926 7.56639 -2
2 6 34 135.926 7.56639 1
9 19 27 -22.325 23.451 -2
2 6 34 -22.325 23.451 1
2 6 34 4.83468 6.07161 1
17 19 23 33.1695 23.8123 -2
2 6 34 33.1695 23.8123 1
18 20 22 100.749 7.36143 -2
4 6 34 100.749 7.36143 1
4 6 34 36.9406 6.33501 1
10 18 28 53.7572 7.13879 -2
4 6 34 53.7572 7.13879 1
5 23 25 54.7008 21.6843 -2
4 6 34 54.7008 21.6843 1
13 17 27 149.631 24.9506 -2
4 6 34 149.631 24.9506 1
loop_
_twin_individual_id
_twin_individual_mass_fraction_refined
1 0.720(4)
2 0.280(4)
