#------------------------------------------------------------------------------
#$Date: 2021-02-16 21:59:27 +0200 (Tue, 16 Feb 2021) $
#$Revision: 262010 $
#$URL: file:///home/coder/svn-repositories/cod/cif/1/56/04/1560435.cif $
#------------------------------------------------------------------------------
#
# This file is available in the Crystallography Open Database (COD),
# http://www.crystallography.net/
#
# All data on this site have been placed in the public domain by the
# contributors.
#
data_1560435
loop_
_publ_author_name
'Banihashemi, Fateme'
'Bu, Guanhong'
'Thaker, Amar'
'Williams, Dewight'
'Lin, Jerry Y S'
'Nannenga, Brent L'
_publ_section_title
;
 Beam-sensitive metal-organic framework structure determination by
 microcrystal electron diffraction.
;
_journal_name_full               Ultramicroscopy
_journal_page_first              113048
_journal_paper_doi               10.1016/j.ultramic.2020.113048
_journal_volume                  216
_journal_year                    2020
_chemical_formula_sum            'C96 H120 N48 Zn12'
_chemical_formula_weight         2730.91
_space_group_crystal_system      cubic
_space_group_IT_number           217
_space_group_name_Hall           'I -4 2 3'
_space_group_name_H-M_alt        'I -4 3 m'
_atom_sites_solution_hydrogens   geom
_audit_creation_method           SHELXL-2018/3
_cell_angle_alpha                90.00(3)
_cell_angle_beta                 90.00(3)
_cell_angle_gamma                90.00(3)
_cell_formula_units_Z            1
_cell_length_a                   16.880(3)
_cell_length_b                   16.880(3)
_cell_length_c                   16.880(3)
_cell_measurement_temperature    293(2)
_cell_volume                     4809.7(15)
_computing_structure_refinement  'SHELXL-2018/3 (Sheldrick, 2018)'
_computing_structure_solution    'SHELXT 2018/2 (Sheldrick, 2018)'
_diffrn_ambient_temperature      293(2)
_diffrn_measured_fraction_theta_full 0.998
_diffrn_measured_fraction_theta_max 0.990
_diffrn_radiation_wavelength     1.000
_diffrn_reflns_av_R_equivalents  0.3206
_diffrn_reflns_av_unetI/netI     0.2108
_diffrn_reflns_Laue_measured_fraction_full 0.998
_diffrn_reflns_Laue_measured_fraction_max 0.990
_diffrn_reflns_limit_h_max       18
_diffrn_reflns_limit_h_min       -18
_diffrn_reflns_limit_k_max       19
_diffrn_reflns_limit_k_min       -19
_diffrn_reflns_limit_l_max       18
_diffrn_reflns_limit_l_min       -19
_diffrn_reflns_number            7484
_diffrn_reflns_point_group_measured_fraction_full 0.997
_diffrn_reflns_point_group_measured_fraction_max 0.988
_diffrn_reflns_theta_full        34.949
_diffrn_reflns_theta_max         34.949
_diffrn_reflns_theta_min         3.396
_exptl_absorpt_coefficient_mu    0.000
_exptl_crystal_density_diffrn    0.943
_exptl_crystal_F_000             483
_refine_diff_density_max         0.105
_refine_diff_density_min         -0.274
_refine_diff_density_rms         0.033
_refine_ls_abs_structure_details
;
 All f" are zero, so absolute structure could not be determined
;
_refine_ls_extinction_coef       0.07(3)
_refine_ls_extinction_expression Fc^*^=kFc[1+0.001xFc^2^\l^3^/sin(2\q)]^-1/4^
_refine_ls_extinction_method     'SHELXL-2018/3 (Sheldrick 2018)'
_refine_ls_goodness_of_fit_ref   1.011
_refine_ls_hydrogen_treatment    constr
_refine_ls_matrix_type           full
_refine_ls_number_parameters     35
_refine_ls_number_reflns         738
_refine_ls_number_restraints     0
_refine_ls_restrained_S_all      1.011
_refine_ls_R_factor_all          0.1779
_refine_ls_R_factor_gt           0.1348
_refine_ls_shift/su_max          0.001
_refine_ls_shift/su_mean         0.000
_refine_ls_structure_factor_coef Fsqd
_refine_ls_weighting_details
'w=1/[\s^2^(Fo^2^)+(0.1649P)^2^] where P=(Fo^2^+2Fc^2^)/3'
_refine_ls_weighting_scheme      calc
_refine_ls_wR_factor_gt          0.3253
_refine_ls_wR_factor_ref         0.3411
_reflns_Friedel_coverage         0.791
_reflns_Friedel_fraction_full    0.997
_reflns_Friedel_fraction_max     0.985
_reflns_number_gt                342
_reflns_number_total             738
_reflns_threshold_expression     'I > 2\s(I)'
_cod_data_source_file            02-211_a.cif
_cod_data_source_block           02-211_a
_cod_original_cell_volume        4810(3)
_cod_database_code               1560435
_shelx_shelxl_version_number     2018/3
_shelx_space_group_comment
;
The symmetry employed for this shelxl refinement is uniquely defined
by the following loop, which should always be used as a source of
symmetry information in preference to the above space-group names.
They are only intended as comments.
;
_shelx_res_file
;
TITL 02-211_a.res in I-43m
    02-211_a.res
    created by SHELXL-2018/3 at 22:22:57 on 13-Apr-2020
REM Old TITL 003
REM SHELXT solution in I-43m: R1 0.243, Rweak 0.221, Alpha 0.006
REM <I/s>   0.000 for    0 systematic absences,  Orientation as input
REM Flack x =  0.362 ( 0.097 ) from   113 Parsons' quotients
REM Formula found by SHELXT:  C2 N10 Zn
CELL  1.00000  16.8800  16.8800  16.8800   90.000   90.000   90.000
ZERR    1.000   0.0030   0.0030   0.0030    0.030    0.030    0.030
LATT -2
SYMM -X, -Y, Z
SYMM -X, Y, -Z
SYMM X, -Y, -Z
SYMM Z, X, Y
SYMM Z, -X, -Y
SYMM -Z, -X, Y
SYMM -Z, X, -Y
SYMM Y, Z, X
SYMM -Y, Z, -X
SYMM Y, -Z, -X
SYMM -Y, -Z, X
SYMM Y, X, Z
SYMM -Y, -X, Z
SYMM Y, -X, -Z
SYMM -Y, X, -Z
SYMM X, Z, Y
SYMM -X, Z, -Y
SYMM -X, -Z, Y
SYMM X, -Z, -Y
SYMM Z, Y, X
SYMM Z, -Y, -X
SYMM -Z, Y, -X
SYMM -Z, -Y, X
SFAC H  0.042  0.991  0.103  3.924  0.205 11.597  0.170 31.984  0.006 =
  0.0 0.0 0.000 0.310 1.008
SFAC C  0.208  0.922  0.702  5.018  1.144 16.523  0.425 47.300  0.030 =
  0.0 0.0 0.000 0.770 12.011
SFAC N  0.216  0.843  0.649  4.055  0.968 12.693  0.345 36.058  0.032 =
  0.0 0.0 0.000 0.700 14.007
SFAC Zn 0.5996  0.3602  1.7763  2.7665  2.0240 15.5278  1.6598 60.2830  0.000 =
  0.0 0.0 0.000 1.340 65.38

UNIT 120 96 48 12
ACTA
L.S. 10
BOND
LIST 6
FMAP 2
PLAN 20
WGHT    0.164900
EXTI    0.069207
FVAR       1.37975
ZN1   4    0.750000    0.500000    1.000000    10.25000    0.06182    0.07701 =
         0.07701    0.00000    0.00000    0.00000
C1    2    0.622073    0.377927    1.007565    10.50000    0.08984    0.08984 =
         0.07710   -0.01995    0.01995   -0.02614
N1    3    0.680596    0.406984    0.969415    11.00000    0.10199    0.09402 =
         0.05010    0.00527    0.00272   -0.01491
C2    2    0.683538    0.372716    0.900291    11.00000    0.13639    0.12218 =
         0.07062   -0.01424    0.02438   -0.02730
AFIX  43
H1    1    0.717916    0.384863    0.858987    11.00000   -1.20000
AFIX   0
C3    2    0.594786    0.405214    1.084163    10.50000    0.11344    0.11344 =
         0.09256   -0.01974    0.01974   -0.00979
AFIX 137
H2A   1    0.544104    0.430361    1.078378    10.50000   -1.50000
H2B   1    0.632123    0.442480    1.105416    10.50000   -1.50000
H2C   1    0.590037    0.360896    1.119486    10.50000   -1.50000
AFIX   0
HKLF 4




REM  02-211_a.res in I-43m
REM wR2 = 0.3411, GooF = S = 1.011, Restrained GooF = 1.011 for all data
REM R1 = 0.1348 for 342 Fo > 4sig(Fo) and 0.1779 for all 738 data
REM 35 parameters refined using 0 restraints

END

WGHT      0.1728      0.0000

REM Highest difference peak  0.105,  deepest hole -0.274,  1-sigma level  0.033
Q1    1   0.6128  0.3131  1.3131  10.50000  0.05    0.11
Q2    1   0.7462  0.4103  0.8752  11.00000  0.05    0.09
Q3    1   0.6803  0.3197  0.8043  10.50000  0.05    0.09
Q4    1   0.7678  0.2322  0.7678  10.16667  0.05    0.08
Q5    1   0.7440  0.4087  0.8637  11.00000  0.05    0.08
Q6    1   0.6658  0.3342  1.0151  10.50000  0.05    0.07
Q7    1   0.7245  0.3988  0.8409  11.00000  0.05    0.07
Q8    1   0.7795  0.5066  1.0393  11.00000  0.05    0.07
Q9    1   0.5939  0.5080  1.3068  11.00000  0.05    0.07
Q10   1   0.6187  0.4161  0.7499  11.00000  0.05    0.06
Q11   1   0.6091  0.3909  1.2614  10.50000  0.05    0.06
Q12   1   0.7205  0.3618  0.7541  11.00000  0.05    0.06
Q13   1   0.6881  0.4154  0.6881  10.50000  0.05    0.06
Q14   1   0.7662  0.3009  0.8708  11.00000  0.05    0.05
Q15   1   0.5021  0.4012  1.0977  11.00000  0.05    0.05
Q16   1   0.5943  0.4057  0.7550  10.50000  0.05    0.05
Q17   1   0.5108  0.4345  1.1412  11.00000  0.05    0.05
Q18   1   0.5087  0.4147  1.1117  11.00000  0.05    0.05
Q19   1   0.7435  0.3597  0.7434  10.50000  0.05    0.05
Q20   1   0.5000  0.5000  1.4051  10.25000  0.05    0.05
;
_shelx_res_checksum              958
_shelx_hkl_file
;
   0   2   0 3309.35  780.10
  -2   1  -1 4974.61 1172.52
  -1   2  -1 5930.45 1397.67
  -1   1  -2 5275.80 1243.84
   1   2  -1 4548.96 1072.33
  -2   0  -2 4188.03  987.08
  -2   2   0 3122.66  736.05
   2   2   0 2811.52  662.86
   0   2  -2 2283.81  538.66
  -2   2  -2 9999.00 2357.25
   0   3   1 1547.02  364.78
   0   3  -1 1510.93  356.57
  -1   0  -3 1091.75  257.75
  -3   0  -1  916.39  216.19
  -1   3   0 1417.58  334.55
   1   3   0 1635.39  385.70
   0   1  -3 1095.86  258.99
  -1   2  -3  389.80   93.31
  -2   3  -1  314.76   75.06
  -3   1  -2  334.80   79.52
   2   3   1  441.21  104.48
   1   3  -2  240.71   59.02
  -2  -1  -3  249.79   59.62
   1   3   2  587.07  138.65
  -3   2  -1  317.62   75.80
  -1   3  -2  389.30   92.98
  -2   1  -3  425.40  101.17
  -3  -1  -2  308.78   73.04
  -2   3   1  198.51   48.15
   2   3  -1  238.22   58.15
   1   2  -3  218.80   54.08
  -3   0  -3 3110.22  733.31
  -3   3   0 2221.58  523.85
   3  -3   0 2814.01  663.73
   0  -3   3 2580.02  609.22
   3   3   0 2344.80  552.97
   0   3  -3 1926.62  455.02
   3   3   2 2851.35  672.45
  -3   3  -2 3038.03  716.51
  -2   3  -3 3616.76  852.92
  -3   2  -3 3571.96  842.21
  -2  -3   3 2548.91  601.63
   3  -2   3 4716.98 1112.29
   3  -3   2 4382.19 1033.38
   2  -3   3 4333.65 1022.30
   2   3  -3 2526.51  596.03
   0   4   0 5600.64 1320.51
   1   4   1 3718.82  876.56
   1  -4  -1 4158.16  980.36
  -4   1  -1 3055.46  720.49
  -1   4  -1 4251.50 1002.26
  -1   1  -4 3230.94  762.06
  -1  -4   1 4017.52  947.51
  -1   4   1 3296.90  777.36
   1  -4   1 4652.26 1097.10
   1   4  -1 4292.57 1012.10
   4  -2   0   62.70   21.48
  -4   2   0   30.54   12.51
  -2   0  -4   36.21   13.81
   0  -4   2  101.01   30.55
  -4   0  -2   69.70   18.18
  -2  -4   0  110.91   30.13
  -2   4   0   36.83   13.77
   2  -4   0  112.98   30.38
   2   4   0   37.35   15.20
   0   2  -4   41.58   18.32
   2   4   2 3717.57  876.31
  -4   2  -2 3558.27  838.98
  -2   4  -2 3752.43  884.77
  -2   2  -4 3428.83  808.61
  -2  -4   2 3440.04  811.72
   4  -2   2 4738.14 1117.14
   2  -4   2 5423.90 1279.43
   2  -2   4 4673.42 1102.33
   2   4  -2 2908.59  686.01
  -1  -3   4 2230.30  527.08
  -3  -4   1 3127.64  737.67
  -1   3  -4 3217.25  759.07
  -3   4  -1 3422.61  806.86
  -4   1  -3 3403.94  802.51
   3  -4  -1 3026.83  713.89
   3   4   1 1957.74  461.99
   1   4  -3 2619.85  618.44
   3  -1   4 4948.47 1167.04
   1  -4   3 3741.22  882.66
  -3  -1  -4 1880.56  443.82
  -4   3  -1 3697.66  871.83
  -1   4  -3 3234.68  762.93
  -3   1  -4 3229.70  761.56
  -1  -4   3 3375.32  796.53
  -4  -1  -3 3457.46  815.08
  -3   4   1 2585.00  609.60
   4  -1   3 3833.32  904.19
   3  -4   1 4151.94  979.24
   1  -3   4 3743.71  883.40
   3   4  -1 2677.10  631.63
   1   3  -4 2423.21  571.76
   3   4   3 4669.69 1100.96
  -4   3  -3 4290.08 1011.47
  -3   4  -3 4366.01 1029.40
  -3   3  -4 4405.83 1038.86
  -3  -4   3 3453.73  815.20
   4  -3   3 5993.93 1413.85
   3  -4   3 5469.96 1290.63
   3  -3   4 5998.91 1415.09
   3   4  -3 2771.70  654.16
  -4   0  -4 3428.83  808.48
  -4  -4   0 2222.83  524.59
  -4   4   0 2631.05  620.55
   4  -4   0 3010.65  710.53
   0  -4   4 2275.10  537.91
   4   4   0 1941.56  458.25
   0   4  -4 2134.47  504.18
   4   4   2 3092.79  729.33
  -4   4  -2 1945.29  459.12
  -2   4  -4 3912.97  922.86
  -4   2  -4 3717.57  876.68
  -2  -4   4 2912.33  688.00
  -4  -2  -4 3748.69  883.78
   4  -2   4 4989.55 1176.75
   4  -4   2 2968.34  700.70
   2  -4   4 4470.55 1054.79
   2   4  -4 2576.29  608.35
  -4   4  -4 6354.85 1498.48
   4  -4   4 9996.51 2357.25
   0   5   1   45.55   14.18
   1   0   5  163.91   44.98
   0  -5  -1   72.14   21.25
   0   5  -1  153.33   38.64
  -1   0  -5   69.40   21.85
   0  -5   1   91.53   26.96
  -1  -5   0   83.29   23.65
  -1   5   0   90.64   24.19
   1  -5   0   84.18   24.93
   0  -1   5   30.87   21.39
   1   5   0  129.94   32.68
   0   1  -5   59.06   21.94
  -2  -5   1  222.66   56.72
  -1   2  -5  199.26   50.31
  -2   5  -1  276.92   66.96
  -5   1  -2  282.64   67.62
   2  -5  -1  288.87   70.59
   2   5   1  336.17   80.21
   1   5  -2  189.55   48.24
   2  -1   5  132.55   39.57
   1  -5   2  359.43   87.38
  -1   5   2  204.98   50.09
  -2  -1  -5  192.04   47.26
  -1  -5  -2  274.05   65.64
   1   5   2  231.74   55.65
   1  -5  -2  239.34   58.45
  -5   2  -1  237.59   57.60
  -1   5  -2  334.67   80.69
  -2   1  -5  158.56   41.07
  -1  -5   2  276.79   69.31
  -2  -5  -1  242.32   58.56
  -2   5   1  229.01   55.60
   5  -1   2  210.21   52.27
   2  -5   1  367.15   88.59
   1  -2   5  145.12   42.03
   2   5  -1  220.29   55.10
   1   2  -5  167.02   44.20
   0   5   3   18.42   10.04
   5  -3   0   36.42   19.47
   0  -5  -3   33.39   13.28
  -5   3   0   48.95   16.55
   0   5  -3   24.67   18.46
   0  -5   3   37.45   24.07
  -5   0  -3   37.50   12.08
  -3   5   0   10.17   12.24
   5   0   3   -0.58   12.12
   3  -5   0    8.88   16.15
   0  -3   5   33.68   27.12
   0   3  -5    6.64   17.09
  -3  -5   2 1381.49  327.20
  -2   3  -5 1676.45  396.15
  -3   5  -2 1617.96  382.21
  -5   2  -3 1611.74  380.34
   3  -5  -2 1703.84  402.87
   3   5   2 1838.25  433.49
   2   5  -3 1311.79  310.77
   3  -2   5 1919.15  454.15
   2  -5   3 1263.25  299.45
   5  -3   2 2090.90  493.73
  -3  -2  -5  753.10  178.10
  -2  -5  -3 1647.83  388.56
   2   5   3 1672.72  394.66
  -5   3  -2 1762.34  416.07
  -2   5  -3 1163.68  275.42
  -3   2  -5 1382.73  326.95
  -2  -5   3 1294.37  307.16
  -5  -2  -3 1629.16  384.20
  -3  -5  -2 2070.99  488.37
  -3   5   2 1621.70  382.83
   5  -2   3 2057.30  485.88
   3  -5   2 2128.24  502.56
   2  -3   5 1973.91  467.21
   3   5  -2 1306.81  309.28
  -1  -4   5  358.56   90.21
  -1   4  -5  508.16  122.25
  -4   5  -1  632.38  150.23
  -5   1  -4  495.10  117.60
   4  -5  -1  351.48   85.85
   4   5   1  476.67  113.61
   1   5  -4  520.36  125.58
   4  -1   5  892.12  212.20
   1  -5   4  726.59  174.74
  -4  -1  -5  604.99  143.63
   5  -4  -1  347.12   84.38
  -5   4  -1  543.89  129.56
  -1   5  -4  687.51  163.91
  -4   1  -5  643.21  152.83
  -1  -5   4  378.85   96.27
  -5  -1  -4  608.35  143.88
  -4  -5  -1  511.90  121.95
  -4   5   1  654.03  155.32
   5  -1   4  885.89  210.09
   4  -5   1  869.21  206.60
   1  -4   5  519.86  127.70
   4   5  -1  471.32  113.15
   1   4  -5  437.60  106.14
  -3  -4   5  114.85   41.57
  -3   4  -5  241.95   60.15
  -4   5  -3  223.53   55.07
  -5   3  -4  305.67   73.85
   4   5   3  415.94   98.52
   3   5  -4  164.78   46.52
   4  -3   5  305.55   77.65
   3  -5   4  583.58  141.64
   5  -4   3  346.12   85.29
  -4  -3  -5  260.99   62.44
  -5   4  -3  197.76   48.74
  -4   3  -5  256.38   63.47
  -5  -3  -4  303.18   71.76
  -4  -5  -3  273.18   65.02
   5  -3   4  136.78   38.69
   4  -5   3  174.24   47.22
   3  -4   5  184.94   52.85
   3   4  -5  279.41   70.03
  -5   0  -5 1878.08  443.08
  -5  -5   0 1304.32  308.41
  -5   5   0 1530.84  361.92
   5   0   5 2886.19  681.28
   5  -5   0 1777.26  420.55
   0  -5   5 1265.74  302.06
   5   5   0 1138.43  269.45
   0   5  -5 1148.01  272.81
   5   5   2   77.04   21.82
  -5   5  -2  212.20   52.47
  -2   5  -5   76.14   26.52
  -5   2  -5  131.43   34.20
  -2  -5   5   73.85   40.00
  -5  -2  -5  118.55   29.72
  -5  -5  -2  111.63   29.22
   5  -2   5  257.25   66.20
   5  -5   2  276.30   69.27
   2  -5   5   87.78   38.17
   2   5  -5   55.77   26.87
   5   5   4 1123.74  265.59
  -5   5  -4  760.93  180.96
  -4   5  -5  606.11  145.00
  -5   4  -5  926.22  219.92
  -5  -4  -5  501.69  118.72
   5  -4   5 1285.65  305.92
   5  -5   4  684.27  165.03
   0  -6   0 2268.88  535.67
   0   6   0 1849.46  436.48
   1   6   1  200.38   48.69
   1  -6  -1  243.32   59.64
  -1   6  -1  220.54   54.39
  -1   1  -6  151.83   39.62
  -1  -6   1  257.00   64.63
  -1  -6  -1  289.61   70.07
  -1   6   1  175.11   43.21
   1  -6   1  257.62   63.93
   1  -1   6   71.97   31.34
   1   6  -1  239.46   58.96
   0   6   2  389.68   92.87
   2   0   6  171.13   47.28
   0  -6  -2  405.36   97.02
   0   6  -2  367.77   88.83
  -2   0  -6  232.37   57.09
   0  -6   2  479.04  115.97
  -6   0  -2  256.38   61.53
  -2  -6   0  416.56  100.48
  -2   6   0  338.53   81.26
   2  -6   0  430.50  103.64
   0  -2   6  211.08   57.25
   2   6   0  402.50   96.36
   0   2  -6  210.21   53.48
   2   6   2 2124.51  501.07
   2  -6  -2 1732.46  409.22
  -6   2  -2 1966.45  463.98
  -2   6  -2 2219.10  523.72
  -2   2  -6 1625.43  384.45
  -2  -6   2 1817.09  430.38
  -2  -6  -2 2347.29  553.85
  -2   6   2 2120.77  500.57
   6  -2   2 1894.26  447.56
   2  -6   2 2991.98  706.55
   2   6  -2 1808.38  427.64
  -1  -3   6   12.64   28.85
  -1   3  -6   39.54   23.72
  -6   1  -3   90.47   23.52
   3   6   1  168.02   42.08
   1   6  -3   78.78   27.95
   1  -6   3   67.08   28.43
   6  -3   1   49.80   23.15
  -1   6   3  104.58   28.61
  -3  -1  -6   54.21   18.83
   1   6   3  118.11   30.11
   1  -6  -3   98.52   27.93
  -6   3  -1  154.57   38.82
  -1   6  -3  109.62   31.96
  -1  -6   3   72.22   34.61
  -3  -6  -1   89.82   26.34
   6  -1   3   70.88   22.80
   1  -3   6   27.93   30.55
   1   3  -6   42.14   24.14
   3   6   3  754.22  178.22
  -6   3  -3  706.05  167.39
  -3   6  -3  825.78  196.02
  -3   3  -6  757.21  180.46
  -3  -6   3  643.83  156.19
  -3  -6  -3  832.26  196.77
   6  -3   3 1010.60  240.08
   3  -6   3 1129.96  268.95
   3  -3   6  750.24  180.96
   3   6  -3  551.36  133.05
   4   0   6   42.44   23.36
   6  -4   0   38.71   23.20
  -6   4   0   70.69   21.92
   0   6  -4   59.83   25.09
  -4   0  -6   74.99   24.13
   0  -6   4   43.29   32.48
  -6   0  -4  470.95  111.79
  -4  -6   0   68.93   26.46
  -4   6   0   90.01   25.78
   6   0   4  190.42   47.89
   4  -6   0   73.27   27.53
   0  -4   6   28.69   31.00
   4   6   0   54.49   21.84
   0   4  -6   60.13   26.52
  -2  -4   6  479.91  119.54
  -4  -6   2  461.11  113.42
  -2   4  -6  667.72  159.93
  -4   6  -2  723.73  171.87
  -6   2  -4  748.50  177.35
   4  -6  -2  591.43  142.38
   4   6   2  858.02  202.99
   2   6  -4  534.93  129.81
   4  -2   6  972.02  232.24
   2  -6   4 1068.72  255.26
  -4  -2  -6  489.25  116.62
  -2  -6  -4 1058.90  250.29
   2   6   4  770.27  182.21
  -6   4  -2  788.69  186.94
  -2   6  -4  797.03  189.80
  -4   2  -6  691.49  164.65
  -2  -6   4  545.88  134.17
  -6  -2  -4  830.14  196.02
  -4  -6  -2  771.89  182.95
  -4   6   2  831.51  197.39
   6  -2   4 1098.97  260.86
   4  -6   2  984.84  234.48
   2  -4   6  713.27  173.62
   4   6  -2  486.38  117.47
   2   4  -6  420.80  102.99
   4   6   4  254.64   60.67
  -6   4  -4  226.39   55.78
  -4   6  -4  286.63   70.61
  -4   4  -6  267.71   66.82
  -4  -6   4  186.06   58.18
  -4  -6  -4  320.11   76.07
   4  -6   4  341.02   88.37
   4  -4   6  355.08   91.68
   4   6  -4  173.99   49.01
  -1   5  -6  426.40  104.89
  -5   6  -1  544.26  129.94
  -6   1  -5  516.01  122.83
   5  -6  -1  394.03   96.88
   5   6   1  457.63  109.82
   1   6  -5  474.18  116.16
   5  -1   6  888.38  211.95
   6  -5   1  678.79  163.16
  -6   5   1  544.26  129.81
  -5  -1  -6  569.64  135.66
   5   1   6  770.77  184.20
   6  -5  -1  335.54   84.51
  -6   5  -1  534.18  127.45
  -1   6  -5  596.53  143.63
  -5   1  -6  590.43  140.89
  -1  -6   5  407.10  105.27
  -6  -1  -5  594.29  140.89
  -5  -6  -1  399.64   96.59
  -5   6   1  577.86  138.03
   6  -1   5  828.02  197.02
   5  -6   1  656.15  157.93
   1  -5   6  356.94   94.36
   5   6  -1  416.44  101.12
   1   5  -6  398.27   98.36
  -5  -6   3  311.77   81.33
  -3   5  -6  576.74  138.78
  -5   6  -3  594.41  141.76
  -6   3  -5  557.32  132.92
   5   6   3  547.50  129.94
   3   6  -5  331.06   83.84
   3  -6   5  638.48  156.56
   6  -5   3  776.24  186.06
  -5  -3  -6  401.75   95.91
  -6   5  -3  513.89  122.74
  -3   6  -5  522.85  125.95
  -5   3  -6  562.92  134.67
  -3  -6   5  430.01  109.13
  -6  -3  -5  558.19  131.93
  -5  -6  -3  989.32  233.99
   6  -3   5  302.93   77.00
   5  -6   3  721.61  173.49
   3  -5   6  793.17  193.03
   5   6  -3  321.60   81.41
   3   5  -6  307.04   78.10
  -5   5  -6  631.51  151.35
  -5  -6   5  129.81   52.20
  -5  -6  -5  122.82   29.81
   6  -5   5  173.99   53.39
   5  -5   6  144.75   50.95
   5   6  -5  283.76   75.09
  -6   0  -6  795.41  188.68
  -6  -6   0  462.48  111.86
  -6   6   0  703.56  167.52
   6   0   6  901.70  215.07
   6  -6   0  727.34  175.48
   0  -6   6  443.95  116.77
   6   6   0  377.48   92.00
   0   6  -6  644.20  156.07
   6   6   2  508.79  121.39
  -6   6  -2  946.01  224.40
  -2   6  -6  706.30  169.63
  -6   2  -6  962.93  228.38
  -6  -2  -6  927.09  219.42
  -6  -6  -2  662.49  157.56
   6  -2   6  332.06   84.18
   2   6  -6  643.83  156.19
   6   6   4  529.20  125.58
  -6   6  -4  629.14  150.35
  -4   6  -6  764.92  183.08
  -6   4  -6  627.77  150.23
  -6  -4  -6  532.44  126.33
  -6  -6  -4  614.95  145.75
   6  -4   6 1174.64  281.90
   6  -6   4 1221.31  291.98
   4   6  -6  432.99  108.64
  -6   6  -6 1927.86  456.51
   6  -6   6 3179.92  754.85
   0   7   1  385.57   92.31
   0  -7  -1  471.20  112.71
   0   7  -1  384.08   92.53
   0  -7   1  456.38  110.52
  -1  -7   0  349.36   85.25
  -1   7   0  313.64   75.77
   1  -7   0  499.33  119.84
   1   7   0  382.83   91.91
  -1   2  -7  261.61   65.70
  -2   7  -1  500.57  119.86
  -7   1  -2  586.94  139.40
   2  -7  -1  535.80  128.44
   2   7   1  470.20  112.25
   1   7  -2  432.50  104.63
   2  -1   7  267.71   71.84
   1  -7   2  493.23  119.48
   7  -2   1  223.28   57.50
  -1   7   2  428.64  102.55
  -1  -7  -2  509.91  121.71
   1   7   2  440.71  105.04
   1  -7  -2  655.03  156.07
  -7   2  -1  387.06   92.55
  -1   7  -2  469.21  112.80
  -2   1  -7  341.02   83.30
  -2  -7  -1  477.05  114.10
  -2   7   1  429.38  102.88
   2  -7   1  340.02   83.79
   1  -2   7  253.39   70.34
   2   7  -1  528.45  127.07
   0   7   3   80.43   22.75
   3   0   7   28.79   25.55
   0  -7  -3  130.81   35.35
   0   7  -3   53.31   25.76
  -3   0  -7   32.42   19.35
   0  -7   3   44.43   30.60
  -7   0  -3  157.68   39.04
  -3  -7   0   60.61   24.32
  -3   7   0   33.77   15.96
   7   0   3   15.91   15.36
   3  -7   0   17.16   19.80
   0  -3   7   40.01   33.27
   3   7   0   63.27   23.68
   0   3  -7    8.45   21.36
  -3  -7   2  265.09   70.51
  -2   3  -7  115.66   36.38
  -3   7  -2  125.21   33.74
  -7   2  -3  164.16   40.88
   3  -7  -2   55.32   24.64
   3   7   2  299.94   72.19
   2   7  -3   94.59   32.91
  -2   7   3  161.67   41.61
  -2  -7  -3  140.52   35.68
   2   7   3   95.48   25.14
   2  -7  -3  153.83   41.21
  -7   3  -2  181.09   45.22
  -2   7  -3  125.08   35.13
  -3   2  -7  269.20   67.83
  -2  -7   3  108.89   42.71
  -3  -7  -2  179.47   44.97
  -3   7   2  155.57   40.85
   7  -2   3   79.85   29.43
   3  -7   2  133.17   40.14
   2  -3   7   61.41   39.10
  -1  -4   7  121.81   50.41
  -1   4  -7  191.42   51.90
  -4   7  -1  350.60   84.86
  -7   1  -4  321.85   77.11
   4   7   1  454.77  109.30
   7   1   4  350.23   84.84
   1   7  -4  293.10   74.91
   1  -7   4  343.88   89.27
  -4  -1  -7  230.50   57.66
  -1  -7  -4  461.49  110.56
   1   7   4  381.59   91.39
  -7   4  -1  269.57   65.81
  -1   7  -4  303.93   76.14
  -4   1  -7  271.57   68.07
  -1  -7   4  206.23   60.77
  -7  -1  -4  413.20   98.36
  -4  -7  -1  228.26   58.26
  -4   7   1  330.81   80.31
   7  -1   4  404.49   98.33
   1  -4   7  184.82   61.15
   4   7  -1  246.31   63.72
   1   4  -7  144.25   42.61
  -4  -7   3  111.69   45.74
  -3   4  -7   85.71   31.21
  -4   7  -3   80.87   25.13
  -7   3  -4  103.67   28.10
   4  -7  -3   55.53   28.31
   4   7   3  119.58   30.47
   3   7  -4   57.50   31.31
   4  -3   7  194.40   59.85
   3  -7   4  103.23   41.88
   7  -4   3   62.32   29.42
  -3  -7  -4  102.90   26.81
   3   7   4   83.69   22.68
  -7   4  -3   64.69   20.66
  -3   7  -4   84.01   26.45
  -4   3  -7  101.72   31.86
  -3  -7   4   49.10   39.30
  -7  -3  -4   65.34   17.26
  -4  -7  -3  118.87   30.88
  -4   7   3  123.14   33.24
   7  -3   4   92.07   32.58
   4  -7   3  128.69   43.10
   3  -4   7  -10.26   36.96
   4   7  -3   61.35   29.17
   5   0   7   59.74   32.55
   7  -5   0   19.55   27.65
  -7   5   0   54.16   20.30
   0   7  -5   65.44   28.30
  -5   0  -7   48.55   19.78
   0  -7   5   93.68   46.87
  -7   0  -5   46.07   15.53
  -5  -7   0   11.64   25.35
  -5   7   0   51.14   20.77
   7   0   5   11.37   16.44
   5  -7   0   62.12   30.28
   0  -5   7   34.09   40.01
   5   7   0   29.25   21.84
   0   5  -7   23.87   26.58
  -2   5  -7  203.86   55.28
  -5   7  -2  232.86   58.15
  -7   2  -5  306.29   74.03
   5  -7  -2  198.26   55.65
   5   7   2  210.46   53.11
   2   7  -5  143.38   45.19
   5  -2   7  276.17   74.71
  -5  -2  -7  137.78   37.18
   5   2   7  108.43   35.61
  -7   5  -2  305.05   74.38
  -2   7  -5  222.78   58.48
  -5   2  -7  240.21   61.48
  -7  -2  -5  202.25   48.84
  -5  -7  -2  177.72   46.82
  -5   7   2  281.03   69.29
   7  -2   5  316.00   80.45
   5  -7   2  245.56   64.99
   5   7  -2  378.23   93.54
   2   5  -7  133.67   42.15
  -4   5  -7  712.03  171.00
  -5   7  -4  306.17   75.86
  -7   4  -5  211.33   53.70
   5   7   4  263.60   63.25
   4   7  -5  140.89   44.81
   4  -7   5  317.25   86.57
   7  -5   4  163.78   51.12
  -4  -7  -5  347.87   83.23
   4   7   5  256.50   61.68
  -7   5  -4  254.89   63.50
  -4   7  -5  200.38   52.42
  -5   4  -7  211.46   55.26
  -4  -7   5  147.74   56.44
  -7  -4  -5  327.08   77.59
  -5  -7  -4  308.16   73.70
   7  -4   5  329.69   85.65
   5  -7   4  418.68  106.86
   4  -5   7  290.24   82.63
  -1  -6   7  -10.90   44.89
  -6  -7   1   55.46   33.01
  -1   6  -7   90.53   35.92
  -6   7  -1  120.76   34.26
  -7   1  -6  151.22   39.25
   6  -7  -1   39.22   32.04
   6   7   1   95.34   31.09
   7   1   6   90.68   29.80
   1   7  -6  129.19   43.72
   6  -1   7  198.76   58.02
   1  -7   6   85.28   52.09
  -7   6   1  181.71   47.11
  -6  -1  -7  118.50   32.79
   6   1   7  176.48   50.70
   7  -6  -1   58.60   36.45
  -7   6  -1  180.84   46.55
  -1   7  -6  121.80   40.24
  -6   1  -7  130.31   35.51
  -1  -7   6   78.18   52.02
  -7  -1  -6  152.33   38.31
  -6  -7  -1   53.39   27.68
  -6   7   1  133.30   37.08
   6  -7   1  109.55   39.65
   1  -6   7   25.83   47.78
   6   7  -1   87.39   30.24
   1   6  -7   52.86   31.85
  -3  -6   7  198.64   68.08
  -6  -7   3  183.82   61.01
  -3   6  -7  362.05   90.71
  -6   7  -3  319.74   78.42
  -7   3  -6  376.24   91.23
   6   7   3  638.23  151.96
   3   7  -6  234.36   65.18
   6  -3   7  560.81  140.64
   3  -7   6  492.11  127.95
   7  -6   3  597.15  146.24
  -6  -3  -7  391.67   94.48
  -7   6  -3  397.77   96.42
  -3   7  -6  491.98  120.32
  -6   3  -7  368.77   90.37
  -7  -3  -6  410.34   97.68
  -6  -7  -3  452.54  109.08
   3   6  -7  226.89   62.99
  -6  -7   5   83.16   49.91
  -6   7  -5  123.23   36.24
  -7   5  -6  154.95   42.51
   6   7   5  146.49   35.89
   5   7  -6  118.75   44.00
   6  -5   7   85.74   49.56
   5  -7   6  307.66   87.11
  -7   6  -5  238.84   60.71
  -5   7  -6  127.32   38.46
  -6   5  -7  249.92   64.41
  -5  -7   6  139.02   60.67
  -7  -5  -6  139.65   33.95
  -6  -7  -5  214.94   51.63
   7  -5   6  225.15   71.07
   6  -7   5   24.66   37.90
   5  -6   7  413.58  114.93
   6   7  -5  145.50   49.15
  -7   0  -7 1187.21  281.27
  -7  -7   0  542.27  132.05
  -7   7   0 1149.13  272.81
   7  -7   0 1196.05  286.75
   0  -7   7  602.50  156.07
   7   7   0  541.02  130.93
   0   7  -7  596.03  146.49
   7   7   2   83.54   27.49
   7   2   7  211.95   57.85
   7  -7  -2   34.94   33.88
  -7   7  -2  133.92   37.19
  -2   7  -7  117.25   40.36
  -7   2  -7  169.76   45.73
  -7  -2  -7  132.68   35.42
  -7  -7  -2   60.91   26.21
  -7   7   2  138.78   39.70
   7  -2   7  239.96   67.99
   7  -7   2  253.77   70.70
   2  -7   7   52.32   54.19
   2   7  -7   91.41   39.68
   7   7   4  316.00   76.79
  -7   7  -4  574.12  137.78
  -4   7  -7  471.45  115.88
  -7   4  -7  639.35  153.70
  -7  -4  -7  491.98  117.54
  -7  -7  -4  317.25   77.13
   7  -7   4  997.41  241.33
   4  -7   7  293.22   89.56
   4   7  -7  279.41   76.70
  -7   7  -6  233.36   61.11
  -6   7  -7  233.36   62.64
  -7   6  -7  380.59   94.60
  -7  -7  -6  534.80  126.58
   7  -6   7  197.76   79.60
   7  -7   6  387.94  106.89
   6  -7   7  266.59   88.94
   0  -8   0 3248.37  767.03
   0   8   0 2490.41  587.82
   1   8   1   20.32   15.71
   1  -8  -1   34.52   19.39
  -1   8  -1   20.29   15.76
  -1   1  -8  -14.34   19.04
  -1  -8   1   16.19   22.75
  -1  -8  -1    2.37   16.68
  -1   8   1   22.29   14.85
   1  -8   1   91.10   32.02
   1  -1   8   21.31   33.16
   1   8  -1   -1.26   16.99
   0   8   2   19.50   14.98
   2   0   8   38.45   33.91
   0  -8  -2   23.54   16.86
   0   8  -2   28.49   19.32
  -2   0  -8   74.03   25.45
   0  -8   2   35.78   28.14
  -2  -8   0   16.34   23.21
  -2   8   0  142.51   37.45
   0  -2   8   -4.43   36.22
   2   8   0    4.29   15.81
   0   2  -8    5.35   19.59
   2   8   2  564.66  134.54
   2  -8  -2  549.61  132.68
  -8   2  -2  443.20  106.03
  -2   8  -2  539.66  129.44
  -2   2  -8  312.77   78.45
  -2  -8   2  459.00  114.23
  -2  -8  -2  643.33  153.33
  -2   8   2  593.79  141.76
   2  -8   2  485.01  119.12
   2  -2   8  273.18   78.07
   2   8  -2  592.05  143.26
  -1  -3   8   98.38   47.01
  -3  -8   1  261.86   69.06
  -1   3  -8  139.77   41.53
  -3   8  -1  225.27   56.38
  -8   1  -3  172.12   43.22
   3  -8  -1  230.38   60.29
   3   8   1  229.63   56.93
   1   8  -3  198.88   53.62
   3  -1   8   95.04   41.15
   1  -8   3  230.38   64.44
   8  -3   1  196.89   54.96
  -1   8   3  200.88   50.51
  -3  -1  -8  121.21   34.86
  -1  -8  -3  268.20   65.74
   1   8   3  240.08   58.98
   1  -8  -3  180.84   48.35
  -8   3  -1  226.89   56.08
  -1   8  -3  226.39   57.62
  -3   1  -8  171.87   47.64
  -1  -8   3   63.50   36.81
  -8  -1  -3  161.54   39.69
  -3  -8  -1  225.02   57.81
  -3   8   1  212.70   53.37
   3  -8   1   77.25   30.54
   1  -3   8   92.44   50.01
   1   3  -8  105.13   34.94
   3   8   3  168.76   42.13
   3  -8  -3  136.66   41.47
  -8   3  -3  183.70   46.32
  -3   8  -3  180.34   47.89
  -3   3  -8  202.99   55.31
  -3  -8   3  220.17   66.31
  -3  -8  -3  201.62   50.22
  -3   8   3  203.37   52.06
   8  -3   3  201.62   57.33
   3  -8   3  270.07   71.94
   3  -3   8  559.44  141.51
   3   8  -3  568.90  138.65
   0   8   4  859.26  203.99
   4   0   8  482.03  120.96
   8  -4   0  335.42   86.69
   0  -8  -4  537.91  129.19
  -8   4   0  688.13  163.78
   0   8  -4  623.29  151.10
  -4   0  -8  471.07  113.88
   0  -8   4  730.08  178.97
  -8   0  -4  834.75  197.76
  -4   8   0  664.60  158.56
   4  -8   0  949.12  226.89
   0  -4   8  351.48   98.42
   4   8   0  776.12  185.69
   0   4  -8  400.26   99.73
  -4  -8   2  326.08   88.24
  -2   4  -8  296.71   75.87
  -4   8  -2  495.97  119.08
  -8   2  -4  585.95  139.52
   4  -8  -2  550.98  134.54
   4   8   2  517.50  123.73
   2   8  -4  403.62  101.50
   4  -2   8  414.57  107.68
   2  -8   4  557.82  138.90
   8  -4   2  479.54  119.23
  -2   8   4  689.75  164.53
  -4  -2  -8  310.28   76.38
  -2  -8  -4  693.98  165.15
   2   8   4  683.15  162.29
   2  -8  -4  628.02  151.35
  -8   4  -2  389.93   94.28
  -2   8  -4  478.04  115.79
  -4   2  -8  351.60   87.53
  -2  -8   4  375.36  102.60
  -8  -2  -4  655.78  155.44
  -4  -8  -2  569.52  136.66
  -4   8   2  643.83  153.83
   8  -2   4  653.54  157.93
   4  -8   2  725.47  175.48
   2  -4   8  222.53   73.54
   4   8  -2  314.13   80.40
   4   8   4  506.92  120.65
  -8   4  -4  483.02  116.20
  -4   8  -4  448.18  108.52
  -4   4  -8  348.24   87.57
  -4  -8   4  245.93   74.39
  -4  -8  -4  475.93  113.58
   8  -4   4  588.69  144.38
   4  -8   4  751.73  184.07
   4  -4   8  456.38  122.31
   4   8  -4  342.14   87.93
  -1  -5   8  291.73   87.92
  -1   5  -8  401.75  101.06
  -5   8  -1  668.46  159.55
  -8   1  -5  519.86  124.00
   5  -8  -1  612.71  150.10
   5   8   1  502.56  121.64
   8   1   5  830.76  198.01
   1   8  -5  419.80  104.68
   1  -8   5  699.33  173.62
  -5  -1  -8  378.48   92.76
  -1  -8  -5  931.33  221.29
   1   8   5  877.55  208.10
   5   1   8  323.72   84.88
  -8   5  -1  527.96  126.83
  -1   8  -5  603.87  146.74
  -5   1  -8  463.73  113.13
  -1  -8   5  439.59  117.85
  -8  -1  -5  672.32  159.43
  -5  -8  -1  357.32   90.02
  -5   8   1  576.86  138.53
   5  -8   1  880.04  211.95
   5   8  -1  429.01  106.29
   1   5  -8  328.20   84.38
  -3  -5   8   28.82   53.12
  -5  -8   3   33.91   38.57
  -3   5  -8   88.07   35.10
  -5   8  -3   86.47   27.93
  -8   3  -5  122.61   34.09
   5  -8  -3   30.59   31.86
   5   8   3  120.05   32.56
   3   8  -5   91.09   36.77
   5  -3   8  127.57   53.16
   3  -8   5  155.44   57.49
   8  -5   3   -4.27   31.77
  -5  -3  -8   64.86   23.45
  -3  -8  -5  117.19   31.80
   3   8   5  141.39   36.25
   5   3   8   72.66   33.47
  -8   5  -3  127.07   35.05
  -3   8  -5  149.48   43.30
  -5   3  -8  141.51   42.76
  -3  -8   5   23.19   46.97
  -8  -3  -5  107.55   27.34
  -5  -8  -3   65.17   23.96
  -5   8   3  118.72   35.08
   8  -3   5  161.42   50.06
   5  -8   3  158.31   52.50
   3  -5   8   71.18   58.48
   5   8  -3   78.50   34.79
   3   5  -8   55.41   32.46
   5   8   5  252.40   61.20
  -8   5  -5  312.39   77.04
  -5   8  -5  217.43   57.43
  -5   5  -8  197.02   54.64
  -5  -8  -5  403.12   96.42
   8  -5   5  464.60  118.61
   5  -8   5  367.90  101.84
   5  -5   8  113.86   60.60
   5   8  -5  327.08   86.16
   8  -6   0   39.70   35.46
   0  -8   6   69.49   52.94
  -6  -8   0  152.33   49.46
   8   0   6  118.30   39.24
   6  -8   0   59.34   35.84
   0  -6   8   87.42   57.61
   0   6  -8  310.28   81.47
  -2  -6   8   24.59   52.22
  -6  -8   2   16.48   40.04
  -2   6  -8   39.33   30.43
  -6   8  -2   24.32   19.43
  -8   2  -6   40.25   18.07
   6  -8  -2   26.58   33.23
   6   8   2   78.72   29.68
   8   2   6   63.71   25.92
   2   8  -6   19.07   33.08
   6  -2   8   41.07   45.46
   2  -8   6  -32.45   53.45
   8  -6   2   -0.80   34.74
  -6  -2  -8   29.46   20.17
   6   2   8   36.68   32.02
  -8   6  -2   45.35   20.70
  -2   8  -6   26.43   28.73
  -6   2  -8   38.25   25.95
  -2  -8   6  -11.05   49.96
  -8  -2  -6   35.91   14.19
  -6  -8  -2    6.27   23.75
  -6   8   2   84.25   28.97
   8  -2   6   64.41   37.42
   6  -8   2   -4.87   31.54
   2  -6   8   12.13   52.06
   6   8  -2   61.51   31.66
   2   6  -8   27.22   33.88
  -4  -6   8   -0.92   51.49
  -6  -8   4   31.48   49.72
  -4   6  -8    8.26   29.05
  -6   8  -4   29.31   19.34
  -8   4  -6   47.02   23.36
   6   8   4   42.50   18.20
   4   8  -6   -3.80   33.57
   6  -4   8   48.75   45.59
   4  -8   6   32.15   48.04
   8  -6   4    6.93   37.87
  -6  -4  -8   23.11   18.13
  -4  -8  -6   -6.90   13.86
  -8   6  -4   17.90   17.47
  -4   8  -6   72.81   30.29
  -6   4  -8   28.14   24.29
  -4  -8   6  -24.46   50.32
  -8  -4  -6   28.66   10.96
  -6  -8  -4   39.10   19.03
   8  -4   6   52.46   39.33
   6  -8   4   57.44   41.22
   4  -6   8   21.49   54.38
   6   8  -4   16.93   31.72
   4   6  -8    1.87   32.21
   6   8   6  115.59   30.16
  -8   6  -6  123.24   37.00
  -6   8  -6  114.55   37.42
  -6   6  -8  114.08   38.97
  -6  -8   6   54.59   65.15
  -6  -8  -6  336.29   80.56
   8  -6   6  196.15   75.47
   6  -8   6   55.89   51.36
   6  -6   8  177.85   81.92
   6   8  -6   41.72   39.85
  -1  -7   8   25.45   58.74
  -7  -8   1   37.20   38.63
  -1   7  -8  165.65   52.75
  -7   8  -1  136.41   39.27
  -8   1  -7  120.03   34.41
   7  -8  -1   65.02   41.71
   7   8   1  161.79   46.22
   8   1   7   59.43   30.77
   1   8  -7   97.60   44.32
   7  -1   8   68.03   40.25
   1  -8   7   21.82   55.84
   8  -7   1   82.64   40.86
  -8   7   1  172.50   46.70
  -7  -1  -8  133.17   37.76
   7   1   8   55.27   36.90
   8  -7  -1   79.49   45.53
  -8   7  -1  173.24   46.47
  -1   8  -7  121.08   44.59
  -7   1  -8  147.86   42.30
  -1  -8   7  -12.38   56.70
  -8  -1  -7  220.92   54.94
  -7  -8  -1   34.18   29.67
  -7   8   1  152.58   42.70
   8  -1   7   64.46   39.15
   1  -7   8    7.88   62.71
   7   8  -1   95.78   38.13
   1   7  -8   71.66   38.18
  -3  -7   8   88.53   70.00
  -7  -8   3  179.96   75.91
  -3   7  -8  221.66   63.75
  -7   8  -3  290.24   73.03
  -8   3  -7  243.20   61.83
   7   8   3  173.12   48.17
   3   8  -7  158.43   55.58
   7  -3   8  406.98  111.37
   3  -8   7  183.33   74.74
  -7  -3  -8  268.33   67.79
  -8   7  -3  333.43   82.20
  -3   8  -7  252.52   69.66
  -7   3  -8  288.74   73.29
  -3  -8   7   42.34   56.11
  -8  -3  -7  291.98   70.85
   8  -3   7  442.95  116.02
   7  -8   3  267.71   77.38
   3  -7   8  188.68   77.55
   7   8  -3  113.41   43.25
   3   7  -8  175.23   57.60
  -5  -7   8   20.45   72.09
  -7  -8   5   35.69   62.39
  -5   7  -8  214.57   61.01
  -7   8  -5  230.50   60.41
  -8   5  -7  236.47   62.57
   7   8   5  218.92   54.34
   5   8  -7   85.07   42.07
   7  -5   8   90.52   66.85
   5  -8   7   80.03   58.27
  -7  -5  -8  103.77   30.55
  -8   7  -5  224.90   58.40
  -5   8  -7  162.41   48.49
  -7   5  -8  220.42   59.89
  -5  -8   7   57.08   61.78
  -8  -5  -7  138.15   34.90
  -7  -8  -5   69.42   22.95
   8  -5   7  294.72   94.25
   7  -8   5  136.29   57.46
   5  -7   8  135.29   74.99
   7   8  -5  101.52   47.28
   5   7  -8   61.12   42.00
  -8   7  -7  141.76   44.74
  -7   8  -7  389.80   98.48
  -7   7  -8  152.21   48.43
   8  -7   7   40.01   64.28
   7  -7   8   72.02   63.71
   7   8  -7   52.22   42.05
  -8   0  -8  577.98  139.02
  -8  -8   0  229.13   67.71
   8   0   8  603.62  150.72
   8  -8   0  424.28  111.45
   0  -8   8  157.68   79.37
   8   8   0  207.72   58.53
   0   8  -8  325.09   89.17
   8   2   8  463.11  116.22
   8  -8  -2  335.54   98.16
  -8   8  -2  479.91  116.84
  -2   8  -8  260.74   73.23
  -8   2  -8  389.06   96.34
  -8  -2  -8  347.12   84.96
  -8   8   2  404.86  100.25
   8  -2   8  646.32  164.65
   8  -8   2  515.26  131.18
   2   8  -8  171.75   58.37
   8   8   4  236.23   60.41
  -8   8  -4  358.19   89.04
  -4   8  -8  592.17  146.37
  -8   4  -8  554.34  135.54
  -4  -8   8  164.28   94.97
  -8  -4  -8  542.89  130.19
  -8  -8  -4  219.80   58.07
   4   8  -8  300.57   87.47
   8   8   6   72.71   21.72
  -8   8  -6  234.36   63.75
  -6   8  -8  138.15   47.07
  -8   6  -8  254.89   69.88
  -6  -8   8   29.85   79.09
  -8  -6  -8   79.49   24.19
  -8  -8  -6   58.97   19.17
   8  -8   6   20.39   57.00
   6  -8   8   26.91   71.78
   6   8  -8   65.20   43.87
  -8   8  -8  262.48   73.93
   8  -8   8   54.75   67.10
   0   9   1  799.15  190.30
   0  -9  -1  639.35  153.45
   0   9  -1  551.48  132.92
   0  -9   1  366.15   92.15
  -1  -9   0  560.43  136.29
  -1   9   0  679.17  162.17
   1  -9   0  863.99  206.60
   1   9   0  539.16  129.56
  -2   9  -1  529.32  127.32
   2  -9  -1  603.87  145.87
   2   9   1  368.77   89.86
   1   9  -2  417.68  102.79
   2  -1   9  184.69   59.53
   1  -9   2  480.66  119.18
  -1   9   2  538.54  129.07
  -1  -9  -2  434.24  105.22
   1   9   2  332.68   81.12
   1  -9  -2  550.73  132.92
  -1   9  -2  383.95   94.20
  -1  -9   2  482.40  120.13
  -2   9   1  419.18  101.38
   2  -9   1  572.51  139.15
   2   9  -1  446.44  108.90
   0   9   3   82.68   25.91
   3   0   9   19.37   40.15
   0  -9  -3   86.57   30.73
   0   9  -3   94.17   34.86
  -3   0  -9   47.16   23.95
   0  -9   3   57.13   39.06
  -9   0  -3   69.30   21.62
  -3  -9   0   74.55   35.02
  -3   9   0   85.88   26.26
   9   0   3    8.86   26.63
   3  -9   0   95.19   35.88
   0  -3   9   41.57   45.39
   3   9   0   60.61   25.08
   0   3  -9   39.18   26.72
  -3  -9   2   24.63   40.08
  -2   3  -9   78.55   32.00
  -3   9  -2   45.53   22.84
   3  -9  -2   47.32   30.06
   3   9   2   72.71   24.47
   2   9  -3  157.31   47.53
   3  -2   9   43.40   44.85
   2  -9   3   64.95   41.21
   9  -3   2   -4.10   29.38
  -2   9   3  156.81   42.14
  -2  -9  -3  103.81   31.59
   2   9   3   71.55   23.07
   2  -9  -3  222.04   60.35
  -9   3  -2   89.11   27.07
  -2   9  -3   59.88   27.02
  -3   2  -9    7.83   26.97
  -2  -9   3   60.49   41.84
  -3  -9  -2   60.06   25.43
  -3   9   2  164.78   44.92
   9  -2   3   26.26   28.80
   3  -9   2   76.39   34.35
   2  -3   9   15.02   46.49
   3   9  -2   47.94   29.76
  -1  -4   9   -0.95   47.62
  -4  -9   1   25.10   35.83
  -1   4  -9   51.77   29.87
  -4   9  -1  105.49   32.11
  -9   1  -4  103.90   28.60
   4  -9  -1  101.68   38.73
   4   9   1  175.98   47.84
   9   1   4   30.50   24.13
   1   9  -4  135.04   44.06
   4  -1   9   61.76   48.63
   1  -9   4   34.47   39.06
   9  -4   1   37.69   37.16
  -1   9   4  170.01   45.32
  -4  -1  -9  100.95   32.98
  -1  -9  -4  183.20   49.17
   1   9   4  108.01   30.47
   1  -9  -4  193.03   53.70
  -9   4  -1   91.90   27.79
  -1   9  -4  100.87   36.17
  -4   1  -9   45.95   26.11
  -1  -9   4   88.55   49.51
  -9  -1  -4   93.31   26.09
  -4  -9  -1  103.54   37.59
  -4   9   1   98.93   30.99
   9  -1   4   62.09   34.03
   4  -9   1  171.75   53.77
   1  -4   9   59.67   53.68
   4   9  -1  117.30   40.86
   1   4  -9   43.54   28.90
  -4  -9   3   59.47   47.57
  -3   4  -9  189.80   55.06
  -4   9  -3  190.42   50.84
  -9   3  -4  256.63   64.16
   4  -9  -3  117.08   43.26
   4   9   3  243.82   60.30
   3   9  -4  323.10   85.43
   4  -3   9  144.50   67.63
   3  -9   4  176.23   59.55
  -3   9   4  216.81   57.09
  -3  -9  -4  299.94   73.65
   3   9   4  229.50   56.70
   3  -9  -4  190.79   55.72
  -9   4  -3  270.07   67.59
  -3   9  -4  233.49   61.32
  -4   3  -9  152.46   47.03
  -3  -9   4  135.91   59.59
  -4   9   3  198.88   52.38
   9  -3   4   48.58   34.11
   4  -9   3  272.56   75.72
   3  -4   9  221.29   78.94
   4   9  -3  196.52   60.09
   0   9   5  101.84   32.22
   5   0   9   19.19   44.31
   9  -5   0   18.11   35.06
   0  -9  -5   25.00   23.09
  -9   5   0   26.95   19.07
   0   9  -5   22.75   30.39
  -5   0  -9   72.29   29.10
   0  -9   5  -19.70   44.12
  -9   0  -5   10.58   11.82
  -5  -9   0   17.42   31.84
  -5   9   0   -2.33   17.72
   9   0   5   16.18   27.01
   5  -9   0   -1.46   31.70
   0  -5   9  -18.92   52.94
   5   9   0   32.01   29.21
   0   5  -9   -5.28   25.95
  -2  -5   9   -0.69   55.27
  -5  -9   2   35.22   42.58
  -2   5  -9   82.74   37.52
  -5   9  -2  195.03   51.38
  -9   2  -5  144.13   38.26
   5  -9  -2  109.97   43.44
   5   9   2  282.64   70.95
   2   9  -5  109.41   43.80
   5  -2   9  103.56   59.47
   2  -9   5  153.70   58.61
   9  -5   2   95.48   45.27
  -5  -2  -9  110.62   35.46
   2   9   5  207.85   52.62
   5   2   9   49.19   39.95
  -9   5  -2  169.26   45.13
  -2   9  -5  112.42   39.43
  -5   2  -9   92.95   35.01
  -2  -9   5   44.79   53.75
  -9  -2  -5  260.86   63.36
  -5  -9  -2   62.79   29.67
  -5   9   2  145.25   41.76
   5  -9   2   43.06   36.80
   2  -5   9   48.59   61.32
   5   9  -2  117.25   45.46
   2   5  -9   60.49   30.34
  -5  -9   4   43.93   48.76
  -4   5  -9   60.15   34.01
  -5   9  -4  184.69   50.08
  -9   4  -5   66.86   24.39
   5  -9  -4   12.94   32.70
   5   9   4   68.93   22.68
   4   9  -5   36.54   35.86
   5  -4   9   40.41   61.08
   4  -9   5   90.79   51.70
   9  -5   4   87.46   48.89
  -4  -9  -5   80.36   25.96
   4   9   5   62.01   20.42
  -9   5  -4   62.60   24.02
  -4   9  -5   69.10   27.57
  -5   4  -9   69.77   33.29
  -4  -9   5   21.69   52.85
  -5  -9  -4  188.30   48.79
   9  -4   5    7.24   35.71
   5  -9   4  225.65   70.05
   4  -5   9   46.02   69.20
   5   9  -4   93.83   42.02
  -1  -6   9  -17.54   59.72
  -6  -9   1   98.53   58.53
  -1   6  -9  188.30   55.09
  -6   9  -1  188.68   50.36
  -9   1  -6  185.82   47.93
   6  -9  -1  192.79   59.22
   6   9   1   96.47   36.45
   9   1   6   36.43   25.90
   1   9  -6  144.38   52.16
   6  -1   9  104.01   57.36
   1  -9   6   18.81   51.03
   9  -6   1   86.00   45.76
  -9   6   1  206.85   53.68
  -6  -1  -9   62.22   28.50
   6   1   9   34.75   43.41
   9  -6  -1   42.98   41.16
  -1   9  -6  153.45   50.12
  -6   1  -9  110.13   39.08
  -1  -9   6  272.31   94.56
  -6  -9  -1   50.77   36.38
   9  -1   6   71.30   37.98
   6  -9   1   36.04   37.51
   1  -6   9   81.55   68.19
   6   9  -1   66.56   34.19
   1   6  -9  102.37   41.93
  -3  -6   9    0.60   55.84
  -6  -9   3   35.58   56.42
  -3   6  -9   35.07   31.15
  -6   9  -3   62.89   26.39
  -9   3  -6   79.59   26.14
   6  -9  -3   42.40   39.17
   6   9   3  102.62   33.40
   3   9  -6   69.19   43.44
   6  -3   9  117.86   59.60
   3  -9   6   60.77   54.55
   9  -6   3   -5.60   39.43
  -6  -3  -9   27.83   21.13
  -3  -9  -6   21.20   19.60
   3   9   6   72.90   25.24
   6   3   9   40.06   35.51
  -9   6  -3   76.08   27.12
  -3   9  -6   85.91   34.81
  -6   3  -9   37.81   31.24
  -3  -9   6   26.83   65.70
  -9  -3  -6   66.56   19.75
  -6  -9  -3   42.19   28.24
  -6   9   3   85.18   29.76
   9  -3   6  127.57   56.28
   6  -9   3   44.71   41.43
   3  -6   9   72.53   65.33
   6   9  -3   52.53   36.79
   3   6  -9   12.73   33.96
  -6  -9   5  -16.22   62.55
  -5   6  -9    2.20   30.28
  -6   9  -5   31.79   25.58
  -9   5  -6   51.69   23.96
   6   9   5   23.68   15.71
   5   9  -6   16.38   38.58
   6  -5   9    7.61   71.34
   5  -9   6   18.59   48.54
   9  -6   5  117.35   60.67
  -5  -9  -6   43.37   19.47
   5   9   6   13.28   14.92
  -9   6  -5  183.08   48.87
  -5   9  -6   21.69   26.67
  -6   5  -9   32.65   29.16
  -5  -9   6    6.10   57.49
  -9  -5  -6   70.95   19.93
  -6  -9  -5   30.39   17.85
   9  -5   6   71.87   56.35
   6  -9   5   -2.81   42.70
   5  -6   9   16.25   77.39
   6   9  -5    2.82   38.07
   7   0   9  249.30   78.27
   9  -7   0  122.62   52.89
  -9   7   0  215.07   56.67
   0   9  -7  163.04   55.96
  -7   0  -9  318.49   80.84
   0  -9   7   73.46   64.43
  -9   0  -7  224.40   56.35
  -7  -9   0  189.55   66.27
  -7   9   0  228.76   60.36
   9   0   7  292.23   79.16
   7  -9   0  184.20   60.49
   0  -7   9  140.89   77.70
   7   9   0  118.52   43.04
   0   7  -9  112.25   46.31
  -7  -9   2  162.41   75.51
  -2   7  -9  224.15   66.83
  -7   9  -2  285.63   72.66
  -9   2  -7  279.66   69.75
   7  -9  -2  179.34   67.53
   7   9   2  192.41   54.15
   9   2   7  496.46  121.95
   2   9  -7  148.48   56.44
   7  -2   9  488.75  135.91
   2  -9   7  240.46   88.95
   9  -7   2  236.23   72.12
  -7  -2  -9  197.89   53.92
   7   2   9  188.18   63.01
  -9   7  -2  344.01   85.68
  -2   9  -7  247.05   69.82
  -7   2  -9  249.79   65.84
  -2  -9   7   34.47   68.88
  -9  -2  -7  360.80   87.37
  -7   9   2  320.36   81.35
   9  -2   7   93.46   48.35
   7  -9   2  424.53  111.06
   7   9  -2  157.19   54.65
   2   7  -9  201.50   63.93
  -4  -7   9   26.97   64.49
  -7  -9   4    1.82   62.43
  -4   7  -9   63.72   37.06
  -7   9  -4   62.06   27.94
  -9   4  -7   66.60   28.97
   7   9   4   77.29   28.19
   4   9  -7   36.98   42.79
   7  -4   9  109.86   74.02
   4  -9   7   78.31   77.48
   9  -7   4  188.80   72.96
  -7  -4  -9   40.31   24.03
  -9   7  -4  182.08   49.83
  -4   9  -7   63.57   34.55
  -7   4  -9   51.97   33.40
  -4  -9   7   -2.61   76.83
  -9  -4  -7  108.89   28.81
  -7  -9  -4   19.66   24.07
   9  -4   7   51.90   55.27
   7  -9   4   38.43   56.64
   4  -7   9   66.76   64.94
   7   9  -4   40.39   37.39
   4   7  -9   34.03   39.88
  -7  -9   6    0.11   69.58
  -6   7  -9   44.66   33.23
  -7   9  -6   59.78   28.96
  -9   6  -7   51.29   31.23
   7   9   6   18.37   14.90
   6   9  -7   13.75   40.60
   7  -6   9   82.13   74.85
   6  -9   7   79.13   79.04
   9  -7   6   46.15   62.53
  -6  -9  -7   25.73   18.23
   6   9   7   44.18   19.04
  -9   7  -6   69.86   33.34
  -6   9  -7   38.93   32.14
  -7   6  -9   27.94   33.35
  -6  -9   7   30.54   71.55
  -9  -6  -7   48.92   14.57
  -7  -9  -6   37.39   17.61
   9  -6   7   78.76   64.52
   7  -9   6   79.73   73.02
   6  -7   9   81.10   77.72
   7   9  -6   31.29   42.56
  -1  -8   9    3.07   86.45
  -8  -9   1   15.38   54.49
  -1   8  -9   56.59   37.98
  -8   9  -1   74.92   32.37
  -9   1  -8   62.65   24.85
   8  -9  -1   60.85   56.34
   8   9   1   37.04   31.36
   9   1   8  176.36   57.70
   1   9  -8   42.42   44.94
   8  -1   9   78.28   61.78
   1  -9   8   42.95   85.14
   9  -8   1   91.83   62.45
  -9   8   1   86.54   33.50
  -8  -1  -9   69.32   28.17
   8   1   9   46.16   43.34
   9  -8  -1  -11.70   45.84
  -9   8  -1  109.08   35.02
  -1   9  -8   55.48   41.61
  -8   1  -9   88.93   32.14
  -1  -9   8   64.91   93.37
  -9  -1  -8   87.88   27.87
  -8  -9  -1   52.51   44.79
  -8   9   1   85.32   33.60
   9  -1   8   17.30   43.17
   8  -9   1   34.31   56.83
   1  -8   9   20.08   93.49
   8   9  -1   29.91   35.05
   1   8  -9   28.99   38.57
  -3  -8   9   18.02   84.42
  -8  -9   3   45.99   60.00
  -3   8  -9   16.35   35.37
  -8   9  -3   56.54   28.43
  -9   3  -8   80.90   32.25
   8  -9  -3   29.33   60.16
   8   9   3   39.17   27.67
   9   3   8  102.28   41.15
   3   9  -8   27.14   43.16
   8  -3   9   98.27   69.60
   3  -9   8   57.21   80.79
   9  -8   3   22.50   56.96
  -8  -3  -9   34.46   24.33
   8   3   9  166.65   57.71
  -9   8  -3   89.16   32.71
  -3   9  -8   45.89   38.05
  -8   3  -9   71.09   31.18
  -3  -9   8   26.12   73.95
  -9  -3  -8   53.45   22.05
  -8  -9  -3   32.55   32.47
  -8   9   3   85.13   32.16
   9  -3   8   21.63   54.79
   8  -9   3  -10.50   45.54
   3  -8   9   27.87   87.52
   8   9  -3   11.74   34.72
   3   8  -9   13.58   35.79
  -5  -8   9   35.00   80.31
  -8  -9   5   25.87   64.98
  -5   8  -9   89.70   38.83
  -8   9  -5  107.87   38.81
  -9   5  -8  112.61   39.08
   8   9   5   85.52   30.50
   5   9  -8   46.37   44.20
   8  -5   9   22.81   69.86
   5  -9   8   56.32   82.01
   9  -8   5  136.91   73.23
  -8  -5  -9   38.46   22.89
   9   8   5    1.49   17.92
  -9   8  -5  122.33   40.09
  -5   9  -8  105.65   43.30
  -8   5  -9  127.57   43.76
  -5  -9   8   37.49   82.99
  -9  -5  -8   85.04   25.15
  -8  -9  -5   67.24   29.32
   9  -5   8   26.36   60.03
   8  -9   5   71.60   68.64
   5  -8   9   71.66   81.87
   8   9  -5   76.38   47.94
   5   8  -9   53.87   43.87
  -7   8  -9   80.54   42.39
  -8   9  -7   19.28   32.56
  -9   7  -8   62.07   33.90
   8   9   7   13.98   15.20
   7   9  -8   11.60   43.00
   8  -7   9   -4.69   73.57
   7  -9   8   20.16   69.70
   9  -8   7   63.20   72.35
  -9   8  -7   21.43   30.39
  -7   9  -8   32.66   35.36
  -8   7  -9   45.56   36.04
  -7  -9   8   30.36   83.54
  -9  -7  -8    9.85   12.32
  -8  -9  -7   22.37   13.73
   9  -7   8  113.81   81.12
   8  -9   7   -1.11   65.34
   7  -8   9    1.33   76.64
   8   9  -7   22.94   42.20
  -9   0  -9  130.31   40.72
  -9  -9   0   57.52   46.45
  -9   9   0  104.88   37.55
   9   0   9   85.66   51.54
   9  -9   0   74.28   65.60
   0  -9   9   41.64   93.33
   9   9   0   67.44   37.10
   0   9  -9   70.57   45.79
   9   9   2   55.62   33.16
   9   2   9   64.27   41.68
   9  -9  -2   51.74   68.45
  -9   9  -2  212.45   59.25
  -2   9  -9  123.08   51.74
  -9   2  -9  170.75   51.09
  -2  -9   9   59.01   92.71
  -9  -2  -9  144.50   41.99
  -9  -9  -2  127.07   50.48
  -9   9   2  129.07   41.00
   9  -2   9  272.81   94.19
   9  -9   2   12.87   50.12
   2  -9   9   33.96   71.40
   2   9  -9   94.65   52.65
   9   9   4    3.02   25.18
  -9   9  -4   22.74   27.67
  -4   9  -9   10.03   35.93
  -9   4  -9   20.05   31.02
  -4  -9   9  -32.57   79.57
  -9  -4  -9    3.00   21.15
  -9  -9  -4   15.99   29.86
   9  -4   9   45.65   71.12
   9  -9   4  -12.03   61.56
   4  -9   9  -31.66   87.88
   4   9  -9   27.13   43.85
   9   9   6   43.09   24.77
  -9   9  -6  129.81   46.25
  -6   9  -9  140.27   52.45
  -9   6  -9  140.02   48.41
  -6  -9   9   -9.35   85.04
  -9  -6  -9   24.87   19.43
  -9  -9  -6    6.36   20.50
   9  -6   9  203.12   98.97
   9  -9   6   18.76   63.98
   6  -9   9   25.79   76.74
   6   9  -9   57.25   48.22
  -9   9  -8   41.94   39.13
  -8   9  -9   -1.70   39.30
  -9   8  -9  141.39   53.89
  -9  -9  -8    3.44   10.50
   9  -8   9   12.47   89.78
   9  -9   8   38.08   86.88
   8  -9   9    1.15   86.75
   0 -10   0 3033.06  717.38
   0  10   0 2308.70  546.00
   1  10   1   46.00   24.12
   1 -10  -1  154.57   45.86
  -1  10  -1   58.21   25.71
  -1   1 -10   15.99   24.52
  -1 -10   1   62.54   34.54
  -1 -10  -1   52.92   28.95
  -1  10   1   60.36   22.98
   1 -10   1   69.83   35.88
   1  -1  10  -12.55   43.80
   1  10  -1   52.75   25.83
   0  10   2    8.13   17.51
   2   0  10   -2.24   41.11
   0 -10  -2    1.95   25.39
   0  10  -2   41.67   26.05
  -2   0 -10   28.41   24.24
   0 -10   2   16.83   33.26
  -2 -10   0   18.05   28.18
  -2  10   0   22.69   20.37
   2 -10   0   -1.01   26.67
   0  -2  10   -4.69   49.15
   2  10   0   22.30   24.46
   0   2 -10    6.36   25.22
   2  10   2  556.95  134.17
   2 -10  -2  249.42   67.18
 -10   2  -2  507.92  122.36
  -2  10  -2  570.27  138.28
  -2   2 -10  388.68   98.36
  -2 -10   2  511.53  129.94
  -2 -10  -2  545.26  132.30
  -2  10   2  690.25  165.28
   2 -10   2  705.31  173.24
   2  10  -2  541.02  133.42
  -1  -3  10   -3.90   51.99
  -3 -10   1   27.37   37.59
  -1   3 -10   68.40   33.11
  -3  10  -1  127.82   37.62
 -10   1  -3  128.19   34.96
   3 -10  -1   33.19   31.09
   3  10   1  120.76   37.62
   1  10  -3  170.01   50.89
   3  -1  10   59.64   54.64
   1 -10   3  124.15   48.09
  10  -3   1   23.45   29.21
  -3  -1 -10   58.05   26.35
  -1 -10  -3  194.28   53.45
   3   1  10    9.50   45.02
   1 -10  -3   22.88   25.95
  -1  10  -3   93.51   34.75
  -3   1 -10   78.77   32.19
  -1 -10   3   89.05   51.16
  -3 -10  -1  132.68   42.07
  10  -1   3   43.35   36.19
   3 -10   1   29.19   32.52
   1  -3  10   26.66   54.95
   3  10  -1  151.59   46.36
   1   3 -10   45.73   29.60
   3  10   3  568.52  136.53
   3 -10  -3  420.30  107.35
 -10   3  -3  339.03   83.79
  -3  10  -3  525.84  127.82
  -3   3 -10  324.09   85.98
  -3 -10   3  497.34  133.55
  -3 -10  -3  756.46  181.21
  -3  10   3  478.91  116.69
   3 -10   3  778.61  191.42
   3  -3  10  184.57   75.53
   3  10  -3  603.62  148.98
   0  10   4  120.35   36.29
   4   0  10   30.98   49.70
   0 -10  -4   85.45   32.89
   0  10  -4   79.52   37.45
  -4   0 -10   56.83   28.25
   0 -10   4  109.90   55.42
 -10   0  -4   71.30   23.86
  -4 -10   0   42.88   40.66
  -4  10   0  111.91   35.11
  10   0   4   27.08   31.77
   4 -10   0  103.62   39.66
   0  -4  10   34.28   54.62
   4  10   0  195.27   54.95
   0   4 -10   51.13   32.35
  -2  -4  10   22.51   57.50
  -4 -10   2   18.47   45.37
  -2   4 -10  165.40   51.64
   4 -10  -2   13.29   32.00
   4  10   2  182.58   49.52
   4  -2  10   32.32   55.16
   2 -10   4  253.64   75.11
  10  -4   2   -0.35   39.98
  -4  -2 -10   56.37   27.46
   4   2  10   62.54   44.38
  -4   2 -10  140.64   46.11
  -2 -10   4  191.17   72.02
  -4 -10  -2   61.83   32.23
  10  -2   4   21.11   33.70
   4 -10   2  103.65   45.18
   2  -4  10  110.18   70.12
   2   4 -10   52.98   33.23
   4 -10  -4  314.13   86.35
  -4  10  -4  244.81   65.25
  -4   4 -10  168.76   54.02
  -4 -10   4   54.60   68.28
  10  -4   4   81.81   53.52
   4  -4  10   15.43   78.70
   4  10  -4   95.87   47.16
  -1  -5  10   17.90   59.62
  -5 -10   1   58.67   55.01
  -1   5 -10   72.61   36.70
  -5  10  -1  110.31   34.87
 -10   1  -5  132.05   36.95
   5 -10  -1    7.86   32.36
   5  10   1  106.71   36.04
  10   1   5   66.37   35.86
   1  10  -5  125.33   47.98
   5  -1  10   38.81   58.36
   1 -10   5   37.72   50.29
  10  -5   1   30.04   44.41
  -1  10   5  146.87   43.09
  -5  -1 -10   68.63   32.00
  -1 -10  -5   77.21   34.67
   1  10   5  115.98   35.36
   5   1  10   15.20   46.04
   1 -10  -5  171.63   54.61
 -10   5  -1  118.97   35.56
  -1  10  -5  120.45   44.26
  -5   1 -10   47.62   34.46
  -1 -10   5   48.58   55.11
 -10  -1  -5  172.62   44.52
  -5 -10  -1   93.37   48.29
  -5  10   1  148.23   43.72
  10  -1   5   25.70   35.51
   5 -10   1   15.01   36.02
   1  -5  10   82.09   67.18
   5  10  -1  102.19   44.44
   1   5 -10   38.32   33.87
  -3  -5  10   18.47   62.07
  -5 -10   3   21.21   73.34
  -3   5 -10  115.54   45.93
  -5  10  -3   91.22   32.68
 -10   3  -5   58.71   24.63
   5 -10  -3   40.18   37.70
   5  10   3   96.24   32.38
  10   3   5   44.16   27.69
   3  10  -5  146.37   55.78
   5  -3  10   87.22   76.83
   3 -10   5   82.79   58.12
  10  -5   3   60.59   54.97
  -3  10   5   78.45   30.32
  -5  -3 -10   49.73   25.02
  -3 -10  -5   29.05   22.69
   3  10   5   67.23   24.26
   5   3  10   -2.62   37.85
   3 -10  -5   67.05   41.38
 -10   5  -3   60.36   25.00
  -3  10  -5   81.12   35.25
  -5   3 -10   59.06   39.18
  -3 -10   5   54.02   63.16
 -10  -3  -5   40.74   17.52
  -5 -10  -3   65.40   31.74
  -5  10   3   75.65   31.26
  10  -3   5   13.04   44.15
   5 -10   3   12.03   39.85
   3  -5  10   78.40   71.99
   5  10  -3   14.39   37.01
   3   5 -10   25.12   34.25
   5  10   5   43.21   20.09
 -10   5  -5   50.14   26.42
  -5  10  -5   52.19   32.35
  -5   5 -10   25.25   33.49
  -5 -10   5   24.80   67.41
  -5 -10  -5   15.69   20.81
  10  -5   5   18.88   51.84
   5 -10   5   61.89   66.54
   5  -5  10   53.79   81.83
   5  10  -5   46.70   41.30
   6   0  10   58.93   63.96
  10  -6   0    6.27   43.20
   0 -10  -6   40.93   34.62
 -10   6   0   44.56   22.63
   0  10  -6   29.81   38.28
  -6   0 -10   37.44   32.71
   0 -10   6   31.95   66.42
 -10   0  -6   93.33   28.10
  -6 -10   0   27.90   55.65
  -6  10   0   62.80   28.24
  10   0   6    3.18   32.77
   6 -10   0  103.04   54.24
   0  -6  10    5.94   65.95
   6  10   0   64.12   38.82
   0   6 -10   27.92   39.12
  -6 -10   2  332.68  109.65
  -2   6 -10  408.97  107.43
  -6  10  -2  768.28  184.20
 -10   2  -6  734.43  175.48
   6 -10  -2  908.80  223.65
   6  10   2  706.43  170.75
   2  10  -6  410.46  109.76
   6  -2  10  690.87  183.08
   2 -10   6  974.38  246.81
  10  -6   2  542.52  144.75
   2  10   6  990.07  235.73
 -10   6  -2  740.78  177.60
  -2  10  -6  670.21  164.53
  -6   2 -10  564.91  140.02
 -10  -2  -6  871.08  206.85
  -6  10   2  815.83  196.40
   6 -10   2 1171.28  284.88
   6  10  -2  472.44  120.84
  -4  -6  10  -34.77   81.87
  -6 -10   4   28.59   64.83
  -4   6 -10   52.76   35.21
  -6  10  -4   87.98   34.69
 -10   4  -6   82.68   31.38
   6 -10  -4   27.22   47.88
   6  10   4   59.06   25.15
   4  10  -6   30.01   44.29
   6  -4  10   -4.14   66.57
   4 -10   6    5.09   54.49
  10  -6   4   42.09   58.31
  -6  -4 -10   24.31   24.23
  -4 -10  -6   19.68   21.44
   4  10   6   77.58   27.01
   6   4  10   18.63   35.38
 -10   6  -4   54.18   25.86
  -4  10  -6   50.41   33.24
  -6   4 -10  168.02   52.57
  -4 -10   6   30.29   74.69
 -10  -4  -6   57.20   19.03
  -6 -10  -4   26.98   26.37
  -6  10   4   89.86   36.11
  10  -4   6   82.18   56.95
   6 -10   4   -1.51   45.93
   4  -6  10   51.07   84.00
   6  10  -4   31.26   43.65
   4   6 -10   -3.10   36.93
   6  10   6   84.96   28.29
 -10   6  -6   84.01   32.57
  -6  10  -6  125.71   43.82
  -6   6 -10   62.45   37.20
  -6 -10   6    3.26   72.05
  -6 -10  -6  134.17   38.72
  10  -6   6  162.04   78.11
   6 -10   6  176.36   83.35
   6  -6  10    4.96   78.41
   6  10  -6   52.82   44.57
  -1  -7  10   53.49   86.60
  -7 -10   1   12.26   53.12
  -1   7 -10   72.22   44.89
  -7  10  -1  137.41   42.45
 -10   1  -7  141.14   39.19
   7 -10  -1  112.84   61.48
   7  10   1   98.57   42.32
  10   1   7   66.76   37.25
   1  10  -7  123.10   53.09
   7  -1  10   63.05   61.57
   1 -10   7   49.92   76.92
  10  -7   1   56.63   58.05
 -10   7   1  128.44   40.90
  -7  -1 -10   96.87   37.50
   7   1  10    2.57   49.66
  10  -7  -1   17.54   57.09
 -10   7  -1  127.45   39.66
  -1  10  -7  174.99   58.42
  -7   1 -10  187.56   56.31
  -1 -10   7    1.22   82.55
 -10  -1  -7  139.77   37.65
  -7 -10  -1   32.02   50.56
  -7  10   1  162.66   48.12
  10  -1   7   27.59   41.89
   7 -10   1    1.47   53.62
   1  -7  10   25.46   88.27
   7  10  -1   42.54   39.98
   1   7 -10   62.19   42.32
  -3  -7  10  -27.56   66.16
  -7 -10   3  -27.64   72.04
  -3   7 -10   11.01   37.64
  -7  10  -3  134.17   41.37
 -10   3  -7   31.59   21.84
   7 -10  -3   13.48   55.26
   7  10   3   13.37   27.52
  10   3   7   59.70   33.08
   3  10  -7   -5.46   41.46
   7  -3  10   29.89   74.38
   3 -10   7    5.10   78.94
  10  -7   3    4.63   58.53
  -7  -3 -10    4.62   26.25
   7   3  10    2.27   39.14
 -10   7  -3   25.08   24.42
  -3  10  -7   19.32   33.96
  -7   3 -10   -6.98   28.04
  -3 -10   7   12.69   84.30
 -10  -3  -7  117.37   31.97
  -7 -10  -3    3.06   31.44
  -7  10   3   46.17   30.01
  10  -3   7   43.04   51.60
   7 -10   3  182.45   77.05
   3  -7  10  -13.18   75.66
   7  10  -3   12.72   36.60
   3   7 -10   23.70   40.20
  -5  -7  10  -10.63   86.78
  -7 -10   5    5.36   68.34
  -5   7 -10   40.25   38.43
  -7  10  -5   61.76   31.34
 -10   5  -7   98.61   34.95
   7  10   5   61.06   25.97
   5  10  -7   28.76   46.44
   7  -5  10   19.33   75.28
   5 -10   7    3.33   64.26
  10  -7   5    6.05   55.14
  -7  -5 -10   23.58   22.17
  -5 -10  -7  117.57   38.81
   5  10   7   46.88   22.85
 -10   7  -5   45.30   28.76
  -5  10  -7   38.35   34.21
  -7   5 -10   24.43   31.49
  -5 -10   7  -21.18   82.24
 -10  -5  -7   68.30   21.03
  -7 -10  -5   35.17   25.75
  10  -5   7  128.57   72.77
   7 -10   5   85.13   68.71
   5  -7  10  -38.06   74.38
   7  10  -5   11.68   40.44
   5   7 -10  -11.89   39.09
   7  10   7    1.65   19.80
 -10   7  -7   31.86   30.79
  -7  10  -7   54.75   36.89
  -7   7 -10   15.28   35.60
  -7 -10   7   12.63   75.53
  -7 -10  -7    6.13   19.34
  10  -7   7   -2.14   73.54
   7 -10   7   39.52   76.09
   7  -7  10   12.87   84.53
   7  10  -7   -1.30   43.49
   8   0  10  122.98   61.88
  10  -8   0    3.65   51.76
 -10   8   0  111.94   39.50
   0  10  -8   99.31   49.00
  -8   0 -10   87.59   36.81
   0 -10   8  -16.09   84.78
 -10   0  -8   73.44   28.30
  -8 -10   0   14.52   45.44
  -8  10   0  113.73   39.79
  10   0   8  171.63   60.69
   8 -10   0   38.36   64.62
   0  -8  10   15.20   90.22
   8  10   0   46.76   36.60
   0   8 -10   27.28   41.83
  -2  -8  10   23.50   92.45
  -8 -10   2   44.03   56.95
  -2   8 -10   53.82   41.57
  -8  10  -2  196.64   54.87
 -10   2  -8  116.03   37.01
   8 -10  -2   25.83   61.03
   8  10   2   51.12   32.84
  10   2   8   96.13   43.40
   2  10  -8   63.03   48.49
   8  -2  10   76.83   64.81
   2 -10   8  117.19   95.35
  10  -8   2   22.12   65.84
  -8  -2 -10  134.54   42.05
   8   2  10   38.83   45.30
  10  -8  -2  -10.49   51.80
 -10   8  -2  184.57   53.09
  -2  10  -8  111.19   44.26
  -8   2 -10  131.68   45.84
  -2 -10   8    5.78   77.26
 -10  -2  -8  107.64   31.81
  -8 -10  -2   49.80   44.17
  -8  10   2  210.71   60.09
  10  -2   8   34.11   51.48
   8 -10   2  236.35   88.89
   2  -8  10   62.08   96.79
   8  10  -2   54.18   41.72
   2   8 -10   71.73   46.25
  -4  -8  10   20.92   89.34
  -8 -10   4    8.53   65.32
  -4   8 -10    7.74   36.01
  -8  10  -4   11.49   25.22
 -10   4  -8   87.22   33.69
   8  10   4   23.55   26.93
   4  10  -8   22.15   44.13
   8  -4  10   40.74   71.29
   4 -10   8  -12.00   74.54
  10  -8   4   20.65   64.35
  -8  -4 -10   -6.41   27.59
   8   4  10   78.91   48.12
 -10   8  -4   28.61   30.45
  -4  10  -8   29.37   37.60
  -8   4 -10   43.75   32.11
  -4 -10   8  -18.96   80.74
 -10  -4  -8   47.18   20.46
  -8 -10  -4    0.09   30.13
  10  -4   8   17.55   59.83
   8 -10   4   75.77   68.71
   4  -8  10   18.25   86.69
   8  10  -4    6.42   43.12
   4   8 -10   13.74   41.23
  -6  -8  10    6.09   87.93
  -8 -10   6   23.57   76.44
  -6   8 -10   36.68   40.98
  -8  10  -6   41.87   33.42
 -10   6  -8   68.71   35.60
   8  10   6   31.90   23.39
   6  10  -8    4.18   45.07
   8  -6  10   28.30   81.33
   6 -10   8   29.07   75.07
  10  -8   6   87.78   76.03
  -8  -6 -10   13.65   22.13
 -10   8  -6   39.91   30.53
  -6  10  -8   43.88   38.01
  -8   6 -10   78.87   40.23
  -6 -10   8  -10.62   84.91
 -10  -6  -8   40.87   16.29
  -8 -10  -6    8.19   21.27
  10  -6   8  -19.19   71.60
   8 -10   6    6.61   74.75
   6  -8  10   24.23   85.23
   8  10  -6   27.44   44.36
   6   8 -10    2.41   44.47
   8  10   8    8.06   21.94
 -10   8  -8   53.28   40.09
  -8  10  -8   32.75   40.37
  -8   8 -10   53.36   44.05
  -8 -10   8   -9.95   85.95
  -8 -10  -8   22.29   19.17
  10  -8   8   10.13   86.65
   8 -10   8   61.57   87.76
   8  -8  10  -12.84   90.08
   8  10  -8  -12.08   49.68
  -1  -9  10   30.64   88.19
  -9 -10   1    2.24   55.04
  -1   9 -10   36.72   40.21
  -9  10  -1   42.33   32.04
 -10   1  -9   51.41   30.70
   9 -10  -1    6.70   59.44
   9  10   1   24.58   32.89
  10   1   9   35.11   45.09
   1  10  -9   31.77   46.36
   9  -1  10   67.42   66.04
   1 -10   9   27.07   96.47
  10  -9   1   -0.25   67.95
 -10   9   1   55.99   35.25
  -9  -1 -10   47.44   28.99
   9   1  10   24.14   48.49
  10  -9  -1    8.63   67.16
 -10   9  -1   48.65   31.34
  -1  10  -9   17.01   41.37
  -9   1 -10   33.62   32.53
  -1 -10   9   55.20   93.97
 -10  -1  -9   50.67   25.48
  -9 -10  -1   13.96   50.36
  -9  10   1   98.01   40.27
  10  -1   9   44.20   57.89
   9 -10   1   -6.90   52.16
   1  -9  10   11.83   96.78
   9  10  -1   46.78   40.39
   1   9 -10   21.74   44.38
  -3  -9  10   15.87   93.21
  -9 -10   3  -20.14   62.71
  -3   9 -10   45.86   43.31
  -9  10  -3   37.19   30.77
 -10   3  -9   35.61   28.14
   9 -10  -3  -22.45   69.15
   9  10   3   34.86   32.97
  10   3   9   36.44   38.83
   3  10  -9   34.84   46.77
   9  -3  10   25.73   72.30
   3 -10   9   42.22   72.92
  10  -9   3   -8.96   70.97
  -9  -3 -10   41.98   27.84
   9   3  10    8.78   39.53
 -10   9  -3   33.09   29.78
  -3  10  -9   27.37   40.96
  -9   3 -10   42.90   35.30
  -3 -10   9   13.29   90.74
 -10  -3  -9   14.35   21.11
  -9 -10  -3   14.62   36.68
  -9  10   3   34.03   33.50
  10  -3   9   67.97   75.60
   9 -10   3   74.44   71.54
   3  -9  10   26.26   90.13
   9  10  -3   16.67   38.41
   3   9 -10   29.48   48.59
  -5  -9  10   42.18   89.92
  -9 -10   5  -29.73   69.31
  -5   9 -10   27.04   41.42
  -9  10  -5   46.83   37.13
 -10   5  -9   65.71   38.87
   9  10   5   21.81   29.02
   5  10  -9   57.05   54.15
   9  -5  10   84.98   80.92
   5 -10   9   58.62   91.54
  10  -9   5   14.80   71.43
  -9  -5 -10   47.10   29.22
  10   9   5   -3.61   23.63
 -10   9  -5   56.73   35.35
  -5  10  -9   49.17   41.27
  -9   5 -10  163.16   53.68
  -5 -10   9   15.05   86.57
 -10  -5  -9   27.74   19.69
  -9 -10  -5   -0.30   29.91
  10  -5   9   67.76   76.02
   9 -10   5   53.27   76.98
   5  -9  10   19.63   75.04
   9  10  -5   37.76   50.52
   5   9 -10  -11.83   40.31
  -7  -9  10    4.96  105.73
  -7   9 -10   54.19   45.86
  -9  10  -7   17.39   38.25
 -10   7  -9   48.20   40.86
   9  10   7    6.11   20.87
   7  10  -9   50.67   59.64
   9  -7  10    0.89   93.61
   7 -10   9   40.55   89.90
  10  -9   7   32.93   85.05
  -9  -7 -10    5.40   20.87
 -10  -9  -7    1.92   15.35
  10   9   7    0.32   18.78
 -10   9  -7   43.34   37.81
  -7  10  -9   20.72   42.83
  -9   7 -10   22.09   40.87
  -7 -10   9   31.34   98.45
 -10  -7  -9    8.28   16.30
  -9 -10  -7   -0.95   19.76
  10  -7   9    0.37   88.81
   9 -10   7   29.98   84.69
   7  -9  10    8.08   78.25
   9  10  -7   38.23   50.68
   7   9 -10   14.42   51.35
 -10   9  -9   47.56   49.85
  -9  10  -9   86.27   52.91
  -9   9 -10    5.75   50.33
  10  -9   9   45.53  106.67
   9 -10   9  118.46  117.94
   9  -9  10   28.70  105.28
 -10   0 -10   45.56   31.76
 -10 -10   0   36.62   53.85
 -10  10   0   33.44   32.97
  10   0  10   38.23   54.41
  10 -10   0    6.17   69.24
   0 -10  10    5.82   96.16
  10  10   0   23.39   37.41
   0  10 -10   32.77   45.91
  10  10   2   53.36   38.79
  10   2  10  181.58   66.70
  10 -10  -2   37.14   75.71
 -10  10  -2  212.70   63.10
  -2  10 -10  113.86   57.75
 -10   2 -10  145.37   48.18
  -2 -10  10    0.25   78.05
 -10  -2 -10  138.40   42.70
 -10 -10  -2   16.02   39.94
 -10  10   2  222.41   66.78
  10  -2  10   50.97   65.95
  10 -10   2   23.10   75.55
   2 -10  10  127.95  104.98
   2  10 -10   86.54   55.38
  10  10   4   23.05   32.65
  10   4  10   55.16   49.02
 -10  10  -4   71.85   40.21
  -4  10 -10   19.34   42.13
 -10   4 -10   68.13   36.62
  -4 -10  10   -1.02   88.30
 -10  -4 -10   21.78   25.40
 -10 -10  -4   -3.89   34.92
  10  -4  10  142.38   92.70
  10 -10   4    6.71   62.94
   4 -10  10   26.76   95.02
   4  10 -10    8.28   52.43
  10  10   6   31.90   30.45
 -10  10  -6  242.08   74.65
  -6  10 -10  125.83   52.87
 -10   6 -10  286.50   84.00
  -6 -10  10   20.30   88.53
 -10  -6 -10   31.55   24.64
 -10 -10  -6   21.77   27.06
  10  -6  10   79.39   92.73
  10 -10   6   83.91   91.28
   6 -10  10  130.31  109.13
   6  10 -10   54.21   57.33
  10  10   8    9.23   18.44
 -10  10  -8   44.15   52.16
  -8  10 -10   20.32   53.69
 -10   8 -10   66.54   50.62
  -8 -10  10   -2.32  124.24
 -10  -8 -10   12.88   19.18
 -10 -10  -8   15.82   17.44
  10  -8  10   34.40  105.16
  10 -10   8    6.43  103.66
   8 -10  10   10.02  104.81
   8  10 -10   19.50   63.42
 -10  10 -10   90.47   68.27
  10 -10  10   18.07  110.20
   0  11   1  211.08   56.70
   0 -11  -1  107.83   40.39
   0  11  -1  200.75   55.72
   0 -11   1  242.32   69.55
  -1 -11   0  215.07   64.86
  -1  11   0  157.68   45.48
   1 -11   0  215.81   62.70
   1  11   0  208.84   56.35
  -2 -11   1  141.39   57.50
  -1   2 -11   42.03   33.99
  -2  11  -1  121.05   38.20
   2 -11  -1  171.25   53.18
   2  11   1  124.15   39.33
   1  11  -2  254.89   69.62
   2  -1  11   32.31   55.51
   1 -11   2  302.68   86.16
  -1  11   2  175.61   47.87
  -1 -11  -2  210.34   63.55
   1  11   2  151.10   42.43
  -1  11  -2  170.01   49.63
  -2   1 -11   84.51   36.04
  -1 -11   2  112.96   50.88
  -2 -11  -1   98.60   43.20
  -2  11   1  130.93   38.63
   2 -11   1   98.30   44.21
   1  -2  11    2.26   59.57
   2  11  -1  156.69   47.39
   0  11   3  177.23   48.14
   3   0  11   71.24   67.33
   0 -11  -3   40.96   33.98
   0  11  -3  140.77   45.84
  -3   0 -11   55.27   30.03
   0 -11   3   87.93   52.10
  -3 -11   0  113.61   58.23
  -3  11   0  153.83   44.46
   3 -11   0   27.57   32.89
   0  -3  11   39.80   60.65
   3  11   0  156.81   47.16
   0   3 -11   33.18   31.76
  -3 -11   2   18.53   64.30
  -2   3 -11   41.88   34.09
  -3  11  -2   38.45   26.88
 -11   2  -3   15.99   20.77
   3 -11  -2   23.22   34.60
   3  11   2   32.17   24.24
   2  11  -3   41.57   35.12
   3  -2  11  -23.44   68.79
   2 -11   3   41.63   43.05
  11  -3   2    4.85   50.11
  -2  11   3   31.35   25.18
  -2 -11  -3   73.65   35.16
   2  11   3  114.39   35.47
   2 -11  -3   41.13   38.66
 -11   3  -2   33.54   23.91
  -2  11  -3   72.93   33.07
  -3   2 -11   31.26   32.62
  -2 -11   3    4.52   49.68
  -3 -11  -2   38.49   38.68
  -3  11   2   35.74   26.63
  11  -2   3    4.97   44.76
   3 -11   2   -1.19   36.30
   2  -3  11   38.02   78.33
   3  11  -2   31.09   34.05
  -1  -4  11   30.23   70.00
  -4 -11   1   18.57   62.12
  -1   4 -11   21.32   31.92
  -4  11  -1  103.62   35.38
 -11   1  -4   73.01   25.27
   4 -11  -1    4.56   34.56
   4  11   1   43.11   27.06
  11   1   4   -6.68   33.54
   1  11  -4   35.30   34.86
   4  -1  11  -28.95   65.38
   1 -11   4   31.53   49.07
  11  -4   1  -13.29   54.62
  -1  11   4   46.82   25.14
  -4  -1 -11    1.25   28.21
  -1 -11  -4   48.44   37.23
   1  11   4   49.12   23.85
   4   1  11   -3.27   56.99
   1 -11  -4   27.84   36.81
 -11   4  -1   26.58   21.99
  -1  11  -4   34.00   31.67
  -4   1 -11   25.39   29.81
  -1 -11   4   41.51   54.82
 -11  -1  -4   20.61   17.32
  -4 -11  -1    3.91   38.81
  -4  11   1   34.96   25.84
  11  -1   4   11.97   45.45
   4 -11   1    7.84   36.44
   1  -4  11  -38.53   64.86
   4  11  -1   42.93   33.75
   1   4 -11   16.73   33.68
  -4 -11   3   99.29   71.76
  -3   4 -11   49.16   38.37
  -4  11  -3  160.92   48.05
 -11   3  -4  150.23   42.42
   4 -11  -3  205.11   69.22
   4  11   3  202.87   54.29
   3  11  -4  133.92   56.21
   4  -3  11  125.21   89.32
   3 -11   4  156.94   73.24
  11  -4   3   18.91   53.72
  -3  11   4  222.41   60.75
  -3 -11  -4  171.87   53.04
   3  11   4  142.14   40.74
   3 -11  -4  215.69   68.46
 -11   4  -3  204.11   55.20
  -3  11  -4  154.95   49.70
  -4   3 -11   88.33   41.44
  -3 -11   4   88.83   75.40
  -4 -11  -3  197.76   58.69
  -4  11   3  262.11   69.67
  11  -3   4   93.09   61.57
   4 -11   3  222.66   77.51
   3  -4  11  112.45   91.94
   4  11  -3  151.35   58.45
   0  11   5   98.24   35.11
   5   0  11    3.87   58.84
   0 -11  -5  170.13   56.40
   0  11  -5   55.07   40.09
  -5   0 -11   26.16   29.21
   0 -11   5   36.39   65.58
 -11   0  -5  132.92   37.86
  -5 -11   0   66.55   60.97
  -5  11   0   34.77   24.98
  11   0   5   10.25   43.51
   5 -11   0   58.64   50.36
   0  -5  11   19.56   65.44
   5  11   0   49.48   37.41
   0   5 -11   34.86   37.04
  -2  -5  11   30.18   76.47
  -5 -11   2   73.24   78.76
  -2   5 -11   70.67   41.87
  -5  11  -2  156.56   46.58
 -11   2  -5  152.83   43.39
   5 -11  -2  177.10   67.29
   5  11   2  146.74   45.48
  11   2   5    9.42   33.64
   2  11  -5   95.75   52.22
   5  -2  11   -7.08   74.87
   2 -11   5   10.58   62.34
  11  -5   2   37.28   58.66
  -2  11   5  253.64   67.00
  -5  -2 -11   62.04   31.95
  -2 -11  -5   59.54   34.20
   2  11   5  203.86   54.54
   5   2  11   82.63   54.91
   2 -11  -5   61.99   45.08
 -11   5  -2  127.82   40.71
  -2  11  -5  130.68   46.90
  -5   2 -11   68.73   42.07
  -2 -11   5   75.86   68.22
 -11  -2  -5  130.68   36.47
  -5 -11  -2   33.21   41.02
  -5  11   2  162.29   48.50
  11  -2   5   26.81   48.19
   5 -11   2   32.17   52.37
   2  -5  11   84.06   91.56
   5  11  -2   60.04   41.69
   2   5 -11   25.94   37.72
  -5 -11   4    1.51   70.18
  -4   5 -11   54.45   43.10
  -5  11  -4  134.54   44.20
 -11   4  -5   93.57   32.50
   5 -11  -4   -8.82   47.10
   5  11   4   65.07   27.46
   4  11  -5   47.32   47.48
   5  -4  11    7.23   73.21
   4 -11   5  145.50   76.69
  11  -5   4   44.88   61.61
  -4  11   5  203.86   58.55
  -4 -11  -5    5.95   28.39
   4  11   5  100.55   33.94
   4 -11  -5  142.76   60.24
 -11   5  -4   86.93   32.09
  -4  11  -5  101.63   40.21
  -5   4 -11   38.52   36.83
  -4 -11   5  -37.47   76.50
  -5 -11  -4   99.03   38.67
  -5  11   4  168.14   51.63
  11  -4   5    8.91   56.58
   5 -11   4  184.20   80.96
   4  -5  11   -1.55   85.69
   5  11  -4   80.00   51.38
  -1  -6  11   28.12   85.07
  -6 -11   1   42.02   60.64
  -1   6 -11    8.21   38.22
  -6  11  -1  113.25   39.45
 -11   1  -6  125.71   38.18
   6 -11  -1   57.80   57.91
   6  11   1   52.16   32.48
  11   1   6   20.57   36.02
   1  11  -6   51.54   37.85
   6  -1  11   79.96   75.19
   1 -11   6   82.74   78.91
  11  -6   1  -12.83   59.16
  -1  11   6  133.55   43.40
  -6  -1 -11    8.94   31.13
  -1 -11  -6  145.12   55.17
   1  11   6   92.63   34.77
   6   1  11   -7.07   54.55
   1 -11  -6  180.96   61.58
 -11   6  -1  100.59   35.82
  -1  11  -6   60.82   37.74
  -6   1 -11   59.03   38.89
  -1 -11   6   59.96   81.23
 -11  -1  -6   96.44   29.81
  -6 -11  -1   23.61   45.18
  -6  11   1  102.94   39.74
  11  -1   6   88.75   56.01
   6 -11   1   22.74   43.31
   1  -6  11   41.08   87.78
   6  11  -1   84.79   46.11
   1   6 -11   31.15   37.16
  -3  -6  11  -36.13   86.14
  -6 -11   3    6.17   65.98
  -3   6 -11   93.85   45.94
  -6  11  -3  110.93   40.20
 -11   3  -6  136.66   40.55
   6 -11  -3   -3.64   49.63
   6  11   3  119.77   40.06
  11   3   6   11.08   32.55
   3  11  -6  103.76   51.04
   6  -3  11   -4.29   78.43
   3 -11   6   23.50   65.73
  11  -6   3   34.91   62.39
  -6  -3 -11   34.34   26.30
  -3 -11  -6   33.45   31.29
   3  11   6  141.14   43.00
   6   3  11   -3.83   43.97
 -11   6  -3  136.16   44.22
  -3  11  -6  116.25   46.31
  -6   3 -11   36.39   34.44
  -3 -11   6  136.66   92.21
 -11  -3  -6   90.77   27.68
  -6 -11  -3   70.11   43.60
  -6  11   3  182.45   54.56
  11  -3   6   32.10   54.58
   6 -11   3   10.83   58.71
   3  -6  11   70.19   91.19
   6  11  -3   65.63   44.38
   3   6 -11   36.14   39.63
  -6 -11   5   -2.77   70.92
  -5   6 -11    4.62   35.73
  -6  11  -5   17.80   30.87
 -11   5  -6   25.18   25.35
   6 -11  -5    7.32   49.70
   6  11   5   34.87   24.33
   5  11  -6    3.74   43.97
   6  -5  11  -13.88   75.53
   5 -11   6   -3.37   59.28
  11  -6   5   12.63   63.26
  -5 -11  -6   30.52   28.02
   5  11   6   18.67   23.47
 -11   6  -5    2.63   26.09
  -5  11  -6   22.91   33.38
  -6   5 -11    3.72   34.94
  -5 -11   6   -5.85   75.77
  -6 -11  -5   21.83   27.06
  11  -5   6   30.82   67.67
   6 -11   5   20.75   56.09
   5  -6  11   20.60   83.90
   6  11  -5   19.40   47.23
   7   0  11   38.11   69.98
  11  -7   0   11.12   68.80
 -11   7   0   47.57   29.71
   0  11  -7   58.08   42.98
  -7   0 -11   37.59   35.94
   0 -11   7   73.48   84.05
 -11   0  -7  103.23   33.37
  -7 -11   0   42.96   62.58
  -7  11   0   70.43   35.06
  11   0   7   11.45   42.55
   7 -11   0    4.97   53.39
   0  -7  11   52.72   91.84
   7  11   0   78.25   43.67
   0   7 -11   40.62   38.11
  -2  -7  11  -27.70   87.71
  -7 -11   2   -8.72   60.96
  -2   7 -11   -4.90   41.25
  -7  11  -2   32.37   29.48
 -11   2  -7   56.95   29.14
   7 -11  -2  108.12   69.11
   7  11   2   37.06   33.24
  11   2   7   10.84   37.42
   2  11  -7   67.85   51.08
   7  -2  11   27.36   69.15
   2 -11   7    1.66   77.71
  11  -7   2    8.68   64.00
  -7  -2 -11   19.00   31.53
  -2 -11  -7   21.00   35.07
   2  11   7   39.20   24.64
   7   2  11  -10.57   46.85
 -11   7  -2   91.96   38.13
  -2  11  -7    7.34   37.82
  -7   2 -11   27.12   35.40
  -2 -11   7   29.30   86.60
 -11  -2  -7   44.89   20.61
  -7 -11  -2   46.70   49.48
  -7  11   2   93.54   39.50
  11  -2   7   22.08   53.65
   7 -11   2  -11.26   59.65
   2  -7  11   40.46  100.16
   7  11  -2   38.21   38.35
   2   7 -11   16.68   40.54
  -4  -7  11   56.49   95.22
  -7 -11   4   -7.19   68.27
  -4   7 -11  110.73   50.84
  -7  11  -4  185.19   55.53
 -11   4  -7  227.39   61.40
   7 -11  -4  154.32   75.56
   7  11   4  193.03   54.96
  11   4   7   11.30   33.93
   4  11  -7   92.47   51.89
   7  -4  11   86.71   84.47
   4 -11   7   59.65   67.32
  11  -7   4  174.74   84.69
  -7  -4 -11   63.31   32.21
  -4 -11  -7   56.13   32.53
   7   4  11   36.58   43.96
 -11   7  -4  232.49   64.62
  -4  11  -7  134.05   50.65
  -7   4 -11  127.82   47.82
  -4 -11   7   27.39   89.56
  -7 -11  -4   25.18   33.80
  -7  11   4  237.10   68.20
  11  -4   7  141.14   76.92
   7 -11   4   38.86   59.24
   4  -7  11  -10.97   85.24
   7  11  -4   57.62   45.81
   4   7 -11   48.08   44.21
  -7 -11   6   16.57   74.99
  -6   7 -11   20.67   43.92
  -7  11  -6   17.65   33.38
 -11   6  -7   27.97   30.11
   7  11   6   22.15   24.48
   6  11  -7   -4.40   45.71
   7  -6  11   81.32   95.37
   6 -11   7   11.37   75.89
  11  -7   6  -23.39   74.56
  -6 -11  -7  106.85   38.38
   6  11   7   26.12   25.68
 -11   7  -6   30.75   32.10
  -6  11  -7   24.33   37.01
  -7   6 -11   33.39   38.84
  -6 -11   7   23.11   80.47
 -11  -6  -7   22.09   15.22
  -7 -11  -6   15.94   23.73
  11  -6   7   72.43   80.29
   7 -11   6   18.20   77.05
   6  -7  11   27.97   91.79
   7  11  -6   20.46   43.00
  -1  -8  11   15.17   98.35
  -8 -11   1   34.16   60.80
  -1   8 -11   34.08   45.38
  -8  11  -1   90.43   37.82
 -11   1  -8   68.30   31.28
   8 -11  -1   94.64   71.25
   8  11   1   47.68   38.54
  11   1   8   18.27   41.16
   1  11  -8   43.60   51.89
   8  -1  11   20.24   63.42
   1 -11   8   -8.66   80.10
  11  -8   1   50.04   70.67
 -11   8   1   47.31   33.16
  -8  -1 -11   55.43   34.62
   8   1  11   24.06   55.53
  11  -8  -1   11.55   55.36
 -11   8  -1  137.53   45.71
  -1  11  -8   50.31   44.90
  -8   1 -11   51.48   38.31
  -1 -11   8   15.06   93.42
 -11  -1  -8   81.50   28.75
  -8 -11  -1   31.87   57.00
  -8  11   1  122.34   42.29
  11  -1   8   30.67   54.20
   8 -11   1   35.58   67.76
   1  -8  11    6.97   79.22
   8  11  -1   23.29   42.18
   1   8 -11   45.90   44.01
  -3  -8  11   21.59   93.80
  -8 -11   3   -4.21   66.64
  -3   8 -11   57.28   44.17
  -8  11  -3   36.65   32.17
 -11   3  -8   60.75   30.48
   8 -11  -3   46.32   65.60
   8  11   3   31.08   35.74
  11   3   8   21.43   37.72
   3  11  -8   40.10   49.96
   8  -3  11  -38.32   76.73
   3 -11   8   44.98   85.13
  11  -8   3   25.89   71.69
  -8  -3 -11   44.78   32.56
   8   3  11    9.05   45.09
 -11   8  -3   51.74   33.19
  -3  11  -8   34.09   40.19
  -8   3 -11   23.66   33.22
  -3 -11   8   11.79   80.00
 -11  -3  -8   39.52   22.38
  -8 -11  -3   20.55   42.10
  -8  11   3   52.24   37.31
  11  -3   8  -22.33   61.73
   8 -11   3   20.30   67.71
   3  -8  11  -27.32  100.70
   8  11  -3   31.30   45.64
   3   8 -11   38.27   40.23
  -5  -8  11    7.20   96.22
  -8 -11   5   23.25   72.56
  -5   8 -11   39.55   44.71
  -8  11  -5   44.39   35.40
 -11   5  -8   75.60   39.94
   8  11   5   34.77   30.11
   5  11  -8   44.11   49.39
   8  -5  11  -17.15   75.33
   5 -11   8    0.09   66.85
  11  -8   5   79.09   82.49
  -8  -5 -11   -1.12   25.81
  -5 -11  -8   19.18   30.19
   8   5  11   23.25   42.76
 -11   8  -5   58.67   35.04
  -5  11  -8   14.81   39.68
  -8   5 -11   35.17   37.10
  -5 -11   8   -1.26   88.83
 -11  -5  -8   37.26   19.15
  -8 -11  -5    3.89   30.95
  11  -5   8   64.25   76.41
   8 -11   5   66.49   75.84
   5  -8  11   -8.26   85.23
   8  11  -5    2.21   51.00
   5   8 -11  -17.28   46.19
  -8 -11   7    1.49   82.78
  -7   8 -11   11.72   43.06
  -8  11  -7   21.74   41.92
 -11   7  -8    9.83   37.54
   8  11   7    3.85   25.36
   7  11  -8  -11.54   57.79
   8  -7  11  -13.57   95.87
   7 -11   8   19.61   96.29
  11  -8   7   21.98   87.12
  -7 -11  -8   12.14   26.32
   7  11   8   -0.74   26.14
 -11   8  -7   -2.35   36.84
  -7  11  -8  -11.68   42.10
  -8   7 -11   19.47   43.77
  -7 -11   8    3.62   84.15
 -11  -7  -8   10.16   14.50
  -8 -11  -7   13.65   24.12
  11  -7   8   -5.13   85.03
   8 -11   7   21.28   93.59
   7  -8  11  -11.87   84.32
   8  11  -7    3.80   48.20
   9   0  11   52.98   69.46
  11  -9   0  -12.68   73.07
 -11   9   0   28.31   33.79
   0  11  -9   -5.60   39.86
  -9   0 -11   22.17   33.77
   0 -11   9   55.83   96.93
 -11   0  -9   51.56   30.28
  -9 -11   0   28.17   54.33
  -9  11   0   39.30   36.30
  11   0   9   47.42   52.47
   9 -11   0   -5.83   69.47
   0  -9  11   43.76  104.51
   9  11   0   -3.18   38.07
   0   9 -11   31.64   47.46
  -2  -9  11   15.11   83.97
  -9 -11   2   21.81   74.45
  -2   9 -11   36.48   41.38
  -9  11  -2   58.99   36.14
 -11   2  -9   39.69   33.72
   9 -11  -2   15.46   76.82
   9  11   2   20.42   35.38
  11   2   9    0.49   40.37
   2  11  -9   11.94   50.47
   9  -2  11    4.93   66.21
   2 -11   9   47.98   97.10
  11  -9   2   -4.22   59.91
 -11   9   2   59.12   37.67
  -9  -2 -11   34.19   30.23
   9   2  11   27.85   47.22
  11  -9  -2    3.13   74.07
 -11   9  -2   94.73   42.07
  -2  11  -9   27.23   43.77
  -9   2 -11   46.24   34.28
  -2 -11   9   66.37   94.34
 -11  -2  -9   37.64   23.65
  -9 -11  -2   -2.46   50.57
  -9  11   2   57.69   35.55
  11  -2   9   54.18   72.48
   9 -11   2   28.63   72.26
   2  -9  11   17.08   95.51
   9  11  -2  -12.56   43.61
   2   9 -11   10.61   47.01
  -4  -9  11   27.03   84.59
  -9 -11   4   -4.42   83.91
  -4   9 -11   30.44   43.80
  -9  11  -4   33.12   36.44
 -11   4  -9   54.10   33.53
   9 -11  -4    7.80   80.13
   9  11   4   10.76   33.22
  11   4   9   56.48   42.29
   4  11  -9  -13.25   50.89
   9  -4  11   35.74   87.36
   4 -11   9   -6.35   93.51
  11  -9   4   27.37   76.78
  -9  -4 -11   -0.92   30.09
   9   4  11   -5.93   47.22
 -11   9  -4   43.16   39.71
  -4  11  -9   12.17   41.33
  -9   4 -11   19.14   34.45
  -4 -11   9   14.30   84.03
 -11  -4  -9   16.09   23.22
  -9 -11  -4    5.10   37.85
  11  -4   9   45.97   79.95
   9 -11   4  -32.87   76.63
   4  -9  11   10.45   98.75
   9  11  -4   -9.54   43.04
   4   9 -11   -7.79   49.82
  -6  -9  11  -20.60  108.11
  -9 -11   6   -2.68   84.45
  -6   9 -11   24.87   51.48
  -9  11  -6   34.20   41.53
 -11   6  -9    8.21   38.57
   9  11   6   21.01   29.86
   6  11  -9   40.76   59.48
   9  -6  11  -14.19   92.97
   6 -11   9   -7.51  103.62
  11  -9   6    3.16   84.51
  -9  -6 -11    6.24   26.63
 -11   9  -6   33.54   42.30
  -6  11  -9   19.30   44.71
  -9   6 -11   55.47   45.19
  -6 -11   9  -20.19   99.67
 -11  -6  -9    6.61   17.39
  -9 -11  -6    7.02   28.95
  11  -6   9   27.17   94.39
   9 -11   6   -7.69   94.14
   6  -9  11   31.94   97.29
   9  11  -6   20.93   51.56
   6   9 -11   -2.25   47.17
  -9 -11   8  -18.79   99.42
  -8   9 -11   29.47   53.04
  -9  11  -8   58.05   53.07
 -11   8  -9   49.11   45.78
   9  11   8    8.02   26.93
   8  11  -9    0.39   59.75
   9  -8  11  -17.62  103.29
   8 -11   9   22.69  114.59
  11  -9   8   10.53  102.65
  -8 -11  -9   -1.17   25.51
 -11   9  -8   55.81   52.96
  -8  11  -9   13.83   50.48
  -9   8 -11   51.34   53.83
  -8 -11   9   19.05  123.66
 -11  -8  -9   12.47   14.15
  -9 -11  -8   18.27   24.08
  11  -8   9   16.59  106.39
   9 -11   8  -49.35  114.06
   8  -9  11    0.18  112.79
   9  11  -8   24.06   63.22
  -1 -10  11   -0.46  107.68
 -10 -11   1   12.06   73.78
  -1  10 -11   17.83   46.88
 -10  11  -1   17.93   41.94
 -11   1 -10   26.68   34.09
  10 -11  -1   25.69   87.25
  10  11   1   -3.69   40.01
  11   1  10    9.71   48.08
   1  11 -10   15.41   49.41
  10  -1  11   20.96   69.00
   1 -11  10    9.47  105.98
  11 -10   1   29.53   85.12
 -11  10   1   63.08   43.12
 -10  -1 -11    1.64   32.04
  10   1  11    7.43   50.07
  11 -10  -1  -15.74   70.66
 -11  10  -1   11.15   38.92
  -1  11 -10   20.83   47.73
 -10   1 -11    3.41   35.15
  -1 -11  10   14.87  108.23
 -11  -1 -10   16.57   28.50
 -10 -11  -1   -2.79   56.35
 -10  11   1   62.28   44.16
  11  -1  10   17.32   61.53
  10 -11   1   -2.44   83.67
   1 -10  11   34.29  106.94
  10  11  -1   22.38   42.38
   1  10 -11    3.52   46.29
  -3 -10  11   -3.08  111.95
 -10 -11   3  -23.14   73.06
  -3  10 -11   -2.30   46.57
 -10  11  -3   49.35   42.24
 -11   3 -10   29.94   34.35
  10 -11  -3    4.74   85.10
  10  11   3   14.60   39.18
  11   3  10   13.80   48.97
   3  11 -10    2.69   48.78
  10  -3  11   16.45   79.70
   3 -11  10   -2.04   84.91
  11 -10   3    8.70   85.64
 -10  -3 -11   29.58   28.48
  10   3  11   26.35   54.44
  11 -10  -3  -15.74   77.21
 -11  10  -3   22.41   34.10
  -3  11 -10   28.65   49.11
 -10   3 -11   25.58   40.37
  -3 -11  10   31.39  105.35
 -11  -3 -10    9.72   26.65
 -10 -11  -3  -21.01   40.54
 -10  11   3   32.77   44.47
  11  -3  10   -3.13   72.99
  10 -11   3   13.70   69.27
   3 -10  11  -11.96  110.27
  10  11  -3  -11.79   44.34
   3  10 -11   34.49   58.11
  -5 -10  11   34.31  119.74
 -10 -11   5  -27.95   82.16
  -5  10 -11    8.04   50.58
 -10  11  -5   17.95   43.76
 -11   5 -10   14.15   41.20
  10  11   5   18.28   37.80
   5  11 -10    8.27   56.52
  10  -5  11   25.92   93.63
   5 -11  10   18.10  113.18
  11 -10   5  -11.68   78.02
 -10  -5 -11  -10.76   32.05
  11  10   5    8.76   31.48
  10   5  11   35.28   53.69
 -11  10  -5   14.16   43.11
  -5  11 -10    1.41   50.08
 -10   5 -11   87.53   52.29
  -5 -11  10   38.37  116.93
 -11  -5 -10   11.10   25.80
 -10 -11  -5   -3.74   39.44
  11  -5  10    1.00  101.86
  10 -11   5  -23.07   92.14
   5 -10  11   48.85  104.53
  10  11  -5   20.04   57.18
   5  10 -11   -3.44   58.26
  -7 -10  11   19.39  128.19
  -7  10 -11    2.01   55.50
 -10  11  -7   31.94   51.10
 -11   7 -10   33.44   47.74
  10  11   7   -3.99   28.73
   7  11 -10    7.90   67.99
  10  -7  11  -16.03  106.64
   7 -11  10  -21.47  124.25
  11 -10   7   17.50   97.18
 -10  -7 -11   -3.15   27.85
 -11 -10  -7    3.46   23.97
  11  10   7   -6.52   27.23
 -11  10  -7   46.45   53.48
  -7  11 -10    8.80   50.58
 -10   7 -11   20.97   49.37
  -7 -11  10   12.48  127.95
 -11  -7 -10    8.92   22.71
 -10 -11  -7   -1.94   29.21
  11  -7  10  -26.41  102.27
  10 -11   7  -13.74  103.48
   7 -10  11   -2.63  117.79
  10  11  -7   15.72   63.55
   7  10 -11    9.95   56.82
  -9  10 -11   13.21   65.23
 -10  11  -9   35.30   64.41
 -11   9 -10   25.55   61.31
  10  11   9    3.57   26.14
   9  11 -10    3.36   76.07
  10  -9  11   22.33  120.17
   9 -11  10   22.89  124.83
  11 -10   9   75.83  125.71
 -11  10  -9   30.84   57.35
  -9  11 -10   14.59   65.69
 -10   9 -11   10.64   60.42
  -9 -11  10  -14.84  134.42
 -11  -9 -10   10.60   18.89
 -10 -11  -9    3.53   22.44
  11  -9  10   28.35  122.13
  10 -11   9   30.07  123.65
   9 -10  11   18.52  125.46
 -11   0 -11   41.15   38.63
 -11 -11   0   14.87   66.16
 -11  11   0   31.02   41.54
  11   0  11   32.07   65.27
  11 -11   0   48.48  100.03
   0 -11  11   -4.85  122.15
  11  11   0   20.47   46.50
   0  11 -11   41.20   54.77
  11  11   2   -1.52   46.71
  11   2  11   -1.37   58.87
  11 -11  -2   14.14  106.65
 -11  11  -2   43.42   45.80
  -2  11 -11   28.46   55.93
 -11   2 -11   31.04   37.87
  -2 -11  11   -8.11  125.58
 -11  -2 -11   35.43   32.43
 -11 -11  -2    1.05   60.40
 -11  11   2   35.04   40.80
  11  -2  11   36.38   78.42
  11 -11   2    8.78  109.33
   2 -11  11   52.42  112.54
  11  11  -2   11.15   48.10
   2  11 -11   18.38   58.04
  11  11   4  -14.82   41.42
  11   4  11   17.51   52.07
 -11  11  -4   23.24   46.52
  -4  11 -11   15.66   53.16
 -11   4 -11    9.01   42.81
  -4 -11  11   29.81  122.31
 -11  -4 -11    2.84   32.19
 -11 -11  -4   -5.69   42.29
  11  -4  11   24.22   92.27
  11 -11   4  -40.72   90.80
   4 -11  11  -11.40  126.95
   4  11 -11  -13.60   62.83
  11  11   6   20.35   37.09
 -11  11  -6   46.63   53.37
  -6  11 -11   51.81   60.76
 -11   6 -11  134.92   66.16
  -6 -11  11   11.92  134.05
 -11  -6 -11   29.14   32.26
 -11 -11  -6   12.69   36.64
  11  -6  11   25.19  109.42
  11 -11   6    5.07   91.55
   6 -11  11   57.70  115.16
   6  11 -11    8.04   73.57
  11  11   8   18.22   30.03
 -11  11  -8   69.35   62.78
  -8  11 -11   15.68   54.64
 -11   8 -11   80.79   75.43
  -8 -11  11   -6.48  116.88
 -11  -8 -11    8.93   29.40
 -11 -11  -8    3.98   28.07
  11  -8  11   78.58  129.69
  11 -11   8   45.50  126.08
   8 -11  11   65.96  140.02
   8  11 -11  -11.15   69.96
 -11  11 -10   18.20   70.47
 -10  11 -11    7.19   69.07
 -11  10 -11   57.28   77.54
  11 -10  11    3.08  133.80
  11 -11  10  -10.74  123.71
  10 -11  11  -21.51  116.17
   0 -12   0  369.27  101.02
   0  12   0  321.48   83.24
   1  12   1   79.94   31.29
   1 -12  -1   51.82   45.65
  -1  12  -1   47.37   30.47
  -1   1 -12    4.38   29.07
  -1 -12   1    6.85   48.51
  -1 -12  -1   81.53   46.04
  -1  12   1   52.01   28.07
   1 -12   1    3.23   46.09
   1  12  -1   56.79   31.58
   0  12   2  138.03   42.98
   0 -12  -2  257.50   74.04
   0  12  -2   96.01   41.84
  -2   0 -12   39.79   30.42
   0 -12   2  150.60   66.10
  -2 -12   0    9.20   44.71
  -2  12   0  108.06   38.20
   2 -12   0   19.98   44.66
   2  12   0   99.48   37.59
   0   2 -12   28.86   31.39
   2  12   2  137.78   43.55
   2 -12  -2  229.01   70.29
  -2  12  -2  127.82   43.71
  -2   2 -12   56.43   36.29
  -2 -12   2   28.91   57.86
  -2 -12  -2  168.76   61.89
  -2  12   2  151.35   45.34
   2 -12   2  184.45   72.21
   2  -2  12   -5.41   67.15
   2  12  -2  144.00   50.26
  -3 -12   1  -19.98   53.45
  -1   3 -12   14.44   37.36
  -3  12  -1   49.63   30.03
 -12   1  -3   23.14   20.08
   3 -12  -1   13.18   44.92
   3  12   1   35.89   27.51
   1  12  -3   65.30   38.40
   3  -1  12   -9.21   71.81
   1 -12   3   53.98   60.97
  -1  12   3   66.01   30.14
  -3  -1 -12    4.05   26.51
  -1 -12  -3   -0.22   35.30
   1  12   3   23.57   23.30
   1 -12  -3   45.15   49.48
  -1  12  -3   31.02   31.19
  -3   1 -12   15.72   35.04
  -1 -12   3   37.96   59.74
  -3 -12  -1   70.61   53.29
  -3  12   1   87.97   35.21
  12  -1   3  -25.83   50.34
   3 -12   1    7.85   42.78
   1  -3  12   74.75   82.69
   3  12  -1   57.95   39.39
   1   3 -12   29.20   33.88
   3  12   3   60.92   30.67
   3 -12  -3   -5.32   46.54
 -12   3  -3   96.12   33.67
  -3  12  -3   51.23   32.50
  -3   3 -12    4.75   34.33
  -3 -12   3   -4.45   65.42
  -3 -12  -3  117.70   51.16
  -3  12   3  141.76   46.50
  12  -3   3  -11.85   55.31
   3 -12   3   42.59   60.92
   3  -3  12    9.14   85.20
   3  12  -3   49.65   40.35
   4   0  12   23.07   61.74
   0 -12  -4   47.70   41.67
   0  12  -4  200.63   62.04
  -4   0 -12   94.31   38.82
   0 -12   4  158.56   82.85
 -12   0  -4  216.81   57.69
  -4 -12   0  234.36   85.62
  -4  12   0  285.13   75.97
   4 -12   0  296.34   91.43
   0  -4  12  124.96   87.73
   4  12   0  252.65   71.70
   0   4 -12   94.68   43.36
  -2  -4  12  -12.35   76.65
  -4 -12   2   -1.06   60.55
  -2   4 -12   11.08   34.55
  -4  12  -2   58.89   32.67
 -12   2  -4   92.16   32.32
   4 -12  -2    5.24   50.93
   4  12   2   16.28   28.46
   2  12  -4   15.99   42.44
   4  -2  12  -17.51   74.91
   2 -12   4    6.96   61.45
  12  -4   2  -30.34   59.80
  -2  12   4   36.40   29.31
  -4  -2 -12    0.51   26.65
  -2 -12  -4   -3.58   33.26
   2  12   4   17.06   25.27
   2 -12  -4    4.95   44.63
 -12   4  -2   16.06   23.67
  -2  12  -4   13.21   32.19
  -4   2 -12   16.44   33.68
  -2 -12   4   -8.09   66.82
  -4 -12  -2   14.62   46.54
  -4  12   2   10.65   27.51
  12  -2   4  -12.42   52.05
   4 -12   2   97.91   64.28
   2  -4  12   35.91   81.08
   4  12  -2   20.22   37.23
   2   4 -12   12.41   35.02
   4 -12  -4   85.66   57.59
  -4  12  -4  501.57  125.83
  -4   4 -12  263.35   76.80
  -4 -12   4   92.00   80.89
  -4 -12  -4  223.16   68.18
  12  -4   4  126.70   73.59
   4  -4  12   96.32   93.21
   4  12  -4  365.78  101.76
  -1  -5  12   13.86   79.38
  -5 -12   1   17.72   59.33
  -1   5 -12   38.16   38.40
  -5  12  -1  127.07   41.67
 -12   1  -5   95.20   35.10
   5 -12  -1   36.14   55.97
   5  12   1  108.78   43.97
  12   1   5   13.81   42.51
   1  12  -5  101.87   48.58
   5  -1  12   24.08   67.63
   1 -12   5   44.81   69.91
  12  -5   1  -13.88   67.07
  -1  12   5  125.33   41.97
  -5  -1 -12   41.36   34.13
  -1 -12  -5  227.76   73.43
   1  12   5  262.11   69.70
   5   1  12  -13.55   62.49
   1 -12  -5  154.20   65.55
 -12   5  -1   65.07   31.25
  -1  12  -5  105.84   46.72
  -5   1 -12   27.80   33.70
  -1 -12   5   49.31   80.25
 -12  -1  -5  215.94   57.06
  -5 -12  -1   61.99   51.44
  -5  12   1  147.61   47.06
  12  -1   5   18.10   55.09
   5 -12   1  199.88   76.97
   1  -5  12   47.58   87.25
   5  12  -1  106.15   45.19
   1   5 -12   15.88   38.43
  -3  -5  12    0.98   77.16
  -5 -12   3  -18.11   70.58
  -3   5 -12   20.54   39.40
  -5  12  -3   74.60   33.50
 -12   3  -5  135.66   41.84
   5 -12  -3   94.84   65.33
   5  12   3  109.19   40.86
   3  12  -5   46.91   46.73
   5  -3  12   22.61   82.24
   3 -12   5   50.16   75.43
  12  -5   3   46.41   65.71
  -3  12   5  122.17   43.76
  -5  -3 -12    9.76   26.52
  -3 -12  -5   51.20   37.05
   3  12   5   78.70   32.40
   3 -12  -5  144.87   62.84
 -12   5  -3  120.38   42.33
  -3  12  -5   98.63   43.51
  -5   3 -12   45.28   38.87
  -3 -12   5   26.27   78.18
  -5 -12  -3   12.10   37.24
  -5  12   3  185.69   56.07
  12  -3   5   30.99   56.95
   5 -12   3  132.68   72.85
   3  -5  12   21.29   90.27
   5  12  -3   74.03   48.00
   3   5 -12   14.75   37.64
   5  12   5   90.95   34.18
   5 -12  -5   48.38   57.79
 -12   5  -5  119.38   41.11
  -5  12  -5  112.30   46.36
  -5   5 -12   31.82   41.67
  -5 -12   5   12.81   80.33
  -5 -12  -5   76.49   40.39
  -5  12   5  128.44   48.38
  12  -5   5   32.88   69.70
   5 -12   5   37.29   70.11
   5  -5  12  -11.53   92.53
   5  12  -5   50.04   48.51
   0  12   6   13.03   26.05
   6   0  12   12.04   73.88
  12  -6   0   20.64   67.11
   0 -12  -6   21.13   42.93
 -12   6   0    8.94   25.79
   0  12  -6   16.65   39.40
  -6   0 -12   -8.54   36.81
   0 -12   6   -3.99   79.49
 -12   0  -6    4.64   23.54
  -6 -12   0  -10.71   54.76
  -6  12   0   26.81   29.19
  12   0   6   23.21   52.19
   6 -12   0   25.44   57.62
   0  -6  12  -32.47   76.74
   6  12   0   -1.88   33.96
   0   6 -12    2.14   39.83
  -2  -6  12  -16.55   92.16
  -6 -12   2   18.66   68.38
  -2   6 -12   54.31   43.51
  -6  12  -2  125.95   42.70
 -12   2  -6  164.03   49.34
   6 -12  -2  154.57   72.30
   6  12   2  106.54   42.48
  12   2   6    7.29   35.86
   2  12  -6  105.89   53.79
   6  -2  12   36.27   85.08
   2 -12   6   13.95   63.50
  12  -6   2   86.21   74.70
  -2  12   6  228.63   66.04
  -6  -2 -12   40.18   34.21
  -2 -12  -6   32.21   38.45
   2  12   6  147.74   44.42
   6   2  12   18.73   55.76
   2 -12  -6  204.49   71.91
 -12   6  -2  162.29   50.21
  -2  12  -6  122.43   51.34
  -6   2 -12   61.98   44.06
  -2 -12   6   10.76   75.84
 -12  -2  -6  102.19   32.26
  -6 -12  -2   90.41   57.35
  -6  12   2  181.09   53.43
  12  -2   6   41.47   61.06
   6 -12   2  272.56   93.46
   2  -6  12    3.17   91.84
   6  12  -2   61.73   48.38
   2   6 -12   37.10   40.76
  -4  -6  12   34.62   82.72
  -6 -12   4   19.03   76.84
  -4   6 -12   49.76   49.83
  -6  12  -4  153.95   52.04
 -12   4  -6  242.70   65.69
   6 -12  -4  137.28   72.76
   6  12   4  176.23   51.72
  12   4   6   18.81   39.74
   4  12  -6  108.77   56.48
   6  -4  12   54.75   95.00
   4 -12   6   38.84   66.61
  12  -6   4    7.13   71.81
  -4  12   6  167.39   50.73
  -4 -12  -6  137.78   51.36
   4  12   6  221.41   60.24
   4 -12  -6  266.46   89.61
 -12   6  -4  240.71   67.24
  -4  12  -6  172.00   58.17
  -6   4 -12  103.94   46.86
  -4 -12   6   32.70   81.30
  -6 -12  -4  103.79   48.74
  -6  12   4  231.37   68.89
  12  -4   6  206.10   89.96
   6 -12   4   79.50   75.26
   4  -6  12  108.01  100.14
   6  12  -4   98.30   57.09
   4   6 -12   27.83   41.94
   6  12   6   57.10   32.31
 -12   6  -6   94.02   44.41
  -6  12  -6   47.19   40.70
  -6   6 -12   48.65   44.08
  -6 -12   6   -5.08   77.21
  -6 -12  -6  274.43   74.15
  12  -6   6   36.88   80.94
   6 -12   6   54.18   87.41
   6  -6  12   28.66  102.43
   6  12  -6   37.62   52.88
  -1  -7  12   31.53   95.04
  -7 -12   1    9.50   62.27
  -1   7 -12   16.62   43.17
  -7  12  -1   13.70   32.75
 -12   1  -7   18.22   27.36
   7 -12  -1   23.82   60.72
   7  12   1    0.54   37.11
  12   1   7   15.72   40.77
   1  12  -7   -3.05   45.48
   7  -1  12   16.43   71.34
   1 -12   7   -9.37   86.46
  12  -7   1   -6.98   69.45
  -7  -1 -12    9.66   34.52
  -1 -12  -7    1.87   43.62
   1  12   7   17.80   30.59
   7   1  12  -37.54   59.76
   1 -12  -7    1.49   48.10
 -12   7  -1   63.31   35.87
  -1  12  -7   23.14   42.66
  -7   1 -12   21.93   36.16
  -1 -12   7   17.23   83.92
 -12  -1  -7   11.08   22.38
  -7 -12  -1   22.45   61.87
  -7  12   1   37.44   36.55
  12  -1   7    4.95   60.21
   7 -12   1   25.66   52.32
   1  -7  12   14.46   96.85
   7  12  -1   19.90   39.57
   1   7 -12    4.70   44.99
  -3  -7  12   -1.61   95.29
  -7 -12   3   -2.35   70.11
  -3   7 -12   49.07   45.19
  -7  12  -3   54.02   33.04
 -12   3  -7   77.49   36.04
   7 -12  -3   18.96   66.41
   7  12   3   80.77   38.96
  12   3   7   -1.16   42.08
   3  12  -7   38.77   46.66
   7  -3  12  -16.62   79.19
   3 -12   7   19.68   81.89
  12  -7   3  -14.54   74.21
  -7  -3 -12    8.61   29.22
  -3 -12  -7   75.37   48.92
   3  12   7   85.68   35.81
   7   3  12   -3.99   52.78
 -12   7  -3   94.35   40.81
  -3  12  -7   39.71   40.92
  -7   3 -12   29.70   37.26
  -3 -12   7    4.23   87.46
 -12  -3  -7   91.69   30.80
  -7 -12  -3    0.17   47.42
  -7  12   3   52.53   38.86
  12  -3   7   34.86   71.44
   7 -12   3   94.08   77.08
   3  -7  12   30.60   91.66
   7  12  -3   17.75   42.83
   3   7 -12    4.92   46.49
  -5  -7  12   -0.47   87.64
  -7 -12   5   24.43   79.60
  -5   7 -12   18.22   43.65
  -7  12  -5   20.80   37.84
 -12   5  -7   34.16   34.00
   7 -12  -5   30.75   73.29
   7  12   5   35.13   31.04
   5  12  -7   -0.64   50.67
   7  -5  12   21.54   91.81
   5 -12   7    7.53   83.13
  12  -7   5    1.00   82.64
  -7  -5 -12    5.99   24.71
  -5 -12  -7    5.41   31.13
   5  12   7   20.86   31.04
 -12   7  -5   15.76   33.87
  -5  12  -7   20.32   41.57
  -7   5 -12   19.19   40.41
  -5 -12   7   25.46   86.04
 -12  -5  -7   20.62   20.09
  -7 -12  -5   21.34   34.34
  -7  12   5   21.34   37.71
  12  -5   7   17.91   71.25
   7 -12   5   -0.33   65.55
   5  -7  12  -42.73   98.40
   7  12  -5   16.08   47.94
   5   7 -12   30.92   47.90
   7  12   7    5.15   29.80
 -12   7  -7   55.68   42.50
  -7  12  -7   26.29   43.61
  -7   7 -12   18.72   47.56
  -7 -12   7   14.19   86.61
  -7 -12  -7   20.71   33.53
  12  -7   7  -14.81   90.76
   7 -12   7   73.28  101.45
   7  -7  12   15.61   96.23
   7  12  -7   -4.34   58.42
   8   0  12   24.44   68.49
  12  -8   0    4.38   79.60
 -12   8   0   87.01   40.81
   0  12  -8   41.98   48.75
  -8   0 -12   37.08   39.60
   0 -12   8   65.22   97.48
 -12   0  -8  103.75   38.20
  -8 -12   0    8.19   64.15
  -8  12   0  128.32   52.02
  12   0   8   -1.20   52.51
   8 -12   0   74.92   77.87
   0  -8  12   20.47   78.88
   8  12   0   39.33   44.25
   0   8 -12   55.02   48.76
  -2  -8  12    0.74   85.74
  -8 -12   2   43.17   69.97
  -2   8 -12   25.99   45.40
  -8  12  -2   44.72   38.89
 -12   2  -8   28.75   32.50
   8 -12  -2    4.63   64.02
   8  12   2    0.40   40.09
  12   2   8   15.72   43.34
   2  12  -8    5.51   44.31
   8  -2  12   29.06   80.35
   2 -12   8   35.07   96.79
  12  -8   2   -3.00   76.80
  -8  -2 -12   23.15   34.40
   8   2  12    3.64   53.21
 -12   8  -2   33.09   34.90
  -2  12  -8   -4.10   42.73
  -8   2 -12   64.87   43.80
  -2 -12   8   -0.36   90.98
 -12  -2  -8   45.88   26.73
  -8 -12  -2   21.67   58.47
  -8  12   2   47.38   42.75
  12  -2   8   -2.31   59.74
   8 -12   2    0.68   71.80
   2  -8  12   15.45   98.01
   8  12  -2   22.27   41.89
   2   8 -12    9.82   45.84
  -4  -8  12    6.52  103.70
  -8 -12   4   -6.72   74.08
  -4   8 -12   34.59   50.47
  -8  12  -4   51.97   41.35
 -12   4  -8   25.75   32.81
   8 -12  -4   13.91   80.67
   8  12   4   33.27   36.73
  12   4   8   21.26   40.51
   4  12  -8    9.09   52.50
   8  -4  12   31.21   90.21
   4 -12   8   33.82   98.97
  12  -8   4  -20.58   81.53
  -8  -4 -12   11.43   32.06
  -4 -12  -8   17.55   43.59
   4  12   8   43.00   35.68
   8   4  12  -18.22   50.32
 -12   8  -4   76.94   42.07
  -4  12  -8   12.86   38.12
  -8   4 -12   38.22   45.59
  -4 -12   8  -28.12   78.92
 -12  -4  -8   62.99   29.55
  -8 -12  -4    9.72   42.22
  -8  12   4   65.93   50.72
  12  -4   8   -0.13   68.29
   8 -12   4   28.18   87.88
   4  -8  12   -4.27   96.39
   8  12  -4   31.74   48.73
   4   8 -12   12.45   46.58
  -6  -8  12   -3.39  100.15
  -8 -12   6   13.08   88.48
  -6   8 -12   11.82   48.08
  -8  12  -6   -2.58   41.64
 -12   6  -8   41.49   45.84
   8  12   6   11.57   31.91
   6  12  -8    3.54   58.93
   8  -6  12  -27.92   99.14
   6 -12   8  -39.35  103.99
  12  -8   6   20.78   93.23
  -8  -6 -12    5.15   33.31
  -6 -12  -8   -0.88   33.88
   6  12   8   21.58   33.06
 -12   8  -6   17.72   39.69
  -6  12  -8    7.98   45.45
  -8   6 -12   20.87   45.60
  -6 -12   8   13.68   98.87
 -12  -6  -8   28.58   21.49
  -8 -12  -6    9.08   31.36
  12  -6   8    6.25   92.19
   8 -12   6   -8.67  103.57
   6  -8  12   11.08  102.48
   8  12  -6   57.25   57.44
   6   8 -12   -4.39   55.11
   8  12   8   37.16   33.38
 -12   8  -8  187.43   69.25
  -8  12  -8  129.19   64.10
  -8   8 -12   76.63   64.78
  -8 -12   8  -14.29  117.86
  -8 -12  -8   60.54   36.07
  12  -8   8   60.25  106.38
   8 -12   8   -0.79  112.59
   8  -8  12   74.65  112.89
   8  12  -8   60.89   70.61
  -1  -9  12    3.04  110.30
  -9 -12   1   10.00   68.88
  -1   9 -12   22.76   47.74
  -9  12  -1  105.47   49.31
 -12   1  -9  103.25   42.45
   9 -12  -1   14.77   88.25
   9  12   1   30.12   47.49
  12   1   9   49.62   56.79
   1  12  -9   17.15   52.06
   9  -1  12   11.30   75.24
   1 -12   9   29.98  105.79
  12  -9   1   -7.87   66.91
 -12   9   1   23.62   43.91
  -9  -1 -12   29.96   38.72
   9   1  12   20.09   58.41
  12  -9  -1   -1.77   87.77
 -12   9  -1   68.00   43.65
  -1  12  -9   54.39   51.18
  -9   1 -12   54.20   43.03
  -1 -12   9    9.88  103.76
 -12  -1  -9   76.87   34.61
  -9 -12  -1    6.35   67.99
  -9  12   1   65.28   45.15
  12  -1   9   11.93   68.34
   9 -12   1  123.00  101.18
   1  -9  12   34.43  108.45
   9  12  -1   33.28   41.01
   1   9 -12   24.37   43.97
  -3  -9  12   -5.34  115.87
  -9 -12   3   15.15   76.43
  -3   9 -12   21.06   47.78
  -9  12  -3   73.64   47.19
 -12   3  -9   76.50   39.57
   9 -12  -3    9.93   97.60
   9  12   3   54.58   45.03
  12   3   9   38.53   52.50
   3  12  -9   32.28   52.86
   9  -3  12   45.60   89.90
   3 -12   9   -8.30  100.19
  12  -9   3  -11.66   85.98
  -9  -3 -12   46.20   34.26
   9   3  12   29.98   57.84
 -12   9  -3  116.41   51.79
  -3  12  -9   47.75   51.68
  -9   3 -12   52.11   47.18
  -3 -12   9   32.31  108.80
 -12  -3  -9   62.43   31.21
  -9 -12  -3   11.31   52.45
  -9  12   3   84.86   51.31
  12  -3   9   16.57   73.23
   9 -12   3   15.83   87.56
   3  -9  12   21.68  105.47
   9  12  -3   35.40   48.48
   3   9 -12   17.31   51.33
  -5  -9  12   -8.33  107.68
  -9 -12   5    5.61   85.88
  -5   9 -12   -5.63   51.56
  -9  12  -5    1.44   44.53
 -12   5  -9   32.82   44.13
   9  12   5   17.41   36.17
   5  12  -9  -18.37   65.70
   9  -5  12    2.86  100.61
   5 -12   9  -18.76  117.79
  12  -9   5    9.81   90.82
  -9  -5 -12    9.98   36.44
   9   5  12   -0.96   49.56
 -12   9  -5   33.23   42.44
  -5  12  -9   16.65   48.28
  -9   5 -12   52.66   54.94
  -5 -12   9   28.20  118.56
 -12  -5  -9   39.48   26.35
  -9 -12  -5    4.11   42.80
  12  -5   9    1.24   89.30
   9 -12   5  -40.23  100.51
   5  -9  12    7.88   85.13
   9  12  -5   15.45   52.78
   5   9 -12   -7.10   56.83
  -7  -9  12   14.01  118.74
  -9 -12   7   15.86  104.97
  -7   9 -12   57.82   64.30
  -9  12  -7   70.82   54.26
 -12   7  -9   56.27   55.68
   9  12   7   20.75   32.55
   7  12  -9   26.98   70.19
   9  -7  12   16.24  104.65
   7 -12   9   30.43  124.59
  12  -9   7   -3.18   92.14
  -7 -12  -9    8.98   32.21
   7  12   9   34.49   36.54
 -12   9  -7   84.91   56.93
  -7  12  -9   24.46   55.04
  -9   7 -12   47.49   55.76
  -7 -12   9    4.83  128.07
 -12  -7  -9   29.27   22.07
  -9 -12  -7    2.58   30.29
  12  -7   9   76.82  107.66
   9 -12   7   14.92   96.57
   7  -9  12  -27.28  117.59
   9  12  -7   26.10   75.04
   7   9 -12  -18.07   65.68
   9  12   9   11.07   34.76
 -12   9  -9   26.41   61.16
  -9  12  -9   16.28   59.59
  -9   9 -12   48.87   74.04
  -9 -12   9   22.45  137.65
  -9 -12  -9   15.76   30.95
  12  -9   9   12.16  103.92
   9 -12   9   13.94  135.66
   9  -9  12   46.21  131.68
   9  12  -9   32.50   76.95
  10   0  12  -16.23   71.97
  12 -10   0   -4.58  100.91
 -12  10   0    6.91   42.66
   0  12 -10   -0.21   55.14
 -10   0 -12    0.44   40.95
   0 -12  10  -15.50  101.60
 -12   0 -10   16.85   35.56
 -10 -12   0    6.04   75.43
 -10  12   0   16.60   45.24
  12   0  10   14.13   62.52
  10 -12   0    0.50   83.86
   0 -10  12   -8.59  123.53
  10  12   0   13.03   47.39
   0  10 -12   -3.56   58.53
  -2 -10  12  -36.99  131.93
 -10 -12   2    1.87   79.62
  -2  10 -12  -16.44   53.74
 -10  12  -2    5.30   44.38
 -12   2 -10   11.24   38.64
  10 -12  -2    5.19   88.34
  10  12   2    7.26   45.14
  12   2  10    4.26   52.14
   2  12 -10    7.40   52.56
  10  -2  12  -12.25   84.89
   2 -12  10   10.29  121.92
  12 -10   2   -6.47   96.39
 -12  10   2   -3.28   43.14
 -10  -2 -12   12.25   35.99
  10   2  12   -7.28   62.09
  12 -10  -2  -10.96  107.36
 -12  10  -2   16.88   39.01
  -2  12 -10   12.78   55.55
 -10   2 -12   13.08   44.03
  -2 -12  10  -19.57  118.90
 -12  -2 -10    0.86   28.08
 -10 -12  -2    6.89   67.87
 -10  12   2   12.48   46.41
  12  -2  10   48.59   83.44
  10 -12   2   -0.71   93.68
   2 -10  12  -11.98  126.70
  10  12  -2   22.76   47.37
   2  10 -12   10.66   57.31
  -4 -10  12   51.30  137.16
 -10 -12   4  -11.22   89.20
  -4  10 -12    2.88   56.83
 -10  12  -4   24.71   46.67
 -12   4 -10   26.48   42.23
  10 -12  -4   18.88   97.63
  10  12   4    8.32   44.42
  12   4  10   14.65   51.70
   4  12 -10   12.92   62.88
  10  -4  12   39.49  100.53
   4 -12  10  -13.73  122.77
  12 -10   4    1.96  103.66
 -10  -4 -12   21.03   37.65
  10   4  12   13.03   56.35
 -12  10  -4   31.70   47.02
  -4  12 -10   16.98   46.98
 -10   4 -12   27.75   52.66
  -4 -12  10   10.52  132.55
 -12  -4 -10   12.21   29.30
 -10 -12  -4   19.53   49.04
 -10  12   4   39.39   52.37
  12  -4  10  -11.10   91.69
  10 -12   4   -3.11   98.56
   4 -10  12  -16.18  123.86
  10  12  -4   27.37   54.86
   4  10 -12   25.05   59.89
  -6 -10  12    4.63  139.40
 -10 -12   6   23.10   97.75
  -6  10 -12   15.20   66.32
 -10  12  -6   44.32   50.14
 -12   6 -10   55.66   55.48
  10  12   6   14.15   36.40
   6  12 -10    6.20   71.20
  10  -6  12    1.44  110.59
   6 -12  10   -3.13  135.66
  12 -10   6   32.51   90.68
 -10  -6 -12    2.84   36.17
  10   6  12   33.77   56.77
 -12  10  -6   61.18   54.00
  -6  12 -10   34.89   56.44
 -10   6 -12   39.03   56.73
  -6 -12  10    8.57  121.42
 -12  -6 -10   22.63   26.32
 -10 -12  -6   -1.93   41.10
  12  -6  10   -1.49  105.03
  10 -12   6   15.36   93.58
   6 -10  12   -8.34  129.94
  10  12  -6  -16.88   64.97
   6  10 -12   21.57   69.85
  -8 -10  12   -3.36  127.07
 -10 -12   8  -30.40  122.82
  -8  10 -12   -3.15   67.71
 -10  12  -8   25.30   59.23
 -12   8 -10   18.08   62.07
  10  12   8   -1.66   33.09
   8  12 -10   -2.51   78.37
  10  -8  12    2.59  121.88
   8 -12  10   55.89  141.39
  12 -10   8   19.80  115.35
 -12  10  -8   50.12   69.14
  -8  12 -10   34.41   63.29
 -10   8 -12    5.02   67.72
  -8 -12  10   20.93  147.61
 -12  -8 -10   -3.68   22.30
 -10 -12  -8    0.30   30.64
  12  -8  10    3.66  119.22
  10 -12   8   17.47  131.31
   8 -10  12  -12.78  135.04
  10  12  -8    2.58   85.54
   8  10 -12   19.32   70.62
 -12  10 -10   22.63   73.46
 -10  12 -10    4.03   66.98
 -10  10 -12   29.66   79.16
 -10 -12  10   29.70  140.39
 -10 -12 -10   -1.09   31.29
  12 -10  10    1.12  132.05
  10 -12  10    9.59  140.27
  10 -10  12   13.14  139.65
  10  12 -10   21.11   83.29
  -1 -11  12   43.91  150.85
 -11 -12   1   40.30   89.77
  -1  11 -12    3.21   58.69
 -11  12  -1   38.33   51.24
 -12   1 -11    4.91   35.96
  11 -12  -1   25.29  121.37
  11  12   1    7.44   50.39
  12   1  11   16.64   68.51
   1  12 -11   13.83   55.68
  11  -1  12   48.87   84.69
   1 -12  11   40.51  137.65
  12 -11   1   12.38  110.57
 -12  11   1   29.75   50.59
 -11  -1 -12   23.87   40.93
  11   1  12   21.72   70.27
  12 -11  -1   24.29  119.00
 -12  11  -1   71.12   53.74
  -1  12 -11   24.63   62.84
 -11   1 -12   28.58   40.44
  -1 -12  11   17.06  144.25
 -12  -1 -11   61.13   45.66
 -11 -12  -1   -6.41   75.84
 -11  12   1   75.12   55.41
  12  -1  11   -4.17   80.60
  11 -12   1   53.65  116.77
   1 -11  12  -26.80  142.38
  11  12  -1   15.77   54.84
   1  11 -12    9.70   62.06
  -3 -11  12   37.11  147.49
 -11 -12   3   24.88   94.60
  -3  11 -12   29.02   60.76
 -11  12  -3  106.35   59.13
 -12   3 -11   34.41   48.70
  11 -12  -3   -2.47  123.20
  11  12   3   32.33   52.72
  12   3  11   32.09   65.71
   3  12 -11   10.05   68.66
  11  -3  12   47.17   96.95
   3 -12  11   21.22  136.04
  12 -11   3    7.12  109.16
 -12  11   3    3.44   38.32
 -11  -3 -12   18.31   39.74
  11   3  12   31.13   68.38
  12 -11  -3    2.73  124.83
 -12  11  -3   93.85   57.67
  -3  12 -11   21.06   51.24
 -11   3 -12   24.05   52.00
  -3 -12  11   18.13  140.14
 -12  -3 -11   41.82   37.18
 -11 -12  -3   -0.80   58.52
 -11  12   3   -0.34   52.06
  12  -3  11   74.25  100.18
  11 -12   3    7.79  112.36
   3 -11  12  -15.12  143.38
  11  12  -3   16.23   55.61
   3  11 -12   36.01   65.59
  -5 -11  12  -20.30  147.11
 -11 -12   5    3.37   94.81
  -5  11 -12   18.68   62.01
 -11  12  -5   41.31   52.42
 -12   5 -11   21.99   53.50
  11  12   5   -2.69   45.46
  12   5  11   44.20   58.55
   5  12 -11   19.58   76.95
  11  -5  12    4.93  107.30
   5 -12  11   19.48  142.76
  12 -11   5  -10.47  102.79
 -11  -5 -12    9.69   40.45
  12  11   5   19.32   41.56
  11   5  12   16.43   58.76
 -12  11  -5   48.09   56.09
  -5  12 -11    7.49   59.64
 -11   5 -12   47.58   59.64
  -5 -12  11   10.55  143.38
 -12  -5 -11   10.76   34.33
 -11 -12  -5    3.33   47.46
  12  -5  11   20.45  107.66
  11 -12   5   -1.28   95.39
   5 -11  12    7.62  121.64
  11  12  -5    3.24   64.95
   5  11 -12    3.44   71.48
  -7 -11  12   33.35  154.45
  -7  11 -12   -2.66   72.73
 -11  12  -7   20.01   58.58
 -12   7 -11   35.77   72.55
  11  12   7    0.48   39.49
   7  12 -11   -9.95   73.08
  11  -7  12   10.91  119.61
   7 -12  11    2.08  145.50
  12 -11   7   31.45  125.95
 -11  -7 -12    0.30   37.26
 -12 -11  -7    2.22   32.70
  12  11   7  -10.88   36.75
 -12  11  -7    9.03   58.74
  -7  12 -11    9.37   64.41
 -11   7 -12   21.61   67.74
  -7 -12  11  -11.51  126.08
 -12  -7 -11   -4.06   31.21
 -11 -12  -7    8.85   40.96
  12  -7  11    3.03  129.19
  11 -12   7   16.75  130.44
   7 -11  12   15.37  135.41
  11  12  -7   -6.45   79.75
   7  11 -12    3.31   71.13
  -9 -11  12    4.90  140.89
  -9  11 -12   -1.97   82.88
 -11  12  -9    8.68   57.90
 -12   9 -11   -3.93   73.93
  11  12   9    4.10   31.99
   9  12 -11   -8.12   78.28
  11  -9  12  -13.60  134.05
   9 -12  11   -8.35  146.12
  12 -11   9   10.98  131.31
 -12 -11  -9   -1.12   23.41
  12  11   9   -6.05   25.90
 -12  11  -9    4.79   70.10
  -9  12 -11   -2.14   72.16
 -11   9 -12   -2.86   75.19
  -9 -12  11  -35.69  142.76
 -12  -9 -11   -2.20   26.92
 -11 -12  -9   15.50   28.61
  12  -9  11   26.22  132.55
  11 -12   9   20.17  142.76
   9 -11  12  -25.60  149.23
  11  12  -9    3.86   80.09
   9  11 -12   -7.87   80.90
 -12   0 -12   32.87   46.85
 -12 -12   0  -16.74   81.83
 -12  12   0   39.01   46.39
  12   0  12   20.50   88.50
  12 -12   0   44.22  124.05
   0 -12  12   10.92  154.45
  12  12   0    5.57   55.86
   0  12 -12    9.98   60.60
  12  12   2    1.03   53.65
  12   2  12   18.22   68.86
  12 -12  -2    3.15  126.33
 -12  12  -2   48.23   54.84
  -2  12 -12   33.63   64.78
 -12   2 -12   18.10   45.49
  -2 -12  12   39.39  154.32
 -12  -2 -12   43.17   47.39
 -12 -12  -2   -0.07   78.76
 -12  12   2   75.83   60.54
  12  -2  12   20.86   92.27
  12 -12   2   10.78  125.71
   2 -12  12   43.36  158.56
  12  12  -2    7.48   57.50
   2  12 -12   40.67   73.28
  12  12   4   19.74   50.52
  12   4  12   28.89   66.92
  12 -12  -4   15.01  116.49
 -12  12  -4  233.36   86.00
  -4  12 -12   51.19   69.19
 -12   4 -12  122.10   67.92
  -4 -12  12   18.03  158.80
 -12  -4 -12   87.20   49.25
 -12 -12  -4    5.42   57.13
  12  -4  12   50.38  107.25
  12 -12   4   20.41  124.31
   4 -12  12    2.29  148.61
   4  12 -12   79.83   79.83
  12  12   6   10.11   48.13
  12   6  12   -2.61   59.38
 -12  12  -6   -5.46   63.65
  -6  12 -12  -17.76   67.23
 -12   6 -12    3.05   63.11
  -6 -12  12  -42.61  154.07
 -12  -6 -12    0.12   41.44
 -12 -12  -6    2.27   48.51
  12  -6  12   -5.39  123.63
  12 -12   6   21.39  129.69
   6 -12  12    2.73  143.38
   6  12 -12    0.98   71.89
  12  12   8   -4.86   41.30
 -12  12  -8   33.31   70.44
  -8  12 -12   19.53   76.42
 -12   8 -12   34.80   77.97
  -8 -12  12    7.13  162.79
 -12  -8 -12   -4.82   37.25
 -12 -12  -8    0.97   40.47
  12  -8  12   27.93  125.71
  12 -12   8   51.46  142.14
   8 -12  12  -27.59  160.17
   8  12 -12   10.98   82.60
   0  13   1   50.33   31.95
   0 -13  -1   10.75   46.81
   0  13  -1   17.03   31.75
   0 -13   1   38.35   54.04
  -1 -13   0    7.76   48.81
  -1  13   0   11.34   30.04
   1 -13   0   78.09   53.72
   1  13   0   26.41   34.29
  -2 -13   1   55.05   66.39
  -1   2 -13   10.71   34.72
  -2  13  -1   41.54   30.28
   2 -13  -1   -4.28   48.39
   2  13   1   20.71   29.17
   1  13  -2   27.12   35.12
   2  -1  13  -16.79   82.72
   1 -13   2  -11.40   56.16
  -1  13   2   15.10   27.84
  -1 -13  -2   56.68   53.88
   1  13   2   29.97   28.34
   1 -13  -2   42.64   47.17
  -1  13  -2   19.79   32.71
  -2   1 -13   -8.44   32.46
  -1 -13   2   37.79   67.54
  -2 -13  -1   19.50   55.00
  -2  13   1   34.43   30.83
   2 -13   1   38.11   53.36
   1  -2  13   11.94   71.71
   2  13  -1   23.02   33.45
   0  13   3   30.36   28.84
   3   0  13   14.60   75.94
   0 -13  -3   42.93   45.32
   0  13  -3   18.12   36.02
  -3   0 -13   14.19   36.90
   0 -13   3   42.29   62.63
  -3 -13   0   41.46   62.58
  -3  13   0   51.04   32.89
   3 -13   0   10.48   53.65
   0  -3  13    2.69   78.37
   3  13   0   26.72   32.91
   0   3 -13    4.14   37.30
  -3 -13   2   11.77   63.65
  -2   3 -13   34.96   38.38
  -3  13  -2   76.68   37.20
 -13   2  -3   53.98   31.30
   3 -13  -2  118.69   59.93
   3  13   2   61.66   31.65
   2  13  -3   54.62   40.40
   3  -2  13  -22.08   84.46
   2 -13   3   83.40   67.24
  13  -3   2  -41.39   65.95
  -2  13   3  100.81   40.34
  -2 -13  -3  122.46   59.08
   2  13   3   68.44   34.38
   2 -13  -3   13.83   49.24
 -13   3  -2   13.03   24.06
  -2  13  -3  109.75   40.62
  -3   2 -13   17.65   34.79
  -2 -13   3   17.92   66.45
  -3 -13  -2   20.95   44.28
  -3  13   2   79.85   39.90
  13  -2   3  -20.21   66.20
   3 -13   2   -7.07   59.35
   2  -3  13   13.49   85.13
   3  13  -2   81.45   44.64
  -1  -4  13   48.60   88.33
  -4 -13   1   83.49   70.08
  -1   4 -13   41.39   41.35
  -4  13  -1   96.77   40.95
 -13   1  -4   87.63   36.22
   4 -13  -1    6.02   50.04
   4  13   1  100.91   41.03
   1  13  -4   88.85   46.35
   4  -1  13   19.50   78.93
   1 -13   4   74.10   75.61
  -1  13   4  153.70   49.88
  -4  -1 -13   24.67   37.34
  -1 -13  -4  195.90   70.93
   1  13   4  165.03   51.12
   4   1  13    1.93   70.84
   1 -13  -4   41.13   48.71
  -1  13  -4   62.95   41.49
  -4   1 -13   46.04   36.86
  -1 -13   4   45.44   72.04
  -4 -13  -1   95.09   63.06
  -4  13   1  147.86   49.40
  13  -1   4   -2.73   63.74
   4 -13   1   37.37   57.34
   1  -4  13   47.88   90.06
   4  13  -1   89.77   47.69
   1   4 -13   41.66   41.03
  -4 -13   3  -14.44   70.05
  -3   4 -13   29.46   42.22
  -4  13  -3  103.80   44.32
 -13   3  -4  134.29   43.52
   4 -13  -3  123.51   63.30
   4  13   3   89.82   38.53
   3  13  -4   48.55   44.71
   4  -3  13   29.50   86.86
   3 -13   4   90.76   75.65
  13  -4   3   15.64   68.27
  -3  13   4   95.99   40.60
  -3 -13  -4    5.83   41.06
   3  13   4   89.56   37.79
   3 -13  -4   73.60   66.05
 -13   4  -3   88.20   39.04
  -3  13  -4   70.22   40.95
  -4   3 -13   23.36   39.24
  -3 -13   4   42.91   77.64
  -4 -13  -3   77.69   54.70
  -4  13   3  162.79   55.06
  13  -3   4   -2.43   64.02
   4 -13   3   25.49   53.11
   3  -4  13   17.40   82.95
   4  13  -3   79.60   48.49
   0  13   5   19.66   29.15
   5   0  13   17.88   75.12
   0 -13  -5   -5.22   45.73
   0  13  -5   10.89   41.44
  -5   0 -13   22.17   39.70
   0 -13   5  -14.23   68.09
 -13   0  -5   16.90   28.02
  -5 -13   0  -19.86   57.82
  -5  13   0   45.34   34.80
  13   0   5    0.92   57.49
   5 -13   0   45.41   59.28
   0  -5  13   -4.02   88.61
   5  13   0   -1.79   35.12
   0   5 -13   -2.44   41.21
  -2  -5  13   15.56   95.41
  -5 -13   2   -4.19   68.09
  -2   5 -13   52.51   44.57
  -5  13  -2  237.47   70.03
 -13   2  -5  232.62   65.13
   5 -13  -2   46.49   61.81
   5  13   2  199.26   60.91
  13   2   5   -2.10   43.77
   2  13  -5  114.43   56.44
   5  -2  13   15.28   81.40
   2 -13   5   94.22   80.05
  13  -5   2  -10.50   67.71
  -5  -2 -13   57.67   39.76
   2  13   5  285.01   76.52
   5   2  13   10.19   66.24
   2 -13  -5   19.44   53.32
 -13   5  -2  177.35   54.43
  -2  13  -5  120.96   51.46
  -5   2 -13   80.80   43.47
  -2 -13   5   85.03   79.18
  -5 -13  -2   87.91   59.68
  13  -2   5   17.71   67.17
   5 -13   2   49.29   59.25
   2  -5  13   99.29   94.50
   5  13  -2  138.40   56.26
   2   5 -13   39.78   43.05
  -5 -13   4    4.87   80.55
  -4   5 -13   21.89   44.64
  -5  13  -4   66.60   41.32
 -13   4  -5   56.67   34.52
   5 -13  -4   -4.22   58.25
   5  13   4   11.88   30.29
   4  13  -5   23.85   46.47
   5  -4  13   12.26   84.66
   4 -13   5    4.29   75.65
  13  -5   4   16.25   77.81
  -4  13   5   74.30   40.97
  -4 -13  -5   48.38   47.67
   4  13   5   47.51   32.07
   4 -13  -5    3.63   59.85
 -13   5  -4   50.75   34.91
  -4  13  -5   59.98   43.78
  -5   4 -13    8.19   43.31
  -4 -13   5  -29.02   82.48
  -5 -13  -4   34.57   47.78
  -5  13   4   60.06   42.09
  13  -4   5    1.42   70.06
   5 -13   4   37.42   77.86
   4  -5  13   35.88   95.48
   5  13  -4   24.24   46.29
  -1  -6  13   -5.13   96.14
  -6 -13   1   10.38   64.61
  -1   6 -13   -1.33   41.92
  -6  13  -1   44.87   38.88
 -13   1  -6   59.85   31.26
   6 -13  -1   68.80   67.44
   6  13   1   33.16   39.83
  13   1   6    8.02   46.26
   1  13  -6   21.20   46.07
   6  -1  13  -20.80   76.93
   1 -13   6   63.60   80.15
  13  -6   1  -33.78   80.67
  -1  13   6   77.60   42.58
  -6  -1 -13   22.29   38.72
  -1 -13  -6   21.18   47.34
   1  13   6   43.20   31.84
   6   1  13  -19.50   73.98
   1 -13  -6   47.93   62.60
 -13   6  -1   32.88   36.64
  -1  13  -6   14.44   41.22
  -6   1 -13   26.77   37.96
  -1 -13   6   18.51   68.59
 -13  -1  -6  112.54   39.30
  -6 -13  -1   -2.37   55.71
  -6  13   1   73.80   37.66
  13  -1   6   -0.12   58.79
   6 -13   1   17.37   68.44
   1  -6  13  -41.87   94.51
   6  13  -1   32.16   41.37
   1   6 -13   24.85   47.43
  -3  -6  13   27.34   97.63
  -6 -13   3   -0.83   74.72
  -3   6 -13   18.06   45.68
  -6  13  -3   38.77   38.05
 -13   3  -6   11.89   33.32
   6 -13  -3   36.28   71.44
   6  13   3   31.48   34.85
  13   3   6   10.31   46.24
   3  13  -6   -0.97   47.07
   6  -3  13    7.10   90.88
   3 -13   6   77.67   89.32
  13  -6   3  -15.72   82.60
  -3  13   6   31.31   37.33
  -6  -3 -13  -12.32   33.42
  -3 -13  -6   -8.94   49.96
   3  13   6   25.44   32.19
   6   3  13   22.90   52.25
   3 -13  -6   15.68   59.54
 -13   6  -3   62.12   41.22
  -3  13  -6   31.75   43.95
  -6   3 -13   27.58   46.40
  -3 -13   6   40.57   84.12
 -13  -3  -6   16.99   24.68
  -6 -13  -3    6.40   47.98
  -6  13   3  107.58   49.17
  13  -3   6   -9.34   73.17
   6 -13   3   30.36   74.05
   3  -6  13  -25.96   87.13
   6  13  -3   24.14   51.61
   3   6 -13  -13.34   43.14
  -6 -13   5   37.49   87.43
  -5   6 -13   17.06   52.26
  -6  13  -5   24.88   42.04
 -13   5  -6   25.61   36.47
   6 -13  -5  -20.78   74.96
   6  13   5   51.85   38.66
   5  13  -6   31.25   52.71
   6  -5  13  -29.11  100.43
   5 -13   6    5.15   98.40
  13  -6   5  -18.77   90.95
  -5  13   6   55.82   45.43
  -5 -13  -6   23.25   46.80
   5  13   6    5.98   31.74
   5 -13  -6    5.39   67.99
 -13   6  -5   27.77   40.82
  -5  13  -6   35.89   43.83
  -6   5 -13   -4.03   45.84
  -5 -13   6   40.87   90.27
  -6 -13  -5   -5.65   44.81
  -6  13   5   50.59   47.28
  13  -5   6   17.45   89.29
   6 -13   5   -2.92   73.94
   5  -6  13  -11.53  104.32
   6  13  -5  -22.93   51.31
   0  13   7   29.56   34.06
   7   0  13  -20.61   82.43
  13  -7   0   20.12   80.24
   0 -13  -7   10.76   53.12
 -13   7   0    8.00   34.82
   0  13  -7   14.94   48.31
  -7   0 -13   27.80   42.88
   0 -13   7   19.84   92.29
 -13   0  -7   50.93   33.58
  -7 -13   0   42.68   68.83
  -7  13   0   34.69   41.86
  13   0   7   -5.31   55.43
   7 -13   0   11.07   60.74
   0  -7  13   43.35   88.95
   7  13   0   37.61   39.74
   0   7 -13    0.23   45.93
  -2  -7  13   40.23  106.29
  -7 -13   2    6.01   75.15
  -2   7 -13   72.29   51.40
  -7  13  -2   97.70   47.64
 -13   2  -7  142.26   49.75
   7 -13  -2   27.93   80.10
   7  13   2   69.47   43.44
  13   2   7   29.37   48.39
   2  13  -7   27.26   51.79
   7  -2  13    4.87   80.46
   2 -13   7   38.05   98.61
  13  -7   2   17.41   74.63
  -2  13   7  124.46   50.49
  -7  -2 -13   17.54   38.37
  -2 -13  -7   40.41   58.53
   2  13   7  131.68   48.09
   7   2  13   58.10   63.72
   2 -13  -7   43.21   60.47
 -13   7  -2   94.70   45.09
  -2  13  -7   61.21   49.98
  -7   2 -13   36.98   41.30
  -2 -13   7   19.48   91.94
 -13  -2  -7  112.26   39.76
  -7 -13  -2   88.75   67.79
  -7  13   2  119.52   53.92
  13  -2   7   24.59   71.22
   7 -13   2   10.08   85.66
   2  -7  13   17.75   78.89
   7  13  -2   50.24   47.83
   2   7 -13   10.64   47.38
  -4  -7  13   40.98  116.64
  -7 -13   4   24.36   83.71
  -4   7 -13   21.32   46.05
  -7  13  -4   17.19   40.93
 -13   4  -7   42.20   38.07
   7 -13  -4   -6.12   73.98
   7  13   4   17.04   36.07
  13   4   7   19.40   47.97
   4  13  -7   21.83   53.42
   7  -4  13  -13.57   84.93
   4 -13   7   22.89  104.10
  13  -7   4    8.13   91.03
  -7  -4 -13    7.70   32.19
  -4 -13  -7   68.50   54.97
   4  13   7   29.97   35.47
   7   4  13    4.07   56.82
 -13   7  -4   19.84   37.20
  -4  13  -7   37.05   47.00
  -7   4 -13    0.22   43.77
  -4 -13   7   22.53  101.74
 -13  -4  -7   10.03   24.78
  -7 -13  -4   20.03   52.85
  -7  13   4   32.10   46.34
  13  -4   7   -7.12   78.35
   7 -13   4  -16.08   94.94
   4  -7  13    4.60  102.85
   7  13  -4   -8.73   54.38
   4   7 -13  -11.54   49.27
  -7 -13   6   34.87   93.84
  -6   7 -13   30.44   57.80
  -7  13  -6   21.12   46.76
 -13   6  -7   25.56   47.85
   7 -13  -6    6.37   82.43
   7  13   6   13.52   37.24
   6  13  -7    8.15   61.67
   7  -6  13   31.02  109.60
   6 -13   7   19.47  109.79
  13  -7   6   11.55   94.39
  -6 -13  -7    7.92   37.39
   6  13   7   -7.48   33.49
 -13   7  -6   34.01   41.79
  -6  13  -7    0.76   52.72
  -7   6 -13   21.42   49.48
  -6 -13   7    7.27  101.00
  -7 -13  -6   -9.14   40.04
  13  -6   7    8.24   97.76
   7 -13   6    2.88  109.56
   6  -7  13   -5.65  107.63
   7  13  -6    0.81   58.76
  -1  -8  13   56.60  117.25
  -8 -13   1   14.45   88.75
  -1   8 -13   17.18   45.68
  -8  13  -1   80.55   49.91
 -13   1  -8   61.41   38.52
   8 -13  -1   72.91   97.50
   8  13   1   48.05   48.04
  13   1   8    6.67   55.76
   1  13  -8   35.86   52.66
   8  -1  13   38.92   91.35
   1 -13   8   24.01  110.78
  13  -8   1   -2.42   88.54
 -13   8   1   10.88   36.98
  -8  -1 -13   -0.61   41.35
  -1 -13  -8   61.33   68.68
   1  13   8   67.26   39.74
   8   1  13    6.03   73.63
  13  -8  -1  -25.40   96.46
 -13   8  -1   80.86   50.27
  -1  13  -8   22.43   51.49
  -8   1 -13   35.12   45.63
  -1 -13   8   28.97  103.49
 -13  -1  -8   67.64   34.89
  -8 -13  -1   14.89   73.56
  -8  13   1   83.01   50.39
  13  -1   8   16.40   71.63
   8 -13   1   -9.44   87.26
   1  -8  13   41.49  110.52
   8  13  -1   10.51   49.83
   1   8 -13   25.17   49.92
  -3  -8  13   12.62  114.45
  -8 -13   3   -1.28   82.02
  -3   8 -13   -9.32   49.80
  -8  13  -3    4.03   43.61
 -13   3  -8   20.51   34.08
   8 -13  -3   -3.37   91.84
   8  13   3   -6.24   40.81
  13   3   8   11.48   49.76
   3  13  -8    9.69   54.10
   8  -3  13   -1.16   87.10
   3 -13   8   -2.27  116.02
  13  -8   3  -22.66   80.85
  -8  -3 -13   -1.85   35.98
  -3 -13  -8    4.41   57.08
   3  13   8   14.31   37.75
   8   3  13   -3.39   61.63
 -13   8  -3    3.91   42.91
  -3  13  -8   -5.60   50.47
  -8   3 -13   15.07   43.86
  -3 -13   8   -4.63  110.52
 -13  -3  -8   15.17   27.56
  -8 -13  -3   -4.75   64.94
  -8  13   3   16.99   51.90
  13  -3   8   20.45   76.53
   8 -13   3  -17.37   98.99
   3  -8  13   14.59  102.11
   8  13  -3   12.52   50.47
   3   8 -13    3.69   53.77
  -5  -8  13  -17.09  131.93
  -8 -13   5   23.57   93.17
  -5   8 -13    0.71   54.21
  -8  13  -5   15.83   47.98
 -13   5  -8   28.14   44.31
   8 -13  -5  -10.57  104.88
   8  13   5   10.01   40.66
  13   5   8   28.31   51.39
   5  13  -8  -10.06   55.66
   8  -5  13   -0.92  106.79
   5 -13   8   20.25  123.74
  13  -8   5   -5.96   95.58
  -8  -5 -13   -3.69   34.15
  -5 -13  -8   11.41   50.59
   5  13   8   19.59   40.55
   8   5  13   -9.27   56.33
 -13   8  -5   22.33   44.22
  -5  13  -8   -2.77   49.75
  -8   5 -13    1.36   56.49
  -5 -13   8   29.85  112.21
 -13  -5  -8   29.16   26.71
  -8 -13  -5   -8.76   44.88
  -8  13   5   13.28   49.77
  13  -5   8  -15.97   92.27
   8 -13   5    7.13  106.13
   5  -8  13    5.22  113.59
   8  13  -5   10.36   55.41
   5   8 -13   13.52   57.57
  -8 -13   7   -6.24  113.15
  -7   8 -13   -0.74   59.16
  -8  13  -7   35.45   47.93
 -13   7  -8   43.42   51.40
   8  13   7   31.28   40.40
   7  13  -8   -6.42   77.40
   8  -7  13   31.03  116.31
   7 -13   8   39.14  131.80
  13  -8   7   34.55  109.75
  -7 -13  -8   26.95   43.30
   7  13   8   12.89   38.28
 -13   8  -7   36.49   48.25
  -7  13  -8   23.54   50.93
  -8   7 -13   -2.04   62.15
  -7 -13   8  -23.75  115.88
  -8 -13  -7   13.27   39.49
  13  -7   8   28.31  102.24
   8 -13   7   63.18  121.22
   7  -8  13    8.50  109.65
   8  13  -7   -0.27   70.78
   9   0  13   12.78   72.80
  13  -9   0    4.06  107.55
 -13   9   0   50.64   49.02
   0  13  -9   11.11   58.93
  -9   0 -13   35.55   47.63
   0 -13   9  -35.38  112.93
 -13   0  -9   42.10   38.35
  -9 -13   0   17.59   84.27
  -9  13   0   62.10   52.12
  13   0   9   12.44   60.28
   9 -13   0   -1.41  102.65
   0  -9  13    0.95  129.56
   9  13   0   19.89   50.58
   0   9 -13   -3.76   54.36
  -2  -9  13   15.71  117.37
  -9 -13   2  -24.13   83.36
  -2   9 -13    0.58   49.47
  -9  13  -2   -2.66   47.29
 -13   2  -9    7.05   34.20
   9 -13  -2  -14.79   96.33
   9  13   2   30.60   54.62
  13   2   9   10.43   59.65
   2  13  -9   -3.62   58.30
   9  -2  13   -2.78   90.78
   2 -13   9   13.07  131.18
  13  -9   2   -9.42  102.06
  -9  -2 -13    2.99   41.82
   9   2  13   19.50   65.93
 -13   9  -2   50.07   48.78
  -2  13  -9   -3.60   54.14
  -9   2 -13   13.22   47.31
  -2 -13   9   24.21  124.00
 -13  -2  -9    8.39   32.63
  -9 -13  -2    9.23   71.54
  -9  13   2   49.00   53.03
  13  -2   9   -7.82   75.02
   9 -13   2   42.71  109.49
   2  -9  13  -55.20  121.11
   9  13  -2  -12.99   56.83
   2   9 -13    6.03   57.87
  -4  -9  13    6.16  141.39
  -9 -13   4  -31.52  104.82
  -4   9 -13   19.94   60.20
  -9  13  -4   20.76   48.63
 -13   4  -9   36.60   49.16
   9 -13  -4   19.99  105.88
   9  13   4    7.52   42.47
  13   4   9   15.01   51.49
   4  13  -9   20.91   66.19
   9  -4  13    6.84   99.03
   4 -13   9  -18.54  115.26
  13  -9   4   19.04  102.96
  -9  -4 -13    2.34   38.94
  -4 -13  -9   -7.51   59.74
   9   4  13   -9.23   62.43
 -13   9  -4   44.22   56.44
  -4  13  -9   14.77   56.52
  -9   4 -13   -0.23   51.46
  -4 -13   9  -46.24  131.18
 -13  -4  -9   49.45   34.72
  -9 -13  -4  -11.23   53.99
  -9  13   4   26.35   56.74
  13  -4   9  -16.68   83.56
   9 -13   4    0.76  103.90
   4  -9  13  -32.92  110.91
   9  13  -4    4.84   63.30
   4   9 -13   -0.52   60.23
  -6  -9  13  -32.37  141.14
  -9 -13   6   21.49  107.47
  -6   9 -13   31.10   66.80
  -9  13  -6   49.51   47.64
 -13   6  -9   59.89   55.86
   9  13   6   36.58   44.22
   6  13  -9    9.75   75.32
   9  -6  13   -6.19  109.09
   6 -13   9   -1.64  106.52
  13  -9   6   66.09  116.57
  -9  -6 -13    2.65   36.03
  -6 -13  -9   26.78   47.56
   6  13   9   22.99   42.60
   9   6  13    5.88   56.60
 -13   9  -6   70.80   54.92
  -6  13  -9   33.29   54.56
  -9   6 -13   29.32   60.52
  -6 -13   9   45.03  141.89
 -13  -6  -9   20.75   26.34
  -9 -13  -6   11.85   40.96
  13  -6   9   10.46  104.63
   9 -13   6  114.88  127.07
   6  -9  13  -15.62  123.64
   9  13  -6   29.75   79.47
   6   9 -13    4.64   64.43
  -9 -13   8    9.98  130.31
  -8   9 -13    7.50   69.11
  -9  13  -8    2.28   58.17
 -13   8  -9   40.26   63.40
   9  13   8   10.56   37.61
   8  13  -9    2.71   87.72
   9  -8  13    3.71  130.31
   8 -13   9  -47.51  123.33
  13  -9   8    4.21  124.71
  -8 -13  -9    6.31   41.17
   8  13   9    5.27   40.44
 -13   9  -8   53.97   72.47
  -8  13  -9   -8.62   58.12
  -9   8 -13    7.13   71.63
  -8 -13   9   21.26  133.55
 -13  -8  -9    1.41   22.95
  -9 -13  -8   13.33   36.95
  13  -8   9   19.29  108.90
   9 -13   8  -18.42  127.95
   8  -9  13  -17.44  117.63
   9  13  -8  -12.48   81.60
  -1 -10  13   -9.30  134.29
 -10 -13   1   20.26   80.50
  -1  10 -13    9.90   59.42
 -10  13  -1   29.12   51.94
 -13   1 -10    8.38   41.58
  10 -13  -1  -14.42  119.76
  10  13   1   -0.72   52.97
  13   1  10   14.65   66.00
   1  13 -10   -3.14   65.86
  10  -1  13   37.23   93.95
   1 -13  10    4.18  144.25
  13 -10   1   47.97  103.59
 -13  10   1   14.49   49.66
 -10  -1 -13   22.23   45.83
  10   1  13    5.49   68.22
  13 -10  -1   -0.51  111.99
 -13  10  -1   20.10   50.02
  -1  13 -10   26.48   62.08
 -10   1 -13   28.21   49.50
  -1 -13  10    6.69  111.86
 -13  -1 -10   52.42   39.95
 -10 -13  -1  -21.54   82.68
 -10  13   1   25.12   51.61
  13  -1  10   24.54   83.05
  10 -13   1   -3.05  124.11
   1 -10  13  -21.78  137.78
  10  13  -1    4.65   57.79
   1  10 -13   -4.19   62.14
  -3 -10  13   26.96  150.48
 -10 -13   3   18.18  109.54
  -3  10 -13   20.10   62.88
 -10  13  -3   66.31   55.65
 -13   3 -10   77.16   54.02
  10 -13  -3   23.71  119.30
  10  13   3   11.86   55.40
  13   3  10   18.33   61.37
   3  13 -10   19.84   69.50
  10  -3  13    5.27   96.82
   3 -13  10  -17.96  128.19
  13 -10   3   -6.09   97.08
 -10  -3 -13   30.70   42.70
  10   3  13    3.68   68.84
 -13  10  -3   67.38   57.26
  -3  13 -10   30.04   63.25
 -10   3 -13   41.89   51.81
  -3 -13  10   -8.64  143.01
 -13  -3 -10   35.08   34.61
 -10 -13  -3   19.45   67.38
 -10  13   3   40.45   48.99
  13  -3  10   -2.88   82.07
  10 -13   3   25.05  116.46
   3 -10  13   21.46  130.68
  10  13  -3   33.07   67.26
   3  10 -13   21.28   64.61
  -5 -10  13   14.74  143.88
 -10 -13   5   -4.30   99.65
  -5  10 -13   13.25   65.14
 -10  13  -5   37.18   51.03
 -13   5 -10   55.57   56.08
  10 -13  -5   -8.13  114.39
  10  13   5   14.46   46.91
  13   5  10   57.04   58.78
   5  13 -10   -4.34   75.42
  10  -5  13   15.00  110.96
   5 -13  10  -10.99  146.62
  13 -10   5  -18.00   96.18
 -10  -5 -13   12.97   42.51
  10   5  13    4.99   64.86
 -13  10  -5   31.38   56.50
  -5  13 -10   13.11   55.10
 -10   5 -13   42.70   63.49
  -5 -13  10    3.63  134.42
 -13  -5 -10   36.37   33.74
 -10 -13  -5   -2.93   55.06
  13  -5  10    9.32  104.18
  10 -13   5   22.64  127.82
   5 -10  13   12.30  139.52
  10  13  -5  -12.93   68.96
   5  10 -13  -20.40   73.07
  -7 -10  13  -23.29  147.24
 -10 -13   7  -28.20  120.76
  -7  10 -13   -1.16   71.39
 -10  13  -7    5.83   58.74
 -13   7 -10    9.03   64.69
  10  13   7    4.06   43.03
   7  13 -10  -24.43   80.54
  10  -7  13  -14.92  110.47
   7 -13  10  -25.22  112.05
  13 -10   7    3.50  126.08
 -10  -7 -13  -13.37   39.43
  -7 -13 -10   -0.55   45.64
  10   7  13   21.43   61.20
 -13  10  -7    4.20   68.66
  -7  13 -10    5.43   57.85
 -10   7 -13   -1.78   78.11
  -7 -13  10   18.62  153.95
 -13  -7 -10  -10.51   27.51
 -10 -13  -7   10.50   42.50
  13  -7  10   -0.37  115.36
  10 -13   7    7.63  133.67
   7 -10  13  -16.75  142.76
  10  13  -7   -6.41   79.26
   7  10 -13    6.13   78.00
 -10 -13   9    9.22  138.40
  -9  10 -13    5.52   79.70
 -10  13  -9    8.71   66.05
 -13   9 -10  -10.69   74.09
  10  13   9    2.68   39.38
   9  13 -10   -4.88   82.32
  10  -9  13   -7.17  142.51
   9 -13  10   -3.57  151.59
  13 -10   9    8.52  135.91
  -9 -13 -10    6.84   41.22
   9  13  10   -0.69   41.91
 -13  10  -9    6.32   73.01
  -9  13 -10  -20.62   69.06
 -10   9 -13   12.26   90.95
  -9 -13  10   -1.82  140.02
 -13  -9 -10    6.43   21.56
 -10 -13  -9    8.21   37.20
  13  -9  10   11.34  129.81
  10 -13   9   -4.57  146.99
   9 -10  13   24.44  144.63
  10  13  -9  -17.59   86.45
  11   0  13   14.92   92.56
  13 -11   0  -19.18  118.00
 -13  11   0   20.73   45.07
   0  13 -11   -1.46   69.77
 -11   0 -13   21.15   50.14
   0 -13  11   24.29  154.32
 -13   0 -11   19.12   38.42
 -11 -13   0   11.25   94.50
 -11  13   0   26.70   49.87
  13   0  11   12.16   76.31
  11 -13   0   17.90  122.18
   0 -11  13   -3.97  162.41
  11  13   0   -1.43   50.82
   0  11 -13    3.00   65.76
  -2 -11  13  -13.96  154.57
 -11 -13   2    4.64  104.91
  -2  11 -13   11.02   66.31
 -11  13  -2   24.51   51.70
 -13   2 -11   12.82   49.70
  11 -13  -2   -0.07  124.83
  11  13   2    2.66   55.28
  13   2  11  -16.93   69.90
   2  13 -11   11.56   72.82
  11  -2  13   15.96   89.87
   2 -13  11  -27.49  158.43
  13 -11   2    0.18  124.71
 -13  11   2  -15.35   52.25
 -11  -2 -13   12.86   45.99
  11   2  13    3.08   77.71
  13 -11  -2    0.01  125.83
 -13  11  -2   22.79   54.24
  -2  13 -11   -5.54   62.04
 -11   2 -13    7.45   47.80
  -2 -13  11  -25.87  154.45
 -13  -2 -11   12.44   37.56
 -11 -13  -2   -3.61   82.58
 -11  13   2   22.88   57.50
  13  -2  11   -3.90   83.36
  11 -13   2   22.54  128.19
   2 -11  13    2.80  139.90
  11  13  -2  -17.34   66.60
   2  11 -13   -7.54   58.67
  -4 -11  13   28.00  125.83
 -11 -13   4   23.46  108.50
  -4  11 -13   13.67   58.38
 -11  13  -4   44.57   57.08
 -13   4 -11   65.53   65.91
  11 -13  -4   15.20  128.69
  11  13   4   -3.36   55.05
  13   4  11    5.53   64.33
   4  13 -11    1.88   70.27
  11  -4  13   21.51  113.18
   4 -13  11   -9.25  150.60
  13 -11   4   33.87  129.94
 -11  -4 -13   25.33   45.12
  11   4  13    2.34   68.84
 -13  11  -4   55.28   62.71
  -4  13 -11   18.69   69.16
 -11   4 -13   19.10   59.35
  -4 -13  11   16.63  159.80
 -13  -4 -11   32.98   38.48
 -11 -13  -4   23.07   63.42
 -11  13   4    5.93   55.28
  13  -4  11   26.47  100.23
  11 -13   4   25.94  119.32
   4 -11  13  -15.28  146.62
  11  13  -4   21.62   68.13
   4  11 -13   12.01   67.56
  -6 -11  13  -27.97  127.07
 -11 -13   6  -11.95  121.04
  -6  11 -13   -8.73   70.72
 -11  13  -6   21.29   58.08
 -13   6 -11   15.35   69.61
  11  13   6  -13.45   49.60
   6  13 -11   28.02   78.67
  11  -6  13   -0.98  120.54
   6 -13  11    4.77  148.11
  13 -11   6    5.39  135.54
 -11  -6 -13   10.06   46.15
  11   6  13   -0.08   67.52
 -13  11  -6   23.95   56.16
  -6  13 -11   47.06   65.70
 -11   6 -13   -3.35   66.96
  -6 -13  11   -8.22  150.97
 -13  -6 -11    8.83   35.37
 -11 -13  -6   10.86   54.33
  13  -6  11   21.85  126.83
  11 -13   6   -8.99  130.19
   6 -11  13   10.97  156.44
  11  13  -6   19.66   93.03
   6  11 -13   -5.29   70.36
  -8 -11  13  -39.43  156.44
 -11 -13   8   -3.05  128.44
  -8  11 -13    4.51   79.04
 -11  13  -8   11.85   58.11
 -13   8 -11   11.08   86.69
  11  13   8    0.79   41.88
   8  13 -11  -10.74   84.46
  11  -8  13   27.75  135.54
   8 -13  11   11.97  127.32
  13 -11   8    7.59  140.64
 -11  -8 -13    4.92   40.67
 -13  11  -8    3.85   72.57
  -8  13 -11  -14.39   64.99
 -11   8 -13   -6.17   81.25
  -8 -13  11  -13.60  164.53
 -13  -8 -11   -0.70   29.68
 -11 -13  -8    0.89   42.56
  13  -8  11  -12.41  138.53
  11 -13   8  -23.21  151.83
   8 -11  13   -3.32  152.08
  11  13  -8  -17.37  103.38
   8  11 -13   -0.44   87.07
  -1 -12  13    1.13  162.17
 -12 -13   1    7.62   92.25
  -1  12 -13   31.33   70.01
 -12  13  -1   26.17   53.64
 -13   1 -12   11.98   50.74
  12 -13  -1   -6.23  131.43
  12  13   1    0.45   60.00
  13   1  12    7.07   80.97
   1  13 -12   17.25   71.70
  12  -1  13   -0.16   88.85
   1 -13  12   25.74  168.26
  13 -12   1   -1.00  119.94
 -13  12   1   30.09   53.63
 -12  -1 -13   15.40   52.16
  12   1  13   -9.91   78.88
  13 -12  -1   -0.01  133.05
 -13  12  -1   32.28   56.62
  -1  13 -12   10.72   70.58
 -12   1 -13   17.26   55.16
  -1 -13  12   -4.01  166.65
 -13  -1 -12   13.44   47.18
 -12 -13  -1    6.95   94.08
 -12  13   1   -2.96   55.21
  13  -1  12  -20.68  100.36
  12 -13   1   -5.52  120.35
   1 -12  13  -34.14  143.63
  12  13  -1   -0.52   68.46
   1  12 -13  -10.97   73.22
  -3 -12  13   21.31  173.24
 -12 -13   3   -2.67  114.74
  -3  12 -13   10.17   59.89
 -12  13  -3   17.36   55.67
 -13   3 -12   42.30   63.82
  12 -13  -3  -10.91  134.05
  12  13   3   -1.48   56.50
  13   3  12  -21.01   70.56
   3  13 -12    7.34   65.33
  12  -3  13    7.92  110.17
   3 -13  12  -41.93  165.40
  13 -12   3  -12.05  132.18
 -13  12   3    3.56   58.06
 -12  -3 -13  -10.06   45.19
  12   3  13   -8.37   73.41
  13 -12  -3    5.66  140.64
 -13  12  -3   -0.42   57.70
  -3  13 -12    8.63   67.41
 -12   3 -13   -5.83   57.44
  -3 -13  12   -8.32  165.78
 -13  -3 -12   13.45   40.71
 -12 -13  -3    1.89   72.85
 -12  13   3    6.91   60.15
  13  -3  12   -2.67   99.89
  12 -13   3   -3.74  131.80
   3 -12  13   30.95  166.15
  12  13  -3    7.15   65.95
   3  12 -13   12.66   74.23
  -5 -12  13   14.06  166.77
 -12 -13   5   -4.45  106.79
  -5  12 -13   16.73   78.77
 -12  13  -5    3.99   58.32
 -13   5 -12  -11.18   61.93
  12  13   5    9.75   58.82
  13   5  12    2.87   68.80
   5  13 -12    0.64   71.44
  12  -5  13    8.75  115.16
   5 -13  12  -29.75  166.65
  13 -12   5    0.10  136.04
 -12  -5 -13   -1.53   50.63
  13  12   5  -13.50   53.70
  12   5  13   -4.37   71.80
 -13  12  -5    9.49   64.02
  -5  13 -12   10.07   69.04
 -12   5 -13    8.68   66.61
  -5 -13  12   39.86  133.17
 -13  -5 -12   -4.95   40.05
 -12 -13  -5   -0.71   63.57
  13  -5  12  -57.59  119.51
  12 -13   5  -15.50  114.59
   5 -12  13  -40.13  154.82
  12  13  -5   17.30   80.18
   5  12 -13   19.54   79.65
  -7 -12  13   -0.64  168.76
  -7  12 -13   -9.38   67.43
 -12  13  -7   19.66   72.19
 -13   7 -12   -3.57   77.56
  12  13   7   14.05   50.36
   7  13 -12    6.20   77.31
  12  -7  13   -3.87  137.03
   7 -13  12   -3.09  168.39
  13 -12   7   -8.34  158.68
 -12  -7 -13  -12.69   45.71
 -13 -12  -7    2.06   44.27
  13  12   7   -2.31   48.31
 -13  12  -7   13.11   72.61
  -7  13 -12   -1.08   76.55
 -12   7 -13   -6.76   82.18
  -7 -13  12  -17.11  137.65
 -13  -7 -12   11.63   40.05
 -12 -13  -7   -5.85   53.78
  13  -7  12   -3.53  134.05
  12 -13   7   -7.92  152.46
   7 -12  13  -13.68  174.61
  12  13  -7   -2.12   96.34
   7  12 -13    2.67   84.31
 -13   0 -13    5.05   54.87
 -13 -13   0    7.15   95.11
 -13  13   0    4.32   50.21
  13   0  13    0.58  100.00
  13 -13   0   25.83  145.99
   0 -13  13   25.36  185.44
  13  13   0    5.17   71.53
   0  13 -13  -11.00   66.35
  13  13   2    2.17   62.02
  13   2  13   13.06   81.41
  13 -13  -2   -7.42  143.50
 -13  13  -2   12.87   61.74
  -2  13 -13    6.35   61.61
 -13   2 -13   -2.82   53.75
  -2 -13  13  -14.46  180.34
 -13  -2 -13   -3.61   50.47
 -13 -13  -2    7.27   89.46
 -13  13   2   -3.98   59.72
  13  -2  13   -3.67  101.01
  13 -13   2   12.24  137.41
   2 -13  13  -31.54  177.23
  13  13  -2   -9.35   67.20
   2  13 -13    3.84   67.76
  13  13   4   -2.70   60.23
  13   4  13    6.89   71.92
  13 -13  -4  -18.00  156.69
 -13  13  -4    1.17   66.77
  -4  13 -13    0.49   65.89
 -13   4 -13    6.50   68.10
  -4 -13  13   -7.21  181.58
 -13  -4 -13    9.63   51.05
 -13 -13  -4   -6.72   75.55
  13  -4  13   18.22  123.59
  13 -13   4    1.93  147.36
   4 -13  13   -2.24  141.89
   4  13 -13   26.35   90.93
   0 -14   0  195.77   75.87
   0  14   0  186.69   59.37
   1  14   1  100.14   42.44
   1 -14  -1  231.74   84.08
  -1  14  -1  109.45   45.59
  -1 -14   1   73.99   64.33
  -1 -14  -1  176.11   77.67
  -1  14   1  155.94   51.48
   1 -14   1   26.76   58.91
   1  14  -1   72.22   40.13
   0  14   2   45.28   34.60
   0 -14  -2   70.83   61.31
   0  14  -2   44.98   41.06
   0 -14   2   52.51   62.40
  -2 -14   0   18.94   57.30
  -2  14   0   45.20   34.04
   2 -14   0   83.67   60.51
   2  14   0   77.85   41.42
   2  14   2  220.92   64.08
   2 -14  -2  140.39   68.54
  -2  14  -2  133.55   47.57
  -2   2 -14   41.44   40.56
  -2 -14   2   44.12   67.43
  -2 -14  -2   59.34   53.69
  -2  14   2  172.75   54.61
   2 -14   2  362.29  113.22
   2  -2  14   44.25   92.98
   2  14  -2  192.66   64.36
  -3 -14   1   23.93   64.26
  -1   3 -14   22.17   41.32
  -3  14  -1   56.24   40.60
   3 -14  -1  140.64   67.18
   3  14   1   89.54   44.33
   1  14  -3   91.39   47.78
   3  -1  14   16.71   84.12
   1 -14   3   80.66   71.17
  -1  14   3   85.54   41.54
  -1 -14  -3   97.19   56.78
   1  14   3   90.66   42.04
   1 -14  -3   17.87   52.02
  -1  14  -3   68.02   42.28
  -3   1 -14   12.63   39.93
  -1 -14   3    8.26   68.34
  -3 -14  -1  102.82   70.10
  -3  14   1   96.11   45.38
   3 -14   1  111.90   70.05
   1  -3  14  -12.08   86.51
   3  14  -1   38.18   41.05
   3  14   3   73.90   37.37
   3 -14  -3  -22.84   59.68
 -14   3  -3   -2.08   35.06
  -3  14  -3   18.11   40.45
  -3   3 -14    8.19   45.39
  -3 -14   3   43.82   75.00
  -3 -14  -3   15.76   48.43
  -3  14   3    3.97   34.34
  14  -3   3   -0.63   76.75
   3 -14   3   -3.00   65.60
   3  -3  14   -3.00   91.05
   3  14  -3   -0.75   46.90
   0  14   4  101.76   46.09
   4   0  14   16.64   76.72
   0 -14  -4  104.51   60.93
   0  14  -4   61.86   46.09
  -4   0 -14   11.79   35.69
   0 -14   4   60.96   78.94
  -4 -14   0   24.05   62.78
  -4  14   0   64.18   37.82
  14   0   4  -14.54   58.78
   4 -14   0  104.53   70.26
   0  -4  14   13.42   92.96
   4  14   0   56.88   44.07
   0   4 -14   11.55   42.29
  -4 -14   2  -22.03   70.95
  -2   4 -14   -0.38   42.20
  -4  14  -2   14.89   38.83
 -14   2  -4   40.80   31.97
   4 -14  -2   82.96   64.23
   4  14   2   37.49   38.18
   2  14  -4   32.21   46.22
   4  -2  14   15.36   91.86
   2 -14   4   -1.96   59.54
  14  -4   2   -2.64   81.06
  -2  14   4   74.18   41.53
  -2 -14  -4   21.53   49.40
   2  14   4   49.95   34.25
   2 -14  -4   86.29   63.69
 -14   4  -2   11.59   34.18
  -2  14  -4   14.59   40.98
  -4   2 -14   32.48   41.58
  -2 -14   4   42.64   76.33
  -4 -14  -2   -0.22   57.15
  -4  14   2   59.79   40.11
  14  -2   4   -0.56   69.32
   4 -14   2    3.34   71.24
   2  -4  14  -19.42   89.47
   4  14  -2   15.11   43.93
   4  14   4   65.54   39.96
   4 -14  -4  114.91   73.11
 -14   4  -4   66.35   45.94
  -4  14  -4   76.77   49.35
  -4   4 -14   11.95   44.88
  -4 -14   4   83.91   96.18
  -4 -14  -4   27.88   51.59
  -4  14   4   90.94   46.91
  14  -4   4   -7.63   84.71
   4 -14   4  121.45   93.97
   4  -4  14   31.80  102.01
   4  14  -4   46.50   50.69
  -1  -5  14   35.67   97.66
  -5 -14   1    2.30   79.70
  -1   5 -14    7.12   48.83
  -5  14  -1   32.28   36.69
 -14   1  -5   50.85   33.13
   5 -14  -1    3.00   65.76
   5  14   1   12.05   40.91
  14   1   5    8.89   65.33
   1  14  -5   42.25   46.01
   5  -1  14   26.41   83.15
   1 -14   5   24.17   81.48
  14  -5   1   -6.48   78.27
  -1  14   5   45.66   39.22
  -5  -1 -14    8.42   40.75
  -1 -14  -5   35.53   61.67
   1  14   5   55.96   41.00
   5   1  14  -10.37   70.21
   1 -14  -5   15.63   56.07
  -1  14  -5    0.02   41.95
  -5   1 -14   20.09   39.62
  -1 -14   5  -10.41   79.57
 -14  -1  -5    4.71   30.70
  -5 -14  -1   15.01   70.36
  -5  14   1   33.78   42.89
  14  -1   5  -20.95   66.12
   5 -14   1   39.18   73.29
   1  -5  14   -2.51   96.14
   5  14  -1    0.64   47.41
   1   5 -14   17.14   43.08
  -5 -14   3   23.42   82.33
  -3   5 -14    9.64   47.14
  -5  14  -3   12.60   43.86
 -14   3  -5   71.36   40.03
   5 -14  -3   13.39   74.31
   5  14   3   19.07   36.72
   3  14  -5  -12.34   49.85
   5  -3  14   14.05   96.74
   3 -14   5   -6.89   81.47
  14  -5   3    0.69   78.55
  -3  14   5  103.01   49.70
  -3 -14  -5   12.76   57.80
   3  14   5   13.67   35.77
   3 -14  -5   -0.67   64.21
 -14   5  -3   14.86   36.91
  -3  14  -5   19.49   47.61
  -5   3 -14    6.66   49.46
  -3 -14   5   -2.80   85.50
  -5 -14  -3  -11.42   53.32
  -5  14   3   16.84   43.65
  14  -3   5  -19.32   76.57
   5 -14   3   -6.78   67.54
   3  -5  14   23.72  103.67
   5  14  -3   39.60   54.53
   5  14   5  109.77   48.92
   5 -14  -5  118.59   82.65
 -14   5  -5  200.00   67.97
  -5  14  -5  144.13   62.96
  -5   5 -14   68.24   54.36
  -5 -14   5   25.49   90.24
  -5 -14  -5  232.37   85.66
  -5  14   5  213.95   76.85
  14  -5   5   30.67   89.26
   5 -14   5  229.13  128.44
   5  -5  14   37.91  118.21
   5  14  -5   67.41   67.52
   0  14   6   30.57   37.66
   6   0  14   18.18   82.95
   0 -14  -6    7.99   57.51
   0  14  -6  -13.75   49.77
  -6   0 -14   15.71   43.86
   0 -14   6  -16.32  100.28
 -14   0  -6   61.20   34.18
  -6 -14   0    0.13   79.30
  -6  14   0   17.52   44.00
  14   0   6  -11.38   65.65
   6 -14   0   -8.83   83.09
   0  -6  14   18.33   84.61
   6  14   0   13.98   46.73
   0   6 -14   -7.46   47.16
  -2  -6  14    9.06  109.51
  -6 -14   2   76.11   93.39
  -2   6 -14   60.33   52.87
  -6  14  -2  115.25   54.44
 -14   2  -6  149.85   54.18
   6 -14  -2  210.21  108.34
   6  14   2  119.76   52.57
  14   2   6  -16.94   56.22
   2  14  -6   62.49   57.69
   6  -2  14   22.71   92.53
   2 -14   6   54.21   99.53
  14  -6   2   14.30   94.25
  -2  14   6  230.62   72.58
  -6  -2 -14   41.74   42.60
  -2 -14  -6  260.36   93.13
   2  14   6  194.28   63.64
   6   2  14   36.93   76.48
   2 -14  -6   28.02   66.31
 -14   6  -2  121.77   51.74
  -2  14  -6   84.37   60.00
  -6   2 -14   65.91   54.38
  -2 -14   6   42.69  103.69
 -14  -2  -6   95.16   40.70
  -6 -14  -2   23.35   60.05
  -6  14   2  205.11   70.52
  14  -2   6   13.81   78.47
   6 -14   2   76.43   93.78
   2  -6  14   20.25   91.61
   6  14  -2   66.81   57.24
   2   6 -14   19.89   43.32
  -6 -14   4    0.63   89.85
  -4   6 -14   -9.89   51.12
  -6  14  -4    2.01   46.47
 -14   4  -6    1.19   41.03
   6 -14  -4  -13.42   90.64
   6  14   4   23.31   40.03
   4  14  -6    5.33   63.21
   6  -4  14   17.62  109.31
   4 -14   6  -33.70  105.26
  14  -6   4   14.46   97.94
  -4  14   6   28.69   45.00
  -4 -14  -6   21.78   58.06
   4  14   6    5.29   38.79
   4 -14  -6   -5.88   79.64
 -14   6  -4   44.41   43.47
  -4  14  -6  -24.01   49.67
  -6   4 -14   -0.26   58.86
  -4 -14   6  -10.74   92.81
  -6 -14  -4  -16.68   57.31
  -6  14   4   50.26   53.42
  14  -4   6   -9.87   85.71
   6 -14   4   24.61  100.54
   4  -6  14   13.89  113.22
   6  14  -4    2.96   59.90
   6  14   6   46.82   47.13
   6 -14  -6  -20.44   93.37
 -14   6  -6   49.66   48.79
  -6  14  -6   40.50   56.21
  -6   6 -14   10.46   61.21
  -6 -14   6   41.25  125.58
  -6 -14  -6   33.82   55.50
  -6  14   6   51.66   58.26
  14  -6   6    9.22   96.53
   6 -14   6   17.04  118.88
   6  -6  14   37.79  121.69
   6  14  -6   17.18   63.92
  -1  -7  14  -32.52  120.18
  -7 -14   1    7.02   93.68
  -1   7 -14  -11.53   56.78
  -7  14  -1   35.35   48.20
 -14   1  -7   53.12   41.52
   7 -14  -1   10.74   90.93
   7  14   1   40.90   48.87
  14   1   7    0.95   62.28
   1  14  -7   32.42   56.38
   7  -1  14   -0.42   88.74
   1 -14   7   -0.44  102.45
  14  -7   1  -16.95   93.00
  -1  14   7   56.73   44.17
  -7  -1 -14   22.29   45.24
  -1 -14  -7   45.66   72.70
   1  14   7   68.53   48.35
   7   1  14   -0.09   81.57
   1 -14  -7   27.00   65.89
 -14   7  -1   14.05   44.90
  -1  14  -7   22.94   56.74
  -7   1 -14   27.62   50.28
  -1 -14   7   -1.55  114.58
 -14  -1  -7   75.94   40.27
  -7 -14  -1   -0.92   79.77
  -7  14   1   44.49   51.08
  14  -1   7  -12.91   70.07
   7 -14   1   20.27   98.17
   1  -7  14    8.67  108.49
   7  14  -1   36.94   55.89
   1   7 -14   -0.51   52.85
  -3  -7  14   -2.03  126.58
  -7 -14   3   -7.47   88.86
  -3   7 -14    7.90   53.75
  -7  14  -3  -18.10   46.80
 -14   3  -7    7.09   37.20
   7 -14  -3   12.56  102.48
   7  14   3  -18.17   43.14
  14   3   7  -11.65   54.84
   3  14  -7  -13.22   54.18
   7  -3  14   -7.04  103.14
   3 -14   7  -12.52  116.17
  14  -7   3   -6.16   93.54
  -3  14   7   46.67   48.46
  -7  -3 -14    9.07   41.33
  -3 -14  -7   12.93   65.48
   3  14   7   10.72   40.05
   7   3  14  -19.40   60.60
   3 -14  -7  -19.04   84.41
 -14   7  -3   20.88   49.61
  -3  14  -7   -6.12   51.20
  -7   3 -14   13.04   58.46
  -3 -14   7   16.54  111.83
 -14  -3  -7    6.83   31.38
  -7 -14  -3  -18.76   68.70
  -7  14   3   90.51   56.83
  14  -3   7    0.96   85.62
   7 -14   3   24.44  107.10
   3  -7  14   10.24  109.05
   7  14  -3   16.47   61.82
   3   7 -14   40.65   53.54
  -7 -14   5  -21.23  102.60
  -5   7 -14    4.20   57.08
  -7  14  -5    0.08   51.59
 -14   5  -7   36.17   49.56
   7 -14  -5    9.08  101.50
   7  14   5  -14.51   41.84
  14   5   7   -2.58   49.41
   5  14  -7   19.00   73.73
   7  -5  14  -16.19  110.66
   5 -14   7   27.32  130.19
  14  -7   5   -7.49   99.18
  -5 -14  -7    3.78   57.25
   5  14   7  -12.64   46.10
   5 -14  -7   25.83   88.84
 -14   7  -5    3.57   46.72
  -5  14  -7  -17.14   53.79
  -7   5 -14    9.68   56.04
  -5 -14   7   -7.01  111.58
  -7 -14  -5    2.65   57.21
  -7  14   5   15.59   60.01
  14  -5   7   -3.72   98.07
   7 -14   5  -24.54  110.58
   5  -7  14   -4.32  120.86
   7  14  -5    2.59   65.25
   5   7 -14  -10.78   52.58
   7  14   7   46.02   46.68
 -14   7  -7   86.88   60.45
  -7  14  -7   25.58   55.91
  -7   7 -14   22.30   64.01
  -7 -14   7   31.36  125.71
  -7 -14  -7   10.70   50.46
  14  -7   7   38.89  110.76
   7 -14   7   10.91  133.67
   7  -7  14    0.21  111.93
   7  14  -7   25.95   83.60
   0  14   8   45.28   48.99
   8   0  14  -11.47   86.10
  14  -8   0  -31.69   96.63
   0 -14  -8   62.86   84.93
 -14   8   0   13.34   49.80
   0  14  -8   17.64   61.32
  -8   0 -14   12.66   43.73
   0 -14   8  -15.51  121.97
 -14   0  -8   21.82   39.33
  -8 -14   0   17.26   79.40
  -8  14   0   52.46   53.90
  14   0   8    4.98   69.10
   8 -14   0   -2.78  110.50
   0  -8  14    0.28  127.57
   8  14   0   30.72   55.47
   0   8 -14  -11.75   58.10
  -2  -8  14   13.64  128.44
  -8 -14   2    7.51   90.51
  -2   8 -14    7.92   57.86
  -8  14  -2   75.58   56.52
 -14   2  -8   67.87   47.46
   8 -14  -2   38.10  110.03
   8  14   2   49.34   58.00
  14   2   8   -1.14   60.00
   2  14  -8   -3.45   64.38
   8  -2  14   -1.39   92.16
   2 -14   8   15.83  122.11
  14  -8   2   -7.40   99.70
  -8  -2 -14   10.86   44.94
  -2 -14  -8   11.39   60.82
   2  14   8   23.21   40.19
   8   2  14    0.99   70.42
   2 -14  -8   10.77   77.94
 -14   8  -2   39.88   53.49
  -2  14  -8   18.41   51.23
  -8   2 -14    2.47   48.22
  -2 -14   8    9.52  108.59
 -14  -2  -8   59.55   37.90
  -8 -14  -2  -25.48   81.69
  -8  14   2   75.75   59.37
  14  -2   8    6.94   77.41
   8 -14   2   16.23  114.52
   2  -8  14  -24.34  127.07
   8  14  -2    9.58   55.74
   2   8 -14   11.84   49.16
  -4  -8  14   18.78  119.83
  -8 -14   4   12.40  102.62
  -4   8 -14    9.78   61.20
  -8  14  -4    9.94   52.55
 -14   4  -8   24.38   50.69
   8 -14  -4  -20.24  114.13
   8  14   4    0.22   51.30
  14   4   8  -15.45   59.50
   4  14  -8    8.46   77.23
   8  -4  14   -4.39  108.33
   4 -14   8  -29.11  134.67
  14  -8   4  -32.16  104.20
  -8  -4 -14    1.68   45.27
  -4 -14  -8   18.06   68.35
   4  14   8   25.49   45.39
   8   4  14    2.15   64.31
 -14   8  -4   21.78   52.37
  -4  14  -8   -5.63   56.07
  -8   4 -14   30.98   59.32
  -4 -14   8   -4.09  129.56
 -14  -4  -8    9.45   30.08
  -8 -14  -4   -1.51   64.94
  -8  14   4   16.69   55.73
  14  -4   8   32.25   98.15
   8 -14   4   27.11  109.52
   4  -8  14   12.05  129.81
   8  14  -4   -8.43   70.33
   4   8 -14    2.57   61.74
  -8 -14   6  -36.21  115.19
  -6   8 -14    7.94   68.48
  -8  14  -6   14.79   52.76
 -14   6  -8   25.08   60.18
   8 -14  -6   15.77  120.03
   8  14   6   14.41   45.89
  14   6   8   47.95   56.42
   6  14  -8    8.12   75.01
   8  -6  14    2.14  124.59
   6 -14   8  -25.99  137.28
  14  -8   6  -20.39  109.52
  -6 -14  -8    8.33   54.38
   6  14   8    8.36   47.05
 -14   8  -6   14.50   55.78
  -6  14  -8   -9.86   55.92
  -8   6 -14   19.19   71.09
  -6 -14   8   -4.54  133.80
 -14  -6  -8    5.77   28.49
  -8 -14  -6    5.33   51.48
  -8  14   6   -5.90   48.48
  14  -6   8   44.71  114.96
   8 -14   6    6.87  130.06
   6  -8  14   -4.95  125.83
   8  14  -6   19.37   76.99
   6   8 -14   25.07   52.93
   8  14   8   -1.10   43.46
 -14   8  -8    7.22   72.25
  -8  14  -8   20.62   50.41
  -8   8 -14    2.79   76.62
  -8 -14   8    6.24  134.05
  -8 -14  -8    5.11   46.90
  14  -8   8    2.78  123.44
   8 -14   8   46.78  145.00
   8  -8  14  -10.42  137.16
   8  14  -8    0.54   84.68
  -1  -9  14   22.99  138.28
  -9 -14   1   -0.16  103.76
  -1   9 -14   25.55   64.00
  -9  14  -1  105.80   61.56
 -14   1  -9   72.34   48.08
   9 -14  -1   10.40  118.04
   9  14   1   34.38   58.08
  14   1   9   -5.66   71.03
   1  14  -9   30.57   70.26
   9  -1  14   39.14   98.22
   1 -14   9   27.32  137.65
  14  -9   1   43.20  121.52
 -14   9   1   32.67   54.74
  -9  -1 -14   23.24   52.48
   9   1  14   16.64   92.83
  14  -9  -1    6.62  111.11
 -14   9  -1   54.04   54.30
  -1  14  -9   15.74   56.23
  -9   1 -14   27.04   54.84
  -1 -14   9   15.15  138.53
 -14  -1  -9   47.73   41.05
  -9 -14  -1   12.52   90.99
  -9  14   1   66.60   58.82
  14  -1   9   11.65   78.23
   9 -14   1    9.47  124.42
   1  -9  14   -4.56  143.88
   9  14  -1   18.83   64.92
   1   9 -14    0.83   51.39
  -3  -9  14  -38.50  133.30
  -9 -14   3    9.16  102.33
  -3   9 -14   14.67   61.56
  -9  14  -3    3.36   53.36
 -14   3  -9   27.77   44.43
   9 -14  -3   17.66  122.16
   9  14   3   15.63   58.89
  14   3   9  -12.82   59.72
   3  14  -9    3.55   63.85
   9  -3  14   -2.42  105.78
   3 -14   9   -9.96  146.24
  14  -9   3  -29.40  116.03
  -9  -3 -14   14.06   46.24
  -3 -14  -9  -18.99   72.56
   3  14   9   19.14   47.99
   9   3  14  -15.67   72.93
 -14   9  -3   14.79   52.22
  -3  14  -9    9.92   60.65
  -9   3 -14    5.04   61.76
  -3 -14   9   16.60  141.76
 -14  -3  -9   15.78   35.91
  -9 -14  -3  -13.40   80.52
  -9  14   3   19.93   51.94
  14  -3   9   -1.58   88.83
   9 -14   3   -6.99  119.31
   3  -9  14  -21.03  149.73
   9  14  -3   -0.91   61.92
   3   9 -14   -7.48   64.57
  -5  -9  14   -9.61  145.00
  -9 -14   5    5.66  110.88
  -5   9 -14   20.44   72.77
  -9  14  -5   17.10   46.36
 -14   5  -9   22.28   53.84
   9 -14  -5  -13.19  115.25
   9  14   5    6.46   46.01
  14   5   9   16.57   57.21
   5  14  -9    8.87   79.78
   9  -5  14  -13.23  119.97
   5 -14   9    0.47  145.75
  14  -9   5   34.91  121.64
  -9  -5 -14   16.48   44.33
  -5 -14  -9    7.96   64.89
   5  14   9    1.06   50.63
   9   5  14   39.06   73.60
 -14   9  -5   28.44   55.47
  -5  14  -9   -6.17   60.29
  -9   5 -14    1.47   65.89
  -5 -14   9   23.67  152.08
 -14  -5  -9   20.46   33.01
  -9 -14  -5   -3.18   58.47
  -9  14   5   37.39   59.90
  14  -5   9  -18.43  104.68
   9 -14   5   23.63  126.08
   5  -9  14   -8.32  136.29
   9  14  -5  -15.33   72.76
   5   9 -14   12.47   69.20
  -9 -14   7   12.98  119.44
  -7   9 -14   21.43   73.51
  -9  14  -7   32.57   58.05
 -14   7  -9   16.73   73.12
   9  14   7  -11.06   49.17
   7  14  -9    5.94   91.69
   9  -7  14  -42.59  134.17
   7 -14   9  -10.39  142.51
  14  -9   7  -26.82  128.32
  -7 -14  -9   17.06   51.43
   7  14   9    7.28   46.68
 -14   9  -7    9.88   72.92
  -7  14  -9   25.03   59.39
  -9   7 -14   18.36   76.59
  -7 -14   9  -46.90  141.14
 -14  -7  -9   27.48   32.09
  -9 -14  -7    6.27   52.22
  14  -7   9   -6.09  103.49
   9 -14   7    8.88  123.70
   7  -9  14    4.05  118.69
   9  14  -7  -11.93   85.17
   7   9 -14    5.66   53.21
   9  14   9    8.48   46.98
 -14   9  -9   34.65   79.67
  -9  14  -9   22.56   69.10
  -9   9 -14    5.19   85.28
  -9 -14   9   -6.04  145.50
  -9 -14  -9    2.18   45.09
  14  -9   9   15.08  133.55
   9 -14   9  -16.03  146.12
   9  -9  14    2.03  146.87
   9  14  -9   15.42   93.23
  10   0  14   14.45   86.80
  14 -10   0   12.04  123.03
 -14  10   0   37.54   60.93
   0  14 -10  -22.80   69.42
 -10   0 -14   17.31   57.06
   0 -14  10   32.57  153.33
 -14   0 -10   27.52   46.41
 -10 -14   0    2.80   96.72
 -10  14   0   59.38   54.96
  14   0  10   14.05   85.39
  10 -14   0   33.09  135.29
   0 -10  14  -22.70  135.79
  10  14   0   24.88   65.49
   0  10 -14   14.46   65.43
  -2 -10  14   -5.25  159.80
 -10 -14   2   40.79  112.34
  -2  10 -14   11.49   73.84
 -10  14  -2   97.40   63.46
 -14   2 -10   85.32   55.99
  10 -14  -2   24.83  120.85
  10  14   2   10.99   60.10
  14   2  10   42.08   70.21
   2  14 -10   13.17   72.70
  10  -2  14   -8.40   95.98
   2 -14  10   -3.98  157.19
  14 -10   2   22.38  124.42
 -10  -2 -14   26.57   53.42
  10   2  14   29.51   79.88
  14 -10  -2  -45.69  125.08
 -14  10  -2   48.33   60.52
  -2  14 -10   45.65   70.14
 -10   2 -14   52.11   64.78
  -2 -14  10  -15.31  123.15
 -14  -2 -10   51.91   42.70
 -10 -14  -2   -4.36   92.80
 -10  14   2   61.72   61.16
  14  -2  10   21.77   85.44
  10 -14   2    8.76  133.17
   2 -10  14    7.83  150.10
  10  14  -2    2.22   71.75
   2  10 -14    2.77   68.51
  -4 -10  14  -27.32  163.78
 -10 -14   4  -25.58  106.75
  -4  10 -14   -4.25   72.39
 -10  14  -4   30.41   53.84
 -14   4 -10    3.62   58.71
  10 -14  -4  -14.59  123.63
  10  14   4   -0.70   59.12
  14   4  10   -6.31   65.47
   4  14 -10  -12.89   78.05
  10  -4  14  -24.87  118.00
   4 -14  10   22.05  151.96
  14 -10   4    4.83  123.58
 -10  -4 -14    2.33   50.51
  10   4  14   -7.02   79.91
 -14  10  -4    9.37   62.01
  -4  14 -10    6.92   66.55
 -10   4 -14  -20.29   63.01
  -4 -14  10  -27.63  160.05
 -14  -4 -10   22.98   37.35
 -10 -14  -4  -12.23   70.80
 -10  14   4   11.64   58.45
  14  -4  10   -0.04  111.33
  10 -14   4   -0.71  115.44
   4 -10  14  -42.27  161.79
  10  14  -4   -1.80   69.98
   4  10 -14   21.43   71.46
  -6 -10  14   -9.18  161.29
 -10 -14   6  -18.12  121.97
  -6  10 -14   42.94   80.29
 -10  14  -6   83.95   64.05
 -14   6 -10   78.92   68.89
  10  14   6   14.74   50.80
  14   6  10   14.35   64.07
   6  14 -10   13.85   80.82
  10  -6  14   31.51  136.29
   6 -14  10   -0.30  155.57
  14 -10   6   14.15  110.36
 -10  -6 -14    3.28   46.98
  -6 -14 -10   21.28   54.23
  10   6  14  -25.58   67.98
 -14  10  -6   72.04   69.25
  -6  14 -10   62.73   66.64
 -10   6 -14   48.38   83.67
  -6 -14  10  -16.94  158.31
 -14  -6 -10   23.42   34.84
 -10 -14  -6    6.82   56.59
  14  -6  10   14.51  118.61
  10 -14   6   51.23  142.14
   6 -10  14   14.76  142.38
  10  14  -6   25.75   88.84
   6  10 -14   11.08   75.24
 -10 -14   8   25.46  131.80
  -8  10 -14   -0.73   80.90
 -10  14  -8    3.66   67.51
 -14   8 -10    4.06   77.70
  10  14   8    0.43   45.45
   8  14 -10   26.07   96.23
  10  -8  14   34.35  143.75
   8 -14  10    2.06  154.95
  14 -10   8   -0.53  141.64
  -8 -14 -10   -2.54   51.50
   8  14  10    3.00   51.66
 -14  10  -8   23.39   78.57
  -8  14 -10    2.16   69.70
 -10   8 -14   13.93   86.85
  -8 -14  10   -3.37  173.99
 -14  -8 -10    0.02   30.04
 -10 -14  -8    2.86   46.39
  14  -8  10    8.74  133.42
  10 -14   8  -11.39  154.45
   8 -10  14   -4.79  135.54
  10  14  -8    6.37   96.70
   8  10 -14   -6.56   61.81
  -1 -11  14  -22.85  164.65
 -11 -14   1  -10.82  106.71
  -1  11 -14   11.82   69.25
 -11  14  -1    4.49   56.04
 -14   1 -11   -9.83   43.11
  11 -14  -1   14.01  138.03
  11  14   1  -14.91   65.58
  14   1  11   -2.82   77.36
   1  14 -11    8.65   75.57
  11  -1  14    3.18   91.13
   1 -14  11  -66.66  138.15
  14 -11   1  -11.76  125.71
 -14  11   1   13.37   54.21
 -11  -1 -14   -9.21   55.46
  11   1  14  -25.00   80.31
  14 -11  -1   -8.79  130.44
 -14  11  -1    2.78   58.04
  -1  14 -11   10.64   68.97
 -11   1 -14    4.03   59.62
  -1 -14  11   -1.92  155.69
 -14  -1 -11    6.31   45.68
 -11 -14  -1   12.06   99.28
 -11  14   1   18.87   58.52
  14  -1  11   14.74   92.75
  11 -14   1  -25.38  110.08
   1 -11  14  -10.54  163.29
  11  14  -1    2.06   71.44
   1  11 -14   -6.83   67.83
  -3 -11  14  -23.60  166.15
 -11 -14   3    9.03  103.92
  -3  11 -14   24.57   75.38
 -11  14  -3   49.40   58.92
 -14   3 -11   10.95   52.60
  11 -14  -3  -18.79  121.36
  11  14   3   31.23   69.11
  14   3  11    8.40   77.70
   3  14 -11   28.38   81.13
  11  -3  14    2.72  104.79
   3 -14  11  -11.59  127.45
  14 -11   3   11.06  134.67
 -11  -3 -14    2.77   51.99
  11   3  14   -9.13   79.23
 -14  11  -3   20.65   61.40
  -3  14 -11   21.89   67.03
 -11   3 -14   16.30   71.97
  -3 -14  11  -15.67  168.39
 -14  -3 -11   24.49   43.56
 -11 -14  -3   -8.66   87.35
 -11  14   3   55.71   63.85
  14  -3  11   14.03  107.62
  11 -14   3  -22.88  136.41
   3 -11  14    6.02  167.14
  11  14  -3    5.84   77.35
   3  11 -14   -1.17   71.33
  -5 -11  14   13.67  163.04
 -11 -14   5  -31.13  136.91
  -5  11 -14    8.03   80.28
 -11  14  -5    8.42   64.86
 -14   5 -11    1.30   70.10
  11 -14  -5  -27.46  134.42
  11  14   5    8.92   58.62
  14   5  11    8.23   66.20
   5  14 -11  -20.65   82.08
  11  -5  14    8.87  121.65
   5 -14  11   15.46  144.50
  14 -11   5  -20.00  137.03
 -11  -5 -14   -4.06   52.46
  11   5  14   11.21   75.01
 -14  11  -5   42.68   69.73
  -5  14 -11   19.79   65.18
 -11   5 -14   40.47   72.37
  -5 -14  11   24.10  169.51
 -14  -5 -11   -0.39   37.21
 -11 -14  -5    5.26   66.09
 -11  14   5   23.46   58.11
  14  -5  11  -21.73  122.30
  11 -14   5   35.77  134.17
   5 -11  14   32.25  169.76
  11  14  -5    9.75   92.78
   5  11 -14  -13.67   74.74
  -7 -11  14   15.61  185.94
 -11 -14   7   10.21  138.90
  -7  11 -14   20.26   85.32
 -11  14  -7   15.92   68.53
  11  14   7    2.29   51.80
   7  14 -11   -4.23   89.47
  11  -7  14   16.95  159.80
   7 -14  11   -6.58  170.13
 -11  -7 -14   22.25   53.38
  11   7  14   -0.41   71.82
  -7  14 -11   11.50   74.36
 -11   7 -14   19.05  101.94
  -7 -14  11    1.69  172.99
 -11 -14  -7    5.35   59.65
  11 -14   7   12.73  133.67
   7 -11  14  -32.13  161.29
  11  14  -7  -10.36   99.42
   7  11 -14    0.99   91.88
  12   0  14  -12.91   96.90
  14 -12   0   11.54  113.83
 -14  12   0   -1.49   56.89
   0  14 -12    6.25   78.18
 -12   0 -14    0.80   61.01
   0 -14  12  -22.63  180.71
 -14   0 -12    5.16   53.64
 -12 -14   0    0.03   90.93
 -12  14   0    1.45   59.29
  14   0  12    4.99   91.79
  12 -14   0   16.69  137.16
   0 -12  14   38.08  179.09
  12  14   0   -4.62   75.15
   0  12 -14    5.74   75.42
  -2 -12  14   22.12  178.10
 -12 -14   2   -7.93   99.43
  -2  12 -14    5.27   76.04
 -12  14  -2   -0.15   57.18
 -14   2 -12    5.58   59.83
  12 -14  -2   -1.13  146.87
  12  14   2   18.16   66.95
  14   2  12   12.40   78.92
   2  14 -12    4.40   83.34
  12  -2  14   -1.42  100.06
   2 -14  12    2.80  177.60
  14 -12   2    4.12  143.26
 -14  12   2   -8.35   58.91
 -12  -2 -14    4.44   55.05
  12   2  14   11.66   79.75
  14 -12  -2   26.21  143.01
 -14  12  -2   11.49   65.64
  -2  14 -12   11.13   75.06
 -12   2 -14    1.60   66.93
  -2 -14  12   23.19  177.85
 -14  -2 -12   -6.41   47.52
 -12 -14  -2    9.24   94.66
 -12  14   2   12.89   65.23
  14  -2  12    5.86  107.36
  12 -14   2   -9.75  128.07
   2 -12  14  -15.73  173.87
  12  14  -2   17.69   78.30
   2  12 -14   20.60   79.74
  -4 -12  14    6.40  166.90
 -12 -14   4   24.36  134.29
  -4  12 -14    7.56   80.77
 -12  14  -4  -10.47   65.48
 -14   4 -12   14.19   65.96
  12 -14  -4    4.05  153.33
  12  14   4    9.53   66.15
  14   4  12   -8.00   74.90
   4  14 -12   20.21   86.59
  12  -4  14   33.16  128.32
   4 -14  12   11.49  173.24
  14 -12   4   27.58  147.61
 -12  -4 -14    9.95   55.45
  12   4  14   -1.45   77.82
 -14  12  -4   -5.25   67.99
  -4  14 -12   -4.80   70.49
 -12   4 -14    1.57   73.09
  -4 -14  12    6.15  176.60
 -14  -4 -12    1.35   45.75
 -12 -14  -4    0.48   74.72
 -12  14   4    7.27   74.40
  14  -4  12   40.44  122.71
  12 -14   4   -1.95  151.83
   4 -12  14   -4.11  179.84
  12  14  -4   -9.11   80.97
   4  12 -14    6.60   83.51
  -1 -13  14   18.64  152.33
 -13 -14   1   10.61  121.66
  -1  13 -14   -1.41   81.05
  13  14   1   -6.37   75.87
   1  14 -13    0.92   87.54
   1 -14  13   -8.77  180.46
  13   1  14  -20.20  111.43
  -1  14 -13    4.61   82.47
  -1 -14  13   21.06  186.69
 -13 -14  -1   21.69  107.28
   1 -13  14    6.72  174.86
  13  14  -1   22.22   90.67
   1  13 -14   -9.76   79.21
  -3  13 -14  -17.49   90.76
  -3  14 -13   -4.25   79.44
   0  15   1   42.63   44.97
   0 -15  -1  -12.26   60.85
   0  15  -1   16.17   38.72
   0 -15   1  -14.08   65.44
  -1 -15   0  -11.98   63.55
  -1  15   0   19.58   38.74
   1 -15   0   -6.72   65.04
   1  15   0    4.70   40.14
  -2 -15   1    9.30   69.46
  -1   2 -15   -2.29   43.93
  -2  15  -1    6.70   41.78
   2 -15  -1  -20.66   62.73
   2  15   1   12.51   43.19
   1  15  -2   14.64   47.70
   2  -1  15   -1.79   89.93
   1 -15   2   43.01   71.50
  -1  15   2    8.13   39.20
  -1 -15  -2   22.74   60.01
   1  15   2   47.89   44.39
   1 -15  -2   -5.46   62.15
  -1  15  -2   18.08   42.93
  -2   1 -15    7.52   44.08
  -1 -15   2    5.79   70.57
  -2 -15  -1   22.94   63.36
  -2  15   1   32.65   41.91
   2 -15   1   50.62   74.00
   1  -2  15  -35.16   99.36
   2  15  -1   55.09   49.09
   0  15   3   97.51   46.81
   3   0  15  -28.65   87.98
   0 -15  -3    9.08   60.41
   0  15  -3   45.14   46.56
  -3   0 -15   -4.80   41.97
   0 -15   3   26.01   76.28
  -3 -15   0   62.01   71.40
  -3  15   0   92.91   51.68
   3 -15   0   19.47   70.22
   0  -3  15   42.07  103.96
   3  15   0   51.85   49.01
   0   3 -15    7.66   45.78
  -3 -15   2    4.02   76.53
  -2   3 -15   -7.91   46.37
  -3  15  -2   24.73   46.55
   3 -15  -2    3.27   66.27
   3  15   2   42.42   40.26
   2  15  -3   20.78   45.45
   3  -2  15    1.73  102.68
   2 -15   3   18.72   84.41
  -2  15   3   32.16   42.53
  -2 -15  -3   23.25   72.14
   2  15   3    9.63   41.86
   2 -15  -3   -6.50   64.92
  -2  15  -3   13.06   48.07
  -3   2 -15   -7.07   44.83
  -2 -15   3   14.14   91.40
  -3 -15  -2   14.39   63.67
  -3  15   2   21.21   43.71
  15  -2   3  -16.19   71.79
   3 -15   2   16.68   85.24
   2  -3  15  -33.04  103.10
   3  15  -2    7.28   47.21
  -1  -4  15  -27.16  103.72
  -4 -15   1   -0.91   72.02
  -1   4 -15   -6.74   46.35
  -4  15  -1   16.27   46.17
 -15   1  -4    1.50   33.24
   4 -15  -1   30.53   81.03
   4  15   1   34.11   48.03
   1  15  -4   -6.50   54.46
   4  -1  15    8.15   91.44
   1 -15   4   -0.30   92.61
  -1  15   4   36.16   46.05
  -4  -1 -15  -21.31   39.62
  -1 -15  -4   66.78   73.32
   1  15   4   20.06   43.22
   4   1  15    8.12   81.13
   1 -15  -4   17.93   65.88
  -1  15  -4   26.40   49.95
  -4   1 -15   13.25   51.66
  -1 -15   4   -7.93   79.02
  -4 -15  -1    1.18   69.14
  -4  15   1   38.53   46.93
  15  -1   4  -14.46   73.72
   4 -15   1  -23.83   67.52
   1  -4  15    5.76  104.20
   4  15  -1   -4.52   44.83
   1   4 -15    1.46   49.00
  -4 -15   3   -9.75   85.39
  -3   4 -15   -8.68   48.39
  -4  15  -3   16.91   47.97
 -15   3  -4  -12.02   45.99
   4 -15  -3    2.03   74.87
   4  15   3    6.67   43.32
   3  15  -4   10.97   52.40
   4  -3  15   33.64  110.47
   3 -15   4    4.42  100.25
  15  -4   3  -24.97   92.17
  -3  15   4    1.14   47.64
  -3 -15  -4  -21.54   70.99
   3  15   4   14.18   42.58
   3 -15  -4  -13.08   70.72
 -15   4  -3   -1.06   41.56
  -3  15  -4   33.22   50.19
  -4   3 -15    0.16   48.70
  -3 -15   4  -31.33   87.52
  -4 -15  -3   -5.52   67.11
  -4  15   3    4.04   45.08
  15  -3   4    2.28   94.45
   4 -15   3   -3.01   86.41
   3  -4  15  -11.97  108.75
   4  15  -3   30.58   52.66
   0  15   5   -4.80   41.59
   5   0  15   13.30   85.65
   0 -15  -5   24.22   65.30
   0  15  -5    7.33   54.11
  -5   0 -15    6.83   43.11
   0 -15   5   -1.74  104.02
 -15   0  -5   -8.04   37.35
  -5 -15   0   -8.83   88.73
  -5  15   0    0.84   47.22
  15   0   5   10.85   79.13
   5 -15   0    3.18   91.41
   0  -5  15   -3.70  110.23
   5  15   0   -7.61   51.26
   0   5 -15  -14.74   49.16
  -2  -5  15  -39.20  117.61
  -5 -15   2  -13.58   83.14
  -2   5 -15   12.58   54.28
  -5  15  -2   46.77   55.65
 -15   2  -5   25.13   38.66
   5 -15  -2   25.20   88.29
   5  15   2    2.45   41.30
   2  15  -5   17.04   57.76
   5  -2  15  -29.15   97.46
   2 -15   5   22.23   83.69
  15  -5   2    0.50   89.92
  -2  15   5   35.28   51.60
  -5  -2 -15   -3.29   46.76
  -2 -15  -5   -2.37   60.98
   2  15   5   16.30   39.34
   5   2  15    4.75   78.12
   2 -15  -5   46.02   82.63
 -15   5  -2    1.04   41.16
  -2  15  -5   40.14   54.00
  -5   2 -15    7.70   51.28
  -2 -15   5  -10.43   95.82
  -5 -15  -2   -7.32   66.82
  -5  15   2   25.12   51.90
  15  -2   5   -9.76   85.81
   5 -15   2   20.32   96.32
   2  -5  15   24.49   98.83
   5  15  -2   26.53   51.53
   2   5 -15    0.42   53.23
  -5 -15   4   -3.41   97.54
  -4   5 -15   50.06   57.11
  -5  15  -4   86.15   58.84
 -15   4  -5   91.25   54.81
   5 -15  -4   85.04   90.24
   5  15   4   67.15   49.29
   4  15  -5   39.53   63.74
   5  -4  15    6.22  111.83
   4 -15   5   87.31  114.23
  15  -5   4   41.74  102.70
  -4  15   5  134.54   67.41
  -4 -15  -5   11.76   67.77
   4  15   5   20.34   38.84
   4 -15  -5    5.83   82.81
 -15   5  -4   73.47   55.86
  -4  15  -5   62.04   51.49
  -5   4 -15   27.09   58.27
  -4 -15   5   34.35  101.51
  -5 -15  -4   51.66   71.17
  -5  15   4  138.03   70.34
  15  -4   5    9.11   98.32
   5 -15   4   46.72  112.67
   4  -5  15    5.90  102.95
   5  15  -4   33.45   63.90
  -1  -6  15  -22.23  113.77
  -6 -15   1   -9.20  102.90
  -1   6 -15  -18.48   56.84
  -6  15  -1   41.08   51.90
 -15   1  -6   43.62   38.94
   6 -15  -1    0.41  103.86
   6  15   1    4.19   46.21
  15   1   6  -19.73   76.18
   1  15  -6   21.84   61.16
   6  -1  15    3.86   97.23
   1 -15   6    3.93  117.24
  15  -6   1  -27.08   82.67
  -1  15   6   34.97   47.03
  -6  -1 -15   10.31   48.58
  -1 -15  -6   15.37   67.39
   1  15   6   46.05   45.69
   6   1  15   -7.62   90.57
   1 -15  -6   10.43   71.24
 -15   6  -1   16.68   45.66
  -1  15  -6   24.11   59.29
  -6   1 -15   -7.75   48.53
  -1 -15   6    7.02  121.50
 -15  -1  -6   27.46   38.73
  -6 -15  -1   -5.81   73.65
  -6  15   1   25.31   52.47
  15  -1   6  -14.69   82.13
   6 -15   1   28.04  103.57
   1  -6  15  -20.36  113.38
   6  15  -1   16.40   57.56
   1   6 -15    6.34   56.83
  -3  -6  15   -0.69  132.30
  -6 -15   3  -24.07   96.82
  -3   6 -15   -0.53   66.96
  -6  15  -3   29.62   54.14
 -15   3  -6   57.05   47.98
   6 -15  -3  -11.19   98.63
   6  15   3   19.45   47.85
  15   3   6  -11.55   62.45
   3  15  -6   27.02   70.61
   6  -3  15  -10.25  108.93
   3 -15   6   -0.69   94.69
  15  -6   3  -11.29  102.44
  -3  15   6   62.02   58.22
  -6  -3 -15    3.81   47.73
  -3 -15  -6   22.68   73.32
   3  15   6    8.31   39.79
   6   3  15  -33.19   73.97
   3 -15  -6   25.75   78.82
 -15   6  -3   39.50   50.54
  -3  15  -6   32.70   57.59
  -6   3 -15   25.68   59.72
  -3 -15   6  -29.21  112.31
  -6 -15  -3   20.60   76.94
  -6  15   3   83.45   62.73
  15  -3   6   -5.23   90.39
   6 -15   3   29.94  112.86
   3  -6  15   15.05  114.45
   6  15  -3   21.32   60.61
   3   6 -15   18.68   57.75
  -6 -15   5   24.36  110.45
  -5   6 -15   -0.42   70.39
  -6  15  -5   16.93   55.45
 -15   5  -6   -0.20   50.92
   6 -15  -5   -5.26   96.98
   6  15   5   12.41   47.79
   5  15  -6   -0.02   79.77
   6  -5  15    6.44  126.83
   5 -15   6    3.68  104.32
  15  -6   5  -11.68  109.11
  -5  15   6   10.07   59.12
  -5 -15  -6   17.57   70.57
   5  15   6   16.35   45.99
   5 -15  -6   12.36  100.65
 -15   6  -5   -1.31   57.25
  -5  15  -6    5.48   57.10
  -6   5 -15   19.74   72.27
  -5 -15   6   23.35  122.53
  -6 -15  -5    9.17   71.65
  -6  15   5   21.98   60.96
  15  -5   6   -9.47  108.49
   6 -15   5   -6.89  102.04
   5  -6  15   32.76  128.57
   6  15  -5    9.34   80.50
   0  15   7   45.74   48.65
   7   0  15   10.80   94.45
  15  -7   0   -5.96   89.67
   0 -15  -7   -0.36   75.50
   0  15  -7    5.98   63.64
  -7   0 -15   20.42   54.53
   0 -15   7    4.28  129.56
 -15   0  -7   57.25   46.19
  -7 -15   0   26.67  102.37
  -7  15   0    6.83   53.94
  15   0   7  -23.91   85.69
   7 -15   0    0.33  109.09
   0  -7  15  -23.11  103.26
   7  15   0    5.39   61.12
   0   7 -15  -12.37   59.17
  -2  -7  15    7.72  138.78
  -7 -15   2  -15.23   99.11
  -2   7 -15    1.85   63.22
  -7  15  -2   22.28   55.83
 -15   2  -7   39.27   43.00
   7 -15  -2   14.59  113.23
   7  15   2  -17.69   52.46
  15   2   7   -5.30   72.83
   2  15  -7   21.62   70.57
   7  -2  15   15.08  104.74
   2 -15   7   20.30  121.04
  15  -7   2    1.39   90.92
  -2  15   7   65.49   61.68
  -7  -2 -15    5.17   51.45
  -2 -15  -7   -9.19   68.80
   2  15   7    5.28   42.65
   7   2  15    3.57   80.25
   2 -15  -7   18.02   79.53
 -15   7  -2   34.10   52.31
  -2  15  -7    1.98   63.29
  -7   2 -15   15.31   56.16
  -2 -15   7   -6.13  121.98
 -15  -2  -7    9.89   37.54
  -7 -15  -2    6.96   84.91
  -7  15   2   29.05   56.94
  15  -2   7    1.59   88.27
   7 -15   2   -0.60  116.15
   2  -7  15   39.01  131.06
   7  15  -2   12.92   59.60
   2   7 -15   -2.27   58.74
  -4  -7  15   -2.78  147.86
  -7 -15   4   32.75  128.44
  -4   7 -15   -7.69   75.62
  -7  15  -4   13.32   54.76
 -15   4  -7   44.59   59.12
   7 -15  -4    8.39  113.79
   7  15   4   12.83   50.34
  15   4   7  -13.75   65.39
   4  15  -7    7.36   70.28
   7  -4  15    7.67  122.90
   4 -15   7  -46.57  116.16
  15  -7   4   -9.33  106.66
  -4  15   7   24.22   61.42
  -7  -4 -15   -8.80   46.17
  -4 -15  -7   16.75   71.25
   4  15   7   37.41   54.40
   7   4  15  -20.35   64.71
   4 -15  -7   27.18   91.70
 -15   7  -4   32.02   57.62
  -4  15  -7    1.73   59.55
  -7   4 -15    7.17   72.68
  -4 -15   7  -16.80  124.17
 -15  -4  -7    9.44   32.84
  -7 -15  -4    6.33   76.92
  -7  15   4   52.07   63.22
  15  -4   7    0.78  103.52
   7 -15   4   15.92  105.95
   4  -7  15  -16.89  125.95
   7  15  -4   19.95   79.78
   4   7 -15   -4.06   60.33
  -7 -15   6  -15.56  123.35
  -6   7 -15    0.95   71.71
  -7  15  -6   31.00   59.37
 -15   6  -7   19.37   59.40
   7 -15  -6   56.40  120.32
   7  15   6   -3.37   53.17
   6  15  -7   -6.86   81.47
   7  -6  15   -4.59  114.79
   6 -15   7  -16.99  136.04
  15  -7   6  -23.36  115.61
  -6  15   7   34.85   64.33
  -6 -15  -7    0.58   66.26
   6  15   7    2.53   48.90
   6 -15  -7   15.74  112.30
 -15   7  -6   21.28   62.95
  -6  15  -7   19.96   61.61
  -7   6 -15    8.41   69.72
  -6 -15   7   -5.16  130.56
  -7 -15  -6   23.41   74.05
  -7  15   6   12.87   64.02
  15  -6   7   -5.41  111.63
   7 -15   6   13.59  138.40
   6  -7  15   22.66  124.71
   7  15  -6   10.24   90.33
  -1  -8  15   31.38  147.74
  -8 -15   1   -5.02  100.34
  -1   8 -15   10.24   65.78
  -8  15  -1   20.57   57.45
 -15   1  -8   45.64   48.00
   8 -15  -1    9.33  119.87
   8  15   1   22.03   61.94
  15   1   8   -9.07   74.38
   1  15  -8    2.69   69.66
   8  -1  15  -22.96   94.76
   1 -15   8  -16.08  136.16
  15  -8   1    8.70  115.61
  -1  15   8   25.56   51.61
  -8  -1 -15   11.88   55.91
  -1 -15  -8   12.62   74.77
   1  15   8   35.53   56.60
   8   1  15    1.27   95.65
   1 -15  -8    9.92   82.72
 -15   8  -1    7.50   62.22
  -1  15  -8   11.12   69.66
  -8   1 -15    9.71   63.30
  -1 -15   8   20.00  143.13
 -15  -1  -8   49.00   45.70
  -8 -15  -1    2.02   98.46
  -8  15   1   35.17   64.77
  15  -1   8   -2.18   81.25
   8 -15   1   23.25  121.20
   1  -8  15    5.20  130.31
   8  15  -1    8.22   61.53
   1   8 -15   14.92   63.82
  -3  -8  15   11.53  152.95
  -8 -15   3   -9.92  108.24
  -3   8 -15   48.95   72.95
  -8  15  -3   20.37   55.88
 -15   3  -8   34.72   55.97
   8 -15  -3  -26.95   95.58
   8  15   3    0.36   54.09
  15   3   8   12.04   69.98
   3  15  -8   11.71   77.72
   8  -3  15  -13.27  116.99
   3 -15   8  -13.47  114.54
  15  -8   3  -27.99  112.24
  -3  15   8   65.58   64.15
  -8  -3 -15   -4.73   51.13
  -3 -15  -8    1.67   69.04
   3  15   8   17.34   51.08
   8   3  15    6.91   79.08
   3 -15  -8   31.28   91.38
 -15   8  -3   11.24   64.91
  -3  15  -8    0.39   62.96
  -8   3 -15   -1.24   63.00
  -3 -15   8   -8.89  134.42
 -15  -3  -8   46.37   43.14
  -8 -15  -3   13.99   87.36
  -8  15   3   58.83   58.62
  15  -3   8    5.73   89.97
   8 -15   3   36.72  119.69
   3  -8  15    9.63  139.40
   8  15  -3    7.11   66.88
   3   8 -15    4.49   60.55
  -5  -8  15  -11.89  157.68
  -8 -15   5  -17.84  116.36
  -5   8 -15   -1.90   76.49
  -8  15  -5   15.42   56.52
 -15   5  -8   25.28   58.07
   8 -15  -5    2.11  122.68
   8  15   5  -22.09   51.70
  15   5   8    0.73   60.95
   5  15  -8   10.02   82.06
   8  -5  15   -6.11  126.83
   5 -15   8   12.08  133.30
  15  -8   5    5.17  125.21
  -8  -5 -15    9.94   47.01
  -5 -15  -8   19.14   74.45
   5  15   8   25.97   51.41
   8   5  15   16.85   74.24
 -15   8  -5   29.66   71.76
  -5  15  -8   11.17   62.17
  -8   5 -15    0.14   79.75
  -5 -15   8  -10.92  139.15
 -15  -5  -8   12.93   36.55
  -8 -15  -5   26.06   72.91
  -8  15   5   48.12   65.25
  15  -5   8   -4.15  107.37
   8 -15   5   -5.54  134.79
   5  -8  15   11.87  126.33
   8  15  -5   21.78   82.12
   5   8 -15   11.45   67.92
  -8 -15   7  -27.23  132.30
  -7   8 -15   -2.69   82.06
  -8  15  -7   22.27   65.12
 -15   7  -8   -2.84   68.38
   8 -15  -7   18.26  120.02
   8  15   7    5.61   51.76
   7  15  -8   12.28   89.54
   8  -7  15   43.91  142.26
   7 -15   8   18.97  150.23
  15  -8   7   -9.38  130.44
  -7 -15  -8   -2.31   58.47
   7  15   8   19.45   53.60
 -15   8  -7    4.61   68.30
  -7  15  -8   14.46   63.51
  -8   7 -15   13.80   84.20
  -7 -15   8   11.56  145.00
  -8 -15  -7    9.52   57.71
  15  -7   8  -19.93  125.83
   8 -15   7    6.51  140.02
   7  -8  15  -18.69  145.00
   8  15  -7  -13.89   93.63
   9   0  15   10.77  109.46
  15  -9   0    0.71  125.21
   0 -15  -9   13.89   81.11
 -15   9   0  -12.13   58.76
   0  15  -9    4.87   71.90
  -9   0 -15   22.38   61.42
   0 -15   9   33.99  132.92
 -15   0  -9   40.30   48.64
  -9 -15   0   27.36  107.83
  -9  15   0   62.38   55.76
  15   0   9   19.10   95.80
   9 -15   0   73.97  135.91
   0  -9  15  -39.98  150.10
   9  15   0    4.52   71.31
   0   9 -15   -4.55   66.77
  -2  -9  15   14.79  154.95
  -9 -15   2    0.13  107.50
  -2   9 -15   -4.14   74.05
  -9  15  -2   21.21   57.69
 -15   2  -9    4.87   44.37
   9 -15  -2  -17.29  123.24
   9  15   2    9.16   60.81
  15   2   9  -15.86   72.93
   2  15  -9    3.95   76.72
   9  -2  15  -14.46  106.33
   2 -15   9   10.95  141.89
  15  -9   2  -15.43  126.58
  -9  -2 -15    5.91   55.99
  -2 -15  -9   30.17   86.92
   2  15   9   10.62   48.85
   9   2  15   19.80   86.04
 -15   9  -2   19.88   63.93
  -2  15  -9    5.52   58.64
  -9   2 -15   10.82   60.87
  -2 -15   9  -26.26  159.18
 -15  -2  -9   16.85   42.22
  -9 -15  -2    2.55   94.20
  -9  15   2   15.08   60.86
  15  -2   9   -7.92   93.90
   9 -15   2   -7.43  133.42
   2  -9  15    3.11  159.68
   9  15  -2   -6.43   66.37
   2   9 -15   11.70   70.72
  -4  -9  15    5.19  155.94
  -9 -15   4   -1.64  110.97
  -4   9 -15    9.42   76.82
  -9  15  -4   11.59   50.53
 -15   4  -9   18.02   63.39
   9 -15  -4    2.30  123.78
   9  15   4    4.69   64.10
  15   4   9    0.69   64.38
   4  15  -9   19.91   81.43
   9  -4  15   10.41  120.52
   4 -15   9    7.41  157.81
  15  -9   4    7.66  121.31
  -9  -4 -15   20.51   57.91
  -4 -15  -9   16.89   76.80
   4  15   9    4.61   51.91
   9   4  15  -17.29   81.60
 -15   9  -4   32.58   67.23
  -4  15  -9    5.99   57.52
  -9   4 -15    3.49   70.33
  -4 -15   9  -23.34  155.32
 -15  -4  -9   18.07   38.93
  -9 -15  -4   -7.27   83.36
  -9  15   4    4.88   58.17
  15  -4   9   -1.79  112.30
   9 -15   4    5.99  137.90
   4  -9  15    8.85  132.18
   9  15  -4  -14.54   78.48
   4   9 -15    6.35   66.36
  -6  -9  15   -4.33  168.14
  -9 -15   6    0.18  126.33
  -6   9 -15    8.99   81.84
  -9  15  -6   32.38   60.41
 -15   6  -9   32.04   74.92
   9 -15  -6   -8.59  128.94
   9  15   6    1.41   54.21
  15   6   9   22.84   66.19
   6  15  -9   27.51   86.04
   9  -6  15   29.83  133.67
   6 -15   9    6.56  143.75
  15  -9   6   11.09  113.74
  -9  -6 -15    0.83   50.82
  -6 -15  -9   -0.12   68.50
   6  15   9   -1.88   50.54
   9   6  15   21.08   74.97
 -15   9  -6   15.91   69.78
  -6  15  -9   -0.79   64.41
  -9   6 -15   29.33   81.12
  -6 -15   9   -0.04  156.19
 -15  -6  -9    8.43   39.01
  -9 -15  -6    8.51   63.45
  -9  15   6   16.84   67.37
  15  -6   9   -3.56  125.33
   9 -15   6   -3.00  130.44
   6  -9  15   27.88  149.60
   9  15  -6    3.82  102.11
   6   9 -15    3.99   74.86
  -9 -15   8    3.41  144.38
  -8   9 -15   17.83   99.08
   9  15   8  -14.13   58.64
   8  15  -9    7.08  101.42
   8 -15   9   27.58  168.26
  -8 -15  -9    2.20   59.58
   8  15   9   -3.63   56.26
  -8  15  -9    4.31   73.68
  -9   8 -15   -0.39  100.49
  -8 -15   9   28.64  159.93
  -9 -15  -8   15.37   56.77
   9  15  -8   -2.68  109.35
  -1 -10  15   10.43  151.22
 -10 -15   1   10.17   98.36
  -1  10 -15   10.10   72.45
 -10  15  -1   41.59   56.13
 -15   1 -10   40.09   54.89
  10 -15  -1   -9.67  134.79
  10  15   1    8.51   72.87
  15   1  10   11.13   76.37
   1  15 -10   13.19   74.65
  10  -1  15   -2.53  111.15
   1 -15  10  -35.83  160.17
  15 -10   1  -33.33  136.29
 -15  10   1   -5.82   58.68
 -10  -1 -15   -3.77   62.40
  10   1  15   -8.18  101.38
  15 -10  -1  -10.06  132.68
 -15  10  -1   33.01   65.78
  -1  15 -10   41.01   71.34
 -10   1 -15   18.92   65.79
  -1 -15  10   -8.26  157.93
 -15  -1 -10   32.78   48.45
 -10 -15  -1    6.00  101.65
 -10  15   1   57.61   63.85
  15  -1  10  -30.80   89.20
  10 -15   1   90.31  148.98
   1 -10  15   27.02  144.38
  10  15  -1   24.51   75.86
   1  10 -15    9.41   69.09
  -3 -10  15    3.33  156.19
 -10 -15   3   -4.30  109.40
  -3  10 -15    3.42   67.11
 -10  15  -3   17.55   61.01
 -15   3 -10   -2.71   53.52
  10 -15  -3  -10.26  116.11
  10  15   3   10.32   63.08
  15   3  10   17.37   72.86
   3  15 -10   17.98   69.62
  10  -3  15   -8.14  110.63
   3 -15  10   30.37  165.78
  15 -10   3  -15.26  128.94
 -10  -3 -15  -15.76   56.98
  -3 -15 -10   -1.00   69.88
  10   3  15   -1.54   87.05
 -15  10  -3   12.63   64.73
  -3  15 -10   -3.07   69.54
 -10   3 -15   -8.99   76.62
  -3 -15  10  -22.60  173.49
 -15  -3 -10   10.92   40.65
 -10 -15  -3  -25.31   96.42
 -10  15   3    2.49   62.24
  15  -3  10   10.25   99.88
  10 -15   3    2.87  138.90
   3 -10  15   10.07  173.12
  10  15  -3    9.52   82.62
   3  10 -15  -12.39   71.02
  -5 -10  15   18.05  176.85
 -10 -15   5  -32.20  121.97
  -5  10 -15   -8.03   81.16
 -10  15  -5   -0.32   60.70
 -15   5 -10   -2.88   71.39
  10 -15  -5    2.44  132.92
  10  15   5    1.74   62.04
  15   5  10   -5.68   69.20
   5  15 -10    8.34   83.82
  10  -5  15    5.32  135.79
   5 -15  10   26.56  160.80
  15 -10   5    7.80  142.01
 -10  -5 -15   13.55   56.49
  -5 -15 -10   -5.80   74.28
   5  15  10    3.23   53.18
  10   5  15  -19.68   84.43
 -15  10  -5    1.64   72.99
  -5  15 -10    7.31   67.83
 -10   5 -15   12.31   87.66
  -5 -15  10    9.71  154.70
 -15  -5 -10   21.56   40.04
 -10 -15  -5   23.02   73.77
 -10  15   5   -5.58   66.81
  15  -5  10   17.42  115.42
  10 -15   5  -25.58  143.38
   5 -10  15  -15.33  156.81
  10  15  -5   -3.47   88.47
   5  10 -15  -10.60   66.85
  11   0  15    6.69  105.85
  15 -11   0   16.18  137.03
 -15  11   0   -7.06   64.17
   0  15 -11   -0.92   75.58
 -11   0 -15   -7.39   67.01
   0 -15  11   11.78  152.58
 -15   0 -11   -1.13   53.83
 -11 -15   0   -7.35  110.84
 -11  15   0   -1.24   63.09
  15   0  11    2.10   98.73
  11 -15   0   25.68  142.63
   0 -11  15   22.05  169.76
  11  15   0   22.00   80.38
   0  11 -15   11.85   73.04
  -2 -11  15   32.83  176.85
 -11 -15   2   -3.23  122.63
  -2  11 -15   13.38   77.43
 -11  15  -2   10.96   55.48
 -15   2 -11   22.43   61.45
  11 -15  -2   -4.01  142.14
  11  15   2   -9.92   71.48
  15   2  11    2.63   85.83
   2  15 -11   24.44   84.01
  11  -2  15   17.95  113.23
   2 -15  11    2.02  157.19
  15 -11   2    5.95  149.60
 -15  11   2    6.76   57.00
 -11  -2 -15    8.71   60.57
  11   2  15    8.49   99.54
  15 -11  -2   -9.00  159.18
 -15  11  -2    3.29   67.76
  -2  15 -11   -9.43   75.88
 -11   2 -15   11.79   64.26
  -2 -15  11    6.50  154.82
 -15  -2 -11    1.68   52.43
 -11 -15  -2    2.23   95.75
 -11  15   2   33.57   71.36
  15  -2  11   12.23   94.92
  11 -15   2   16.95  147.49
   2 -11  15  -35.28  175.11
  11  15  -2   14.69   72.21
   2  11 -15   -9.30   73.80
  -4 -11  15   22.80  185.32
 -11 -15   4    3.55  140.27
  -4  11 -15   27.37   84.37
 -11  15  -4   19.61   66.68
 -15   4 -11    4.90   70.01
  11  15   4    2.97   70.75
  15   4  11   18.02   83.47
   4  15 -11  -11.74   88.42
  11  -4  15  -14.31  126.45
   4 -15  11   -9.44  172.50
 -11  -4 -15  -22.81   66.34
  11   4  15   -9.55   93.62
  -4  15 -11   28.91   79.07
 -11   4 -15   18.26   77.59
  -4 -15  11    6.75  164.16
 -15  -4 -11    7.82   43.70
 -11 -15  -4    0.14   85.59
  11 -15   4  -34.51  140.52
   4 -11  15   -7.21  176.11
  11  15  -4   -5.12   99.64
   4  11 -15   10.81   84.27
  -1 -12  15   13.70  195.65
  -1  12 -15    9.05   88.51
   1  15 -12  -12.96   93.52
   1 -15  12   -9.96  189.55
  -1  15 -12    9.42   88.38
  -1 -15  12   -3.10  194.28
   1 -12  15  -27.63  201.50
   1  12 -15    7.78   88.19
   0 -16   0  114.34   81.77
   0  16   0  124.71   65.95
   1  16   1   79.98   51.23
   1 -16  -1  114.52   82.12
  -1  16  -1   58.87   56.16
  -1 -16   1   59.76   80.47
  -1 -16  -1    9.62   74.97
  -1  16   1  120.59   65.93
   1 -16   1   43.08   80.49
   1  16  -1   78.68   60.65
   0  16   2   68.39   53.55
   0 -16  -2   82.19   77.79
   0  16  -2   17.50   52.70
   0 -16   2   34.11   83.51
  -2 -16   0    7.02   76.42
  -2  16   0   48.75   54.25
   2 -16   0   14.26   81.25
   2  16   0   34.43   48.74
   2  16   2   11.71   45.55
   2 -16  -2   40.65   76.59
  -2  16  -2   -1.21   51.44
  -2   2 -16   12.83   53.47
  -2 -16   2   26.57   84.28
  -2 -16  -2   22.76   75.00
  -2  16   2    2.68   58.21
   2 -16   2   20.60   94.53
   2  -2  16  -14.06  110.01
   2  16  -2   -5.97   60.65
  -3 -16   1    3.94   98.14
  -1   3 -16   17.10   54.58
  -3  16  -1    9.54   53.23
   3 -16  -1  121.51   93.18
   3  16   1    6.61   46.19
   1  16  -3    5.76   60.41
   3  -1  16   10.36  106.45
   1 -16   3    0.56   95.68
  -1  16   3   24.23   53.64
  -1 -16  -3   16.81   85.99
   1  16   3    6.56   51.12
   1 -16  -3  -16.28   73.88
  -1  16  -3    6.47   55.67
  -3   1 -16   13.02   54.50
  -1 -16   3   -0.75   86.10
  -3 -16  -1   -4.93   77.46
  -3  16   1   10.78   46.22
   3 -16   1   13.39   89.97
   1  -3  16  -30.07  111.45
   3  16  -1   12.24   56.67
   3  16   3   22.05   53.29
   3 -16  -3   -2.31   86.21
 -16   3  -3   19.68   46.90
  -3  16  -3   21.90   57.31
  -3   3 -16   22.34   56.78
  -3 -16   3   12.91   96.55
  -3 -16  -3   16.84   87.51
  -3  16   3   56.48   58.78
  16  -3   3  -16.45  102.65
   3 -16   3   11.04   95.97
   3  -3  16  -36.59  111.70
   3  16  -3   17.25   68.05
   0  16   4   49.95   50.57
   4   0  16  -13.32   95.21
   0 -16  -4   24.37   73.72
   0  16  -4   37.21   65.88
  -4   0 -16   21.01   59.52
   0 -16   4   32.72  108.22
  -4 -16   0    4.61   97.65
  -4  16   0   46.05   61.53
   4 -16   0   90.84  100.64
   0  -4  16   26.48  117.18
   4  16   0   32.82   57.77
   0   4 -16   -3.89   58.22
  -4 -16   2   26.52   92.53
  -2   4 -16   11.53   55.98
  -4  16  -2   16.10   61.05
 -16   2  -4    3.03   51.43
   4 -16  -2  -14.81   91.43
   4  16   2   11.57   54.04
   2  16  -4   -1.18   63.09
   4  -2  16   19.95  110.48
   2 -16   4    1.85  114.69
  16  -4   2   12.01   90.36
  -2  16   4    0.44   52.78
  -2 -16  -4   24.94   87.62
   2  16   4    5.17   50.29
   2 -16  -4   18.57   80.50
  -2  16  -4   12.33   59.79
  -4   2 -16  -12.56   58.38
  -2 -16   4   -5.94  103.57
  -4 -16  -2   14.44   88.84
  -4  16   2   11.93   54.45
  16  -2   4    5.77   88.83
   4 -16   2   16.47  105.19
   2  -4  16   -3.70   99.07
   4  16  -2   39.15   57.75
   4  16   4   72.52   57.52
   4 -16  -4   -8.25   96.52
 -16   4  -4   15.31   54.02
  -4  16  -4   38.82   61.84
  -4   4 -16   28.59   62.32
  -4 -16   4   27.43  109.33
  -4 -16  -4   44.22   81.86
  -4  16   4   52.35   63.51
  16  -4   4    8.84  107.23
   4 -16   4   85.13  128.44
   4  -4  16   17.52  112.74
   4  16  -4   39.84   74.10
  -1  -5  16    5.32  126.95
  -5 -16   1  -16.25   89.20
  -1   5 -16   21.69   65.64
  -5  16  -1   24.01   56.54
 -16   1  -5   14.81   41.54
   5 -16  -1   -9.14  102.93
   5  16   1   28.65   59.07
   1  16  -5  -15.77   65.98
   5  -1  16   -1.02  107.48
   1 -16   5  -19.37  117.91
  -1  16   5   14.62   53.36
  -5  -1 -16   16.81   55.50
  -1 -16  -5    1.85   76.72
   1  16   5   10.29   53.68
   5   1  16  -34.97  101.37
   1 -16  -5   16.06   74.94
  -1  16  -5   -1.04   60.91
  -5   1 -16   -6.31   61.40
  -1 -16   5   -4.36  110.78
  -5 -16  -1   -7.62   82.49
  -5  16   1    1.29   55.62
  16  -1   5  -24.17   87.18
   5 -16   1    9.85  109.20
   1  -5  16   21.69  120.90
   5  16  -1    1.82   56.58
   1   5 -16  -31.36   66.09
  -5 -16   3   -9.03  100.80
  -3   5 -16    6.15   61.76
  -5  16  -3   14.15   59.73
 -16   3  -5   -0.39   55.99
   5 -16  -3  -13.79  100.67
   5  16   3   15.00   47.53
   3  16  -5   11.41   76.31
   5  -3  16    3.58  118.21
   3 -16   5   17.90  125.71
  16  -5   3  -31.15  114.69
  -3  16   5    5.77   69.75
  -3 -16  -5  -16.96   71.87
   3  16   5   -5.56   45.60
   3 -16  -5   23.62   85.90
 -16   5  -3    3.43   60.66
  -3  16  -5   16.39   59.73
  -5   3 -16  -13.63   66.17
  -3 -16   5    5.38  116.94
  -5 -16  -3   28.48   85.49
  -5  16   3   21.44   62.57
  16  -3   5  -13.59  104.73
   5 -16   3    4.70  119.08
   3  -5  16    8.57  122.23
   5  16  -3   -2.62   64.97
   5  16   5   81.11   58.83
   5 -16  -5   10.56  107.55
 -16   5  -5   84.78   64.93
  -5  16  -5   92.31   73.03
  -5   5 -16    7.28   79.49
  -5 -16   5   34.49  124.22
  -5 -16  -5   55.96   81.84
  -5  16   5  100.60   74.56
  16  -5   5   13.80  111.72
   5 -16   5  119.00  133.30
   5  -5  16    3.55  134.42
   5  16  -5   47.80   92.02
   0  16   6   24.37   57.67
   6   0  16   16.52   96.06
   0 -16  -6  -13.47   78.63
   0  16  -6   -1.52   61.56
  -6   0 -16    6.07   53.26
   0 -16   6  -20.52  134.42
 -16   0  -6   25.05   47.12
  -6 -16   0   12.42  104.91
  -6  16   0   41.99   60.01
  16   0   6   -7.54   80.46
   6 -16   0   -2.56  113.77
   0  -6  16  -14.90  131.56
   6  16   0    0.08   65.20
   0   6 -16    4.45   64.44
  -2  -6  16   28.84  139.77
  -6 -16   2   31.71  114.60
  -2   6 -16    5.67   69.73
  -6  16  -2    4.75   58.93
 -16   2  -6   19.59   48.17
   6 -16  -2   19.12  113.58
   6  16   2   34.08   59.83
  16   2   6   -3.15   75.84
   2  16  -6    8.71   74.49
   6  -2  16  -43.36  115.27
   2 -16   6  -27.02  127.70
  16  -6   2   -5.84  111.09
  -2  16   6   39.15   62.04
  -6  -2 -16   -0.56   53.53
  -2 -16  -6  -10.10   81.48
   2  16   6    1.66   48.85
   6   2  16   -1.89   97.19
   2 -16  -6   18.73   85.27
 -16   6  -2    4.99   67.17
  -2  16  -6   -8.69   61.66
  -6   2 -16   -9.26   70.57
  -2 -16   6   -4.71  133.42
 -16  -2  -6   -8.96   42.75
  -6 -16  -2   20.42   78.77
  -6  16   2   36.59   62.44
  16  -2   6   -5.08   98.35
   6 -16   2  -18.23  118.06
   2  -6  16   -9.64  122.44
   6  16  -2   17.10   71.58
   2   6 -16   -5.65   54.70
  -6 -16   4   -0.84  118.64
  -4   6 -16  -13.73   73.27
  -6  16  -4   -3.45   51.16
 -16   4  -6   15.73   55.01
   6 -16  -4   10.86  113.92
   6  16   4   25.51   56.17
   4  16  -6   30.57   77.80
   6  -4  16    2.82  114.74
   4 -16   6   15.10  129.56
  16  -6   4    8.93  123.02
  -4  16   6   49.88   78.41
  -4 -16  -6  -24.47   67.53
   4  16   6   18.73   54.29
   4 -16  -6   13.58  100.71
 -16   6  -4   11.41   70.02
  -4  16  -6    7.58   61.22
  -6   4 -16   -3.56   69.55
  -4 -16   6  -16.74  134.17
  -6 -16  -4    3.43   73.08
  -6  16   4   23.06   63.55
  16  -4   6   19.68  107.00
   6 -16   4    7.35  120.00
   4  -6  16   43.81  137.03
   6  16  -4    9.15   77.33
   6  16   6   42.09   60.36
   6 -16  -6   57.76  118.34
 -16   6  -6   30.98   68.20
  -6  16  -6   26.73   62.83
  -6   6 -16   -5.01   92.51
  -6 -16   6   30.42  136.04
  -6 -16  -6    9.64   74.50
  -6  16   6   19.70   73.38
  16  -6   6  -10.11  118.54
   6 -16   6   21.44  128.32
   6  -6  16    3.89  148.86
   6  16  -6   19.37   98.61
  -1  -7  16   -5.21  150.35
  -7 -16   1  -16.12  103.65
  -1   7 -16    4.45   68.70
  -7  16  -1   63.20   63.36
 -16   1  -7   82.48   51.16
   7 -16  -1   29.83  117.29
   7  16   1    2.33   57.43
  16   1   7    1.92   84.43
   1  16  -7   15.17   68.76
   7  -1  16   -2.11  118.11
   1 -16   7  -25.65  138.78
  16  -7   1   -6.82  119.86
  -1  16   7   34.39   61.59
  -7  -1 -16   20.61   52.71
  -1 -16  -7    5.22   79.58
   1  16   7   39.13   61.48
   7   1  16   33.94   98.85
   1 -16  -7   28.23   84.67
 -16   7  -1   -8.32   60.21
  -1  16  -7    2.74   65.71
  -7   1 -16   -5.61   68.75
  -1 -16   7   18.28  146.99
 -16  -1  -7   24.63   48.22
  -7 -16  -1   11.19  102.65
  -7  16   1   24.32   65.17
  16  -1   7   -4.27   89.19
   7 -16   1   21.83  123.78
   1  -7  16    4.44  141.14
   7  16  -1    7.11   63.71
   1   7 -16   -0.14   61.23
  -3  -7  16   -3.02  154.57
  -7 -16   3   43.15  115.76
  -3   7 -16   -1.63   77.53
  -7  16  -3   14.90   57.06
 -16   3  -7    7.58   62.81
   7 -16  -3   21.26  109.90
   7  16   3   19.19   60.60
  16   3   7  -10.02   77.81
   3  16  -7    1.64   81.93
   7  -3  16  -13.73  117.64
   3 -16   7   18.17  137.16
  16  -7   3   20.82  122.61
  -3  16   7   25.15   67.01
  -7  -3 -16   -1.59   56.70
  -3 -16  -7   17.30   82.58
   3  16   7   19.17   58.07
   7   3  16    5.57   92.92
   3 -16  -7   10.32   96.33
 -16   7  -3   21.97   66.90
  -3  16  -7    3.91   64.59
  -7   3 -16    3.31   68.99
  -3 -16   7    3.53  150.35
 -16  -3  -7    0.94   46.34
  -7 -16  -3   13.50   81.03
  -7  16   3   24.59   62.04
  16  -3   7    4.34  100.08
   7 -16   3  -36.21  105.58
   3  -7  16    7.32  140.89
   7  16  -3   10.84   75.87
   3   7 -16   -4.95   60.18
  -7 -16   5    1.72  143.63
  -5   7 -16   20.00   92.91
  -7  16  -5   -7.25   60.67
 -16   5  -7   14.45   69.16
   7 -16  -5    0.98  128.19
   7  16   5    3.58   54.16
   5  16  -7  -11.77   96.04
   7  -5  16   38.91  147.24
   5 -16   7   -2.15  137.28
  16  -7   5  -24.11  122.32
  -5  16   7  -17.31   70.51
  -5 -16  -7   -0.33   77.71
   5  16   7   -6.95   53.92
   5 -16  -7    9.29  109.97
 -16   7  -5    0.30   69.16
  -5  16  -7    3.98   54.71
  -7   5 -16   10.58   89.68
  -5 -16   7    8.38  163.91
  -7 -16  -5   -0.26   78.18
  -7  16   5   -5.71   66.42
  16  -5   7  -13.01  109.36
   7 -16   5    2.21  141.76
   5  -7  16  -13.80  149.98
   7  16  -5  -17.23   98.55
   7  16   7    3.46   54.61
   7 -16  -7   26.80  132.43
 -16   7  -7   10.16   76.06
  -7  16  -7    6.34   69.44
  -7   7 -16  -11.05   91.33
  -7 -16   7    2.70  141.02
  -7 -16  -7   14.09   71.56
  -7  16   7   -4.57   68.19
  16  -7   7   26.02  131.80
   7 -16   7   15.21  156.94
   7  -7  16   -2.94  148.23
   7  16  -7   -3.83   98.47
   0  16   8  181.33   78.66
   8   0  16   11.35   97.00
  16  -8   0  -68.64  139.77
   0 -16  -8   43.73   91.13
 -16   8   0   17.69   50.37
   0  16  -8   87.41   79.39
  -8   0 -16   72.56   72.62
   0 -16   8   76.43  159.30
 -16   0  -8  248.05   84.98
  -8 -16   0   33.73  100.76
  -8  16   0  236.23   85.01
  16   0   8   47.93  102.29
   8 -16   0  310.90  158.31
   0  -8  16   -6.03  146.87
   8  16   0   45.53   67.31
   0   8 -16   55.96   77.11
  -2  -8  16    4.04  147.36
  -8 -16   2   -3.19  113.41
  -2   8 -16   14.51   71.31
  -8  16  -2   61.93   64.11
 -16   2  -8   30.62   59.88
   8 -16  -2   23.87  126.70
   8  16   2   13.01   67.69
  16   2   8   -6.02   81.13
   2  16  -8    9.47   77.26
   8  -2  16   17.65  115.51
   2 -16   8    4.02  153.20
  16  -8   2   -6.75  127.70
  -2  16   8   45.41   69.98
  -8  -2 -16   16.19   62.14
  -2 -16  -8   -1.34   75.61
   2  16   8   13.42   59.68
   8   2  16    6.61   89.42
   2 -16  -8    4.72   91.20
 -16   8  -2   19.45   67.41
  -2  16  -8    6.38   70.44
  -8   2 -16   -9.58   81.62
  -2 -16   8   12.38  150.48
 -16  -2  -8   28.36   47.02
  -8 -16  -2    4.83   89.64
  -8  16   2   64.73   65.34
  16  -2   8    4.90   95.14
   8 -16   2   43.05  130.81
   2  -8  16   -2.95  158.93
   8  16  -2    8.01   72.04
   2   8 -16    9.30   69.55
  -4  -8  16   43.01  137.90
  -8 -16   4   11.62  141.51
  -4   8 -16   11.43   84.06
  -8  16  -4   11.55   60.11
 -16   4  -8   45.18   70.72
   8 -16  -4   16.15  126.58
   8  16   4  -14.80   59.59
  16   4   8   -3.73   70.42
   4  16  -8    5.36   85.23
   8  -4  16  -27.74  139.02
   4 -16   8  -16.11  147.86
  16  -8   4   39.94  123.32
  -4  16   8   26.45   74.26
  -8  -4 -16   -1.39   56.47
  -4 -16  -8   23.21   80.18
   4  16   8   32.23   60.82
   8   4  16   10.50   81.47
   4 -16  -8   32.06  101.57
 -16   8  -4   19.61   71.48
  -4  16  -8   29.58   67.73
  -8   4 -16    1.07   85.60
  -4 -16   8    4.56  150.48
 -16  -4  -8   15.40   46.12
  -8 -16  -4    1.18   88.63
  -8  16   4   31.48   65.95
  16  -4   8   12.93  108.12
   8 -16   4  -15.48  134.79
   4  -8  16   18.47  152.08
   8  16  -4   18.44   95.53
   4   8 -16    0.07   64.39
  -8 -16   6   10.30  128.07
  -6   8 -16   -7.03   90.80
  -8  16  -6   14.19   65.33
 -16   6  -8   -0.13   73.52
   8 -16  -6   -3.88  133.55
   8  16   6   10.15   61.10
   6  16  -8    2.37   95.19
   8  -6  16   -0.40  145.37
   6 -16   8   -6.79  125.46
  16  -8   6  -14.97  123.40
  -6 -16  -8   -1.57   73.74
   6  16   8    0.74   55.38
   6 -16  -8   15.41  118.49
 -16   8  -6    9.41   89.47
  -6  16  -8   12.97   64.97
  -8   6 -16  -12.71   91.55
  -6 -16   8  -18.16  152.33
  -8 -16  -6   28.84   87.07
  -8  16   6   29.40   71.97
  16  -6   8   16.52  129.56
   8 -16   6   51.13  143.75
   6  -8  16    5.97  155.94
   8  16  -6   -6.04   98.33
  -1  -9  16  -22.80  168.26
  -9 -16   1   -3.76  124.46
  -1   9 -16   32.51   79.48
  -9  16  -1   21.53   68.76
 -16   1  -9   12.07   49.52
   9 -16  -1    0.70  138.65
   9  16   1    7.32   75.67
  16   1   9   11.01   85.91
   1  16  -9   13.54   78.31
   9  -1  16   18.21  125.33
   1 -16   9  -17.77  146.12
  16  -9   1   -2.49  135.54
  -1  16   9   45.60   67.59
  -9  -1 -16    5.63   69.36
  -1 -16  -9    2.04   85.05
   1  16   9   16.70   56.34
   9   1  16   -8.51   97.68
  16  -9  -1    4.62  121.21
   1 -16  -9   11.12   90.51
 -16   9  -1    7.60   68.86
  -1  16  -9  -14.55   75.55
  -9   1 -16    6.30   75.72
  -1 -16   9  -29.91  154.45
 -16  -1  -9   11.88   51.15
  -9 -16  -1   -5.87  114.98
  -9  16   1   36.49   68.43
  16  -1   9  -28.48   99.12
   9 -16   1    6.41  129.19
   1  -9  16    8.85  175.36
   9  16  -1   16.78   81.76
   1   9 -16   16.12   73.02
  -3  -9  16   26.65  176.11
  -9 -16   3    2.07  117.74
  -3   9 -16   -8.34   84.00
  -9  16  -3   19.49   62.66
 -16   3  -9   -7.02   68.89
   9 -16  -3    1.15  105.53
   9  16   3   18.52   66.96
  16   3   9    1.15   77.91
   3  16  -9    2.00   84.66
   9  -3  16  -14.91  129.94
   3 -16   9   22.86  153.20
  16  -9   3    2.68  132.05
  -9  -3 -16    3.87   61.68
  -3 -16  -9   -7.03   74.84
   3  16   9   28.43   64.97
   9   3  16    1.37   88.29
   3 -16  -9   13.38   96.24
 -16   9  -3   10.15   68.27
  -3  16  -9  -15.48   73.04
  -9   3 -16    8.01   77.44
  -3 -16   9   -1.56  171.00
 -16  -3  -9   23.05   46.76
  -9 -16  -3    5.43   97.90
  -9  16   3    9.06   60.56
  16  -3   9   -0.10  105.26
   9 -16   3    5.56  128.07
   3  -9  16   -2.38  165.40
   9  16  -3  -10.67   90.92
   3   9 -16   -2.37   71.86
  -5  -9  16   15.28  161.17
  -9 -16   5   24.59  160.67
  -5   9 -16    1.49   93.01
  -9  16  -5   11.37   68.78
   9  16   5    5.65   60.84
  16   5   9   -2.24   81.15
   5  16  -9    1.03   92.12
   9  -5  16   25.36  134.29
   5 -16   9   31.66  164.90
  -9  -5 -16    7.02   64.53
  -5 -16  -9   20.03   80.69
   5  16   9   -4.98   57.80
   9   5  16    5.54   90.59
  -5  16  -9   13.88   73.77
  -9   5 -16   19.00   99.49
  -5 -16   9  -24.46  178.35
  -9 -16  -5   28.20   87.26
  -9  16   5   26.40   79.83
   9 -16   5   16.62  147.61
   5  -9  16   -2.59  165.78
   9  16  -5   -5.95  106.45
   5   9 -16   16.74   78.98
  10   0  16   -9.63  117.02
   0  16 -10  -17.19   80.47
 -10   0 -16    0.62   65.60
   0 -16  10  -20.32  167.39
 -16   0 -10    1.67   55.87
 -10 -16   0    8.21  104.23
 -10  16   0    6.57   70.41
  16   0  10   -6.49  100.13
  10 -16   0    3.95  143.75
   0 -10  16   13.55  159.30
  10  16   0    3.33   84.02
   0  10 -16    2.10   77.65
  -2 -10  16   43.29  186.81
 -10 -16   2    9.43  117.05
  -2  10 -16    4.04   83.89
 -10  16  -2   -7.68   67.68
 -16   2 -10   12.11   59.42
  10 -16  -2   -8.55  141.76
  10  16   2   -1.55   75.07
  16   2  10   -7.65   90.74
   2  16 -10    1.99   86.14
  10  -2  16    2.95  125.33
   2 -16  10   -0.42  167.27
 -10  -2 -16  -15.37   67.10
  -2 -16 -10    5.19   81.01
   2  16  10   13.74   61.99
  10   2  16    0.03  101.37
  -2  16 -10    3.39   78.25
 -10   2 -16   14.82   73.46
  -2 -16  10   46.47  170.38
 -16  -2 -10    8.14   53.45
 -10 -16  -2   -0.81  106.47
 -10  16   2    2.32   73.87
  10 -16   2   -9.24  144.50
   2 -10  16  -47.83  168.39
  10  16  -2    0.39   77.45
   2  10 -16   -6.72   66.08
  -4  10 -16    3.55   92.96
   4  16 -10    1.46   97.05
   4 -16  10    0.27  159.68
  -4  16 -10  -12.30   80.85
  -4 -16  10  -26.56  191.17
   0  17   1   13.93   58.02
   0 -17  -1    6.59   87.18
   0  17  -1    2.64   62.06
   0 -17   1   -5.13   95.27
  -1 -17   0   52.38  104.12
  -1  17   0   11.34   59.65
   1 -17   0   -1.57   92.17
   1  17   0   -6.92   67.07
  -2 -17   1   63.62   98.05
  -1   2 -17    2.27   62.74
  -2  17  -1   22.17   62.19
   2 -17  -1   12.13   96.82
   2  17   1   21.63   58.81
   1  17  -2    2.81   75.91
   1 -17   2   -4.87  102.65
  -1  17   2   35.58   63.93
  -1 -17  -2   22.98   82.91
   1  17   2   33.70   59.40
   1 -17  -2   -9.19   86.90
  -1  17  -2   -6.55   60.36
  -2   1 -17   15.27   62.49
  -1 -17   2   11.08  116.93
  -2 -17  -1   32.53   84.91
  -2  17   1   83.85   67.42
   2 -17   1    7.40  104.89
   1  -2  17   -1.17  111.39
   2  17  -1   29.60   71.66
   0  17   3   23.40   59.75
   0 -17  -3    0.77   82.68
   0  17  -3    8.93   63.55
  -3   0 -17    0.97   60.61
   0 -17   3    0.66  113.23
  -3 -17   0   -3.76   90.36
  -3  17   0   26.81   55.88
   3 -17   0    4.29  102.73
   0  -3  17  -16.76  106.40
   3  17   0   19.53   68.33
   0   3 -17    5.25   64.86
  -3 -17   2   23.82  104.51
  -2   3 -17  -13.07   73.37
  -3  17  -2    6.11   61.79
   3 -17  -2   -0.72   99.06
   3  17   2    9.66   59.25
   2  17  -3    7.98   72.21
   3  -2  17    7.12  118.90
   2 -17   3   18.91  122.47
  -2  17   3   -9.46   72.07
  -2 -17  -3   22.25   85.62
   2  17   3    6.02   52.53
   2 -17  -3   -8.81   93.90
  -2  17  -3    3.26   58.84
  -3   2 -17    8.55   66.75
  -2 -17   3    3.22  109.69
  -3 -17  -2    6.03   83.62
  -3  17   2    6.74   67.84
   3 -17   2   -9.42  112.59
   2  -3  17  -16.99  128.32
   3  17  -2  -16.35   66.49
  -1  -4  17   11.66  111.23
  -4 -17   1   12.92  112.57
  -1   4 -17    8.78   67.05
  -4  17  -1   13.01   61.52
   4 -17  -1   19.74  108.88
   4  17   1  -12.01   55.78
   1  17  -4   11.36   70.64
   4  -1  17   16.54  116.81
   1 -17   4  -25.46  115.66
  -1  17   4    8.12   64.78
  -4  -1 -17    9.06   59.54
  -1 -17  -4  -10.02   80.66
   1  17   4   -0.28   54.54
   1 -17  -4    3.76   84.64
  -1  17  -4  -17.37   68.25
  -4   1 -17  -11.68   64.91
  -1 -17   4  -20.15  119.87
  -4 -17  -1   15.78   91.28
  -4  17   1    5.36   68.66
   4 -17   1   24.26  113.57
   1  -4  17   -8.80  110.71
   4  17  -1   -4.74   72.45
   1   4 -17    7.73   69.37
  -4 -17   3  -14.47  115.13
  -3   4 -17   -7.45   75.67
  -4  17  -3   11.98   62.17
 -17   3  -4    9.64   63.77
   4 -17  -3   18.71  103.06
   4  17   3   16.65   54.33
   3  17  -4    7.23   76.54
   4  -3  17   16.38  117.84
   3 -17   4   -1.36  123.95
  17  -4   3   -9.59  113.54
  -3  17   4   12.25   70.14
  -3 -17  -4  -27.02   90.10
   3  17   4    8.58   52.67
   3 -17  -4  -13.08   99.49
 -17   4  -3    2.47   59.04
  -3  17  -4    3.64   64.36
  -4   3 -17    7.17   70.38
  -3 -17   4  -36.50  123.69
  -4 -17  -3    3.99   81.71
  -4  17   3    8.40   63.44
  17  -3   4   -9.86  111.49
   4 -17   3  -12.09  119.69
   3  -4  17    2.09  131.43
   4  17  -3   12.97   77.99
   0  17   5   62.24   63.77
   5   0  17   -5.23  105.54
   0 -17  -5   26.70   84.81
   0  17  -5   -5.15   74.08
  -5   0 -17    8.85   73.18
   0 -17   5    2.17  133.42
  -5 -17   0   33.37   96.39
  -5  17   0   27.94   63.18
  17   0   5   11.07   93.64
   5 -17   0    1.53  116.10
   0  -5  17   -2.78  126.83
   5  17   0   48.20   71.13
   0   5 -17   11.87   72.10
  -2  -5  17    0.66  118.92
  -5 -17   2   18.92  122.56
  -2   5 -17   -9.75   84.59
  -5  17  -2   24.85   62.08
 -17   2  -5    7.58   63.46
   5 -17  -2   12.17  115.62
   5  17   2   10.05   56.53
   2  17  -5    9.54   75.89
   5  -2  17  -10.82  119.57
   2 -17   5   -0.34  129.32
  17  -5   2  -21.71  118.31
  -2  17   5   59.98   71.87
  -5  -2 -17   -6.20   55.17
  -2 -17  -5   -4.76   79.53
   2  17   5    3.90   60.95
   2 -17  -5   -3.29   91.96
  -2  17  -5  -15.41   68.38
  -5   2 -17   -7.55   71.12
  -2 -17   5  -17.59  127.07
  -5 -17  -2   -7.66   86.66
  -5  17   2   10.70   70.79
  17  -2   5    3.73  102.69
   5 -17   2   27.38  122.23
   2  -5  17  -10.98  139.40
   5  17  -2  -11.30   81.56
   2   5 -17  -20.96   70.78
  -5 -17   4   16.38  121.44
  -4   5 -17  -13.16   83.64
  -5  17  -4    4.57   60.90
 -17   4  -5   20.96   70.16
   5 -17  -4   36.25  113.25
   5  17   4   26.30   63.45
   4  17  -5   16.33   87.25
   5  -4  17   18.71  139.52
   4 -17   5   57.96  138.40
  17  -5   4    8.34  118.45
  -4  17   5   39.60   73.36
  -4 -17  -5  -32.58   90.56
   4  17   5    1.28   53.72
   4 -17  -5    4.88  104.60
 -17   5  -4   31.91   68.69
  -4  17  -5    8.32   63.97
  -5   4 -17   -0.18   90.27
  -4 -17   5   -5.23  130.56
  -5 -17  -4    1.75   87.98
  -5  17   4   35.66   75.48
  17  -4   5    1.95  107.92
   5 -17   4   10.20  128.44
   4  -5  17   -3.43  140.52
   5  17  -4   11.00   93.94
  -1  -6  17  -25.35  150.72
  -6 -17   1   -5.45  103.74
  -1   6 -17  -16.12   77.04
  -6  17  -1   39.20   63.56
 -17   1  -6   11.82   51.36
   6 -17  -1   37.81  121.56
   6  17   1   20.15   70.90
  17   1   6   10.88   87.51
   1  17  -6    6.24   79.57
   6  -1  17    6.22  112.08
   1 -17   6   -5.89  135.04
  -1  17   6   15.53   66.46
  -6  -1 -17    5.42   68.65
  -1 -17  -6    8.14   98.93
   1  17   6   20.15   65.79
   6   1  17   -3.61  110.79
   1 -17  -6   40.62   91.49
  -1  17  -6   25.53   72.30
  -6   1 -17    0.05   79.30
  -1 -17   6  -31.40  149.11
 -17  -1  -6    5.57   51.64
  -6 -17  -1    6.71   92.39
  -6  17   1   45.29   70.90
  17  -1   6   -3.91  101.63
   6 -17   1   11.64  127.70
   1  -6  17   12.92  141.39
   6  17  -1   20.06   70.87
   1   6 -17  -26.01   76.04
  -3  -6  17    5.81  124.10
  -6 -17   3  -16.06  116.86
  -3   6 -17   -1.44   79.47
  -6  17  -3    3.90   67.59
 -17   3  -6   39.33   63.49
   6 -17  -3    4.36  118.30
   6  17   3   -2.88   65.28
   3  17  -6  -32.15   81.31
   6  -3  17  -19.76  122.94
   3 -17   6   13.67  137.78
  17  -6   3   26.10  125.46
  -3  17   6   44.95   73.08
  -6  -3 -17   15.92   65.08
  -3 -17  -6   -3.93   91.85
   3  17   6   -4.72   54.45
   3 -17  -6  -16.91   99.11
 -17   6  -3   21.53   73.04
  -3  17  -6   43.11   68.94
  -6   3 -17    8.90   88.22
  -3 -17   6  -27.75  135.04
  -6 -17  -3    0.04   86.18
  -6  17   3   48.02   69.60
  17  -3   6   10.78  114.25
   6 -17   3   70.23  127.95
   3  -6  17  -18.31  116.78
   6  17  -3   19.75   84.63
   3   6 -17   -7.33   71.38
  -6 -17   5   10.55  133.30
  -5   6 -17   -5.46   92.52
  -6  17  -5    9.66   64.02
 -17   5  -6   12.96   78.28
   6 -17  -5   26.11  122.67
   6  17   5   -1.11   64.03
   5  17  -6  -28.00   90.41
   6  -5  17   -0.50  149.23
   5 -17   6   10.93  139.52
  17  -6   5   -1.11  129.56
  -5  17   6   27.48   83.20
  -5 -17  -6  -17.23   88.10
   5  17   6   10.26   63.01
   5 -17  -6  -20.44  115.95
 -17   6  -5   10.01   75.96
  -5  17  -6   18.21   68.85
  -6   5 -17    7.88   90.76
  -5 -17   6  -14.98  141.26
  -6 -17  -5   -4.22   76.68
  -6  17   5   57.10   75.46
  17  -5   6   20.57  112.11
   6 -17   5  -16.79  118.00
   5  -6  17   -7.04  146.62
   6  17  -5  -23.35  102.09
   0  17   7   46.81   74.60
   7   0  17    6.49  112.96
   0 -17  -7   20.03   88.65
   0  17  -7    4.24   72.15
  -7   0 -17    5.62   67.33
   0 -17   7  -14.14  133.67
 -17   0  -7   18.36   59.48
  -7 -17   0    1.13  116.82
  -7  17   0   20.10   62.02
  17   0   7   -8.80   95.37
   7 -17   0    9.82  123.58
   0  -7  17  -10.11  159.18
   7  17   0    1.86   77.55
   0   7 -17   -1.22   78.51
  -2  -7  17  -23.06  164.65
  -7 -17   2   10.60  114.14
  -2   7 -17   11.39   86.37
  -7  17  -2   17.32   66.04
 -17   2  -7    4.34   56.42
   7 -17  -2   10.27  129.07
   7  17   2   -7.53   61.94
  17   2   7    7.82   85.73
   2  17  -7   22.53   82.12
   7  -2  17    1.83  123.19
   2 -17   7   11.48  132.55
  17  -7   2    0.00  131.31
  -2  17   7   19.40   75.30
  -7  -2 -17  -13.34   68.38
  -2 -17  -7    4.54   80.18
   2  17   7    7.37   63.83
   7   2  17    5.80  100.31
   2 -17  -7   10.07   97.29
 -17   7  -2   13.30   73.74
  -2  17  -7   13.96   67.85
  -7   2 -17    4.84   75.71
  -2 -17   7  -35.60  150.35
 -17  -2  -7   -2.21   56.19
  -7 -17  -2    7.15  108.32
  -7  17   2   13.74   67.01
  17  -2   7    0.46  102.89
   7 -17   2   16.83  124.30
   2  -7  17    3.75  155.44
   7  17  -2  -13.08   76.83
   2   7 -17    1.10   76.03
  -4  -7  17   27.54  135.29
  -7 -17   4    1.72  154.07
  -4   7 -17   11.16   90.34
  -7  17  -4   -8.60   68.44
 -17   4  -7   -3.38   66.44
   7 -17  -4   12.41  129.81
   7  17   4   -2.60   66.45
   4  17  -7   12.67   90.93
   7  -4  17    1.66  154.20
   4 -17   7  -19.79  154.70
  -4  17   7   -6.55   77.75
  -7  -4 -17   -9.66   63.56
  -4 -17  -7    2.10   78.38
   4  17   7   18.89   66.31
   4 -17  -7   -1.63  106.74
 -17   7  -4    8.98   78.33
  -4  17  -7   13.42   73.41
  -7   4 -17   21.03   97.80
  -4 -17   7   -5.13  151.83
  -7 -17  -4   -4.40   81.64
  -7  17   4   16.35   67.48
  17  -4   7   -2.64  126.83
   7 -17   4    5.35  145.75
   4  -7  17   35.04  152.08
   7  17  -4   28.41  104.63
   4   7 -17  -13.27   74.46
  -1  -8  17   -6.77  177.48
  -8 -17   1   44.43  114.80
  -1   8 -17   -6.60   72.95
  -8  17  -1   18.17   69.76
 -17   1  -8   28.44   65.66
   8 -17  -1    8.56  136.53
   8  17   1    6.61   69.30
  17   1   8   -3.97  103.80
   1  17  -8    5.61   80.46
   8  -1  17    9.76  124.83
   1 -17   8  -19.63  155.07
  -1  17   8   75.41   85.66
  -8  -1 -17    2.50   73.69
  -1 -17  -8    0.83   85.74
   1  17   8   55.62   73.41
   8   1  17   -7.04  116.43
   1 -17  -8   39.95  116.82
  -1  17  -8  -16.69   74.91
  -8   1 -17   -8.69   74.80
  -1 -17   8   14.41  160.05
 -17  -1  -8   17.31   56.89
  -8 -17  -1   13.12  119.12
  -8  17   1   43.54   71.49
  17  -1   8  -12.46  105.80
   8 -17   1   10.39  135.04
   1  -8  17   12.33  137.90
   8  17  -1   36.03   87.74
   1   8 -17   -2.33   85.79
  -3  -8  17    7.82  178.22
  -8 -17   3    0.85  147.36
  -3   8 -17   -6.31  100.57
  -8  17  -3   -0.75   75.58
   8 -17  -3   20.45  149.23
   8  17   3   14.62   73.41
   3  17  -8  -33.87   94.40
   8  -3  17   -1.20  124.96
   3 -17   8    3.91  128.19
  -3  17   8   44.39   91.24
  -8  -3 -17    0.98   68.14
  -3 -17  -8  -14.10   93.43
   3  17   8   15.06   68.90
   8   3  17  -16.33  104.07
   3 -17  -8   59.58  130.31
  -3  17  -8   16.01   70.59
  -8   3 -17   13.65   95.76
  -3 -17   8   -2.83  174.24
  -8 -17  -3   -2.16  100.38
  -8  17   3   14.19   82.39
   8 -17   3   24.26  139.65
   3  -8  17   14.54  174.61
   8  17  -3    9.49   90.63
   3   8 -17  -16.28   77.30
   0  17  -9   -2.36   86.06
   0 -17   9  -34.30  173.74
  -9 -17   0  -28.15  111.90
   0  -9  17   35.41  202.37
   9  17   0  -22.00   91.12
   0   9 -17  -29.35   90.77
   2  17  -9    5.22   96.94
   2 -17   9   -2.76  181.96
  -2  17  -9   -6.24   91.55
  -2 -17   9    4.06  185.19
   0 -18   0   28.58  104.41
   0  18   0   11.18   68.73
   1  18   1   50.59   74.35
   1 -18  -1   19.35  101.77
  -1  18  -1   54.46   74.91
  -1 -18   1   -3.45  104.22
  -1 -18  -1   -9.46   98.46
  -1  18   1   38.27   73.93
   1 -18   1   28.87  111.57
   1  18  -1    3.40   74.40
   0  18   2   -3.00   70.69
   0 -18  -2  -16.37   93.16
   0  18  -2   18.96   74.28
   0 -18   2   -4.92  113.41
  -2 -18   0  -21.23   98.85
  -2  18   0   16.06   77.16
   2 -18   0   58.60  122.78
   2  18   0    3.02   79.88
   2  18   2    6.79   65.19
   2 -18  -2   71.81  124.03
  -2  18  -2   12.56   70.08
  -2   2 -18  -16.50   80.34
  -2 -18   2    9.91  110.43
  -2 -18  -2   -1.81   92.40
  -2  18   2   36.62   81.17
   2 -18   2    9.09  126.95
   2  -2  18    2.79  134.05
   2  18  -2   22.13   74.65
  -3 -18   1   11.16  105.08
  -1   3 -18    9.52   82.45
  -3  18  -1    4.77   68.48
   3 -18  -1   27.33  112.74
   3  18   1  -10.15   66.56
   1  18  -3   -9.13   73.70
   3  -1  18    1.04  126.70
   1 -18   3   32.47  121.09
  -1  18   3    5.71   80.03
  -1 -18  -3   19.56   89.68
   1  18   3    3.22   65.25
   1 -18  -3  -10.31   96.19
  -1  18  -3  -10.76   70.37
  -3   1 -18   -1.96   74.63
  -1 -18   3  -10.81  121.91
  -3 -18  -1    4.68   96.38
  -3  18   1   27.99   76.24
   3 -18   1   -0.79  128.32
   1  -3  18    2.86  137.28
   3  18  -1   24.14   74.61
   3  18   3   12.23   70.39
   3 -18  -3    6.95  107.86
  -3  18  -3   19.23   62.39
  -3   3 -18   -1.40   83.32
  -3 -18   3  -19.70  117.88
  -3 -18  -3    4.65   87.20
  -3  18   3    8.76   79.40
   3 -18   3   13.49  106.71
   3  -3  18  -11.09  134.79
   3  18  -3   17.79   83.60
   0  18   4   10.04   75.58
   4   0  18   -7.96  119.37
   0 -18  -4   31.51   94.80
   0  18  -4    9.01   73.56
  -4   0 -18   -7.63   70.53
   0 -18   4   -0.44  121.80
  -4 -18   0   43.19  116.72
  -4  18   0   19.15   67.68
   4 -18   0   35.83  128.32
   0  -4  18  -10.52  138.53
   4  18   0  -11.85   71.79
   0   4 -18   -4.16   81.91
  -4 -18   2    4.47  117.95
  -2   4 -18    2.38   86.67
  -4  18  -2   10.65   65.55
   4 -18  -2    7.28  113.58
   4  18   2    0.07   62.19
   2  18  -4    4.17   91.78
   4  -2  18  -19.95  143.88
   2 -18   4   41.52  142.76
  -2  18   4    4.28   71.36
  -2 -18  -4  -21.68  103.24
   2  18   4   -5.94   71.59
   2 -18  -4   25.02  100.30
  -2  18  -4   13.99   76.45
  -4   2 -18   10.03   88.58
  -2 -18   4  -20.61  129.07
  -4 -18  -2   12.74   90.97
  -4  18   2   39.01   77.43
  18  -2   4  -14.49  111.33
   4 -18   2   -9.85  118.95
   2  -4  18   15.41  141.76
   4  18  -2   13.98   84.42
   4  18   4    8.68   68.55
   4 -18  -4    7.36  115.90
  -4  18  -4   -2.81   71.50
  -4   4 -18  -13.98   88.96
  -4 -18   4   -4.45  126.58
  -4 -18  -4   15.16   88.63
  -4  18   4   -6.45   85.02
   4 -18   4   37.70  139.90
   4  -4  18  -29.71  138.65
   4  18  -4   -0.62   91.99
  -1  -5  18  -22.38  148.11
  -5 -18   1   10.13  111.74
  -1   5 -18    3.73   82.99
  -5  18  -1   14.95   68.80
 -18   1  -5   -1.16   58.84
   5 -18  -1  -17.50  124.59
   5  18   1   18.21   68.78
   1  18  -5    3.20   77.97
   5  -1  18   16.71  129.19
   1 -18   5    6.90  139.02
  -1  18   5   -0.86   74.31
  -5  -1 -18    4.99   83.14
  -1 -18  -5    5.03  105.45
   1  18   5    6.93   75.06
   5   1  18  -10.60  115.27
   1 -18  -5    7.82   98.97
  -1  18  -5  -13.18   72.43
  -5   1 -18   18.12   77.48
  -1 -18   5   18.83  133.17
  -5 -18  -1   28.31  116.44
  -5  18   1  -14.15   66.85
  18  -1   5  -15.35  114.62
   5 -18   1   23.06  133.05
   1  -5  18    2.29  145.37
   5  18  -1    3.78   78.81
   1   5 -18   -1.86   80.55
  -5 -18   3   19.65  154.20
  -3   5 -18   11.72   94.43
  -5  18  -3    7.85   70.93
   5 -18  -3   -9.97  123.61
   5  18   3   -6.74   69.81
   3  18  -5  -14.01   81.61
   5  -3  18   -0.76  140.64
   3 -18   5   16.73  129.07
  -3  18   5    4.60   75.42
  -3 -18  -5    6.16   98.30
   3  18   5   14.09   68.93
   3 -18  -5  -14.23  104.48
  -3  18  -5    4.68   70.26
  -5   3 -18  -13.42   88.69
  -3 -18   5  -14.75  141.89
  -5 -18  -3  -14.60   88.18
  -5  18   3   17.18   72.83
   5 -18   3   35.13  136.29
   3  -5  18    9.56  148.23
   5  18  -3    1.52  100.34
  -5 -18   5   19.37  147.11
   5  18  -5    2.72  106.55
   0  18   6   13.98   83.64
   6   0  18    6.52  119.57
   0 -18  -6   -2.08   95.29
   0  18  -6   20.49   80.43
  -6   0 -18  -13.14   89.17
   0 -18   6   -2.82  155.07
  -6 -18   0    5.84  103.62
  -6  18   0   -3.58   68.66
   6 -18   0  -19.65  129.32
   0  -6  18   22.76  130.56
   6  18   0    8.49   83.29
   0   6 -18   -3.45   77.15
  -2  -6  18   20.29  171.38
  -6 -18   2    6.32  121.40
  -2   6 -18   18.57  102.01
  -6  18  -2   22.03   64.57
   6 -18  -2    7.44  135.91
   6  18   2   12.18   68.55
   2  18  -6   10.76   87.08
   6  -2  18    8.85  132.30
   2 -18   6  -33.89  145.87
  -2  18   6   64.84   86.32
  -6  -2 -18    8.65   79.73
  -2 -18  -6   19.02   99.92
   2  18   6   22.85   65.81
   6   2  18   -1.41  108.13
   2 -18  -6   17.75  110.67
  -2  18  -6  -16.20   77.26
  -6   2 -18   17.10   97.15
  -2 -18   6  -17.21  147.11
  -6 -18  -2   -5.19  109.86
  -6  18   2   52.37   77.77
   6 -18   2   14.23  112.01
   2  -6  18    3.58  133.05
   6  18  -2   19.07   89.19
   2   6 -18  -12.35   82.07
   1  18  -7   -4.26   90.43
   1 -18   7  -48.48  171.75
  -1  18  -7   19.63   91.78
  -1 -18   7   -3.24  179.22
   0  19   1    2.15   81.20
   0 -19  -1    5.44  110.17
   0  19  -1   -7.13   78.18
   0 -19   1   10.36  117.71
  -1 -19   0    3.81  110.61
  -1  19   0    9.29   88.03
   1 -19   0    7.67  121.65
   1  19   0   -2.59   81.35
  -2 -19   1  -10.52  117.34
  -1   2 -19    5.10   90.00
  -2  19  -1   -2.83   77.31
   2 -19  -1    6.61  111.90
   2  19   1    5.76   80.15
   1  19  -2   -9.48   85.24
   1 -19   2  -20.91  126.83
  -1  19   2    4.90   89.66
  -1 -19  -2   14.86  107.69
   1  19   2   -1.16   77.30
   1 -19  -2   16.71  106.00
  -1  19  -2   -0.83   79.45
  -2   1 -19    2.47   90.39
  -1 -19   2   16.98  122.68
  -2 -19  -1   -1.64  107.63
  -2  19   1   -1.98   85.18
   2 -19   1   17.19  124.59
   2  19  -1  -10.16   96.19
   0  19   3  -14.56   80.00
   0 -19  -3  -20.24  111.65
   0  19  -3    4.64   84.62
   0 -19   3    0.88  132.05
  -3 -19   0  -32.96  132.55
  -3  19   0   -6.13   78.50
   3 -19   0    0.08  125.33
   3  19   0    4.98   94.18
  -3 -19   2   23.90  132.80
   3  19   2   -8.59   95.22
   2  19  -3   -5.94   95.51
  -2  19  -3   -1.93   80.79
  -2 -19   3  -10.42  133.67
   3  19  -2    0.73   95.68
   0   0   0    0.00    0.00

_computing_structure_solution     'SHELXT 2018/2 (Sheldrick, 2018)'
;
_shelx_hkl_checksum              85672
loop_
_space_group_symop_operation_xyz
'x, y, z'
'-x, -y, z'
'-x, y, -z'
'x, -y, -z'
'z, x, y'
'z, -x, -y'
'-z, -x, y'
'-z, x, -y'
'y, z, x'
'-y, z, -x'
'y, -z, -x'
'-y, -z, x'
'y, x, z'
'-y, -x, z'
'y, -x, -z'
'-y, x, -z'
'x, z, y'
'-x, z, -y'
'-x, -z, y'
'x, -z, -y'
'z, y, x'
'z, -y, -x'
'-z, y, -x'
'-z, -y, x'
'x+1/2, y+1/2, z+1/2'
'-x+1/2, -y+1/2, z+1/2'
'-x+1/2, y+1/2, -z+1/2'
'x+1/2, -y+1/2, -z+1/2'
'z+1/2, x+1/2, y+1/2'
'z+1/2, -x+1/2, -y+1/2'
'-z+1/2, -x+1/2, y+1/2'
'-z+1/2, x+1/2, -y+1/2'
'y+1/2, z+1/2, x+1/2'
'-y+1/2, z+1/2, -x+1/2'
'y+1/2, -z+1/2, -x+1/2'
'-y+1/2, -z+1/2, x+1/2'
'y+1/2, x+1/2, z+1/2'
'-y+1/2, -x+1/2, z+1/2'
'y+1/2, -x+1/2, -z+1/2'
'-y+1/2, x+1/2, -z+1/2'
'x+1/2, z+1/2, y+1/2'
'-x+1/2, z+1/2, -y+1/2'
'-x+1/2, -z+1/2, y+1/2'
'x+1/2, -z+1/2, -y+1/2'
'z+1/2, y+1/2, x+1/2'
'z+1/2, -y+1/2, -x+1/2'
'-z+1/2, y+1/2, -x+1/2'
'-z+1/2, -y+1/2, x+1/2'
loop_
_atom_site_label
_atom_site_type_symbol
_atom_site_fract_x
_atom_site_fract_y
_atom_site_fract_z
_atom_site_U_iso_or_equiv
_atom_site_adp_type
_atom_site_occupancy
_atom_site_site_symmetry_order
_atom_site_calc_flag
_atom_site_refinement_flags_posn
_atom_site_refinement_flags_adp
_atom_site_refinement_flags_occupancy
_atom_site_disorder_assembly
_atom_site_disorder_group
Zn1 Zn 0.750000 0.500000 1.000000 0.072(3) Uani 1 4 d S T P . .
C1 C 0.6221(7) 0.3779(7) 1.0076(13) 0.086(6) Uani 1 2 d S T P . .
N1 N 0.6806(7) 0.4070(8) 0.9694(7) 0.082(4) Uani 1 1 d . . . . .
C2 C 0.6835(10) 0.3727(8) 0.9003(9) 0.110(5) Uani 1 1 d . . . . .
H1 H 0.717916 0.384863 0.858987 0.132 Uiso 1 1 calc R U . . .
C3 C 0.5948(9) 0.4052(9) 1.0842(12) 0.106(7) Uani 1 2 d S T P . .
H2A H 0.544104 0.430361 1.078378 0.160 Uiso 0.5 1 calc R U P . .
H2B H 0.632123 0.442480 1.105416 0.160 Uiso 0.5 1 calc R U P . .
H2C H 0.590037 0.360896 1.119486 0.160 Uiso 0.5 1 calc R U P . .
loop_
_atom_site_aniso_label
_atom_site_aniso_U_11
_atom_site_aniso_U_22
_atom_site_aniso_U_33
_atom_site_aniso_U_23
_atom_site_aniso_U_13
_atom_site_aniso_U_12
Zn1 0.062(5) 0.077(4) 0.077(4) 0.000 0.000 0.000
C1 0.090(8) 0.090(8) 0.077(12) -0.020(8) 0.020(8) -0.026(11)
N1 0.102(9) 0.094(9) 0.050(8) 0.005(6) 0.003(6) -0.015(7)
C2 0.136(12) 0.122(10) 0.071(9) -0.014(8) 0.024(8) -0.027(9)
C3 0.113(10) 0.113(10) 0.093(14) -0.020(9) 0.020(9) -0.010(13)
loop_
_atom_type_symbol
_atom_type_description
_atom_type_scat_dispersion_real
_atom_type_scat_dispersion_imag
_atom_type_scat_source
H H 0.0000 0.0000 'International Tables Vol C Tables 4.2.6.8 and 6.1.1.4'
C C 0.0000 0.0000 'International Tables Vol C Tables 4.2.6.8 and 6.1.1.4'
N N 0.0000 0.0000 'International Tables Vol C Tables 4.2.6.8 and 6.1.1.4'
Zn Zn 0.0000 0.0000 'International Tables Vol C Tables 4.2.6.8 and 6.1.1.4'
loop_
_geom_angle_atom_site_label_1
_geom_angle_atom_site_label_2
_geom_angle_atom_site_label_3
_geom_angle
_geom_angle_site_symmetry_1
_geom_angle_site_symmetry_3
N1 Zn1 N1 109.5(4) 42_646 4_567
N1 Zn1 N1 109.3(7) 42_646 43_665
N1 Zn1 N1 109.5(4) 4_567 43_665
N1 Zn1 N1 109.5(4) 42_646 .
N1 Zn1 N1 109.3(7) 4_567 .
N1 Zn1 N1 109.5(4) 43_665 .
N1 C1 N1 109.9(19) . 14_665
N1 C1 C3 125.0(9) . .
N1 C1 C3 125.0(9) 14_665 .
C1 N1 C2 108.1(15) . .
C1 N1 Zn1 128.1(10) . .
C2 N1 Zn1 123.4(10) . .
N1 C2 C2 106.7(9) . 14_665
loop_
_geom_bond_atom_site_label_1
_geom_bond_atom_site_label_2
_geom_bond_distance
_geom_bond_site_symmetry_2
Zn1 N1 2.026(13) 42_646
Zn1 N1 2.026(13) 4_567
Zn1 N1 2.026(13) 43_665
Zn1 N1 2.026(13) .
C1 N1 1.277(13) .
C1 N1 1.277(13) 14_665
C1 C3 1.45(2) .
N1 C2 1.303(15) .
C2 C2 1.34(3) 14_665
