#------------------------------------------------------------------------------
#$Date: 2021-03-29 10:20:34 +0300 (Mon, 29 Mar 2021) $
#$Revision: 263404 $
#$URL: file:///home/coder/svn-repositories/cod/cif/1/56/13/1561321.cif $
#------------------------------------------------------------------------------
#
# This file is available in the Crystallography Open Database (COD),
# http://www.crystallography.net/
#
# All data on this site have been placed in the public domain by the
# contributors.
#
data_1561321
loop_
_publ_author_name
'Zhang, Xiu-Mei'
'Li, Peng'
'Gao, Wei'
'Liu, Feng'
'Liu, Jie-Ping'
_publ_section_title
;
 Construction of three lanthanide metal-organic frameworks: Synthesis,
 structure, magnetic properties and highly selective sensing of metal ions
;
_journal_name_full               'Journal of Solid State Chemistry'
_journal_page_first              6
_journal_page_last               11
_journal_paper_doi               10.1016/j.jssc.2016.09.009
_journal_volume                  244
_journal_year                    2016
_chemical_formula_sum            'C9 H17 N4 O11 Tb'
_chemical_formula_weight         516.20
_space_group_crystal_system      triclinic
_space_group_IT_number           2
_space_group_name_Hall           '-P 1'
_space_group_name_H-M_alt        'P -1'
_atom_sites_solution_hydrogens   difmap
_cell_angle_alpha                111.761(4)
_cell_angle_beta                 99.506(4)
_cell_angle_gamma                100.499(4)
_cell_formula_units_Z            2
_cell_length_a                   7.4990(10)
_cell_length_b                   10.9055(13)
_cell_length_c                   11.4538(15)
_cell_measurement_reflns_used    8621
_cell_measurement_temperature    293(2)
_cell_measurement_theta_max      27.48
_cell_measurement_theta_min      2.86
_cell_volume                     827.14(19)
_computing_cell_refinement       'Bruker SMART'
_computing_data_collection       'Bruker SMART'
_computing_data_reduction        'Bruker SAINT'
_computing_molecular_graphics    'Bruker SHELXTL'
_computing_publication_material  'Bruker SHELXTL'
_computing_structure_refinement  'SHELXL-2014/7 (Sheldrick, 2014)'
_computing_structure_solution    'Bruker SHELXTL'
_diffrn_ambient_temperature      293(2)
_diffrn_measured_fraction_theta_full 0.990
_diffrn_measured_fraction_theta_max 0.990
_diffrn_measurement_device_type  'CCD area detector'
_diffrn_measurement_method       'phi and omega scans'
_diffrn_radiation_type           MoK\a
_diffrn_radiation_wavelength     0.71073
_diffrn_reflns_av_R_equivalents  0.0224
_diffrn_reflns_av_unetI/netI     0.0242
_diffrn_reflns_Laue_measured_fraction_full 0.990
_diffrn_reflns_Laue_measured_fraction_max 0.990
_diffrn_reflns_limit_h_max       8
_diffrn_reflns_limit_h_min       -8
_diffrn_reflns_limit_k_max       12
_diffrn_reflns_limit_k_min       -12
_diffrn_reflns_limit_l_max       13
_diffrn_reflns_limit_l_min       -13
_diffrn_reflns_number            8760
_diffrn_reflns_point_group_measured_fraction_full 0.990
_diffrn_reflns_point_group_measured_fraction_max 0.990
_diffrn_reflns_theta_full        25.008
_diffrn_reflns_theta_max         25.008
_diffrn_reflns_theta_min         2.857
_diffrn_source                   'fine-focus sealed tube'
_exptl_absorpt_coefficient_mu    4.340
_exptl_absorpt_correction_type   none
_exptl_crystal_colour            colorless
_exptl_crystal_density_diffrn    2.073
_exptl_crystal_density_method    'not measured'
_exptl_crystal_description       block
_exptl_crystal_F_000             504
_exptl_crystal_size_max          0.200
_exptl_crystal_size_mid          0.100
_exptl_crystal_size_min          0.080
_refine_diff_density_max         0.674
_refine_diff_density_min         -0.936
_refine_diff_density_rms         0.149
_refine_ls_extinction_coef       .
_refine_ls_extinction_method     none
_refine_ls_goodness_of_fit_ref   1.226
_refine_ls_hydrogen_treatment    refxyz
_refine_ls_matrix_type           full
_refine_ls_number_parameters     274
_refine_ls_number_reflns         2875
_refine_ls_number_restraints     7
_refine_ls_restrained_S_all      1.225
_refine_ls_R_factor_all          0.0189
_refine_ls_R_factor_gt           0.0176
_refine_ls_shift/su_max          0.001
_refine_ls_shift/su_mean         0.000
_refine_ls_structure_factor_coef Fsqd
_refine_ls_weighting_details
'w=1/[\s^2^(Fo^2^)+(0.0272P)^2^] where P=(Fo^2^+2Fc^2^)/3'
_refine_ls_weighting_scheme      calc
_refine_ls_wR_factor_gt          0.0480
_refine_ls_wR_factor_ref         0.0487
_reflns_Friedel_coverage         0.000
_reflns_Friedel_fraction_full    .
_reflns_Friedel_fraction_max     .
_reflns_number_gt                2749
_reflns_number_total             2875
_reflns_threshold_expression     'I > 2\s(I)'
_cod_data_source_file            mmc4.cif
_cod_data_source_block           2
_cod_database_code               1561321
_shelx_space_group_comment
;
The symmetry employed for this shelxl refinement is uniquely defined
by the following loop, which should always be used as a source of
symmetry information in preference to the above space-group names.
They are only intended as comments.
;
_shelx_estimated_absorpt_t_min   0.477
_shelx_estimated_absorpt_t_max   0.723
_shelx_res_file
;

    3.res created by SHELXL-2014/7


TITL 2 in P1                     New: P-1
CELL  0.71073    7.4990   10.9055   11.4538   111.761    99.506   100.499
ZERR  2           0.0010    0.0013    0.0015     0.004     0.004     0.004
LATT   1
SFAC  C   2.31000  20.84392   1.02000  10.20751   1.58860   0.56870   0.86500 =
         51.65125   0.21560   0.00330   0.00160    11.500   0.68000  12.01000
SFAC  N  12.21261   0.00570   3.13220   9.89331   2.01250  28.99754   1.16630 =
          0.58260 -11.52901   0.00610   0.00330    19.600   0.68000  14.01000
SFAC  O   3.04850  13.27711   2.28680   5.70111   1.54630   0.32390   0.86700 =
         32.90894   0.25080   0.01060   0.00600    32.500   0.68000  16.00000
SFAC Tb  25.89763   2.24256  18.21852   0.19614  14.31671  12.66481   2.95354 =
        115.36210   3.58324  -0.17230   4.15370 17400.000   1.76000 158.92999
SFAC  H
UNIT    18    8  22   2 34

L.S. 20
htab
omit -3 50.02
size 0.1 0.2 0.08
FMAP 2
PLAN 20
dfix 0.83 o6 h6b
DFIX 0.83 o6 h6c
dfix 1.38 h6b h6c
dfix 0.83 o10 h10a o10 h10b
dfix 1.38 h10b h10a
dfix 0.83 o9 h9b
ACTA
BOND
BOND $H
EQIV $1 -x+1, -y+1, -z+1
EQIV $3 x, y, z+1
EQIV $4 -x+2, -y+2, -z+1
EQIV $5 -x+1, -y+1, -z
EQIV $6 x+1, y, z+1
EQIV $7 -x+1, -y+1, -z+2
EQIV $8 -x+2, -y+1, -z+1
EQIV $9 -x+1, -y, -z+1
EQIV $10 -x+1, -y, -z
EQIV $11 -x, -y+1, -z+1
EQIV $12 x+1, y+1, z+1
HTAB O5 O9_$1
HTAB O5 N4_$3
HTAB O6 O11
HTAB O6 O11_$4
HTAB O7 N3_$5
HTAB O7 N3_$6
HTAB O8 O10_$7
HTAB O8 O9_$8
HTAB O9 O10_$9
HTAB O10 O4_$11
HTAB O10 N1_$3
HTAB O11 N2_$12
HTAB O11 O3
CONF
WGHT    0.027200
FVAR       0.18389
TB1   4    0.663271    0.756896    0.665039    11.00000    0.02213    0.00827 =
         0.01158    0.00484    0.00269    0.00520
N1    2    0.113228    0.373410   -0.163892    11.00000    0.03728    0.01670 =
         0.01437    0.00466    0.00153   -0.00025
N2    2    0.044559    0.335624   -0.290999    11.00000    0.04329    0.02296 =
         0.01562    0.00196    0.00259   -0.00570
N3    2    0.085951    0.441354   -0.317671    11.00000    0.05797    0.03215 =
         0.01533    0.00887   -0.00256   -0.01087
N4    2    0.181929    0.552340   -0.209181    11.00000    0.06035    0.02400 =
         0.01573    0.01043   -0.00057   -0.00813
O1    3    0.493772    0.647086    0.458765    11.00000    0.06275    0.01695 =
         0.01308    0.00554   -0.00358    0.00755
O2    3    0.411551    0.439564    0.298875    11.00000    0.04780    0.01162 =
         0.02114    0.01022    0.00591    0.00875
O3    3    0.474865    1.055978    0.357426    11.00000    0.02517    0.01015 =
         0.01753    0.00420   -0.00074    0.00427
O4    3    0.287695    1.008769    0.169571    11.00000    0.03129    0.01199 =
         0.01789    0.00666    0.00005    0.00809
O5    3    0.401029    0.755515    0.751676    11.00000    0.05546    0.02510 =
         0.08817    0.03445    0.05201    0.02047
H5A   5    0.359077    0.812972    0.777428    11.00000   -1.50000
H5B   5    0.329813    0.691133    0.771738    11.00000   -1.50000
O6    3    0.871928    0.897720    0.601722    11.00000    0.03667    0.03912 =
         0.05916    0.03682    0.03018    0.02044
H6C   5    0.976956    0.894346    0.586985    11.00000   -1.50000
H6B   5    0.840393    0.960744    0.584530    11.00000   -1.50000
O7    3    0.877331    0.629111    0.573732    11.00000    0.07146    0.05357 =
         0.02972    0.02682    0.03065    0.04969
H7A   5    0.889240    0.605963    0.503666    11.00000   -1.50000
H7B   5    0.920661    0.595128    0.602916    11.00000   -1.50000
O8    3    0.919291    0.793018    0.838213    11.00000    0.02678    0.03978 =
         0.02513    0.01624    0.00013    0.00983
H8B   5    0.913018    0.804971    0.916388    11.00000   -1.50000
H8C   5    1.005086    0.828250    0.846115    11.00000   -1.50000
O9    3    0.705501    0.024410    0.092875    11.00000    0.08491    0.04528 =
         0.05526    0.02869    0.03846    0.04176
H9B   5    0.736029   -0.039528    0.101050    11.00000   -1.50000
O10   3    0.094546    0.161733    0.914977    11.00000    0.03650    0.03008 =
         0.03604    0.01857   -0.00371    0.00215
H10A  5    0.113791    0.214144    0.877582    11.00000   -1.50000
H10B  5   -0.013070    0.105582    0.878347    11.00000   -1.50000
O11   3    0.828733    1.089028    0.505237    11.00000    0.02157    0.02563 =
         0.03178    0.00804    0.00163    0.00645
H11A  5    0.874429    1.167895    0.573126    11.00000   -1.50000
H11B  5    0.742805    1.089785    0.468338    11.00000   -1.50000
C1    1    0.439854    0.566458    0.340972    11.00000    0.02552    0.01220 =
         0.01770    0.00814    0.00319    0.00591
C2    1    0.403236    0.626794    0.243793    11.00000    0.02308    0.01170 =
         0.01507    0.00763    0.00472    0.00592
C3    1    0.433066    0.768321    0.286698    11.00000    0.02191    0.01064 =
         0.01135    0.00282    0.00084    0.00342
H3A   5    0.487040    0.817653    0.368259    11.00000   -1.20000
C4    1    0.381442    0.822619    0.198315    11.00000    0.02006    0.01045 =
         0.01611    0.00610    0.00473    0.00377
C5    1    0.385427    0.970843    0.244556    11.00000    0.01841    0.01102 =
         0.01765    0.00847    0.00640    0.00305
C6    1    0.308169    0.736675    0.067467    11.00000    0.02545    0.01459 =
         0.01557    0.00887    0.00397    0.00672
H6A   5    0.269644    0.771275    0.005832    11.00000   -1.20000
C7    1    0.282598    0.595522    0.022643    11.00000    0.02252    0.01304 =
         0.01324    0.00551    0.00471    0.00369
C8    1    0.329808    0.541602    0.112681    11.00000    0.02692    0.00672 =
         0.01772    0.00401    0.00381    0.00320
H8A   5    0.308225    0.451583    0.084980    11.00000   -1.20000
C9    1    0.195432    0.507421   -0.114926    11.00000    0.02585    0.01541 =
         0.01327    0.00701    0.00401    0.00049

HKLF 4

REM  2 in P1                     New: P-1
REM R1 =  0.0176 for    2749 Fo > 4sig(Fo)  and  0.0189 for all    2875 data
REM    274 parameters refined using      7 restraints

END

WGHT      0.0271      0.0000

REM Instructions for potential hydrogen bonds
HTAB O5 O9_$1
HTAB O5 N4_$3
HTAB O6 O11_$4
HTAB O6 O11
HTAB O7 N3_$5
HTAB O7 N3_$6
HTAB O8 O10_$7
HTAB O8 O9_$8
HTAB O9 O10_$9
HTAB O10 N1_$3
HTAB O10 O4_$11
HTAB O11 N2_$12
HTAB O11 O3

REM Highest difference peak  0.674,  deepest hole -0.936,  1-sigma level  0.149
Q1    1   0.5971 -0.0257  0.0427  11.00000  0.05    0.67
Q2    1   0.6734  0.0163 -0.0057  11.00000  0.05    0.55
Q3    1  -0.0012  0.4746 -0.2843  11.00000  0.05    0.41
Q4    1   0.7241  0.0821  0.1113  11.00000  0.05    0.39
Q5    1   0.0843  0.5807 -0.1839  11.00000  0.05    0.35
Q6    1   0.3562  0.6584  0.8716  11.00000  0.05    0.34
Q7    1   0.8212  0.4213  0.4515  11.00000  0.05    0.34
Q8    1   0.1586  0.5304 -0.3843  11.00000  0.05    0.34
Q9    1   0.5599  0.8161  0.1097  11.00000  0.05    0.33
Q10   1   0.8122  0.5238  0.4763  11.00000  0.05    0.32
Q11   1   0.3774  0.8489  0.8311  11.00000  0.05    0.31
Q12   1   0.9030  0.4776  0.4628  11.00000  0.05    0.31
Q13   1   0.3281  0.8598 -0.0584  11.00000  0.05    0.31
Q14   1   0.5919  0.9206  0.2538  11.00000  0.05    0.30
Q15   1   0.2888  0.6682  0.6192  11.00000  0.05    0.30
Q16   1   0.8019  0.5527  0.4072  11.00000  0.05    0.30
Q17   1   1.0286  1.0970  0.5485  11.00000  0.05    0.30
Q18   1   1.1094  1.0423  0.6516  11.00000  0.05    0.30
Q19   1   0.4973  0.7817  0.0000  11.00000  0.05    0.30
Q20   1   0.1023  0.2599 -0.4203  11.00000  0.05    0.29
;
_shelx_res_checksum              45703
_shelx_hkl_file
;
   1   0   0  160.16    4.79
  -2   0   0   40.47    1.67
   2   0   0   43.53    1.47
   2   0   0   40.84    1.73
  -3   0   0  224.11    6.81
  -3   0   0  218.40    6.99
   3   0   0  237.25    6.83
   3   0   0  238.00    7.05
  -4   0   0  215.07    6.61
  -4   0   0  216.01    6.85
   4   0   0  219.49    6.62
   4   0   0  222.24    6.84
  -5   0   0   69.83    2.81
  -5   0   0   68.91    2.53
   5   0   0   59.71    2.69
   5   0   0   71.51    2.82
  -6   0   0   75.70    3.57
  -6   0   0   81.45    3.06
   6   0   0   87.72    3.31
   6   0   0   84.10    3.13
  -7   0   0   19.27    1.76
  -7   0   0   17.78    1.49
   7   0   0   20.67    1.55
   7   0   0   19.11    1.65
  -8   0   0   10.74    1.38
  -8   0   0    8.54    1.34
   8   0   0   11.36    1.41
  -9   0   0   23.20    1.91
   9   0   0   26.12    1.91
   9  -1   0    2.46    0.90
  -9   1   0   -1.68    1.10
  -9   1   0    0.89    0.76
   8  -1   0   57.78    2.78
   8  -1   0   54.61    2.58
  -8   1   0   60.94    2.59
  -8   1   0   52.42    2.92
   7  -1   0   41.01    2.25
   7  -1   0   40.90    1.99
  -7   1   0   34.58    2.22
  -7   1   0   37.80    1.91
   6  -1   0    4.02    0.68
   6  -1   0    2.99    0.94
  -6   1   0    1.90    0.60
  -6   1   0    3.03    0.79
   5  -1   0  190.58    6.20
   5  -1   0  184.49    5.77
  -5   1   0  181.62    5.76
  -5   1   0  186.38    6.06
   4  -1   0  345.40   10.31
   4  -1   0  338.04    9.91
  -4   1   0  329.65    9.90
  -4   1   0  335.19   10.16
   3  -1   0   66.89    2.30
   3  -1   0   69.66    2.53
  -3   1   0   69.04    2.53
  -3   1   0   68.06    2.24
   2  -1   0   25.24    0.98
   2  -1   0   27.33    1.17
  -2   1   0   25.97    1.11
  -2   1   0   24.78    0.97
   1  -1   0  147.31    4.98
   1  -1   0  201.82    5.10
  -1  -1   0  267.30    7.80
  -1  -1   0  268.21    7.76
   1   1   0  276.82    7.94
  -2  -1   0    2.98    0.49
  -2  -1   0    2.73    0.41
   2   1   0    2.09    0.37
   2   1   0    3.76    0.60
  -3  -1   0   14.66    1.18
  -3  -1   0   12.68    0.87
   3   1   0   13.88    0.91
   3   1   0   12.14    0.93
  -4  -1   0  280.56    8.28
  -4  -1   0  269.66    8.04
   4   1   0  272.39    8.05
   4   1   0  245.64    8.08
  -5  -1   0   86.01    3.11
  -5  -1   0   92.90    3.38
   5   1   0   78.82    3.18
   5   1   0   88.25    3.13
  -6  -1   0    0.14    0.89
  -6  -1   0    0.84    0.95
   6   1   0    1.04    0.61
   6   1   0    0.06    0.61
  -7  -1   0   36.43    2.31
  -7  -1   0   35.61    2.01
   7   1   0   37.33    2.02
   7   1   0   38.11    2.04
  -8  -1   0   76.80    3.20
  -8  -1   0   75.83    3.53
   8   1   0   79.83    3.23
  -9  -1   0    1.09    1.30
  -9  -1   0    3.58    1.00
   9  -2   0   45.29    2.62
  -9   2   0   44.34    3.00
  -9   2   0   43.40    2.31
   8  -2   0    1.66    0.91
   8  -2   0    1.29    0.70
  -8   2   0    1.35    0.64
  -8   2   0    0.48    0.89
   7  -2   0   56.78    2.88
   7  -2   0   57.34    2.39
  -7   2   0   57.75    2.39
  -7   2   0   57.13    2.76
   6  -2   0  123.51    4.74
   6  -2   0  120.73    4.11
  -6   2   0  129.26    4.51
  -6   2   0  124.25    4.12
   5  -2   0   40.17    1.64
   5  -2   0   37.66    2.21
  -5   2   0   36.90    1.61
  -5   2   0   34.65    1.83
   4  -2   0  163.63    5.31
   4  -2   0  165.65    4.99
  -4   2   0  165.43    5.26
  -4   2   0  161.35    4.97
   3  -2   0  439.77   12.76
   3  -2   0  436.37   12.98
  -3   2   0  463.61   12.99
  -3   2   0  434.14   12.74
   2  -2   0    5.91    0.43
  -2   2   0    5.11    0.39
   1  -2   0   96.88    2.94
  -1   2   0   96.11    2.93
   0  -2   0  163.16    4.79
   0   2   0  168.87    4.80
  -1  -2   0   51.75    1.70
  -1  -2   0   53.74    1.76
   1   2   0   54.10    1.70
   1   2   0   55.08    1.79
  -2  -2   0   31.25    1.25
  -2  -2   0   29.55    1.17
   2   2   0   29.47    1.12
   2   2   0   31.67    1.28
  -3  -2   0  296.72    9.22
  -3  -2   0  286.67    8.66
   3   2   0  299.77    8.70
   3   2   0  285.00    8.59
  -4  -2   0   72.56    2.86
  -4  -2   0   70.04    2.59
   4   2   0   68.09    2.51
   4   2   0   70.54    2.61
  -5  -2   0   23.07    1.50
  -5  -2   0   25.94    1.79
   5   2   0   24.49    1.51
   5   2   0   21.60    1.40
  -6  -2   0   44.96    2.18
  -6  -2   0   48.33    2.42
   6   2   0   44.72    2.09
   6   2   0   44.12    2.17
  -7  -2   0   20.50    1.59
  -7  -2   0   21.21    1.93
   7   2   0   20.86    1.53
   7   2   0   17.79    1.69
  -8  -2   0   11.81    1.58
   8   2   0   13.02    1.54
   9  -3   0    4.80    1.22
  -9   3   0    5.92    0.90
   8  -3   0   66.42    3.29
   8  -3   0   63.17    2.63
  -8   3   0   66.43    2.69
  -8   3   0   64.43    3.24
   7  -3   0   35.40    3.11
   7  -3   0   44.33    1.94
  -7   3   0   41.62    2.33
  -7   3   0   41.54    1.91
   6  -3   0   17.86    1.96
   6  -3   0   17.41    1.22
  -6   3   0   16.62    1.47
  -6   3   0   16.46    1.17
   5  -3   0  119.32    3.76
   5  -3   0  117.40    4.23
  -5   3   0  120.10    4.13
  -5   3   0  113.50    3.74
   4  -3   0   66.49    2.27
   4  -3   0   68.82    2.62
  -4   3   0   67.48    2.52
  -4   3   0   67.26    2.21
   3  -3   0   26.35    1.00
   3  -3   0   27.06    1.28
  -3   3   0   25.62    0.96
  -3   3   0   27.05    1.21
   2  -3   0  284.19    8.16
   2  -3   0  299.31    7.88
  -2   3   0  249.46    7.87
  -2   3   0  270.69    8.43
   1  -3   0  361.93   10.48
  -1   3   0  361.13   10.47
   0  -3   0    0.47    0.21
   0  -3   0    0.10    0.21
   0   3   0    0.76    0.23
  -1  -3   0  167.14    4.91
  -1  -3   0  161.86    4.92
   1   3   0  165.98    4.95
   1   3   0  166.37    4.91
  -2  -3   0  186.93    5.71
  -2  -3   0  181.55    5.63
   2   3   0  198.88    5.76
   2   3   0  190.85    5.63
  -3  -3   0   19.61    1.16
  -3  -3   0   19.65    1.08
   3   3   0   18.84    0.94
   3   3   0   20.05    1.18
  -4  -3   0  222.52    6.90
  -4  -3   0  218.71    6.80
   4   3   0  217.77    6.68
   4   3   0  219.77    6.83
  -5  -3   0  140.15    4.74
  -5  -3   0  144.73    5.02
   5   3   0  139.90    4.61
   5   3   0  141.07    4.76
  -6  -3   0    2.81    0.99
  -6  -3   0    2.22    0.70
   6   3   0    1.92    0.76
   6   3   0    3.42    0.67
  -7  -3   0   66.25    2.94
  -7  -3   0   66.66    3.25
   7   3   0   71.55    2.81
  -8  -3   0   16.80    1.75
  -8  -3   0   13.95    1.67
   8   3   0   17.44    1.48
   9  -4   0   38.14    2.15
   9  -4   0   44.13    2.95
  -9   4   0   47.34    2.23
   8  -4   0    9.27    1.58
   8  -4   0    9.00    1.17
  -8   4   0   10.82    1.22
  -8   4   0   10.39    1.79
   7  -4   0   34.00    2.56
   7  -4   0   35.49    1.67
  -7   4   0   34.81    1.68
  -7   4   0   35.49    2.17
   6  -4   0   98.24    3.91
   6  -4   0  100.70    3.26
  -6   4   0   94.23    3.70
  -6   4   0   94.62    3.23
   5  -4   0    2.08    0.75
   5  -4   0    1.97    0.41
  -5   4   0    1.86    0.59
  -5   4   0    1.86    0.40
   4  -4   0  116.28    3.50
   4  -4   0  115.95    3.95
  -4   4   0  113.22    3.86
  -4   4   0  114.20    3.47
   3  -4   0  444.96   12.51
   3  -4   0  435.47   12.90
  -3   4   0  437.83   12.87
  -3   4   0  435.82   12.48
   2  -4   0  199.02    6.05
  -2   4   0  199.73    6.03
   1  -4   0  367.57   10.25
   1  -4   0  344.61    9.94
  -1   4   0  338.67    9.93
   0  -4   0  323.06    9.13
   0  -4   0  309.26    9.28
   0   4   0  318.50    9.15
  -1  -4   0  156.74    4.77
  -1  -4   0  158.41    4.93
   1   4   0  161.26    5.10
  -2  -4   0  126.73    3.92
  -2  -4   0  124.35    3.97
   2   4   0  127.25    4.03
   2   4   0  126.63    3.91
  -3  -4   0  375.25   11.24
  -3  -4   0  382.14   11.32
   3   4   0  399.54   11.38
   3   4   0  374.20   11.20
  -4  -4   0    5.58    0.75
  -4  -4   0    5.66    1.09
   4   4   0    6.22    0.75
   4   4   0    5.40    0.78
  -5  -4   0   27.81    1.99
  -5  -4   0   28.98    1.70
   5   4   0   29.57    1.76
   5   4   0   29.11    1.46
  -6  -4   0   87.43    3.38
  -6  -4   0   86.71    3.68
   6   4   0   84.34    3.42
   6   4   0   85.91    3.23
  -7  -4   0   18.17    2.24
  -7  -4   0   21.51    1.75
   7   4   0   24.42    1.55
   8   4   0   19.49    1.54
   9  -5   0    6.09    0.88
   9  -5   0    6.04    1.65
  -9   5   0    6.12    0.88
   8  -5   0   55.39    3.46
   8  -5   0   55.41    2.31
  -8   5   0   59.42    2.38
  -8   5   0   54.39    3.04
   7  -5   0   43.08    2.70
   7  -5   0   42.06    1.86
  -7   5   0   42.13    1.79
  -7   5   0   39.41    2.35
   6  -5   0    0.96    0.41
   6  -5   0    0.67    0.85
  -6   5   0    0.89    0.65
  -6   5   0    0.73    0.40
   5  -5   0  188.87    6.35
   5  -5   0  193.03    5.75
  -5   5   0  189.06    5.72
  -5   5   0  200.78    6.29
   4  -5   0   54.76    1.71
  -4   5   0   52.70    2.16
  -4   5   0   53.16    1.67
  -3   5   0   56.79    2.13
   2  -5   0  313.31    9.41
  -2   5   0  318.94    9.39
   1  -5   0   15.08    0.56
   1  -5   0   14.56    0.83
  -1   5   0   16.00    0.55
   0  -5   0  121.04    3.64
   0  -5   0  121.86    3.79
   0   5   0  120.06    3.67
  -1  -5   0  183.32    5.61
  -1  -5   0  185.35    5.58
   1   5   0  189.56    5.64
  -2  -5   0  201.98    6.26
  -2  -5   0  209.37    6.24
   2   5   0  206.51    6.23
   2   5   0  206.48    6.32
  -3  -5   0   22.59    1.25
  -3  -5   0   23.65    1.38
   3   5   0   23.14    1.14
   3   5   0   24.94    1.42
  -4  -5   0  124.55    4.22
  -4  -5   0  120.73    4.25
   4   5   0  124.35    4.07
   4   5   0  131.22    4.34
  -5  -5   0   35.87    1.94
  -5  -5   0   32.02    2.43
   5   5   0   36.85    1.65
   5   5   0   35.43    1.97
  -6  -5   0    3.23    1.26
  -6  -5   0    3.18    0.81
   6   5   0    3.45    0.66
  -7  -5   0   21.89    1.85
  -7  -5   0   16.89    2.39
   9  -6   0   36.04    3.42
   9  -6   0   29.25    1.80
  -9   6   0   36.09    2.04
   8  -6   0   -0.46    0.49
   8  -6   0   -0.57    1.15
  -8   6   0    1.02    0.53
   7  -6   0   55.53    3.04
   7  -6   0   55.54    2.04
  -7   6   0   51.94    2.74
  -7   6   0   53.74    2.05
   6  -6   0  130.86    4.04
   6  -6   0  132.30    4.91
  -6   6   0  131.52    4.02
  -6   6   0  128.26    4.71
   5  -6   0    0.00    0.23
   5  -6   0    1.42    0.74
  -5   6   0    0.08    0.21
  -5   6   0   -0.25    0.45
   4  -6   0  186.73    6.05
  -4   6   0  185.61    5.97
   3  -6   0  169.48    5.44
  -3   6   0  169.86    5.40
   2  -6   0   73.56    2.64
   1  -6   0  218.18    6.39
   1  -6   0  227.21    6.79
  -1   6   0  221.44    6.40
   0  -6   0  293.53    8.63
   0  -6   0  288.46    8.57
   0  -6   0  285.51    8.37
   0   6   0  284.73    8.41
  -1  -6   0   29.74    1.31
  -1  -6   0   29.33    1.29
   1   6   0   31.69    1.38
  -2  -6   0   36.50    1.61
  -2  -6   0   34.99    1.53
   2   6   0   36.12    1.68
  -3  -6   0   97.02    3.33
  -3  -6   0   97.26    3.40
   3   6   0   97.17    3.48
   3   6   0   97.61    3.28
  -4  -6   0   10.96    1.43
  -4  -6   0   10.94    1.21
   4   6   0   10.03    1.33
   4   6   0   12.62    0.95
  -5  -6   0   32.40    1.92
  -5  -6   0   32.90    2.10
   5   6   0   34.43    2.12
   5   6   0   33.57    1.62
  -6  -6   0   39.97    2.99
  -6  -6   0   41.03    2.25
   6   6   0   45.69    2.03
  -7  -6   0    0.02    0.92
   7   6   0    1.40    0.67
   9  -7   0   15.38    3.01
  -9   7   0   15.58    1.44
   8  -7   0   58.10    3.49
  -8   7   0   58.66    2.23
   7  -7   0    8.96    0.77
   7  -7   0    9.51    1.83
  -7   7   0   11.22    0.80
  -7   7   0   10.99    1.59
   6  -7   0   28.54    1.12
   6  -7   0   29.70    2.12
  -6   7   0   30.41    1.87
  -6   7   0   30.00    1.08
   5  -7   0  215.69    8.10
  -5   7   0  225.27    7.17
   4  -7   0   67.72    2.78
  -4   7   0   67.81    2.67
   3  -7   0    0.52    0.48
   2  -7   0  104.54    3.60
   1  -7   0  120.02    3.54
   1  -7   0  122.13    4.00
  -1   7   0  118.09    3.54
   0  -7   0   31.61    1.46
   0  -7   0   31.05    1.23
   0  -7   0   30.36    1.40
   0   7   0   32.06    1.26
  -1  -7   0  158.18    4.92
  -1  -7   0  157.56    5.02
   1   7   0  163.69    5.00
  -2  -7   0  114.08    3.87
  -2  -7   0  118.68    3.90
   2   7   0  120.94    4.05
  -3  -7   0    1.05    0.62
  -3  -7   0    0.25    0.52
   3   7   0    0.76    0.67
  -4  -7   0   76.40    3.02
  -4  -7   0   82.73    3.08
   4   7   0   75.31    3.17
  -5  -7   0   74.00    3.05
  -5  -7   0   71.73    3.24
   5   7   0   73.74    2.80
   5   7   0   72.32    3.97
  -6  -7   0   -0.95    1.35
  -6  -7   0    0.97    0.82
   6   7   0    1.56    1.12
   8  -8   0   -0.73    1.19
  -8   8   0    0.49    0.40
   7  -8   0   20.54    0.91
   7  -8   0   21.01    2.22
   6  -8   0   80.29    3.60
  -6   8   0   83.50    3.45
   5  -8   0    2.73    0.80
  -5   8   0    3.15    0.66
   4  -8   0  169.57    6.27
   3  -8   0  152.51    5.14
   2  -8   0   14.96    1.14
   1  -8   0  118.57    4.02
   1  -8   0  115.17    3.49
   1  -8   0  119.92    3.99
  -1   8   0  117.06    3.51
   0  -8   0  169.40    5.37
   0  -8   0  170.29    5.45
   0  -8   0  168.82    5.07
   0   8   0  165.97    5.12
  -1  -8   0    4.09    0.78
  -1  -8   0    3.80    0.54
   1   8   0    4.32    0.60
  -2  -8   0  116.94    3.81
  -2  -8   0  109.68    3.97
   2   8   0  115.52    3.95
  -3  -8   0  114.02    4.05
  -3  -8   0  115.20    4.00
   3   8   0  120.03    4.19
  -4  -8   0    0.61    0.63
  -4  -8   0    0.81    0.76
   4   8   0   -0.47    0.85
  -5  -8   0   27.20    2.27
  -5  -8   0   28.13    1.88
   8  -9   0   69.53    3.96
   7  -9   0   25.73    2.40
   6  -9   0   10.05    1.71
  -6   9   0   13.21    1.42
   5  -9   0  111.74    4.32
   4  -9   0   38.97    2.12
   3  -9   0   25.34    1.63
   2  -9   0   93.96    3.50
   1  -9   0   43.55    2.03
   1  -9   0   44.77    2.03
   1  -9   0   44.55    1.48
  -1   9   0   44.92    1.48
   0  -9   0   44.34    1.97
   0  -9   0   43.98    1.59
   0  -9   0   38.65    1.88
   0   9   0   42.14    1.64
  -1  -9   0  108.18    3.85
  -1  -9   0  115.12    3.66
  -1  -9   0  116.31    3.97
   1   9   0  109.64    4.19
  -2  -9   0   30.16    1.53
  -2  -9   0   28.79    1.62
   2   9   0   28.48    1.76
  -3  -9   0   18.60    1.52
  -3  -9   0   20.14    1.40
   3   9   0   14.06    1.67
  -4  -9   0   68.13    2.99
  -4  -9   0   64.33    2.80
  -5  -9   0   22.61    1.91
   7 -10   0   62.08    3.49
   6 -10   0   31.60    2.38
   5 -10   0    0.71    0.77
   4 -10   0  103.51    4.06
   3 -10   0  111.90    4.19
   2 -10   0    7.81    1.15
   2 -10   0    9.17    1.14
   1 -10   0  161.93    5.32
   1 -10   0  156.59    4.66
   1 -10   0  158.49    5.38
  -1  10   0  154.51    4.65
   0 -10   0  155.60    4.68
   0 -10   0  152.34    5.20
   0 -10   0  152.74    5.13
   0  10   0  150.10    4.72
  -1 -10   0    6.83    1.03
  -1 -10   0    7.63    0.88
  -1 -10   0    8.79    1.14
   1  10   0    6.48    0.82
  -2 -10   0   30.85    1.78
  -2 -10   0   33.24    1.85
  -2 -10   0   31.18    1.88
   2  10   0   29.84    2.01
  -3 -10   0   53.85    2.47
  -3 -10   0   51.56    2.30
   3  10   0   45.65    2.77
  -4 -10   0    1.83    0.75
   7 -11   0    5.42    1.94
   6 -11   0   26.44    2.40
   5 -11   0   69.28    3.35
   4 -11   0   42.72    2.44
   3 -11   0   24.49    1.79
   2 -11   0  108.37    4.20
   2 -11   0  114.70    4.22
   1 -11   0   24.21    1.69
   1 -11   0   26.57    1.78
   1 -11   0   25.61    0.97
  -1  11   0   25.81    0.99
   0 -11   0    7.96    1.31
   0 -11   0    5.57    1.07
   0 -11   0    6.14    0.72
   0  11   0    5.15    0.63
  -1 -11   0   91.97    3.60
  -1 -11   0   96.08    3.16
  -1 -11   0   90.13    3.54
   1  11   0   89.28    3.35
  -2 -11   0   30.80    1.94
  -2 -11   0   30.84    1.98
  -2 -11   0   33.53    1.71
   2  11   0   31.22    2.14
   5 -12   0    1.92    1.09
   4 -12   0   50.74    2.84
   3 -12   0   70.11    3.26
   2 -12   0   -0.78    0.70
   1 -12   0   63.23    2.99
   1 -12   0   67.57    2.11
   0 -12   0   66.70    3.07
   0 -12   0   70.52    2.36
  -1 -12   0    0.89    0.52
  -1 -12   0   -0.02    0.74
   3 -13   0   14.54    1.95
   2 -13   0   70.59    3.42
   0 -13   1   13.27    1.72
   1 -13   1   86.35    3.76
   2 -13   1   30.13    2.20
   3 -13   1   18.59    1.97
   4 -13   1   85.81    3.99
  -2 -12   1    1.16    0.61
  -2 -12   1    0.93    0.82
   1  12  -1   62.88    2.58
  -1 -12   1   63.54    2.92
  -1 -12   1   62.45    2.39
   0  12  -1   68.44    2.45
   0 -12   1   70.07    3.12
   0 -12   1   74.39    2.43
  -1  12  -1    0.67    0.25
   1 -12   1    0.06    0.67
   1 -12   1    1.36    0.25
   2 -12   1   43.41    2.38
   3 -12   1   60.82    2.95
   4 -12   1   -0.82    0.74
   5 -12   1   45.15    2.78
   6 -12   1   51.99    3.21
   3  11  -1   13.00    1.99
  -3 -11   1   14.77    1.47
   2  11  -1   58.67    2.75
  -2 -11   1   63.34    2.73
  -2 -11   1   62.62    2.81
  -2 -11   1   54.72    3.00
   1  11  -1    5.06    0.77
  -1 -11   1    6.84    1.31
  -1 -11   1    3.80    0.76
  -1 -11   1    5.32    0.89
   0  11  -1   32.01    1.41
   0 -11   1   33.40    1.90
   0 -11   1   34.72    1.97
   0 -11   1   33.43    1.40
  -1  11  -1  108.94    3.30
   1 -11   1  110.51    3.32
   1 -11   1  113.38    4.10
   1 -11   1  106.50    4.09
   2 -11   1   24.53    1.74
   2 -11   1   24.70    1.69
   3 -11   1   12.40    1.38
   3 -11   1   11.87    1.37
   4 -11   1  121.62    4.65
   5 -11   1   39.71    2.45
   6 -11   1    9.51    1.46
   7 -11   1   59.72    3.55
  -4 -10   1   31.01    1.98
  -4 -10   1   37.07    2.23
   3  10  -1   44.99    2.64
  -3 -10   1   54.51    2.32
  -3 -10   1   53.82    2.49
   2  10  -1   15.53    1.53
  -2 -10   1   15.41    1.24
  -2 -10   1   18.19    1.45
   1  10  -1  112.62    3.78
  -1 -10   1  111.56    4.06
  -1 -10   1  110.45    3.98
  -1 -10   1  116.18    3.72
   0  10  -1  129.14    4.10
   0 -10   1  131.72    4.56
   0 -10   1  135.45    4.65
   0 -10   1  133.49    4.11
  -1  10  -1    3.82    0.42
   1 -10   1    4.14    0.48
   1 -10   1    3.50    0.73
   1 -10   1    2.79    0.63
   2 -10   1  181.67    5.97
   2 -10   1  176.97    6.00
   3 -10   1  118.12    4.33
   4 -10   1    0.50    0.63
   5 -10   1   92.40    3.83
   6 -10   1   45.27    2.68
   7 -10   1   -0.32    1.03
   8 -10   1   33.20    3.90
  -5  -9   1   50.16    2.84
  -5  -9   1   48.32    2.48
   4   9  -1    9.08    1.28
  -4  -9   1   13.00    1.38
   3   9  -1   38.92    2.12
  -3  -9   1   38.80    2.00
  -3  -9   1   38.55    2.14
   2   9  -1  134.48    4.56
  -2  -9   1  140.07    4.50
  -2  -9   1  135.03    4.60
   1   9  -1   25.86    1.36
  -1  -9   1   26.33    1.33
  -1  -9   1   25.46    1.46
   0   9  -1   27.70    1.17
   0  -9   1   26.51    1.51
   0  -9   1   26.46    1.50
   0  -9   1   27.17    1.20
  -1   9  -1  261.75    7.57
   1  -9   1  258.42    7.58
   1  -9   1  266.28    8.15
   1  -9   1  260.90    8.19
   2  -9   1   17.53    1.30
   3  -9   1   59.16    3.05
   4  -9   1  108.08    4.04
   5  -9   1   29.79    1.94
   6  -9   1   48.34    2.71
   7  -9   1   82.51    3.90
   8  -9   1   14.97    2.41
   6   8  -1   19.87    1.56
  -6  -8   1   20.04    2.77
  -6  -8   1   23.31    1.98
   5   8  -1    7.60    1.09
  -5  -8   1    8.30    1.39
  -5  -8   1    6.85    1.25
   4   8  -1  138.49    4.77
  -4  -8   1  127.70    4.62
  -4  -8   1  132.87    4.61
   3   8  -1   91.72    3.68
  -3  -8   1   91.97    3.40
  -3  -8   1   90.01    3.32
   2   8  -1    3.08    0.62
  -2  -8   1    3.69    0.62
  -2  -8   1    3.18    0.62
   1   8  -1  142.12    4.41
  -1  -8   1  134.31    4.52
  -1  -8   1  139.99    4.39
   0   8  -1  101.84    3.15
   0  -8   1   99.62    3.17
   0  -8   1   99.25    3.50
   0  -8   1   99.67    3.45
  -1   8  -1   21.55    0.80
   1  -8   1   21.31    0.87
   1  -8   1   20.72    1.25
   1  -8   1   22.36    1.27
   2  -8   1  142.76    4.76
   3  -8   1   39.87    1.91
   4  -8   1    1.76    0.63
  -5   8  -1   93.08    3.56
   5  -8   1   96.23    3.92
  -6   8  -1   45.93    2.32
   6  -8   1   42.26    1.60
   6  -8   1   46.84    2.56
  -7   8  -1   -0.40    0.86
   7  -8   1   -0.17    0.94
   8  -8   1    8.81    1.62
   8  -8   1    7.20    0.97
   6   7  -1   14.08    1.49
  -6  -7   1   14.65    1.64
  -6  -7   1   10.89    1.75
   5   7  -1   34.36    2.17
   5   7  -1   37.04    1.82
  -5  -7   1   38.77    2.32
  -5  -7   1   37.18    2.04
   4   7  -1    0.65    0.67
   4   7  -1    1.04    0.48
  -4  -7   1    1.47    0.68
  -4  -7   1    1.48    0.64
   3   7  -1  123.78    4.11
   3   7  -1  125.07    4.25
  -3  -7   1  123.69    4.18
  -3  -7   1  121.22    4.14
   2   7  -1   79.26    2.88
  -2  -7   1   74.84    3.08
  -2  -7   1   82.96    2.84
   1   7  -1   28.43    1.29
  -1  -7   1   26.75    1.31
  -1  -7   1   27.37    1.31
   0   7  -1   53.78    1.82
   0  -7   1   51.37    2.00
   0  -7   1   51.66    1.81
  -1   7  -1  163.49    4.80
   1  -7   1  164.32    5.26
   1  -7   1  170.17    5.25
   1  -7   1  163.28    4.83
   2  -7   1   10.84    0.92
   3  -7   1   87.44    3.17
  -4   7  -1  344.11   10.35
   4  -7   1  334.74   10.39
  -5   7  -1   62.52    2.65
   5  -7   1   65.22    2.03
   5  -7   1   64.28    2.81
  -6   7  -1   37.55    2.07
  -6   7  -1   38.20    1.38
   6  -7   1   39.31    2.31
   6  -7   1   38.23    1.46
  -7   7  -1   85.38    3.64
  -7   7  -1   87.53    2.83
   7  -7   1   82.34    2.83
   7  -7   1   82.26    3.82
  -8   7  -1   25.80    1.42
   8  -7   1   26.54    1.42
   8  -7   1   20.70    2.48
  -9   7  -1   13.49    1.43
   9  -7   1   10.28    2.04
   7   6  -1   63.51    2.73
  -7  -6   1   64.31    3.04
  -7  -6   1   56.76    3.64
   6   6  -1   28.22    2.30
  -6  -6   1   27.27    2.64
  -6  -6   1   31.81    2.00
   5   6  -1    1.58    0.79
   5   6  -1    1.08    0.52
  -5  -6   1    1.56    0.90
  -5  -6   1    0.69    0.66
   4   6  -1  124.12    4.27
   4   6  -1  123.02    4.10
  -4  -6   1  116.59    4.40
  -4  -6   1  126.91    4.26
   3   6  -1   36.70    1.60
   3   6  -1   36.00    1.78
  -3  -6   1   37.31    1.70
  -3  -6   1   34.95    1.73
   2   6  -1    5.91    0.83
   2   6  -1    4.08    0.66
  -2  -6   1    3.88    0.59
  -2  -6   1    3.95    0.71
   1   6  -1  170.82    5.15
  -1  -6   1  167.24    5.22
  -1  -6   1  168.03    5.15
   0   6  -1  219.81    6.49
   0  -6   1  225.00    6.71
   0  -6   1  219.60    6.51
  -1   6  -1   70.70    2.10
   1  -6   1   69.48    2.48
   1  -6   1   69.94    2.14
   2  -6   1  194.33    6.04
   3  -6   1  170.53    5.45
  -4   6  -1    7.36    0.82
   4  -6   1    7.43    0.51
   4  -6   1    7.34    1.00
  -5   6  -1  187.03    5.66
  -5   6  -1  194.71    6.26
   5  -6   1  196.14    6.37
  -6   6  -1   74.29    3.13
  -6   6  -1   80.07    2.57
   6  -6   1   77.11    2.61
  -7   6  -1    3.09    0.88
  -7   6  -1    3.31    0.54
   7  -6   1    3.13    0.87
   7  -6   1    1.99    1.03
  -8   6  -1   77.63    2.83
  -8   6  -1   70.71    3.53
   8  -6   1   74.33    3.84
   8  -6   1   75.90    2.82
   9  -6   1   21.28    2.98
   9  -6   1   17.51    1.57
   7   5  -1    1.57    0.65
  -7  -5   1    0.04    1.33
  -7  -5   1    1.83    0.82
   6   5  -1   43.73    2.03
   6   5  -1   39.01    2.24
  -6  -5   1   41.10    2.22
  -6  -5   1   41.32    2.77
   5   5  -1   81.64    3.15
   5   5  -1   79.95    2.96
  -5  -5   1   79.41    3.11
  -5  -5   1   79.48    3.41
   4   5  -1    2.95    0.68
   4   5  -1    3.09    0.54
  -4  -5   1    2.56    0.68
  -4  -5   1    3.01    0.72
   3   5  -1  127.33    3.97
   3   5  -1  103.14    4.72
  -3  -5   1  130.49    4.04
  -3  -5   1  126.13    4.06
   2   5  -1  319.27    9.52
   2   5  -1  322.47    9.54
  -2  -5   1  323.89    9.53
  -2  -5   1  322.12    9.53
   1   5  -1   86.52    2.75
  -1  -5   1   85.22    2.77
  -1  -5   1   82.84    2.78
   0   5  -1  584.61   16.76
   0  -5   1  580.53   16.78
   0  -5   1  595.48   16.94
  -1   5  -1  482.05   13.86
   1  -5   1  497.88   14.21
   1  -5   1  484.37   13.90
  -3   5  -1   80.51    2.81
   3  -5   1   81.13    2.85
   3  -5   1   82.17    2.43
  -4   5  -1  271.32    8.20
  -4   5  -1  257.91    7.74
   4  -5   1  272.94    8.27
   4  -5   1  269.73    7.80
  -5   5  -1    2.03    0.37
  -5   5  -1    2.18    0.56
   5  -5   1    2.65    0.47
   5  -5   1    2.98    0.75
  -6   5  -1   38.43    1.61
  -6   5  -1   38.90    2.03
   6  -5   1   38.96    1.65
   6  -5   1   40.59    2.33
  -7   5  -1   80.29    3.42
  -7   5  -1   80.15    2.92
   7  -5   1   86.58    3.75
   7  -5   1   82.43    2.94
  -8   5  -1   13.44    1.87
   8  -5   1   12.32    1.30
   8  -5   1   13.57    2.33
   9  -5   1    4.86    0.93
   9  -5   1    6.63    1.65
   8   4  -1   18.19    1.54
  -8  -4   1   12.20    1.84
  -8  -4   1   14.62    1.84
   7   4  -1   58.53    2.59
  -7  -4   1   59.37    2.76
  -7  -4   1   59.04    3.26
   6   4  -1   27.65    1.61
   6   4  -1   28.24    1.84
  -6  -4   1   27.92    2.31
  -6  -4   1   28.72    1.76
   5   4  -1   26.24    1.62
   5   4  -1   25.40    1.43
  -5  -4   1   22.67    2.21
   4   4  -1  292.78    8.63
   4   4  -1  278.01    8.50
  -4  -4   1  283.02    8.62
  -4  -4   1  274.51    8.59
   3   4  -1   74.25    2.62
   3   4  -1   72.44    2.50
  -3  -4   1   71.65    2.54
  -3  -4   1   71.03    2.61
   2   4  -1   37.59    1.44
   2   4  -1   39.25    1.54
  -2  -4   1   37.69    1.47
  -2  -4   1   36.35    1.54
   1   4  -1  217.89    6.37
   1   4  -1  213.76    6.33
  -1  -4   1  212.38    6.37
  -1  -4   1  211.68    6.33
   0   4  -1    7.54    0.44
   0  -4   1    9.01    0.54
  -1   4  -1   60.72    1.76
   1  -4   1   59.11    1.83
   1  -4   1   60.50    2.04
  -2   4  -1  189.67    5.73
   2  -4   1  185.04    5.42
   2  -4   1  193.24    5.75
  -3   4  -1  279.60    8.25
  -3   4  -1  284.32    8.58
   3  -4   1  288.52    8.29
   3  -4   1  298.09    8.63
  -4   4  -1   66.31    2.15
  -4   4  -1   69.02    2.48
   4  -4   1   64.12    2.51
   4  -4   1   68.72    2.57
  -5   4  -1   38.03    1.53
   5  -4   1   39.88    2.06
   5  -4   1   39.98    1.62
  -6   4  -1   15.51    1.34
  -6   4  -1   14.41    1.07
   6  -4   1   16.96    1.75
   6  -4   1   15.95    1.18
  -7   4  -1    1.09    0.53
  -7   4  -1    0.64    0.76
   7  -4   1    1.86    1.87
   7  -4   1    0.50    0.56
  -8   4  -1   68.30    2.75
  -8   4  -1   67.69    3.27
   8  -4   1   67.79    3.64
   8  -4   1   70.78    2.80
  -9   4  -1   17.74    1.60
   9  -4   1   18.41    2.19
   9  -4   1   12.40    1.79
   8   3  -1   27.98    1.85
  -8  -3   1   23.32    2.52
  -8  -3   1   27.71    2.01
   7   3  -1    0.80    0.78
   7   3  -1    1.93    0.84
  -7  -3   1    1.83    0.79
  -7  -3   1    0.60    1.10
   6   3  -1   65.19    2.76
   6   3  -1   66.62    2.73
  -6  -3   1   66.08    2.77
  -6  -3   1   68.18    3.16
   5   3  -1  117.42    4.11
   5   3  -1  125.53    4.17
  -5  -3   1  117.52    4.13
  -5  -3   1  121.66    4.50
   4   3  -1    1.43    0.54
   4   3  -1    0.63    0.47
  -4  -3   1    0.98    0.50
  -4  -3   1    0.82    0.64
   3   3  -1  186.88    5.57
   3   3  -1  178.91    5.49
  -3  -3   1  173.83    5.53
   2   3  -1  140.45    4.34
   2   3  -1  146.64    4.41
  -2  -3   1  141.49    4.40
   1   3  -1    2.26    0.40
   1   3  -1    3.30    0.48
  -1  -3   1    1.91    0.42
  -1  -3   1    3.49    0.56
   0   3  -1  392.94   11.18
   0  -3   1  381.65   11.19
   0  -3   1  401.38   11.30
   1  -3   1  152.14    4.57
  -2   3  -1  153.09    4.39
  -2   3  -1  147.32    4.59
   2  -3   1  150.43    4.39
   2  -3   1  155.09    4.62
  -3   3  -1  179.04    5.30
  -3   3  -1  169.77    5.06
   3  -3   1  166.72    5.31
   3  -3   1  175.13    5.09
  -4   3  -1  305.34    9.36
  -4   3  -1  314.86    9.12
   4  -3   1  317.57    9.15
   4  -3   1  312.23    9.42
  -5   3  -1   11.48    0.92
  -5   3  -1   12.78    1.06
   5  -3   1   12.90    1.41
   5  -3   1   12.86    0.99
  -6   3  -1   30.48    1.77
  -6   3  -1   31.87    1.54
   6  -3   1   30.34    1.58
   6  -3   1   30.76    2.17
  -7   3  -1  159.43    5.16
  -7   3  -1  159.97    5.54
   7  -3   1  163.42    5.20
   7  -3   1  149.00    5.76
  -8   3  -1    4.14    0.74
  -8   3  -1    4.87    1.15
   8  -3   1    3.45    0.82
   8  -3   1    4.38    1.14
  -9   3  -1   18.52    1.62
  -9   3  -1   15.62    2.21
   9  -3   1   16.35    1.97
   8   2  -1   15.66    1.53
  -8  -2   1   12.05    2.16
  -8  -2   1   14.28    1.55
   7   2  -1   69.71    2.96
   7   2  -1   70.18    2.98
  -7  -2   1   71.86    3.34
  -7  -2   1   73.57    2.97
   6   2  -1   19.06    1.41
   6   2  -1   18.29    1.48
  -6  -2   1   18.42    1.83
  -6  -2   1   20.44    1.50
   5   2  -1   21.60    1.52
   5   2  -1   24.64    1.44
  -5  -2   1   24.91    1.48
  -5  -2   1   28.46    1.95
   4   2  -1  187.97    5.96
   4   2  -1  190.20    5.91
  -4  -2   1  193.63    6.19
  -4  -2   1  189.73    5.92
   3   2  -1  158.54    4.87
   3   2  -1  153.40    4.85
  -3  -2   1  159.00    4.93
  -3  -2   1  157.08    4.87
   2   2  -1    7.42    0.59
   2   2  -1    9.21    1.07
  -2  -2   1    7.35    0.65
   1   2  -1  604.61   17.54
   1   2  -1  604.46   17.17
  -1  -2   1  590.18   17.01
  -1  -2   1  583.09   17.54
   0   2  -1  312.69    8.93
   0   2  -1  303.87    8.74
   0  -2   1  301.38    8.69
   0  -2   1  300.17    8.76
  -1   2  -1  155.14    4.64
   1  -2   1  155.90    4.52
   1  -2   1  160.17    4.65
  -2   2  -1   93.03    2.78
  -2   2  -1   93.75    2.90
   2  -2   1   94.89    2.93
   2  -2   1   90.95    2.79
  -3   2  -1  139.47    4.30
  -3   2  -1  154.27    4.85
   3  -2   1  139.96    4.31
   3  -2   1  142.16    4.48
  -4   2  -1  111.18    3.54
  -4   2  -1  109.39    3.70
   4  -2   1  112.12    3.80
   4  -2   1  116.84    3.58
  -5   2  -1  249.21    7.59
  -5   2  -1  255.74    7.82
   5  -2   1  244.44    7.99
   5  -2   1  258.34    7.63
  -6   2  -1   74.77    2.78
  -6   2  -1   75.65    3.03
   6  -2   1   78.12    2.87
   6  -2   1   75.10    3.38
  -7   2  -1   11.23    1.44
  -7   2  -1   11.16    1.19
   7  -2   1   11.49    1.29
   7  -2   1   10.71    1.61
  -8   2  -1   54.63    2.89
  -8   2  -1   56.76    2.53
   8  -2   1   56.08    2.60
   8  -2   1   60.22    2.85
  -9   2  -1   12.57    1.57
   9  -2   1   13.04    1.86
   9   1  -1   34.29    2.14
  -9  -1   1   34.57    2.23
   8   1  -1   25.36    1.85
  -8  -1   1   25.26    1.77
  -8  -1   1   21.82    2.27
   7   1  -1   -0.83    0.60
   7   1  -1    0.92    0.69
  -7  -1   1    0.22    0.89
  -7  -1   1    0.41    0.62
   6   1  -1   59.31    2.48
   6   1  -1   60.53    2.69
  -6  -1   1   59.39    2.50
  -6  -1   1   63.86    2.89
   5   1  -1  178.35    5.48
   5   1  -1  162.82    5.66
  -5  -1   1  168.46    5.48
  -5  -1   1  178.78    5.83
   4   1  -1    1.55    0.44
   4   1  -1    0.96    0.61
  -4  -1   1    1.83    0.51
  -4  -1   1    2.58    0.75
   3   1  -1  246.21    7.17
   3   1  -1  223.46    7.27
  -3  -1   1  248.19    7.45
  -3  -1   1  243.97    7.17
   2   1  -1  146.47    4.34
   2   1  -1  141.24    4.42
  -2  -1   1  142.19    4.44
  -2  -1   1  146.91    4.35
   1   1  -1   55.62    1.74
   1   1  -1   57.87    1.72
  -1  -1   1   51.31    1.72
  -1   1  -1  660.60   19.27
  -1   1  -1  675.29   19.19
   1  -1   1  652.28   19.31
   1  -1   1  671.64   19.17
  -2   1  -1    0.18    0.24
  -2   1  -1   -0.32    0.22
   2  -1   1   -0.05    0.24
   2  -1   1    0.54    0.32
  -3   1  -1  324.94    9.49
  -3   1  -1  319.90    9.38
   3  -1   1  321.09    9.55
   3  -1   1  323.53    9.40
  -4   1  -1  252.03    7.68
  -4   1  -1  247.60    7.53
   4  -1   1  251.39    7.85
   4  -1   1  259.29    7.57
  -5   1  -1    2.45    0.64
  -5   1  -1    2.07    0.55
   5  -1   1    1.33    0.97
   5  -1   1    3.56    0.92
  -6   1  -1   44.44    2.29
  -6   1  -1   45.08    2.06
   6  -1   1   49.18    2.40
   6  -1   1   47.69    2.14
  -7   1  -1   90.46    3.58
  -7   1  -1   86.33    3.32
   7  -1   1   89.83    3.38
   7  -1   1   93.00    3.55
  -8   1  -1    1.51    0.99
  -8   1  -1    3.03    0.76
   8  -1   1    3.28    0.89
   8  -1   1    2.17    0.89
  -9   1  -1    9.54    1.52
  -9   1  -1   12.22    1.60
   9   0  -1    4.13    0.94
  -9   0   1    5.15    0.96
   8   0  -1   23.51    1.81
   8   0  -1   19.67    1.64
  -8   0   1   19.70    1.61
  -8   0   1   20.64    2.10
   7   0  -1   69.49    2.77
   7   0  -1   70.60    3.06
  -7   0   1   69.88    3.21
  -7   0   1   66.03    2.82
   6   0  -1   59.61    2.75
   6   0  -1   59.72    2.41
  -6   0   1   60.34    2.79
  -6   0   1   57.11    2.40
   5   0  -1   83.00    3.26
   5   0  -1   81.55    2.89
  -5   0   1   78.97    2.91
  -5   0   1   86.00    3.32
   4   0  -1  222.69    6.79
   4   0  -1  216.28    6.45
  -4   0   1  201.35    6.44
  -4   0   1  212.03    6.79
   3   0  -1   46.71    2.00
   3   0  -1   42.70    1.59
  -3   0   1   43.96    2.01
  -3   0   1   44.16    1.63
   2   0  -1  843.85   25.66
   2   0  -1  933.10   25.87
  -2   0   1  851.28   25.99
  -2   0   1  948.37   25.95
   1   0  -1  289.67    8.44
  -1   0  -1  153.16    4.43
  -1   0  -1  156.79    4.40
   1   0   1  149.15    4.43
   1   0   1  149.89    4.44
  -2   0  -1  428.48   11.99
  -2   0  -1  402.75   12.02
   2   0   1  425.85   11.99
   2   0   1  407.76   12.08
  -3   0  -1   23.98    1.19
  -3   0  -1   23.13    1.07
   3   0   1   23.76    1.30
  -4   0  -1   16.64    1.07
  -4   0  -1   17.63    1.19
   4   0   1   19.10    1.12
   4   0   1   18.51    1.32
  -5   0  -1  110.31    3.79
  -5   0  -1  103.80    3.63
   5   0   1  106.86    3.66
   5   0   1  106.20    3.77
  -6   0  -1   38.75    2.05
  -6   0  -1   40.34    1.96
   6   0   1   40.51    2.08
   6   0   1   41.09    2.01
  -7   0  -1    8.21    1.22
  -7   0  -1    5.48    1.03
   7   0   1    8.40    1.30
   7   0   1    7.72    1.33
  -8   0  -1   30.55    2.32
  -8   0  -1   34.31    2.01
   8   0   1   33.80    2.02
  -9   0  -1   10.21    1.57
  -9   0  -1   12.45    1.73
   9  -1  -1   30.68    2.18
  -9   1   1   30.01    1.95
   8  -1  -1   24.60    1.96
   8  -1  -1   22.08    1.60
  -8   1   1   23.23    2.12
  -8   1   1   24.70    1.67
   7  -1  -1    3.51    0.71
   7  -1  -1    3.51    0.98
  -7   1   1    3.73    1.02
   6  -1  -1  154.04    5.31
   6  -1  -1  148.26    4.84
  -6   1   1  145.64    5.27
  -6   1   1  150.24    4.87
   5  -1  -1  104.63    3.97
   5  -1  -1  103.37    3.42
  -5   1   1  101.95    3.84
  -5   1   1  101.83    3.44
   4  -1  -1    4.76    0.68
   4  -1  -1    4.46    0.91
  -4   1   1    4.52    0.72
  -4   1   1    5.17    1.02
   3  -1  -1   97.05    2.89
  -3   1   1   92.37    2.90
  -3   1   1   86.36    3.17
   2  -1  -1  954.41   27.81
  -2   1   1 1000.00   27.97
  -2   1   1  950.74   28.13
   1  -1  -1    0.01    0.08
  -1   1   1    0.20    0.19
   0  -1  -1  260.10    7.14
   0  -1  -1  228.33    7.28
   0   1   1  257.51    7.13
   0   1   1  241.80    7.05
  -1  -1  -1  189.28    5.32
  -1  -1  -1  180.68    5.23
   1   1   1  172.11    5.24
   1   1   1  186.32    5.33
  -2  -1  -1   18.96    0.92
  -2  -1  -1   22.18    1.05
   2   1   1   18.56    0.81
   2   1   1   19.50    0.95
  -3  -1  -1  162.57    5.04
  -3  -1  -1  161.32    4.93
   3   1   1  160.90    4.95
   3   1   1  157.08    4.86
  -4  -1  -1  189.11    5.80
  -4  -1  -1  184.58    5.68
   4   1   1  169.86    5.61
   4   1   1  186.76    5.70
  -5  -1  -1    2.44    0.62
  -5  -1  -1    4.39    0.80
   5   1   1    3.35    0.68
   5   1   1    2.26    0.64
  -6  -1  -1  127.72    4.47
  -6  -1  -1  128.58    4.37
   6   1   1  128.60    4.41
   6   1   1  121.89    4.31
  -7  -1  -1   64.88    2.71
  -7  -1  -1   61.84    2.84
   7   1   1   59.56    2.77
   7   1   1   64.02    2.87
  -8  -1  -1   -0.14    1.04
  -8  -1  -1    0.71    0.72
   9  -2  -1    2.50    1.04
  -9   2   1    2.31    0.75
   8  -2  -1   43.71    2.09
   8  -2  -1   43.59    2.57
  -8   2   1   43.55    2.69
  -8   2   1   42.08    2.10
   7  -2  -1   92.51    3.28
   7  -2  -1   85.61    4.26
  -7   2   1   90.39    3.81
  -7   2   1   95.74    3.33
   6  -2  -1   17.91    2.07
   6  -2  -1   18.47    1.25
  -6   2   1   19.49    1.67
  -6   2   1   18.44    1.25
   5  -2  -1  136.02    4.19
   5  -2  -1  131.16    4.82
  -5   2   1  126.92    4.60
  -5   2   1  133.91    4.21
   4  -2  -1  187.79    6.09
   4  -2  -1  192.96    5.68
  -4   2   1  189.07    5.69
  -4   2   1  187.29    6.04
   3  -2  -1  154.94    4.92
   3  -2  -1  155.15    4.59
  -3   2   1  154.50    4.61
   2  -2  -1    2.04    0.25
   2  -2  -1    1.79    0.40
  -2   2   1    1.20    0.32
   1  -2  -1  340.45    9.70
  -1   2   1  332.84    9.57
  -1   2   1  328.80    9.59
  -1   2   1  337.22    9.69
   0  -2  -1    6.64    0.39
   0  -2  -1    6.06    0.38
   0   2   1    5.70    0.40
  -1  -2  -1    1.70    0.30
  -1  -2  -1    1.88    0.29
   1   2   1    2.27    0.32
   1   2   1    2.31    0.29
  -2  -2  -1  463.38   13.32
  -2  -2  -1  453.37   13.23
   2   2   1  459.51   13.20
   2   2   1  466.27   13.34
  -3  -2  -1   69.58    2.43
  -3  -2  -1   65.48    2.37
   3   2   1   66.24    2.21
   3   2   1   68.83    2.42
  -4  -2  -1   41.58    1.83
  -4  -2  -1   44.74    2.03
   4   2   1   41.50    1.86
   4   2   1   41.06    1.66
  -5  -2  -1   82.26    3.08
  -5  -2  -1   85.22    3.21
   5   2   1   86.62    3.15
   5   2   1   79.90    2.93
  -6  -2  -1   40.62    2.13
  -6  -2  -1   38.04    2.01
   6   2   1   37.48    2.07
   6   2   1   39.13    1.82
  -7  -2  -1   10.01    1.38
  -7  -2  -1   10.05    1.68
   7   2   1   12.27    1.21
  -8  -2  -1   42.01    2.63
  -8  -2  -1   45.22    2.44
   9  -3  -1   21.22    1.66
   9  -3  -1   24.29    2.29
  -9   3   1   25.03    1.70
   8  -3  -1   21.67    1.45
   8  -3  -1   22.44    2.19
  -8   3   1   23.39    1.52
  -8   3   1   20.43    2.07
   7  -3  -1    0.79    0.50
   7  -3  -1    0.89    1.10
  -7   3   1    0.34    0.80
  -7   3   1    0.56    0.52
   6  -3  -1  102.19    4.26
   6  -3  -1  106.42    3.46
  -6   3   1  103.47    4.01
  -6   3   1  103.70    3.49
   5  -3  -1  100.93    3.90
   5  -3  -1  106.10    3.32
  -5   3   1  102.03    3.33
   4  -3  -1   63.13    2.10
  -4   3   1   63.78    2.14
  -4   3   1   66.80    2.52
   3  -3  -1  319.58    9.20
   3  -3  -1  322.20    9.59
  -3   3   1  319.86    9.22
   2  -3  -1  331.70    9.19
   2  -3  -1  330.51    9.53
  -2   3   1  312.83    9.21
  -2   3   1  318.28    9.50
   1  -3  -1   14.55    0.74
  -1   3   1   14.18    0.52
  -1   3   1   14.47    0.70
   0  -3  -1  200.28    5.86
   0  -3  -1  204.52    5.95
   0   3   1  201.96    5.88
  -1  -3  -1  190.64    5.68
  -1  -3  -1  194.90    5.72
   1   3   1  195.48    5.81
  -2  -3  -1    6.34    0.55
  -2  -3  -1    7.42    0.70
   2   3   1    7.69    0.78
   2   3   1    7.30    0.50
  -3  -3  -1  400.16   12.51
  -3  -3  -1  421.20   12.36
   3   3   1  442.47   12.42
   3   3   1  420.36   12.19
  -4  -3  -1   98.76    3.61
  -4  -3  -1  102.31    3.52
   4   3   1  100.98    3.28
   4   3   1  104.59    3.57
  -5  -3  -1    1.15    0.60
  -5  -3  -1    0.94    0.80
   5   3   1    1.01    0.46
   5   3   1    0.75    0.64
  -6  -3  -1   35.80    1.96
  -6  -3  -1   36.92    2.18
   6   3   1   38.29    2.10
   6   3   1   36.01    1.69
  -7  -3  -1   32.21    2.31
  -7  -3  -1   40.09    2.15
   7   3   1   35.74    1.79
  -8  -3  -1    0.41    0.87
   8   3   1    1.48    0.80
   9  -4  -1    3.07    0.83
   9  -4  -1    4.63    1.35
  -9   4   1    3.57    0.78
   8  -4  -1   37.73    1.81
   8  -4  -1   35.55    2.89
  -8   4   1   37.53    1.87
  -8   4   1   32.99    2.50
   7  -4  -1  100.92    3.41
   7  -4  -1  100.21    4.42
  -7   4   1  102.75    3.45
  -7   4   1   98.47    4.08
   6  -4  -1    1.12    0.43
   6  -4  -1    1.54    0.96
  -6   4   1    1.14    0.46
  -6   4   1    1.44    0.68
   5  -4  -1   79.27    3.23
   5  -4  -1   81.49    2.59
  -5   4   1   80.75    3.12
  -5   4   1   76.13    2.60
   4  -4  -1  254.44    7.47
   4  -4  -1  255.10    8.00
  -4   4   1  247.43    7.48
  -4   4   1  273.13    7.99
   3  -4  -1   84.65    2.95
   3  -4  -1   86.12    2.46
  -3   4   1   79.82    2.87
  -3   4   1   84.00    2.47
   2  -4  -1  239.87    7.10
  -2   4   1  230.68    7.04
   1  -4  -1  434.05   12.44
   1  -4  -1  455.05   12.73
  -1   4   1  424.03   12.47
   0  -4  -1    0.34    0.22
   0  -4  -1    0.41    0.20
   0   4   1    0.28    0.27
  -1  -4  -1  103.92    3.25
  -1  -4  -1  102.82    3.23
   1   4   1  106.86    3.32
  -2  -4  -1  202.24    6.21
  -2  -4  -1  207.76    6.43
   2   4   1  207.11    6.26
   2   4   1  204.28    6.11
  -3  -4  -1   22.82    1.18
  -3  -4  -1   22.19    1.31
   3   4   1   21.95    1.54
   3   4   1   22.52    1.03
  -4  -4  -1   69.49    2.69
  -4  -4  -1   68.14    2.69
   4   4   1   72.36    2.78
   4   4   1   70.05    2.42
  -5  -4  -1  137.84    4.94
  -5  -4  -1  141.47    4.80
   5   4   1  144.45    4.88
   5   4   1  141.30    4.52
  -6  -4  -1    7.42    1.25
  -6  -4  -1    6.78    1.41
   6   4   1    7.75    0.92
   6   4   1    4.75    0.94
  -7  -4  -1   21.42    1.77
  -7  -4  -1   15.83    2.09
   7   4   1   20.69    1.38
   9  -5  -1   39.09    2.00
   9  -5  -1   42.04    3.36
  -9   5   1   42.55    2.13
   8  -5  -1   33.67    1.63
   8  -5  -1   31.72    2.91
  -8   5   1   25.36    2.33
  -8   5   1   35.30    1.70
   7  -5  -1   11.21    1.97
   7  -5  -1   12.38    0.97
  -7   5   1   12.22    1.02
  -7   5   1   10.39    1.54
   6  -5  -1   72.73    3.68
   6  -5  -1   72.83    2.47
  -6   5   1   73.34    2.49
  -6   5   1   74.35    3.15
   5  -5  -1   51.80    1.75
   5  -5  -1   51.49    2.52
  -5   5   1   56.08    2.38
  -5   5   1   50.13    1.76
   4  -5  -1    3.51    0.70
   4  -5  -1    3.09    0.30
  -4   5   1    3.19    0.35
   3  -5  -1  157.59    4.93
  -3   5   1  145.22    4.81
   2  -5  -1   48.31    1.88
  -2   5   1   47.40    1.81
   1  -5  -1   51.40    1.89
   1  -5  -1   49.62    1.57
  -1   5   1   52.85    1.64
   0  -5  -1  292.88    8.63
   0  -5  -1  290.91    8.49
   0  -5  -1  296.36    8.68
   0   5   1  292.37    8.56
  -1  -5  -1  205.95    6.31
  -1  -5  -1  210.39    6.30
   1   5   1  218.71    6.40
  -2  -5  -1    3.18    0.60
  -2  -5  -1    3.33    0.53
   2   5   1    3.11    0.59
  -3  -5  -1  131.77    4.43
  -3  -5  -1  135.56    4.32
   3   5   1  137.11    4.27
   3   5   1  141.13    4.56
  -4  -5  -1  100.87    3.45
  -4  -5  -1   80.70    4.13
   4   5   1  104.99    3.65
   4   5   1  101.14    3.43
  -5  -5  -1    1.93    0.93
  -5  -5  -1    1.27    0.63
   5   5   1    1.20    0.82
   5   5   1    2.19    0.49
  -6  -5  -1   73.92    3.13
  -6  -5  -1   72.70    3.35
   6   5   1   76.82    2.77
  -7  -5  -1   42.94    2.45
   7   5   1   42.12    1.97
   9  -6  -1    0.46    1.57
   9  -6  -1   -1.05    0.64
   8  -6  -1   48.16    3.33
   8  -6  -1   49.27    1.96
  -8   6   1   48.11    2.03
   7  -6  -1   85.21    2.80
   7  -6  -1   82.79    3.88
  -7   6   1   82.22    3.65
  -7   6   1   84.54    2.84
   6  -6  -1    5.55    1.41
   6  -6  -1    5.77    0.59
  -6   6   1    6.43    0.63
  -6   6   1    6.61    1.16
   5  -6  -1  150.59    4.47
   5  -6  -1  152.26    5.34
  -5   6   1  151.18    4.45
  -5   6   1  155.95    5.22
   4  -6  -1  253.42    7.88
  -4   6   1  244.50    7.76
   3  -6  -1    0.90    0.51
  -3   6   1    0.35    0.48
   2  -6  -1  100.75    3.44
   1  -6  -1  221.53    6.72
   1  -6  -1  220.26    6.34
  -1   6   1  216.88    6.39
   0  -6  -1   70.12    2.27
   0  -6  -1   71.77    2.50
   0  -6  -1   70.85    2.44
   0   6   1   71.50    2.40
  -1  -6  -1   92.99    3.08
  -1  -6  -1   93.63    3.04
   1   6   1   95.69    3.17
  -2  -6  -1  168.01    5.20
  -2  -6  -1  174.55    5.17
   2   6   1  155.42    5.64
  -3  -6  -1    4.08    0.65
  -3  -6  -1    5.27    0.87
   3   6   1    4.56    0.79
  -4  -6  -1    8.10    1.14
  -4  -6  -1    5.45    0.80
   4   6   1    5.45    0.90
  -5  -6  -1   14.53    2.04
  -5  -6  -1   18.10    1.48
   5   6   1   16.59    1.10
   5   6   1   13.19    1.73
  -6  -6  -1    0.18    1.25
  -6  -6  -1    3.10    0.86
   6   6   1    2.45    0.60
   9  -7  -1   24.39    3.39
  -9   7   1   30.13    1.69
   8  -7  -1    1.94    0.46
   8  -7  -1    1.06    1.22
  -8   7   1    3.18    0.57
   7  -7  -1   21.62    0.97
   7  -7  -1   17.91    2.16
  -7   7   1   20.48    1.87
  -7   7   1   22.61    1.01
   6  -7  -1  113.64    4.50
   6  -7  -1  112.85    3.37
  -6   7   1  106.46    3.32
  -6   7   1  118.86    4.35
   5  -7  -1   67.64    3.14
  -5   7   1   69.64    2.88
   4  -7  -1   26.32    1.69
  -4   7   1   25.15    1.48
   3  -7  -1  190.66    6.16
   2  -7  -1   99.84    3.50
   1  -7  -1   18.29    0.75
   1  -7  -1   19.26    1.15
  -1   7   1   19.26    0.83
   0  -7  -1  285.54    8.57
   0  -7  -1  287.85    8.34
   0  -7  -1  286.13    8.63
   0   7   1  281.63    8.44
  -1  -7  -1  107.40    3.50
  -1  -7  -1  109.20    3.58
  -1  -7  -1  109.55    3.65
   1   7   1  109.81    3.65
  -2  -7  -1    2.12    0.52
  -2  -7  -1    2.19    0.52
   2   7   1    2.27    0.63
  -3  -7  -1  141.38    5.23
  -3  -7  -1  155.15    4.93
   3   7   1  162.17    5.19
  -4  -7  -1   71.64    2.86
  -4  -7  -1   70.49    2.80
   4   7   1   66.06    3.02
  -5  -7  -1    5.00    1.18
  -5  -7  -1    5.82    0.94
  -6  -7  -1   56.11    2.79
   8  -8  -1   42.17    3.21
  -8   8   1   43.11    1.55
   7  -8  -1   44.18    2.89
   6  -8  -1    1.00    0.87
  -6   8   1    1.61    0.70
   5  -8  -1   85.25    3.54
  -5   8   1   82.67    3.33
   4  -8  -1  136.74    5.25
   3  -8  -1    7.70    1.10
   2  -8  -1   80.11    3.03
   1  -8  -1  123.21    3.70
   1  -8  -1  125.08    4.17
   1  -8  -1  126.12    4.23
  -1   8   1  123.13    3.75
   0  -8  -1    0.51    0.42
   0  -8  -1    0.20    0.31
   0  -8  -1    0.56    0.44
   0   8   1    0.88    0.43
  -1  -8  -1   75.49    2.56
  -1  -8  -1   75.34    2.75
  -1  -8  -1   69.91    2.65
   1   8   1   73.55    2.73
  -2  -8  -1   66.43    2.53
  -2  -8  -1   67.91    2.51
   2   8   1   68.22    2.76
  -3  -8  -1    6.55    1.03
   3   8   1    6.00    0.98
  -4  -8  -1   63.52    2.75
  -4  -8  -1   65.76    2.70
   4   8   1   59.18    3.00
  -5  -8  -1   55.70    2.66
   8  -9  -1   10.46    1.88
   7  -9  -1    3.47    1.26
   6  -9  -1  105.77    4.43
   5  -9  -1   33.98    2.21
   4  -9  -1   21.76    1.69
   3  -9  -1  121.68    4.41
   2  -9  -1   55.75    2.50
   1  -9  -1   17.50    0.75
   1  -9  -1   18.41    1.29
   1  -9  -1   16.41    1.27
  -1   9   1   17.54    0.82
   0  -9  -1  146.52    4.93
   0  -9  -1  153.97    4.61
   0  -9  -1  149.80    5.02
   0   9   1  151.35    4.71
  -1  -9  -1   45.54    1.78
  -1  -9  -1   45.65    2.03
  -1  -9  -1   42.32    1.95
   1   9   1   43.51    2.02
  -2  -9  -1   19.87    1.29
  -2  -9  -1   19.57    1.38
  -2  -9  -1   20.27    1.35
   2   9   1   17.22    1.68
  -3  -9  -1   67.88    2.71
  -3  -9  -1   72.26    2.83
  -3  -9  -1   65.80    2.72
   3   9   1   66.05    3.12
  -4  -9  -1   26.96    2.07
  -4  -9  -1   24.10    1.74
   7 -10  -1   54.33    3.45
   6 -10  -1   -1.24    0.86
   5 -10  -1   69.69    3.32
   4 -10  -1   31.31    2.06
   3 -10  -1    0.73    0.65
   2 -10  -1  145.33    5.16
   2 -10  -1  150.61    5.10
   1 -10  -1  108.04    3.32
   1 -10  -1  110.13    3.96
   1 -10  -1  111.48    4.04
   0 -10  -1    1.48    0.39
   0 -10  -1    2.44    0.68
   0 -10  -1    1.22    0.63
   0  10   1    1.05    0.51
  -1 -10  -1   39.44    1.98
  -1 -10  -1   40.84    2.03
  -1 -10  -1   42.25    1.73
   1  10   1   39.38    2.04
  -2 -10  -1   53.46    2.18
  -2 -10  -1   50.76    2.37
  -2 -10  -1   52.29    2.39
   2  10   1   49.81    2.61
  -3 -10  -1   -0.13    0.88
  -3 -10  -1    0.73    0.62
   6 -11  -1   73.31    3.83
   5 -11  -1    8.58    1.40
   4 -11  -1   25.71    2.01
   3 -11  -1  130.52    4.89
   2 -11  -1   40.47    2.25
   2 -11  -1   38.15    2.19
   1 -11  -1   38.85    2.17
   1 -11  -1   38.05    2.10
   0 -11  -1   84.31    3.43
   0 -11  -1   86.55    3.42
   0 -11  -1   88.17    2.83
   0  11   1   84.41    2.99
  -1 -11  -1   54.77    2.58
  -1 -11  -1   55.47    2.31
  -1 -11  -1   55.71    2.54
   1  11   1   53.31    2.58
  -2 -11  -1    3.89    0.71
  -2 -11  -1    3.93    0.92
   2  11   1    0.80    1.08
   5 -12  -1   45.89    3.01
   4 -12  -1   49.60    2.91
   3 -12  -1    0.57    0.88
   2 -12  -1   51.20    2.72
   1 -12  -1   47.48    2.57
   0 -12  -1   -1.16    0.75
   0 -13   2   82.06    3.60
   1 -13   2   23.29    1.90
   2 -13   2   11.36    1.57
   3 -13   2   40.59    2.53
   4 -13   2   24.67    2.20
   5 -13   2    7.80    1.90
   2  12  -2   52.10    2.51
  -2 -12   2   53.20    2.63
  -2 -12   2   53.22    2.30
   1  12  -2   60.55    2.45
  -1 -12   2   59.23    2.82
  -1 -12   2   61.94    2.36
   0  12  -2    3.06    0.51
   0 -12   2    2.99    0.49
   0 -12   2    2.00    0.75
  -1  12  -2   65.79    2.05
   1 -12   2   65.29    2.08
   1 -12   2   63.07    2.92
   2 -12   2   73.79    3.23
   3 -12   2   -0.46    0.67
   4 -12   2   83.77    3.67
   5 -12   2   96.66    4.18
   6 -12   2    6.72    1.37
   3  11  -2   40.76    2.56
  -3 -11   2   48.49    2.47
  -3 -11   2   48.47    2.27
   2  11  -2   21.35    1.72
  -2 -11   2   23.27    1.51
  -2 -11   2   24.58    1.87
   1  11  -2   24.83    1.44
  -1 -11   2   25.65    1.65
  -1 -11   2   27.85    1.80
  -1 -11   2   26.55    1.42
   0  11  -2  125.60    3.97
   0 -11   2  125.74    4.55
   0 -11   2  128.81    4.01
   0 -11   2  128.79    4.61
  -1  11  -2   50.03    1.64
   1 -11   2   48.96    1.68
   1 -11   2   48.65    2.36
   1 -11   2   50.97    2.40
   2 -11   2   14.07    1.38
   2 -11   2   12.86    1.32
   3 -11   2  148.53    5.31
   3 -11   2  150.00    5.26
   4 -11   2   32.24    2.06
   5 -11   2   34.21    2.22
   6 -11   2   90.06    4.01
   7 -11   2   39.48    2.95
  -4 -10   2   30.89    2.17
  -4 -10   2   29.42    1.93
   3  10  -2    2.13    0.86
  -3 -10   2    4.74    0.92
  -3 -10   2    3.33    0.75
   2  10  -2   90.40    3.30
  -2 -10   2   89.97    3.41
  -2 -10   2   88.13    3.22
   1  10  -2   82.15    3.10
  -1 -10   2   86.65    2.96
  -1 -10   2   84.82    3.21
   0  10  -2   35.44    1.43
   0 -10   2   40.00    1.94
   0 -10   2   39.26    1.91
   0 -10   2   36.27    1.52
  -1  10  -2  134.79    4.06
   1 -10   2  135.93    4.76
   1 -10   2  133.86    4.10
   1 -10   2  141.50    4.74
   2 -10   2  127.02    4.52
   2 -10   2  127.20    4.49
   3 -10   2    1.14    0.60
   4 -10   2  151.87    5.36
   5 -10   2   51.67    2.62
   6 -10   2   -0.07    0.77
   7 -10   2   15.25    2.13
   8 -10   2   25.83    2.86
  -5  -9   2   12.55    1.99
  -5  -9   2   12.18    1.57
   4   9  -2   70.12    3.23
  -4  -9   2   78.90    3.17
  -4  -9   2   73.35    3.02
   3   9  -2  130.98    4.61
  -3  -9   2  136.38    4.62
  -3  -9   2  131.76    4.54
   2   9  -2   30.91    1.65
  -2  -9   2   34.46    1.66
  -2  -9   2   34.30    1.77
   1   9  -2   30.57    1.41
  -1  -9   2   32.42    1.65
  -1  -9   2   31.07    1.49
   0   9  -2  243.02    7.35
   0  -9   2  254.49    7.78
   0  -9   2  250.46    7.42
  -1   9  -2   17.82    0.74
   1  -9   2   18.34    0.87
   1  -9   2   18.41    1.28
   1  -9   2   18.02    1.26
   2  -9   2   19.45    1.33
   2  -9   2   19.48    1.32
   4  -9   2   14.00    1.31
   5  -9   2   34.55    2.05
   6  -9   2   49.57    2.68
   6  -9   2   51.14    1.57
   7  -9   2    5.92    1.23
   7  -9   2    4.85    0.64
   8  -9   2   34.29    2.91
   6   8  -2   10.42    1.30
  -6  -8   2    8.94    1.23
  -6  -8   2    6.80    1.64
   5   8  -2   78.87    3.07
  -5  -8   2   76.43    3.18
  -5  -8   2   75.02    3.38
   4   8  -2   49.98    3.22
   4   8  -2   52.96    2.50
  -4  -8   2   57.33    2.53
  -4  -8   2   56.47    2.47
   3   8  -2   22.10    1.48
   3   8  -2   19.60    1.30
  -3  -8   2   19.81    1.42
  -3  -8   2   19.05    1.42
   2   8  -2   54.92    2.18
  -2  -8   2   53.62    2.25
  -2  -8   2   53.71    2.19
   1   8  -2  121.67    3.83
  -1  -8   2  118.51    3.88
  -1  -8   2  119.45    4.03
   0   8  -2    3.86    0.49
   0  -8   2    4.36    0.76
   0  -8   2    4.66    0.73
  -1   8  -2  216.12    6.31
   1  -8   2  218.11    6.80
   1  -8   2  213.83    6.37
   1  -8   2  221.29    6.85
   2  -8   2   70.41    2.12
   2  -8   2   71.97    2.71
   2  -8   2   68.53    2.07
   3  -8   2    4.77    0.85
   4  -8   2  145.47    4.98
   5  -8   2  182.48    6.14
   5  -8   2  177.53    5.28
   5  -8   2  186.24    5.34
  -6   8  -2   14.92    1.40
   6  -8   2   13.25    0.81
   6  -8   2   12.52    1.60
  -7   8  -2   49.78    2.65
   7  -8   2   48.29    1.90
   7  -8   2   51.09    2.91
  -8   8  -2   46.69    1.87
   8  -8   2   42.14    1.86
   8  -8   2   40.73    2.95
  -7  -7   2   12.24    1.89
   6   7  -2   29.80    1.76
  -6  -7   2   26.36    2.63
  -6  -7   2   28.46    1.95
   5   7  -2    2.43    0.84
  -5  -7   2    4.39    1.04
  -5  -7   2    4.69    0.87
   4   7  -2   57.61    2.37
   4   7  -2   57.46    2.53
  -4  -7   2   56.83    2.53
  -4  -7   2   61.41    2.55
   3   7  -2  179.96    5.79
   3   7  -2  178.88    5.76
  -3  -7   2  182.57    5.80
  -3  -7   2  182.05    5.78
   2   7  -2   24.72    1.32
   2   7  -2   26.89    1.35
  -2  -7   2   25.35    1.42
  -2  -7   2   25.12    1.43
   1   7  -2   34.23    1.38
  -1  -7   2   33.61    1.50
  -1  -7   2   32.23    1.51
   0   7  -2  275.76    7.91
   0  -7   2  268.55    8.19
   0  -7   2  267.90    7.96
  -1   7  -2    5.33    0.36
   1  -7   2    4.77    0.69
   1  -7   2    5.93    0.55
   1  -7   2    5.59    0.72
   2  -7   2  116.89    3.41
   2  -7   2  117.76    3.45
   2  -7   2  118.53    3.95
   3  -7   2  250.01    7.05
   3  -7   2  244.87    7.64
   3  -7   2  243.82    7.04
   4  -7   2   27.62    1.60
   4  -7   2   30.97    1.08
  -5   7  -2   88.79    3.37
   5  -7   2   91.71    3.51
  -6   7  -2  124.47    3.86
  -6   7  -2  130.44    4.55
   6  -7   2  123.06    4.66
   6  -7   2  122.37    3.94
  -7   7  -2   12.57    0.94
  -7   7  -2    9.97    1.49
   7  -7   2    9.60    1.07
   7  -7   2    9.01    1.77
  -8   7  -2   17.33    1.28
   8  -7   2   15.82    1.34
   8  -7   2   12.60    2.22
  -9   7  -2   35.71    1.95
   9  -7   2   31.52    3.29
   7   6  -2   23.30    1.67
  -7  -6   2   22.47    1.90
  -7  -6   2   17.44    2.92
   6   6  -2    0.76    0.57
  -6  -6   2   -0.11    1.17
  -6  -6   2   -0.07    0.67
   5   6  -2   83.06    3.21
   5   6  -2   80.67    3.08
  -5  -6   2   78.60    3.17
  -5  -6   2   81.91    3.38
   4   6  -2   49.59    2.17
   4   6  -2   48.65    2.04
  -4  -6   2   46.91    2.16
  -4  -6   2   47.29    2.22
   3   6  -2   13.64    1.10
   3   6  -2   13.53    0.99
  -3  -6   2   12.23    1.32
  -3  -6   2   14.81    1.24
   2   6  -2  123.14    3.99
   2   6  -2  125.31    4.05
  -2  -6   2  127.54    4.07
  -2  -6   2  121.24    4.04
   1   6  -2   55.71    1.93
  -1  -6   2   54.79    2.05
  -1  -6   2   56.19    2.02
   0   6  -2   23.83    0.92
   0  -6   2   23.80    1.03
   0  -6   2   23.56    1.14
  -1   6  -2  357.16   10.50
   1  -6   2  385.46   10.89
   1  -6   2  360.32   10.55
   2  -6   2  186.86    5.55
   2  -6   2  194.06    6.00
   2  -6   2  199.18    5.57
   3  -6   2   30.63    1.06
   3  -6   2   31.05    1.48
   3  -6   2   31.86    1.02
  -4   6  -2  194.00    6.03
   4  -6   2  185.53    5.58
   4  -6   2  188.81    6.07
  -5   6  -2   65.84    2.61
  -5   6  -2   62.02    2.11
   5  -6   2   65.14    2.73
   5  -6   2   65.08    2.22
  -6   6  -2    1.83    0.41
  -6   6  -2    1.92    0.67
   6  -6   2    2.03    0.86
   6  -6   2    2.44    0.54
  -7   6  -2   92.26    3.75
  -7   6  -2   95.40    3.21
   7  -6   2   94.28    3.25
   7  -6   2   91.26    3.95
  -8   6  -2   28.06    2.27
   8  -6   2   31.04    1.75
   8  -6   2   31.50    2.63
  -9   6  -2    0.90    0.72
   9  -6   2   -0.95    0.78
   9  -6   2   -1.51    1.39
   8   5  -2    1.59    0.80
   7   5  -2   30.24    1.86
  -7  -5   2   25.25    2.76
  -7  -5   2   31.72    1.95
   6   5  -2   92.84    3.63
   6   5  -2   93.15    3.60
  -6  -5   2   90.34    4.07
  -6  -5   2   95.19    3.58
   5   5  -2    0.32    0.58
   5   5  -2    0.21    0.47
  -5  -5   2    0.02    0.64
  -5  -5   2    0.79    0.81
   4   5  -2  134.76    4.30
   4   5  -2  132.02    4.24
  -4  -5   2  111.75    5.01
  -4  -5   2  125.28    4.27
   3   5  -2  208.64    6.62
   3   5  -2  216.88    6.62
  -3  -5   2  214.59    6.66
  -3  -5   2  221.34    6.67
   2   5  -2   11.49    0.85
   2   5  -2   10.98    0.78
  -2  -5   2   11.68    0.93
  -2  -5   2   10.92    0.83
   1   5  -2  487.36   13.96
   1   5  -2  481.56   14.08
  -1  -5   2  479.33   14.07
  -1  -5   2  487.70   14.00
   0   5  -2  381.52   11.12
   0  -5   2  384.78   11.15
   0  -5   2  395.63   11.33
  -1   5  -2   84.47    2.54
   1  -5   2   86.54    2.57
   2  -5   2   65.37    2.26
   2  -5   2   61.45    1.92
   2  -5   2   64.62    1.92
  -3   5  -2  223.31    6.92
   3  -5   2  227.93    6.59
   3  -5   2  230.56    6.96
  -4   5  -2    5.38    0.49
  -4   5  -2    5.57    0.69
   4  -5   2    5.79    0.63
   4  -5   2    6.37    0.90
  -5   5  -2   46.86    1.72
  -5   5  -2   46.05    2.04
   5  -5   2   47.39    1.81
   5  -5   2   50.08    2.26
  -6   5  -2  154.88    5.21
  -6   5  -2  151.41    4.78
   6  -5   2  153.17    4.85
   6  -5   2  151.79    5.37
  -7   5  -2   20.95    1.27
  -7   5  -2   17.19    1.62
   7  -5   2   15.85    1.96
   7  -5   2   20.10    1.37
  -8   5  -2   20.82    2.04
  -8   5  -2   24.19    1.53
   8  -5   2   18.63    2.47
   8  -5   2   18.03    1.49
  -9   5  -2   24.80    1.75
   9  -5   2   19.82    1.88
   9  -5   2   22.15    2.67
   8   4  -2   37.08    2.17
  -8  -4   2   28.25    2.91
  -8  -4   2   39.87    2.30
   7   4  -2   14.65    1.45
  -7  -4   2   13.25    1.78
  -7  -4   2   17.21    1.56
   6   4  -2   27.71    1.75
   6   4  -2   28.11    1.70
  -6  -4   2   28.37    1.77
  -6  -4   2   25.44    2.36
   5   4  -2  113.24    3.97
   5   4  -2  112.46    3.96
  -5  -4   2  114.91    4.27
  -5  -4   2  113.12    4.00
   4   4  -2   42.29    1.87
   4   4  -2   43.70    1.90
  -4  -4   2   43.34    1.96
  -4  -4   2   44.94    2.05
   3   4  -2    6.14    0.79
   3   4  -2    5.28    0.68
  -3  -4   2    5.01    0.79
  -3  -4   2    5.89    0.89
   2   4  -2  353.25   10.16
   2   4  -2  337.30   10.16
  -2  -4   2  345.17   10.18
  -2  -4   2  348.01   10.17
   1   4  -2   39.85    1.49
   1   4  -2   41.12    1.44
  -1  -4   2   40.34    1.46
   0   4  -2  244.64    7.04
   0  -4   2  252.52    7.07
   0  -4   2  234.17    7.20
   1  -4   2  171.60    4.98
   2  -4   2  491.96   14.16
   2  -4   2  502.36   14.42
  -3   4  -2    0.01    0.18
  -3   4  -2    0.13    0.26
   3  -4   2    0.57    0.34
   3  -4   2    0.15    0.23
  -4   4  -2  175.85    5.25
  -4   4  -2  173.71    5.50
   4  -4   2  177.40    5.57
   4  -4   2  176.51    5.29
  -5   4  -2   51.56    2.09
  -5   4  -2   48.96    1.89
   5  -4   2   49.48    2.29
   5  -4   2   50.52    1.94
  -6   4  -2    0.64    0.54
  -6   4  -2    0.47    0.45
   6  -4   2    2.35    0.86
   6  -4   2    0.15    0.52
  -7   4  -2   61.04    2.79
  -7   4  -2   63.14    2.49
   7  -4   2   61.67    3.18
   7  -4   2   64.58    2.58
  -8   4  -2   28.61    2.12
  -8   4  -2   27.84    1.65
   8  -4   2   24.56    1.71
   8  -4   2   24.01    2.44
  -9   4  -2    0.91    0.73
  -9   4  -2   -0.93    1.46
   9  -4   2    1.08    1.10
   8   3  -2    0.97    0.72
  -8  -3   2   -0.57    0.77
  -8  -3   2   -1.58    1.31
   7   3  -2   43.79    2.20
   7   3  -2   40.88    2.22
  -7  -3   2   43.19    2.76
  -7  -3   2   42.73    2.24
   6   3  -2   85.34    3.21
   6   3  -2   78.12    3.25
  -6  -3   2   85.22    3.72
  -6  -3   2   84.97    3.25
   5   3  -2    3.74    0.65
   5   3  -2    2.28    0.69
  -5  -3   2    2.27    0.65
  -5  -3   2    3.22    1.13
   4   3  -2  146.54    4.73
  -4  -3   2  142.33    4.82
  -4  -3   2  145.35    4.69
   3   3  -2  219.26    6.72
   3   3  -2  222.91    6.75
  -3  -3   2  221.28    6.78
  -3  -3   2  225.51    6.75
   2   3  -2   36.15    1.39
  -2  -3   2   36.01    1.42
   1   3  -2  281.23    8.24
   1   3  -2  288.92    8.18
  -1  -3   2  275.92    8.24
  -1  -3   2  281.36    8.18
   0   3  -2  215.24    6.22
   0   3  -2  223.17    6.35
   0  -3   2  212.47    6.33
   0  -3   2  210.67    6.22
   1  -3   2  135.58    3.95
  -2   3  -2  225.62    6.71
  -2   3  -2  223.17    6.56
   2  -3   2  232.39    6.73
   2  -3   2  227.13    6.57
  -3   3  -2  297.20    8.75
  -3   3  -2  290.12    8.59
   3  -3   2  301.57    8.78
  -4   3  -2    4.84    0.61
  -4   3  -2    4.97    0.61
   4  -3   2    5.56    0.69
   4  -3   2    5.12    0.86
  -5   3  -2   99.89    3.36
  -5   3  -2  105.15    3.54
   5  -3   2  101.87    3.71
   5  -3   2  103.07    3.42
  -6   3  -2  130.44    4.33
  -6   3  -2  136.64    4.56
   6  -3   2  127.34    4.79
   6  -3   2  134.84    4.39
  -7   3  -2   10.98    1.15
  -7   3  -2   10.31    1.36
   7  -3   2   10.45    1.87
   7  -3   2    9.54    1.30
  -8   3  -2   45.27    2.19
  -8   3  -2   46.69    2.56
   8  -3   2   45.24    2.60
   8  -3   2   44.56    2.30
  -9   3  -2   38.48    2.17
  -9   3  -2   35.33    2.65
   9  -3   2   40.85    2.72
  -9  -2   2    8.08    1.21
   8   2  -2   51.27    2.54
  -8  -2   2   47.50    2.46
  -8  -2   2   46.77    3.06
   7   2  -2   23.07    1.60
   7   2  -2   22.58    2.11
  -7  -2   2   23.17    1.67
  -7  -2   2   22.36    2.15
   6   2  -2   16.96    1.57
   6   2  -2   18.74    1.38
  -6  -2   2   21.67    1.96
   5   2  -2  177.92    5.50
   5   2  -2  155.07    5.61
  -5  -2   2  175.72    5.52
  -5  -2   2  176.41    5.99
   4   2  -2   26.98    1.56
   4   2  -2   31.93    1.43
  -4  -2   2   30.80    1.81
   3   2  -2   62.38    2.28
   3   2  -2   62.73    2.17
  -3  -2   2   61.23    2.31
  -3  -2   2   60.95    2.20
   2   2  -2  430.51   12.21
   2   2  -2  401.88   11.95
  -2  -2   2  400.92   11.97
  -2  -2   2  414.53   11.92
   1   2  -2   88.11    2.68
   0   2  -2   38.12    1.21
   0   2  -2   38.21    1.27
   1  -2   2  230.74    6.65
  -2   2  -2   52.62    1.69
  -2   2  -2   53.49    1.75
   2  -2   2   53.97    1.77
   2  -2   2   52.25    1.71
  -3   2  -2  167.24    4.99
  -3   2  -2  162.76    4.92
   3  -2   2  168.92    4.94
   3  -2   2  159.48    5.02
  -4   2  -2  257.89    7.91
  -4   2  -2  278.45    8.02
   4  -2   2  268.14    7.99
   4  -2   2  263.49    8.09
  -5   2  -2  136.90    4.43
  -5   2  -2  131.93    4.32
   5  -2   2  135.38    4.70
  -6   2  -2    8.76    1.06
  -6   2  -2    8.84    1.09
   6  -2   2    9.05    1.62
   6  -2   2    9.72    1.17
  -7   2  -2   68.60    2.79
  -7   2  -2   69.41    2.93
   7  -2   2   69.49    2.86
   7  -2   2   72.19    3.07
  -8   2  -2   19.17    1.52
  -8   2  -2   16.37    1.84
   8  -2   2   20.15    1.74
   8  -2   2   13.06    1.60
  -9   2  -2    3.39    0.90
  -9   2  -2    2.50    1.20
   9  -2   2    4.35    0.99
   9   1  -2   28.15    2.02
  -9  -1   2   24.57    1.98
   8   1  -2    4.50    0.94
  -8  -1   2    2.57    0.78
  -8  -1   2    3.40    1.30
   7   1  -2   84.82    3.21
  -7  -1   2   82.00    3.20
  -7  -1   2   83.14    3.69
   6   1  -2   90.50    3.63
   6   1  -2   89.36    3.31
  -6  -1   2   97.32    3.83
  -6  -1   2   91.10    3.37
   5   1  -2   10.36    1.44
   5   1  -2   13.42    1.06
  -5  -1   2   12.51    1.59
  -5  -1   2   11.02    1.11
   4   1  -2  185.09    6.57
   4   1  -2  213.79    6.36
  -4  -1   2  214.22    6.39
  -4  -1   2  222.34    6.85
   3   1  -2  473.32   13.32
   3   1  -2  398.46   13.47
  -3  -1   2  478.16   13.34
  -3  -1   2  488.27   13.68
   2   1  -2   77.72    2.49
  -2  -1   2   79.01    2.70
  -2  -1   2   80.24    2.50
   1   1  -2  435.43   12.52
   1   1  -2  429.04   12.27
  -1  -1   2  412.16   12.29
   0   1  -2  341.86    9.78
   0  -1   2  329.10    9.64
   0  -1   2  332.33    9.55
  -1   1  -2   35.42    1.21
   1  -1   2   37.75    1.18
  -2   1  -2  202.38    5.91
  -2   1  -2  197.99    5.95
   2  -1   2  209.90    5.95
   2  -1   2  201.76    5.96
  -3   1  -2  205.26    6.12
  -3   1  -2  206.38    6.11
   3  -1   2  206.55    6.14
   3  -1   2  204.43    6.21
  -4   1  -2    5.21    0.75
  -4   1  -2    7.13    0.71
   4  -1   2    8.03    1.23
   4  -1   2    6.39    0.82
  -5   1  -2  143.59    4.72
  -5   1  -2  143.67    4.69
   5  -1   2  150.12    4.94
   5  -1   2  147.29    4.75
  -6   1  -2  114.52    4.00
  -6   1  -2  111.81    4.03
   6  -1   2  120.71    4.17
   6  -1   2  120.89    4.09
  -7   1  -2    1.01    0.60
  -7   1  -2   -0.06    0.67
   7  -1   2    0.18    0.69
   7  -1   2    1.06    0.74
  -8   1  -2   10.21    1.38
  -8   1  -2    7.87    1.26
   8  -1   2   10.87    1.64
  -9   1  -2   20.54    1.88
   9   0  -2   18.13    1.78
  -9   0   2   12.27    1.63
   8   0  -2   57.07    2.62
   8   0  -2   64.02    2.95
  -8   0   2   59.59    2.65
  -8   0   2   58.90    3.24
   7   0  -2    9.76    1.25
  -7   0   2   11.07    1.75
  -7   0   2    7.87    1.20
   6   0  -2    0.84    0.48
   6   0  -2    0.48    0.84
  -6   0   2    2.20    0.92
  -6   0   2    0.82    0.55
   5   0  -2   76.48    3.19
   5   0  -2   75.09    2.72
  -5   0   2   76.66    2.80
  -5   0   2   82.98    3.30
   4   0  -2   15.59    1.45
   4   0  -2   16.59    0.95
  -4   0   2   18.16    1.49
  -4   0   2   17.66    1.05
   3   0  -2  338.14   10.07
   3   0  -2  344.98   10.43
  -3   0   2  352.75   10.09
  -3   0   2  349.82   10.49
   2   0  -2   41.70    1.91
   2   0  -2   45.70    1.49
  -2   0   2   48.41    1.52
   1   0  -2   80.16    2.81
   1   0  -2   93.32    2.63
  -1   0   2   86.07    2.89
  -1   0   2   93.09    2.63
   0   0  -2  299.12    8.42
   0   0   2  289.22    8.29
   0   0   2  280.99    8.31
  -1   0  -2  837.59   23.84
   1   0   2  813.05   23.84
  -2   0  -2  139.25    3.99
  -2   0  -2  135.35    4.09
   2   0   2  136.69    4.10
   2   0   2  130.97    4.09
  -3   0  -2   43.05    1.54
   3   0   2   40.63    1.67
   3   0   2   43.44    1.63
  -4   0  -2  134.38    4.27
   4   0   2  134.82    4.29
   4   0   2  131.63    4.29
  -5   0  -2  126.93    4.14
  -5   0  -2  121.25    4.14
   5   0   2  122.04    4.16
   5   0   2  127.03    4.21
  -6   0  -2    6.91    1.10
  -6   0  -2    5.36    1.05
   6   0   2    5.67    1.12
   6   0   2    4.66    0.81
  -7   0  -2   65.07    2.74
  -7   0  -2   63.47    2.77
   7   0   2   66.03    2.66
   7   0   2   65.88    2.86
  -8   0  -2   21.97    2.05
  -8   0  -2   25.52    1.85
   8   0   2   28.82    1.71
   9  -1  -2   17.59    1.91
  -9   1   2   17.93    1.66
   8  -1  -2    2.63    0.73
  -8   1   2    4.86    0.81
  -8   1   2    2.80    1.18
   7  -1  -2   96.16    4.86
   7  -1  -2  106.96    3.67
  -7   1   2  101.88    3.68
  -7   1   2  107.75    4.23
   6  -1  -2  131.06    4.24
   6  -1  -2  129.16    4.78
  -6   1   2  122.32    4.26
  -6   1   2  132.73    4.84
   5  -1  -2    4.05    1.04
   5  -1  -2    5.25    0.75
  -5   1   2    3.41    0.58
  -5   1   2    3.93    0.89
   4  -1  -2  657.58   18.70
   4  -1  -2  648.55   19.25
  -4   1   2  665.54   18.74
  -4   1   2  629.16   19.16
   3  -1  -2  252.86    7.28
   3  -1  -2  260.11    7.80
  -3   1   2  220.76    7.64
  -3   1   2  263.47    7.32
   2  -1  -2   27.23    0.98
   2  -1  -2   30.34    1.50
  -2   1   2   28.90    1.01
   1  -1  -2  138.87    4.18
  -1   1   2  138.93    4.14
  -1   1   2  132.11    3.97
   0  -1  -2  587.58   16.33
   0  -1  -2  504.35   16.50
   0   1   2  594.08   16.40
   0   1   2  585.49   16.34
  -1  -1  -2   22.93    0.90
   1   1   2   21.96    0.90
  -2  -1  -2  192.19    5.57
  -2  -1  -2  182.42    5.50
   2   1   2  190.42    5.58
   2   1   2  181.86    5.39
  -3  -1  -2   88.94    2.93
  -3  -1  -2   89.13    2.89
   3   1   2   89.09    2.95
   3   1   2   86.48    2.75
  -4  -1  -2    0.46    0.50
  -4  -1  -2   -0.35    0.45
   4   1   2   -0.52    0.38
   4   1   2    0.01    0.48
  -5  -1  -2   77.35    2.77
  -5  -1  -2   72.19    2.77
   5   1   2   68.39    2.60
   5   1   2   75.27    2.85
  -6  -1  -2   60.45    2.54
  -6  -1  -2   62.35    2.51
   6   1   2   60.75    2.65
   6   1   2   58.78    2.35
  -7  -1  -2    0.95    0.64
  -7  -1  -2    1.24    0.82
   7   1   2   -0.01    1.02
   7   1   2    1.59    0.59
  -8  -1  -2   30.45    2.05
  -8  -1  -2   25.62    2.16
   8   1   2   34.56    1.80
   9  -2  -2   22.76    2.14
   9  -2  -2   20.83    2.50
  -9   2   2   23.25    1.72
   8  -2  -2   54.02    2.29
   8  -2  -2   53.12    2.88
  -8   2   2   51.55    2.99
  -8   2   2   53.09    2.38
   7  -2  -2    2.23    1.03
   7  -2  -2    1.32    0.54
  -7   2   2    1.54    0.60
  -7   2   2    0.74    0.89
   6  -2  -2   53.11    2.95
   6  -2  -2   51.32    2.35
  -6   2   2   55.87    2.19
  -6   2   2   54.74    2.71
   5  -2  -2  134.32    4.14
   5  -2  -2  127.63    4.87
  -5   2   2  131.84    4.19
   4  -2  -2  123.34    4.35
   4  -2  -2  125.46    3.79
  -4   2   2  117.54    4.25
  -4   2   2  125.86    3.83
   3  -2  -2   95.43    2.96
   3  -2  -2   95.85    3.40
  -3   2   2  100.15    3.01
  -3   2   2  100.71    3.39
   2  -2  -2  296.17    8.47
   2  -2  -2  300.06    8.80
  -2   2   2  303.08    8.48
  -2   2   2  283.01    8.80
   1  -2  -2   26.46    1.06
  -1   2   2   23.38    0.82
  -1   2   2   24.77    0.97
   0  -2  -2  192.80    5.46
   0  -2  -2  184.66    5.43
   0   2   2  183.54    5.44
  -1  -2  -2  278.65    8.06
  -1  -2  -2  275.46    7.94
  -2  -2  -2  189.30    5.61
  -2  -2  -2  194.33    5.76
   2   2   2  191.26    5.77
   2   2   2  191.94    5.57
  -3  -2  -2   30.36    1.44
  -3  -2  -2   29.00    1.34
   3   2   2   29.69    1.40
   3   2   2   28.37    1.08
  -4  -2  -2  281.26    8.48
  -4  -2  -2  266.24    9.01
   4   2   2  276.24    8.23
   4   2   2  295.56    8.56
  -5  -2  -2   44.23    1.98
   5   2   2   41.05    1.69
   5   2   2   42.09    2.07
  -6  -2  -2   21.54    1.55
  -6  -2  -2   23.70    1.61
   6   2   2   23.42    1.28
   6   2   2   22.10    1.76
  -7  -2  -2   41.84    2.27
  -7  -2  -2   44.19    2.29
   7   2   2   44.71    1.94
  -8  -2  -2   11.88    1.68
   8   2   2   14.96    1.26
   9  -3  -2   11.15    1.43
   9  -3  -2   15.88    2.14
  -9   3   2   16.34    1.46
   8  -3  -2    1.30    1.09
   8  -3  -2    1.59    0.63
  -8   3   2    1.07    1.09
  -8   3   2    1.82    0.65
   7  -3  -2   81.67    2.99
   7  -3  -2   85.10    3.99
  -7   3   2   86.39    3.06
  -7   3   2   85.58    3.72
   6  -3  -2   57.36    3.13
   6  -3  -2   56.70    2.11
  -6   3   2   54.04    2.74
  -6   3   2   59.21    2.21
   5  -3  -2   24.34    1.10
   5  -3  -2   24.52    1.92
  -5   3   2   22.86    1.65
  -5   3   2   25.86    1.23
   4  -3  -2  158.43    5.37
   4  -3  -2  161.89    4.85
  -4   3   2  162.02    4.89
  -4   3   2  168.58    5.37
   3  -3  -2  401.03   11.93
   3  -3  -2  387.84   11.48
  -3   3   2  409.30   11.51
  -3   3   2  407.89   11.90
   2  -3  -2   21.35    1.09
  -2   3   2   19.02    0.96
  -2   3   2   20.03    0.70
   1  -3  -2  186.03    5.40
  -1   3   2  171.55    5.17
  -1   3   2  179.22    5.35
   0  -3  -2  101.28    3.06
   0  -3  -2   99.75    3.00
   0   3   2   98.59    3.02
  -1  -3  -2    2.90    0.51
  -1  -3  -2    2.94    0.34
   1   3   2    3.24    0.57
  -2  -3  -2  222.81    6.73
  -2  -3  -2  230.76    6.89
   2   3   2  238.86    6.95
  -3  -3  -2  166.60    4.99
  -3  -3  -2  162.05    5.10
   3   3   2  159.10    4.84
  -4  -3  -2    1.77    0.71
  -4  -3  -2    0.59    0.50
   4   3   2    0.47    0.30
   4   3   2    0.89    0.64
  -5  -3  -2   61.06    2.64
  -5  -3  -2   66.94    2.62
   5   3   2   65.96    2.29
   5   3   2   65.73    2.76
  -6  -3  -2   64.89    2.70
  -6  -3  -2   61.94    2.63
   6   3   2   58.66    2.81
   6   3   2   63.26    2.33
  -7  -3  -2    0.50    0.69
   7   3   2    0.94    0.49
   9  -4  -2   14.43    2.32
   9  -4  -2   13.02    1.39
  -9   4   2   16.98    1.48
   8  -4  -2   42.94    3.12
   8  -4  -2   41.57    1.91
  -8   4   2   47.13    2.07
  -8   4   2   40.72    2.73
   7  -4  -2   24.99    2.52
   7  -4  -2   25.75    1.35
  -7   4   2   27.52    1.44
  -7   4   2   24.81    2.00
   6  -4  -2  109.04    4.41
   6  -4  -2  111.17    3.52
  -6   4   2  111.77    3.58
  -6   4   2  104.90    4.19
   5  -4  -2  121.76    3.72
   5  -4  -2  116.04    4.42
  -5   4   2  119.12    3.76
  -5   4   2  125.74    4.38
   4  -4  -2    2.82    0.71
   4  -4  -2    2.28    0.34
  -4   4   2    1.96    0.55
  -4   4   2    2.24    0.34
   3  -4  -2   85.81    3.06
  -3   4   2   85.74    2.55
  -3   4   2   83.53    2.94
   2  -4  -2  438.72   12.48
  -2   4   2  433.45   12.06
  -2   4   2  407.80   12.05
  -2   4   2  415.57   12.39
   1  -4  -2    5.16    0.57
  -1   4   2    4.32    0.39
  -1   4   2    4.70    0.48
   0  -4  -2  208.47    6.13
   0  -4  -2  203.18    6.02
   0   4   2  206.06    6.07
  -1  -4  -2  282.58    8.51
  -1  -4  -2  293.35    8.57
  -1  -4  -2  293.89    8.55
   1   4   2  300.65    8.63
  -2  -4  -2   27.83    1.14
  -2  -4  -2   28.64    1.30
   2   4   2   30.62    1.42
  -3  -4  -2  105.96    3.57
   3   4   2  106.63    3.67
  -4  -4  -2   71.15    2.80
  -4  -4  -2   70.74    2.76
   4   4   2   71.68    2.41
   4   4   2   74.87    2.89
  -5  -4  -2   17.36    1.40
  -5  -4  -2   15.68    1.48
   5   4   2   16.82    0.96
   5   4   2   15.33    1.59
  -6  -4  -2    6.40    1.07
  -6  -4  -2    8.35    1.30
   6   4   2    8.20    0.83
  -7  -4  -2   58.07    2.83
   7   4   2   58.38    2.28
   9  -5  -2   16.22    2.76
   9  -5  -2   14.86    1.36
  -9   5   2   20.07    1.58
   8  -5  -2    8.13    0.99
   8  -5  -2    8.43    1.71
  -8   5   2   10.84    1.14
   7  -5  -2  105.62    3.40
   7  -5  -2  106.88    4.54
  -7   5   2   98.10    4.22
  -7   5   2  102.36    3.44
   6  -5  -2  126.71    4.94
   6  -5  -2  130.54    3.99
  -6   5   2  130.35    4.79
  -6   5   2  127.04    4.02
   5  -5  -2    8.76    1.47
   5  -5  -2    7.68    0.52
  -5   5   2    7.31    0.65
  -5   5   2    7.93    1.10
   4  -5  -2  110.52    3.31
   4  -5  -2  112.23    4.05
  -4   5   2  110.58    3.34
  -4   5   2  117.46    3.94
   3  -5  -2  155.26    5.05
  -3   5   2  153.62    4.94
   2  -5  -2   36.34    1.60
  -2   5   2   36.59    1.13
  -2   5   2   35.52    1.15
  -2   5   2   37.02    1.51
   1  -5  -2  330.13    9.75
   1  -5  -2  348.05   10.08
  -1   5   2  342.67    9.81
   0  -5  -2   47.26    1.72
   0  -5  -2   48.07    1.64
   0  -5  -2   48.31    1.77
   0   5   2   50.33    1.74
  -1  -5  -2   -0.04    0.25
  -1  -5  -2    0.03    0.25
  -1  -5  -2    0.44    0.35
   1   5   2    0.51    0.42
  -2  -5  -2  169.87    5.27
  -2  -5  -2  170.27    5.15
   2   5   2  168.91    5.42
  -3  -5  -2  128.99    4.08
  -3  -5  -2  124.92    4.22
   3   5   2  131.37    4.38
  -4  -5  -2   28.33    1.59
  -4  -5  -2   27.05    1.59
   4   5   2   28.23    1.81
  -5  -5  -2   88.28    3.53
  -5  -5  -2   93.67    3.49
   5   5   2   88.28    3.60
   5   5   2   95.03    3.07
  -6  -5  -2   48.28    2.43
  -6  -5  -2   48.13    2.50
   6   5   2   49.23    1.94
   9  -6  -2   39.17    3.64
  -9   6   2   43.18    2.07
   8  -6  -2   23.89    1.31
   8  -6  -2   24.24    2.78
  -8   6   2   26.30    1.42
   7  -6  -2   -0.61    1.01
   7  -6  -2    0.26    0.31
  -7   6   2    0.33    0.40
  -7   6   2    0.69    0.90
   6  -6  -2   50.48    1.93
   6  -6  -2   56.61    2.92
  -6   6   2   61.22    2.74
  -6   6   2   55.97    1.89
   5  -6  -2  101.17    3.07
   5  -6  -2  104.78    4.06
  -5   6   2  103.43    3.86
  -5   6   2  105.01    3.07
   4  -6  -2    1.53    0.72
  -4   6   2    1.08    0.47
   3  -6  -2  109.94    3.84
  -3   6   2  107.31    3.78
   2  -6  -2  214.53    6.57
  -2   6   2  204.61    6.04
  -2   6   2  210.48    6.01
   1  -6  -2    7.95    0.48
   1  -6  -2    7.91    0.79
  -1   6   2    9.33    0.69
   0  -6  -2   97.17    3.26
   0  -6  -2   95.74    3.06
   0  -6  -2   99.22    3.21
   0   6   2  100.84    3.20
  -1  -6  -2  236.44    7.11
  -1  -6  -2  236.27    7.19
  -1  -6  -2  231.73    7.12
   1   6   2  249.22    7.26
  -2  -6  -2  122.39    3.87
  -2  -6  -2  118.67    3.94
   2   6   2  123.25    4.12
  -3  -6  -2    2.60    0.53
  -3  -6  -2    1.57    0.56
   3   6   2    1.98    0.73
  -4  -6  -2   68.38    2.66
  -4  -6  -2   66.81    2.73
   4   6   2   69.79    2.95
  -5  -6  -2    9.55    1.32
  -5  -6  -2   10.01    1.33
  -6  -6  -2   11.02    1.59
   9  -7  -2    3.00    1.84
   8  -7  -2   14.24    0.91
  -8   7   2   14.31    1.06
   7  -7  -2   64.69    3.56
   7  -7  -2   69.17    2.26
  -7   7   2   77.27    3.94
  -7   7   2   69.04    2.27
   6  -7  -2   57.24    3.05
  -6   7   2   60.75    2.85
   5  -7  -2   27.89    1.98
  -5   7   2   27.00    1.69
   4  -7  -2  167.42    5.72
  -4   7   2  168.07    5.56
   3  -7  -2   95.43    3.52
  -3   7   2   94.39    3.37
   2  -7  -2    2.80    0.61
  -2   7   2    2.57    0.23
   1  -7  -2  185.22    5.48
   1  -7  -2  189.11    5.93
  -1   7   2  187.73    5.61
   0  -7  -2  136.73    4.41
   0  -7  -2  137.90    4.22
   0  -7  -2  139.68    4.50
   0   7   2  139.70    4.39
  -1  -7  -2   48.99    1.93
  -1  -7  -2   47.15    1.85
  -1  -7  -2   49.30    1.84
   1   7   2   47.27    2.05
  -2  -7  -2  138.07    4.46
  -2  -7  -2  140.79    4.46
  -2  -7  -2  134.26    4.39
   2   7   2  139.71    4.66
  -3  -7  -2   17.50    1.18
  -3  -7  -2   17.57    1.28
   3   7   2   17.30    1.62
  -4  -7  -2    5.07    0.86
  -4  -7  -2    6.11    1.24
   4   7   2    3.20    1.03
  -5  -7  -2   75.57    3.16
   8  -8  -2   37.35    3.17
   7  -8  -2    0.20    1.05
   6  -8  -2   45.92    2.83
  -6   8   2   50.75    2.58
   5  -8  -2  106.36    4.21
  -5   8   2  103.94    3.97
   4  -8  -2    3.44    0.86
  -4   8   2    5.36    0.91
   3  -8  -2  117.13    4.22
   2  -8  -2  153.67    5.15
   1  -8  -2    3.97    0.80
   1  -8  -2    4.03    0.45
   1  -8  -2    3.57    0.66
  -1   8   2    3.97    0.61
   0  -8  -2   48.00    1.97
   0  -8  -2   48.15    2.05
   0  -8  -2   49.65    1.81
   0   8   2   47.75    1.95
  -1  -8  -2  138.19    4.23
  -1  -8  -2  136.49    4.41
  -1  -8  -2  121.82    4.55
   1   8   2  133.72    4.46
  -2  -8  -2    1.13    0.95
  -2  -8  -2   -0.08    0.43
  -2  -8  -2    0.20    0.45
   2   8   2    0.02    0.73
  -3  -8  -2   62.51    2.56
  -3  -8  -2   60.03    2.69
  -3  -8  -2   67.30    2.51
   3   8   2   67.35    2.98
  -4  -8  -2   78.31    2.87
  -4  -8  -2   78.56    3.11
  -4  -8  -2   72.90    3.03
   8  -9  -2   14.57    2.96
   7  -9  -2   89.00    4.31
   6  -9  -2   34.63    2.56
   5  -9  -2   22.50    1.98
  -5   9   2   18.66    1.50
   4  -9  -2  150.22    5.38
   3  -9  -2   54.35    2.55
   2  -9  -2   37.51    2.97
   1  -9  -2   84.30    3.22
   1  -9  -2   83.09    3.12
   1  -9  -2   83.72    2.61
  -1   9   2   83.29    2.71
   0  -9  -2   28.11    1.53
   0  -9  -2   28.17    1.21
   0  -9  -2   28.13    1.59
   0   9   2   27.39    1.50
  -1  -9  -2    3.93    0.69
  -1  -9  -2    3.81    0.68
  -1  -9  -2    4.48    0.74
   1   9   2    2.61    0.79
  -2  -9  -2   97.07    3.39
  -2  -9  -2   96.21    3.47
  -2  -9  -2   93.73    3.42
   2   9   2   97.10    3.76
  -3  -9  -2   22.95    1.51
  -3  -9  -2   27.50    1.73
  -3  -9  -2   24.23    1.55
   3   9   2   20.69    2.23
  -4  -9  -2    0.90    0.72
   7 -10  -2   -0.25    1.29
   6 -10  -2   41.88    2.87
   5 -10  -2   13.88    1.88
   4 -10  -2    1.05    0.79
   3 -10  -2   76.25    3.27
   2 -10  -2  104.49    3.99
   2 -10  -2  105.58    3.89
   1 -10  -2    0.88    0.67
   1 -10  -2    1.55    0.68
  -1  10   2    1.02    0.41
   0 -10  -2   48.60    2.28
   0 -10  -2   50.15    1.79
   0 -10  -2   47.45    2.22
   0  10   2   45.47    2.07
  -1 -10  -2   64.61    3.18
  -1 -10  -2   69.26    2.77
  -1 -10  -2   73.97    2.54
   1  10   2   66.19    2.95
  -2 -10  -2    2.24    0.59
  -2 -10  -2    3.22    0.80
   6 -11  -2    2.39    1.37
   5 -11  -2   19.13    2.20
   4 -11  -2   72.46    3.45
   3 -11  -2   37.45    2.32
   2 -11  -2   25.90    1.89
   2 -11  -2   25.72    1.97
   1 -11  -2  108.51    4.16
   1 -11  -2  106.81    4.10
  -1  11   2  110.06    3.39
   0 -11  -2   33.40    1.99
   0 -11  -2   28.74    1.96
   0 -11  -2   31.90    1.36
  -1 -11  -2   15.98    1.63
  -1 -11  -2   20.45    1.62
   4 -12  -2   -0.96    1.00
   3 -12  -2   69.94    3.43
   2 -12  -2   41.80    2.57
   1 -12  -2   -1.02    0.87
  -1 -13   3   65.13    3.18
  -1 -13   3   72.28    2.74
   0 -13   3   20.98    1.16
   0 -13   3   18.09    1.73
   1 -13   3   10.24    1.47
   2 -13   3   57.01    2.91
   3 -13   3   44.46    2.58
   4 -13   3   10.10    1.68
   5 -13   3   55.72    3.50
   2  12  -3   72.92    2.98
  -2 -12   3   74.34    2.92
   1  12  -3    0.70    0.60
  -1 -12   3    0.66    0.57
  -1 -12   3    1.39    0.66
   0  12  -3   72.63    2.55
   0 -12   3   77.14    2.62
   0 -12   3   74.07    3.20
   1 -12   3   44.91    2.35
   1 -12   3   45.07    1.61
   2 -12   3    3.58    0.85
   3 -12   3  100.78    4.05
   4 -12   3  114.37    4.52
   5 -12   3    0.16    0.80
   6 -12   3   29.23    2.47
  -4 -11   3   47.82    2.49
   3  11  -3    8.89    1.22
  -3 -11   3   12.47    1.39
   2  11  -3   13.38    1.45
  -2 -11   3   12.97    1.33
  -2 -11   3   14.24    1.56
   1  11  -3  145.31    4.71
  -1 -11   3  144.23    5.11
  -1 -11   3  153.28    4.79
   0  11  -3   27.89    1.25
   0 -11   3   27.55    1.69
   0 -11   3   28.10    1.36
   0 -11   3   28.75    1.79
  -1  11  -3   61.58    1.97
   1 -11   3   60.02    2.05
   1 -11   3   58.43    2.66
   1 -11   3   60.33    2.69
   2 -11   3  100.52    2.98
   2 -11   3  101.51    3.87
   2 -11   3  103.04    3.91
   3 -11   3   37.65    2.10
   3 -11   3   37.01    2.07
   4 -11   3   60.27    2.84
   5 -11   3  122.09    4.72
   6 -11   3   30.10    2.29
   7 -11   3    7.18    1.49
  -5 -10   3   21.27    1.96
   4  10  -3   -0.85    1.07
  -4 -10   3    0.23    0.72
  -4 -10   3    2.26    0.94
   3  10  -3   54.68    2.52
  -3 -10   3   57.33    2.48
  -3 -10   3   57.04    2.62
   2  10  -3   48.05    2.14
  -2 -10   3   50.61    2.19
  -2 -10   3   48.59    2.30
   1  10  -3    1.96    0.56
  -1 -10   3    2.50    0.64
  -1 -10   3    1.93    0.56
   0  10  -3  155.41    4.81
   0 -10   3  159.54    4.93
   0 -10   3  159.93    5.32
  -1  10  -3  130.48    3.85
   1 -10   3  125.96    4.39
   1 -10   3  122.84    4.43
   1 -10   3  119.99    3.85
   2 -10   3    0.60    0.54
   2 -10   3    0.60    0.26
   2 -10   3    0.37    0.51
   3 -10   3   92.34    3.52
   3 -10   3   90.82    3.54
   4 -10   3  132.69    4.78
   5 -10   3    5.24    0.96
   6 -10   3   37.40    2.38
   7 -10   3   56.78    3.21
   5   9  -3   35.62    2.01
  -5  -9   3   35.97    2.52
  -5  -9   3   35.03    2.16
   4   9  -3  109.26    4.15
   4   9  -3  114.32    4.06
  -4  -9   3  108.81    4.04
  -4  -9   3  109.54    4.16
   3   9  -3   23.90    1.63
  -3  -9   3   25.87    1.66
  -3  -9   3   24.84    1.59
   2   9  -3  111.12    3.73
  -2  -9   3  106.91    3.88
  -2  -9   3  110.27    3.78
   1   9  -3   97.25    3.21
  -1  -9   3   95.12    3.48
  -1  -9   3   98.89    3.34
   0   9  -3   32.49    1.28
   0  -9   3   34.17    1.49
   0  -9   3   32.33    1.67
  -1   9  -3   39.55    1.56
   1  -9   3   42.59    1.97
   1  -9   3   43.08    1.59
   1  -9   3   42.29    1.95
   2  -9   3  227.98    7.21
   2  -9   3  225.32    6.62
   2  -9   3  227.67    7.24
   3  -9   3   25.88    0.86
   4  -9   3   14.80    1.34
   5  -9   3   40.32    2.17
   5  -9   3   38.22    1.29
   5  -9   3   39.83    1.37
   6  -9   3    2.77    0.96
   6  -9   3    3.08    0.44
   7  -9   3   27.95    1.38
   7  -9   3   29.76    2.33
   8  -9   3   43.23    3.17
   6   8  -3   55.89    2.59
  -6  -8   3   50.29    3.26
  -6  -8   3   52.77    2.72
   5   8  -3   21.15    1.86
   5   8  -3   22.85    1.57
  -5  -8   3   27.10    2.09
  -5  -8   3   24.68    1.79
   4   8  -3    3.70    0.70
   4   8  -3    3.40    0.76
  -4  -8   3    2.21    0.72
  -4  -8   3    4.72    0.88
   3   8  -3  133.70    4.52
   3   8  -3  136.29    4.57
  -3  -8   3  130.31    4.54
  -3  -8   3  137.04    4.61
   2   8  -3  123.59    4.24
   2   8  -3  124.37    4.09
  -2  -8   3  126.90    4.19
  -2  -8   3  125.94    4.27
   1   8  -3    4.66    0.63
  -1  -8   3    4.27    0.82
  -1  -8   3    5.41    0.92
   0   8  -3  100.52    3.08
   0  -8   3   97.56    3.19
   0  -8   3   96.21    3.41
  -1   8  -3  251.83    7.40
   1  -8   3  254.07    7.49
   1  -8   3  260.26    7.89
   2  -8   3   18.59    1.19
   2  -8   3   19.01    0.80
   2  -8   3   19.80    1.23
   3  -8   3  220.36    6.35
   3  -8   3  218.48    6.34
   3  -8   3  219.24    6.96
   4  -8   3  134.02    3.99
   4  -8   3  136.12    4.02
   4  -8   3  134.81    4.66
   5  -8   3   10.94    0.79
   5  -8   3    9.64    1.26
   6  -8   3  130.14    4.08
   6  -8   3  129.22    4.81
   7  -8   3   77.82    3.66
   7  -8   3   81.70    3.38
   8  -8   3   -0.57    1.06
   7   7  -3   37.67    2.23
  -7  -7   3   38.51    2.43
  -6  -7   3    2.99    0.86
  -6  -7   3    4.88    1.46
   5   7  -3   45.00    2.22
   5   7  -3   44.12    2.27
  -5  -7   3   42.95    2.46
  -5  -7   3   44.53    2.28
   4   7  -3   75.61    2.92
   4   7  -3   77.95    3.01
  -4  -7   3   73.59    3.03
  -4  -7   3   75.57    3.00
   3   7  -3   28.89    1.49
   3   7  -3   27.87    1.51
  -3  -7   3   27.25    1.62
  -3  -7   3   27.20    1.58
   2   7  -3   69.98    2.62
   2   7  -3   72.19    2.52
  -2  -7   3   69.28    2.64
  -2  -7   3   69.64    2.61
   1   7  -3  137.56    4.26
  -1  -7   3  137.96    4.36
   0   7  -3    2.66    0.40
   0  -7   3    3.97    0.63
   0  -7   3    1.93    0.44
  -1   7  -3   85.64    2.59
   1  -7   3   86.28    2.66
   1  -7   3   83.37    2.98
   2  -7   3  248.20    7.07
   2  -7   3  238.46    7.03
   2  -7   3  245.06    7.52
   3  -7   3    1.43    0.26
   3  -7   3    1.59    0.21
   3  -7   3    1.30    0.45
   4  -7   3   52.99    2.27
   5  -7   3  182.34    5.49
   5  -7   3  181.85    6.04
  -6   7  -3   37.11    1.99
  -6   7  -3   38.11    1.50
   6  -7   3   37.50    1.63
   6  -7   3   37.51    2.19
  -7   7  -3   39.81    2.28
  -7   7  -3   39.59    1.69
   7  -7   3   39.46    1.81
   7  -7   3   39.35    2.50
  -8   7  -3   39.87    2.49
   8  -7   3   41.87    2.89
   8  -7   3   41.13    2.04
  -7  -6   3    4.09    0.99
  -7  -6   3    2.78    1.69
   6   6  -3   54.05    2.76
   6   6  -3   56.02    2.59
  -6  -6   3   57.85    3.18
  -6  -6   3   57.58    2.68
   5   6  -3   79.50    3.16
   5   6  -3   83.32    3.17
  -5  -6   3   82.49    3.48
  -5  -6   3   79.27    3.19
   4   6  -3    8.72    0.98
   4   6  -3    9.96    1.16
  -4  -6   3    8.36    1.26
  -4  -6   3    9.00    1.24
   3   6  -3  136.94    4.54
   3   6  -3  139.89    4.53
  -3  -6   3  142.20    4.61
  -3  -6   3  136.23    4.55
   2   6  -3  167.07    5.29
   2   6  -3  163.95    5.18
  -2  -6   3  171.26    5.32
  -2  -6   3  167.89    5.25
   1   6  -3   31.12    1.23
   1   6  -3   29.97    1.38
  -1  -6   3   29.90    1.37
  -1  -6   3   31.35    1.34
   0  -6   3  268.95    7.89
   0  -6   3  270.36    8.10
   1  -6   3  262.67    7.81
   1  -6   3  255.16    7.51
   2  -6   3    2.33    0.31
   2  -6   3    1.81    0.42
   2  -6   3    2.17    0.30
   3  -6   3  218.03    6.74
   3  -6   3  217.73    6.35
   4  -6   3   51.75    1.81
   4  -6   3   53.65    2.20
  -5   6  -3   10.22    0.73
  -5   6  -3   10.23    1.00
   5  -6   3   10.55    1.23
   5  -6   3   10.05    0.89
  -6   6  -3   86.37    3.31
  -6   6  -3   82.94    2.85
   6  -6   3   83.19    3.45
   6  -6   3   87.01    3.22
  -7   6  -3   52.13    2.09
  -7   6  -3   48.00    2.49
   7  -6   3   52.62    2.21
   7  -6   3   51.10    2.77
  -8   6  -3    0.75    1.03
  -8   6  -3    0.92    0.57
   8  -6   3   -0.80    0.71
   8  -6   3   -0.99    1.10
  -9   6  -3   26.47    1.88
   8   5  -3   24.22    1.93
  -8  -5   3   23.14    2.05
   7   5  -3   35.76    2.06
  -7  -5   3   31.78    2.01
  -7  -5   3   32.42    3.05
   6   5  -3    3.39    0.75
   6   5  -3    4.02    0.78
  -6  -5   3    3.82    0.86
  -6  -5   3    3.87    1.23
   5   5  -3   93.70    3.47
   5   5  -3   93.11    3.49
  -5  -5   3   97.27    3.75
  -5  -5   3   93.35    3.50
   4   5  -3   82.89    3.10
   4   5  -3   86.33    3.09
  -4  -5   3   85.57    3.15
  -4  -5   3   86.13    3.24
   3   5  -3   15.80    1.06
   3   5  -3   17.63    1.09
  -3  -5   3   16.78    1.19
  -3  -5   3   16.49    1.17
   2   5  -3  147.77    4.66
   2   5  -3  148.04    4.58
  -2  -5   3  145.52    4.61
  -2  -5   3  148.46    4.67
   1   5  -3  480.37   14.19
   1   5  -3  486.76   14.04
  -1  -5   3  501.01   14.20
  -1  -5   3  480.07   14.07
   0   5  -3    0.18    0.17
   0  -5   3    0.46    0.23
   0  -5   3   -0.09    0.25
   1  -5   3  237.01    7.15
   1  -5   3  240.86    6.93
   2  -5   3  267.76    7.68
   2  -5   3  272.32    7.96
   2  -5   3  255.97    7.66
   3  -5   3   17.88    1.10
   3  -5   3   17.56    1.01
  -4   5  -3  155.92    4.99
  -4   5  -3  153.94    4.70
   4  -5   3  157.69    5.05
   4  -5   3  157.77    4.74
  -5   5  -3  179.33    5.77
  -5   5  -3  178.77    5.46
   5  -5   3  180.34    5.87
   5  -5   3  178.92    5.50
  -6   5  -3   19.20    1.39
  -6   5  -3   18.80    1.14
   6  -5   3   20.26    1.31
   6  -5   3   19.43    1.71
  -7   5  -3   23.47    1.72
  -7   5  -3   25.06    1.43
   7  -5   3   21.07    2.45
   7  -5   3   23.59    1.53
  -8   5  -3   58.27    2.49
  -8   5  -3   60.71    3.00
   8  -5   3   57.27    3.35
   8  -5   3   58.41    2.61
  -9   5  -3   10.51    1.50
   9  -5   3    6.72    1.54
   8   4  -3   10.98    1.47
  -8  -4   3    7.98    1.17
   7   4  -3   21.23    1.68
  -7  -4   3   21.96    2.51
  -7  -4   3   20.14    1.70
   6   4  -3  114.42    4.43
   6   4  -3  125.60    4.33
  -6  -4   3  122.54    4.92
  -6  -4   3  126.89    4.36
   5   4  -3   66.33    2.80
   5   4  -3   68.38    2.69
  -5  -4   3   69.65    2.79
  -5  -4   3   70.39    3.09
   4   4  -3   46.81    1.95
   4   4  -3   46.89    2.02
  -4  -4   3   44.37    2.20
  -4  -4   3   45.93    2.00
   3   4  -3  167.81    5.15
   3   4  -3  162.36    5.19
  -3  -4   3  164.32    5.22
  -3  -4   3  165.17    5.17
   2   4  -3  181.11    5.40
   2   4  -3  174.62    5.46
  -2  -4   3  175.36    5.48
  -2  -4   3  181.99    5.45
   1   4  -3   81.64    2.58
   1   4  -3   78.26    2.65
  -1  -4   3   80.69    2.57
  -1  -4   3   82.40    2.68
   0   4  -3  671.50   19.05
   0   4  -3  656.51   18.89
   0  -4   3  670.87   19.07
   0  -4   3  651.77   19.04
   1  -4   3  130.00    4.00
   1  -4   3  129.41    3.84
   2  -4   3   27.84    1.14
   2  -4   3   26.30    0.98
  -3   4  -3  166.54    5.09
   3  -4   3  171.32    5.12
   3  -4   3  178.30    5.33
  -4   4  -3  219.71    6.66
  -4   4  -3  211.68    6.46
   4  -4   3  220.65    6.50
   4  -4   3  217.68    6.71
  -5   4  -3    0.46    0.37
  -5   4  -3    0.24    0.39
   5  -4   3    1.02    0.49
   5  -4   3    0.99    0.63
  -6   4  -3   67.27    2.69
  -6   4  -3   66.93    2.51
   6  -4   3   67.51    2.61
   6  -4   3   69.47    2.96
  -7   4  -3   30.86    1.67
  -7   4  -3   31.09    1.90
   7  -4   3   33.41    1.81
   7  -4   3   31.71    2.36
  -8   4  -3    0.68    0.59
  -8   4  -3    0.97    0.92
   8  -4   3   -1.05    0.76
   8  -4   3   -0.07    1.07
  -9   4  -3   40.28    2.24
  -9   4  -3   36.52    2.61
   9  -4   3   39.23    2.66
   8   3  -3   32.93    2.10
  -8  -3   3   29.80    2.05
  -8  -3   3   27.91    2.79
   7   3  -3   32.33    1.93
   7   3  -3   33.53    2.08
  -7  -3   3   32.92    1.93
  -7  -3   3   31.60    2.53
   6   3  -3    0.00    0.66
   6   3  -3    0.38    0.58
  -6  -3   3   -0.13    1.03
  -6  -3   3   -0.16    0.58
   5   3  -3   55.25    2.57
   5   3  -3   63.12    2.43
  -5  -3   3   62.92    2.95
  -5  -3   3   61.13    2.49
   4   3  -3  127.23    4.60
   4   3  -3  135.52    4.51
  -4  -3   3  135.77    4.57
  -4  -3   3  135.56    4.38
   3   3  -3    1.80    0.40
   3   3  -3    1.83    0.48
  -3  -3   3    1.76    0.49
  -3  -3   3    2.10    0.45
   2   3  -3  143.16    4.42
   2   3  -3  142.29    4.34
  -2  -3   3  142.47    4.44
   1   3  -3  262.59    7.67
   1   3  -3  248.01    7.74
  -1  -3   3  280.13    7.69
   0   3  -3    2.56    0.31
   0   3  -3    2.23    0.40
   0  -3   3    2.70    0.33
   0  -3   3    2.13    0.41
   1  -3   3   44.34    1.52
  -2   3  -3  237.65    6.95
   2  -3   3  243.29    7.06
   2  -3   3  235.77    6.96
  -3   3  -3    3.46    0.45
  -3   3  -3    2.86    0.47
   3  -3   3    4.18    0.58
   3  -3   3    3.22    0.53
  -4   3  -3  214.03    6.42
  -4   3  -3  219.06    6.51
   4  -3   3  212.32    6.44
   4  -3   3  211.85    6.58
  -5   3  -3  148.89    4.67
  -5   3  -3  142.32    4.57
   5  -3   3  144.68    4.82
   5  -3   3  140.81    4.67
  -6   3  -3    3.48    0.61
   6  -3   3    4.51    1.03
   6  -3   3    3.57    0.72
  -7   3  -3   40.34    2.10
  -7   3  -3   41.48    1.97
   7  -3   3   39.28    2.04
   7  -3   3   41.89    2.48
  -8   3  -3   57.18    2.89
  -8   3  -3   59.19    2.63
   8  -3   3   61.72    2.96
   8  -3   3   60.13    2.93
  -9   3  -3    7.13    1.08
   9   2  -3   37.12    2.31
  -9  -2   3   31.36    2.28
   8   2  -3    9.41    1.47
  -8  -2   3    9.35    1.41
  -8  -2   3    6.16    1.48
   7   2  -3   21.99    1.51
   7   2  -3   21.37    2.09
  -7  -2   3   20.63    1.63
  -7  -2   3   20.04    2.17
   6   2  -3  105.56    4.07
   6   2  -3  108.26    3.76
  -6  -2   3  107.00    4.33
  -6  -2   3  104.57    4.06
   5   2  -3   33.59    2.06
   5   2  -3   43.20    1.83
  -5  -2   3   42.37    2.47
  -5  -2   3   41.25    1.88
   4   2  -3   68.37    2.76
   4   2  -3   73.25    2.52
  -4  -2   3   70.50    2.91
  -4  -2   3   70.28    2.55
   3   2  -3  303.35    8.81
   3   2  -3  294.32    8.98
  -3  -2   3  297.54    9.00
  -3  -2   3  299.24    8.82
   2   2  -3  408.99   12.18
   2   2  -3  422.67   12.08
  -2  -2   3  414.59   12.20
  -2  -2   3  426.53   12.09
   1   2  -3   33.21    1.24
   1   2  -3   33.75    1.16
   0   2  -3  307.84    8.76
   0  -2   3  299.15    8.76
   0  -2   3  300.76    8.72
   1  -2   3  117.73    3.55
   1  -2   3  121.40    3.57
  -2   2  -3   85.18    2.65
   2  -2   3   86.26    2.65
   2  -2   3   84.73    2.66
  -3   2  -3  382.14   10.98
  -3   2  -3  376.72   10.96
   3  -2   3  369.20   11.00
   3  -2   3  382.95   10.99
  -4   2  -3   76.49    2.53
  -4   2  -3   74.90    2.56
   4  -2   3   70.93    2.56
   4  -2   3   77.11    2.70
  -5   2  -3    2.55    0.52
  -5   2  -3    2.91    0.51
   5  -2   3    2.85    0.59
   5  -2   3    3.09    0.91
  -6   2  -3  114.18    4.04
  -6   2  -3  116.44    3.98
   6  -2   3  117.09    4.26
   6  -2   3  118.88    4.08
  -7   2  -3   24.64    1.62
  -7   2  -3   24.91    1.57
   7  -2   3   24.87    1.75
   7  -2   3   26.18    1.80
  -8   2  -3   10.51    1.73
  -8   2  -3   14.08    1.45
   8  -2   3   13.92    1.55
   9   1  -3    2.04    0.90
  -9  -1   3   -0.57    0.74
   8   1  -3   49.19    2.43
   8   1  -3   56.17    2.71
  -8  -1   3   48.88    3.08
  -8  -1   3   50.65    2.46
   7   1  -3   79.25    3.04
   7   1  -3   78.22    3.36
  -7  -1   3   78.48    3.09
  -7  -1   3   79.61    3.64
   6   1  -3   -0.08    0.79
   6   1  -3    0.50    0.52
  -6  -1   3    0.58    0.92
  -6  -1   3    0.74    0.59
   5   1  -3  174.23    5.81
   5   1  -3  165.04    5.44
  -5  -1   3  172.11    6.42
  -5  -1   3  173.22    5.44
   4   1  -3  245.58    7.44
   4   1  -3  224.91    7.75
  -4  -1   3  264.79    8.04
  -4  -1   3  257.62    7.49
   3   1  -3   16.05    1.24
  -3  -1   3   19.95    0.95
   2   1  -3  453.76   13.02
   2   1  -3  464.75   13.24
  -2  -1   3  432.96   13.46
  -2  -1   3  459.94   13.02
   1   1  -3  383.49   11.34
   1   1  -3  393.09   11.27
  -1  -1   3  407.38   11.27
  -1  -1   3  386.49   11.36
   0   1  -3   14.69    0.60
   0  -1   3   14.01    0.62
  -1   1  -3  481.79   13.82
   1  -1   3  473.37   13.83
   1  -1   3  494.08   13.91
  -2   1  -3  244.16    7.15
   2  -1   3  240.91    7.06
   2  -1   3  246.28    7.15
  -3   1  -3    8.65    0.53
  -3   1  -3    8.73    0.71
   3  -1   3    8.53    0.73
   3  -1   3   10.41    0.84
  -4   1  -3  150.01    4.66
  -4   1  -3  142.27    4.59
   4  -1   3  151.75    4.82
   4  -1   3  147.90    4.67
  -5   1  -3  137.76    4.58
  -5   1  -3  141.86    4.50
   5  -1   3  138.21    4.63
   5  -1   3  148.13    4.71
  -6   1  -3   17.51    1.29
  -6   1  -3   16.42    1.19
   6  -1   3   19.26    1.45
   6  -1   3   18.72    1.49
  -7   1  -3   29.65    1.75
  -7   1  -3   26.68    1.69
   7  -1   3   29.70    1.95
   7  -1   3   31.81    1.77
  -8   1  -3   24.98    1.80
  -8   1  -3   23.97    1.99
   8  -1   3   27.89    1.72
   9   0  -3   53.72    2.82
  -9   0   3   52.82    2.60
   8   0  -3    8.96    1.29
   8   0  -3   11.25    1.64
  -8   0   3    9.06    1.33
  -8   0   3    8.97    1.52
   7   0  -3    7.71    1.11
   7   0  -3    8.35    1.54
  -7   0   3    8.52    1.21
  -7   0   3    9.54    1.72
   6   0  -3   63.57    2.43
   6   0  -3   63.40    2.95
  -6   0   3   58.43    2.46
  -6   0   3   62.38    3.06
   5   0  -3   45.55    1.90
   5   0  -3   50.93    2.51
  -5   0   3   54.32    3.65
  -5   0   3   48.60    2.02
   4   0  -3   22.83    1.66
   4   0  -3   21.86    1.06
  -4   0   3   25.55    1.74
  -4   0   3   21.63    1.13
   3   0  -3  366.12   10.83
   3   0  -3  365.90   11.24
  -3   0   3  389.15   11.37
  -3   0   3  374.02   10.85
   2   0  -3    8.09    0.48
   2   0  -3    8.47    1.07
  -2   0   3    7.94    0.51
  -2   0   3    8.83    1.22
   1   0  -3  177.77    5.11
   1   0  -3  175.36    5.29
  -1   0   3  180.33    5.12
  -1   0   3  167.14    5.42
   0   0  -3  240.26    6.57
   0   0   3  240.38    6.62
   0   0   3  202.89    6.67
  -1   0  -3  294.30    8.56
   1   0   3  296.72    8.68
   2   0   3   48.98    1.72
  -3   0  -3  309.08    9.09
  -3   0  -3  312.75    8.90
   3   0   3  320.32    9.12
   3   0   3  289.98    8.95
  -4   0  -3   69.47    2.47
  -4   0  -3   69.54    2.29
   4   0   3   69.06    2.53
   4   0   3   64.18    2.37
  -5   0  -3   10.38    1.10
  -5   0  -3   11.44    0.89
   5   0   3   10.56    1.05
   5   0   3   12.18    1.27
  -6   0  -3   95.45    3.47
  -6   0  -3   95.44    3.31
   6   0   3   94.18    3.56
   6   0   3   93.25    3.28
  -7   0  -3   34.95    1.94
  -7   0  -3   34.84    1.93
   7   0   3   34.68    2.62
   7   0   3   35.98    1.76
  -8   0  -3    2.03    0.98
  -8   0  -3    3.81    0.88
   9  -1  -3   10.14    1.73
  -9   1   3    6.29    0.99
   8  -1  -3   41.08    2.53
   8  -1  -3   43.22    2.05
  -8   1   3   40.08    2.06
  -8   1   3   38.50    2.72
   7  -1  -3   36.34    2.35
   7  -1  -3   34.29    1.77
  -7   1   3   37.39    1.87
  -7   1   3   39.40    2.47
   6  -1  -3   32.65    1.54
   6  -1  -3   30.67    2.25
  -6   1   3   35.39    2.28
  -6   1   3   30.88    1.65
   5  -1  -3  219.90    7.18
   5  -1  -3  216.94    6.54
  -5   1   3  215.78    6.60
  -5   1   3  209.99    7.25
   4  -1  -3   64.09    2.15
   4  -1  -3   67.09    2.88
  -4   1   3   62.88    2.20
  -4   1   3   59.38    3.05
   3  -1  -3    3.30    0.49
   3  -1  -3    2.87    0.84
  -3   1   3    3.20    0.48
  -3   1   3    2.41    0.70
   2  -1  -3  260.24    7.49
   2  -1  -3  257.56    7.95
  -2   1   3  271.86    7.49
  -2   1   3  244.47    7.92
   1  -1  -3   70.84    2.59
  -1   1   3   72.05    2.24
  -1   1   3   77.41    2.45
   0  -1  -3   12.89    0.82
   0  -1  -3   10.63    0.57
   0   1   3   12.73    0.51
   0   1   3   10.62    0.58
  -1  -1  -3  228.12    6.60
   1   1   3  221.82    6.60
  -2  -1  -3  255.23    7.65
   2   1   3  263.12    7.67
   3   1   3   16.49    1.07
  -4  -1  -3   34.51    1.62
  -4  -1  -3   35.19    1.37
   4   1   3   32.11    1.28
   4   1   3   34.41    1.68
  -5  -1  -3   82.48    2.80
   5   1   3   77.62    2.70
   5   1   3   83.69    3.12
  -6  -1  -3   -0.74    0.47
  -6  -1  -3    0.20    0.58
   6   1   3    0.53    0.44
   6   1   3    0.02    0.73
  -7  -1  -3   61.32    2.60
  -7  -1  -3   63.68    2.79
   7   1   3   65.99    2.44
  -8  -1  -3   31.96    2.17
   8   1   3   35.98    1.86
   9  -2  -3   26.27    2.26
   9  -2  -3   22.51    1.65
  -9   2   3   23.39    1.75
   8  -2  -3    3.85    1.11
   8  -2  -3    3.12    0.65
  -8   2   3    1.80    1.11
  -8   2   3    3.78    0.75
   7  -2  -3   34.39    1.65
   7  -2  -3   33.78    2.40
  -7   2   3   32.91    1.72
  -7   2   3   32.99    2.35
   6  -2  -3  266.01    8.59
   6  -2  -3  291.78    9.24
  -6   2   3  270.45    9.10
  -6   2   3  289.63    8.48
   5  -2  -3    9.78    1.83
   5  -2  -3    8.48    0.73
  -5   2   3    9.47    1.41
  -5   2   3    8.02    0.89
   4  -2  -3   19.75    1.73
   4  -2  -3   18.39    0.86
  -4   2   3   19.45    0.97
  -4   2   3   18.52    1.46
   3  -2  -3  307.20    9.20
   3  -2  -3  314.02    9.70
  -3   2   3  326.67    9.22
  -3   2   3  325.98    9.68
   2  -2  -3  387.79   11.77
  -2   2   3  408.15   11.72
  -2   2   3  400.42   11.42
   1  -2  -3  215.69    6.27
  -1   2   3  204.28    6.04
  -1   2   3  205.77    6.16
   0  -2  -3  369.13   10.54
   0  -2  -3  367.19   10.56
   0   2   3  368.31   10.51
   0   2   3  360.08   10.54
  -1  -2  -3  141.38    4.27
   1   2   3  141.14    4.29
  -2  -2  -3  138.38    4.24
   2   2   3  134.34    4.25
  -3  -2  -3  210.38    6.29
   3   2   3  199.97    6.52
  -4  -2  -3   44.42    1.68
  -4  -2  -3   42.51    1.89
   4   2   3   42.13    1.97
   4   2   3   42.67    1.48
  -5  -2  -3   26.11    1.32
  -5  -2  -3   25.49    1.53
   5   2   3   25.07    1.72
   5   2   3   25.10    1.11
  -6  -2  -3   75.20    3.08
  -6  -2  -3   79.36    2.81
   6   2   3   75.67    3.18
   6   2   3   76.77    2.63
  -7  -2  -3    6.91    0.96
  -7  -2  -3    9.32    1.40
   7   2   3   10.52    0.91
   9  -3  -3    3.58    1.23
   9  -3  -3    3.21    0.73
  -9   3   3    4.16    0.82
   8  -3  -3   26.09    2.40
   8  -3  -3   24.73    1.46
  -8   3   3   25.74    2.32
   7  -3  -3   60.59    3.35
   7  -3  -3   61.00    2.30
  -7   3   3   62.09    2.41
  -7   3   3   58.56    3.10
   6  -3  -3    1.45    1.16
   6  -3  -3    2.49    0.46
  -6   3   3    2.39    0.91
  -6   3   3    1.26    0.52
   5  -3  -3  236.07    7.93
   5  -3  -3  252.16    7.14
  -5   3   3  243.60    7.19
  -5   3   3  228.89    7.78
   4  -3  -3  128.03    4.50
   4  -3  -3  119.68    4.05
  -4   3   3  127.64    3.88
  -4   3   3  131.57    4.43
   3  -3  -3    6.22    0.41
   3  -3  -3    7.43    1.04
  -3   3   3    7.39    0.47
  -3   3   3    7.08    0.81
   2  -3  -3  467.51   13.84
  -2   3   3  473.93   13.48
  -2   3   3  474.58   13.76
   1  -3  -3   99.55    3.15
  -1   3   3   97.02    3.06
  -1   3   3   96.52    2.94
   0  -3  -3   28.01    1.07
   0  -3  -3   29.31    1.12
   0   3   3   29.28    1.11
  -1  -3  -3  181.97    5.38
  -1  -3  -3  187.72    5.53
  -1  -3  -3  184.88    5.40
   1   3   3  184.12    5.56
  -2  -3  -3  266.16    7.89
  -2  -3  -3  251.00    7.59
   2   3   3  270.64    7.87
  -3  -3  -3   11.87    1.03
  -3  -3  -3   12.85    1.02
   3   3   3   10.63    1.08
  -4  -3  -3  126.45    4.08
  -4  -3  -3  128.75    4.32
   4   3   3  125.88    3.87
   4   3   3  131.68    4.42
  -5  -3  -3   57.45    2.48
  -5  -3  -3   58.94    2.23
   5   3   3   58.56    2.61
   5   3   3   56.27    1.97
  -6  -3  -3   -0.28    0.57
  -6  -3  -3   -0.56    0.58
   6   3   3    0.30    0.35
  -7  -3  -3   15.68    1.66
   7   3   3   14.28    1.11
   9  -4  -3   32.09    1.78
   9  -4  -3   31.13    2.84
  -9   4   3   34.05    1.89
   8  -4  -3    1.97    0.58
   8  -4  -3    1.87    1.32
  -8   4   3    1.98    0.64
  -8   4   3    2.59    1.68
   7  -4  -3   37.43    2.91
   7  -4  -3   36.61    1.69
  -7   4   3   39.40    1.72
  -7   4   3   36.12    2.44
   6  -4  -3  111.02    6.41
   6  -4  -3  123.13    3.81
  -6   4   3  126.57    3.89
  -6   4   3  117.52    4.60
   5  -4  -3    0.74    0.25
   5  -4  -3    1.05    0.83
  -5   4   3    0.18    0.55
  -5   4   3    0.13    0.36
   4  -4  -3  108.43    3.19
   4  -4  -3  106.43    3.89
  -4   4   3   97.34    4.58
  -4   4   3  107.27    3.23
   3  -4  -3  183.16    5.90
  -3   4   3  183.58    5.34
  -3   4   3  183.45    5.78
   2  -4  -3   20.30    1.20
  -2   4   3   19.14    0.72
  -2   4   3   19.21    0.99
  -2   4   3   18.76    0.72
   1  -4  -3  180.52    5.42
  -1   4   3  176.59    5.35
  -1   4   3  172.45    5.18
   0  -4  -3  146.84    4.41
   0  -4  -3  143.41    4.33
   0   4   3  141.63    4.36
  -1  -4  -3   39.84    1.39
  -1  -4  -3   40.28    1.43
  -1  -4  -3   41.20    1.54
   1   4   3   41.06    1.61
  -2  -4  -3   29.27    1.15
  -2  -4  -3   30.75    1.40
  -2  -4  -3   31.02    1.13
   2   4   3   29.43    1.77
  -3  -4  -3   93.64    3.05
  -3  -4  -3   94.40    3.27
   3   4   3   94.58    3.37
  -4  -4  -3   28.25    1.59
  -4  -4  -3   30.04    1.55
   4   4   3   29.16    1.79
  -5  -4  -3   28.56    1.71
  -5  -4  -3   26.90    1.52
   5   4   3   26.35    1.96
  -6  -4  -3   73.56    3.10
  -6  -4  -3   73.56    2.78
   6   4   3   76.49    2.51
   9  -5  -3    4.23    1.68
   9  -5  -3    4.68    0.73
  -9   5   3    5.68    0.86
   8  -5  -3   94.72    3.26
   8  -5  -3   92.82    4.67
  -8   5   3   96.97    3.34
   7  -5  -3   58.30    3.42
   7  -5  -3   59.32    2.11
  -7   5   3   59.93    2.22
  -7   5   3   55.48    3.06
   6  -5  -3   16.41    0.86
  -6   5   3   17.89    1.65
  -6   5   3   15.61    1.01
   5  -5  -3   78.78    2.48
   5  -5  -3   75.78    3.36
  -5   5   3   77.46    3.15
  -5   5   3   75.41    2.49
   4  -5  -3   47.99    2.38
  -4   5   3   45.75    1.57
  -4   5   3   49.58    2.13
   3  -5  -3    9.85    1.19
  -3   5   3   10.76    0.47
  -3   5   3    9.02    0.45
  -3   5   3    9.50    0.84
   2  -5  -3  175.08    5.50
  -2   5   3  172.89    5.39
  -2   5   3  171.97    5.03
  -2   5   3  171.13    5.04
   1  -5  -3  109.12    3.57
  -1   5   3  107.38    3.32
   0  -5  -3    8.76    0.72
   0  -5  -3    8.51    0.64
   0   5   3    9.44    0.79
  -1  -5  -3  196.53    5.97
  -1  -5  -3  188.08    5.80
  -1  -5  -3  193.65    5.86
   1   5   3  201.07    5.99
  -2  -5  -3   28.14    1.37
  -2  -5  -3   27.74    1.15
   2   5   3   27.36    1.54
  -3  -5  -3    8.97    1.02
   3   5   3   10.48    1.31
  -4  -5  -3   73.95    2.88
  -4  -5  -3   73.17    2.82
   4   5   3   77.99    3.10
  -5  -5  -3   84.91    3.17
  -5  -5  -3   91.49    3.44
  -6  -5  -3    2.18    0.79
   9  -6  -3   15.50    3.13
  -9   6   3   20.19    1.53
   8  -6  -3    0.28    1.43
  -8   6   3    1.20    0.53
   7  -6  -3   52.07    1.74
   7  -6  -3   46.60    3.07
  -7   6   3   40.12    2.65
  -7   6   3   47.36    1.81
   6  -6  -3   53.55    2.95
   6  -6  -3   49.44    1.85
  -6   6   3   56.99    2.73
  -6   6   3   54.59    1.84
  -5   6   3   21.81    0.88
  -5   6   3   23.68    1.58
   4  -6  -3   85.27    3.40
  -4   6   3   81.57    3.14
   3  -6  -3  273.15    8.47
  -3   6   3  263.97    8.30
  -3   6   3  275.39    7.74
   2  -6  -3    1.71    0.58
  -2   6   3    2.14    0.30
  -2   6   3    1.95    0.31
   1  -6  -3   84.14    2.98
  -1   6   3   85.31    2.74
   0  -6  -3  430.11   12.61
   0  -6  -3  420.27   12.51
   0  -6  -3  425.96   12.42
   0   6   3  439.16   12.54
  -1  -6  -3  170.42    5.27
  -1  -6  -3  175.38    5.33
  -1  -6  -3  174.54    5.35
   1   6   3  173.60    5.48
  -2  -6  -3   88.58    3.07
  -2  -6  -3   88.52    2.95
  -2  -6  -3   87.83    2.92
   2   6   3   92.10    3.30
  -3  -6  -3  116.44    3.71
  -3  -6  -3  116.74    3.76
  -3  -6  -3  117.11    3.99
   3   6   3  115.50    4.16
  -4  -6  -3   26.06    1.58
  -4  -6  -3   23.05    1.60
   4   6   3   25.48    2.02
  -5  -6  -3   14.26    1.49
  -5  -6  -3   13.68    2.32
   8  -7  -3   44.92    3.47
  -8   7   3   44.45    1.76
   7  -7  -3   16.46    2.27
  -7   7   3   18.23    0.87
   6  -7  -3   13.69    1.89
  -6   7   3   12.95    1.54
   5  -7  -3  120.54    4.72
  -5   7   3  125.94    4.50
   4  -7  -3  111.16    4.23
  -4   7   3  111.55    3.99
   3  -7  -3   64.82    2.74
  -3   7   3   63.07    2.50
   2  -7  -3  158.93    5.17
  -2   7   3  154.86    4.54
  -2   7   3  151.33    4.62
   1  -7  -3   33.02    1.63
  -1   7   3   31.89    1.41
   0  -7  -3    3.41    0.65
   0  -7  -3    2.11    0.39
   0  -7  -3    3.88    0.79
   0   7   3    2.73    0.60
  -1  -7  -3  117.93    3.85
  -1  -7  -3  112.62    3.73
  -1  -7  -3  117.55    3.76
   1   7   3  117.27    3.98
  -2  -7  -3   33.48    1.51
  -2  -7  -3   34.84    1.61
  -2  -7  -3   33.38    1.47
   2   7   3   33.86    1.93
  -3  -7  -3   16.10    1.25
  -3  -7  -3   17.66    1.17
  -3  -7  -3   15.54    1.24
   3   7   3   14.28    1.69
  -4  -7  -3   44.40    2.16
  -4  -7  -3   43.88    1.80
  -4  -7  -3   42.58    2.13
  -5  -7  -3   30.41    2.01
   8  -8  -3   -1.22    1.42
   7  -8  -3   73.83    3.89
   6  -8  -3   62.40    3.33
  -6   8   3   63.73    3.06
   5  -8  -3    0.50    0.88
  -5   8   3    0.81    0.62
   4  -8  -3   91.95    3.74
  -4   8   3   91.26    3.46
   3  -8  -3  175.25    5.96
   2  -8  -3   12.30    1.24
  -2   8   3   10.72    0.70
  -2   8   3   11.52    0.54
   1  -8  -3   63.10    2.55
   1  -8  -3   65.38    2.46
  -1   8   3   59.31    2.25
   0  -8  -3   75.62    2.49
   0  -8  -3   72.69    2.67
   0  -8  -3   74.88    2.81
   0   8   3   72.26    2.75
  -1  -8  -3    1.90    0.59
  -1  -8  -3    2.70    0.48
  -1  -8  -3    2.56    0.69
   1   8   3    2.26    0.73
  -2  -8  -3   51.11    2.06
  -2  -8  -3   49.08    2.08
  -2  -8  -3   51.76    2.10
   2   8   3   51.37    2.54
  -3  -8  -3   69.53    2.61
  -3  -8  -3   66.38    2.70
  -3  -8  -3   67.45    2.55
   3   8   3   66.83    3.23
  -4  -8  -3    9.25    1.32
   7  -9  -3    9.73    1.73
   6  -9  -3   20.72    2.33
   5  -9  -3   64.88    3.28
  -5   9   3   64.27    2.88
   4  -9  -3   23.74    1.97
   3  -9  -3   21.72    1.74
   2  -9  -3   76.17    3.58
  -2   9   3   82.85    2.38
  -2   9   3   76.53    2.41
   1  -9  -3   55.79    2.46
   1  -9  -3   57.89    2.36
  -1   9   3   51.62    2.06
   0  -9  -3   14.90    1.21
   0  -9  -3   12.90    1.25
   0  -9  -3   13.96    0.88
   0   9   3   11.45    1.86
  -1  -9  -3   91.34    3.10
  -1  -9  -3   89.84    3.33
  -1  -9  -3   88.51    3.21
   1   9   3   90.43    3.56
  -2  -9  -3   40.34    1.84
  -2  -9  -3   39.84    1.93
  -2  -9  -3   42.61    1.94
   2   9   3   34.51    2.45
  -3  -9  -3    4.44    0.75
  -3  -9  -3    4.39    0.81
   7 -10  -3   20.79    2.97
   6 -10  -3   53.37    3.37
   5 -10  -3   -0.45    0.99
   4 -10  -3   66.70    3.26
   3 -10  -3   79.09    3.44
   2 -10  -3    3.61    0.88
   2 -10  -3    3.54    0.91
   1 -10  -3   41.15    2.20
   1 -10  -3   41.42    2.10
  -1  10   3   38.44    1.68
   0 -10  -3  111.55    3.53
   0 -10  -3  113.31    4.09
   0 -10  -3  108.78    3.92
   0  10   3  103.65    3.85
  -1 -10  -3    7.95    1.26
  -1 -10  -3    5.47    0.79
   1  10   3    3.77    1.12
  -2 -10  -3   17.25    1.62
   2  10   3   14.10    1.66
   5 -11  -3   56.11    3.35
   4 -11  -3   10.23    1.94
   3 -11  -3   25.07    2.16
   2 -11  -3   86.16    3.56
   2 -11  -3   87.31    3.73
   1 -11  -3   11.13    1.55
   1 -11  -3    8.66    1.55
   0 -11  -3   51.83    2.70
   0 -11  -3   56.27    2.55
   2 -14   4   49.05    2.97
  -1 -13   4   29.51    2.03
   0 -13   4   13.07    1.49
   0 -13   4   12.37    1.07
   1 -13   4   95.43    3.05
   1 -13   4   94.37    3.95
   2 -13   4   40.41    2.39
   3 -13   4    2.94    0.93
   4 -13   4   77.37    3.62
   5 -13   4   57.00    3.26
   3  12  -4   45.68    2.76
  -3 -12   4   50.23    2.46
   2  12  -4    1.05    0.78
  -2 -12   4    2.00    0.72
   1  12  -4   44.53    1.97
  -1 -12   4   43.39    2.02
   0  12  -4   61.74    2.25
   0 -12   4   63.43    2.85
   0 -12   4   63.42    2.38
   1 -12   4   -0.10    0.40
   1 -12   4    0.46    0.62
   2 -12   4   70.96    3.14
   2 -12   4   71.07    2.25
   2 -12   4   72.29    2.19
   3 -12   4   81.59    3.49
   4 -12   4    0.00    0.72
   5 -12   4   68.38    3.31
   6 -12   4   63.54    3.38
  -4 -11   4    5.48    0.99
   3  11  -4   36.01    2.23
  -3 -11   4   35.05    2.02
   2  11  -4  103.24    3.68
  -2 -11   4  107.56    3.76
  -2 -11   4   99.24    3.94
   1  11  -4   18.44    1.20
  -1 -11   4   20.30    1.57
  -1 -11   4   17.15    1.32
   0  11  -4   32.25    1.36
   0 -11   4   30.88    1.55
   0 -11   4   33.14    1.90
   1 -11   4  153.63    5.42
   1 -11   4  155.57    5.39
   1 -11   4  157.93    4.82
   2 -11   4   35.82    1.38
   2 -11   4   38.92    2.06
   2 -11   4   35.70    1.99
   3 -11   4   45.95    2.33
   3 -11   4   44.63    2.27
   4 -11   4  114.05    4.37
   4 -11   4  114.43    4.34
   5 -11   4   14.76    1.61
   6 -11   4   12.15    1.74
   7 -11   4   48.07    3.09
   5  10  -4    0.04    0.71
  -5 -10   4   -1.17    0.78
   4  10  -4   33.96    1.96
   4  10  -4   28.41    2.15
  -4 -10   4   33.52    2.03
  -4 -10   4   36.88    2.35
   3  10  -4   56.91    2.58
  -3 -10   4   58.70    2.60
  -3 -10   4   62.80    2.77
   2  10  -4    0.18    0.53
  -2 -10   4    0.36    0.58
  -2 -10   4    0.37    0.59
   1  10  -4  151.80    4.70
  -1 -10   4  147.35    4.82
  -1 -10   4  146.07    5.04
   0  10  -4   67.26    2.30
   0 -10   4   68.15    2.49
   0 -10   4   68.67    2.79
   1 -10   4    5.40    0.99
   1 -10   4    6.08    0.81
   1 -10   4    5.57    0.92
   2 -10   4  172.15    5.70
   2 -10   4  170.17    5.73
   2 -10   4  165.77    5.07
   3 -10   4  148.98    5.13
   3 -10   4  145.82    4.40
   3 -10   4  151.54    4.36
   3 -10   4  147.49    5.15
   4 -10   4    0.89    0.33
   4 -10   4    0.82    0.25
   4 -10   4    0.91    0.61
   5 -10   4   99.13    3.95
   5 -10   4  103.18    3.08
   5 -10   4   98.71    3.03
   6 -10   4   73.35    2.37
   6 -10   4   74.40    2.45
   6 -10   4   76.35    3.41
   7 -10   4    0.21    0.34
   7 -10   4   -1.55    0.92
   6   9  -4   31.72    2.09
  -6  -9   4   29.25    2.21
   5   9  -4   58.67    2.74
  -5  -9   4   57.75    2.80
  -5  -9   4   63.54    3.31
   4   9  -4    0.75    0.57
   4   9  -4    0.84    0.78
  -4  -9   4    0.30    0.65
  -4  -9   4    0.69    0.80
   3   9  -4   46.91    2.19
   3   9  -4   48.24    2.21
  -3  -9   4   50.18    2.32
  -3  -9   4   45.74    2.23
   2   9  -4  168.54    5.37
  -2  -9   4  169.75    5.61
  -2  -9   4  170.01    5.48
   1   9  -4   20.58    1.11
  -1  -9   4   22.26    1.35
  -1  -9   4   20.66    1.38
   0   9  -4   80.96    2.66
   0  -9   4   83.52    2.83
   0  -9   4   81.22    3.08
   1  -9   4  179.27    5.30
   1  -9   4  169.95    5.69
   2  -9   4  139.99    4.22
   2  -9   4  138.95    4.77
   2  -9   4  139.80    4.75
   3  -9   4    0.62    0.25
   3  -9   4    0.59    0.25
   3  -9   4    0.98    0.53
   4  -9   4   37.02    1.29
   4  -9   4   36.78    1.94
   5  -9   4   27.06    1.78
   5  -9   4   27.24    1.09
   5  -9   4   29.31    1.19
   6  -9   4    9.90    0.92
   6  -9   4   10.92    1.50
   7  -9   4   38.24    2.40
   7  -9   4   52.78    2.85
   8  -9   4    9.33    1.65
   6   8  -4   29.63    1.95
  -6  -8   4   27.44    2.08
   5   8  -4    0.68    0.81
   5   8  -4    1.43    0.63
  -5  -8   4    3.23    1.06
  -5  -8   4    1.40    0.79
   4   8  -4  133.19    4.76
   4   8  -4  136.32    4.68
  -4  -8   4  141.23    4.85
  -4  -8   4  134.45    4.72
   3   8  -4   55.60    2.41
   3   8  -4   56.28    2.33
  -3  -8   4   56.15    2.40
  -3  -8   4   55.70    2.43
   2   8  -4   -0.17    0.40
   2   8  -4    0.35    0.44
  -2  -8   4    0.36    0.56
  -2  -8   4    0.10    0.54
   1   8  -4   94.18    3.05
  -1  -8   4   92.64    3.18
  -1  -8   4   92.62    3.31
   0   8  -4   98.01    3.04
   0  -8   4   94.73    3.13
   0  -8   4   95.78    3.39
   1  -8   4    5.92    0.81
   1  -8   4    6.01    0.60
   2  -8   4  304.37    9.43
   2  -8   4  306.05    8.95
   2  -8   4  313.70    9.42
   3  -8   4  116.92    4.05
   3  -8   4  115.11    3.54
   3  -8   4  117.46    3.53
   4  -8   4   21.15    1.42
   4  -8   4   21.38    0.96
   4  -8   4   21.75    0.90
   5  -8   4  120.10    3.77
   5  -8   4  120.67    4.36
   6  -8   4  130.82    4.13
   6  -8   4  125.90    4.72
   7  -8   4    0.17    0.94
   7  -8   4   -0.79    0.55
   8  -8   4   40.26    2.88
   8  -8   4   38.64    2.06
   7   7  -4    1.15    0.78
  -7  -7   4   -0.58    0.89
   6   7  -4   18.31    1.57
  -6  -7   4   17.92    1.66
  -6  -7   4   18.50    2.37
   5   7  -4   82.77    3.33
   5   7  -4   84.77    3.36
  -5  -7   4   85.79    3.60
  -5  -7   4   86.76    3.39
   4   7  -4   11.75    1.24
   4   7  -4   12.39    1.14
  -4  -7   4   11.58    1.34
  -4  -7   4   13.15    1.39
   3   7  -4   82.15    3.05
   3   7  -4   81.00    2.97
  -3  -7   4   83.48    3.08
  -3  -7   4   82.01    3.11
   2   7  -4  162.76    5.23
   2   7  -4  153.63    5.05
  -2  -7   4  163.74    5.15
  -2  -7   4  166.82    5.26
   1   7  -4   88.18    3.07
   1   7  -4   86.46    2.82
  -1  -7   4   87.68    2.92
  -1  -7   4   83.99    3.04
   0   7  -4   97.85    3.04
   0  -7   4   96.26    3.10
   1  -7   4  240.98    7.94
   1  -7   4  261.66    7.38
   2  -7   4   46.83    1.54
   2  -7   4   44.86    2.15
   2  -7   4   45.19    1.89
   2  -7   4   44.05    1.51
   3  -7   4  107.61    3.68
   3  -7   4  104.78    3.25
   3  -7   4  106.68    3.25
   4  -7   4  182.17    5.51
   4  -7   4  186.88    5.97
   5  -7   4   34.02    1.87
   5  -7   4   34.33    1.45
   6  -7   4   43.47    2.34
   6  -7   4   43.71    1.86
  -7   7  -4   76.02    2.73
   7  -7   4   73.38    3.43
   7  -7   4   72.90    2.82
  -8   7  -4    4.51    0.74
   8  -7   4    2.48    0.83
   8  -7   4    0.98    1.19
   7   6  -4   62.01    3.05
  -7  -6   4   74.10    5.17
  -7  -6   4   62.86    3.02
   6   6  -4   40.54    2.22
   6   6  -4   44.87    2.33
  -6  -6   4   45.49    2.31
  -6  -6   4   43.14    2.88
   5   6  -4    0.47    0.69
   5   6  -4    1.51    0.65
  -5  -6   4    1.18    0.68
  -5  -6   4    1.78    0.90
   4   6  -4  146.52    4.87
   4   6  -4  147.83    4.95
  -4  -6   4  145.56    4.91
  -4  -6   4  148.47    5.05
   3   6  -4  102.83    3.59
   3   6  -4  104.89    3.50
  -3  -6   4  104.63    3.66
  -3  -6   4  101.78    3.57
   2   6  -4   45.02    1.76
   2   6  -4   46.11    1.89
  -2  -6   4   45.00    2.07
  -2  -6   4   48.08    1.88
   1   6  -4  348.53   10.01
   1   6  -4  348.34   10.22
  -1  -6   4  340.24   10.20
  -1  -6   4  332.44   10.04
   0   6  -4  138.73    4.17
   0  -6   4  138.47    4.41
   0  -6   4  137.21    4.20
   1  -6   4   23.87    1.18
   1  -6   4   26.00    0.98
   2  -6   4  131.57    4.26
   2  -6   4  132.60    4.25
   2  -6   4  134.80    3.97
   2  -6   4  127.95    3.94
   3  -6   4   78.82    2.81
   3  -6   4   79.08    2.51
   4  -6   4   18.10    1.20
   4  -6   4   16.44    0.93
  -5   6  -4  138.27    4.36
   5  -6   4  144.38    4.82
   5  -6   4  139.26    4.43
  -6   6  -4   81.43    2.88
   6  -6   4   86.10    3.43
   6  -6   4   84.41    2.98
  -7   6  -4   -0.04    0.76
  -7   6  -4    0.47    0.70
   7  -6   4   -0.53    0.81
   7  -6   4    0.51    0.68
  -8   6  -4   22.55    2.07
  -8   6  -4   21.87    1.50
   8  -6   4   17.06    2.28
   8  -6   4   15.00    1.63
   8   5  -4   18.39    1.79
  -8  -5   4   14.45    1.79
   7   5  -4    2.42    0.81
  -7  -5   4   -0.27    1.42
  -7  -5   4    1.99    0.77
   6   5  -4   45.72    2.43
   6   5  -4   49.38    2.30
  -6  -5   4   49.83    2.36
  -6  -5   4   46.26    2.92
   5   5  -4   56.58    2.54
   5   5  -4   58.05    2.44
  -5  -5   4   57.02    2.49
  -5  -5   4   59.69    2.81
   4   5  -4    4.45    0.72
   4   5  -4    4.17    0.63
  -4  -5   4    4.52    0.73
  -4  -5   4    4.74    0.86
   3   5  -4  158.10    5.08
   3   5  -4  163.58    5.11
  -3  -5   4  164.61    5.04
  -3  -5   4  145.34    5.33
   2   5  -4  209.11    6.18
   2   5  -4  199.08    6.28
  -2  -5   4  203.02    6.20
  -2  -5   4  205.40    6.31
   1   5  -4    0.66    0.33
   1   5  -4    1.22    0.27
  -1  -5   4    0.58    0.33
  -1  -5   4    0.99    0.33
   0   5  -4  126.74    3.84
   0   5  -4  127.52    4.03
   0  -5   4  127.81    3.86
   0  -5   4  126.50    4.03
   1  -5   4  245.16    7.39
   1  -5   4  247.76    7.20
   2  -5   4   26.66    1.02
   2  -5   4   27.45    1.21
   3  -5   4  119.27    3.80
   3  -5   4  113.53    3.57
  -4   5  -4  109.93    3.56
   4  -5   4  115.48    3.61
   4  -5   4  116.55    3.85
  -5   5  -4   27.48    1.28
   5  -5   4   25.88    2.08
   5  -5   4   28.36    1.65
  -6   5  -4   25.43    1.35
  -6   5  -4   26.42    1.54
   6  -5   4   26.03    1.83
   6  -5   4   25.84    1.49
  -7   5  -4   89.13    3.24
  -7   5  -4   87.47    3.48
   7  -5   4   89.48    4.00
   7  -5   4   89.93    3.34
  -8   5  -4   15.65    1.40
  -8   5  -4   13.24    1.74
   8  -5   4   11.97    2.23
   8  -5   4   10.30    1.18
   8   4  -4    9.48    1.53
  -8  -4   4    7.66    1.18
   7   4  -4   81.39    4.31
   7   4  -4   72.16    3.31
  -7  -4   4   76.69    4.00
  -7  -4   4   77.77    3.21
   6   4  -4   52.10    2.33
   6   4  -4   48.51    2.48
  -6  -4   4   52.20    2.41
  -6  -4   4   50.00    3.03
   5   4  -4   59.18    2.35
   5   4  -4   53.78    2.52
  -5  -4   4   54.13    2.42
  -5  -4   4   58.05    2.80
   4   4  -4   53.88    2.30
   4   4  -4   52.89    2.14
  -4  -4   4   53.07    2.40
  -4  -4   4   55.17    2.21
   3   4  -4   87.73    2.93
  -3  -4   4   85.58    2.96
  -3  -4   4   86.56    3.09
   2   4  -4    6.90    0.60
   2   4  -4    6.21    0.68
  -2  -4   4    6.03    0.75
  -2  -4   4    7.86    0.79
   1   4  -4  423.04   12.52
   1   4  -4  417.89   12.39
  -1  -4   4  438.13   12.55
  -1  -4   4  438.65   12.42
   0   4  -4  113.13    3.61
   0   4  -4  115.22    3.59
   0  -4   4  117.91    3.50
   0  -4   4  114.70    3.62
   1  -4   4   13.30    0.63
   1  -4   4   13.11    0.73
   2  -4   4  467.08   13.27
   2  -4   4  445.92   13.12
  -3   4  -4  340.98    9.92
   3  -4   4  343.06    9.93
   3  -4   4  339.35   10.07
  -4   4  -4    0.51    0.33
   4  -4   4    0.86    0.39
   4  -4   4    1.33    0.48
  -5   4  -4  127.13    4.17
  -5   4  -4  125.67    4.07
   5  -4   4  125.03    4.11
   5  -4   4  128.31    4.32
  -6   4  -4   77.88    2.93
  -6   4  -4   79.93    2.85
   6  -4   4   76.01    3.17
   6  -4   4   78.06    2.91
  -7   4  -4    9.27    1.28
  -7   4  -4    9.37    1.13
   7  -4   4    8.42    1.30
   7  -4   4    8.74    1.35
  -8   4  -4   49.44    2.37
  -8   4  -4   47.41    2.61
   8  -4   4   50.08    3.44
   8   3  -4   23.90    1.97
  -8  -3   4   21.10    1.84
   7   3  -4    2.81    0.86
   7   3  -4    3.10    0.79
  -7  -3   4    3.03    1.31
  -7  -3   4    2.94    0.78
   6   3  -4   93.82    3.33
   6   3  -4   83.19    3.69
  -6  -3   4   90.42    4.08
  -6  -3   4   91.20    3.40
   5   3  -4   80.19    3.38
   5   3  -4   90.65    3.15
  -5  -3   4   86.27    3.21
  -5  -3   4   91.66    3.72
   4   3  -4    2.82    0.67
  -4  -3   4    3.45    0.59
  -4  -3   4    4.47    0.88
   3   3  -4  107.57    3.47
   3   3  -4  107.51    3.63
  -3  -3   4  107.07    3.66
  -3  -3   4  109.13    3.50
   2   3  -4  761.40   21.76
   2   3  -4  769.35   21.64
  -2  -3   4  728.47   21.74
  -2  -3   4  761.39   21.65
   1   3  -4   32.80    1.21
   1   3  -4   31.43    1.28
  -1  -3   4   34.55    1.22
   0   3  -4  105.29    3.33
   0  -3   4  109.24    3.28
   0  -3   4  109.09    3.35
   1  -3   4  176.89    5.23
   1  -3   4  174.29    5.18
   2  -3   4   51.66    1.73
   2  -3   4   48.80    1.70
  -3   3  -4  151.38    4.63
   3  -3   4  153.02    4.64
   3  -3   4  152.66    4.67
  -4   3  -4  179.18    5.56
  -4   3  -4  182.54    5.57
   4  -3   4  182.34    5.60
   4  -3   4  185.07    5.66
  -5   3  -4    0.88    0.43
  -5   3  -4    0.20    0.35
   5  -3   4    0.36    0.53
   5  -3   4    1.14    0.68
  -6   3  -4   56.30    2.25
   6  -3   4   54.33    2.70
   6  -3   4   55.54    2.37
  -7   3  -4   62.86    2.64
  -7   3  -4   64.42    2.68
   7  -3   4   68.41    3.01
   7  -3   4   63.91    3.08
  -8   3  -4    5.63    0.87
  -8   3  -4    6.61    1.14
   8  -3   4    7.58    1.50
   9   2  -4   11.08    1.68
   8   2  -4    9.40    1.55
  -8  -2   4    6.25    0.98
  -8  -2   4    3.76    1.46
   7   2  -4   72.39    2.91
   7   2  -4   73.38    3.28
  -7  -2   4   76.58    3.64
  -7  -2   4   71.53    2.99
   6   2  -4   47.22    2.09
   6   2  -4   45.54    2.47
  -6  -2   4   44.75    2.39
  -6  -2   4   49.83    2.85
   5   2  -4   39.26    2.30
   5   2  -4   51.13    2.00
  -5  -2   4   51.53    2.75
  -5  -2   4   48.79    2.07
   4   2  -4  285.63    9.51
   4   2  -4  314.89    9.24
  -4  -2   4  330.71    9.30
   3   2  -4  293.57    8.57
   3   2  -4  288.82    8.81
  -3  -2   4  288.64    8.83
   2   2  -4   87.54    2.86
   2   2  -4   83.95    2.70
  -2  -2   4   87.06    2.71
  -2  -2   4   82.21    2.87
   1   2  -4  158.95    4.72
   1   2  -4  150.32    4.66
  -1  -2   4  156.84    4.61
  -1  -2   4  151.48    4.68
   0   2  -4   47.00    1.57
   0  -2   4   46.62    1.58
   0  -2   4   46.78    1.56
   1  -2   4  155.70    4.66
   1  -2   4  157.06    4.62
  -2   2  -4  483.91   14.16
   2  -2   4  494.84   14.18
   2  -2   4  496.50   14.11
  -3   2  -4   32.88    1.34
   3  -2   4   33.84    1.30
   3  -2   4   33.39    1.36
  -4   2  -4   28.93    1.23
  -4   2  -4   28.23    1.34
   4  -2   4   25.13    1.53
   4  -2   4   29.96    1.45
  -5   2  -4   99.90    3.46
  -5   2  -4  103.39    3.34
   5  -2   4  100.13    3.51
   5  -2   4  100.84    3.69
  -6   2  -4   32.26    2.15
  -6   2  -4   32.48    1.57
   6  -2   4   33.38    1.90
   6  -2   4   33.63    1.81
  -7   2  -4    1.96    0.79
  -7   2  -4    1.92    0.64
   7  -2   4    0.84    0.79
   7  -2   4    1.71    0.74
  -8   2  -4   24.72    1.87
  -8   2  -4   23.50    1.77
   8  -2   4   27.17    1.74
   9   1  -4   30.87    2.25
  -9  -1   4   27.08    2.01
   8   1  -4   35.47    2.22
   8   1  -4   28.20    1.86
  -8  -1   4   33.25    1.94
  -8  -1   4   31.65    2.65
   7   1  -4    7.22    1.47
   7   1  -4    5.43    0.80
  -7  -1   4    7.95    1.22
  -7  -1   4    7.19    1.30
   6   1  -4  147.42    4.86
   6   1  -4  147.41    5.34
  -6  -1   4  154.67    5.54
  -6  -1   4  144.90    4.92
   5   1  -4   39.01    1.65
   5   1  -4   34.19    2.16
  -5  -1   4   40.18    2.42
  -5  -1   4   36.44    1.72
   4   1  -4   11.40    0.83
   4   1  -4    9.51    1.33
  -4  -1   4   11.81    0.93
  -4  -1   4   13.20    1.59
   3   1  -4  356.09    9.86
   3   1  -4  300.50   10.13
  -3  -1   4  354.59    9.88
   2   1  -4  194.72    5.89
   2   1  -4  201.47    6.12
  -2  -1   4  189.93    5.89
  -2  -1   4  211.96    6.22
   1   1  -4   23.30    1.01
   1   1  -4   21.65    0.93
  -1  -1   4   23.62    1.12
   0   1  -4   47.01    1.50
   0  -1   4   46.02    1.55
   1  -1   4  415.87   11.80
   1  -1   4  401.97   11.66
  -2   1  -4   12.07    0.74
   2  -1   4   12.35    0.52
   2  -1   4   13.69    0.57
  -3   1  -4   51.37    1.91
   3  -1   4   55.91    1.90
   3  -1   4   51.22    1.94
  -4   1  -4  179.26    5.36
  -4   1  -4  176.43    5.57
   4  -1   4  185.90    5.58
   4  -1   4  176.18    5.60
  -5   1  -4   32.74    1.35
  -5   1  -4   31.40    1.62
   5  -1   4   31.77    1.70
   5  -1   4   31.25    1.61
  -6   1  -4   71.35    2.85
  -6   1  -4   70.53    2.59
   6  -1   4   74.15    2.95
   6  -1   4   74.46    2.72
  -7   1  -4   66.30    2.63
  -7   1  -4   65.82    2.83
   7  -1   4   66.87    2.59
  -8   1  -4    6.92    1.08
   8  -1   4   11.04    1.19
   9   0  -4   20.25    1.94
  -9   0   4   19.51    1.74
   8   0  -4   20.70    1.94
   8   0  -4   16.42    1.41
  -8   0   4   18.17    1.57
  -8   0   4   15.81    2.22
   7   0  -4  124.09    4.38
   7   0  -4  131.82    4.93
  -7   0   4  129.30    4.49
  -7   0   4  135.76    5.15
   6   0  -4   37.55    2.38
   6   0  -4   39.98    1.76
  -6   0   4   40.19    2.51
  -6   0   4   37.77    1.85
   5   0  -4    1.41    0.42
   5   0  -4    1.14    0.87
  -5   0   4    0.88    0.50
  -5   0   4    2.19    0.93
   4   0  -4   80.50    3.24
   4   0  -4   77.21    2.74
  -4   0   4   84.08    3.37
  -4   0   4   84.83    2.76
   3   0  -4   81.53    2.68
  -3   0   4   86.84    2.71
   2   0  -4  236.11    7.66
   2   0  -4  248.69    7.41
  -2   0   4  265.21    7.38
  -2   0   4  260.21    7.88
   1   0  -4  105.29    3.26
  -1   0   4   94.29    3.44
  -1   0   4  104.89    3.10
   0   0  -4  135.72    3.82
   0   0   4  135.39    3.90
   0   0   4  117.75    3.98
  -1   0  -4  107.57    3.33
   1   0   4  108.95    3.35
  -2   0  -4  458.48   13.46
   2   0   4  471.64   13.49
  -3   0  -4   36.78    1.53
   3   0   4   37.10    1.57
  -4   0  -4    4.37    0.44
  -4   0  -4    4.20    0.63
   4   0   4    3.71    0.66
   4   0   4    3.12    0.43
  -5   0  -4  211.75    6.33
  -5   0  -4  210.38    6.73
   5   0   4  206.59    6.32
   5   0   4  215.08    6.70
  -6   0  -4   25.87    1.62
  -6   0  -4   25.44    1.29
   6   0   4   25.99    1.29
   6   0   4   27.94    1.86
  -7   0  -4    6.79    1.10
  -7   0  -4    9.17    1.34
   7   0   4   10.23    0.95
  -8   0  -4   36.71    2.29
   9  -1  -4   17.58    2.03
  -9   1   4   18.73    1.66
   8  -1  -4    9.63    1.14
   8  -1  -4    6.76    1.22
  -8   1   4    8.12    1.24
   7  -1  -4    7.78    1.01
   7  -1  -4    7.10    1.20
  -7   1   4   11.30    1.83
  -7   1   4    9.59    1.21
   6  -1  -4   75.26    3.47
   6  -1  -4   76.66    2.78
  -6   1   4   79.74    2.90
  -6   1   4   80.80    3.56
   5  -1  -4  147.61    4.72
   5  -1  -4  153.38    5.44
  -5   1   4  146.47    4.78
  -5   1   4  160.87    5.53
   4  -1  -4    1.45    0.32
   4  -1  -4    1.21    0.88
  -4   1   4    0.98    0.75
  -4   1   4    1.34    0.38
   3  -1  -4  329.67    9.31
   3  -1  -4  338.08    9.93
  -3   1   4  273.34    9.74
  -3   1   4  338.56    9.33
   2  -1  -4  232.99    7.38
   2  -1  -4  239.86    7.01
  -2   1   4  242.12    6.90
  -2   1   4  230.56    7.28
   1  -1  -4   19.03    1.24
  -1   1   4   19.48    0.81
  -1   1   4   22.91    1.06
   0  -1  -4  175.88    5.23
   0   1   4  179.55    5.25
   0   1   4  175.38    5.16
  -1  -1  -4  908.76   25.81
   1   1   4  899.53   25.82
  -2  -1  -4   15.44    0.89
   2   1   4   15.01    0.92
  -3  -1  -4   71.43    2.54
   3   1   4   72.72    2.59
  -4  -1  -4   60.83    2.40
   4   1   4   63.54    2.48
  -5  -1  -4    0.53    0.32
  -5  -1  -4    0.75    0.56
   5   1   4    0.90    0.29
   5   1   4    1.52    0.67
  -6  -1  -4   67.14    2.75
  -6  -1  -4   66.39    2.31
   6   1   4   64.83    2.22
   6   1   4   63.17    2.90
  -7  -1  -4   27.24    1.85
  -7  -1  -4   27.95    1.50
   7   1   4   29.71    1.30
   9  -2  -4    2.85    1.14
   9  -2  -4    1.36    0.72
  -9   2   4    2.58    0.80
   8  -2  -4   33.32    2.43
   8  -2  -4   28.92    1.63
  -8   2   4   30.08    1.77
  -8   2   4   30.50    2.51
   7  -2  -4  127.91    5.04
   7  -2  -4  126.13    4.27
  -7   2   4  139.74    5.19
  -7   2   4  125.93    4.36
   6  -2  -4   19.89    2.12
  -6   2   4   19.24    1.29
  -6   2   4   20.42    1.92
   5  -2  -4   74.77    2.43
   5  -2  -4   68.80    3.37
  -5   2   4   74.22    2.67
  -5   2   4   65.94    3.15
   4  -2  -4  291.27    8.41
   4  -2  -4  286.70    9.19
  -4   2   4  270.66    9.00
  -4   2   4  297.49    8.44
   3  -2  -4   34.73    1.27
   3  -2  -4   36.76    2.07
  -3   2   4   36.75    1.79
  -3   2   4   36.05    1.30
   2  -2  -4  137.98    4.58
  -2   2   4  139.04    4.40
  -2   2   4  136.15    4.10
   1  -2  -4  306.44    9.09
  -1   2   4  298.32    8.91
  -1   2   4  309.62    9.03
   0  -2  -4   12.36    0.68
   0  -2  -4   14.81    0.87
   0   2   4   13.34    0.57
   0   2   4   12.45    0.70
  -1  -2  -4  182.16    5.45
   1   2   4  180.53    5.46
  -2  -2  -4  193.38    5.88
   2   2   4  193.57    5.92
  -3  -2  -4   24.04    1.32
   3   2   4   25.41    1.39
  -4  -2  -4   17.71    1.54
   4   2   4   18.46    1.39
  -5  -2  -4  103.66    3.79
   5   2   4  108.95    3.92
  -6  -2  -4    9.56    1.25
  -7  -2  -4   11.80    1.49
   9  -3  -4   26.08    1.72
   9  -3  -4   29.54    2.59
  -9   3   4   29.11    1.81
   8  -3  -4   38.21    2.75
   8  -3  -4   38.03    1.81
   7  -3  -4   18.79    2.23
   7  -3  -4   17.41    1.12
  -7   3   4   17.92    1.31
  -7   3   4   16.59    1.95
   6  -3  -4  148.21    4.55
  -6   3   4  150.34    4.65
  -6   3   4  135.68    5.35
   5  -3  -4   66.29    2.23
   5  -3  -4   65.65    3.29
  -5   3   4   64.47    2.98
  -5   3   4   67.57    2.33
   4  -3  -4   11.88    0.66
   4  -3  -4   13.85    1.66
  -4   3   4   11.50    1.69
  -4   3   4   13.48    0.76
   3  -3  -4  269.83    8.64
  -3   3   4  283.79    8.54
  -3   3   4  281.94    8.10
   2  -3  -4  209.22    6.35
  -2   3   4  204.03    6.18
  -2   3   4  202.74    5.92
  -2   3   4  192.49    5.89
   1  -3  -4    1.14    0.48
  -1   3   4    0.55    0.23
   0  -3  -4  273.65    7.96
   0  -3  -4  270.14    7.91
   0   3   4  267.50    7.93
  -1  -3  -4   44.00    1.63
   1   3   4   42.99    1.66
  -2  -3  -4    0.47    0.37
   2   3   4    0.20    0.48
  -3  -3  -4   82.30    2.94
   3   3   4   83.53    3.03
  -4  -3  -4  127.62    4.33
   4   3   4  128.25    4.43
  -5  -3  -4    0.16    0.58
   5   3   4   -0.07    0.78
  -6  -3  -4   35.05    2.03
   9  -4  -4    1.70    0.68
   9  -4  -4    2.69    1.35
  -9   4   4    1.42    0.72
   8  -4  -4   12.20    1.05
   8  -4  -4   12.23    2.29
  -8   4   4   12.46    1.26
   7  -4  -4   75.99    2.64
   7  -4  -4   76.39    3.92
  -7   4   4   66.09    3.48
  -7   4   4   76.68    2.72
   6  -4  -4   12.34    0.80
   6  -4  -4   10.34    2.10
  -6   4   4   11.29    1.59
  -6   4   4   13.80    1.05
   5  -4  -4   30.17    1.19
   5  -4  -4   30.01    2.27
  -5   4   4   31.28    1.32
  -5   4   4   31.15    1.94
   4  -4  -4  117.61    4.43
  -4   4   4  127.70    4.28
  -4   4   4  116.08    3.66
   3  -4  -4    1.20    0.69
  -3   4   4    1.28    0.24
  -3   4   4    0.83    0.41
   2  -4  -4   43.74    1.92
  -2   4   4   39.22    1.37
  -2   4   4   41.24    1.64
  -2   4   4   39.60    1.38
   1  -4  -4  212.41    6.38
  -1   4   4  201.44    6.12
  -1   4   4  209.56    6.25
   0  -4  -4   98.76    3.13
   0  -4  -4  101.55    3.22
   0   4   4   98.77    3.17
  -1  -4  -4   66.64    2.30
  -1  -4  -4   69.47    2.20
  -1  -4  -4   65.40    2.11
   1   4   4   66.09    2.38
  -2  -4  -4  148.60    4.63
   2   4   4  143.26    4.70
  -3  -4  -4   19.08    1.27
   3   4   4   19.08    1.47
  -4  -4  -4   63.38    2.56
   4   4   4   62.25    2.75
  -5  -4  -4   85.30    3.33
  -6  -4  -4   18.48    1.72
   9  -5  -4   35.90    2.23
   9  -5  -4   32.96    3.23
  -9   5   4   36.33    1.97
   8  -5  -4   21.63    1.25
   8  -5  -4   16.48    2.67
  -8   5   4   21.30    1.39
   7  -5  -4    9.99    0.82
   7  -5  -4    8.07    1.64
  -7   5   4   10.90    1.03
  -7   5   4    7.29    1.33
   6  -5  -4  112.49    3.54
   6  -5  -4  112.60    4.70
  -6   5   4  114.21    3.62
  -6   5   4  113.20    4.49
   5  -5  -4   75.50    3.46
  -5   5   4   77.11    2.52
  -5   5   4   80.15    3.25
   4  -5  -4    7.97    1.47
  -4   5   4    6.17    0.55
  -4   5   4    6.08    0.95
   3  -5  -4  189.21    6.10
  -3   5   4  174.27    5.38
  -3   5   4  190.48    5.42
   2  -5  -4  123.04    4.11
  -2   5   4  119.00    3.63
  -2   5   4  121.38    3.91
  -2   5   4  115.36    3.59
   1  -5  -4    2.94    0.59
  -1   5   4    2.59    0.39
   0  -5  -4  118.42    3.76
   0  -5  -4  124.20    3.90
   0   5   4  121.73    3.85
  -1  -5  -4   67.98    2.24
  -1  -5  -4   66.30    2.30
  -1  -5  -4   61.23    2.45
  -2  -5  -4    0.76    0.30
  -2  -5  -4    0.86    0.33
  -2  -5  -4    0.25    0.41
   2   5   4    0.61    0.58
  -3  -5  -4   99.00    3.47
   3   5   4   98.90    3.64
  -4  -5  -4   60.10    2.50
   4   5   4   56.00    2.77
  -5  -5  -4    1.74    0.71
  -6  -5  -4   31.17    2.27
   9  -6  -4    2.78    2.43
  -9   6   4    4.84    0.80
   8  -6  -4   35.57    3.33
  -8   6   4   36.82    1.72
   7  -6  -4   63.79    3.70
   7  -6  -4   64.45    2.17
  -7   6   4   62.67    2.26
   6  -6  -4    3.20    1.15
  -6   6   4    2.99    0.44
  -6   6   4    2.33    0.84
   5  -6  -4   39.80    2.47
  -5   6   4   41.65    2.15
  -5   6   4   37.11    1.40
   4  -6  -4  146.14    5.16
  -4   6   4  140.03    4.83
  -4   6   4  144.73    4.20
  -4   6   4  137.58    4.15
   3  -6  -4    0.88    0.71
  -3   6   4    0.01    0.37
  -3   6   4    0.14    0.23
  -3   6   4    0.47    0.20
   2  -6  -4  268.86    8.21
  -2   6   4  258.80    8.03
  -2   6   4  261.23    7.65
  -2   6   4  263.89    8.04
   1  -6  -4  331.68    9.98
  -1   6   4  330.64    9.71
   0  -6  -4    0.86    0.34
   0  -6  -4    1.18    0.50
   0  -6  -4    1.16    0.37
   0   6   4    1.26    0.48
  -1  -6  -4  142.17    4.49
  -1  -6  -4  144.16    4.49
  -1  -6  -4  138.97    4.37
   1   6   4  144.32    4.65
  -2  -6  -4  149.34    4.63
  -2  -6  -4  153.63    4.69
  -2  -6  -4  150.47    4.86
   2   6   4  155.02    5.09
  -3  -6  -4   46.92    2.06
   3   6   4   47.58    2.42
  -4  -6  -4   29.60    1.75
  -5  -6  -4   33.36    2.05
   8  -7  -4    8.00    1.96
  -8   7   4    9.29    0.95
   7  -7  -4   17.18    2.44
  -7   7   4   22.21    0.95
   6  -7  -4   81.34    3.91
  -6   7   4   84.04    3.62
   5  -7  -4   55.85    2.96
  -5   7   4   57.68    2.63
   4  -7  -4   20.63    2.21
  -4   7   4   21.93    1.45
   3  -7  -4  138.92    4.98
  -3   7   4  149.74    4.17
  -3   7   4  139.11    4.73
  -3   7   4  138.81    4.21
   2  -7  -4   73.35    2.92
  -2   7   4   70.83    2.27
   1  -7  -4    3.83    0.72
  -1   7   4    4.06    0.57
   0  -7  -4  109.03    3.47
   0  -7  -4  110.84    3.72
   0  -7  -4  105.21    3.55
   0   7   4  109.49    3.68
  -1  -7  -4   45.51    1.86
  -1  -7  -4   43.99    1.77
  -1  -7  -4   41.52    1.68
   1   7   4   43.36    2.10
  -2  -7  -4    3.80    0.60
  -2  -7  -4    3.24    0.57
  -2  -7  -4    5.22    0.75
   2   7   4    3.70    0.88
  -3  -7  -4   54.97    2.08
  -3  -7  -4   58.16    2.36
   3   7   4   50.52    2.80
  -4  -7  -4   28.14    1.78
   8  -8  -4   30.94    3.48
   7  -8  -4   49.39    3.39
   6  -8  -4    0.35    1.06
   5  -8  -4   73.17    3.55
  -5   8   4   74.69    3.17
   4  -8  -4  119.59    4.56
  -4   8   4  114.42    4.20
   3  -8  -4    0.74    1.07
   2  -8  -4   28.06    1.81
  -2   8   4   26.54    1.03
   1  -8  -4   49.52    2.09
   1  -8  -4   51.47    2.29
  -1   8   4   47.56    2.01
   0  -8  -4    3.87    0.65
   0  -8  -4    2.98    0.68
   0  -8  -4    4.08    0.82
   0   8   4    4.06    0.79
  -1  -8  -4   79.70    2.94
  -1  -8  -4   76.62    2.77
  -1  -8  -4   81.41    2.80
   1   8   4   78.58    3.20
  -2  -8  -4   64.95    2.37
  -2  -8  -4   64.00    2.46
  -2  -8  -4   64.65    2.48
   2   8   4   60.25    2.96
  -3  -8  -4   11.22    1.24
   7  -9  -4   12.71    2.61
   6  -9  -4   52.16    3.23
   5  -9  -4   27.72    2.41
   4  -9  -4    8.02    1.28
   3  -9  -4  138.03    5.09
   2  -9  -4   44.03    2.38
  -2   9   4   45.65    1.53
   1  -9  -4   14.79    1.51
   1  -9  -4   16.63    1.36
  -1   9   4   14.44    1.37
   0  -9  -4   72.78    2.87
   0  -9  -4   77.16    3.07
   0  -9  -4   81.42    2.66
   0   9   4   75.58    3.09
  -1  -9  -4   32.45    1.54
  -1  -9  -4   30.98    1.79
  -1  -9  -4   31.96    1.65
   1   9   4   30.31    2.31
  -2  -9  -4    5.48    0.90
   2   9   4    3.98    1.28
   6 -10  -4   -1.09    1.22
   5 -10  -4   48.93    3.13
   4 -10  -4   50.17    2.96
   3 -10  -4    0.13    0.91
   2 -10  -4   92.60    3.85
   2 -10  -4   92.44    3.64
  -2  10   4   91.96    2.90
  -2  10   4   95.09    2.83
   1 -10  -4   96.96    3.85
   1 -10  -4  101.28    3.66
  -1  10   4   91.09    3.40
   0 -10  -4    7.19    1.26
   0 -10  -4    4.80    1.10
   0  10   4    4.68    1.16
  -1 -10  -4   44.93    2.43
  -1 -10  -4   49.46    1.99
   4 -11  -4    9.34    1.60
   3 -11  -4   28.57    2.48
   2 -11  -4   12.16    1.70
   2 -11  -4    8.28    1.41
   1 -14   5   32.53    2.44
   2 -14   5   61.90    3.35
   2  13  -5   26.69    2.54
  -2 -13   5   26.28    1.82
   1  13  -5    3.81    0.76
  -1 -13   5    3.63    0.81
   0  13  -5  100.65    3.29
   0 -13   5   96.55    4.01
   0 -13   5   98.08    3.42
   1 -13   5   39.53    1.70
   1 -13   5   42.07    2.37
   2 -13   5   17.13    1.65
   2 -13   5   17.90    0.93
   3 -13   5  130.96    5.07
   4 -13   5   50.27    2.81
   5 -13   5    4.31    1.19
   3  12  -5   -1.11    1.07
  -3 -12   5   -0.87    0.72
   2  12  -5   53.30    2.44
  -2 -12   5   55.73    2.51
   1  12  -5  104.62    3.64
  -1 -12   5  106.67    3.77
   0  12  -5   -0.14    0.49
   0 -12   5   -0.07    0.55
   1 -12   5   71.27    3.13
   1 -12   5   71.83    2.57
   2 -12   5   82.34    2.75
   2 -12   5   84.05    3.50
   2 -12   5   82.96    2.60
   3 -12   5    4.28    0.90
   3 -12   5    4.94    0.43
   3 -12   5    3.63    0.43
   4 -12   5   90.79    3.81
   5 -12   5   83.21    3.73
  -4 -11   5   19.03    1.80
   3  11  -5   54.30    2.62
  -3 -11   5   55.52    2.57
   2  11  -5   23.72    1.58
  -2 -11   5   25.64    1.82
  -2 -11   5   22.85    1.65
   1  11  -5   35.75    1.66
  -1 -11   5   37.45    1.87
  -1 -11   5   37.20    2.04
   0  11  -5  120.11    3.83
   0 -11   5  119.40    4.39
   0 -11   5  120.58    4.01
   1 -11   5    6.35    0.93
   1 -11   5    7.47    1.19
   1 -11   5    6.31    1.03
   2 -11   5   18.91    1.06
   2 -11   5   19.49    1.51
   2 -11   5   19.09    1.47
   3 -11   5   79.90    2.60
   3 -11   5   83.89    2.53
   3 -11   5   78.73    3.28
   3 -11   5   81.19    3.35
   4 -11   5   19.90    1.64
   4 -11   5   20.83    1.66
   5 -11   5   23.40    0.96
   5 -11   5   21.77    1.84
   6 -11   5   86.67    3.84
   6 -11   5   87.17    2.81
   7 -11   5   21.82    2.38
   5  10  -5   62.22    2.99
  -5 -10   5   62.90    3.01
   4  10  -5   30.01    2.10
   4  10  -5   35.24    2.03
  -4 -10   5   34.43    2.08
   3  10  -5    5.17    0.85
   3  10  -5    4.78    0.81
  -3 -10   5    7.00    1.33
  -3 -10   5    3.46    0.81
   2  10  -5   65.54    2.52
  -2 -10   5   63.96    2.65
  -2 -10   5   64.00    2.77
   1  10  -5   72.45    2.61
  -1 -10   5   72.98    2.96
  -1 -10   5   76.59    2.80
   0  10  -5   10.50    0.80
   0 -10   5   11.78    1.17
   0 -10   5   11.05    1.05
   1 -10   5  177.47    5.44
   1 -10   5  177.12    5.90
   2 -10   5  134.19    4.63
   2 -10   5  133.57    4.07
   2 -10   5  126.29    4.62
   3 -10   5    2.27    0.66
   3 -10   5    0.97    0.27
   3 -10   5    0.86    0.56
   3 -10   5    0.67    0.31
   4 -10   5   53.06    2.52
   4 -10   5   57.87    1.86
   4 -10   5   54.06    1.85
   4 -10   5   54.53    2.50
   5 -10   5   71.18    3.14
   5 -10   5   71.51    2.36
   5 -10   5   73.98    2.41
   6 -10   5    2.70    0.90
   6 -10   5    2.75    0.54
   6 -10   5    4.04    0.63
   7 -10   5   38.45    1.62
   7 -10   5   37.85    2.64
   6   9  -5   30.08    2.13
  -6  -9   5   31.44    2.27
   5   9  -5    2.79    0.78
  -5  -9   5    2.06    0.89
   4   9  -5   22.09    1.67
   4   9  -5   19.00    1.49
  -4  -9   5   20.79    1.76
  -4  -9   5   18.06    1.63
   3   9  -5  126.64    4.31
   3   9  -5  127.31    4.48
  -3  -9   5  125.35    4.41
  -3  -9   5  125.39    4.50
   2   9  -5   19.71    1.23
   2   9  -5   18.92    1.34
  -2  -9   5   20.37    1.45
  -2  -9   5   17.97    1.37
   1   9  -5   59.72    2.73
  -1  -9   5   70.33    2.55
  -1  -9   5   69.91    2.71
   0   9  -5  243.86    7.09
   0  -9   5  230.22    7.48
   0  -9   5  238.83    7.19
   1  -9   5  223.08    7.04
   1  -9   5  219.13    6.62
   2  -9   5    5.28    0.94
   2  -9   5    4.64    0.59
   2  -9   5    4.74    0.86
   3  -9   5  217.62    6.31
   3  -9   5  213.21    7.46
   3  -9   5  214.56    6.86
   3  -9   5  206.49    6.27
   4  -9   5   57.80    2.50
   4  -9   5   54.86    1.90
   4  -9   5   55.46    1.92
   5  -9   5    9.85    1.24
   5  -9   5   10.85    0.83
   5  -9   5    9.97    0.72
   6  -9   5  101.93    4.06
   7  -9   5    9.01    1.80
   7  -9   5    8.09    1.21
   6   8  -5   12.00    1.49
  -6  -8   5   13.17    1.68
   5   8  -5   48.81    2.40
   5   8  -5   44.76    2.37
  -5  -8   5   47.95    2.74
  -5  -8   5   46.04    2.39
   4   8  -5   83.32    3.16
   4   8  -5   83.24    3.25
  -4  -8   5   79.40    3.32
  -4  -8   5   79.84    3.22
   3   8  -5    0.13    0.49
   3   8  -5    0.40    0.51
  -3  -8   5   -0.13    0.59
  -3  -8   5    0.38    0.61
   2   8  -5  245.61    7.38
   2   8  -5  236.38    7.60
  -2  -8   5  248.77    7.66
  -2  -8   5  239.68    7.47
   1   8  -5   38.93    1.84
   1   8  -5   42.26    1.62
  -1  -8   5   39.05    1.85
  -1  -8   5   42.52    1.74
   0   8  -5    1.35    0.30
   0  -8   5    1.23    0.46
   0  -8   5    1.32    0.41
   1  -8   5  132.39    4.05
   1  -8   5  129.82    4.39
   2  -8   5  134.38    4.07
   2  -8   5  132.70    4.49
   2  -8   5  133.55    4.47
   2  -8   5  132.17    4.04
   3  -8   5   41.03    1.47
   3  -8   5   38.98    1.87
   3  -8   5   40.62    1.88
   3  -8   5   41.02    1.47
   4  -8   5  143.02    4.49
   4  -8   5  145.56    4.49
   4  -8   5  152.57    5.00
   5  -8   5   98.47    3.18
   5  -8   5   93.83    3.64
   6  -8   5   -0.19    0.48
   6  -8   5    0.37    0.72
   7  -8   5   53.04    2.89
   7  -8   5   52.41    2.30
   8  -8   5   24.15    1.84
   8  -8   5   22.56    2.45
   7   7  -5   21.30    1.91
  -7  -7   5   19.45    1.92
   6   7  -5   97.13    4.18
  -6  -7   5   91.07    3.71
  -6  -7   5   91.33    4.24
   5   7  -5    1.91    0.79
   5   7  -5    3.36    0.79
  -5  -7   5    3.89    1.01
  -5  -7   5    3.15    0.79
   4   7  -5   28.12    1.73
   4   7  -5   26.91    1.61
  -4  -7   5   26.22    1.70
  -4  -7   5   28.66    1.84
   3   7  -5  235.02    7.33
   3   7  -5  233.56    7.48
  -3  -7   5  236.18    7.40
  -3  -7   5  246.63    7.56
   2   7  -5   24.27    1.38
   2   7  -5   25.95    1.40
  -2  -7   5   25.41    1.48
  -2  -7   5   26.63    1.39
   1   7  -5   84.80    2.76
   1   7  -5   82.37    2.99
  -1  -7   5   82.98    2.82
  -1  -7   5   82.86    2.99
   0   7  -5  151.80    4.56
   0  -7   5  143.99    4.84
   0  -7   5  153.70    4.61
   1  -7   5   43.41    1.51
   1  -7   5   38.80    2.02
   2  -7   5  245.36    7.26
   2  -7   5  237.76    7.61
   2  -7   5  252.11    7.64
   2  -7   5  254.90    7.30
   3  -7   5  109.34    3.74
   3  -7   5  108.28    3.41
   3  -7   5  110.19    3.76
   3  -7   5  110.83    3.42
   4  -7   5    6.00    0.71
   4  -7   5    6.75    0.94
   5  -7   5   18.26    1.42
   6  -7   5  107.52    4.11
   6  -7   5  107.86    3.66
   7  -7   5    7.64    1.21
   7  -7   5    5.95    1.20
  -8   7  -5   20.69    1.52
   8  -7   5   16.86    2.35
   8  -7   5   14.10    1.72
   7   6  -5   27.69    2.04
  -7  -6   5   26.46    2.01
   6   6  -5   18.16    1.60
   6   6  -5   15.07    1.48
  -6  -6   5   16.37    2.22
  -6  -6   5   16.89    1.66
   5   6  -5  102.22    3.71
   5   6  -5  103.01    3.89
  -5  -6   5   98.10    3.75
  -5  -6   5  103.83    4.05
   4   6  -5   16.18    1.32
   4   6  -5   16.40    1.24
  -4  -6   5   16.07    1.35
  -4  -6   5   17.07    1.55
   3   6  -5   23.71    1.28
   3   6  -5   23.22    1.38
  -3  -6   5   23.88    1.51
  -3  -6   5   23.96    1.41
   2   6  -5  355.06   10.48
   2   6  -5  344.54   10.63
  -2  -6   5  362.75   10.53
  -2  -6   5  359.21   10.68
   1   6  -5   86.03    3.04
   1   6  -5   89.26    2.86
  -1  -6   5   90.15    2.91
  -1  -6   5   87.61    3.07
   0   6  -5    1.15    0.25
   0   6  -5    1.09    0.40
   0  -6   5    1.28    0.31
   0  -6   5    0.80    0.39
   1  -6   5  162.47    5.13
   1  -6   5  163.96    4.92
   2  -6   5  131.15    3.99
   2  -6   5  126.35    3.96
   2  -6   5  132.59    4.23
   2  -6   5  131.21    4.22
   3  -6   5    5.29    0.61
   3  -6   5    5.76    0.73
   4  -6   5  132.26    4.23
   4  -6   5  139.71    4.53
   5  -6   5  139.93    4.49
   5  -6   5  142.50    4.80
  -6   6  -5    0.51    0.45
   6  -6   5   -0.71    0.49
   6  -6   5   -0.28    0.70
  -7   6  -5   45.98    2.04
   7  -6   5   43.75    2.57
   7  -6   5   47.50    2.18
  -8   6  -5   37.83    1.97
   8  -6   5   32.60    2.21
   8  -6   5   33.03    2.72
   8   5  -5    0.64    0.80
  -8  -5   5    1.44    0.88
   7   5  -5   15.03    1.66
  -7  -5   5   16.03    1.62
  -7  -5   5   10.94    1.93
   6   5  -5   63.45    2.97
   6   5  -5   67.51    2.79
  -6  -5   5   67.40    2.87
  -6  -5   5   66.20    3.46
   5   5  -5    5.69    1.06
   5   5  -5    7.44    1.04
  -5  -5   5    7.90    1.55
  -5  -5   5    7.94    1.21
   4   5  -5   56.08    2.26
   4   5  -5   58.32    2.44
  -4  -5   5   56.73    2.56
  -4  -5   5   56.22    2.35
   3   5  -5  133.60    4.43
   3   5  -5  139.34    4.56
  -3  -5   5  139.37    4.59
  -3  -5   5  136.78    4.43
   2   5  -5   17.72    1.08
   2   5  -5   20.09    0.99
  -2  -5   5   17.90    1.15
  -2  -5   5   19.76    1.05
   1   5  -5   93.87    3.21
   1   5  -5   98.13    3.07
  -1  -5   5   98.09    3.10
  -1  -5   5   96.24    3.25
   0   5  -5  165.86    5.11
   0   5  -5  162.90    4.93
   0  -5   5  166.52    5.11
   0  -5   5  162.07    4.95
   1  -5   5   39.45    1.42
   1  -5   5   39.54    1.56
   2  -5   5   73.77    2.58
   2  -5   5   78.14    2.59
   2  -5   5   74.27    2.43
   3  -5   5  234.40    7.12
   3  -5   5  246.07    7.29
   4  -5   5   59.58    2.27
   4  -5   5   56.99    2.10
  -5   5  -5   97.06    3.30
   5  -5   5  100.67    3.58
   5  -5   5   99.86    3.37
  -6   5  -5   87.34    3.49
   6  -5   5   98.55    3.39
   6  -5   5   95.88    3.66
  -7   5  -5   19.86    1.36
   7  -5   5   16.09    1.92
   7  -5   5   15.99    1.48
  -8   5  -5    8.34    1.30
   8  -5   5    5.07    1.42
   8   4  -5   27.17    2.14
  -8  -4   5   26.99    2.04
   7   4  -5   10.19    1.53
   7   4  -5   11.07    1.66
  -7  -4   5    7.02    1.60
  -7  -4   5    9.30    1.42
   6   4  -5    7.34    1.41
   6   4  -5   10.90    1.16
  -6  -4   5    7.99    1.50
  -6  -4   5    8.61    1.28
   5   4  -5  142.06    5.09
   5   4  -5  145.29    4.81
  -5  -4   5  145.85    5.26
  -5  -4   5  146.70    4.88
   4   4  -5   41.13    2.01
   4   4  -5   40.56    1.75
  -4  -4   5   41.07    2.13
  -4  -4   5   40.87    1.87
   3   4  -5   52.47    1.99
   3   4  -5   55.24    2.18
  -3  -4   5   53.05    2.23
   2   4  -5  207.65    6.04
   2   4  -5  194.54    6.14
  -2  -4   5  199.20    6.04
  -2  -4   5  198.49    6.18
   1   4  -5  226.14    6.77
   1   4  -5  222.05    6.88
  -1  -4   5  238.93    6.93
   0   4  -5  172.98    5.28
   0  -4   5  173.19    5.28
   0  -4   5  172.56    5.19
   1  -4   5  970.69   27.60
   1  -4   5  963.48   27.66
   2  -4   5  117.31    3.62
   2  -4   5  113.34    3.60
   2  -4   5  113.34    3.54
   3  -4   5    0.95    0.35
   3  -4   5    0.68    0.34
  -4   4  -5  152.38    4.81
   4  -4   5  142.75    5.03
   4  -4   5  169.21    4.96
  -5   4  -5   86.31    3.03
   5  -4   5   88.63    3.10
   5  -4   5   88.87    3.23
  -6   4  -5   14.91    1.15
   6  -4   5   14.45    1.56
   6  -4   5   15.30    1.34
  -7   4  -5   27.93    1.64
   7  -4   5   25.48    1.82
   7  -4   5   26.60    2.21
  -8   4  -5   21.40    1.68
   8  -4   5   18.93    3.16
   8   3  -5    3.66    1.00
  -8  -3   5    0.65    0.77
   7   3  -5   67.07    3.14
   7   3  -5   66.06    2.75
  -7  -3   5   62.04    3.57
  -7  -3   5   67.76    2.90
   6   3  -5   81.80    3.01
   6   3  -5   69.56    3.30
  -6  -3   5   79.71    3.84
  -6  -3   5   81.58    3.12
   5   3  -5    2.77    0.57
   5   3  -5    2.44    0.80
  -5  -3   5    4.03    0.71
  -5  -3   5    4.56    1.17
   4   3  -5  177.37    5.42
   4   3  -5  172.00    5.71
  -4  -3   5  176.86    5.80
  -4  -3   5  165.48    5.43
   3   3  -5  308.07    9.19
   3   3  -5  315.85    9.42
  -3  -3   5  321.24    9.23
  -3  -3   5  298.78    9.41
   2   3  -5   40.02    1.48
  -2  -3   5   40.48    1.50
  -2  -3   5   38.05    1.65
   1   3  -5   52.16    1.88
   1   3  -5   53.18    1.80
  -1  -3   5   53.89    1.82
  -1  -3   5   53.13    1.91
   0   3  -5  381.67   11.01
   0  -3   5  374.68   10.97
   0  -3   5  379.09   11.03
   1  -3   5    1.00    0.28
   1  -3   5    1.23    0.29
   2  -3   5  147.17    4.47
   2  -3   5  146.44    4.44
   2  -3   5  146.88    4.43
  -3   3  -5   86.98    2.85
   3  -3   5   84.99    2.86
   3  -3   5   87.73    2.82
  -4   3  -5   35.50    1.53
   4  -3   5   37.04    1.60
   4  -3   5   36.37    1.60
  -5   3  -5  119.68    4.00
   5  -3   5  120.38    4.03
   5  -3   5  119.76    4.08
  -6   3  -5   59.74    2.45
   6  -3   5   62.33    2.55
   6  -3   5   60.89    2.78
  -7   3  -5   -0.07    0.56
   7  -3   5    0.34    0.79
   7  -3   5    0.71    0.79
  -8   3  -5   30.85    1.98
   8  -3   5   31.72    1.95
  -9  -2   5    3.10    1.00
   8   2  -5   62.25    3.06
  -8  -2   5   57.86    2.77
   7   2  -5    6.32    1.09
   7   2  -5    6.29    1.13
  -7  -2   5    6.42    0.95
  -7  -2   5    5.58    1.35
   6   2  -5   64.02    2.56
   6   2  -5   57.37    4.25
  -6  -2   5   69.68    3.39
   5   2  -5  139.71    5.51
   5   2  -5  172.25    5.21
  -5  -2   5  167.23    5.94
  -5  -2   5  169.59    5.25
   4   2  -5  135.47    4.92
   4   2  -5  146.20    4.58
  -4  -2   5  152.12    4.63
   3   2  -5  138.21    4.55
   3   2  -5  134.76    4.25
  -3  -2   5  133.38    4.27
  -3  -2   5  141.43    4.63
   2   2  -5  252.62    7.70
   2   2  -5  266.62    7.87
  -2  -2   5  264.01    7.91
  -2  -2   5  263.34    7.72
   1   2  -5   19.92    0.94
  -1  -2   5   20.41    1.01
  -1  -2   5   20.33    0.88
   0   2  -5    2.20    0.38
   0  -2   5    2.02    0.43
   0  -2   5    2.89    0.40
   1  -2   5  282.63    8.35
   1  -2   5  287.68    8.27
  -2   2  -5   94.08    3.02
   2  -2   5   94.40    2.87
   2  -2   5   94.46    3.03
   2  -2   5   94.61    2.88
  -3   2  -5    8.89    0.77
   3  -2   5   10.00    0.68
   3  -2   5    7.83    0.82
  -4   2  -5  119.55    3.88
   4  -2   5  119.13    3.84
   4  -2   5  116.88    3.90
  -5   2  -5   72.25    3.27
   5  -2   5   83.55    3.04
   5  -2   5   83.97    3.00
  -6   2  -5    0.97    0.53
   6  -2   5    0.64    0.69
   6  -2   5    0.78    0.66
  -7   2  -5   20.10    1.50
   7  -2   5   19.22    1.40
  -8   2  -5   33.24    2.15
   9   1  -5   17.13    1.96
  -9  -1   5   12.82    1.73
   8   1  -5    0.40    0.69
   8   1  -5    1.61    0.86
  -8  -1   5    0.22    0.68
   7   1  -5   54.95    2.37
   7   1  -5   55.46    2.82
  -7  -1   5   54.79    2.48
  -7  -1   5   56.54    3.13
   6   1  -5   35.97    1.70
   6   1  -5   29.41    2.62
  -6  -1   5   35.90    2.49
  -6  -1   5   34.78    1.79
   5   1  -5    3.73    0.54
   5   1  -5    1.77    0.82
  -5  -1   5    3.81    0.61
  -5  -1   5    3.80    1.05
   4   1  -5   82.79    2.71
   4   1  -5   67.59    3.12
  -4  -1   5   83.96    2.76
  -4  -1   5   85.34    3.51
   3   1  -5  155.26    4.82
   3   1  -5  145.92    5.15
  -3  -1   5  168.95    5.45
  -3  -1   5  162.54    4.84
   2   1  -5    0.30    0.40
   2   1  -5    0.42    0.24
  -2  -1   5    0.81    0.62
  -2  -1   5    0.86    0.27
   1   1  -5   84.90    2.72
  -1  -1   5   86.12    2.86
  -1  -1   5   82.26    2.66
   0   1  -5  274.33    8.15
   0  -1   5  289.25    8.24
   0  -1   5  281.36    8.23
   1  -1   5   20.01    0.78
  -2   1  -5  260.42    7.67
   2  -1   5  257.24    7.68
  -3   1  -5  152.64    4.69
   3  -1   5  146.51    4.70
  -4   1  -5    1.19    0.48
   4  -1   5    0.86    0.50
  -5   1  -5   90.92    3.25
   5  -1   5   92.64    3.33
   5  -1   5   88.03    2.97
  -6   1  -5  124.96    4.31
   6  -1   5  124.04    4.41
   6  -1   5  120.38    3.92
  -7   1  -5    4.97    0.83
   7  -1   5    6.99    0.85
  -8   1  -5   19.82    1.96
   9   0  -5   19.93    2.02
  -9   0   5   15.05    1.73
   8   0  -5   95.69    3.71
   8   0  -5  106.77    4.31
  -8   0   5  104.30    3.84
   7   0  -5   18.22    1.91
   7   0  -5   16.72    1.27
  -7   0   5   18.00    2.08
  -7   0   5   18.16    1.46
   6   0  -5   36.10    1.67
   6   0  -5   33.96    2.57
  -6   0   5   37.38    1.81
  -6   0   5   37.98    2.50
   5   0  -5   86.26    3.69
  -5   0   5   92.20    3.18
  -5   0   5   98.10    3.91
   4   0  -5   73.43    2.53
   4   0  -5   70.20    3.09
  -4   0   5   81.22    3.32
  -4   0   5   76.59    2.58
   3   0  -5   90.12    3.61
   3   0  -5  103.18    3.20
  -3   0   5  106.37    3.23
  -3   0   5  105.98    3.87
   2   0  -5  304.08    8.57
   2   0  -5  278.73    8.83
  -2   0   5  290.73    8.55
  -2   0   5  297.99    9.07
   1   0  -5   61.74    2.07
  -1   0   5   59.61    1.93
  -1   0   5   52.59    2.29
   0   0  -5  139.78    4.15
   0   0   5  136.23    4.33
   0   0   5  146.24    4.27
  -1   0  -5  269.74    7.99
   1   0   5  272.61    8.00
  -2   0  -5  132.46    4.12
   2   0   5  130.72    4.14
  -3   0  -5   33.61    1.50
   3   0   5   34.47    1.56
  -4   0  -5  149.75    4.87
   4   0   5  152.64    4.93
  -5   0  -5   29.33    1.60
   5   0   5   28.71    1.73
  -6   0  -5    9.64    1.17
   6   0   5    7.78    1.06
  -7   0  -5   60.18    2.74
   9  -1  -5   24.76    2.27
  -9   1   5   22.46    1.81
   8  -1  -5    0.63    0.58
   8  -1  -5   -0.44    0.88
  -8   1   5    0.71    0.69
   7  -1  -5   69.47    2.67
   7  -1  -5   71.03    3.35
  -7   1   5   69.55    2.82
  -7   1   5   72.15    3.55
   6  -1  -5   72.73    2.65
  -6   1   5   76.92    3.52
  -6   1   5   73.42    2.77
   5  -1  -5    2.96    0.99
   5  -1  -5    2.37    0.42
  -5   1   5    2.57    0.94
  -5   1   5    2.85    0.52
   4  -1  -5  212.33    6.96
   4  -1  -5  210.12    6.28
  -4   1   5  216.29    6.31
  -4   1   5  198.85    6.97
   3  -1  -5  200.04    5.80
   3  -1  -5  199.07    6.38
  -3   1   5  171.62    6.29
  -3   1   5  205.03    5.81
   2  -1  -5   18.52    1.44
  -2   1   5   21.59    1.37
  -2   1   5   19.24    0.85
   1  -1  -5  428.86   13.08
  -1   1   5  456.06   12.91
  -1   1   5  448.81   12.92
  -1   1   5  457.36   13.07
   0  -1  -5  387.14   11.12
   0   1   5  379.75   11.09
   0   1   5  391.90   11.21
  -1  -1  -5    1.40    0.33
   1   1   5    1.48    0.34
  -2  -1  -5   65.07    2.30
  -3  -1  -5  204.82    6.40
   3   1   5  211.32    6.45
  -4  -1  -5    2.68    0.62
   4   1   5    1.83    0.67
  -5  -1  -5   55.58    2.37
   5   1   5   55.58    2.52
  -6  -1  -5   46.49    2.24
  -7  -1  -5    5.15    0.96
   9  -2  -5   21.89    2.29
   9  -2  -5   15.69    1.52
  -9   2   5   22.54    1.74
   8  -2  -5   32.20    1.70
   8  -2  -5   35.80    2.50
  -8   2   5   33.40    1.90
   7  -2  -5    7.00    1.31
   7  -2  -5    6.39    0.89
  -7   2   5    6.19    1.27
  -7   2   5    6.68    1.12
   6  -2  -5   69.10    3.54
   6  -2  -5   70.03    2.53
  -6   2   5   74.36    3.46
  -6   2   5   70.64    2.64
   5  -2  -5  221.90    6.54
   5  -2  -5  218.14    7.39
  -5   2   5  205.98    7.29
  -5   2   5  218.86    6.57
   4  -2  -5    8.29    0.63
   4  -2  -5    9.62    1.79
  -4   2   5    8.85    0.72
   3  -2  -5   77.03    3.29
  -3   2   5   74.55    2.96
  -3   2   5   77.86    2.47
   2  -2  -5  124.76    4.53
  -2   2   5  137.28    4.27
  -2   2   5  129.87    3.97
   1  -2  -5  160.79    5.32
  -1   2   5  168.69    5.04
  -1   2   5  168.96    4.97
   0  -2  -5   94.55    3.12
   0   2   5   94.84    3.05
   0   2   5   98.64    2.91
  -1  -2  -5  182.43    5.57
   1   2   5  185.26    5.60
  -2  -2  -5   28.01    1.33
   2   2   5   28.12    1.40
  -3  -2  -5   10.99    1.03
   3   2   5   13.41    1.16
  -4  -2  -5  118.11    4.09
   4   2   5  122.45    4.19
  -5  -2  -5   14.41    1.27
   5   2   5   10.07    1.50
  -6  -2  -5    1.79    0.71
   9  -3  -5   17.29    1.50
   9  -3  -5   21.04    2.38
  -9   3   5   17.34    1.61
   8  -3  -5    2.54    1.19
   8  -3  -5    2.94    0.61
  -8   3   5    2.29    0.74
   7  -3  -5   57.20    2.24
   7  -3  -5   60.20    3.29
  -7   3   5   58.22    3.22
  -7   3   5   60.34    2.40
   6  -3  -5   79.55    2.66
   6  -3  -5   74.91    3.74
  -6   3   5   70.56    3.47
  -6   3   5   77.72    2.73
   5  -3  -5   19.15    2.25
   5  -3  -5   16.34    0.90
  -5   3   5   17.40    1.71
  -5   3   5   17.77    1.06
   4  -3  -5  156.74    4.75
   4  -3  -5  148.61    5.65
  -4   3   5  161.06    4.78
  -4   3   5  161.60    5.42
   3  -3  -5   98.59    3.92
  -3   3   5  101.61    3.18
  -3   3   5  107.90    3.64
   2  -3  -5    2.15    0.77
  -2   3   5    2.32    0.43
  -2   3   5    1.48    0.28
  -2   3   5    1.77    0.28
   1  -3  -5  150.76    4.85
  -1   3   5  149.62    4.52
  -1   3   5  148.31    4.57
   0  -3  -5  125.91    4.03
   0   3   5  127.20    3.95
  -1  -3  -5   19.52    1.03
   1   3   5   19.38    1.12
  -2  -3  -5   93.42    3.16
   2   3   5   92.96    3.36
  -3  -3  -5  118.72    4.80
   3   3   5  140.92    4.43
  -4  -3  -5    0.11    0.51
   4   3   5    0.59    0.70
  -5  -3  -5   75.00    3.03
  -6  -3  -5   39.49    2.23
   9  -4  -5   25.22    1.62
   9  -4  -5   28.66    2.81
  -9   4   5   25.99    1.77
   8  -4  -5   48.76    3.22
   8  -4  -5   46.40    2.03
  -8   4   5   50.97    2.19
   7  -4  -5    8.04    0.83
   7  -4  -5    7.41    1.51
  -7   4   5    5.83    1.28
  -7   4   5    7.15    1.05
   6  -4  -5   33.06    2.72
   6  -4  -5   34.49    1.39
  -6   4   5   30.56    2.22
  -6   4   5   33.56    1.53
   5  -4  -5  133.73    4.16
   5  -4  -5  131.16    5.27
  -5   4   5  138.28    4.23
  -5   4   5  138.87    4.99
   4  -4  -5   11.27    1.72
  -4   4   5   10.66    1.20
  -4   4   5   10.54    0.70
   3  -4  -5  111.86    4.17
  -3   4   5  109.17    3.41
  -3   4   5  114.17    3.45
  -3   4   5  114.27    3.86
   2  -4  -5  297.94    9.18
  -2   4   5  295.76    8.64
  -2   4   5  303.75    8.89
  -2   4   5  288.62    8.63
   1  -4  -5   44.43    1.95
  -1   4   5   42.93    1.59
  -1   4   5   43.01    1.63
   0  -4  -5   59.23    2.18
   0   4   5   55.69    2.06
  -1  -4  -5   99.39    3.24
   1   4   5   97.22    3.30
  -2  -4  -5   15.01    1.04
   2   4   5   13.43    1.23
  -3  -4  -5   44.39    1.99
   3   4   5   45.89    2.14
  -4  -4  -5  124.61    4.25
   4   4   5  118.22    4.39
  -5  -4  -5   10.71    1.35
  -6  -4  -5   11.72    1.79
   9  -5  -5    8.88    2.15
  -9   5   5   10.18    1.41
   8  -5  -5    8.18    0.95
   8  -5  -5    5.75    1.62
  -8   5   5    7.58    1.16
   7  -5  -5   74.64    2.45
   7  -5  -5   66.56    3.90
  -7   5   5   58.92    3.50
  -7   5   5   73.58    2.57
   6  -5  -5   59.29    3.44
   6  -5  -5   60.85    2.10
  -6   5   5   62.66    2.22
  -6   5   5   60.93    3.06
   5  -5  -5    3.35    1.13
  -5   5   5    4.00    0.87
  -5   5   5    3.56    0.46
   4  -5  -5  121.78    4.66
  -4   5   5  128.37    4.37
  -4   5   5  125.71    3.76
  -4   5   5  116.44    3.69
   3  -5  -5  101.08    3.88
  -3   5   5   99.08    3.13
  -3   5   5  103.91    3.56
  -3   5   5  104.17    3.15
   2  -5  -5    2.19    0.77
  -2   5   5    2.07    0.35
  -2   5   5    2.70    0.45
  -2   5   5    2.20    0.46
   1  -5  -5  121.13    4.07
  -1   5   5  117.76    3.75
   0  -5  -5  135.87    4.29
   0  -5  -5  144.05    4.52
   0   5   5  141.99    4.44
  -1  -5  -5    3.92    0.49
  -1  -5  -5    4.13    0.76
  -1  -5  -5    4.28    0.71
   1   5   5    3.75    0.64
  -2  -5  -5  114.40    4.07
   2   5   5  120.54    4.09
  -3  -5  -5   54.65    2.27
   3   5   5   54.67    2.55
  -4  -5  -5    0.29    0.55
  -5  -5  -5   44.96    2.35
   8  -6  -5   50.91    3.81
  -8   6   5   52.42    2.45
   7  -6  -5   -1.01    1.27
  -7   6   5    0.24    0.47
   6  -6  -5   39.13    2.90
  -6   6   5   44.58    1.67
  -6   6   5   46.34    2.56
   5  -6  -5   52.80    2.96
  -5   6   5   53.35    1.74
  -5   6   5   53.94    1.82
  -5   6   5   52.14    2.54
   4  -6  -5   -0.18    0.81
  -4   6   5    0.58    0.52
  -4   6   5    0.30    0.27
  -4   6   5    0.58    0.26
   3  -6  -5  138.76    4.91
  -3   6   5  136.84    4.13
  -3   6   5  129.83    4.54
  -3   6   5  140.31    4.11
   2  -6  -5  101.02    3.72
  -2   6   5   96.49    3.09
  -2   6   5   99.64    3.14
   1  -6  -5    1.46    0.67
  -1   6   5    1.21    0.43
   0  -6  -5  114.38    3.70
   0  -6  -5  122.95    3.96
   0   6   5  114.18    3.89
  -1  -6  -5  210.25    6.28
  -1  -6  -5  197.01    6.10
  -1  -6  -5  206.55    6.30
   1   6   5  206.64    6.47
   2   6   5   18.22    1.58
  -3  -6  -5   18.38    1.30
   3   6   5   15.03    1.86
  -4  -6  -5   40.58    2.10
   8  -7  -5    5.90    1.92
   7  -7  -5   64.08    3.93
  -7   7   5   63.57    2.11
   6  -7  -5   20.86    2.38
  -6   7   5   22.24    1.98
   5  -7  -5    0.66    1.02
  -5   7   5    1.70    0.74
   4  -7  -5  176.06    6.29
  -4   7   5  179.53    5.25
  -4   7   5  176.80    5.95
  -4   7   5  182.86    5.24
   3  -7  -5  137.03    4.98
  -3   7   5  132.27    4.60
  -3   7   5  142.22    4.50
  -3   7   5  135.55    4.10
   2  -7  -5   19.74    1.65
  -2   7   5   19.91    1.10
  -2   7   5   20.62    0.94
   1  -7  -5   90.19    3.44
  -1   7   5   93.71    3.16
   0  -7  -5   51.03    2.20
   0  -7  -5   47.12    1.89
   0   7   5   51.33    2.17
  -1  -7  -5   -0.64    0.54
  -1  -7  -5    0.83    0.38
  -1  -7  -5    0.48    0.41
   1   7   5    0.53    0.73
  -2  -7  -5   88.28    3.18
   2   7   5   89.69    3.60
  -3  -7  -5   29.26    1.71
   7  -8  -5   -0.52    1.35
   6  -8  -5   67.26    3.71
   5  -8  -5   71.85    3.61
  -5   8   5   71.89    3.14
   4  -8  -5    8.34    1.33
  -4   8   5   10.00    1.14
   3  -8  -5   33.20    2.23
  -3   8   5   31.96    1.34
  -3   8   5   33.74    1.18
   2  -8  -5   80.18    3.40
  -2   8   5   84.04    2.64
  -2   8   5   80.60    2.83
   1  -8  -5    3.22    0.69
   1  -8  -5    3.77    0.88
  -1   8   5    3.39    0.74
   0  -8  -5   37.75    2.02
   0   8   5   40.15    2.12
  -1  -8  -5   80.36    2.83
  -1  -8  -5   81.18    2.92
  -1  -8  -5   83.41    3.10
   1   8   5   83.83    3.40
  -2  -8  -5   10.43    1.13
   6  -9  -5   13.61    2.43
   5  -9  -5   14.31    2.14
   4  -9  -5   57.03    3.15
   3  -9  -5   24.16    2.08
   2  -9  -5    3.47    1.06
  -2   9   5    3.71    0.64
  -2   9   5    3.27    0.67
   1  -9  -5  101.24    3.68
   1  -9  -5  102.12    3.98
   0  -9  -5   25.00    1.92
   0  -9  -5   26.90    1.61
   0   9   5   29.55    2.14
  -1  -9  -5    7.14    0.98
  -1  -9  -5    5.63    1.05
   1   9   5    5.48    1.20
   5 -10  -5   56.32    3.47
   4 -10  -5    0.41    1.18
   3 -10  -5   77.79    3.73
   2 -10  -5   78.41    3.66
   2 -10  -5   81.58    3.29
   1 -10  -5   -0.85    1.02
   1 -10  -5    2.76    0.83
   1 -14   6   84.22    4.60
   2 -14   6   24.98    3.07
   2  13  -6   24.06    1.88
  -2 -13   6   23.75    1.88
   1  13  -6   74.40    2.91
  -1 -13   6   80.87    3.24
   0  13  -6   21.90    1.38
   0 -13   6   20.48    1.54
   1 -13   6   35.20    1.71
   1 -13   6   33.70    2.15
   2 -13   6  146.64    5.52
   2 -13   6  145.53    4.76
   2 -13   6  154.94    4.79
   3 -13   6   31.50    2.18
   4 -13   6    5.38    1.15
   5 -13   6   75.58    4.25
  -3 -12   6   51.80    2.64
   2  12  -6   84.60    3.25
  -2 -12   6   85.39    3.39
   1  12  -6    3.96    0.73
  -1 -12   6    2.57    1.32
   0  12  -6   69.46    2.49
   0 -12   6   66.99    2.68
   1 -12   6   92.71    3.18
   1 -12   6   87.70    3.65
   2 -12   6    1.49    0.68
   2 -12   6    2.38    0.77
   3 -12   6   48.73    2.52
   3 -12   6   51.45    1.66
   3 -12   6   41.49    1.90
   4 -12   6   45.95    1.74
   4 -12   6   48.69    2.61
   4 -12   6   50.66    1.68
   5 -12   6    3.70    0.99
   6 -12   6   45.52    2.86
   4  11  -6   44.38    2.48
  -4 -11   6   43.95    2.49
   3  11  -6   10.14    1.60
  -3 -11   6   11.68    1.52
   2  11  -6   39.34    1.95
  -2 -11   6   39.81    2.09
   1  11  -6   76.18    2.79
  -1 -11   6   75.05    3.17
  -1 -11   6   81.02    3.00
   0  11  -6   40.45    1.67
   0 -11   6   39.75    1.85
   0 -11   6   40.15    2.13
   1 -11   6   13.62    1.07
   1 -11   6   14.07    1.36
   2 -11   6  115.87    3.71
   2 -11   6  115.75    4.31
   2 -11   6  114.84    3.58
   2 -11   6  112.86    4.25
   3 -11   6   33.37    1.93
   3 -11   6   30.97    1.22
   3 -11   6   31.04    1.34
   3 -11   6   27.80    1.80
   4 -11   6   23.22    1.74
   4 -11   6   26.46    2.22
   4 -11   6   21.46    1.08
   4 -11   6   23.32    1.05
   5 -11   6  131.88    4.91
   5 -11   6  132.86    4.05
   5 -11   6  124.43    4.09
   6 -11   6   26.85    2.18
   6 -11   6   28.54    1.30
   5  10  -6   33.02    2.17
  -5 -10   6   31.61    2.23
   4  10  -6    0.80    0.66
   4  10  -6    0.16    0.82
  -4 -10   6    0.18    0.76
   3  10  -6   58.82    2.55
   3  10  -6   60.59    2.70
  -3 -10   6   61.21    2.69
  -3 -10   6   58.45    2.75
   2  10  -6   52.70    2.17
  -2 -10   6   53.63    2.47
  -2 -10   6   44.88    3.22
   1  10  -6    3.42    0.55
  -1 -10   6    4.52    0.79
  -1 -10   6    5.16    0.74
   0 -10   6   66.15    2.48
   0 -10   6   67.83    2.81
   1 -10   6  112.56    4.13
   1 -10   6  116.80    3.72
   2 -10   6    0.09    0.50
   2 -10   6    0.81    0.52
   2 -10   6    0.68    0.37
   2 -10   6    0.66    0.28
   3 -10   6   62.43    2.08
   3 -10   6   60.86    2.67
   3 -10   6   58.55    2.22
   3 -10   6   62.69    2.66
   4 -10   6  102.04    3.94
   4 -10   6  106.38    3.32
   4 -10   6  102.41    3.90
   4 -10   6  105.61    3.33
   5 -10   6    1.35    0.67
   5 -10   6    0.56    0.70
   5 -10   6    0.91    0.37
   5 -10   6    1.25    0.42
   6 -10   6   59.71    2.19
   6 -10   6   55.44    2.08
   6 -10   6   51.88    2.80
   7 -10   6   43.10    2.81
   6   9  -6    2.84    0.94
  -6  -9   6    0.79    0.99
   5   9  -6   30.44    2.00
  -5  -9   6   26.60    2.01
   4   9  -6   39.03    2.16
   4   9  -6   44.08    2.24
  -4  -9   6   42.62    2.39
  -4  -9   6   41.89    2.24
   3   9  -6   11.80    1.21
   3   9  -6   13.19    1.20
  -3  -9   6   13.08    1.49
  -3  -9   6   14.54    1.45
   2   9  -6  142.31    4.89
   2   9  -6  139.43    4.62
  -2  -9   6  142.25    4.75
  -2  -9   6  146.24    4.95
   1   9  -6  336.88   10.04
  -1  -9   6  347.42   10.15
  -1  -9   6  330.72   10.37
   0   9  -6   78.03    2.67
   0  -9   6   81.63    2.78
   0  -9   6   79.69    3.07
   1  -9   6  139.63    4.39
   1  -9   6  141.20    4.78
   2  -9   6  303.93    8.74
   2  -9   6  300.38    9.18
   2  -9   6  300.78    8.69
   2  -9   6  277.04    9.94
   3  -9   6   48.07    1.74
   3  -9   6   51.90    1.82
   3  -9   6   47.12    2.23
   3  -9   6   46.88    2.18
   4  -9   6    9.70    1.09
   4  -9   6   11.81    0.81
   4  -9   6   11.76    1.22
   4  -9   6   10.98    0.77
   5  -9   6  115.89    3.77
   5  -9   6  119.61    4.35
   5  -9   6  118.43    3.82
   6  -9   6    9.00    1.48
   6  -9   6   13.33    1.10
   7  -9   6   13.05    1.93
   7  -9   6   13.21    1.41
   6   8  -6   61.95    3.00
  -6  -8   6   56.69    2.93
   5   8  -6   55.13    2.62
   5   8  -6   48.40    2.52
  -5  -8   6   51.28    2.56
  -5  -8   6   54.80    2.89
   4   8  -6   -0.61    0.57
   4   8  -6    0.18    0.54
  -4  -8   6   -0.30    0.66
  -4  -8   6    0.24    0.70
   3   8  -6  112.49    3.81
   3   8  -6  110.66    3.99
  -3  -8   6  103.55    4.20
  -3  -8   6  114.84    4.08
   2   8  -6  125.10    4.09
   2   8  -6  123.16    4.34
  -2  -8   6  124.89    4.37
  -2  -8   6  126.95    4.19
   1   8  -6    0.75    0.58
   1   8  -6    1.11    0.48
  -1  -8   6    1.81    0.48
  -1  -8   6    1.76    0.58
   0   8  -6   23.47    1.10
   0  -8   6   26.80    1.23
   0  -8   6   22.46    1.38
   1  -8   6   89.50    3.26
   1  -8   6   90.56    2.94
   2  -8   6   17.43    0.89
   2  -8   6   16.67    1.19
   2  -8   6   15.61    1.14
   2  -8   6   16.51    0.88
   3  -8   6  140.52    4.35
   3  -8   6  141.75    4.76
   3  -8   6  142.56    4.38
   3  -8   6  141.11    4.73
   4  -8   6   86.58    3.26
   4  -8   6   89.31    2.93
   4  -8   6   86.25    2.92
   4  -8   6   92.50    3.34
   5  -8   6    0.69    0.43
   5  -8   6   -0.06    0.56
   6  -8   6   52.04    2.15
   6  -8   6   52.28    2.58
   7  -8   6   49.57    2.23
   7  -8   6   46.11    2.74
   7   7  -6   33.44    2.35
  -7  -7   6   31.71    2.30
   6   7  -6    4.15    0.94
  -6  -7   6    3.20    0.89
   5   7  -6   40.04    2.18
   5   7  -6   39.39    2.02
  -5  -7   6   38.19    2.42
  -5  -7   6   35.03    2.10
   4   7  -6  160.38    5.32
   4   7  -6  162.59    5.53
  -4  -7   6  159.87    5.38
  -4  -7   6  165.03    5.62
   3   7  -6    2.09    0.51
   3   7  -6    2.34    0.60
  -3  -7   6    2.56    0.69
  -3  -7   6    1.77    0.62
   2   7  -6  123.22    3.96
   2   7  -6  121.25    4.16
  -2  -7   6  125.04    4.04
  -2  -7   6  119.11    4.19
   1   7  -6  124.50    4.16
   1   7  -6  124.22    3.93
  -1  -7   6  121.88    3.97
  -1  -7   6  124.47    4.19
   0   7  -6   18.06    0.89
   0  -7   6   18.53    0.97
   0  -7   6   16.66    1.15
   1  -7   6   60.56    2.08
   1  -7   6   58.95    2.31
   2  -7   6  214.29    6.38
   2  -7   6  214.27    6.69
   2  -7   6  215.03    6.42
   2  -7   6  212.36    6.66
   3  -7   6   31.58    1.54
   3  -7   6   32.60    1.31
   3  -7   6   30.65    1.53
   3  -7   6   29.71    1.29
   4  -7   6   32.84    1.67
   4  -7   6   36.50    1.70
   4  -7   6   36.14    1.74
   5  -7   6   95.03    3.25
   5  -7   6   96.68    3.57
   6  -7   6   12.58    1.80
   6  -7   6   15.52    1.24
   7  -7   6    4.85    1.14
   7  -7   6    3.78    0.82
   8  -7   6   34.34    2.79
   7   6  -6   16.07    1.76
  -7  -6   6   12.18    1.70
   6   6  -6   44.15    2.41
   6   6  -6   38.03    2.19
  -6  -6   6   41.97    2.89
  -6  -6   6   41.22    2.27
   5   6  -6   45.51    2.15
   5   6  -6   44.29    2.31
  -5  -6   6   43.79    2.19
  -5  -6   6   45.37    2.54
   4   6  -6   17.34    1.22
   4   6  -6   14.60    1.44
  -4  -6   6   16.64    1.58
  -4  -6   6   14.19    1.55
   3   6  -6  165.75    5.31
   3   6  -6  166.12    5.50
  -3  -6   6  168.94    5.37
  -3  -6   6  172.00    5.58
   2   6  -6  145.22    4.75
   2   6  -6  135.15    5.12
  -2  -6   6  149.89    4.63
  -2  -6   6  148.42    4.80
   1   6  -6    4.15    0.56
   1   6  -6    3.79    0.69
  -1  -6   6    4.40    0.65
   0   6  -6  301.55    9.02
   0  -6   6  297.92    9.01
   0  -6   6  298.94    8.83
   1  -6   6   68.50    2.27
   1  -6   6   65.39    2.43
   2  -6   6   18.99    1.08
   2  -6   6   19.13    0.93
   2  -6   6   17.72    1.04
   2  -6   6   17.73    0.92
   3  -6   6  119.33    3.95
   3  -6   6  120.52    3.77
   3  -6   6  117.95    3.92
   4  -6   6  161.63    5.08
   4  -6   6  165.83    5.29
   5  -6   6    2.39    0.66
   5  -6   6    2.99    0.57
   6  -6   6  103.57    3.64
   6  -6   6  103.89    3.94
  -7   6  -6   44.65    2.04
   7  -6   6   42.62    2.17
   7  -6   6   40.59    2.53
  -8   6  -6    0.84    0.69
   8  -6   6   -1.98    1.23
   8   5  -6   26.22    2.21
  -8  -5   6   24.59    2.16
   7   5  -6   39.36    2.46
  -7  -5   6   43.19    2.33
   6   5  -6    0.61    0.61
   6   5  -6    1.32    0.75
  -6  -5   6    0.90    1.18
  -6  -5   6    1.57    0.71
   5   5  -6   36.05    2.04
   5   5  -6   34.58    1.79
  -5  -5   6   32.15    2.23
  -5  -5   6   34.59    1.87
   4   5  -6  152.68    5.06
   4   5  -6  158.91    5.32
  -4  -5   6  160.08    5.40
  -4  -5   6  155.97    5.13
   3   5  -6   -0.08    0.45
   3   5  -6    0.20    0.33
  -3  -5   6    0.46    0.43
  -3  -5   6    0.15    0.54
   2   5  -6   73.55    2.63
   2   5  -6   72.97    2.47
  -2  -5   6   67.01    2.80
  -2  -5   6   71.87    2.50
   1   5  -6  308.30    9.47
   1   5  -6  316.68    9.34
  -1  -5   6  329.50    9.54
  -1  -5   6  315.96    9.36
   0   5  -6   48.02    1.85
   0  -5   6   48.90    1.86
   0  -5   6   47.14    1.73
   1  -5   6  278.82    8.32
   1  -5   6  277.85    8.22
   2  -5   6  237.70    7.01
   2  -5   6  226.45    6.98
   2  -5   6  230.18    6.89
   3  -5   6   62.47    2.28
   3  -5   6   62.13    2.21
   3  -5   6   64.06    2.26
   4  -5   6   70.38    2.58
   4  -5   6   76.36    2.70
  -5   5  -6  152.66    5.01
   5  -5   6  157.04    5.06
   5  -5   6  164.15    5.22
  -6   5  -6    8.96    1.01
   6  -5   6    8.15    1.37
   6  -5   6    7.22    1.11
  -7   5  -6   24.35    1.54
   7  -5   6   19.95    2.07
   7  -5   6   21.48    1.65
  -8   5  -6   59.18    2.64
   8  -5   6   52.44    3.14
  -8  -4   6    7.57    1.20
   7   4  -6    6.69    1.22
  -7  -4   6    6.72    1.02
  -7  -4   6    4.24    1.47
   6   4  -6   83.49    3.12
   6   4  -6   71.50    3.42
  -6  -4   6   80.36    3.92
  -6  -4   6   85.08    3.22
   5   4  -6   90.32    3.18
   5   4  -6   80.08    3.63
  -5  -4   6   87.24    3.72
   4   4  -6   17.69    1.11
   4   4  -6   17.31    1.41
  -4  -4   6   17.24    1.20
  -4  -4   6   16.73    1.58
   3   4  -6  111.88    4.17
   3   4  -6  132.40    4.27
  -3  -4   6  135.26    4.09
  -3  -4   6  122.43    4.38
   2   4  -6    1.87    0.33
   2   4  -6    1.47    0.42
  -2  -4   6    1.74    0.40
  -2  -4   6    1.42    0.48
   1   4  -6   29.63    1.21
   1   4  -6   30.55    1.33
  -1  -4   6   28.68    1.23
  -1  -4   6   30.85    1.38
   0   4  -6  364.10   10.75
   0  -4   6  360.64   10.76
   0  -4   6  373.82   10.71
   1  -4   6  129.75    4.03
   1  -4   6  135.72    4.08
   1  -4   6  127.19    4.08
   2  -4   6   11.16    0.73
   2  -4   6   11.09    0.71
   2  -4   6   12.07    0.78
   3  -4   6  187.26    5.54
   3  -4   6  174.14    5.48
  -4   4  -6   75.57    2.69
   4  -4   6   75.61    2.72
   4  -4   6   79.50    2.73
  -5   4  -6    2.08    0.59
   5  -4   6    2.46    0.59
  -6   4  -6   41.10    1.90
   6  -4   6   41.99    2.22
   6  -4   6   40.95    2.03
  -7   4  -6   46.32    2.19
   7  -4   6   43.75    2.51
  -8   4  -6    0.72    0.76
   8  -4   6    0.92    1.01
   8   3  -6   23.97    2.06
  -8  -3   6   16.54    1.76
   7   3  -6   56.31    2.90
   7   3  -6   53.96    2.45
  -7  -3   6   51.63    3.31
  -7  -3   6   54.10    2.53
   6   3  -6    0.88    0.57
   6   3  -6    1.11    0.82
  -6  -3   6    0.54    1.21
  -6  -3   6    0.08    0.62
   5   3  -6  127.64    5.03
   5   3  -6  150.90    4.72
  -5  -3   6  149.19    4.77
  -5  -3   6  144.47    5.39
   4   3  -6  178.51    5.63
   4   3  -6  174.12    5.96
  -4  -3   6  182.79    5.67
  -4  -3   6  186.74    6.11
   3   3  -6   11.78    1.08
   3   3  -6   12.29    0.82
  -3  -3   6   11.90    1.23
  -3  -3   6   13.66    0.88
   2   3  -6  172.36    5.27
   2   3  -6  173.47    5.42
  -2  -3   6  172.24    5.29
  -2  -3   6  175.44    5.49
   1   3  -6  501.30   14.31
   1   3  -6  483.20   14.36
  -1  -3   6  498.89   14.32
  -1  -3   6  495.74   14.41
   0   3  -6    4.53    0.52
   0  -3   6    3.64    0.57
   0  -3   6    4.41    0.49
   1  -3   6  155.57    4.74
   2  -3   6  174.66    5.20
   2  -3   6  175.93    5.29
   2  -3   6  169.90    5.20
  -3   3  -6   35.45    1.52
   3  -3   6   37.44    1.65
   3  -3   6   37.78    1.43
   3  -3   6   36.44    1.57
  -4   3  -6   60.07    2.25
   4  -3   6   58.61    2.30
   4  -3   6   62.82    2.21
   4  -3   6   57.70    2.03
  -5   3  -6   45.80    1.96
   5  -3   6   47.68    2.08
   5  -3   6   44.14    2.05
  -6   3  -6    0.24    0.52
   6  -3   6    0.15    0.75
   6  -3   6   -0.49    0.65
  -7   3  -6   48.81    2.35
   7  -3   6   49.83    2.24
   9   2  -6   37.19    2.54
  -9  -2   6   30.40    2.28
   8   2  -6    6.23    1.16
  -8  -2   6    5.82    0.98
   7   2  -6   37.16    2.38
   7   2  -6   37.24    1.91
  -7  -2   6   35.91    2.01
  -7  -2   6   34.48    2.72
   6   2  -6  132.28    5.13
   6   2  -6  130.76    4.50
  -6  -2   6  137.08    4.61
  -6  -2   6  139.15    5.35
   5   2  -6   29.53    1.44
   5   2  -6   24.57    1.95
  -5  -2   6   30.93    1.57
  -5  -2   6   29.42    2.38
   4   2  -6   15.63    1.00
   4   2  -6   15.31    1.52
  -4  -2   6   19.19    1.11
  -4  -2   6   19.85    1.88
   3   2  -6  212.86    6.79
   3   2  -6  216.39    6.51
  -3  -2   6  213.13    6.51
  -3  -2   6  220.17    6.93
   2   2  -6  169.98    5.21
   2   2  -6  163.98    5.04
  -2  -2   6  166.90    5.30
  -2  -2   6  163.07    5.04
   1   2  -6   30.55    1.28
  -1  -2   6   31.84    1.41
  -1  -2   6   32.41    1.26
   0   2  -6  219.19    6.38
   0  -2   6  217.28    6.45
   0  -2   6  209.96    6.40
   1  -2   6   41.25    1.45
   1  -2   6   43.12    1.58
   2  -2   6    1.45    0.39
   2  -2   6    1.89    0.33
   2  -2   6    1.06    0.25
  -3   2  -6  255.08    7.69
   3  -2   6  254.28    7.47
   3  -2   6  251.56    7.41
   3  -2   6  261.87    7.73
  -4   2  -6   94.86    3.25
   4  -2   6   94.76    3.14
   4  -2   6   94.05    3.28
   4  -2   6   90.98    2.88
  -5   2  -6    2.45    0.61
   5  -2   6    3.16    0.62
   5  -2   6    2.69    0.64
  -6   2  -6   74.86    2.92
   6  -2   6   71.32    2.56
   6  -2   6   70.72    2.99
  -7   2  -6   62.03    2.79
   7  -2   6   61.64    2.28
   9   1  -6    1.24    0.95
  -9  -1   6   -0.28    0.82
   8   1  -6   21.95    1.88
   8   1  -6   26.05    2.10
  -8  -1   6   21.58    1.77
   7   1  -6   56.13    2.84
   7   1  -6   51.60    2.29
  -7  -1   6   55.11    3.15
  -7  -1   6   51.41    2.42
   6   1  -6    0.31    0.78
   6   1  -6    0.51    0.44
  -6  -1   6    0.62    0.59
  -6  -1   6    0.41    1.00
   5   1  -6   77.12    2.75
   5   1  -6   71.89    3.31
  -5  -1   6   79.47    2.84
  -5  -1   6   82.72    3.63
   4   1  -6  107.70    4.21
   4   1  -6  118.34    3.81
  -4  -1   6  120.61    3.79
   3   1  -6    6.65    1.10
   3   1  -6    8.14    0.66
  -3  -1   6    8.56    0.72
  -3  -1   6    8.93    1.50
   2   1  -6  267.16    7.99
   2   1  -6  263.92    7.79
  -2  -1   6  263.97    8.23
  -2  -1   6  258.98    7.78
   1   1  -6  199.43    6.13
  -1  -1   6  203.61    6.12
  -1  -1   6  210.99    6.37
   0   1  -6   10.36    0.59
   0  -1   6   10.48    0.70
   0  -1   6   10.69    0.88
   1  -1   6  122.85    3.77
   1  -1   6  126.94    3.92
  -2   1  -6  164.80    4.98
   2  -1   6  156.05    5.17
  -3   1  -6   -0.37    0.34
   3  -1   6   -0.27    0.44
   4  -1   6  158.11    5.14
  -5   1  -6   76.17    2.89
   5  -1   6   73.42    2.95
  -6   1  -6   18.55    1.48
  -7   1  -6   21.87    1.77
   9   0  -6   40.79    2.65
  -9   0   6   36.86    2.28
   8   0  -6   13.40    1.80
   8   0  -6   11.83    1.33
  -8   0   6   11.25    1.44
   7   0  -6   29.19    1.57
   7   0  -6   30.21    2.22
  -7   0   6   26.62    2.42
  -7   0   6   27.86    1.73
   6   0  -6  103.89    3.64
   6   0  -6  106.31    4.30
  -6   0   6  115.29    4.51
  -6   0   6  104.10    3.73
   5   0  -6   36.60    2.32
   5   0  -6   38.94    1.62
  -5   0   6   37.69    1.70
  -5   0   6   39.05    2.47
   4   0  -6    2.11    0.85
   4   0  -6    2.32    0.40
  -4   0   6    2.58    0.45
  -4   0   6    2.63    0.98
   3   0  -6  141.74    5.24
   3   0  -6  159.77    4.86
  -3   0   6  158.68    4.86
  -3   0   6  175.65    5.59
   2   0  -6   38.69    1.79
  -2   0   6   37.84    2.04
  -2   0   6   38.87    1.45
   1   0  -6   25.67    1.17
  -1   0   6   26.15    1.10
  -1   0   6   27.24    2.25
   0   0  -6  258.28    7.71
   0   0   6  272.59    7.86
   0   0   6  266.79    7.87
   1   0   6   85.85    2.85
  -2   0  -6   34.40    1.45
   2   0   6   33.31    1.51
  -3   0  -6  127.15    4.19
   3   0   6  131.06    4.26
  -4   0  -6   48.23    2.12
   4   0   6   49.05    2.14
  -5   0  -6   24.91    1.55
   5   0   6   25.69    1.74
  -6   0  -6   59.29    2.64
  -7   0  -6   15.34    1.69
   9  -1  -6    1.83    1.06
  -9   1   6   -1.03    0.72
   8  -1  -6   50.51    2.89
   8  -1  -6   48.63    2.22
  -8   1   6   49.53    2.36
   7  -1  -6   37.03    2.45
   7  -1  -6   35.27    1.70
  -7   1   6   31.43    2.27
  -7   1   6   36.91    2.64
   6  -1  -6    4.89    0.79
   6  -1  -6    3.98    1.09
  -6   1   6    4.19    0.68
  -6   1   6    5.74    1.21
   5  -1  -6  104.59    4.18
  -5   1   6  101.52    3.47
  -5   1   6  106.95    4.30
   4  -1  -6  124.08    3.92
   4  -1  -6  125.89    4.62
  -4   1   6  124.66    3.94
  -4   1   6  122.08    4.67
   3  -1  -6   19.44    1.68
   3  -1  -6   21.34    0.98
  -3   1   6   20.87    1.67
  -3   1   6   22.44    1.00
   2  -1  -6  455.00   13.88
  -2   1   6  490.16   13.57
  -2   1   6  460.43   13.92
   1  -1  -6  215.13    6.53
  -1   1   6  217.42    6.42
  -1   1   6  215.36    6.87
  -1   1   6  212.83    6.40
   0  -1  -6    5.58    0.52
   0   1   6    7.48    0.49
   0   1   6    6.36    0.66
   1   1   6  214.27    6.73
  -2  -1  -6  142.14    4.53
   2   1   6  144.43    4.58
  -3  -1  -6    1.91    0.52
   3   1   6    1.19    0.53
  -4  -1  -6   68.15    2.70
   4   1   6   71.62    2.82
  -5  -1  -6   81.84    3.09
   5   1   6   74.18    3.18
  -6  -1  -6   -0.24    0.64
   9  -2  -6   34.96    2.70
   9  -2  -6   37.98    2.80
  -9   2   6   33.54    2.10
   8  -2  -6    1.99    1.02
   8  -2  -6    0.82    0.58
  -8   2   6    0.50    0.68
   7  -2  -6   33.83    1.62
   7  -2  -6   37.22    2.55
  -7   2   6   34.49    2.60
  -7   2   6   34.49    1.82
   6  -2  -6  132.17    4.29
   6  -2  -6  131.29    5.12
  -6   2   6  133.37    4.37
  -6   2   6  134.64    5.21
   5  -2  -6   51.37    1.91
   5  -2  -6   51.54    2.88
  -5   2   6   52.06    1.99
  -5   2   6   48.20    2.73
   4  -2  -6   76.21    3.40
   4  -2  -6   76.80    2.50
  -4   2   6   75.83    2.52
  -4   2   6   67.98    3.15
   3  -2  -6  238.52    7.78
  -3   2   6  239.49    7.59
  -3   2   6  239.00    7.09
   2  -2  -6   45.58    2.33
  -2   2   6   47.59    1.69
  -2   2   6   45.97    1.68
  -2   2   6   50.83    1.99
   1  -2  -6   33.44    1.71
  -1   2   6   33.85    1.35
  -1   2   6   35.38    1.41
   0  -2  -6  138.66    4.19
   0   2   6  137.58    4.30
   0   2   6  137.72    4.10
  -1  -2  -6   66.78    2.34
   1   2   6   66.64    2.40
  -2  -2  -6   68.52    2.47
   2   2   6   66.70    2.53
  -3  -2  -6  109.50    3.70
   3   2   6  106.72    3.78
  -4  -2  -6   48.64    2.18
   4   2   6   48.89    2.32
  -5  -2  -6    0.94    0.64
  -6  -2  -6   33.45    2.09
   9  -3  -6    2.05    1.23
   9  -3  -6   -0.20    0.72
  -9   3   6    1.12    0.75
   8  -3  -6   36.20    1.76
   8  -3  -6   35.29    2.65
  -8   3   6   33.98    1.94
   7  -3  -6   21.19    1.26
   7  -3  -6   21.44    2.27
  -7   3   6   19.95    2.17
  -7   3   6   21.81    1.45
   6  -3  -6    7.35    0.77
   6  -3  -6    5.89    1.33
  -6   3   6    6.32    1.19
  -6   3   6    7.60    0.97
   5  -3  -6  149.56    4.64
   5  -3  -6  148.58    5.70
  -5   3   6  160.83    4.71
  -5   3   6  138.76    5.41
   4  -3  -6   48.74    2.96
  -4   3   6   53.44    2.50
  -4   3   6   53.38    1.88
   3  -3  -6    2.53    1.07
  -3   3   6    2.52    0.61
  -3   3   6    2.46    0.37
   2  -3  -6   98.70    3.88
  -2   3   6  102.11    3.39
  -2   3   6  100.49    3.18
  -2   3   6  101.84    3.20
   1  -3  -6  154.37    5.22
  -1   3   6  160.43    4.82
  -1   3   6  156.94    4.81
   0  -3  -6    4.58    0.68
   0   3   6    4.54    0.73
  -1  -3  -6  131.41    4.15
   1   3   6  128.86    4.20
  -2  -3  -6   94.35    3.21
   2   3   6   92.32    3.30
  -3  -3  -6    0.39    0.49
   3   3   6    0.11    0.62
  -4  -3  -6   57.74    2.46
   4   3   6   56.02    2.64
  -5  -3  -6   58.54    2.63
   9  -4  -6   44.78    2.89
  -9   4   6   43.00    2.25
   8  -4  -6    3.44    1.35
   8  -4  -6    3.18    0.62
  -8   4   6    3.93    0.78
   7  -4  -6   30.31    1.42
   7  -4  -6   33.25    2.75
  -7   4   6   30.12    1.60
  -7   4   6   26.45    2.51
   6  -4  -6   72.15    3.82
   6  -4  -6   73.11    2.50
  -6   4   6   66.74    3.39
  -6   4   6   74.27    2.60
   5  -4  -6   15.43    2.76
  -5   4   6   17.06    1.03
  -5   4   6   18.22    1.67
   4  -4  -6   70.70    3.57
  -4   4   6   79.58    3.11
  -4   4   6   76.66    2.52
   3  -4  -6  114.53    4.42
  -3   4   6  117.66    3.55
  -3   4   6  112.03    3.51
  -3   4   6  109.56    4.17
   2  -4  -6   62.61    2.83
  -2   4   6   60.87    2.10
  -2   4   6   61.93    2.10
  -2   4   6   62.22    2.28
   1  -4  -6   30.01    1.80
  -1   4   6   28.35    1.22
  -1   4   6   27.30    1.26
   0  -4  -6  104.52    3.60
   0   4   6  105.19    3.45
  -1  -4  -6    8.74    0.83
   1   4   6    8.73    1.03
  -2  -4  -6   34.21    1.63
   2   4   6   34.01    1.78
  -3  -4  -6  120.40    4.11
   3   4   6  120.36    4.30
  -4  -4  -6   15.57    1.36
  -5  -4  -6   19.28    1.69
   8  -5  -6   44.61    3.38
   8  -5  -6   45.86    1.93
  -8   5   6   45.23    2.08
   7  -5  -6   25.04    1.28
   7  -5  -6   21.86    2.79
  -7   5   6   26.20    1.46
   6  -5  -6    2.65    1.37
  -6   5   6    1.39    0.90
  -6   5   6    2.21    0.52
   5  -5  -6  148.50    5.91
  -5   5   6  156.87    5.51
  -5   5   6  157.23    4.75
   4  -5  -6  136.71    5.32
  -4   5   6  147.03    4.94
  -4   5   6  149.13    4.37
  -4   5   6  135.69    4.30
   3  -5  -6   17.32    1.81
  -3   5   6   17.67    1.16
  -3   5   6   18.10    0.89
  -3   5   6   17.44    0.88
   2  -5  -6  176.89    5.89
  -2   5   6  170.12    5.29
  -2   5   6  177.93    5.52
  -2   5   6  174.57    5.29
   1  -5  -6  139.70    4.66
  -1   5   6  133.05    4.28
   0  -5  -6    7.06    0.60
   0  -5  -6    6.63    1.11
   0   5   6    7.48    0.95
  -1  -5  -6  119.61    3.92
   1   5   6  119.73    4.05
  -2  -5  -6   88.03    3.10
   2   5   6   85.02    3.26
  -3  -5  -6    1.93    0.61
   3   5   6    1.79    0.90
  -4  -5  -6   62.23    2.70
   8  -6  -6    4.11    1.77
  -8   6   6    4.75    0.73
   7  -6  -6   30.59    3.12
  -7   6   6   33.36    1.57
   6  -6  -6   43.47    3.22
  -6   6   6   46.64    1.76
  -6   6   6   43.39    2.59
   5  -6  -6    5.85    1.33
  -5   6   6    5.92    0.97
  -5   6   6    5.86    0.71
  -5   6   6    7.88    0.61
   4  -6  -6   20.94    2.53
  -4   6   6   24.60    1.07
  -4   6   6   25.03    1.05
  -4   6   6   25.04    1.57
   3  -6  -6   35.90    2.29
  -3   6   6   35.05    1.73
  -3   6   6   36.65    1.38
  -3   6   6   35.37    1.40
   2  -6  -6    0.54    0.79
  -2   6   6    0.28    0.31
  -2   6   6    0.61    0.37
   1  -6  -6  108.75    3.94
   0  -6  -6  136.37    4.32
   0  -6  -6  143.98    4.66
   0   6   6  139.35    4.58
  -1  -6  -6    7.66    1.07
   1   6   6    9.97    1.32
  -2  -6  -6   15.51    1.18
   2   6   6   16.61    1.70
  -3  -6  -6   68.46    2.76
  -4  -6  -6   16.64    1.59
   7  -7  -6    6.49    1.83
   6  -7  -6   36.41    3.10
  -6   7   6   42.32    1.42
  -6   7   6   40.00    1.50
   5  -7  -6  112.80    4.90
  -5   7   6  117.70    4.44
  -5   7   6  120.26    3.58
  -5   7   6  119.89    3.60
   4  -7  -6   41.11    2.65
  -4   7   6   40.04    2.06
  -4   7   6   42.83    1.51
  -4   7   6   42.78    1.60
   3  -7  -6   14.09    1.88
  -3   7   6   17.23    0.88
  -3   7   6   17.10    1.01
  -3   7   6   16.27    1.21
   2  -7  -6  112.23    4.28
  -2   7   6  115.88    3.70
  -2   7   6  111.88    3.58
   1  -7  -6   68.28    2.96
  -1   7   6   70.56    2.63
   0  -7  -6    6.71    0.99
   0  -7  -6    8.18    0.84
   0   7   6    6.70    0.92
  -1  -7  -6   51.08    2.08
   1   7   6   50.49    2.53
  -2  -7  -6   36.96    1.76
   2   7   6   31.85    2.36
  -3  -7  -6    1.66    0.66
   7  -8  -6   24.52    3.36
   6  -8  -6   60.51    3.75
   5  -8  -6   10.08    1.63
   4  -8  -6   41.14    2.75
  -4   8   6   44.61    2.13
  -4   8   6   42.04    1.41
  -4   8   6   38.55    1.51
   3  -8  -6   70.00    3.39
  -3   8   6   69.90    2.75
  -3   8   6   74.37    2.35
   2  -8  -6    7.69    1.25
  -2   8   6    8.99    0.80
  -2   8   6    7.44    1.19
   1  -8  -6   29.90    1.63
   1  -8  -6   27.70    2.08
  -1   8   6   29.36    1.84
   0  -8  -6   90.57    3.15
   0  -8  -6   86.46    3.47
   0   8   6   87.25    3.53
  -1  -8  -6    5.86    1.25
   1   8   6    6.97    1.21
   6  -9  -6    4.54    1.73
   5  -9  -6   63.85    3.73
   4  -9  -6   22.80    2.46
   3  -9  -6    7.81    1.45
  -3   9   6    9.93    0.74
   2  -9  -6   89.02    4.02
  -2   9   6   94.99    3.03
   1  -9  -6   46.44    2.80
   1  -9  -6   50.56    2.29
   0  -9  -6    5.97    1.36
   2  13  -7   44.62    2.34
  -2 -13   7   42.98    2.46
   1  13  -7   18.61    1.45
  -1 -13   7   16.17    1.65
   0 -13   7    8.41    1.07
   1 -13   7  100.01    3.55
   1 -13   7   99.72    4.10
   2 -13   7   27.88    2.01
   2 -13   7   26.24    1.51
   3 -13   7    5.43    1.10
   3 -13   7    5.53    0.67
   4 -13   7   62.67    3.22
  -3 -12   7   40.66    2.40
   2  12  -7    0.86    0.78
  -2 -12   7   -1.05    0.72
   1  12  -7   51.04    2.23
  -1 -12   7   53.03    2.44
   0 -12   7  100.31    3.60
   1 -12   7   -0.45    0.52
   1 -12   7    0.18    0.58
   2 -12   7   54.89    2.17
   2 -12   7   57.82    2.10
   2 -12   7   56.97    2.75
   3 -12   7   51.90    2.66
   3 -12   7   51.94    2.03
   3 -12   7   54.51    1.91
   4 -12   7    3.99    0.55
   4 -12   7    4.12    0.97
   5 -12   7   85.41    3.90
   5 -12   7   96.25    3.49
   4  11  -7   16.18    1.69
  -4 -11   7   13.19    1.73
   3  11  -7   19.51    1.74
   3  11  -7   18.20    1.63
  -3 -11   7   19.49    1.71
   2  11  -7   95.49    3.47
  -2 -11   7   97.28    3.65
   1  11  -7   59.85    2.41
  -1 -11   7   57.88    2.99
  -1 -11   7   68.49    3.04
   0 -11   7   23.70    1.41
   0 -11   7   21.82    1.58
   1 -11   7  110.63    3.71
   1 -11   7  111.60    4.17
   2 -11   7    2.79    0.74
   2 -11   7    4.36    0.59
   2 -11   7    5.11    0.74
   2 -11   7    3.76    0.80
   3 -11   7   11.21    0.90
   3 -11   7   12.25    1.24
   3 -11   7   12.98    1.31
   3 -11   7   12.97    1.34
   4 -11   7  114.25    3.68
   4 -11   7  114.67    4.37
   5 -11   7   46.59    1.81
   5 -11   7   45.03    2.49
   5 -11   7   42.64    1.78
   6 -11   7   15.73    1.12
   6 -11   7   13.09    1.84
   5  10  -7    1.98    0.90
  -5 -10   7   -0.03    0.92
   4  10  -7   46.54    2.44
  -4 -10   7   42.88    2.41
   3  10  -7   30.74    1.90
   3  10  -7   31.82    1.84
  -3 -10   7   30.54    1.89
   2  10  -7   -0.17    0.48
   2  10  -7   -0.23    0.50
  -2 -10   7    0.77    0.65
  -2 -10   7    0.62    0.64
   1  10  -7   68.97    2.55
  -1 -10   7   71.77    2.69
  -1 -10   7   67.06    2.88
   0  10  -7  137.64    4.34
   0 -10   7  136.73    4.43
   0 -10   7  133.78    4.75
   1 -10   7    1.80    0.47
   1 -10   7    2.17    0.63
   2 -10   7  123.41    4.46
   2 -10   7  126.35    4.52
   2 -10   7  127.07    4.02
   3 -10   7  121.30    4.25
   3 -10   7  118.76    3.69
   3 -10   7   97.47    4.09
   3 -10   7  118.61    4.20
   4 -10   7    1.28    0.67
   4 -10   7    2.11    0.53
   4 -10   7    1.78    0.67
   4 -10   7    1.40    0.42
   5 -10   7   54.68    2.65
   5 -10   7   65.02    2.28
   5 -10   7   62.65    2.84
   5 -10   7   59.61    2.23
   6 -10   7   56.62    2.91
   6 -10   7   59.44    2.35
   6 -10   7   59.40    2.42
   6   9  -7   13.59    1.85
  -6  -9   7   11.81    1.49
   5   9  -7   57.41    2.83
  -5  -9   7   52.77    2.70
   4   9  -7    0.09    0.68
   4   9  -7    1.41    0.67
  -4  -9   7    1.95    0.77
  -4  -9   7    2.24    0.94
   3   9  -7   93.21    3.58
   3   9  -7   91.69    3.35
  -3  -9   7   91.50    3.47
  -3  -9   7   90.88    3.64
   2   9  -7  136.97    4.87
   2   9  -7  138.68    4.62
  -2  -9   7  144.24    4.75
  -2  -9   7  145.56    4.96
   1   9  -7    5.95    0.81
   1   9  -7    6.96    1.12
  -1  -9   7    6.68    0.94
  -1  -9   7    8.02    1.09
   0  -9   7  106.75    3.52
   0  -9   7  103.85    3.80
   1  -9   7  190.94    6.21
   1  -9   7  189.96    5.85
   2  -9   7   73.13    3.20
   2  -9   7   78.46    2.62
   2  -9   7   78.32    3.01
   3  -9   7   45.90    2.14
   3  -9   7   45.36    2.12
   3  -9   7   46.64    1.80
   3  -9   7   46.37    1.77
   4  -9   7   95.65    3.67
   4  -9   7   94.64    3.19
   4  -9   7   97.68    3.60
   4  -9   7   97.87    3.21
   5  -9   7   14.95    1.03
   5  -9   7   16.08    1.33
   5  -9   7   18.13    1.14
   5  -9   7   15.99    1.45
   6  -9   7    5.62    1.08
   6  -9   7    5.11    0.73
   6  -9   7    6.71    1.19
   7  -9   7   43.09    2.78
   7  -9   7   47.24    2.25
   6   8  -7   21.23    1.91
  -6  -8   7   17.01    1.90
   5   8  -7    1.30    0.77
  -5  -8   7    1.47    0.83
   4   8  -7   91.68    3.58
   4   8  -7   86.31    3.34
  -4  -8   7   89.64    3.45
  -4  -8   7   88.96    3.69
   3   8  -7  185.04    5.87
   3   8  -7  178.48    6.07
  -3  -8   7  187.74    6.18
  -3  -8   7  182.40    5.95
   2   8  -7    8.00    0.88
   2   8  -7    7.39    0.98
  -2  -8   7    7.69    1.00
  -2  -8   7    8.00    1.12
   1   8  -7  178.01    5.60
   1   8  -7  179.29    5.88
  -1  -8   7  190.16    5.70
  -1  -8   7  177.49    5.91
   0  -8   7   47.74    2.14
   0  -8   7   53.45    1.97
   1  -8   7    6.57    0.69
   1  -8   7    5.96    0.91
   2  -8   7  107.32    3.70
   2  -8   7  107.78    3.73
   2  -8   7  111.78    3.42
   2  -8   7   91.27    3.74
   3  -8   7  179.57    5.82
   3  -8   7  176.16    5.78
   3  -8   7  179.72    5.50
   3  -8   7  178.79    5.47
   4  -8   7    4.92    0.76
   4  -8   7    3.83    0.69
   4  -8   7    3.32    0.49
   4  -8   7    3.64    0.68
   5  -8   7   69.85    2.56
   5  -8   7   68.20    2.76
   5  -8   7   69.01    2.87
   6  -8   7   51.54    2.16
   6  -8   7   50.15    2.54
   7  -8   7    0.38    0.79
   7  -8   7    0.01    0.98
   7   7  -7    2.12    1.04
   6   7  -7   52.94    2.84
  -6  -7   7   52.70    2.67
   5   7  -7   63.71    2.77
   5   7  -7   69.44    3.06
  -5  -7   7   63.65    2.84
  -5  -7   7   66.61    3.24
   4   7  -7   12.73    1.15
   4   7  -7   11.45    1.25
  -4  -7   7   10.06    1.31
  -4  -7   7   10.97    1.50
   3   7  -7   54.24    2.80
   3   7  -7   59.66    2.32
  -3  -7   7   59.98    2.41
  -3  -7   7   61.89    2.66
   2   7  -7  145.75    4.65
   2   7  -7  139.86    4.79
  -2  -7   7  143.28    4.66
  -2  -7   7  145.66    4.89
   1   7  -7   33.83    1.65
   1   7  -7   34.61    1.47
  -1  -7   7   37.29    1.55
  -1  -7   7   34.26    1.74
   0   7  -7   68.02    2.55
   0  -7   7   66.64    2.35
   0  -7   7   65.48    2.54
   1  -7   7  128.78    4.27
   1  -7   7  127.67    4.06
   2  -7   7   47.74    1.74
   2  -7   7   47.95    1.95
   2  -7   7   38.11    2.06
   3  -7   7   46.12    1.78
   3  -7   7   44.51    1.77
   3  -7   7   45.80    1.95
   3  -7   7   46.29    1.96
   4  -7   7  111.84    3.72
   4  -7   7  113.12    3.90
   4  -7   7  116.41    3.96
   5  -7   7   15.44    1.19
   5  -7   7   18.80    1.42
   5  -7   7   17.83    1.21
   6  -7   7    2.18    0.62
   6  -7   7    0.14    1.34
   7  -7   7   57.90    2.64
   7  -7   7   61.50    3.10
   7   6  -7   26.52    2.14
  -7  -6   7   27.76    2.06
   6   6  -7   25.17    1.95
  -6  -6   7   23.32    1.81
  -6  -6   7   25.38    2.56
   5   6  -7   12.97    1.25
   5   6  -7   13.25    1.44
  -5  -6   7   13.35    1.77
  -5  -6   7   11.78    1.32
   4   6  -7  126.18    4.38
   4   6  -7  130.65    4.65
  -4  -6   7  132.47    4.46
  -4  -6   7  133.20    4.77
   3   6  -7   43.71    2.04
   3   6  -7   43.26    1.84
  -3  -6   7   42.16    1.92
  -3  -6   7   45.05    2.16
   2   6  -7   19.50    1.24
   2   6  -7   19.61    1.10
  -2  -6   7   22.11    1.21
  -2  -6   7   21.01    1.40
   1   6  -7   98.04    3.50
  -1  -6   7  107.75    3.41
  -1  -6   7  102.71    3.57
   0   6  -7  162.45    5.04
   0  -6   7  161.47    4.89
   0  -6   7  147.63    5.27
   1  -6   7   10.64    0.77
   1  -6   7   10.34    0.90
   2  -6   7  176.49    5.57
   2  -6   7  178.65    5.47
   3  -6   7  104.27    3.48
   3  -6   7  107.19    3.59
   3  -6   7  109.61    3.62
   4  -6   7    7.63    0.90
   4  -6   7    6.46    0.87
   4  -6   7    6.60    0.84
   5  -6   7   85.91    3.11
   5  -6   7   87.08    3.14
   5  -6   7   91.96    3.32
   6  -6   7   70.84    3.04
   6  -6   7   71.17    2.80
   7  -6   7   -2.36    1.59
   8   5  -7   27.77    2.34
  -8  -5   7   26.91    2.25
   7   5  -7    2.58    0.92
  -7  -5   7   -0.02    0.76
   6   5  -7   35.90    2.31
   6   5  -7   38.54    2.03
  -6  -5   7   39.28    2.09
  -6  -5   7   37.62    2.86
   5   5  -7   97.46    3.90
   5   5  -7   98.72    3.54
  -5  -5   7   98.62    3.64
  -5  -5   7  101.14    4.13
   4   5  -7   22.75    1.59
   4   5  -7   23.68    1.34
  -4  -5   7   24.32    1.47
  -4  -5   7   22.79    1.80
   3   5  -7   85.49    3.21
   3   5  -7   87.79    3.02
  -3  -5   7   88.27    3.08
  -3  -5   7   87.68    3.34
   2   5  -7  215.75    6.78
   2   5  -7  223.40    6.96
  -2  -5   7  223.68    6.82
  -2  -5   7  233.28    7.05
   1   5  -7   18.27    0.96
   1   5  -7   17.73    1.08
  -1  -5   7   17.53    1.15
  -1  -5   7   18.92    0.98
   0   5  -7  188.07    5.89
   0  -5   7  193.12    5.82
   0  -5   7  191.26    5.93
   1  -5   7  266.82    7.99
   1  -5   7  268.41    8.04
   2  -5   7   24.20    1.16
   2  -5   7   21.64    1.17
   3  -5   7   45.97    1.81
   3  -5   7   47.70    1.85
   3  -5   7   47.10    1.84
   4  -5   7  191.49    5.75
   4  -5   7  174.96    5.62
   4  -5   7  179.88    5.69
   5  -5   7    0.84    0.54
   5  -5   7    1.95    0.47
   5  -5   7    2.05    0.67
  -6   5  -7   57.73    2.41
   6  -5   7   58.19    2.63
   6  -5   7   58.99    2.51
  -7   5  -7   52.85    2.39
   7  -5   7   49.84    2.84
  -8  -4   7    6.65    1.20
   7   4  -7   41.87    2.57
  -7  -4   7   40.56    2.28
   6   4  -7   40.73    2.50
   6   4  -7   48.52    2.17
  -6  -4   7   43.79    3.03
  -6  -4   7   48.47    2.25
   5   4  -7    0.64    0.47
   5   4  -7    0.55    0.69
  -5  -4   7    1.18    1.01
  -5  -4   7    0.96    0.59
   4   4  -7   92.52    3.20
   4   4  -7   92.27    3.54
  -4  -4   7   92.36    3.66
  -4  -4   7   89.84    3.23
   3   4  -7   32.74    1.70
   3   4  -7   33.41    1.47
  -3  -4   7   32.89    1.87
  -3  -4   7   34.85    1.54
   2   4  -7   35.35    1.60
  -2  -4   7   37.60    1.51
  -2  -4   7   33.82    1.71
   1   4  -7  251.49    7.67
  -1  -4   7  259.03    7.72
  -1  -4   7  251.88    7.60
   0   4  -7  192.94    5.87
   0  -4   7  192.87    5.85
   0  -4   7  190.48    5.88
   1  -4   7   66.55    2.36
   1  -4   7   68.40    2.37
   1  -4   7   71.33    2.40
   2  -4   7  206.54    6.25
   2  -4   7  206.34    6.19
   2  -4   7  203.32    6.19
   3  -4   7  124.21    4.09
   3  -4   7  132.44    4.02
   3  -4   7  123.74    3.96
   4  -4   7    0.47    0.46
   4  -4   7    0.80    0.46
   4  -4   7    0.33    0.31
  -5   4  -7  115.58    3.97
   5  -4   7  118.69    4.04
   5  -4   7  113.12    3.74
   5  -4   7  122.06    4.00
  -6   4  -7   56.57    2.35
   6  -4   7   53.35    2.03
   6  -4   7   54.14    2.44
   6  -4   7   52.26    2.54
  -7   4  -7    1.26    0.65
   7  -4   7    0.07    0.78
   8   3  -7   34.34    2.47
  -8  -3   7   25.53    2.04
   7   3  -7    0.30    0.62
   7   3  -7    0.51    0.83
  -7  -3   7   -0.82    1.12
  -7  -3   7    0.08    0.68
   6   3  -7   86.91    3.91
   6   3  -7  101.49    3.52
  -6  -3   7   95.97    4.42
  -6  -3   7   99.89    3.61
   5   3  -7  172.96    5.56
  -5  -3   7  173.74    6.32
  -5  -3   7  173.39    5.85
   4   3  -7    4.30    0.73
   4   3  -7    3.94    0.80
  -4  -3   7    5.52    1.04
  -4  -3   7    4.94    0.81
   3   3  -7  227.07    7.05
   3   3  -7  221.13    6.78
  -3  -3   7  224.27    7.22
  -3  -3   7  219.96    6.78
   2   3  -7  130.21    4.15
   2   3  -7  131.83    4.30
  -2  -3   7  132.78    4.41
  -2  -3   7  132.84    4.16
   1   3  -7   42.99    1.69
  -1  -3   7   44.51    1.65
  -1  -3   7   42.31    1.78
   0   3  -7  136.51    4.24
   0  -3   7  132.11    4.26
   0  -3   7  141.64    4.30
   1  -3   7  254.26    7.27
   1  -3   7  236.01    7.40
   2  -3   7    2.15    0.48
   2  -3   7    2.63    0.41
   2  -3   7    2.83    0.44
   3  -3   7    8.68    0.92
   3  -3   7    9.14    0.68
   3  -3   7    8.55    0.61
  -4   3  -7   32.28    2.09
   4  -3   7   33.50    1.48
   4  -3   7   33.35    1.64
  -5   3  -7    4.25    0.64
   5  -3   7    4.53    0.81
   5  -3   7    6.27    1.08
   5  -3   7    5.37    0.53
  -6   3  -7   11.55    1.22
   6  -3   7   12.25    0.78
   6  -3   7   12.88    1.18
  -7   3  -7   31.47    1.93
  -9  -2   7    3.14    1.08
   8   2  -7   12.93    1.80
  -8  -2   7    9.64    1.58
   7   2  -7   51.27    2.35
   7   2  -7   58.18    2.96
  -7  -2   7   54.96    2.52
  -7  -2   7   51.38    3.22
   6   2  -7    8.12    1.04
   6   2  -7    7.91    1.51
  -6  -2   7    7.82    1.46
  -6  -2   7    7.73    1.20
   5   2  -7   19.44    1.84
   5   2  -7   23.35    1.34
  -5  -2   7   25.41    1.45
  -5  -2   7   23.65    2.32
   4   2  -7  149.99    5.46
   4   2  -7  163.77    5.09
  -4  -2   7  164.37    5.12
  -4  -2   7  166.04    5.86
   3   2  -7   81.77    3.06
   3   2  -7   68.26    3.19
  -3  -2   7   87.14    3.39
  -3  -2   7   85.76    2.79
   2   2  -7   49.74    1.99
   2   2  -7   50.97    1.83
  -2  -2   7   50.12    1.85
  -2  -2   7   49.07    2.22
   1   2  -7  172.32    5.35
  -1  -2   7  175.78    5.37
  -1  -2   7  177.79    5.51
   0   2  -7  108.84    3.41
   0  -2   7  108.55    3.51
   0  -2   7  110.01    3.50
   0  -2   7  109.64    3.52
   1  -2   7   20.99    1.61
   1  -2   7   22.53    1.01
   2  -2   7  218.63    6.22
   2  -2   7  204.47    6.21
   2  -2   7  215.56    6.50
  -3   2  -7  101.52    3.40
   3  -2   7   98.96    3.41
  -4   2  -7   22.63    1.30
   4  -2   7   22.18    1.41
  -5   2  -7  178.51    5.81
   5  -2   7  180.56    5.88
  -6   2  -7   47.05    2.24
  -7   2  -7    1.86    0.77
   9   1  -7   32.59    2.52
  -9  -1   7   26.12    2.17
   8   1  -7   55.29    2.99
  -8  -1   7   54.40    2.65
   7   1  -7    0.31    0.77
   7   1  -7    0.37    0.56
  -7  -1   7   -0.17    1.06
  -7  -1   7   -0.10    0.62
   6   1  -7   49.16    2.65
   6   1  -7   51.15    2.29
  -6  -1   7   49.73    2.93
  -6  -1   7   44.81    2.24
   5   1  -7   54.60    2.86
   5   1  -7   61.24    2.34
  -5  -1   7   63.49    2.40
  -5  -1   7   67.56    3.29
   4   1  -7   12.11    1.48
   4   1  -7   12.26    0.89
  -4  -1   7   13.20    0.96
  -4  -1   7   16.86    1.95
   3   1  -7  138.59    4.35
   3   1  -7  131.93    4.66
  -3  -1   7  143.14    5.11
  -3  -1   7  138.85    4.35
   2   1  -7  256.01    7.86
  -2  -1   7  257.48    7.70
  -2  -1   7  261.65    8.25
   1   1  -7    3.05    0.45
  -1  -1   7    3.91    0.82
  -1  -1   7    2.44    0.37
   0   1  -7   33.72    1.24
   0  -1   7   34.07    1.38
   0  -1   7   31.82    1.64
   1  -1   7  133.59    4.23
   2  -1   7    0.89    0.46
  -3   1  -7  131.36    4.31
   3  -1   7  133.26    4.36
  -4   1  -7  135.91    4.56
   4  -1   7  140.56    4.65
  -5   1  -7    5.24    0.74
   5  -1   7    5.81    0.85
  -6   1  -7   34.13    1.91
  -7   1  -7   35.85    2.66
  -9   0   7    5.34    1.04
   8   0  -7   10.12    1.71
   8   0  -7    7.75    1.23
  -8   0   7    9.81    1.53
   7   0  -7   91.40    3.31
   7   0  -7   96.30    4.02
  -7   0   7   87.21    4.16
  -7   0   7   88.33    3.41
   6   0  -7   40.68    1.84
   6   0  -7   40.57    2.50
  -6   0   7   40.04    1.93
  -6   0   7   40.55    2.69
   5   0  -7   21.84    1.22
   5   0  -7   20.11    1.94
  -5   0   7   24.12    1.31
  -5   0   7   24.40    2.18
   4   0  -7  130.84    4.99
   4   0  -7  141.21    4.47
  -4   0   7  155.59    5.32
  -4   0   7  137.56    4.46
   3   0  -7   63.78    2.83
   3   0  -7   69.07    2.37
  -3   0   7   74.28    3.15
  -3   0   7   68.10    2.37
   2   0  -7   61.56    2.41
  -2   0   7   61.19    2.72
  -2   0   7   61.26    2.14
   1   0  -7  371.81   10.97
  -1   0   7  387.28   10.99
  -1   0   7  386.73   11.01
  -1   0   7  354.37   11.19
   0   0  -7   64.61    2.10
   0   0   7   59.47    2.49
   0   0   7   73.12    2.32
   1   0   7   29.18    1.36
   2   0   7  238.65    7.29
  -3   0  -7   18.43    1.17
   3   0   7   21.83    1.38
  -4   0  -7   11.72    1.09
   4   0   7   12.35    1.30
  -5   0  -7   46.35    2.16
  -6   0  -7   31.02    1.95
   9  -1  -7   30.98    2.55
  -9   1   7   32.36    2.16
   8  -1  -7   35.04    2.51
   8  -1  -7   35.06    1.86
  -8   1   7   33.05    2.02
   7  -1  -7    3.32    0.60
   7  -1  -7    3.36    1.04
  -7   1   7    2.93    0.72
  -7   1   7    2.10    1.18
   6  -1  -7   82.54    2.99
   6  -1  -7   83.83    3.72
  -6   1   7   82.45    3.07
  -6   1   7   90.73    3.95
   5  -1  -7   72.98    2.65
   5  -1  -7   76.28    3.42
  -5   1   7   75.81    2.71
  -5   1   7   78.30    3.57
   4  -1  -7   23.82    1.62
   4  -1  -7   26.11    1.99
  -4   1   7   25.52    2.04
  -4   1   7   27.30    1.26
   3  -1  -7  113.86    4.18
  -3   1   7  113.19    4.26
  -3   1   7  118.32    3.67
   2  -1  -7  168.40    5.60
  -2   1   7  177.79    5.33
  -2   1   7  176.93    5.69
   1  -1  -7   10.65    0.93
  -1   1   7   10.72    0.75
  -1   1   7   10.84    0.79
  -1   1   7   12.25    0.95
   0  -1  -7  190.69    5.62
   0   1   7  195.88    5.64
   0   1   7  188.59    5.90
   1   1   7   68.02    2.45
  -2  -1  -7   11.62    0.98
   2   1   7   11.09    1.07
  -3  -1  -7   96.09    3.39
   3   1   7   98.45    3.50
  -4  -1  -7   49.22    2.18
   4   1   7   49.62    2.32
  -5  -1  -7    1.68    0.62
  -6  -1  -7   28.41    1.98
   9  -2  -7    3.00    1.42
  -9   2   7    1.49    0.87
   8  -2  -7   33.07    1.81
   8  -2  -7   37.87    2.66
  -8   2   7   36.34    2.03
   7  -2  -7   36.53    2.53
   7  -2  -7   34.99    1.69
  -7   2   7   34.03    2.70
   6  -2  -7   14.20    1.03
   6  -2  -7   14.07    1.90
  -6   2   7   14.60    1.20
  -6   2   7   16.09    1.99
   5  -2  -7   75.04    3.66
   5  -2  -7   73.58    2.56
  -5   2   7   77.43    2.63
  -5   2   7   65.42    3.35
   4  -2  -7  217.15    7.09
  -4   2   7  188.54    6.92
  -4   2   7  218.35    6.35
   3  -2  -7    4.68    1.02
  -3   2   7    5.92    0.64
  -3   2   7    7.53    1.19
   2  -2  -7   10.24    1.38
  -2   2   7   11.09    0.77
  -2   2   7   10.43    0.73
  -2   2   7   11.47    1.03
   1  -2  -7  229.40    7.11
  -1   2   7  240.91    7.05
  -1   2   7  233.56    6.98
  -1   2   7  231.12    7.02
   0   2   7   12.15    0.60
   0   2   7   12.53    0.94
   1   2   7   35.33    1.62
  -2  -2  -7  154.94    5.87
   2   2   7  167.34    5.23
  -3  -2  -7  136.84    4.50
   3   2   7  133.03    4.60
  -4  -2  -7   13.12    1.23
   4   2   7   14.16    1.79
  -5  -2  -7   39.58    2.13
  -9   3   7   32.94    2.13
   8  -3  -7   14.74    2.14
   8  -3  -7   14.42    1.26
  -8   3   7   12.20    1.46
   7  -3  -7    0.73    1.05
   7  -3  -7    0.85    0.48
  -7   3   7    0.64    0.60
   6  -3  -7   48.67    1.92
   6  -3  -7   48.71    2.93
  -6   3   7   42.60    2.78
  -6   3   7   53.83    2.07
   5  -3  -7  132.26    5.23
  -5   3   7  123.01    4.93
  -5   3   7  134.80    4.19
   4  -3  -7    7.45    1.31
  -4   3   7    6.67    0.73
  -4   3   7    7.70    1.30
  -3   3   7   68.46    2.32
  -3   3   7   66.80    2.30
   2  -3  -7   89.93    3.60
  -2   3   7   91.12    2.99
  -2   3   7   92.63    3.00
  -2   3   7   92.11    3.15
   1  -3  -7   17.11    1.39
  -1   3   7   18.36    0.91
  -1   3   7   16.39    1.44
   0   3   7  180.89    5.61
   1   3   7   56.37    2.24
  -2  -3  -7    0.39    0.48
   2   3   7   -0.08    0.53
  -3  -3  -7   65.32    2.61
   3   3   7   66.96    2.82
  -4  -3  -7   44.49    2.13
  -5  -3  -7    2.60    0.83
   8  -4  -7   20.33    2.53
   8  -4  -7   20.61    1.38
  -8   4   7   19.17    1.71
   7  -4  -7   47.96    1.94
   7  -4  -7   44.45    3.05
  -7   4   7   44.22    2.04
   6  -4  -7    7.92    1.52
  -6   4   7    9.82    1.04
  -6   4   7    8.55    1.69
   5  -4  -7   46.13    3.00
  -5   4   7   45.66    2.51
  -5   4   7   46.51    1.83
   4  -4  -7  156.84    5.98
  -4   4   7  154.97    4.88
  -4   4   7  165.84    5.52
  -4   4   7  163.48    4.95
   3  -4  -7   30.09    2.40
  -3   4   7   30.49    1.31
  -3   4   7   32.24    1.63
  -3   4   7   33.05    1.34
   2  -4  -7   29.46    2.17
  -2   4   7   26.08    1.25
  -2   4   7   28.58    1.36
  -2   4   7   27.55    1.24
   1  -4  -7  172.82    5.86
  -1   4   7  178.36    5.50
  -1   4   7  182.69    5.45
   0  -4  -7   22.25    1.24
   0   4   7   22.88    1.30
   1   4   7   60.17    2.42
  -2  -4  -7   74.57    2.78
   2   4   7   75.17    2.96
  -3  -4  -7   17.98    1.32
   3   4   7   17.13    1.75
  -4  -4  -7   27.52    1.75
   8  -5  -7   17.26    2.76
  -8   5   7   17.67    1.54
   7  -5  -7   10.46    1.78
  -7   5   7   12.81    1.25
   6  -5  -7  107.08    4.93
  -6   5   7  114.47    3.62
  -6   5   7  104.03    4.50
   5  -5  -7   44.33    3.13
  -5   5   7   46.25    1.78
  -5   5   7   44.51    1.69
  -5   5   7   47.10    2.45
   4  -5  -7   17.10    2.78
  -4   5   7   15.54    1.37
  -4   5   7   16.03    0.92
  -4   5   7   15.96    0.95
   3  -5  -7  158.03    5.85
  -3   5   7  159.57    5.22
  -3   5   7  163.57    4.90
  -3   5   7  155.11    4.88
   2  -5  -7   50.16    2.74
  -2   5   7   50.02    2.07
  -2   5   7   49.05    2.00
  -2   5   7   50.54    1.86
   1  -5  -7   18.04    1.82
  -1   5   7   19.29    1.17
   0  -5  -7   88.05    3.25
   0  -5  -7   94.04    3.03
   0   5   7   92.08    3.23
   1   5   7   59.57    2.48
  -2  -5  -7    0.66    0.46
   2   5   7    0.91    0.82
  -3  -5  -7   46.87    2.17
  -4  -5  -7   26.99    1.83
   7  -6  -7   56.75    3.93
  -7   6   7   61.36    2.32
   6  -6  -7    8.58    1.76
  -6   6   7   11.28    0.88
  -6   6   7   11.37    1.03
   5  -6  -7   17.78    2.53
  -5   6   7   18.38    1.00
  -5   6   7   17.24    1.08
  -5   6   7   17.34    1.60
   4  -6  -7   29.88    2.65
  -4   6   7   34.46    1.40
  -4   6   7   35.70    1.41
  -4   6   7   30.59    1.79
   3  -6  -7    1.52    1.14
  -3   6   7    3.06    0.63
  -3   6   7    3.18    0.46
  -3   6   7    2.89    0.47
   2  -6  -7   75.43    3.34
  -2   6   7   78.91    2.53
  -2   6   7   61.13    2.90
   1  -6  -7   86.21    3.52
  -1   6   7   84.86    3.05
   0  -6  -7   15.49    1.58
   0  -6  -7   16.81    0.91
   0   6   7   17.14    1.44
   1   6   7   35.40    2.06
  -2  -6  -7  106.20    3.81
   2   6   7  111.99    4.50
  -3  -6  -7    5.54    0.87
   7  -7  -7   11.96    2.19
   6  -7  -7   58.82    3.96
  -6   7   7   63.96    2.17
   5  -7  -7   10.59    1.81
  -5   7   7    9.15    0.82
  -5   7   7    7.77    1.35
   4  -7  -7    1.20    1.24
  -4   7   7    1.94    0.47
  -4   7   7    1.84    0.66
  -4   7   7    1.71    0.44
   3  -7  -7   86.63    4.07
  -3   7   7   86.55    3.00
  -3   7   7   90.79    2.92
   2  -7  -7   66.49    3.29
  -2   7   7   73.16    2.50
  -2   7   7   71.16    2.65
   1  -7  -7    6.50    1.22
  -1   7   7    6.57    0.88
   0  -7  -7   41.36    2.36
   0  -7  -7   45.31    1.73
   0   7   7   45.47    2.31
   1   7   7   52.58    2.75
  -2  -7  -7    0.06    0.57
   6  -8  -7    1.00    1.71
   5  -8  -7   46.07    3.44
   4  -8  -7   74.79    3.94
  -4   8   7   77.93    2.51
   3  -8  -7   13.38    2.22
  -3   8   7   15.78    1.01
  -3   8   7   16.10    1.35
  -2   8   7   71.06    2.85
  -2   8   7   71.96    2.55
   1  -8  -7   69.27    2.70
   1  -8  -7   62.78    3.21
  -1   8   7   66.86    2.91
   0   8   7    0.92    0.96
   4  -9  -7   13.78    2.63
   3  -9  -7   61.40    3.60
   2  -9  -7   32.51    2.85
   1  13  -8   14.87    1.48
  -1 -13   8    9.72    1.57
   0 -13   8   74.22    3.34
   1 -13   8   27.91    1.97
   1 -13   8   30.24    2.13
   2 -13   8   15.84    1.15
   2 -13   8   12.19    1.24
   2 -13   8   12.21    1.57
   3 -13   8   62.23    2.46
   3 -13   8   67.95    3.24
   4 -13   8   34.85    2.44
  -3 -12   8    0.49    0.88
   2  12  -8   55.63    2.58
  -2 -12   8   53.54    2.65
   1  12  -8   73.11    2.82
  -1 -12   8   71.30    2.96
   0 -12   8   10.01    1.41
   1 -12   8   51.14    2.18
   2 -12   8   53.81    2.24
   2 -12   8   54.56    2.73
   2 -12   8   59.86    2.12
   3 -12   8    2.83    0.56
   3 -12   8    4.28    0.93
   4 -12   8   59.11    2.18
   4 -12   8   53.53    2.82
   4 -12   8   52.89    2.13
   5 -12   8   65.58    3.33
   5 -12   8   72.67    2.80
   4  11  -8   19.12    1.83
  -4 -11   8   14.90    1.89
   3  11  -8   61.29    2.97
   3  11  -8   64.22    2.99
  -3 -11   8   65.97    2.93
   2  11  -8   19.19    1.52
  -2 -11   8   16.73    1.55
   1  11  -8   10.59    1.16
  -1 -11   8    9.41    1.24
   0 -11   8   67.59    3.01
   0 -11   8   67.83    2.62
   1 -11   8   24.29    1.38
   1 -11   8   24.87    1.69
   2 -11   8   23.84    1.33
   2 -11   8   25.85    1.24
   2 -11   8   24.23    1.66
   2 -11   8   23.76    1.68
   3 -11   8  114.02    3.69
   3 -11   8  112.21    4.59
   3 -11   8  116.37    4.34
   3 -11   8  111.84    3.74
   4 -11   8   36.32    2.16
   4 -11   8   38.40    1.64
   4 -11   8   37.08    1.65
   5 -11   8    4.68    0.70
   5 -11   8    4.73    1.06
   5 -11   8    6.02    0.98
   5  10  -8   40.27    2.52
  -5 -10   8   35.81    2.47
   4  10  -8   68.72    3.14
  -4 -10   8   66.87    3.06
   3  10  -8    0.94    0.66
   3  10  -8    0.69    0.69
  -3 -10   8    1.48    0.76
   2  10  -8  120.06    4.44
   2  10  -8  123.50    4.16
  -2 -10   8  114.54    4.44
  -2 -10   8  128.91    4.29
   1  10  -8  148.39    4.73
  -1 -10   8  142.40    5.10
   0 -10   8    1.83    0.63
   0 -10   8    1.38    0.50
   1 -10   8  105.70    3.55
   1 -10   8  104.43    3.91
   2 -10   8  149.72    4.71
   2 -10   8  151.78    5.23
   2 -10   8  147.87    4.75
   2 -10   8  150.71    5.19
   3 -10   8    4.77    0.76
   3 -10   8    3.48    0.73
   3 -10   8    4.23    0.56
   4 -10   8  100.61    3.38
   4 -10   8   99.48    3.85
   4 -10   8   98.06    3.78
   4 -10   8  102.04    3.36
   5 -10   8   52.32    2.48
   5 -10   8   54.94    2.64
   5 -10   8   56.49    2.15
   5 -10   8   45.50    2.29
   6 -10   8    1.03    0.63
   6 -10   8   -0.61    0.83
   6 -10   8   -0.03    0.50
   6   9  -8   30.01    2.35
  -6  -9   8   26.50    2.33
   5   9  -8    2.29    0.83
  -5  -9   8    0.14    0.82
   4   9  -8   15.16    1.52
   4   9  -8   16.90    1.55
  -4  -9   8   15.75    1.53
   3   9  -8   35.65    1.98
   3   9  -8   38.41    1.89
  -3  -9   8   37.24    2.16
  -3  -9   8   34.02    1.90
   2   9  -8    2.85    0.58
   2   9  -8    2.91    0.68
  -2  -9   8    3.44    0.79
  -2  -9   8    3.66    0.68
   1   9  -8   75.26    3.00
   1   9  -8   76.68    2.74
  -1  -9   8   77.53    2.83
  -1  -9   8   74.24    3.06
   0  -9   8  201.62    6.61
   0  -9   8  206.11    6.33
   1  -9   8   14.11    1.22
   1  -9   8   13.71    0.95
   2  -9   8   40.20    1.96
   2  -9   8   37.36    1.64
   2  -9   8   40.37    1.97
   2  -9   8   41.89    1.65
   3  -9   8  154.95    5.17
   3  -9   8  150.00    5.33
   3  -9   8  149.34    4.82
   3  -9   8  156.32    4.81
   4  -9   8   32.07    1.83
   4  -9   8   33.52    1.52
   4  -9   8   33.74    1.78
   4  -9   8   32.77    1.53
   5  -9   8   11.87    1.23
   5  -9   8   13.16    1.38
   5  -9   8   10.94    1.01
   5  -9   8   13.10    1.09
   6  -9   8   44.40    2.50
   6  -9   8   44.04    2.25
   6  -9   8   46.98    2.13
   6   8  -8   18.44    1.96
  -6  -8   8   15.39    1.85
   5   8  -8  161.35    5.81
  -5  -8   8  156.72    5.53
   4   8  -8   97.52    3.78
   4   8  -8   93.14    3.52
  -4  -8   8   92.38    3.59
  -4  -8   8   93.85    3.90
   3   8  -8    1.77    0.57
   3   8  -8    2.70    0.68
  -3  -8   8    3.86    0.84
  -3  -8   8    2.50    0.64
   2   8  -8  111.19    3.88
   2   8  -8  115.67    4.12
  -2  -8   8  120.26    4.22
  -2  -8   8  116.40    4.06
   1   8  -8   99.15    3.37
  -1  -8   8   97.72    3.41
  -1  -8   8  102.29    3.69
   0  -8   8    0.92    0.54
   0  -8   8    0.53    0.41
   1  -8   8  142.93    4.84
   1  -8   8  146.05    4.60
   2  -8   8   65.47    2.32
   2  -8   8   62.29    2.27
   2  -8   8   62.46    2.53
   3  -8   8    0.07    0.42
   3  -8   8    0.87    0.37
   3  -8   8    1.06    0.52
   3  -8   8    0.43    0.39
   4  -8   8   62.96    2.33
   4  -8   8   60.70    2.66
   4  -8   8   62.53    2.32
   4  -8   8   59.54    2.50
   5  -8   8   30.05    1.80
   5  -8   8   31.66    1.68
   5  -8   8   29.19    1.54
   6  -8   8    0.39    0.61
   6  -8   8    0.72    0.64
   7  -8   8   31.75    2.45
   7  -8   8   35.26    2.12
   7   7  -8   19.60    2.18
  -7  -7   8   15.14    1.93
   6   7  -8   33.37    2.31
  -6  -7   8   28.95    2.04
   5   7  -8   10.90    1.28
   5   7  -8   10.55    1.47
  -5  -7   8   11.72    1.44
  -5  -7   8   11.50    1.83
   4   7  -8   20.20    1.56
   4   7  -8   20.02    1.40
  -4  -7   8   22.22    1.84
  -4  -7   8   17.76    1.44
   3   7  -8  140.83    4.64
   3   7  -8  139.36    4.86
  -3  -7   8  143.37    4.95
  -3  -7   8  137.63    4.67
   2   7  -8   10.43    0.94
   2   7  -8    9.04    1.02
  -2  -7   8    8.97    1.18
  -2  -7   8    8.62    0.97
   1   7  -8   54.03    2.08
   1   7  -8   55.28    2.29
  -1  -7   8   56.75    2.16
  -1  -7   8   54.94    2.36
   0   7  -8  129.83    4.30
   0  -7   8  128.10    4.32
   0  -7   8  125.20    4.12
   1  -7   8   50.59    2.13
   1  -7   8   52.27    1.97
   2  -7   8   33.43    1.60
   2  -7   8   32.04    1.45
   2  -7   8   32.86    1.46
   3  -7   8  188.24    5.96
   3  -7   8  186.79    5.78
   3  -7   8  183.09    5.81
   3  -7   8  187.78    5.93
   4  -7   8   56.16    2.21
   4  -7   8   57.20    2.35
   4  -7   8   55.65    2.26
   5  -7   8   38.81    2.01
   5  -7   8   39.95    1.84
   5  -7   8   37.89    1.81
   6  -7   8   59.65    2.48
   6  -7   8   49.79    3.54
   6  -7   8   59.08    2.40
   7  -7   8   10.13    1.87
   7   6  -8    6.18    1.24
  -7  -6   8    6.25    1.14
   6   6  -8    5.18    1.05
  -6  -6   8    4.08    0.89
   5   6  -8   72.31    3.19
   5   6  -8   70.30    2.86
  -5  -6   8   70.88    3.43
  -5  -6   8   69.39    2.94
   4   6  -8   68.61    2.96
   4   6  -8   68.72    2.70
  -4  -6   8   68.55    2.75
  -4  -6   8   71.34    3.12
   3   6  -8    3.73    0.60
   3   6  -8    3.81    0.77
  -3  -6   8    4.05    0.87
  -3  -6   8    3.57    0.67
   2   6  -8  157.67    5.28
   2   6  -8  164.35    5.11
  -2  -6   8  163.63    5.15
  -2  -6   8  160.51    5.37
   1   6  -8  159.30    5.25
   1   6  -8  164.72    5.11
  -1  -6   8  166.06    5.14
  -1  -6   8  162.80    5.32
   0   6  -8    0.74    0.40
   0  -6   8    0.53    0.35
   0  -6   8    0.16    0.47
   1  -6   8  143.29    5.80
   1  -6   8  177.91    5.10
   2  -6   8   81.61    2.91
   2  -6   8   82.35    2.85
   2  -6   8   81.69    2.82
   3  -6   8    5.40    0.75
   3  -6   8    3.77    0.57
   3  -6   8    4.90    0.76
   4  -6   8  120.49    3.87
   4  -6   8  103.43    3.79
   4  -6   8  112.36    3.78
   5  -6   8   82.44    2.98
   5  -6   8   88.27    3.20
   5  -6   8   82.78    3.09
   6  -6   8    0.92    0.64
   6  -6   8   -1.29    0.75
   6  -6   8    1.43    0.56
   7  -6   8   37.57    2.50
   8   5  -8    3.44    1.17
  -8  -5   8    0.28    1.41
   7   5  -8   26.33    2.19
  -7  -5   8   27.16    2.01
   6   5  -8   55.93    2.56
   6   5  -8   55.60    2.94
  -6  -5   8   60.82    2.69
   5   5  -8    9.86    1.06
   5   5  -8   10.97    1.40
  -5  -5   8   10.03    1.79
  -5  -5   8    9.44    1.20
   4   5  -8  105.24    3.86
   4   5  -8   95.62    3.46
  -4  -5   8   95.57    3.51
  -4  -5   8   99.92    3.93
   3   5  -8   62.25    2.38
   3   5  -8   61.15    2.58
  -3  -5   8   66.29    2.44
  -3  -5   8   63.64    2.77
   2   5  -8    0.86    0.40
   2   5  -8    0.97    0.48
  -2  -5   8    1.22    0.41
  -2  -5   8    1.17    0.60
   1   5  -8  143.56    4.55
  -1  -5   8  125.70    5.15
  -1  -5   8  148.82    4.48
   0   5  -8  350.76   10.45
   0  -5   8  352.90   10.41
   0  -5   8  349.95   10.48
   1  -5   8    3.14    0.46
   1  -5   8    2.80    0.48
   1  -5   8    3.52    0.55
   2  -5   8  114.55    3.74
   2  -5   8  114.30    3.72
   3  -5   8   69.57    2.45
   3  -5   8   66.31    2.40
   3  -5   8   68.08    2.51
   4  -5   8    5.73    0.68
   4  -5   8    5.67    0.93
   4  -5   8    4.84    0.83
   5  -5   8   33.83    1.77
   5  -5   8   34.70    1.48
   5  -5   8   33.14    1.77
   6  -5   8   81.21    3.22
   8   4  -8   63.11    3.36
  -8  -4   8   56.90    3.03
   7   4  -8   17.95    1.92
  -7  -4   8   14.74    1.60
   6   4  -8    0.35    0.58
   6   4  -8    0.35    0.73
  -6  -4   8    0.95    0.67
  -6  -4   8    0.35    1.23
   5   4  -8  138.70    4.61
   5   4  -8  130.92    5.02
  -5  -4   8  142.24    5.37
  -5  -4   8  136.90    4.65
   4   4  -8   95.80    3.35
   4   4  -8  100.09    3.73
  -4  -4   8   92.62    3.42
  -4  -4   8   93.59    3.85
   3   4  -8   49.13    2.17
   3   4  -8   49.20    1.94
  -3  -4   8   48.13    1.96
  -3  -4   8   46.33    2.31
   2   4  -8  129.82    4.42
   2   4  -8  137.63    4.32
  -2  -4   8  138.77    4.61
  -2  -4   8  133.74    4.33
   1   4  -8   74.37    2.61
  -1  -4   8   71.68    2.55
  -1  -4   8   71.76    2.67
   0   4  -8   30.31    1.34
   0  -4   8   29.67    1.35
   0  -4   8   29.72    1.42
   1  -4   8  168.73    5.29
   1  -4   8  167.36    5.21
   1  -4   8  170.93    5.26
   2  -4   8  109.42    3.65
   2  -4   8  110.89    3.53
   2  -4   8  111.32    3.53
   3  -4   8   15.57    0.88
   3  -4   8   14.57    1.10
   3  -4   8   17.14    0.95
   4  -4   8  136.30    4.55
   4  -4   8  139.91    4.36
   4  -4   8  134.43    4.24
   5  -4   8   42.46    1.58
   5  -4   8   42.31    2.03
   5  -4   8   40.28    1.89
  -6   4  -8    1.81    0.60
   6  -4   8    0.56    0.78
   6  -4   8    1.66    0.38
  -7   4  -8   33.86    2.07
   8   3  -8    2.05    1.00
  -8  -3   8    0.29    0.85
   7   3  -8   29.90    2.25
  -7  -3   8   26.14    1.89
   6   3  -8   28.36    1.62
   6   3  -8   25.16    2.08
  -6  -3   8   30.57    1.76
  -6  -3   8   27.81    2.62
   5   3  -8   -0.42    0.42
   5   3  -8   -0.05    0.71
  -5  -3   8   -0.17    0.50
  -5  -3   8   -0.04    1.03
   4   3  -8  120.59    4.39
   4   3  -8  120.26    4.00
  -4  -3   8  121.91    4.69
  -4  -3   8  118.37    4.02
   3   3  -8   93.68    3.13
   3   3  -8   93.22    3.40
  -3  -3   8   87.50    3.57
  -3  -3   8   92.30    3.15
   2   3  -8    6.88    0.70
   2   3  -8    6.18    0.85
  -2  -3   8    7.07    0.74
  -2  -3   8    6.21    1.15
   1   3  -8  127.60    4.07
  -1  -3   8  124.88    4.06
  -1  -3   8  127.50    4.21
   0   3  -8  206.20    6.22
   0  -3   8  209.78    6.32
   0  -3   8  202.33    6.29
   1  -3   8   73.27    2.48
   1  -3   8   72.33    2.56
   2  -3   8   12.90    0.71
   2  -3   8   12.12    0.97
   2  -3   8   11.87    0.98
   3  -3   8  183.96    5.57
   3  -3   8  189.93    5.93
   3  -3   8  190.04    5.61
   4  -3   8   37.62    1.84
  -5   3  -8    7.49    1.04
   5  -3   8    7.55    1.20
  -6   3  -8   42.32    2.13
   8   2  -8   31.57    2.40
  -8  -2   8   24.63    1.99
   7   2  -8   16.95    1.41
   7   2  -8   19.71    1.96
  -7  -2   8   17.39    1.58
   6   2  -8   33.48    1.73
   6   2  -8   32.46    2.25
  -6  -2   8   33.14    2.66
  -6  -2   8   32.70    1.78
   5   2  -8  138.09    5.30
   5   2  -8  151.37    4.85
  -5  -2   8  154.35    5.77
   4   2  -8   33.61    1.52
   4   2  -8   31.53    1.99
  -4  -2   8   33.48    1.58
  -4  -2   8   34.69    2.51
   3   2  -8    0.85    0.36
   3   2  -8    0.86    0.57
  -3  -2   8    0.20    0.38
  -3  -2   8    1.43    0.97
   2   2  -8  227.97    6.89
  -2  -2   8  218.94    7.16
  -2  -2   8  221.46    6.77
   1   2  -8  190.75    6.00
  -1  -2   8  197.10    6.05
  -1  -2   8  204.38    6.28
   0   2  -8   65.54    2.24
   0  -2   8   68.18    2.40
   0  -2   8   65.70    2.47
   0  -2   8   67.08    2.37
   1  -2   8   96.33    3.11
   1  -2   8   94.20    3.20
   2  -2   8   36.77    1.68
   3  -2   8   64.71    2.53
  -4   2  -8  131.68    4.46
   4  -2   8  133.79    4.51
  -5   2  -8   45.22    2.11
  -6   2  -8    2.00    0.70
   8   1  -8    1.95    0.99
  -8  -1   8    0.19    0.79
   7   1  -8   28.63    2.21
   7   1  -8   29.56    1.74
  -7  -1   8   28.48    1.84
   6   1  -8   81.67    3.63
   6   1  -8   81.73    3.08
  -6  -1   8   86.02    3.98
  -6  -1   8   84.71    3.15
   5   1  -8   -0.24    0.38
   5   1  -8    0.31    0.89
  -5  -1   8    0.18    1.04
  -5  -1   8    0.72    0.47
   4   1  -8   93.76    3.19
   4   1  -8   81.12    3.58
  -4  -1   8   96.01    3.20
  -4  -1   8  103.52    4.14
   3   1  -8  147.91    5.11
  -3  -1   8  154.62    4.80
  -3  -1   8  155.35    6.07
   2   1  -8   31.05    1.55
  -2  -1   8   31.87    1.40
  -2  -1   8   33.55    2.22
   1   1  -8  210.29    6.33
  -1  -1   8  213.77    6.40
  -1  -1   8  203.30    6.77
   0   1  -8   80.78    2.47
   0  -1   8   70.73    2.98
   1  -1   8    0.23    0.43
   2  -1   8  120.13    4.00
   3  -1   8  206.57    6.52
  -4   1  -8    0.65    0.50
   4  -1   8    1.06    0.64
  -5   1  -8   24.29    1.57
  -6   1  -8   42.69    2.24
   8   0  -8   49.68    2.86
  -8   0   8   45.31    2.42
   7   0  -8   21.69    1.44
   7   0  -8   21.09    2.03
  -7   0   8   18.29    1.55
   6   0  -8   32.09    2.27
   6   0  -8   31.43    1.59
  -6   0   8   31.08    1.82
  -6   0   8   32.18    2.53
   5   0  -8  173.97    5.48
   5   0  -8  161.73    6.40
  -5   0   8  173.93    5.52
  -5   0   8  183.14    6.37
   4   0  -8   22.95    1.20
   4   0  -8   19.81    1.80
  -4   0   8   23.57    1.25
  -4   0   8   24.47    2.10
   3   0  -8   53.32    2.47
  -3   0   8   56.64    2.05
   2   0  -8  208.76    6.48
  -2   0   8  205.94    6.77
  -2   0   8  207.20    6.32
   1   0  -8   38.64    1.58
  -1   0   8   40.84    1.94
  -1   0   8   41.57    1.65
  -1   0   8   40.68    1.65
   0   0  -8   52.20    1.75
   0   0   8   53.69    1.90
   0   0   8   51.61    1.99
   1   0   8   77.19    2.76
   2   0   8   90.52    3.21
  -3   0  -8   14.01    1.14
   3   0   8   15.65    1.29
  -4   0  -8   73.36    2.86
   4   0   8   73.90    3.00
  -5   0  -8   17.68    1.44
  -6   0  -8    0.26    0.83
   8  -1  -8    0.05    0.65
   8  -1  -8    0.97    0.99
  -8   1   8   -0.95    0.69
   7  -1  -8   33.56    1.70
   7  -1  -8   35.84    2.48
  -7   1   8   31.44    1.86
   6  -1  -8   32.07    1.62
   6  -1  -8   33.92    2.36
  -6   1   8   36.05    2.59
  -6   1   8   32.85    2.33
   5  -1  -8    1.85    0.95
   5  -1  -8    2.61    0.49
  -5   1   8    2.12    0.52
  -5   1   8    3.78    1.11
   4  -1  -8   57.67    2.79
  -4   1   8   59.18    2.17
  -4   1   8   56.54    2.92
   3  -1  -8   57.62    2.61
  -3   1   8   57.52    2.11
   2  -1  -8   -0.19    0.57
  -2   1   8    0.07    0.35
  -2   1   8   -0.15    0.31
  -2   1   8    0.27    0.61
   1  -1  -8  130.86    4.17
  -1   1   8  131.65    4.23
  -1   1   8  136.38    4.24
  -1   1   8  130.03    4.21
   0  -1  -8  149.60    4.52
   0   1   8  155.23    4.84
   1   1   8    0.04    0.48
   2   1   8   50.29    2.14
  -3  -1  -8   70.93    2.74
   3   1   8   70.59    2.85
  -4  -1  -8    3.73    0.71
  -5  -1  -8   31.85    1.93
   8  -2  -8   38.88    2.70
   8  -2  -8   35.99    1.92
  -8   2   8   34.22    2.07
   7  -2  -8    1.81    1.05
   7  -2  -8    1.23    0.56
  -7   2   8    0.64    0.65
   6  -2  -8   42.97    1.84
   6  -2  -8   43.32    2.67
  -6   2   8   41.29    2.82
  -6   2   8   45.11    1.97
   5  -2  -8  111.94    4.39
  -5   2   8  103.42    4.41
  -5   2   8  111.16    3.65
   4  -2  -8   46.53    2.61
  -4   2   8   47.00    2.56
  -4   2   8   51.39    1.91
   3  -2  -8   30.19    2.01
  -3   2   8   34.84    1.89
  -3   2   8   30.86    1.38
   2  -2  -8  135.32    4.70
  -2   2   8  140.11    4.43
  -2   2   8  139.61    4.41
  -2   2   8  144.85    4.61
   1  -2  -8   17.84    1.13
  -1   2   8   18.43    1.12
  -1   2   8   17.55    0.95
  -1   2   8   18.49    1.05
   0   2   8   47.94    1.97
   1   2   8  283.09    8.61
   2   2   8   49.88    2.21
  -3  -2  -8   15.73    1.25
   3   2   8   15.39    1.49
  -4  -2  -8   66.78    2.76
  -5  -2  -8   19.18    1.68
   8  -3  -8    1.94    1.17
   8  -3  -8    0.39    0.65
  -8   3   8   -0.81    0.70
   7  -3  -8   37.69    1.73
   7  -3  -8   36.40    2.65
  -7   3   8   33.60    2.02
   6  -3  -8   58.57    3.20
  -6   3   8   53.54    3.16
  -6   3   8   64.17    2.40
   5  -3  -8    1.28    1.02
  -5   3   8    1.00    0.90
  -5   3   8    0.63    0.45
   4  -3  -8  108.11    4.37
  -4   3   8  113.61    4.19
  -4   3   8  107.97    3.59
   3  -3  -8  123.45    4.61
  -3   3   8  123.87    3.98
  -3   3   8  119.05    3.95
  -3   3   8  131.66    4.35
   2  -3  -8    7.35    1.34
  -2   3   8    9.09    0.78
  -2   3   8    9.03    0.84
  -2   3   8    8.43    0.83
   1  -3  -8   69.31    2.57
  -1   3   8   70.14    2.53
  -1   3   8   69.52    2.38
  -1   3   8   71.44    2.52
   0   3   8   94.82    3.29
   1   3   8    4.41    0.70
   2   3   8   91.86    3.46
  -3  -3  -8   25.66    1.54
  -4  -3  -8    0.40    0.65
   8  -4  -8   36.01    3.00
   8  -4  -8   42.56    2.15
  -8   4   8   37.17    2.15
   7  -4  -8    8.18    1.55
  -7   4   8    5.89    0.85
   6  -4  -8   56.60    3.23
  -6   4   8   54.56    2.16
  -6   4   8   46.64    2.91
   5  -4  -8  120.24    4.94
  -5   4   8  120.18    3.91
  -5   4   8  119.69    4.63
   4  -4  -8   15.95    2.10
  -4   4   8   18.01    1.49
  -4   4   8   17.73    1.06
  -4   4   8   17.14    1.04
   3  -4  -8   36.20    2.43
  -3   4   8   37.48    1.82
  -3   4   8   37.99    1.58
  -3   4   8   39.25    1.59
   2  -4  -8  170.50    5.73
  -2   4   8  166.72    5.30
  -2   4   8  170.86    5.23
  -2   4   8  162.32    5.21
   1  -4  -8   10.07    1.20
  -1   4   8   11.29    1.04
   0   4   8   18.98    1.34
   1   4   8   83.11    3.14
   2   4   8    4.50    0.91
  -3  -4  -8   26.44    1.64
   7  -5  -8   38.11    3.05
  -7   5   8   37.78    1.90
   6  -5  -8   12.52    2.24
  -6   5   8   11.79    1.13
   5  -5  -8    9.87    1.59
  -5   5   8   11.24    0.99
  -5   5   8   10.12    1.12
  -5   5   8    9.46    1.47
   4  -5  -8   37.76    2.81
  -4   5   8   44.13    1.69
  -4   5   8   40.10    2.07
  -4   5   8   37.24    1.79
   3  -5  -8   41.53    2.74
  -3   5   8   42.52    1.75
  -3   5   8   41.74    1.94
  -3   5   8   43.76    1.73
   2  -5  -8   10.52    1.76
  -2   5   8    9.09    1.05
  -2   5   8   10.42    0.89
  -2   5   8   11.16    1.04
   1  -5  -8  109.92    3.86
  -1   5   8  103.45    3.63
   0   5   8   46.97    2.13
   1   5   8    1.13    0.78
  -3  -5  -8   40.59    2.10
   7  -6  -8   10.58    1.91
   6  -6  -8   23.17    2.84
  -6   6   8   25.23    1.71
  -6   6   8   29.06    1.64
   5  -6  -8   63.66    3.79
  -5   6   8   62.11    2.96
  -5   6   8   68.74    2.39
  -5   6   8   63.90    2.33
   4  -6  -8    5.34    1.48
  -4   6   8    6.34    1.07
  -4   6   8    4.18    0.79
  -4   6   8    6.52    0.84
   3  -6  -8   32.58    2.72
  -3   6   8   34.54    1.76
  -3   6   8   35.33    1.54
  -3   6   8   34.91    1.62
   2  -6  -8   81.88    3.77
  -2   6   8   85.43    2.93
  -2   6   8   84.43    3.02
   1  -6  -8    3.56    1.00
  -1   6   8    4.10    0.80
  -1   6   8    4.38    0.79
   0   6   8   37.77    2.07
   1   6   8   62.85    2.89
   6  -7  -8   15.56    2.98
   5  -7  -8    7.06    1.76
  -5   7   8    9.20    0.98
   4  -7  -8   65.62    3.93
  -4   7   8   72.40    2.61
  -4   7   8   73.49    2.76
  -4   7   8   68.90    2.95
   3  -7  -8   40.87    3.14
  -3   7   8   44.30    1.83
  -3   7   8   47.63    2.02
   2  -7  -8    1.40    1.30
  -2   7   8    1.83    0.57
  -2   7   8    2.53    0.75
   1  -7  -8   89.09    3.90
  -1   7   8   84.91    3.46
  -1   7   8   93.80    3.46
   0   7   8   70.24    3.10
   4  -8  -8    3.46    1.75
   3  -8  -8   34.84    3.20
  -3   8   8   36.33    1.95
  -2   8   8   50.00    2.12
  -1 -13   9   66.18    3.06
   0 -13   9   29.92    1.89
   1 -13   9    8.62    1.42
   1 -13   9    9.20    1.43
   2 -13   9   81.77    3.73
   2 -13   9   88.63    3.53
   3 -13   9   57.51    3.00
   3 -13   9   55.15    2.37
  -3 -12   9   52.54    2.79
   2  12  -9   49.31    2.58
  -2 -12   9   47.36    2.51
   1  12  -9    4.69    0.89
  -1 -12   9    4.34    0.84
   0 -12   9   23.92    1.58
   1 -12   9   49.93    2.22
   2 -12   9    0.46    0.78
   2 -12   9   -0.09    0.66
   2 -12   9    0.50    0.45
   3 -12   9   49.19    2.26
   3 -12   9   47.50    2.61
   3 -12   9   53.96    2.04
   4 -12   9   61.55    3.05
   4  11  -9   67.82    3.33
  -4 -11   9   68.73    3.26
   3  11  -9   19.29    1.71
  -3 -11   9   17.91    1.76
   2  11  -9    4.30    0.88
  -2 -11   9    6.04    0.93
   1  11  -9   92.29    3.39
  -1 -11   9   93.81    3.45
   0 -11   9   68.91    2.71
   2 -11   9  117.01    3.79
   2 -11   9  116.35    4.35
   2 -11   9  108.72    3.96
   3 -11   9   39.76    1.66
   3 -11   9   30.20    1.98
   3 -11   9   35.25    2.07
   4 -11   9   10.80    1.07
   4 -11   9   12.33    1.06
   4 -11   9    9.32    1.41
   5 -11   9   82.30    3.02
   5 -11   9   83.43    3.03
   5 -11   9   80.71    3.60
   5  10  -9   48.68    2.84
  -5 -10   9   45.37    2.76
   4  10  -9    2.76    0.86
  -4 -10   9    2.13    0.91
   3  10  -9   76.18    3.28
   3  10  -9   73.76    3.09
  -3 -10   9   80.77    3.20
   2  10  -9   47.45    2.37
   2  10  -9   49.67    2.23
  -2 -10   9   49.57    2.27
   1  10  -9    1.74    0.61
  -1 -10   9    2.64    0.75
  -1 -10   9    2.81    0.65
   0 -10   9  165.83    5.48
   0 -10   9  162.99    5.63
   1 -10   9   97.62    3.72
   1 -10   9   99.07    3.43
   2 -10   9    1.21    0.47
   2 -10   9    1.21    0.59
   2 -10   9    1.35    0.64
   2 -10   9    1.53    0.47
   3 -10   9   58.31    2.60
   3 -10   9   48.07    2.43
   3 -10   9   58.89    2.57
   3 -10   9   59.88    2.22
   4 -10   9   63.77    2.79
   4 -10   9   62.60    2.50
   4 -10   9   69.75    2.49
   4 -10   9   65.43    2.89
   5 -10   9   -0.37    0.48
   5 -10   9    0.51    1.14
   5 -10   9    0.75    0.55
   5   9  -9   10.60    1.62
  -5  -9   9    8.43    1.23
   4   9  -9   58.81    2.85
  -4  -9   9   61.49    2.79
   3   9  -9    8.11    1.20
   3   9  -9    6.95    1.16
  -3  -9   9    8.81    1.20
  -3  -9   9    8.61    1.40
   2   9  -9   43.08    2.19
   2   9  -9   44.41    2.03
  -2  -9   9   49.73    2.39
  -2  -9   9   47.28    2.12
   1   9  -9  110.53    4.11
   1   9  -9  110.91    3.87
  -1  -9   9  119.91    4.25
  -1  -9   9  117.99    3.96
   0  -9   9   11.78    1.22
   0  -9   9   11.69    1.09
   1  -9   9   29.56    1.43
   1  -9   9   28.63    1.66
   2  -9   9  154.23    4.99
   2  -9   9  157.60    4.97
   2  -9   9  156.30    5.28
   3  -9   9   53.66    2.37
   3  -9   9   54.71    2.41
   3  -9   9   53.84    2.13
   4  -9   9   24.56    1.37
   4  -9   9   23.54    1.34
   4  -9   9   21.75    1.56
   4  -9   9   23.66    1.49
   5  -9   9   58.43    2.70
   5  -9   9   55.91    2.37
   5  -9   9   60.34    2.57
   5  -9   9   61.67    2.41
   6  -9   9   12.89    1.77
   6  -9   9   16.35    1.48
   6   8  -9   64.33    3.37
  -6  -8   9   59.96    3.08
   5   8  -9   29.93    2.10
  -5  -8   9   25.59    1.93
   4   8  -9    5.64    0.85
  -4  -8   9    7.00    1.38
  -4  -8   9    5.08    0.82
   3   8  -9   45.80    2.08
   3   8  -9   47.65    2.28
  -3  -8   9   45.27    2.14
  -3  -8   9   45.75    2.42
   2   8  -9  118.63    4.02
   2   8  -9  117.41    4.23
  -2  -8   9  120.82    4.33
  -2  -8   9  116.46    4.05
   1   8  -9    3.26    0.66
  -1  -8   9    3.02    0.71
   0  -8   9  103.21    3.75
   0  -8   9  102.09    3.49
   1  -8   9   65.60    2.65
   1  -8   9   67.77    2.49
   2  -8   9   15.76    1.07
   2  -8   9   15.96    1.08
   2  -8   9   15.36    1.20
   3  -8   9   68.18    2.74
   3  -8   9   70.31    2.57
   3  -8   9   72.70    2.78
   3  -8   9   66.67    3.30
   4  -8   9   54.28    2.26
   4  -8   9   58.09    2.38
   4  -8   9   57.97    2.26
   5  -8   9    2.05    0.58
   5  -8   9    0.87    0.56
   5  -8   9    0.07    0.66
   6  -8   9   33.24    2.24
   6  -8   9   37.57    1.90
   7   7  -9   39.13    3.08
   6   7  -9    5.96    1.18
  -6  -7   9    3.97    0.96
   5   7  -9   59.16    2.91
  -5  -7   9   55.62    2.65
   4   7  -9   83.16    3.39
   4   7  -9   77.82    3.08
  -4  -7   9   77.59    3.14
  -4  -7   9   81.73    3.58
   3   7  -9   25.01    1.47
   3   7  -9   25.35    1.60
  -3  -7   9   27.05    1.57
  -3  -7   9   26.11    1.82
   2   7  -9   28.71    1.64
   2   7  -9   29.11    1.50
  -2  -7   9   30.27    1.58
  -2  -7   9   30.03    1.80
   1   7  -9  333.86   10.56
  -1  -7   9  354.33   10.65
  -1  -7   9  355.53   10.44
   0   7  -9   10.84    1.00
   0  -7   9   11.44    0.93
   0  -7   9   10.32    1.10
   1  -7   9   41.01    1.87
   1  -7   9   40.92    1.77
   2  -7   9  173.52    5.49
   2  -7   9  173.29    5.44
   2  -7   9  171.86    5.55
   3  -7   9   31.00    1.54
   3  -7   9   31.36    1.53
   3  -7   9   29.54    1.54
   3  -7   9   30.57    1.53
   4  -7   9   55.52    2.28
   4  -7   9   58.27    2.29
   4  -7   9   56.20    2.36
   5  -7   9   73.54    2.89
   5  -7   9   74.57    2.91
   5  -7   9   78.59    3.06
   6  -7   9   21.56    1.40
   6  -7   9   19.17    1.91
   7   6  -9    1.29    0.96
  -7  -6   9    0.51    0.92
   6   6  -9   37.33    2.40
  -6  -6   9   33.66    2.13
   5   6  -9   59.91    2.66
   5   6  -9   65.92    3.04
  -5  -6   9   62.76    3.27
   4   6  -9   16.05    1.25
   4   6  -9   16.53    1.45
  -4  -6   9   13.15    1.26
  -4  -6   9   17.42    1.78
   3   6  -9  133.59    4.44
   3   6  -9  133.23    4.67
  -3  -6   9  133.99    4.51
  -3  -6   9  133.63    4.82
   2   6  -9   87.10    3.13
   2   6  -9   88.62    3.30
  -2  -6   9   92.00    3.43
  -2  -6   9   90.99    3.27
   1   6  -9    3.46    0.59
  -1  -6   9    4.94    0.80
  -1  -6   9    3.12    0.68
   0   6  -9  142.12    4.63
   0  -6   9  140.03    4.57
   0  -6   9  141.55    4.68
   1  -6   9   73.07    2.62
   1  -6   9   70.49    2.68
   1  -6   9   73.35    2.64
   2  -6   9    1.85    0.77
   2  -6   9    2.34    0.49
   2  -6   9    2.36    0.50
   3  -6   9  191.59    6.07
   3  -6   9  195.26    6.07
   4  -6   9   30.01    1.72
   4  -6   9   34.51    1.66
   4  -6   9   35.52    1.71
   5  -6   9    0.56    0.68
   5  -6   9    2.36    0.64
   5  -6   9    2.11    0.50
   6  -6   9   29.07    1.98
   7   5  -9   27.02    2.31
  -7  -5   9   27.39    2.08
   6   5  -9    2.25    0.82
  -6  -5   9    1.71    0.77
   5   5  -9   36.34    2.21
   5   5  -9   35.94    1.89
  -5  -5   9   36.64    2.63
  -5  -5   9   36.02    1.92
   4   5  -9  102.92    3.87
   4   5  -9   99.28    3.53
  -4  -5   9  101.06    4.04
  -4  -5   9   96.17    3.57
   3   5  -9    0.63    0.54
   3   5  -9    0.62    0.42
  -3  -5   9    0.17    0.55
  -3  -5   9   -0.50    0.69
   2   5  -9   87.93    3.09
   2   5  -9   88.97    3.24
  -2  -5   9   90.46    3.40
  -2  -5   9   88.64    3.12
   1   5  -9  151.29    4.88
  -1  -5   9  147.02    4.95
  -1  -5   9  153.64    4.84
   0   5  -9   16.37    1.05
   0  -5   9   16.51    1.09
   0  -5   9   16.54    1.21
   1  -5   9   32.90    1.53
   1  -5   9   33.61    1.51
   1  -5   9   31.49    1.51
   2  -5   9   98.21    3.30
   2  -5   9   99.77    3.39
   3  -5   9   10.83    0.82
   3  -5   9   11.68    0.89
   3  -5   9   12.07    1.09
   4  -5   9   41.23    1.66
   4  -5   9   42.26    1.81
   4  -5   9   41.65    1.95
   5  -5   9   93.60    3.88
   5  -5   9   87.92    3.27
   5  -5   9   86.37    2.96
   6  -5   9   15.54    1.64
   8   4  -9   19.83    2.38
  -8  -4   9   12.63    1.93
   7   4  -9   13.30    1.79
  -7  -4   9   13.44    1.58
   6   4  -9   76.17    3.10
   6   4  -9   70.87    3.54
  -6  -4   9   85.27    3.25
  -6  -4   9   87.26    5.13
   5   4  -9   33.92    2.15
   5   4  -9   36.59    1.80
  -5  -4   9   33.27    1.78
  -5  -4   9   33.66    2.64
   4   4  -9    2.51    0.78
   4   4  -9    2.23    0.53
  -4  -4   9    2.45    1.00
  -4  -4   9    1.27    0.56
   3   4  -9   98.67    3.63
   3   4  -9   98.83    3.40
  -3  -4   9   99.25    3.50
  -3  -4   9   99.62    3.84
   2   4  -9   55.10    2.25
  -2  -4   9   56.08    2.16
  -2  -4   9   55.68    2.47
   1   4  -9   22.27    1.23
  -1  -4   9   21.44    1.44
  -1  -4   9   23.35    1.24
   0   4  -9  163.26    5.04
   0  -4   9  162.82    5.11
   0  -4   9  154.81    5.08
   1  -4   9   47.88    1.91
   1  -4   9   51.47    2.02
   1  -4   9   48.75    1.99
   2  -4   9   20.24    1.27
   2  -4   9   20.87    1.07
   2  -4   9   21.15    1.03
   3  -4   9   85.17    2.81
   3  -4   9   82.97    3.07
   3  -4   9   89.26    2.86
   4  -4   9   58.38    2.43
   4  -4   9   57.92    2.14
   4  -4   9   58.24    1.99
  -8  -3   9    9.25    1.26
   7   3  -9   26.08    2.22
  -7  -3   9   23.32    1.82
   6   3  -9    1.30    0.63
   6   3  -9    0.19    0.78
  -6  -3   9    0.32    0.59
  -6  -3   9    0.73    1.26
   5   3  -9   81.29    2.92
   5   3  -9   69.16    3.28
  -5  -3   9   75.19    2.90
  -5  -3   9   75.97    3.84
   4   3  -9  115.61    3.85
   4   3  -9  106.20    4.56
  -4  -3   9  117.99    4.65
  -4  -3   9  111.56    3.88
   3   3  -9    4.91    0.79
   3   3  -9    4.97    0.78
  -3  -3   9    6.07    1.16
  -3  -3   9    4.72    0.63
   2   3  -9  160.02    5.22
  -2  -3   9  164.90    5.16
  -2  -3   9  162.66    5.54
   1   3  -9  232.52    7.20
  -1  -3   9  242.97    7.26
  -1  -3   9  235.24    7.39
   0   3  -9   69.57    2.39
   0  -3   9   67.63    2.51
   0  -3   9   69.01    2.50
   0  -3   9   67.69    2.56
   1  -3   9  130.30    4.26
   1  -3   9  130.15    4.16
   2  -3   9  365.75   10.68
   2  -3   9  361.22   10.35
   2  -3   9  340.51   10.46
   3  -3   9   26.50    1.54
   4  -3   9   18.11    1.37
  -8  -2   9    4.57    1.06
   7   2  -9    3.92    1.07
  -7  -2   9    3.78    0.87
   6   2  -9   96.17    3.49
   6   2  -9   91.66    4.00
  -6  -2   9   94.23    4.40
  -6  -2   9   96.66    3.55
   5   2  -9   19.95    1.82
   5   2  -9   22.69    1.35
  -5  -2   9   22.35    1.42
  -5  -2   9   23.57    2.38
   4   2  -9   22.72    1.27
   4   2  -9   19.92    1.65
  -4  -2   9   22.92    2.30
  -4  -2   9   20.86    1.75
   3   2  -9  165.27    5.45
  -3  -2   9  160.15    5.18
  -3  -2   9  166.13    5.97
   2   2  -9   62.13    2.41
  -2  -2   9   61.97    2.32
  -2  -2   9   64.32    3.00
   1   2  -9   11.26    0.88
  -1  -2   9   13.91    1.56
  -1  -2   9   11.98    0.93
   0   2  -9   41.48    1.57
   0  -2   9   40.87    1.75
   0  -2   9   41.96    1.76
   0  -2   9   41.06    2.01
   1  -2   9   37.11    1.74
   1  -2   9   36.82    1.70
   2  -2   9   35.41    1.71
   3  -2   9  122.04    4.20
   4  -2   9   28.43    1.97
  -6   2  -9   51.30    2.72
   8   1  -9   32.80    2.51
  -8  -1   9   27.18    2.08
   7   1  -9   59.24    2.60
   7   1  -9   67.59    3.30
  -7  -1   9   61.96    2.78
   6   1  -9    1.71    0.54
   6   1  -9    0.62    0.86
  -6  -1   9    0.31    0.56
  -6  -1   9    0.88    1.15
   5   1  -9   75.90    3.49
   5   1  -9   81.05    2.98
  -5  -1   9   83.50    3.04
  -5  -1   9   88.57    3.93
   4   1  -9   87.86    3.67
   4   1  -9   94.72    3.26
  -4  -1   9   94.32    3.29
  -4  -1   9  100.27    4.17
   3   1  -9   31.06    1.78
  -3  -1   9   30.42    1.45
  -3  -1   9   33.99    2.36
   2   1  -9  160.42    5.10
  -2  -1   9  155.99    5.60
  -2  -1   9  159.48    5.03
   1   1  -9  109.46    3.64
  -1  -1   9  116.94    3.78
  -1  -1   9  117.53    3.76
  -1  -1   9  109.82    4.13
   0   1  -9    1.86    0.35
   0  -1   9    2.75    0.72
   0  -1   9    1.49    0.45
   0  -1   9    1.58    0.50
   1  -1   9   91.33    3.21
   2  -1   9   85.32    3.10
   3  -1   9    4.98    0.80
  -5   1  -9   58.81    2.64
   8   0  -9   12.19    1.91
  -8   0   9    8.52    1.15
   7   0  -9   17.07    1.91
   7   0  -9   17.71    1.41
  -7   0   9   16.36    1.51
   6   0  -9   82.72    3.06
   6   0  -9   84.78    3.74
  -6   0   9   80.19    3.13
  -6   0   9   87.62    4.08
   5   0  -9    5.38    0.87
   5   0  -9    5.15    1.04
  -5   0   9    4.73    0.74
  -5   0   9    6.20    1.32
   4   0  -9   14.66    1.54
  -4   0   9   15.05    1.88
  -4   0   9   12.57    1.02
   3   0  -9  117.08    4.16
  -3   0   9  116.05    3.85
  -3   0   9  119.19    4.51
   2   0  -9   38.85    1.78
  -2   0   9   38.66    2.15
  -2   0   9   37.47    1.64
   1   0  -9   42.74    1.72
  -1   0   9   48.22    2.06
  -1   0   9   44.33    1.85
  -1   0   9   44.85    1.84
   0   0  -9  145.81    4.34
   0   0   9  142.19    4.66
   0   0   9  145.07    4.42
   1   0   9   94.04    3.32
   2   0   9   22.80    1.49
   3   0   9   64.81    2.69
  -5   0  -9    7.99    1.28
   8  -1  -9   27.73    2.40
  -8   1   9   25.12    1.93
   7  -1  -9   47.24    2.84
   7  -1  -9   45.66    2.10
  -7   1   9   43.94    2.23
   6  -1  -9    0.03    0.87
   6  -1  -9   -0.32    0.46
  -6   1   9   -0.31    1.03
  -6   1   9    0.14    0.54
   5  -1  -9   87.53    3.72
  -5   1   9   79.73    3.37
  -5   1   9   87.13    3.91
   4  -1  -9   68.82    3.10
  -4   1   9   66.50    3.21
  -4   1   9   70.34    2.53
   3  -1  -9   -0.05    0.64
  -3   1   9   -1.04    0.68
  -3   1   9   -0.08    0.35
   2  -1  -9  114.90    3.98
  -2   1   9  117.09    3.87
  -2   1   9  117.72    3.88
  -2   1   9  122.57    4.14
   1  -1  -9   92.91    3.07
  -1   1   9   93.91    3.22
  -1   1   9   94.27    3.14
  -1   1   9   93.70    3.22
   0   1   9   12.37    1.12
   1   1   9   85.11    3.10
   2   1   9  111.90    3.94
   8  -2  -9    3.15    0.80
   8  -2  -9    4.36    1.28
  -8   2   9    1.24    0.84
   7  -2  -9   21.47    1.45
   7  -2  -9   24.00    2.26
  -7   2   9   20.12    1.62
   6  -2  -9   56.45    3.02
  -6   2   9   57.32    2.33
  -6   2   9   50.56    3.15
   5  -2  -9   17.96    1.93
  -5   2   9   20.66    1.29
  -5   2   9   18.70    1.96
   4  -2  -9   24.56    1.95
  -4   2   9   25.91    1.94
  -4   2   9   24.00    1.32
   3  -2  -9   83.50    3.36
  -3   2   9   81.90    2.92
  -3   2   9   83.49    2.93
  -3   2   9   90.00    3.35
   2  -2  -9   10.25    1.17
  -2   2   9    9.48    0.97
  -2   2   9    9.54    0.87
  -2   2   9   10.10    0.98
   1  -2  -9   96.91    3.18
  -1   2   9   98.64    3.15
  -1   2   9   94.80    3.31
  -1   2   9   95.71    3.33
   0   2   9  127.53    4.24
   1   2   9   27.54    1.63
   2   2   9   25.51    1.71
  -4  -2  -9   28.59    1.84
   8  -3  -9   46.21    3.16
   8  -3  -9   45.05    2.17
  -8   3   9   44.26    2.37
   7  -3  -9   20.33    2.26
  -7   3   9   16.11    1.52
   6  -3  -9    0.54    0.99
  -6   3   9    1.07    0.84
   5  -3  -9   83.55    3.74
  -5   3   9   80.48    3.67
  -5   3   9   85.32    3.00
   4  -3  -9   80.68    5.03
  -4   3   9   99.45    3.82
  -4   3   9   96.94    3.25
  -4   3   9  100.70    3.28
   3  -3  -9    1.04    0.83
  -3   3   9    1.14    0.47
  -3   3   9    1.11    0.45
  -3   3   9    0.91    0.59
   2  -3  -9   89.85    3.31
  -2   3   9   91.79    3.10
  -2   3   9   84.53    3.07
  -2   3   9   88.01    3.08
   1  -3  -9  128.12    4.10
  -1   3   9  130.37    4.04
  -1   3   9  129.71    4.54
  -1   3   9  126.67    4.25
   0   3   9    1.28    0.56
   1   3   9   51.75    2.35
   3   3   9    0.96   11.67
   7  -4  -9   28.12    2.61
  -7   4   9   25.93    1.82
   6  -4  -9   63.11    3.42
  -6   4   9   61.84    2.50
   5  -4  -9    9.93    1.89
  -5   4   9   11.00    1.10
  -5   4   9    8.01    1.03
  -5   4   9    8.32    1.50
   4  -4  -9   74.77    3.45
  -4   4   9   68.93    2.59
  -4   4   9   72.13    2.61
  -4   4   9   72.29    3.04
   3  -4  -9   87.69    3.64
  -3   4   9   84.01    3.02
  -3   4   9   87.86    3.25
  -3   4   9   90.09    3.06
   2  -4  -9   15.58    1.51
  -2   4   9   14.26    1.26
  -2   4   9   16.67    1.22
  -2   4   9   16.16    1.16
   1  -4  -9   10.68    1.04
  -1   4   9   10.91    1.01
  -1   4   9   11.31    1.20
   0   4   9   83.52    3.15
   1   4   9    5.38    0.93
   7  -5  -9   21.10    2.64
  -7   5   9   17.96    2.19
   6  -5  -9    2.73    1.26
  -6   5   9    3.44    0.64
  -6   5   9    1.74    0.69
   5  -5  -9   38.85    2.79
  -5   5   9   38.41    1.77
  -5   5   9   37.84    1.74
  -5   5   9   35.45    2.26
   4  -5  -9   42.12    2.75
  -4   5   9   45.05    2.18
  -4   5   9   40.20    1.86
  -4   5   9   42.17    1.82
   3  -5  -9    5.67    1.22
  -3   5   9    8.05    1.11
  -3   5   9    8.07    0.97
  -3   5   9    6.09    0.99
   2  -5  -9   81.27    3.29
  -2   5   9   79.36    2.95
  -2   5   9   83.87    2.88
  -2   5   9   72.19    3.10
   1  -5  -9   63.88    2.48
  -1   5   9   67.39    2.53
  -1   5   9   61.89    2.61
   0   5   9    0.81    0.78
   6  -6  -9   39.98    3.20
  -6   6   9   39.90    2.19
   5  -6  -9    4.40    1.49
  -5   6   9    2.46    0.61
   4  -6  -9   15.02    2.31
  -4   6   9   16.30    1.22
  -4   6   9   19.22    1.36
  -4   6   9   16.51    1.51
   3  -6  -9   64.90    3.49
  -3   6   9   60.94    2.54
  -3   6   9   65.12    2.63
  -3   6   9   65.54    2.45
   2  -6  -9    2.67    1.04
  -2   6   9    1.10    0.72
  -2   6   9    0.54    0.55
   1  -6  -9   25.47    1.62
  -1   6   9   26.78    1.56
  -1   6   9   26.40    1.83
   0   6   9   47.17    2.47
   4  -7  -9   30.67    3.00
  -4   7   9   29.75    1.89
  -4   7   9   34.53    1.77
   3  -7  -9    4.57    1.52
  -3   7   9    6.84    1.12
   2  -7  -9   89.82    3.98
  -2   7   9   96.31    3.37
   0 -13  10   14.71    1.56
   1 -13  10  105.97    3.90
   2 -13  10   57.93    3.08
   2 -13  10   63.41    2.59
  -2 -12  10    1.29    0.86
  -1 -12  10   39.34    2.13
   0 -12  10   53.52    2.40
   1 -12  10    9.47    1.23
   2 -12  10   42.64    1.88
   2 -12  10   41.53    2.39
   2 -12  10   39.60    1.98
   3 -12  10   57.33    2.40
   3 -12  10   61.93    2.38
   3 -12  10   57.68    2.92
  -4 -11  10   19.78    2.05
   3  11 -10   14.13    1.59
  -3 -11  10   10.43    1.60
   2  11 -10   85.21    3.80
  -2 -11  10   84.92    3.38
  -1 -11  10   18.90    1.47
   0 -11  10   21.22    1.46
   1 -11  10   94.76    3.42
   2 -11  10   34.47    2.06
   2 -11  10   38.78    1.70
   2 -11  10   34.02    1.72
   3 -11  10   43.89    1.91
   3 -11  10   43.36    2.33
   3 -11  10   40.67    1.92
   4 -11  10   52.57    2.27
   4 -11  10   55.52    2.27
   4 -11  10   52.15    2.69
   4  10 -10   41.47    2.45
  -4 -10  10   36.27    2.36
   3  10 -10   25.14    1.79
  -3 -10  10   22.66    1.77
   2  10 -10    0.88    0.60
   2  10 -10    2.65    0.73
  -2 -10  10    0.27    0.88
  -1 -10  10  139.53    4.87
  -1 -10  10  151.72    6.05
   0 -10  10   62.99    2.81
   0 -10  10   65.36    2.58
   1 -10  10    1.23    0.52
   1 -10  10    2.42    0.67
   2 -10  10   49.85    2.16
   2 -10  10   53.08    2.11
   2 -10  10   51.68    2.41
   2 -10  10   51.61    2.44
   3 -10  10   81.91    3.27
   3 -10  10   74.82    2.89
   3 -10  10   77.29    3.18
   3 -10  10   80.61    2.90
   4 -10  10   -0.80    0.65
   4 -10  10   -0.03    0.54
   4 -10  10    1.86    0.57
   4 -10  10    1.00    0.67
   5 -10  10   35.65    1.92
   5 -10  10   43.40    2.32
   5 -10  10   38.10    2.29
   5   9 -10   66.81    3.32
  -5  -9  10   63.66    3.13
   4   9 -10    8.64    1.39
  -4  -9  10    8.45    1.38
   3   9 -10    7.61    1.17
   3   9 -10    6.14    0.88
  -3  -9  10    5.02    0.81
   2   9 -10   90.90    3.33
   2   9 -10   88.27    3.51
  -2  -9  10   90.54    3.37
  -2  -9  10   88.54    3.62
   1   9 -10   17.42    1.36
  -1  -9  10   19.85    1.52
  -1  -9  10   16.31    1.25
   0  -9  10   84.56    3.11
   0  -9  10   86.47    3.37
   1  -9  10   84.15    3.27
   1  -9  10   84.30    3.05
   2  -9  10   48.17    2.22
   2  -9  10   50.80    2.10
   2  -9  10   49.48    2.05
   3  -9  10   24.55    1.56
   3  -9  10   23.42    1.40
   3  -9  10   25.50    1.52
   3  -9  10   23.45    1.41
   4  -9  10   80.99    3.26
   4  -9  10   80.40    3.04
   4  -9  10   81.24    3.03
   4  -9  10   83.55    3.19
   5  -9  10   13.43    1.26
   5  -9  10   16.49    1.41
   5  -9  10   12.56    1.51
   6   8 -10   22.05    2.25
  -6  -8  10   19.55    2.10
   5   8 -10   10.47    1.58
  -5  -8  10    7.99    1.17
   4   8 -10   93.71    3.85
  -4  -8  10   92.75    3.60
   3   8 -10   49.75    2.44
   3   8 -10   49.96    2.27
  -3  -8  10   51.67    2.35
  -3  -8  10   53.38    2.67
   2   8 -10    0.25    0.51
   2   8 -10    0.43    0.51
  -2  -8  10    0.43    0.51
  -2  -8  10    1.68    0.71
   1   8 -10  119.31    4.31
  -1  -8  10  124.73    4.19
  -1  -8  10  123.77    4.40
   0  -8  10  162.46    5.14
   0  -8  10  153.46    5.30
   1  -8  10    2.65    0.66
   1  -8  10    1.87    0.51
   1  -8  10    2.12    0.50
   2  -8  10   78.95    2.84
   2  -8  10   75.29    2.95
   2  -8  10   78.71    2.88
   3  -8  10  105.74    3.57
   3  -8  10   95.28    3.98
   3  -8  10  101.16    3.57
   3  -8  10  104.56    3.66
   4  -8  10    0.55    0.53
   4  -8  10    0.13    0.49
   4  -8  10   -0.25    0.68
   5  -8  10   37.56    1.83
   5  -8  10   34.72    2.20
   6   7 -10   27.04    2.27
  -6  -7  10   26.78    2.09
   5   7 -10   61.43    3.03
  -5  -7  10   58.21    2.71
   4   7 -10   11.96    1.30
   4   7 -10   16.03    1.50
  -4  -7  10   16.16    1.86
  -4  -7  10   12.75    1.37
   3   7 -10   55.32    2.53
   3   7 -10   51.52    2.29
  -3  -7  10   58.93    2.79
  -3  -7  10   54.77    2.36
   2   7 -10  112.51    4.17
   2   7 -10  116.12    4.00
  -2  -7  10  121.15    4.08
  -2  -7  10  120.00    4.32
   1   7 -10   14.30    1.89
  -1  -7  10   14.35    1.32
  -1  -7  10   14.39    1.10
   0   7 -10   42.97    1.96
   0  -7  10   43.54    2.02
   0  -7  10   42.89    1.89
   1  -7  10  118.14    4.15
   1  -7  10  120.60    4.13
   1  -7  10  121.07    4.03
   2  -7  10    7.16    0.90
   2  -7  10    6.14    0.93
   2  -7  10    5.46    0.84
   3  -7  10   39.17    1.80
   3  -7  10   38.43    1.81
   3  -7  10   36.43    1.73
   3  -7  10   37.09    1.79
   4  -7  10  100.45    3.66
   4  -7  10  102.40    3.58
   4  -7  10  106.94    3.72
   5  -7  10   24.01    1.37
   5  -7  10   18.67    1.58
   7   6 -10   36.40    2.74
  -7  -6  10   41.23    2.63
   6   6 -10    9.30    1.65
  -6  -6  10    8.36    1.18
   5   6 -10    9.41    1.44
  -5  -6  10    7.67    1.30
   4   6 -10   82.74    3.41
   4   6 -10   79.27    3.09
  -4  -6  10   79.79    3.13
  -4  -6  10   82.18    3.63
   3   6 -10  132.03    4.74
   3   6 -10  131.93    4.51
  -3  -6  10  134.87    4.55
  -3  -6  10  140.23    4.97
  -2  -6  10   26.02    1.46
  -2  -6  10   27.84    1.93
   1   6 -10  102.61    3.68
  -1  -6  10  105.52    3.80
  -1  -6  10  106.57    3.63
   0   6 -10   88.77    3.16
   0  -6  10   85.51    3.20
   0  -6  10   89.61    3.16
   1  -6  10    1.88    0.48
   1  -6  10    2.18    0.54
   1  -6  10    2.17    0.53
   2  -6  10  112.99    3.80
   2  -6  10  109.57    3.82
   2  -6  10  109.77    3.74
   3  -6  10   38.72    1.80
   3  -6  10   32.58    1.88
   3  -6  10   38.24    1.68
   4  -6  10    0.37    0.58
   4  -6  10   -0.03    0.51
   5  -6  10   75.82    2.96
   7   5 -10   10.40    1.83
  -7  -5  10    6.85    1.20
   6   5 -10   23.30    2.04
  -6  -5  10   25.78    1.80
   5   5 -10   48.01    2.28
   5   5 -10   51.00    2.68
  -5  -5  10   51.26    2.35
  -5  -5  10   49.11    3.11
   4   5 -10   12.72    1.15
   4   5 -10   13.41    1.37
  -4  -5  10   11.48    1.21
  -4  -5  10   11.52    1.77
   3   5 -10   64.03    2.47
   3   5 -10   62.58    2.66
  -3  -5  10   62.71    2.89
  -3  -5  10   61.56    2.51
   2   5 -10  114.49    4.02
  -2  -5  10  117.07    4.22
  -2  -5  10  115.78    4.06
   1   5 -10    8.11    0.90
  -1  -5  10    7.77    1.14
  -1  -5  10    8.28    0.89
   0   5 -10   14.41    1.00
   0  -5  10   13.79    1.16
   0  -5  10   11.57    1.04
   1  -5  10  233.26    7.15
   1  -5  10  224.66    7.04
   1  -5  10  228.98    7.09
   2  -5  10    1.18    0.47
   2  -5  10    1.93    0.52
   2  -5  10    1.30    0.41
   2  -5  10    1.26    0.45
   3  -5  10   66.26    2.62
   3  -5  10   63.87    2.34
   3  -5  10   68.22    2.41
   4  -5  10   57.94    2.26
   4  -5  10   58.09    2.12
   4  -5  10   63.45    3.10
   5  -5  10   17.47    1.36
   7   4 -10   46.75    2.90
  -7  -4  10   45.78    2.55
   6   4 -10   24.68    2.06
  -6  -4  10   21.16    1.69
   5   4 -10   12.29    1.55
   5   4 -10   11.26    1.16
  -5  -4  10    9.78    1.17
  -5  -4  10   10.66    2.19
   4   4 -10   90.57    3.26
   4   4 -10   89.13    3.58
  -4  -4  10   89.50    3.28
  -4  -4  10   88.87    3.96
   3   4 -10   61.87    2.45
   3   4 -10   63.28    2.66
  -3  -4  10   65.30    3.03
  -3  -4  10   63.07    2.47
   2   4 -10   20.67    1.30
  -2  -4  10   19.92    1.22
  -2  -4  10   20.75    1.67
   1   4 -10   63.03    2.40
  -1  -4  10   63.78    2.64
  -1  -4  10   63.13    2.63
   0   4 -10   58.66    2.21
   0  -4  10   59.06    2.40
   0  -4  10   59.15    2.32
   0  -4  10   59.90    2.35
   1  -4  10    0.98    0.50
   1  -4  10    0.41    0.47
   1  -4  10    0.31    0.44
   2  -4  10  153.86    4.75
   2  -4  10  143.24    4.60
   2  -4  10  144.16    4.83
   3  -4  10   56.28    1.98
   3  -4  10   57.00    1.99
   3  -4  10   53.75    2.34
  -8  -3  10   20.25    2.12
   7   3 -10    1.73    1.00
  -7  -3  10   -0.12    0.77
   6   3 -10   27.43    2.19
   6   3 -10   32.05    2.53
  -6  -3  10   27.50    1.81
   5   3 -10   56.14    2.32
   5   3 -10   49.44    2.68
  -5  -3  10   55.22    3.38
  -5  -3  10   53.39    2.34
   4   3 -10    1.71    0.69
   4   3 -10    0.94    0.47
  -4  -3  10    1.17    0.52
  -4  -3  10    0.82    1.12
   3   3 -10  108.51    3.90
  -3  -3  10  106.42    3.69
  -3  -3  10  107.18    4.36
   2   3 -10  178.37    5.75
  -2  -3  10  181.20    5.79
  -2  -3  10  181.39    6.15
   1   3 -10    8.91    0.87
  -1  -3  10    9.40    1.10
  -1  -3  10    7.86    1.37
   0   3 -10  191.58    5.86
   0  -3  10  190.11    6.01
   0  -3  10  192.13    6.07
   0  -3  10  190.74    6.10
   1  -3  10  210.79    6.48
   1  -3  10  203.96    6.41
   1  -3  10  197.54    6.30
   2  -3  10   29.03    1.37
   2  -3  10   29.78    1.16
   2  -3  10   30.32    1.62
   3  -3  10   34.40    1.80
   8   2 -10    8.25    1.71
  -8  -2  10    4.35    1.10
   7   2 -10   42.04    2.66
  -7  -2  10   36.76    2.18
   6   2 -10   20.99    1.52
   6   2 -10   22.18    1.99
  -6  -2  10   25.49    3.99
  -6  -2  10   17.67    1.49
   5   2 -10   29.67    2.07
   5   2 -10   30.04    1.60
  -5  -2  10   27.48    2.55
  -5  -2  10   30.26    1.62
   4   2 -10  117.82    4.41
   4   2 -10  117.91    4.05
  -4  -2  10  117.87    4.07
  -4  -2  10  124.56    4.99
   3   2 -10   94.08    3.50
  -3  -2  10   95.85    4.15
  -3  -2  10   94.30    3.31
   2   2 -10    3.15    0.59
  -2  -2  10    2.29    0.53
  -2  -2  10    3.13    1.12
   1   2 -10  121.10    3.94
  -1  -2  10  122.29    4.05
  -1  -2  10  126.74    4.13
  -1  -2  10  113.89    4.47
   0   2 -10   69.16    2.36
   0  -2  10   66.04    2.90
   0  -2  10   69.78    2.61
   0  -2  10   72.38    2.65
   1  -2  10   12.62    1.21
   1  -2  10   13.26    1.15
   2  -2  10   85.14    3.15
   3  -2  10   29.51    2.05
   8   1 -10   37.61    2.85
  -8  -1  10   29.76    2.23
   7   1 -10    2.44    1.02
  -7  -1  10    2.01    0.78
   6   1 -10   70.45    2.85
   6   1 -10   69.92    3.42
  -6  -1  10   73.69    2.90
  -6  -1  10   73.79    3.94
   5   1 -10   94.38    3.27
   5   1 -10   83.83    3.71
  -5  -1  10   85.78    3.24
  -5  -1  10   94.01    4.18
  -4  -1  10    1.03    1.09
  -4  -1  10    1.45    0.51
   3   1 -10   47.40    2.18
  -3  -1  10   44.59    1.93
  -3  -1  10   49.29    2.76
   2   1 -10   79.83    2.89
  -2  -1  10   78.95    2.96
   1   1 -10    1.85    0.44
  -1  -1  10    1.49    0.54
  -1  -1  10    0.96    0.79
  -1  -1  10    1.46    0.46
   0   1 -10   89.38    2.89
   0  -1  10   89.47    3.14
   0  -1  10   89.97    3.21
   0  -1  10   93.99    3.27
   1  -1  10   86.55    3.18
   2  -1  10    0.95    0.63
   8   0 -10   14.82    2.20
  -8   0  10   10.21    1.71
   7   0 -10   41.60    2.64
  -7   0  10   36.97    2.11
   6   0 -10   13.68    1.73
   6   0 -10   10.29    1.19
  -6   0  10   12.32    1.25
  -6   0  10   12.92    2.21
   5   0 -10   18.72    1.79
  -5   0  10   21.60    2.23
  -5   0  10   19.90    1.33
  -4   0  10  105.06    4.36
  -4   0  10  101.94    3.56
   3   0 -10   21.88    1.52
  -3   0  10   21.28    1.96
  -3   0  10   21.41    1.26
   2   0 -10   44.05    1.90
  -2   0  10   44.27    1.90
  -2   0  10   45.12    2.28
  -2   0  10   43.60    1.88
   1   0 -10  168.39    5.37
  -1   0  10  182.07    5.84
  -1   0  10  175.39    5.58
  -1   0  10  176.45    5.59
   0   0  10   31.92    1.26
   0   0  10   32.55    1.64
   0   0  10   32.82    1.67
   1   0  10    3.23    0.68
   2   0  10   64.88    2.69
  -8   1  10   22.20    1.93
   7  -1 -10    1.06    0.66
   7  -1 -10    1.66    1.02
  -7   1  10    0.24    0.69
   6  -1 -10   39.34    2.52
  -6   1  10   33.96    1.87
  -6   1  10   44.03    4.59
   5  -1 -10   50.67    2.73
  -5   1  10   49.47    2.93
  -5   1  10   51.23    2.16
  -4   1  10    0.07    0.44
  -4   1  10   -0.84    0.82
   3  -1 -10   73.72    2.99
  -3   1  10   76.79    2.88
  -3   1  10   75.50    2.78
  -3   1  10   75.53    3.20
   2  -1 -10   83.70    3.03
  -2   1  10   84.86    3.02
  -2   1  10   83.19    3.15
  -2   1  10   84.82    3.01
   1  -1 -10    1.57    0.42
  -1   1  10    1.29    0.43
  -1   1  10    1.37    0.55
  -1   1  10    1.24    0.46
   0   1  10  114.40    3.95
   1   1  10   92.75    3.43
   7  -2 -10   56.19    3.21
  -7   2  10   53.03    2.52
   6  -2 -10    8.14    1.37
  -6   2  10    7.07    1.17
   5  -2 -10    9.71    1.70
  -5   2  10    6.72    1.30
  -5   2  10    9.99    1.04
   4  -2 -10   75.02    3.30
  -4   2  10   75.09    2.75
  -4   2  10   73.28    3.30
   3  -2 -10    8.82    1.32
  -3   2  10    6.26    1.20
  -3   2  10    7.76    0.99
  -3   2  10    7.52    0.92
   2  -2 -10   22.54    1.37
  -2   2  10   18.91    1.23
  -2   2  10   19.47    1.26
  -2   2  10   20.69    1.32
   1  -2 -10   85.48    2.88
  -1   2  10   89.52    3.17
  -1   2  10   88.69    3.17
  -1   2  10   85.88    2.87
   0   2  10   33.32    1.79
   1   2  10   37.97    2.04
   3   2  10   -4.01   14.08
   7  -3 -10    4.66    1.30
  -7   3  10    2.28    0.83
   6  -3 -10   57.94    3.15
  -6   3  10   50.21    2.33
   5  -3 -10   49.81    2.76
  -5   3  10   43.08    2.64
  -5   3  10   48.73    2.07
   4  -3 -10    0.01    0.83
  -4   3  10    0.20    0.72
  -4   3  10    0.03    0.55
  -4   3  10   -0.03    0.46
   3  -3 -10  171.76    5.83
  -3   3  10  176.36    5.69
  -3   3  10  168.04    5.46
  -3   3  10  169.69    5.45
   2  -3 -10   63.87    2.55
  -2   3  10   64.97    2.54
  -2   3  10   61.85    2.52
  -2   3  10   64.46    2.48
   1  -3 -10    0.85    0.40
  -1   3  10    0.25    0.33
  -1   3  10    0.38    0.59
  -1   3  10    0.26    0.45
   0   3  10   47.90    2.27
   6  -4 -10    0.14    1.06
  -6   4  10    1.45    0.63
  -6   4  10   -0.73    0.64
   5  -4 -10   32.01    2.43
  -5   4  10   30.24    1.61
  -5   4  10   24.17    2.09
  -5   4  10   30.25    1.66
   4  -4 -10   86.56    3.75
  -4   4  10   85.62    3.44
  -4   4  10   86.74    3.11
  -4   4  10   85.66    3.13
   3  -4 -10   25.69    1.91
  -3   4  10   23.97    1.53
  -3   4  10   22.99    1.55
  -3   4  10   26.22    1.48
   2  -4 -10   36.12    1.86
  -2   4  10   33.97    1.79
  -2   4  10   35.04    1.69
  -2   4  10   29.74    1.80
   1  -4 -10   42.59    1.64
  -1   4  10   40.40    1.90
  -1   4  10   39.19    2.09
   0   4  10   18.09    1.69
  -6   5  10   42.21    2.11
   5  -5 -10    8.93    1.50
  -5   5  10    9.96    1.24
   4  -5 -10    1.43    1.06
  -4   5  10    1.94    0.68
  -4   5  10    1.49    0.61
  -4   5  10    1.32    0.76
  -3   5  10   48.46    2.21
  -3   5  10   50.22    2.14
  -3   5  10   49.25    2.21
   2  -5 -10   52.06    2.40
  -2   5  10   49.47    2.30
  -2   5  10   50.09    2.20
  -1   5  10    1.13    0.59
  -1   5  10    1.72    0.84
   4  -6 -10   41.79    2.88
  -4   6  10   43.55    2.00
  -4   6  10   39.99    2.26
   3  -6 -10   13.70    2.01
  -3   6  10   14.37    1.37
  -2   6  10   21.37    1.56
  -2   6  10   22.88    2.06
  -2 -12  11   49.34    2.59
  -1 -12  11   72.87    3.08
   0 -12  11   11.47    1.41
   1 -12  11   23.59    1.63
   2 -12  11   64.88    3.09
   2 -12  11   62.45    2.72
   2 -12  11   63.43    2.54
   3  11 -11   76.94    3.55
  -3 -11  11   80.43    3.42
   2  11 -11    9.93    1.43
  -2 -11  11    8.21    1.42
  -1 -11  11   19.35    1.58
   0 -11  11   67.48    2.75
   1 -11  11   33.82    1.71
   1 -11  11   30.08    1.73
   2 -11  11   22.89    1.40
   2 -11  11   18.18    1.40
   2 -11  11   20.08    1.67
   3 -11  11   72.23    3.20
   3 -11  11   70.31    2.82
   3 -11  11   70.27    2.83
   4  10 -11   29.97    2.22
  -4 -10  11   28.00    2.14
   3  10 -11    1.51    0.77
  -3 -10  11    1.48    0.79
   2  10 -11   52.99    2.62
  -2 -10  11   56.80    2.56
  -1 -10  11   70.27    2.85
   0 -10  11    1.06    0.58
   1 -10  11   82.22    3.37
   1 -10  11   84.18    3.10
   1 -10  11   83.82    3.13
   2 -10  11   51.23    2.48
   2 -10  11   50.70    2.21
   2 -10  11   50.60    2.39
   2 -10  11   53.81    2.25
   3 -10  11    0.22    0.64
   3 -10  11    0.97    0.62
   3 -10  11    0.23    0.54
   4 -10  11   49.23    2.50
   4 -10  11   45.98    2.24
   5   9 -11   10.69    1.89
   4   9 -11   18.27    1.71
  -4  -9  11   16.43    1.70
   3   9 -11   60.68    2.85
  -3  -9  11   59.29    2.67
   2   9 -11    5.82    1.12
  -2  -9  11    5.24    0.85
   1   9 -11   24.99    1.63
  -1  -9  11   27.56    1.64
  -1  -9  11   28.31    1.81
   0  -9  11  110.53    3.90
   0  -9  11  111.04    4.11
   1  -9  11   24.71    1.59
   1  -9  11   22.12    1.41
   1  -9  11   22.07    1.41
   2  -9  11   19.62    1.34
   2  -9  11   20.34    1.46
   2  -9  11   19.43    1.33
   2  -9  11   20.08    1.42
   3  -9  11   63.93    2.72
   3  -9  11   61.60    2.60
   3  -9  11   63.04    2.58
   3  -9  11   60.49    2.51
   4  -9  11   34.57    1.91
   4  -9  11   41.72    1.98
   4  -9  11   34.84    2.02
   5   8 -11   53.56    2.98
   4   8 -11   55.80    2.80
  -4  -8  11   56.01    2.61
   3   8 -11    0.58    0.57
  -3  -8  11   -0.51    0.61
   2   8 -11  118.44    4.33
  -2  -8  11  117.23    4.46
  -2  -8  11  121.72    4.20
   1   8 -11   88.80    3.44
  -1  -8  11   92.72    3.36
  -1  -8  11   90.83    3.57
   0  -8  11   -0.29    0.43
   0  -8  11    1.64    0.59
   1  -8  11  116.10    3.99
   1  -8  11  119.74    4.06
   1  -8  11  112.33    4.09
   2  -8  11   88.41    3.32
   2  -8  11   89.64    3.27
   2  -8  11   88.74    3.30
   2  -8  11   89.91    3.39
   3  -8  11    0.93    0.65
   3  -8  11    0.49    0.51
   4  -8  11   55.99    2.61
   4  -8  11   59.00    2.35
   4  -8  11   53.09    2.42
   5  -8  11   52.36    2.55
   5  -8  11   58.11    2.66
   6   7 -11   49.44    3.03
  -6  -7  11   48.03    2.74
   5   7 -11    1.37    0.82
  -5  -7  11    0.35    0.76
   4   7 -11   35.28    2.14
  -4  -7  11   32.32    1.92
   3   7 -11   82.58    3.20
   3   7 -11   85.64    3.45
  -3  -7  11   86.09    3.69
  -3  -7  11   87.29    3.30
   2   7 -11   30.71    1.76
  -2  -7  11   32.38    2.00
  -2  -7  11   33.75    1.76
   1   7 -11   36.25    1.85
  -1  -7  11   37.28    1.99
  -1  -7  11   37.89    1.81
   0  -7  11  102.05    3.76
   0  -7  11  104.95    3.69
   1  -7  11   17.91    1.28
   1  -7  11   15.77    1.22
   1  -7  11   19.05    1.29
   2  -7  11   60.73    2.47
   2  -7  11   62.89    2.50
   2  -7  11   61.30    2.51
   2  -7  11   63.04    2.52
   3  -7  11   80.58    2.98
   3  -7  11   80.00    2.94
   3  -7  11   75.14    3.01
   3  -7  11   77.65    3.10
   4  -7  11   21.22    1.57
   4  -7  11   23.34    1.53
   4  -7  11   26.24    1.39
   5  -7  11    4.09    0.94
   6   6 -11    4.69    1.13
  -6  -6  11    2.53    0.91
   5   6 -11   79.52    3.55
  -5  -6  11   74.61    3.16
   4   6 -11   39.10    2.75
   4   6 -11   35.35    2.12
  -4  -6  11   34.43    1.92
  -4  -6  11   34.01    2.45
   3   6 -11    3.27    0.75
   3   6 -11    3.72    0.70
  -3  -6  11    2.94    0.64
  -3  -6  11    4.94    1.02
   2   6 -11  113.27    4.14
  -2  -6  11  120.81    4.41
  -2  -6  11  119.13    4.09
   1   6 -11   55.75    2.38
  -1  -6  11   56.79    2.36
  -1  -6  11   59.06    2.57
   0   6 -11    3.21    0.61
   0  -6  11    3.57    0.70
   0  -6  11    3.17    0.63
   1  -6  11   69.93    2.69
   1  -6  11   70.89    2.75
   1  -6  11   68.54    2.67
   2  -6  11   62.12    2.42
   2  -6  11   62.56    2.59
   2  -6  11   61.72    2.55
   2  -6  11   66.44    2.46
   3  -6  11    4.60    0.76
   3  -6  11    5.09    0.88
   3  -6  11    6.91    1.03
   4  -6  11   72.35    2.74
   4  -6  11   73.28    2.66
   7   5 -11   29.52    3.62
  -7  -5  11   21.44    2.33
   6   5 -11   32.81    2.39
  -6  -5  11   33.87    2.08
   5   5 -11    8.05    1.41
  -5  -5  11    6.44    0.92
   4   5 -11   56.33    2.60
   4   5 -11   47.75    2.28
  -4  -5  11   51.71    2.34
  -4  -5  11   52.54    3.02
   3   5 -11  107.19    4.02
  -3  -5  11  110.99    3.88
  -3  -5  11  110.13    4.34
   2   5 -11    3.69    0.82
  -2  -5  11    5.60    0.91
  -2  -5  11    4.77    0.95
   1   5 -11   64.69    2.54
  -1  -5  11   63.30    2.54
  -1  -5  11   67.63    2.78
   0   5 -11   68.58    2.59
   0  -5  11   70.63    2.74
   0  -5  11   70.12    2.77
   0  -5  11   70.20    2.70
   1  -5  11   12.60    1.14
   1  -5  11   15.00    1.22
   2  -5  11   27.92    1.64
   2  -5  11   30.69    1.42
   2  -5  11   28.77    1.63
   2  -5  11   32.14    1.48
   3  -5  11   92.65    3.12
   3  -5  11   92.97    3.14
  -7  -4  11    9.98    1.30
   6   4 -11    5.59    1.09
  -6  -4  11    4.56    0.86
   5   4 -11   52.23    2.77
  -5  -4  11   54.68    3.62
  -5  -4  11   52.04    2.42
   4   4 -11   57.83    2.47
   4   4 -11   61.76    2.76
  -4  -4  11   57.89    2.47
  -4  -4  11   61.04    3.38
   3   4 -11    0.21    0.50
  -3  -4  11    0.54    0.93
  -3  -4  11    0.04    0.47
   2   4 -11   68.01    2.66
  -2  -4  11   67.15    2.62
  -2  -4  11   64.87    3.01
   1   4 -11   98.25    3.45
  -1  -4  11  101.26    3.55
  -1  -4  11   99.98    3.76
   0   4 -11    4.32    0.74
   0  -4  11    5.11    0.90
   0  -4  11    5.00    0.87
   0  -4  11    6.17    0.92
   1  -4  11  151.27    4.99
   1  -4  11  156.42    5.14
   1  -4  11  155.16    5.10
   2  -4  11   83.13    2.90
   2  -4  11   80.18    3.13
   2  -4  11   86.73    2.79
   7   3 -11   24.71    2.29
  -7  -3  11   22.29    1.93
   6   3 -11   27.74    2.17
  -6  -3  11   25.39    1.76
   5   3 -11    0.63    0.75
   5   3 -11   -0.04    0.55
  -5  -3  11   -0.82    0.54
  -5  -3  11   -0.62    1.27
   4   3 -11   53.92    2.59
  -4  -3  11   51.81    3.24
  -4  -3  11   55.56    2.33
   3   3 -11   41.43    2.92
  -3  -3  11   55.53    3.09
  -3  -3  11   47.17    2.08
   2   3 -11    5.56    0.90
  -2  -3  11    4.12    0.62
  -2  -3  11    5.17    1.18
   1   3 -11  109.26    3.70
  -1  -3  11  114.11    3.86
  -1  -3  11  115.50    3.85
  -1  -3  11  102.37    4.24
   0   3 -11  172.34    5.40
   0  -3  11  174.78    5.63
   0  -3  11  170.78    5.80
   0  -3  11  179.79    5.70
   1  -3  11    6.10    0.89
   1  -3  11    7.85    1.06
   1  -3  11    6.84    1.01
   2  -3  11   57.48    2.53
   7   2 -11   17.54    2.09
  -7  -2  11   14.53    1.68
   6   2 -11   19.07    1.92
  -6  -2  11   13.62    1.43
   5   2 -11  122.96    4.30
   5   2 -11  122.63    4.74
  -5  -2  11  128.06    5.26
  -5  -2  11  123.84    4.32
   4   2 -11   95.65    3.77
  -4  -2  11   97.75    4.33
  -4  -2  11   97.56    3.49
   3   2 -11   19.31    1.42
  -3  -2  11   19.15    1.27
  -3  -2  11   19.97    2.22
   2   2 -11  148.46    4.93
  -2  -2  11  155.55    5.61
  -2  -2  11  150.60    4.99
   1   2 -11   42.07    1.75
  -1  -2  11   40.79    2.41
  -1  -2  11   42.07    1.90
  -1  -2  11   41.47    1.92
   0   2 -11    3.88    0.62
   0  -2  11    2.65    0.55
   0  -2  11    3.19    0.63
   0  -2  11    2.52    0.82
   1  -2  11   74.83    2.90
   1  -2  11   72.06    2.88
   7   1 -11   36.98    2.63
  -7  -1  11   34.68    2.16
   6   1 -11   42.57    2.60
  -6  -1  11   40.24    2.12
   5   1 -11    1.09    0.75
  -5  -1  11   -0.94    1.09
  -5  -1  11    0.15    0.54
   4   1 -11   37.12    2.13
  -4  -1  11   38.56    2.63
  -4  -1  11   38.35    1.81
   3   1 -11   68.69    2.76
  -3  -1  11   66.76    2.59
  -3  -1  11   66.48    3.27
   2   1 -11    3.24    0.61
  -2  -1  11    2.95    0.58
  -2  -1  11    2.43    0.60
  -2  -1  11    1.70    0.93
   1   1 -11   59.58    2.17
  -1  -1  11   56.32    2.38
  -1  -1  11   58.86    2.39
  -1  -1  11   57.25    2.54
   0   1 -11   81.58    2.70
   0  -1  11   88.70    3.18
   0  -1  11   83.54    2.87
   0  -1  11   83.28    3.15
   1  -1  11    2.69    0.66
   7   0 -11   18.42    2.12
  -7   0  11   12.83    1.58
   6   0 -11   18.42    1.96
  -6   0  11   14.54    1.43
   5   0 -11   42.49    2.44
  -5   0  11   40.01    2.79
  -5   0  11   41.40    1.96
   4   0 -11   11.09    1.41
  -4   0  11    8.94    1.03
  -4   0  11    8.37    1.31
   3   0 -11   16.92    1.38
  -3   0  11   14.65    1.77
  -3   0  11   15.93    1.17
   2   0 -11   96.03    3.34
  -2   0  11   97.55    3.42
  -2   0  11   94.59    3.40
  -2   0  11   92.72    3.62
   1   0 -11   66.83    2.38
  -1   0  11   67.82    2.68
  -1   0  11   66.85    2.52
  -1   0  11   69.34    2.67
   0   0  11    8.69    1.04
   0   0  11    7.81    1.16
   7  -1 -11   31.00    2.45
  -7   1  11   27.62    1.95
   6  -1 -11   36.43    2.43
  -6   1  11   35.92    1.98
   5  -1 -11    0.66    0.76
  -5   1  11    0.10    0.50
  -5   1  11   -0.32    1.12
   4  -1 -11   77.87    3.28
  -4   1  11   75.16    3.47
  -4   1  11   76.86    2.88
   3  -1 -11   81.28    3.19
  -3   1  11   80.09    3.36
  -3   1  11   82.25    3.04
  -3   1  11   82.24    3.01
   2  -1 -11    6.49    0.91
  -2   1  11    7.31    0.94
  -2   1  11    3.70    1.14
  -2   1  11    5.38    0.77
   1  -1 -11   65.96    2.28
  -1   1  11   65.72    2.61
  -1   1  11   64.79    2.67
  -1   1  11   64.50    2.32
   0   1  11   99.30    3.76
   0   1  11  109.17    3.79
  -6   2  11    8.20    1.01
   5  -2 -11   58.31    2.94
  -5   2  11   54.39    2.33
  -5   2  11   52.09    3.01
   4  -2 -11   34.14    2.12
  -4   2  11   31.29    2.12
  -4   2  11   31.95    1.69
  -4   2  11   36.69    1.84
   3  -2 -11   25.82    1.71
  -3   2  11   24.61    1.44
  -3   2  11   25.32    1.58
  -3   2  11   20.87    1.62
   2  -2 -11   68.05    2.58
  -2   2  11   68.08    2.67
  -2   2  11   68.10    2.74
   1  -2 -11    9.68    0.76
  -1   2  11    8.32    1.07
  -1   2  11    8.23    0.71
  -1   2  11    8.53    1.35
   0   2  11   18.40    1.40
   6  -3 -11   13.06    2.03
  -6   3  11    9.00    1.44
   5  -3 -11   13.09    1.86
  -5   3  11    7.37    1.17
  -5   3  11   10.33    1.36
   4  -3 -11   65.59    3.10
  -4   3  11   66.76    2.70
  -4   3  11   66.32    2.62
  -4   3  11   65.38    2.98
   3  -3 -11   56.05    2.57
  -3   3  11   58.63    2.51
  -3   3  11   56.42    2.46
  -3   3  11   55.64    2.33
   2  -3 -11    1.35    0.58
  -2   3  11    0.19    0.52
  -2   3  11    0.71    0.73
  -1   3  11   53.43    2.33
  -1   3  11   50.97    2.45
   0   3  11   51.55    2.36
   5  -4 -11   61.53    3.25
  -5   4  11   59.40    2.53
  -5   4  11   60.51    2.58
   4  -4 -11   13.57    1.85
  -4   4  11   10.99    1.39
  -4   4  11    8.97    1.23
  -4   4  11    8.87    1.16
   3  -4 -11   19.79    2.10
  -3   4  11   16.45    1.39
  -3   4  11   17.21    1.38
  -3   4  11   19.64    1.61
   2  -4 -11   56.56    2.31
  -2   4  11   58.33    2.42
  -2   4  11   49.11    2.46
  -1   4  11   16.44    1.44
   0   4  11   15.62    1.51
   0 -12  12   37.60    2.15
   2  11 -12   12.74    1.61
  -2 -11  12   11.61    1.59
  -1 -11  12   63.39    2.83
   0 -11  12   13.65    1.44
   1 -11  12    7.88    1.25
   2 -11  12   67.16    3.05
   2 -11  12   61.97    2.71
   3  10 -12   40.32    2.40
  -3 -10  12   40.73    2.36
   2  10 -12   38.93    2.24
  -2 -10  12   38.80    2.17
  -1 -10  12    0.05    0.63
   0 -10  12   54.52    2.44
   1 -10  12   54.86    2.43
   2 -10  12   -0.24    0.59
   2 -10  12    1.05    0.69
   3 -10  12   39.89    2.10
   3 -10  12   40.99    2.26
   4   9 -12   42.16    2.57
  -4  -9  12   43.82    2.44
   3   9 -12   16.93    1.64
  -3  -9  12   17.34    1.63
   2   9 -12    5.85    1.15
  -2  -9  12    4.13    0.81
   1   9 -12   97.00    3.76
  -1  -9  12   97.66    3.65
   0  -9  12   29.67    1.71
   0  -9  12   29.22    1.81
   1  -9  12   24.54    1.61
   1  -9  12   21.25    1.51
   2  -9  12   87.99    3.39
   2  -9  12   83.93    3.27
   2  -9  12   82.19    3.29
   3  -9  12   28.43    1.78
   3  -9  12   29.97    1.76
   3  -9  12   29.83    1.85
   5   8 -12   35.29    2.50
  -5  -8  12   28.11    2.21
   4   8 -12   12.50    1.60
  -4  -8  12    8.63    1.45
   3   8 -12   76.75    3.28
  -3  -8  12   76.67    3.15
   2   8 -12   66.84    2.90
  -2  -8  12   67.58    2.85
  -2  -8  12   68.61    3.22
   1   8 -12    2.92    0.68
  -1  -8  12    3.52    0.73
   0  -8  12  130.08    4.50
   0  -8  12  128.24    4.60
   1  -8  12   72.81    2.90
   1  -8  12   70.62    2.88
   2  -8  12    1.77    0.61
   2  -8  12    0.34    0.57
   3  -8  12   68.56    2.91
   3  -8  12   74.14    2.98
   3  -8  12   70.80    2.79
   4  -8  12   64.87    2.75
   4  -8  12   59.30    2.75
   5   7 -12   26.88    2.20
  -5  -7  12   24.50    1.89
   4   7 -12  106.26    4.25
  -4  -7  12  104.32    3.99
   3   7 -12   11.80    1.33
  -3  -7  12   14.45    2.21
  -3  -7  12    9.61    1.26
   2   7 -12   23.68    1.60
  -2  -7  12   24.40    1.58
  -2  -7  12   26.48    1.93
   1   7 -12   74.80    3.01
  -1  -7  12   79.62    3.22
  -1  -7  12   76.03    3.01
   0  -7  12   15.02    1.31
   0  -7  12   12.76    1.26
   0  -7  12   12.37    1.25
   1  -7  12   38.62    1.99
   1  -7  12   41.14    1.99
   2  -7  12   96.46    3.43
   2  -7  12   97.29    3.47
   2  -7  12   90.02    3.53
   3  -7  12   26.15    1.74
   3  -7  12   26.94    1.60
   3  -7  12   30.70    1.55
   4  -7  12    2.40    0.77
   4  -7  12    1.32    0.74
   6   6 -12   29.01    2.42
  -6  -6  12   25.40    2.21
  -5  -6  12    6.65    1.01
   4   6 -12    1.64    0.74
  -4  -6  12    0.96    0.69
   3   6 -12   89.86    3.50
  -3  -6  12   84.59    3.35
  -3  -6  12   86.05    3.82
   2   6 -12   38.61    1.98
  -2  -6  12   43.50    2.34
  -2  -6  12   38.39    1.98
   1   6 -12   -0.08    0.45
  -1  -6  12    1.41    0.77
  -1  -6  12   -0.19    0.51
   0  -6  12   75.91    2.99
   0  -6  12   74.40    2.93
   0  -6  12   69.18    2.85
   1  -6  12   51.27    2.30
   1  -6  12   48.67    2.18
   2  -6  12    1.74    0.64
   2  -6  12    2.93    0.60
   3  -6  12   45.35    2.28
   3  -6  12   47.57    1.99
   6   5 -12    1.61    0.94
  -6  -5  12   -0.43    0.78
   5   5 -12   15.41    1.66
  -5  -5  12   12.07    1.44
   4   5 -12   72.96    3.17
  -4  -5  12   72.23    2.95
  -4  -5  12   67.93    3.72
   3   5 -12   17.87    1.43
  -3  -5  12   17.45    1.97
  -3  -5  12   17.08    1.35
   2   5 -12   46.21    2.17
  -2  -5  12   49.93    2.60
  -2  -5  12   47.97    2.18
   1   5 -12   51.59    2.24
  -1  -5  12   53.97    2.57
  -1  -5  12   54.73    2.34
   0   5 -12   34.89    1.64
   0  -5  12   33.32    1.91
   0  -5  12   32.17    1.74
   0  -5  12   35.94    1.84
   1  -5  12   35.23    1.85
   1  -5  12   32.46    1.79
   2  -5  12   86.45    3.11
   2  -5  12   89.19    3.03
   2  -5  12   86.02    3.36
   3  -5  12   10.67    1.30
   6   4 -12   57.31    3.16
  -6  -4  12   56.28    2.72
   5   4 -12   36.49    2.30
  -5  -4  12   33.15    1.96
   4   4 -12    1.02    0.64
  -4  -4  12    0.66    0.59
  -4  -4  12    1.17    1.26
   3   4 -12  161.79    5.40
  -3  -4  12  153.40    5.24
  -3  -4  12  157.44    5.99
   2   4 -12   32.19    2.11
  -2  -4  12   35.06    1.82
  -2  -4  12   37.22    2.44
   1   4 -12   22.84    1.34
  -1  -4  12   22.13    1.47
  -1  -4  12   23.24    1.92
  -1  -4  12   21.73    1.46
   0   4 -12  128.75    4.22
   0  -4  12  131.66    4.52
   0  -4  12  127.03    4.43
   0  -4  12  129.31    4.64
   1  -4  12  118.78    4.08
   1  -4  12  105.15    4.16
   2  -4  12    5.39    1.08
   2  -4  12    5.79    0.67
   2  -4  12    5.12    0.78
   6   3 -12    4.32    1.07
  -6  -3  12    0.66    0.75
   5   3 -12   16.34    1.70
  -5  -3  12   12.49    1.38
   4   3 -12   26.87    1.79
  -4  -3  12   26.38    2.63
  -4  -3  12   25.58    1.58
   3   3 -12    2.31    0.65
  -3  -3  12    1.65    0.59
  -3  -3  12    1.29    1.13
   2   3 -12   67.54    2.65
  -2  -3  12   65.84    3.43
  -2  -3  12   65.68    2.67
   1   3 -12   77.28    2.84
  -1  -3  12   76.41    3.53
  -1  -3  12   82.09    3.06
  -1  -3  12   79.45    3.01
   0   3 -12    1.22    0.44
   0  -3  12    1.59    0.66
   0  -3  12    0.52    0.90
   0  -3  12    1.12    0.56
   1  -3  12   51.44    2.28
   1  -3  12   46.78    2.18
   2  -3  12   65.22    2.78
   6   2 -12   68.26    3.37
  -6  -2  12   64.82    2.88
   5   2 -12   14.52    1.63
  -5  -2  12   11.79    1.34
   4   2 -12   38.79    2.16
  -4  -2  12   40.36    1.95
  -4  -2  12   38.04    2.76
   3   2 -12   85.96    3.31
  -3  -2  12   86.47    3.91
  -3  -2  12   85.45    3.21
   2   2 -12   57.52    2.30
  -2  -2  12   55.82    2.40
  -2  -2  12   50.94    2.91
  -2  -2  12   56.18    2.36
  -1  -2  12    2.08    0.59
  -1  -2  12    1.27    0.56
   0   2 -12   82.87    2.76
   0  -2  12   86.08    3.22
   0  -2  12   79.57    3.05
   1  -2  12   12.36    1.24
   6   1 -12   10.69    1.75
  -6  -1  12    8.02    1.05
   5   1 -12   46.97    2.63
  -5  -1  12   59.51    4.36
  -5  -1  12   46.17    2.24
   4   1 -12   71.52    3.07
  -4  -1  12   69.73    3.56
  -4  -1  12   72.13    2.84
  -3  -1  12    0.21    0.47
  -3  -1  12   -0.92    0.98
   2   1 -12   20.90    1.28
  -2  -1  12   20.65    1.48
  -2  -1  12   21.02    1.40
  -2  -1  12   16.52    1.79
   1   1 -12  101.99    3.35
  -1  -1  12  100.94    3.73
  -1  -1  12   97.12    3.59
  -1  -1  12  100.28    3.68
   0  -1  12   13.34    1.24
   1  -1  12   68.39    2.87
   6   0 -12   30.26    2.32
  -6   0  12   25.98    1.81
   5   0 -12   23.34    1.94
  -5   0  12   14.72    2.59
  -5   0  12   18.24    1.46
   4   0 -12   25.72    1.80
  -4   0  12   27.50    1.59
  -4   0  12   22.10    2.20
   3   0 -12   92.09    3.77
  -3   0  12   89.74    3.38
  -3   0  12   86.81    3.73
  -3   0  12   90.19    3.33
   2   0 -12   37.27    1.71
  -2   0  12   34.39    1.95
  -2   0  12   36.80    1.94
  -2   0  12   34.80    1.82
  -1   0  12    4.18    0.72
  -1   0  12    4.25    0.64
   0   0  12   87.79    3.37
   1   0  12   18.25    1.54
   6  -1 -12    3.11    1.07
   5  -1 -12   32.95    2.21
  -5   1  12   28.46    1.75
   4  -1 -12   45.10    2.30
  -4   1  12   40.95    1.99
  -4   1  12   34.25    2.46
  -4   1  12   40.77    2.17
   3  -1 -12    2.03    0.78
  -3   1  12    1.44    0.72
  -3   1  12   -0.74    0.77
  -3   1  12    0.26    0.54
   2  -1 -12   65.23    2.50
  -2   1  12   70.96    3.56
  -2   1  12   64.11    2.66
  -2   1  12   61.03    2.55
   1  -1 -12   53.67    1.97
  -1   1  12   55.30    2.04
  -1   1  12   56.32    2.44
   0   1  12    0.68    0.63
   5  -2 -12   19.19    1.90
  -5   2  12   16.18    1.48
   4  -2 -12   22.65    1.79
  -4   2  12   14.13    1.82
  -4   2  12   18.87    1.44
  -4   2  12   18.79    1.75
   3  -2 -12   49.69    2.63
  -3   2  12   44.24    2.17
  -3   2  12   52.76    3.15
  -3   2  12   46.37    2.31
   2  -2 -12   13.83    1.16
  -2   2  12   12.13    1.30
  -1   2  12   14.79    1.40
   0   2  12   54.56    2.57
   4  -3 -12   38.09    2.23
  -4   3  12   30.26    2.15
  -4   3  12   33.25    1.91
  -3   3  12   -0.03    0.64
  -2   3  12   44.80    2.19
  -1   3  12   59.20    2.66
   0 -11  13    5.80    1.00
   2  10 -13    1.05    0.79
  -2 -10  13    0.55    0.83
  -1 -10  13   28.79    1.97
   0 -10  13   62.22    2.78
   1 -10  13    1.03    0.71
   2 -10  13   39.97    2.21
   3   9 -13   23.09    1.92
  -3  -9  13   24.43    1.92
   2   9 -13   57.86    2.77
  -2  -9  13   59.52    2.72
   1   9 -13   25.26    1.77
  -1  -9  13   26.27    1.79
   0  -9  13   29.67    1.85
   1  -9  13  120.50    4.31
   1  -9  13  114.93    4.31
   2  -9  13   12.25    1.45
   2  -9  13   10.39    1.35
   4   8 -13   55.29    2.91
  -4  -8  13   51.85    2.73
   3   8 -13   33.44    2.07
  -3  -8  13   29.68    2.04
   2   8 -13    4.07    0.84
  -2  -8  13    4.12    0.90
   1   8 -13   48.77    2.39
  -1  -8  13   52.85    2.61
  -1  -8  13   51.74    2.44
   0  -8  13   60.95    2.75
   0  -8  13   66.54    2.86
   1  -8  13    5.74    0.92
   2  -8  13   55.18    2.51
   2  -8  13   58.29    2.47
   2  -8  13   54.75    2.59
   3  -8  13   43.20    2.35
   3  -8  13   46.14    2.21
   5   7 -13   47.41    2.92
   4   7 -13   10.92    1.55
  -4  -7  13    7.70    1.06
   3   7 -13   32.80    2.00
  -3  -7  13   31.15    1.95
   2   7 -13   57.30    2.59
  -2  -7  13   56.20    2.86
  -2  -7  13   56.17    2.58
   1   7 -13    8.03    1.11
  -1  -7  13    7.09    1.15
   0  -7  13   34.24    1.90
   0  -7  13   25.90    1.75
   1  -7  13  116.20    4.17
   1  -7  13  117.55    4.29
   2  -7  13   31.76    1.91
   2  -7  13   32.96    1.77
   2  -7  13   29.16    1.91
   3  -7  13    4.25    0.87
   3  -7  13    6.12    1.14
   5   6 -13    5.20    1.15
   4   6 -13   48.64    2.62
  -4  -6  13   48.71    2.46
   3   6 -13   55.07    2.61
  -3  -6  13   54.47    2.53
   2   6 -13    0.75    0.56
  -2  -6  13   -0.55    0.86
  -2  -6  13    0.72    0.59
   1   6 -13   54.78    2.40
  -1  -6  13   54.23    2.48
  -1  -6  13   55.34    2.67
   0  -6  13   63.70    2.84
   0  -6  13   66.99    2.81
   1  -6  13    0.13    0.63
   1  -6  13    1.47    0.72
   2  -6  13   32.17    1.63
   2  -6  13   33.40    1.99
   3  -6  13   21.11    1.76
   5   5 -13   47.65    2.69
  -5  -5  13   43.64    2.44
   4   5 -13    8.63    1.36
  -4  -5  13    6.07    0.93
   3   5 -13   23.34    1.64
  -3  -5  13   22.21    2.35
  -3  -5  13   22.69    1.58
   2   5 -13  110.36    4.04
  -2  -5  13  114.69    4.58
  -2  -5  13  112.90    4.09
   1   5 -13   10.33    1.32
  -1  -5  13   12.49    1.66
  -1  -5  13   11.55    1.22
   0  -5  13   39.73    2.26
   0  -5  13   41.20    2.08
   1  -5  13   68.49    2.90
   1  -5  13   64.79    2.79
   2  -5  13   10.30    1.39
   2  -5  13    8.65    0.93
   3  -5  13   31.36    2.16
  -6  -4  13   14.99    2.13
   5   4 -13   10.32    1.59
  -5  -4  13    8.01    1.10
   4   4 -13   67.96    3.05
  -4  -4  13   66.93    2.89
   3   4 -13   13.42    1.33
  -3  -4  13   11.62    2.31
  -3  -4  13   12.13    1.26
   2   4 -13   14.91    1.26
  -2  -4  13   10.00    2.05
  -2  -4  13   11.78    1.28
   1   4 -13  123.09    4.18
  -1  -4  13  117.10    4.84
  -1  -4  13  127.56    4.42
   0  -4  13   35.14    1.97
   0  -4  13   32.99    2.34
   1  -4  13    2.31    0.69
   1  -4  13    2.39    0.94
   2  -4  13   42.19    2.23
   6   3 -13   10.12    1.84
  -6  -3  13    6.48    1.08
   5   3 -13   59.94    3.02
  -5  -3  13   59.59    2.74
   4   3 -13    1.82    0.71
  -4  -3  13   -0.30    0.59
   3   3 -13   27.75    1.70
  -3  -3  13   25.74    1.62
  -3  -3  13   26.43    2.59
  -2  -3  13   43.08    2.89
  -2  -3  13   45.58    2.19
   1   3 -13    9.88    1.01
  -1  -3  13    7.63    1.37
  -1  -3  13    9.85    1.23
   0  -3  13   63.13    2.80
   0  -3  13   64.69    2.76
   1  -3  13   68.51    2.98
   2  -3  13    5.83    0.99
  -6  -2  13    3.16    0.96
  -5  -2  13    8.62    1.36
   4   2 -13   92.27    3.64
  -4  -2  13   85.48    4.20
  -4  -2  13   87.13    3.42
   3   2 -13   28.84    1.70
  -3  -2  13   28.70    1.65
  -3  -2  13   21.77    2.28
   2   2 -13    1.22    0.56
  -2  -2  13   -1.65    0.96
  -2  -2  13    0.37    0.57
   1   2 -13   59.33    2.28
  -1  -2  13   57.01    2.70
  -1  -2  13   59.48    2.61
   0  -2  13   36.99    2.06
   1  -2  13    0.60    0.66
   2  -2  13   44.10    2.94
   5   1 -13   50.12    2.68
  -5  -1  13   49.19    2.39
   4   1 -13    1.64    0.73
  -4  -1  13   -0.33    0.58
   3   1 -13   55.78    2.41
  -3  -1  13   49.87    2.32
  -3  -1  13   48.70    2.82
   2   1 -13   72.61    2.71
  -2  -1  13   69.98    2.88
  -2  -1  13   65.56    3.04
   1   1 -13    0.64    0.53
  -1  -1  13   -0.43    0.59
  -1  -1  13   -0.51    0.64
   0  -1  13   48.56    2.42
   1  -1  13   42.52    2.28
   5   0 -13   18.76    1.83
  -5   0  13   14.12    1.53
   4   0 -13   59.23    2.69
  -4   0  13   50.99    3.08
  -4   0  13   53.40    2.45
   3   0 -13   25.93    1.66
  -3   0  13   20.00    1.56
   2   0 -13    7.01    1.01
  -2   0  13    5.65    1.05
  -2   0  13    4.34    0.81
   1   0 -13   83.07    2.80
  -1   0  13   80.75    3.28
   0   0  13   21.91    1.69
   4  -1 -13    0.37    0.76
  -4   1  13    0.14    0.68
   3  -1 -13   34.16    1.98
  -3   1  13   30.35    1.87
   2  -1 -13   42.33    1.87
  -2   1  13   41.03    2.19
  -1   1  13    0.23    0.74
  -2  -9  14    5.96    1.20
  -1  -9  14   13.05    1.62
   0  -9  14   82.71    3.44
   3   8 -14    1.30    0.81
   2   8 -14   32.41    2.04
  -2  -8  14   33.80    2.11
   1   8 -14   42.59    2.24
  -1  -8  14   40.95    2.30
   0  -8  14    7.80    1.49
   1  -8  14   60.54    2.78
   1  -8  14   55.86    2.77
   3   7 -14   50.94    2.58
  -3  -7  14   45.05    2.52
   2   7 -14   10.18    1.32
  -2  -7  14   10.65    1.49
   1   7 -14   42.49    2.18
  -1  -7  14   42.91    2.51
  -1  -7  14   43.44    2.30
   0  -7  14   79.78    3.43
   0  -7  14   82.80    3.39
   1  -7  14   21.00    1.77
   4   6 -14   24.30    2.01
  -4  -6  14   26.85    2.67
   3   6 -14    1.86    0.72
  -3  -6  14    1.00    0.77
   2   6 -14   59.13    2.65
  -2  -6  14   55.42    3.17
  -2  -6  14   59.75    2.69
   1   6 -14   64.87    2.74
  -1  -6  14   66.71    2.93
  -1  -6  14   65.02    3.23
   0  -6  14    0.95    0.95
   0  -6  14    1.12    0.76
   1  -6  14   15.16    1.60
   4   5 -14   33.06    2.13
  -4  -5  14   27.43    1.96
   3   5 -14   67.28    2.97
  -3  -5  14   67.02    2.95
   2   5 -14   17.17    1.42
  -2  -5  14   11.74    1.75
  -2  -5  14   15.79    1.52
   1   5 -14   40.11    2.19
  -1  -5  14   42.22    2.20
  -1  -5  14   38.81    2.72
   0  -5  14   51.06    2.60
   0  -5  14   64.03    4.16
   1  -5  14    3.47    0.88
   4   4 -14   14.77    1.59
  -4  -4  14   13.40    1.61
   3   4 -14    8.60    1.29
  -3  -4  14    3.81    1.55
  -3  -4  14    6.14    0.94
   2   4 -14   64.46    2.68
  -2  -4  14   65.60    2.84
  -2  -4  14   57.30    3.55
   1   4 -14   35.51    2.13
  -1  -4  14   31.58    1.95
  -1  -4  14   26.40    2.68
   0  -4  14    4.95    0.90
   1  -4  14   52.67    3.32
   4   3 -14   31.14    2.02
  -4  -3  14   26.39    1.94
   3   3 -14   52.73    2.42
  -3  -3  14   50.64    2.41
  -3  -3  14   39.95    3.08
   2   3 -14    1.47    0.65
  -2  -3  14    0.28    0.66
   1   3 -14   34.19    1.72
  -1  -3  14   34.83    2.09
   0  -3  14   46.03    2.45
   4   2 -14   19.48    1.72
  -4  -2  14   13.54    1.54
  -3  -2  14    1.70    0.78
   2   2 -14   47.48    3.23
  -2  -2  14   57.21    2.56
   1   2 -14   50.20    2.07
   0  -2  14    3.62    1.00
   3   1 -14   43.49    2.18
  -3  -1  14   40.50    2.23
   2   1 -14    3.34    0.74
  -2  -1  14    1.44    0.78
  -1  -1  14   20.13    1.79
   0   0   0    0.00    0.00
;
_shelx_hkl_checksum              70885
loop_
_space_group_symop_operation_xyz
'x, y, z'
'-x, -y, -z'
loop_
_atom_site_label
_atom_site_type_symbol
_atom_site_fract_x
_atom_site_fract_y
_atom_site_fract_z
_atom_site_U_iso_or_equiv
_atom_site_adp_type
_atom_site_occupancy
_atom_site_site_symmetry_order
_atom_site_calc_flag
_atom_site_refinement_flags_posn
_atom_site_refinement_flags_adp
_atom_site_refinement_flags_occupancy
_atom_site_disorder_assembly
_atom_site_disorder_group
Tb1 Tb 0.66327(2) 0.75690(2) 0.66504(2) 0.01381(7) Uani 1 1 d . . . . .
N1 N 0.1132(4) 0.3734(3) -0.1639(3) 0.0250(6) Uani 1 1 d . . . . .
N2 N 0.0446(4) 0.3356(3) -0.2910(3) 0.0318(7) Uani 1 1 d . . . . .
N3 N 0.0860(5) 0.4414(3) -0.3177(3) 0.0402(8) Uani 1 1 d . . . . .
N4 N 0.1819(5) 0.5523(3) -0.2092(3) 0.0368(8) Uani 1 1 d . . . . .
O1 O 0.4938(4) 0.6471(2) 0.4588(2) 0.0333(6) Uani 1 1 d . . . . .
O2 O 0.4116(4) 0.4396(2) 0.2989(2) 0.0260(5) Uani 1 1 d . . . . .
O3 O 0.4749(3) 1.0560(2) 0.3574(2) 0.0189(5) Uani 1 1 d . . . . .
O4 O 0.2877(3) 1.0088(2) 0.1696(2) 0.0207(5) Uani 1 1 d . . . . .
O5 O 0.4010(4) 0.7555(3) 0.7517(3) 0.0471(8) Uani 1 1 d . . . . .
H5A H 0.359(8) 0.813(6) 0.777(6) 0.071 Uiso 1 1 d . U . . .
H5B H 0.330(8) 0.691(6) 0.772(5) 0.071 Uiso 1 1 d . U . . .
O6 O 0.8719(4) 0.8977(3) 0.6017(3) 0.0361(6) Uani 1 1 d D . . . .
H6C H 0.977(4) 0.894(4) 0.587(5) 0.054 Uiso 1 1 d D U . . .
H6B H 0.840(6) 0.961(4) 0.585(5) 0.054 Uiso 1 1 d D U . . .
O7 O 0.8773(5) 0.6291(3) 0.5737(3) 0.0416(8) Uani 1 1 d . . . . .
H7A H 0.889(8) 0.606(5) 0.504(5) 0.062 Uiso 1 1 d . U . . .
H7B H 0.921(8) 0.595(6) 0.603(6) 0.062 Uiso 1 1 d . U . . .
O8 O 0.9193(4) 0.7930(3) 0.8382(3) 0.0304(6) Uani 1 1 d . . . . .
H8B H 0.913(6) 0.805(5) 0.916(5) 0.046 Uiso 1 1 d . U . . .
H8C H 1.005(7) 0.828(5) 0.846(5) 0.046 Uiso 1 1 d . U . . .
O9 O 0.7055(5) 0.0244(3) 0.0929(3) 0.0532(8) Uani 1 1 d D . . . .
H9B H 0.736(8) -0.040(4) 0.101(6) 0.080 Uiso 1 1 d D U . . .
O10 O 0.0945(4) 0.1617(3) 0.9150(3) 0.0353(6) Uani 1 1 d D . . . .
H10A H 0.114(6) 0.214(4) 0.878(4) 0.053 Uiso 1 1 d D U . . .
H10B H -0.013(4) 0.106(4) 0.878(4) 0.053 Uiso 1 1 d D U . . .
O11 O 0.8287(4) 1.0890(3) 0.5052(3) 0.0281(5) Uani 1 1 d . . . . .
H11A H 0.874(6) 1.168(5) 0.573(5) 0.042 Uiso 1 1 d . U . . .
H11B H 0.743(7) 1.090(5) 0.468(5) 0.042 Uiso 1 1 d . U . . .
C1 C 0.4399(4) 0.5665(3) 0.3410(3) 0.0180(6) Uani 1 1 d . . . . .
C2 C 0.4032(4) 0.6268(3) 0.2438(3) 0.0158(6) Uani 1 1 d . . . . .
C3 C 0.4331(4) 0.7683(3) 0.2867(3) 0.0157(6) Uani 1 1 d . . . . .
H3A H 0.487(5) 0.818(4) 0.368(4) 0.019 Uiso 1 1 d . U . . .
C4 C 0.3814(4) 0.8226(3) 0.1983(3) 0.0154(6) Uani 1 1 d . . . . .
C5 C 0.3854(4) 0.9708(3) 0.2446(3) 0.0148(6) Uani 1 1 d . . . . .
C6 C 0.3082(4) 0.7367(3) 0.0675(3) 0.0177(6) Uani 1 1 d . . . . .
H6A H 0.270(5) 0.771(4) 0.006(4) 0.021 Uiso 1 1 d . U . . .
C7 C 0.2826(4) 0.5955(3) 0.0226(3) 0.0164(6) Uani 1 1 d . . . . .
C8 C 0.3298(4) 0.5416(3) 0.1127(3) 0.0179(6) Uani 1 1 d . . . . .
H8A H 0.308(5) 0.452(4) 0.085(3) 0.021 Uiso 1 1 d . U . . .
C9 C 0.1954(4) 0.5074(3) -0.1149(3) 0.0187(6) Uani 1 1 d . . . . .
loop_
_atom_site_aniso_label
_atom_site_aniso_U_11
_atom_site_aniso_U_22
_atom_site_aniso_U_33
_atom_site_aniso_U_23
_atom_site_aniso_U_13
_atom_site_aniso_U_12
Tb1 0.02213(10) 0.00827(9) 0.01158(9) 0.00484(6) 0.00269(6) 0.00520(6)
N1 0.0373(16) 0.0167(13) 0.0144(14) 0.0047(11) 0.0015(12) -0.0002(12)
N2 0.0433(18) 0.0230(15) 0.0156(15) 0.0020(12) 0.0026(13) -0.0057(13)
N3 0.058(2) 0.0322(17) 0.0153(15) 0.0089(13) -0.0026(15) -0.0109(15)
N4 0.060(2) 0.0240(15) 0.0157(15) 0.0104(13) -0.0006(15) -0.0081(15)
O1 0.0628(17) 0.0170(11) 0.0131(12) 0.0055(10) -0.0036(12) 0.0076(12)
O2 0.0478(15) 0.0116(11) 0.0211(12) 0.0102(9) 0.0059(11) 0.0087(10)
O3 0.0252(11) 0.0102(10) 0.0175(11) 0.0042(9) -0.0007(9) 0.0043(9)
O4 0.0313(12) 0.0120(10) 0.0179(11) 0.0067(9) 0.0000(9) 0.0081(9)
O5 0.0555(18) 0.0251(14) 0.088(2) 0.0345(15) 0.0520(18) 0.0205(13)
O6 0.0367(15) 0.0391(15) 0.0592(18) 0.0368(14) 0.0302(14) 0.0204(12)
O7 0.071(2) 0.0536(18) 0.0297(15) 0.0268(14) 0.0307(15) 0.0497(16)
O8 0.0268(13) 0.0398(16) 0.0251(14) 0.0162(12) 0.0001(12) 0.0098(12)
O9 0.085(2) 0.0453(18) 0.0553(19) 0.0287(16) 0.0385(18) 0.0418(17)
O10 0.0365(14) 0.0301(14) 0.0360(15) 0.0186(12) -0.0037(12) 0.0022(12)
O11 0.0216(12) 0.0256(13) 0.0318(15) 0.0080(11) 0.0016(11) 0.0064(11)
C1 0.0255(16) 0.0122(15) 0.0177(16) 0.0081(13) 0.0032(13) 0.0059(12)
C2 0.0231(15) 0.0117(14) 0.0151(15) 0.0076(12) 0.0047(13) 0.0059(12)
C3 0.0219(15) 0.0106(14) 0.0114(15) 0.0028(12) 0.0008(13) 0.0034(12)
C4 0.0201(15) 0.0104(14) 0.0161(15) 0.0061(12) 0.0047(12) 0.0038(12)
C5 0.0184(14) 0.0110(14) 0.0177(16) 0.0085(12) 0.0064(13) 0.0030(12)
C6 0.0254(16) 0.0146(15) 0.0156(15) 0.0089(12) 0.0040(13) 0.0067(13)
C7 0.0225(15) 0.0130(14) 0.0132(15) 0.0055(12) 0.0047(12) 0.0037(12)
C8 0.0269(16) 0.0067(14) 0.0177(16) 0.0040(12) 0.0038(13) 0.0032(12)
C9 0.0258(16) 0.0154(15) 0.0133(15) 0.0070(12) 0.0040(13) 0.0005(13)
loop_
_atom_type_symbol
_atom_type_description
_atom_type_scat_dispersion_real
_atom_type_scat_dispersion_imag
_atom_type_scat_source
C C 0.0033 0.0016 'International Tables Vol C Tables 4.2.6.8 and 6.1.1.4'
N N 0.0061 0.0033 'International Tables Vol C Tables 4.2.6.8 and 6.1.1.4'
O O 0.0106 0.0060 'International Tables Vol C Tables 4.2.6.8 and 6.1.1.4'
Tb Tb -0.1723 4.1537 'International Tables Vol C Tables 4.2.6.8 and 6.1.1.4'
H H 0.0000 0.0000 'International Tables Vol C Tables 4.2.6.8 and 6.1.1.4'
loop_
_geom_angle_atom_site_label_1
_geom_angle_atom_site_label_2
_geom_angle_atom_site_label_3
_geom_angle
_geom_angle_site_symmetry_1
_geom_angle_site_symmetry_3
O1 Tb1 O2 91.57(8) . 2_666
O1 Tb1 O5 94.28(12) . .
O2 Tb1 O5 70.73(9) 2_666 .
O1 Tb1 O6 89.31(10) . .
O2 Tb1 O6 148.21(9) 2_666 .
O5 Tb1 O6 140.87(9) . .
O1 Tb1 O8 152.11(10) . .
O2 Tb1 O8 76.83(9) 2_666 .
O5 Tb1 O8 105.29(12) . .
O6 Tb1 O8 87.82(10) . .
O1 Tb1 O7 81.00(11) . .
O2 Tb1 O7 76.51(10) 2_666 .
O5 Tb1 O7 146.77(10) . .
O6 Tb1 O7 72.25(10) . .
O8 Tb1 O7 71.71(10) . .
O1 Tb1 O4 132.31(8) . 2_676
O2 Tb1 O4 124.38(7) 2_666 2_676
O5 Tb1 O4 73.33(9) . 2_676
O6 Tb1 O4 75.62(9) . 2_676
O8 Tb1 O4 73.45(8) . 2_676
O7 Tb1 O4 132.82(10) . 2_676
O1 Tb1 O3 80.38(8) . 2_676
O2 Tb1 O3 141.24(8) 2_666 2_676
O5 Tb1 O3 72.16(9) . 2_676
O6 Tb1 O3 70.09(8) . 2_676
O8 Tb1 O3 124.20(8) . 2_676
O7 Tb1 O3 137.88(9) . 2_676
O4 Tb1 O3 51.93(7) 2_676 2_676
O1 Tb1 C5 106.23(9) . 2_676
O2 Tb1 C5 139.68(8) 2_666 2_676
O5 Tb1 C5 72.08(9) . 2_676
O6 Tb1 C5 69.53(8) . 2_676
O8 Tb1 C5 98.69(9) . 2_676
O7 Tb1 C5 140.91(10) . 2_676
O4 Tb1 C5 26.10(8) 2_676 2_676
O3 Tb1 C5 25.90(8) 2_676 2_676
C9 N1 N2 105.7(3) . .
N3 N2 N1 109.1(3) . .
N2 N3 N4 110.1(3) . .
C9 N4 N3 104.7(3) . .
C1 O1 Tb1 161.6(2) . .
C1 O2 Tb1 148.3(2) . 2_666
C5 O3 Tb1 92.77(17) . 2_676
C5 O4 Tb1 95.10(17) . 2_676
Tb1 O5 H5A 127(5) . .
Tb1 O5 H5B 132(3) . .
H5A O5 H5B 100(5) . .
Tb1 O6 H6C 131(3) . .
Tb1 O6 H6B 120(3) . .
H6C O6 H6B 108(3) . .
Tb1 O7 H7A 128(4) . .
Tb1 O7 H7B 122(5) . .
H7A O7 H7B 109(6) . .
Tb1 O8 H8B 126(3) . .
Tb1 O8 H8C 123(5) . .
H8B O8 H8C 104(5) . .
H10A O10 H10B 110(3) . .
H11A O11 H11B 109(5) . .
O2 C1 O1 124.7(3) . .
O2 C1 C2 117.8(3) . .
O1 C1 C2 117.5(3) . .
C8 C2 C3 120.2(3) . .
C8 C2 C1 120.1(3) . .
C3 C2 C1 119.7(3) . .
C4 C3 C2 119.5(3) . .
C4 C3 H3A 124(2) . .
C2 C3 H3A 117(2) . .
C3 C4 C6 119.8(3) . .
C3 C4 C5 120.4(3) . .
C6 C4 C5 119.5(3) . .
O3 C5 O4 119.9(3) . .
O3 C5 C4 121.5(3) . .
O4 C5 C4 118.5(3) . .
O3 C5 Tb1 61.33(15) . 2_676
O4 C5 Tb1 58.80(15) . 2_676
C4 C5 Tb1 171.5(2) . 2_676
C4 C6 C7 121.2(3) . .
C4 C6 H6A 121(2) . .
C7 C6 H6A 118(2) . .
C8 C7 C6 118.5(3) . .
C8 C7 C9 121.7(3) . .
C6 C7 C9 119.6(3) . .
C2 C8 C7 120.7(3) . .
C2 C8 H8A 121(2) . .
C7 C8 H8A 119(2) . .
N1 C9 N4 110.4(3) . .
N1 C9 C7 125.5(3) . .
N4 C9 C7 124.0(3) . .
loop_
_geom_bond_atom_site_label_1
_geom_bond_atom_site_label_2
_geom_bond_distance
_geom_bond_site_symmetry_2
Tb1 O1 2.233(2) .
Tb1 O2 2.318(2) 2_666
Tb1 O5 2.345(3) .
Tb1 O6 2.379(2) .
Tb1 O8 2.380(3) .
Tb1 O7 2.429(3) .
Tb1 O4 2.468(2) 2_676
Tb1 O3 2.525(2) 2_676
Tb1 C5 2.874(3) 2_676
N1 C9 1.334(4) .
N1 N2 1.336(4) .
N2 N3 1.297(4) .
N3 N4 1.341(4) .
N4 C9 1.338(4) .
O1 C1 1.252(4) .
O2 C1 1.248(4) .
O2 Tb1 2.318(2) 2_666
O3 C5 1.257(4) .
O3 Tb1 2.525(2) 2_676
O4 C5 1.270(4) .
O4 Tb1 2.468(2) 2_676
O5 H5A 0.74(6) .
O5 H5B 0.92(6) .
O6 H6C 0.837(19) .
O6 H6B 0.843(19) .
O7 H7A 0.77(6) .
O7 H7B 0.67(6) .
O8 H8B 0.87(5) .
O8 H8C 0.66(5) .
O9 H9B 0.80(2) .
O10 H10A 0.838(19) .
O10 H10B 0.848(19) .
O11 H11A 0.88(5) .
O11 H11B 0.71(5) .
C1 C2 1.502(4) .
C2 C8 1.388(4) .
C2 C3 1.396(4) .
C3 C4 1.387(4) .
C3 H3A 0.87(4) .
C4 C6 1.388(4) .
C4 C5 1.496(4) .
C5 Tb1 2.874(3) 2_676
C6 C7 1.394(4) .
C6 H6A 0.95(4) .
C7 C8 1.393(4) .
C7 C9 1.463(4) .
C8 H8A 0.89(4) .
loop_
_geom_hbond_atom_site_label_D
_geom_hbond_atom_site_label_H
_geom_hbond_atom_site_label_A
_geom_hbond_distance_DH
_geom_hbond_distance_HA
_geom_hbond_distance_DA
_geom_hbond_angle_DHA
_geom_hbond_site_symmetry_A
O5 H5A O9 0.74(6) 2.05(6) 2.751(4) 160(6) 2_666
O5 H5B N4 0.92(6) 1.81(6) 2.732(4) 173(5) 1_556
O6 H6B O11 0.843(19) 1.94(3) 2.742(4) 159(4) .
O6 H6C O11 0.837(19) 1.96(3) 2.735(3) 155(4) 2_776
O7 H7A N3 0.77(6) 2.05(6) 2.818(4) 175(6) 2_665
O7 H7B N3 0.67(6) 2.59(6) 3.256(4) 172(6) 1_656
O8 H8B O10 0.87(5) 1.84(5) 2.707(4) 177(4) 2_667
O8 H8C O9 0.66(5) 2.28(5) 2.926(5) 170(6) 2_766
O9 H9B O10 0.80(2) 1.98(3) 2.720(4) 152(6) 2_656
O10 H10B O4 0.848(19) 2.07(2) 2.901(3) 167(5) 2_566
O10 H10A N1 0.838(19) 1.96(3) 2.763(4) 159(5) 1_556
O11 H11A N2 0.88(5) 1.94(5) 2.795(4) 163(4) 1_666
O11 H11B O3 0.71(5) 2.08(5) 2.784(3) 170(5) .
loop_
_geom_torsion_atom_site_label_1
_geom_torsion_atom_site_label_2
_geom_torsion_atom_site_label_3
_geom_torsion_atom_site_label_4
_geom_torsion
_geom_torsion_site_symmetry_1
_geom_torsion_site_symmetry_2
_geom_torsion_site_symmetry_3
_geom_torsion_site_symmetry_4
C9 N1 N2 N3 0.9(4) . . . .
N1 N2 N3 N4 -0.4(5) . . . .
N2 N3 N4 C9 -0.3(5) . . . .
Tb1 O2 C1 O1 25.6(6) 2_666 . . .
Tb1 O2 C1 C2 -153.1(3) 2_666 . . .
Tb1 O1 C1 O2 55.2(9) . . . .
Tb1 O1 C1 C2 -126.1(6) . . . .
O2 C1 C2 C8 3.7(5) . . . .
O1 C1 C2 C8 -175.2(3) . . . .
O2 C1 C2 C3 180.0(3) . . . .
O1 C1 C2 C3 1.1(5) . . . .
C8 C2 C3 C4 2.7(5) . . . .
C1 C2 C3 C4 -173.5(3) . . . .
C2 C3 C4 C6 -2.7(5) . . . .
C2 C3 C4 C5 170.9(3) . . . .
Tb1 O3 C5 O4 5.5(3) 2_676 . . .
Tb1 O3 C5 C4 -170.7(2) 2_676 . . .
Tb1 O4 C5 O3 -5.6(3) 2_676 . . .
Tb1 O4 C5 C4 170.7(2) 2_676 . . .
C3 C4 C5 O3 17.1(4) . . . .
C6 C4 C5 O3 -169.3(3) . . . .
C3 C4 C5 O4 -159.2(3) . . . .
C6 C4 C5 O4 14.5(4) . . . .
C3 C4 C6 C7 0.9(5) . . . .
C5 C4 C6 C7 -172.8(3) . . . .
C4 C6 C7 C8 0.9(5) . . . .
C4 C6 C7 C9 176.7(3) . . . .
C3 C2 C8 C7 -0.9(5) . . . .
C1 C2 C8 C7 175.4(3) . . . .
C6 C7 C8 C2 -0.9(5) . . . .
C9 C7 C8 C2 -176.6(3) . . . .
N2 N1 C9 N4 -1.1(4) . . . .
N2 N1 C9 C7 176.8(3) . . . .
N3 N4 C9 N1 0.9(4) . . . .
N3 N4 C9 C7 -177.1(3) . . . .
C8 C7 C9 N1 16.5(5) . . . .
C6 C7 C9 N1 -159.1(3) . . . .
C8 C7 C9 N4 -165.9(3) . . . .
C6 C7 C9 N4 18.5(5) . . . .
