#------------------------------------------------------------------------------
#$Date: 2021-03-29 10:21:57 +0300 (Mon, 29 Mar 2021) $
#$Revision: 263405 $
#$URL: file:///home/coder/svn-repositories/cod/cif/1/56/13/1561322.cif $
#------------------------------------------------------------------------------
#
# This file is available in the Crystallography Open Database (COD),
# http://www.crystallography.net/
#
# All data on this site have been placed in the public domain by the
# contributors.
#
data_1561322
loop_
_publ_author_name
'Zhang, Xiu-Mei'
'Li, Peng'
'Gao, Wei'
'Liu, Feng'
'Liu, Jie-Ping'
_publ_section_title
;
 Construction of three lanthanide metal-organic frameworks: Synthesis,
 structure, magnetic properties and highly selective sensing of metal ions
;
_journal_name_full               'Journal of Solid State Chemistry'
_journal_page_first              6
_journal_page_last               11
_journal_paper_doi               10.1016/j.jssc.2016.09.009
_journal_volume                  244
_journal_year                    2016
_chemical_formula_sum            'C9 H17 Dy N4 O11'
_chemical_formula_weight         519.77
_space_group_crystal_system      triclinic
_space_group_IT_number           2
_space_group_name_Hall           '-P 1'
_space_group_name_H-M_alt        'P -1'
_atom_sites_solution_hydrogens   mixed
_cell_angle_alpha                111.817(4)
_cell_angle_beta                 99.390(4)
_cell_angle_gamma                100.699(4)
_cell_formula_units_Z            2
_cell_length_a                   7.4832(10)
_cell_length_b                   10.9344(13)
_cell_length_c                   11.4824(15)
_cell_measurement_reflns_used    9222
_cell_measurement_temperature    293(2)
_cell_measurement_theta_max      27.55
_cell_measurement_theta_min      3.06
_cell_volume                     828.86(19)
_computing_cell_refinement       'Bruker SMART'
_computing_data_collection       'Bruker SMART'
_computing_data_reduction        'Bruker SAINT'
_computing_molecular_graphics    'Bruker SHELXTL'
_computing_publication_material  'Bruker SHELXTL'
_computing_structure_refinement  'SHELXL-2014/7 (Sheldrick, 2014)'
_computing_structure_solution    'Bruker SHELXTL'
_diffrn_ambient_temperature      293(2)
_diffrn_measured_fraction_theta_full 0.998
_diffrn_measured_fraction_theta_max 0.998
_diffrn_measurement_device_type  'CCD area detector'
_diffrn_measurement_method       'phi and omega scans'
_diffrn_radiation_type           MoK\a
_diffrn_radiation_wavelength     0.71073
_diffrn_reflns_av_R_equivalents  0.0191
_diffrn_reflns_av_unetI/netI     0.0151
_diffrn_reflns_Laue_measured_fraction_full 0.998
_diffrn_reflns_Laue_measured_fraction_max 0.998
_diffrn_reflns_limit_h_max       8
_diffrn_reflns_limit_h_min       -8
_diffrn_reflns_limit_k_max       12
_diffrn_reflns_limit_k_min       -12
_diffrn_reflns_limit_l_max       13
_diffrn_reflns_limit_l_min       -13
_diffrn_reflns_number            13312
_diffrn_reflns_point_group_measured_fraction_full 0.998
_diffrn_reflns_point_group_measured_fraction_max 0.998
_diffrn_reflns_theta_full        25.005
_diffrn_reflns_theta_max         25.005
_diffrn_reflns_theta_min         3.038
_diffrn_source                   'fine-focus sealed tube'
_exptl_absorpt_coefficient_mu    4.573
_exptl_absorpt_correction_type   none
_exptl_crystal_colour            colorless
_exptl_crystal_density_diffrn    2.083
_exptl_crystal_density_method    'not measured'
_exptl_crystal_description       block
_exptl_crystal_F_000             506
_exptl_crystal_size_max          0.200
_exptl_crystal_size_mid          0.100
_exptl_crystal_size_min          0.080
_refine_diff_density_max         0.594
_refine_diff_density_min         -0.446
_refine_diff_density_rms         0.075
_refine_ls_extinction_coef       0.0194(5)
_refine_ls_extinction_expression Fc^*^=kFc[1+0.001xFc^2^\l^3^/sin(2\q)]^-1/4^
_refine_ls_extinction_method     'SHELXL-2014/7 (Sheldrick 2014'
_refine_ls_goodness_of_fit_ref   1.144
_refine_ls_hydrogen_treatment    mixed
_refine_ls_matrix_type           full
_refine_ls_number_parameters     266
_refine_ls_number_reflns         2902
_refine_ls_number_restraints     19
_refine_ls_restrained_S_all      1.141
_refine_ls_R_factor_all          0.0135
_refine_ls_R_factor_gt           0.0130
_refine_ls_shift/su_max          0.003
_refine_ls_shift/su_mean         0.000
_refine_ls_structure_factor_coef Fsqd
_refine_ls_weighting_details
'w=1/[\s^2^(Fo^2^)+(0.0126P)^2^+0.7350P] where P=(Fo^2^+2Fc^2^)/3'
_refine_ls_weighting_scheme      calc
_refine_ls_wR_factor_gt          0.0321
_refine_ls_wR_factor_ref         0.0323
_reflns_Friedel_coverage         0.000
_reflns_Friedel_fraction_full    .
_reflns_Friedel_fraction_max     .
_reflns_number_gt                2834
_reflns_number_total             2902
_reflns_threshold_expression     'I > 2\s(I)'
_cod_data_source_file            mmc6.cif
_cod_data_source_block           3
_cod_database_code               1561322
_shelx_space_group_comment
;
The symmetry employed for this shelxl refinement is uniquely defined
by the following loop, which should always be used as a source of
symmetry information in preference to the above space-group names.
They are only intended as comments.
;
_shelx_estimated_absorpt_t_min   0.462
_shelx_estimated_absorpt_t_max   0.711
_shelx_res_file
;

    4.res created by SHELXL-2014/7


TITL 2 in P1                     New: P-1
CELL  0.71073    7.4832   10.9344   11.4824   111.817    99.390   100.699
ZERR  2           0.0010    0.0013    0.0015     0.004     0.004     0.004
LATT   1
SFAC  C   2.31000  20.84392   1.02000  10.20751   1.58860   0.56870   0.86500 =
         51.65125   0.21560   0.00330   0.00160    11.500   0.68000  12.01000
SFAC Dy  26.50703   2.18020  17.63832   0.20217  14.55962  12.18991   2.96577 =
        111.87410   4.29728  -0.18920   4.40980 18400.000   1.75000 162.50000
SFAC  N  12.21261   0.00570   3.13220   9.89331   2.01250  28.99754   1.16630 =
          0.58260 -11.52901   0.00610   0.00330    19.600   0.68000  14.01000
SFAC  O   3.04850  13.27711   2.28680   5.70111   1.54630   0.32390   0.86700 =
         32.90894   0.25080   0.01060   0.00600    32.500   0.68000  16.00000
SFAC  H
UNIT    18    2   8  22 34

L.S. 20
FMAP 2
HTAB
SIZE 0.1 0.08 0.2
OMIT -3 50.02
omit 1   0   0
DFIX 0.83 0.01 O5 H5A O5 H5B
DFIX 1.38 0.01 H5A H5B
DFIX 0.83 0.01 O6 H6C O6 H6B
DFIX 1.38 0.01 H6C H6B
DFIX 0.83 0.01 O7 H7A O7 H7B
DFIX 1.38 0.01 H7A H7B
DFIX 0.83 0.01 O8 H8C O8 H8B
DFIX 1.38 0.01 H8C H8B
DFIX 0.83 0.01 O10 H10A O10 H10B
DFIX 1.38 0.01 H10A H10B
DFIX 0.83 0.01 O11 H11A O11 H11B
DFIX 1.38 0.01 H11A H11B
DFIX 0.83 0.02 O9 H9B
PLAN 20
ACTA
bond
BOND $H
EQIV $1 -x+1, -y+1, -z+1
EQIV $3 x, y, z+1
EQIV $4 -x+2, -y+2, -z+1
EQIV $5 -x+1, -y+1, -z
EQIV $6 x+1, y, z+1
EQIV $7 -x+1, -y+1, -z+2
EQIV $8 -x+2, -y+1, -z+1
EQIV $9 -x+1, -y, -z+1
EQIV $10 -x+1, -y, -z
EQIV $11 -x, -y+1, -z+1
EQIV $12 x+1, y+1, z+1
HTAB O5 O9_$1
HTAB O5 N4_$3
HTAB O6 O11
HTAB O6 O11_$4
HTAB O7 N3_$5
HTAB O7 N3_$6
HTAB O8 O10_$7
HTAB O8 O9_$8
HTAB O9 O10_$9
HTAB O10 O4_$11
HTAB O10 N1_$3
HTAB O11 N2_$12
HTAB O11 O3

CONF
WGHT    0.012600    0.735000
EXTI    0.019419
FVAR       0.19225
DY1   2    0.663240    0.756596    0.664755    11.00000    0.02307    0.00934 =
         0.01240    0.00513    0.00298    0.00529
C1    1    0.439872    0.567021    0.342213    11.00000    0.02592    0.01227 =
         0.01665    0.00707    0.00162    0.00448
C2    1    0.403881    0.627135    0.244460    11.00000    0.02230    0.01213 =
         0.01509    0.00635    0.00337    0.00415
C3    1    0.432560    0.768773    0.287391    11.00000    0.02219    0.01031 =
         0.01417    0.00386    0.00216    0.00268
AFIX  43
H3A   5    0.484879    0.826218    0.374668    11.00000   -1.20000
AFIX   0
C4    1    0.382243    0.823195    0.198567    11.00000    0.02045    0.01184 =
         0.01622    0.00591    0.00463    0.00410
C5    1    0.385857    0.971827    0.245150    11.00000    0.01964    0.01261 =
         0.01854    0.00856    0.00672    0.00402
C6    1    0.308058    0.737124    0.067575    11.00000    0.02569    0.01591 =
         0.01684    0.00996    0.00495    0.00607
AFIX  43
H6A   5    0.274951    0.773924    0.008698    11.00000   -1.20000
AFIX   0
C7    1    0.282739    0.595699    0.023491    11.00000    0.02327    0.01415 =
         0.01462    0.00604    0.00461    0.00381
C8    1    0.330773    0.541710    0.113552    11.00000    0.02776    0.00921 =
         0.01721    0.00412    0.00465    0.00421
AFIX  43
H8A   5    0.313610    0.447878    0.085532    11.00000   -1.20000
AFIX   0
C9    1    0.195405    0.507375   -0.114573    11.00000    0.02721    0.01534 =
         0.01557    0.00586    0.00511    0.00159
O1    4    0.493028    0.647622    0.459869    11.00000    0.06348    0.01800 =
         0.01463    0.00620   -0.00381    0.00820
O2    4    0.411183    0.439731    0.300068    11.00000    0.04871    0.01133 =
         0.02279    0.00973    0.00543    0.00767
O3    4    0.474796    1.056732    0.357824    11.00000    0.02514    0.01108 =
         0.01814    0.00391    0.00006    0.00434
O4    4    0.287325    1.009772    0.170021    11.00000    0.03151    0.01343 =
         0.01937    0.00754   -0.00029    0.00795
O5    4    0.402675    0.755571    0.751547    11.00000    0.05571    0.02458 =
         0.08630    0.03279    0.05100    0.01806
H5A   5    0.370866    0.826575    0.787195    11.00000   -1.50000
H5B   5    0.337526    0.689427    0.758560    11.00000   -1.50000
O6    4    0.870484    0.896284    0.601175    11.00000    0.03621    0.04235 =
         0.06069    0.03871    0.02963    0.02063
H6B   5    0.833887    0.956564    0.584281    11.00000   -1.50000
H6C   5    0.975447    0.893077    0.587268    11.00000   -1.50000
O7    4    0.876006    0.628371    0.573279    11.00000    0.07173    0.05256 =
         0.03159    0.02758    0.03050    0.04714
H7A   5    0.884461    0.606300    0.498050    11.00000   -1.50000
H7B   5    0.917567    0.584029    0.609399    11.00000   -1.50000
O8    4    0.918353    0.791881    0.836848    11.00000    0.02850    0.03602 =
         0.02591    0.01518    0.00055    0.00873
H8B   5    0.909481    0.796990    0.910233    11.00000   -1.50000
H8C   5    1.022424    0.838851    0.841756    11.00000   -1.50000
O9    4    0.704286    0.024732    0.093157    11.00000    0.08965    0.04698 =
         0.05796    0.03026    0.04169    0.04387
H9B   5    0.742368   -0.036738    0.098919    11.00000   -1.50000
O10   4    0.094512    0.161149    0.915727    11.00000    0.03397    0.03034 =
         0.03692    0.01797   -0.00326    0.00230
H10A  5   -0.012254    0.106151    0.879430    11.00000   -1.50000
H10B  5    0.105919    0.226372    0.894380    11.00000   -1.50000
O11   4    0.828383    1.088620    0.504688    11.00000    0.02319    0.02644 =
         0.03031    0.00679    0.00247    0.00517
H11A  5    0.872160    1.163978    0.567327    11.00000   -1.50000
H11B  5    0.725240    1.080939    0.460079    11.00000   -1.50000
N1    3    0.113800    0.373292   -0.163218    11.00000    0.03705    0.01681 =
         0.01611    0.00390    0.00208    0.00026
N2    3    0.045028    0.335230   -0.290507    11.00000    0.04439    0.02637 =
         0.01498    0.00290    0.00099   -0.00625
N3    3    0.086092    0.441218   -0.317711    11.00000    0.06062    0.03342 =
         0.01493    0.00957   -0.00170   -0.01160
N4    3    0.182507    0.552252   -0.208487    11.00000    0.06063    0.02520 =
         0.01582    0.01049   -0.00181   -0.01113

HKLF 4

REM  2 in P1                     New: P-1
REM R1 =  0.0130 for    2834 Fo > 4sig(Fo)  and  0.0135 for all    2902 data
REM    266 parameters refined using     19 restraints

END

WGHT      0.0129      0.7276

REM Instructions for potential hydrogen bonds
HTAB O5 O9_$1
HTAB O5 N4_$3
HTAB O6 O11
HTAB O6 O11_$4
HTAB O7 N3_$5
HTAB O7 N3_$6
HTAB O8 O10_$7
HTAB O8 O9_$8
HTAB O9 O10_$9
HTAB O10 O4_$11
HTAB O10 N1_$3
HTAB O11 N2_$12
HTAB O11 O3

REM Highest difference peak  0.594,  deepest hole -0.446,  1-sigma level  0.075
Q1    1   0.5939 -0.0168  0.0514  11.00000  0.05    0.59
Q2    1   0.0925  0.5844 -0.1824  11.00000  0.05    0.47
Q3    1   0.6771  0.0105 -0.0019  11.00000  0.05    0.41
Q4    1   0.2224  0.5362 -0.1616  11.00000  0.05    0.36
Q5    1   0.4237  0.5969  0.2853  11.00000  0.05    0.32
Q6    1   0.2574  0.5542 -0.0381  11.00000  0.05    0.32
Q7    1   0.7449  0.6344  0.5809  11.00000  0.05    0.32
Q8    1   0.4384  0.6892  0.2582  11.00000  0.05    0.32
Q9    1   0.3727  0.8853  0.2209  11.00000  0.05    0.31
Q10   1   0.5057  0.6658  0.5394  11.00000  0.05    0.31
Q11   1   0.4595  1.1420  0.3591  11.00000  0.05    0.29
Q12   1   0.5812  0.6609  0.5163  11.00000  0.05    0.28
Q13   1  -0.0038  0.2724  1.0022  11.00000  0.05    0.28
Q14   1   0.3226  0.3844  0.3754  11.00000  0.05    0.26
Q15   1   0.4036  0.5952  0.1858  11.00000  0.05    0.26
Q16   1   0.1775  0.4353 -0.1367  11.00000  0.05    0.26
Q17   1   0.7983  0.8584  0.6413  11.00000  0.05    0.25
Q18   1   0.2479  0.6370  0.0424  11.00000  0.05    0.25
Q19   1   0.1373  0.3409 -0.1395  11.00000  0.05    0.25
Q20   1   0.4030  0.3850  0.3139  11.00000  0.05    0.24
;
_shelx_res_checksum              17324
_shelx_hkl_file
;
   1   0   0  140.44    3.46
  -2   0   0   46.44    1.21
  -2   0   0   47.79    1.28
   2   0   0   45.52    1.26
   2   0   0   46.50    1.25
   2   0   0   46.43    1.21
  -3   0   0  224.24    5.65
  -3   0   0  229.53    5.58
   3   0   0  226.49    5.57
   3   0   0  227.84    5.66
   3   0   0  230.48    5.61
  -4   0   0  226.54    5.50
  -4   0   0  226.31    5.58
   4   0   0  224.76    5.49
   4   0   0  218.63    5.60
   4   0   0  215.42    5.51
  -5   0   0   73.52    1.93
  -5   0   0   69.32    1.99
   5   0   0   70.11    2.05
   5   0   0   69.87    2.01
   5   0   0   70.83    1.89
   5   0   0   67.67    1.91
  -6   0   0   91.12    2.47
  -6   0   0   91.10    2.55
   6   0   0   90.72    2.61
   6   0   0   89.58    2.43
   6   0   0   90.46    2.58
   6   0   0   92.32    2.42
  -7   0   0   23.44    1.03
  -7   0   0   22.53    0.92
   7   0   0   20.98    0.80
   7   0   0   21.23    1.07
   7   0   0   20.37    1.08
  -8   0   0   11.30    0.75
   8   0   0   10.48    0.89
   8   0   0    9.96    0.62
   8   0   0   10.17    0.99
   9   0   0   23.80    1.36
   9  -1   0    0.58    0.52
   9  -1   0    0.27    0.35
  -9   1   0    0.19    0.43
   8  -1   0   60.41    2.10
   8  -1   0   63.68    1.86
   8  -1   0   62.18    2.10
  -8   1   0   62.12    1.93
   7  -1   0   42.85    1.62
   7  -1   0   42.11    1.54
   7  -1   0   43.39    1.34
  -7   1   0   43.42    1.43
   6  -1   0    3.46    0.56
  -6   1   0    3.15    0.37
  -6   1   0    3.37    0.37
   5  -1   0  199.85    4.86
   5  -1   0  192.62    5.08
   5  -1   0  203.42    4.97
  -5   1   0  193.77    4.91
  -5   1   0  199.79    5.00
   4  -1   0  334.59    8.20
   4  -1   0  342.90    8.39
   4  -1   0  338.20    8.29
  -4   1   0  343.52    8.31
  -4   1   0  334.58    8.25
   3  -1   0   57.74    1.67
   3  -1   0   67.39    1.72
   3  -1   0   68.71    1.78
  -3   1   0   63.07    1.79
  -3   1   0   68.55    1.74
  -3   1   0   65.96    1.67
   2  -1   0   28.99    0.82
   2  -1   0   28.94    0.84
  -2   1   0   28.98    0.84
  -2   1   0   29.03    0.83
  -2   1   0   27.87    0.74
   1  -1   0  201.98    5.08
  -1   1   0  219.23    5.19
  -1   1   0  198.11    5.01
  -1  -1   0  272.33    6.97
  -1  -1   0  265.37    7.01
  -1  -1   0  303.18    6.96
   1   1   0  296.87    6.93
   1   1   0  292.93    6.99
   1   1   0  274.78    6.97
  -2  -1   0    3.06    0.17
  -2  -1   0    3.73    0.47
   2   1   0    2.63    0.23
   2   1   0    2.94    0.17
   2   1   0    2.52    0.46
  -3  -1   0   14.24    0.47
  -3  -1   0   15.51    0.73
   3   1   0   13.82    0.54
   3   1   0   14.36    0.69
   3   1   0   13.39    0.45
  -4  -1   0  273.92    7.15
  -4  -1   0  276.70    6.73
   4   1   0  277.68    6.90
   4   1   0  270.64    6.72
   4   1   0  275.58    6.83
  -5  -1   0   88.34    2.64
  -5  -1   0   95.14    2.46
   5   1   0   98.12    2.59
   5   1   0   95.28    2.61
   5   1   0   94.74    2.61
   5   1   0   92.79    2.43
  -6  -1   0    0.20    0.33
  -6  -1   0    0.55    0.24
   6   1   0    0.42    0.30
   6   1   0    0.81    0.32
   6   1   0    0.01    0.26
   6   1   0    0.14    0.17
  -7  -1   0   38.23    1.42
  -7  -1   0   40.77    1.30
   7   1   0   38.92    1.46
   7   1   0   39.62    1.35
   7   1   0   41.08    1.23
  -8  -1   0   78.94    2.41
  -8  -1   0   83.08    2.36
   8   1   0   82.79    2.60
   8   1   0   84.65    2.29
   8   1   0   86.41    2.38
   8   1   0   81.43    2.60
  -9  -1   0    4.99    0.71
   9   1   0    3.72    0.67
   9  -2   0   44.62    1.85
   9  -2   0   46.01    1.56
  -9   2   0   45.93    1.67
   8  -2   0    1.20    0.33
   8  -2   0    1.57    0.47
  -8   2   0    1.41    0.69
   7  -2   0   53.24    2.45
   7  -2   0   61.58    1.78
  -7   2   0   62.01    1.85
   6  -2   0  135.14    3.65
   6  -2   0  130.18    3.63
  -6   2   0  134.71    3.55
   5  -2   0   42.10    1.25
   5  -2   0   40.49    1.35
  -5   2   0   39.72    1.29
   4  -2   0  165.29    4.24
   4  -2   0  170.23    4.31
  -4   2   0  164.60    4.26
  -4   2   0  172.00    4.29
   3  -2   0  438.08   10.72
   3  -2   0  426.40   10.68
  -3   2   0  439.42   10.71
  -3   2   0  439.32   10.70
  -3   2   0  451.69   10.60
   2  -2   0    6.02    0.36
   2  -2   0    5.46    0.23
   2  -2   0    5.04    0.33
  -2   2   0    5.11    0.31
  -2   2   0    5.47    0.37
   1  -2   0  100.67    2.53
   1  -2   0   99.23    2.56
  -1   2   0   98.97    2.52
  -1   2   0  102.65    2.58
  -1   2   0  100.88    2.53
   0  -2   0  171.81    4.36
   0  -2   0  174.60    4.50
   0  -2   0  186.18    4.36
   0   2   0  181.60    4.36
   0   2   0  177.08    4.35
   0   2   0  177.52    4.50
  -1  -2   0   59.00    1.48
  -1  -2   0   57.97    1.71
  -1  -2   0   56.86    1.44
   1   2   0   56.62    1.47
   1   2   0   54.78    1.69
  -2  -2   0   34.05    0.87
  -2  -2   0   33.49    0.95
  -2  -2   0   33.84    1.20
   2   2   0   32.53    1.20
   2   2   0   32.44    0.95
  -3  -2   0  289.32    7.41
  -3  -2   0  295.65    7.10
   3   2   0  293.98    7.20
   3   2   0  293.12    7.40
   3   2   0  290.54    7.10
  -4  -2   0   75.38    1.98
  -4  -2   0   78.30    2.33
   4   2   0   78.15    2.31
   4   2   0   76.04    1.98
   4   2   0   77.10    2.11
  -5  -2   0   27.05    0.85
  -5  -2   0   27.16    1.20
   5   2   0   26.49    0.99
   5   2   0   25.93    0.81
   5   2   0   26.35    1.17
  -6  -2   0   48.46    1.76
  -6  -2   0   51.18    1.46
   6   2   0   50.43    1.51
   6   2   0   50.33    1.66
   6   2   0   53.12    1.73
   6   2   0   49.53    1.62
  -7  -2   0   22.94    0.88
  -7  -2   0   20.18    1.18
   7   2   0   21.65    1.07
   7   2   0   22.98    1.07
   7   2   0   23.78    0.80
   7   2   0   22.41    1.07
  -8  -2   0   11.67    1.06
  -8  -2   0   11.72    0.74
   8   2   0   12.02    0.82
   8   2   0   10.34    0.93
   8   2   0   11.35    1.08
   9  -3   0    7.16    0.97
   9  -3   0   10.23    0.79
  -9   3   0    8.02    0.88
   8  -3   0   68.39    2.32
   8  -3   0   70.76    2.11
  -8   3   0   71.76    2.21
   7  -3   0   41.91    1.61
   7  -3   0   45.09    1.45
  -7   3   0   44.29    1.53
   6  -3   0   17.67    0.90
   6  -3   0   16.08    0.75
  -6   3   0   16.97    0.85
   5  -3   0  128.54    3.33
   5  -3   0  123.32    3.41
  -5   3   0  130.05    3.38
  -5   3   0  124.88    3.41
   4  -3   0   81.12    2.15
   4  -3   0   79.85    2.19
  -4   3   0   77.19    2.15
  -4   3   0   75.58    2.16
   3  -3   0   26.56    0.88
   3  -3   0   26.75    0.74
   3  -3   0   27.35    0.89
  -3   3   0   25.77    0.80
  -3   3   0   25.90    0.86
   2  -3   0  314.17    7.54
   2  -3   0  306.75    7.52
  -2   3   0  305.99    7.56
  -2   3   0  302.72    7.56
   1  -3   0  365.82    9.16
   1  -3   0  362.94    9.25
   1  -3   0  385.06    9.15
  -1   3   0  395.22    9.15
  -1   3   0  372.80    9.27
  -1   3   0  375.13    9.16
   0  -3   0    0.06    0.14
   0  -3   0    0.12    0.15
   0   3   0    0.43    0.29
   0   3   0    0.30    0.16
   0   3   0    0.09    0.13
  -1  -3   0  164.18    4.15
  -1  -3   0  173.17    4.19
   1   3   0  170.74    4.19
  -2  -3   0  192.44    4.78
  -2  -3   0  201.63    5.16
  -2  -3   0  197.75    4.78
  -2  -3   0  197.87    4.87
   2   3   0  195.22    4.89
   2   3   0  191.47    5.15
  -3  -3   0   19.74    1.02
  -3  -3   0   18.86    0.68
  -3  -3   0   18.22    0.56
   3   3   0   17.84    1.03
   3   3   0   17.69    0.67
  -4  -3   0  240.22    6.18
  -4  -3   0  231.57    5.74
   4   3   0  234.56    5.89
   4   3   0  231.53    6.17
  -5  -3   0  155.49    4.24
  -5  -3   0  150.62    3.79
   5   3   0  151.63    4.21
   5   3   0  147.74    4.02
  -6  -3   0    3.87    0.41
  -6  -3   0    3.96    0.58
   6   3   0    3.02    0.50
   6   3   0    3.71    0.58
   6   3   0    3.74    0.46
  -7  -3   0   74.37    2.01
  -7  -3   0   68.97    2.44
   7   3   0   71.72    2.29
   7   3   0   71.17    2.26
   7   3   0   75.27    2.36
  -8  -3   0   18.20    1.37
  -8  -3   0   17.84    0.83
   8   3   0   16.64    1.18
   8   3   0   18.41    1.15
   8   3   0   21.17    1.12
   9  -4   0   45.36    1.66
   9  -4   0   45.58    1.88
  -9   4   0   49.78    1.80
   8  -4   0   10.61    0.92
   8  -4   0    9.74    0.77
  -8   4   0   10.59    0.87
   7  -4   0   40.45    1.55
   7  -4   0   42.38    1.42
  -7   4   0   38.96    1.65
   6  -4   0  105.44    2.88
   6  -4   0  102.76    2.98
  -6   4   0  104.57    2.93
  -6   4   0  105.40    2.94
   5  -4   0    1.85    0.36
   5  -4   0    1.88    0.43
  -5   4   0    2.08    0.35
  -5   4   0    2.15    0.32
   4  -4   0  116.34    3.00
   4  -4   0  120.53    3.21
   4  -4   0  123.58    3.19
  -4   4   0  124.01    3.19
  -4   4   0  120.11    3.21
  -4   4   0  118.11    3.04
   3  -4   0  460.62   11.37
   3  -4   0  460.64   11.38
   3  -4   0  464.85   11.28
  -3   4   0  460.69   11.35
  -3   4   0  457.17   11.38
  -3   4   0  481.16   11.37
   2  -4   0  212.82    5.24
   2  -4   0  210.57    5.26
   2  -4   0  205.68    5.20
  -2   4   0  205.55    5.22
  -2   4   0  206.89    5.30
  -2   4   0  208.22    5.20
   1  -4   0  370.44    8.86
   1  -4   0  354.30    8.97
   1  -4   0  360.03    9.10
  -1   4   0  363.54    8.86
  -1   4   0  356.10    8.86
  -1   4   0  369.80    9.06
   0  -4   0  326.33    8.04
   0  -4   0  335.37    8.04
   0   4   0  321.10    8.07
   0   4   0  330.90    8.01
  -1  -4   0  165.59    4.18
  -1  -4   0  171.11    4.55
  -1  -4   0  165.28    4.15
   1   4   0  164.60    4.52
   1   4   0  169.29    4.19
  -2  -4   0  130.97    3.29
  -2  -4   0  125.62    3.19
  -2  -4   0  127.76    3.65
  -2  -4   0  125.64    3.22
   2   4   0  137.51    3.40
   2   4   0  127.68    3.29
   2   4   0  127.19    3.67
  -3  -4   0  415.67   10.22
  -3  -4   0  394.99    9.70
  -3  -4   0  402.49    9.84
  -3  -4   0  390.63    9.72
   3   4   0  394.32    9.83
   3   4   0  406.92   10.23
  -4  -4   0    7.79    0.36
   4   4   0    7.79    0.53
   4   4   0    7.03    0.96
  -5  -4   0   30.90    0.93
  -5  -4   0   33.43    1.52
   5   4   0   29.84    1.14
   5   4   0   31.73    1.49
  -6  -4   0   94.14    2.43
  -6  -4   0   88.60    2.98
   6   4   0   95.79    2.97
   6   4   0   94.36    2.69
  -7  -4   0   21.53    1.57
  -7  -4   0   24.05    0.86
   7   4   0   24.40    1.19
   7   4   0   25.26    1.38
   7   4   0   25.07    1.24
   8   4   0   17.95    1.17
   8   4   0   14.19    1.11
   9  -5   0    5.78    0.78
  -9   5   0    8.46    0.94
   8  -5   0   61.26    1.97
   8  -5   0   61.06    2.14
  -8   5   0   59.81    2.05
   7  -5   0   44.44    1.67
   7  -5   0   44.26    1.55
  -7   5   0   45.35    1.60
  -7   5   0   45.29    1.62
   6  -5   0    0.46    0.31
   6  -5   0    0.65    0.35
  -6   5   0    0.98    0.33
  -6   5   0    0.44    0.35
   5  -5   0  192.91    5.12
   5  -5   0  202.94    5.10
  -5   5   0  191.89    4.84
  -5   5   0  199.48    5.13
  -5   5   0  196.89    5.10
   4  -5   0   61.10    1.66
   4  -5   0   60.87    1.83
   4  -5   0   60.22    1.82
  -4   5   0   59.64    1.84
  -4   5   0   62.91    1.86
  -4   5   0   61.82    1.75
   3  -5   0   58.75    1.74
   3  -5   0   61.60    1.73
   3  -5   0   57.14    1.71
  -3   5   0   57.54    1.74
  -3   5   0   60.14    1.71
  -3   5   0   59.14    1.78
   2  -5   0  343.83    8.54
   2  -5   0  342.28    8.65
   2  -5   0  344.27    8.58
  -2   5   0  345.58    8.70
  -2   5   0  343.90    8.55
  -2   5   0  356.81    8.55
   1  -5   0   20.32    0.79
   1  -5   0   20.60    1.01
   1  -5   0   20.76    0.74
  -1   5   0   20.53    1.05
  -1   5   0   20.64    0.75
  -1   5   0   22.76    0.77
   0  -5   0  117.67    3.07
   0  -5   0  117.47    3.10
   0  -5   0  123.36    3.44
   0   5   0  121.89    3.09
   0   5   0  114.92    3.03
   0   5   0  120.80    3.43
  -1  -5   0  191.96    4.89
  -1  -5   0  200.21    5.32
   1   5   0  193.14    4.91
   1   5   0  197.10    5.31
  -2  -5   0  217.59    5.28
  -2  -5   0  208.93    5.31
  -2  -5   0  215.31    5.81
  -2  -5   0  214.43    5.38
   2   5   0  217.08    5.39
   2   5   0  214.66    5.83
  -3  -5   0   23.26    0.70
  -3  -5   0   23.97    0.88
  -3  -5   0   23.22    0.76
  -3  -5   0   23.52    1.32
   3   5   0   22.89    1.36
   3   5   0   23.04    0.87
  -4  -5   0  141.85    4.08
  -4  -5   0  136.56    3.62
  -4  -5   0  140.38    3.43
  -4  -5   0  134.69    3.65
   4   5   0  135.42    3.62
   4   5   0  133.01    4.05
  -5  -5   0   43.13    1.89
  -5  -5   0   40.32    1.27
  -5  -5   0   41.94    1.16
   5   5   0   41.25    1.82
   5   5   0   40.27    1.41
  -6  -5   0    5.16    0.44
  -6  -5   0    3.71    0.38
  -6  -5   0    3.72    0.74
   6   5   0    5.69    0.75
   6   5   0    4.13    0.68
  -7  -5   0   20.97    1.71
   7   5   0   25.34    1.30
   7   5   0   25.86    1.23
   7   5   0   26.47    1.47
   9  -6   0   40.36    1.81
  -9   6   0   39.36    1.67
   8  -6   0    0.49    0.45
   8  -6   0   -0.76    0.37
  -8   6   0    0.45    0.44
   7  -6   0   55.45    1.85
   7  -6   0   56.97    1.96
  -7   6   0   55.08    1.91
  -7   6   0   55.45    1.88
   6  -6   0  138.28    3.83
   6  -6   0  144.07    3.90
  -6   6   0  140.32    3.85
  -6   6   0  138.90    3.93
   5  -6   0    0.28    0.30
   5  -6   0    0.07    0.15
   5  -6   0    0.69    0.35
  -5   6   0    0.32    0.24
  -5   6   0    0.21    0.27
  -5   6   0    0.58    0.35
   4  -6   0  191.01    4.98
   4  -6   0  181.51    4.95
   4  -6   0  190.00    4.86
  -4   6   0  193.10    4.95
  -4   6   0  201.91    4.97
  -4   6   0  190.88    4.98
   3  -6   0  185.23    4.93
   3  -6   0  193.61    4.94
   3  -6   0  188.31    4.90
  -3   6   0  196.52    4.92
  -3   6   0  190.92    5.01
  -3   6   0  189.89    4.92
   2  -6   0   74.97    2.23
   2  -6   0   79.62    2.38
   2  -6   0   79.45    2.20
  -2   6   0   81.32    2.20
  -2   6   0   78.82    2.20
  -2   6   0   78.99    2.43
   1  -6   0  235.37    5.84
   1  -6   0  231.44    5.79
   1  -6   0  228.11    6.09
  -1   6   0  235.87    5.81
  -1   6   0  232.24    6.12
  -1   6   0  221.68    5.77
   0  -6   0  306.64    7.62
   0  -6   0  310.71    8.03
   0  -6   0  308.79    7.65
   0   6   0  300.79    8.01
   0   6   0  320.96    7.65
   0   6   0  298.62    7.57
  -1  -6   0   33.55    1.08
  -1  -6   0   34.74    1.10
   1   6   0   31.93    1.58
   1   6   0   34.15    1.10
  -2  -6   0   37.83    1.16
  -2  -6   0   38.30    1.08
  -2  -6   0   38.02    1.20
  -2  -6   0   39.49    1.71
   2   6   0   37.61    1.22
   2   6   0   36.97    1.74
  -3  -6   0  109.52    3.32
  -3  -6   0  100.46    2.60
  -3  -6   0  106.19    2.78
  -3  -6   0  102.13    2.67
   3   6   0  102.11    3.32
   3   6   0   92.75    2.92
  -4  -6   0   12.94    0.69
  -4  -6   0   12.80    1.27
  -4  -6   0   13.31    0.63
  -4  -6   0   13.42    0.50
   4   6   0   13.72    0.76
  -5  -6   0   36.74    1.12
  -5  -6   0   36.15    1.04
  -5  -6   0   35.89    1.84
   5   6   0   36.40    1.36
   5   6   0   35.50    1.78
  -6  -6   0   47.51    1.31
  -6  -6   0   47.96    2.28
   6   6   0   48.03    2.10
   6   6   0   47.63    1.72
   7   6   0    0.72    0.57
   7   6   0    1.32    0.60
   9  -7   0   16.88    1.36
  -9   7   0   17.85    1.26
   8  -7   0   65.10    2.32
  -8   7   0   63.76    2.22
   7  -7   0   12.26    0.95
   7  -7   0   10.25    0.89
  -7   7   0   11.01    0.93
  -7   7   0   10.95    0.86
   6  -7   0   32.44    1.32
   6  -7   0   30.25    1.32
  -6   7   0   33.57    1.36
  -6   7   0   32.36    1.30
  -6   7   0   31.54    0.98
   5  -7   0  221.74    6.31
   5  -7   0  242.39    5.88
   5  -7   0  240.03    6.09
  -5   7   0  252.54    6.09
  -5   7   0  239.24    5.94
  -5   7   0  202.50    6.51
   4  -7   0   78.74    2.23
   4  -7   0   73.68    2.30
   4  -7   0   78.05    2.28
  -4   7   0   74.46    2.28
  -4   7   0   77.28    2.33
  -4   7   0   77.83    2.26
   3  -7   0    0.74    0.35
   3  -7   0    0.40    0.29
   3  -7   0    1.40    0.35
  -3   7   0    0.75    0.29
  -3   7   0    0.78    0.50
  -3   7   0    1.03    0.30
   2  -7   0  106.35    3.35
   2  -7   0  114.14    3.08
   2  -7   0  118.81    3.34
  -2   7   0  111.73    3.08
  -2   7   0  116.01    3.40
  -2   7   0  119.61    3.12
   1  -7   0  136.32    3.46
   1  -7   0  133.19    3.51
   1  -7   0  111.54    4.14
  -1   7   0  133.11    3.43
  -1   7   0  133.85    3.87
  -1   7   0  137.66    3.54
   0  -7   0   33.77    1.58
   0  -7   0   31.83    1.08
   0  -7   0   33.23    1.16
   0   7   0   32.37    1.13
   0   7   0   31.82    1.61
   0   7   0   31.14    1.03
  -1  -7   0  177.79    4.54
  -1  -7   0  179.63    5.07
  -1  -7   0  175.15    4.53
   1   7   0  173.68    5.06
  -2  -7   0  127.12    3.41
  -2  -7   0  126.51    3.27
  -2  -7   0  132.11    3.99
  -2  -7   0  129.09    3.37
   2   7   0  126.67    3.98
   2   7   0  130.89    3.44
  -3  -7   0    0.88    0.26
  -3  -7   0    0.35    0.24
  -3  -7   0    0.72    0.17
  -3  -7   0   -0.23    0.55
   3   7   0    0.76    0.54
   3   7   0    0.35    0.31
  -4  -7   0   81.58    2.20
  -4  -7   0   80.41    2.37
  -4  -7   0   82.89    2.14
  -4  -7   0   83.22    2.97
   4   7   0   79.70    2.40
   4   7   0   84.01    2.96
  -5  -7   0   78.94    2.08
  -5  -7   0   82.52    2.17
  -5  -7   0   80.88    3.06
   5   7   0   78.30    2.44
   5   7   0   79.72    2.94
   6   7   0    0.99    0.55
   6   7   0    0.96    0.66
   8  -8   0    0.12    0.52
  -8   8   0   -0.01    0.47
   7  -8   0   22.10    1.21
  -7   8   0   20.77    1.20
   6  -8   0   86.92    2.70
   6  -8   0   89.21    2.39
   6  -8   0   86.59    2.78
  -6   8   0   89.02    2.67
  -6   8   0   86.77    2.69
  -6   8   0   88.30    2.42
   5  -8   0    3.16    0.47
   5  -8   0    3.13    0.48
   5  -8   0    4.11    0.49
  -5   8   0    3.88    0.48
  -5   8   0    2.69    0.47
  -5   8   0    3.36    0.45
   4  -8   0  172.54    5.18
   4  -8   0  194.53    4.98
   4  -8   0  190.60    5.02
  -4   8   0  189.71    5.06
  -4   8   0  177.99    5.26
  -4   8   0  200.20    4.99
   3  -8   0  144.37    4.88
   3  -8   0  160.75    4.25
   3  -8   0  156.61    4.16
  -3   8   0  158.94    4.41
  -3   8   0  161.82    4.18
  -3   8   0  153.89    4.17
   2  -8   0   18.07    0.96
   2  -8   0   17.18    0.82
   2  -8   0   18.47    1.12
  -2   8   0   17.39    0.83
  -2   8   0   16.96    0.86
  -2   8   0   15.93    1.21
   1  -8   0  121.20    3.37
   1  -8   0  124.12    3.74
   1  -8   0  118.46    3.28
  -1   8   0  121.49    3.25
  -1   8   0  120.01    3.74
  -1   8   0  128.71    3.37
   0  -8   0  190.60    5.37
   0  -8   0  180.77    4.81
   0  -8   0  191.92    4.89
   0   8   0  191.72    4.88
   0   8   0  182.38    5.34
   0   8   0  184.93    4.75
  -1  -8   0    5.70    0.51
  -1  -8   0    5.57    0.77
  -1  -8   0    5.74    0.62
   1   8   0    5.43    0.62
  -2  -8   0  121.76    3.26
  -2  -8   0  121.40    3.15
  -2  -8   0  123.97    3.91
  -2  -8   0  122.51    3.30
   2   8   0  124.24    3.93
   2   8   0  118.32    3.33
  -3  -8   0  126.31    3.47
  -3  -8   0  129.44    4.12
  -3  -8   0  127.42    3.26
  -3  -8   0  127.82    3.37
   3   8   0  126.97    4.10
   3   8   0  128.74    3.52
  -4  -8   0    1.33    0.33
  -4  -8   0    0.94    0.33
  -4  -8   0    0.48    0.69
  -4  -8   0    1.06    0.23
   4   8   0    1.74    0.67
   4   8   0    1.65    0.46
  -5  -8   0   26.89    1.19
  -5  -8   0   26.21    0.84
   5   8   0   25.86    1.33
   5   8   0   28.60    1.77
   8  -9   0   69.47    2.54
  -8   9   0   71.86    2.49
   7  -9   0   30.87    1.46
  -7   9   0   30.11    1.44
  -7   9   0   30.04    0.96
   6  -9   0    9.96    0.64
   6  -9   0    8.35    0.96
   6  -9   0    9.56    0.91
  -6   9   0    8.70    0.87
  -6   9   0   11.46    0.95
  -6   9   0   10.27    0.79
   5  -9   0  121.23    3.65
   5  -9   0  120.44    3.47
   5  -9   0  119.51    3.52
  -5   9   0  122.66    3.48
  -5   9   0  119.44    3.47
  -5   9   0  123.62    3.47
   4  -9   0   42.28    1.58
   4  -9   0   44.94    1.64
   4  -9   0   44.90    1.69
  -4   9   0   46.42    1.79
  -4   9   0   44.02    1.60
  -4   9   0   44.82    1.61
   3  -9   0   25.55    1.23
   3  -9   0   24.70    1.08
   3  -9   0   25.25    1.30
  -3   9   0   25.32    1.42
  -3   9   0   23.13    1.46
  -3   9   0   25.69    1.11
   2  -9   0   97.88    2.88
   2  -9   0   98.90    3.19
   2  -9   0  104.60    2.96
  -2   9   0   98.70    2.80
  -2   9   0   98.78    3.25
  -2   9   0  103.22    2.88
   1  -9   0   54.97    1.81
   1  -9   0   51.82    1.67
   1  -9   0   53.93    2.17
  -1   9   0   51.81    1.74
  -1   9   0   53.12    1.63
   0  -9   0   44.31    2.00
   0  -9   0   44.65    1.56
   0  -9   0   45.00    1.46
   0   9   0   43.63    2.05
   0   9   0   44.64    1.54
   0   9   0   43.23    1.37
  -1  -9   0  125.85    3.43
  -1  -9   0  122.28    3.41
  -1  -9   0  127.71    4.05
   1   9   0  126.81    3.48
   1   9   0  123.16    4.03
  -2  -9   0   35.06    1.96
  -2  -9   0   34.50    1.28
  -2  -9   0   33.65    1.26
  -2  -9   0   34.13    1.10
   2   9   0   33.95    1.92
   2   9   0   35.83    1.53
   2   9   0   34.96    1.37
  -3  -9   0   16.82    0.88
  -3  -9   0   16.69    0.86
  -3  -9   0   17.05    0.68
   3   9   0   16.38    1.02
   3   9   0   16.55    1.54
  -4  -9   0   71.63    2.25
  -4  -9   0   75.27    2.16
  -4  -9   0   72.13    1.96
   4   9   0   70.53    2.37
   4   9   0   73.73    2.96
  -5  -9   0   26.80    1.26
   5   9   0   29.91    1.99
   7 -10   0   63.29    2.35
  -7  10   0   67.18    1.93
  -7  10   0   66.79    2.35
   6 -10   0   36.64    1.59
   6 -10   0   39.29    1.40
  -6  10   0   38.14    1.50
  -6  10   0   36.62    1.59
   5 -10   0    1.16    0.55
   5 -10   0    0.53    0.42
   5 -10   0    0.45    0.35
  -5  10   0    1.10    0.55
  -5  10   0    0.88    0.46
  -5  10   0    0.09    0.40
   4 -10   0  111.99    3.19
   4 -10   0  111.45    3.30
   4 -10   0  109.08    3.29
  -4  10   0  104.95    3.19
  -4  10   0  109.17    3.39
  -4  10   0  108.66    3.17
   3 -10   0  126.36    3.81
   3 -10   0  124.45    3.63
   3 -10   0  124.20    3.52
  -3  10   0  123.39    3.49
  -3  10   0  128.08    3.56
   2 -10   0    6.26    0.63
   2 -10   0    6.86    1.02
   2 -10   0    7.57    0.90
  -2  10   0    6.57    1.15
  -2  10   0    6.34    0.76
  -2  10   0    7.10    0.66
   1 -10   0  170.87    5.05
   1 -10   0  171.98    4.60
   1 -10   0  165.16    4.47
  -1  10   0  166.25    5.02
  -1  10   0  167.78    4.46
  -1  10   0  166.66    4.54
   0 -10   0  172.59    4.59
   0 -10   0  169.49    5.15
   0 -10   0  166.86    4.51
   0  10   0  168.79    5.14
   0  10   0  171.90    4.60
  -1 -10   0    8.66    1.26
  -1 -10   0    9.53    0.67
  -1 -10   0    9.74    0.89
   1  10   0    7.94    0.85
   1  10   0   10.23    1.35
  -2 -10   0   32.92    1.27
  -2 -10   0   32.36    1.10
  -2 -10   0   32.65    1.33
   2  10   0   33.76    1.58
   2  10   0   33.48    1.44
   2  10   0   33.22    1.97
  -3 -10   0   57.96    1.89
  -3 -10   0   55.40    1.63
   3  10   0   57.63    2.65
   3  10   0   55.86    2.05
  -4 -10   0    0.68    0.41
   4  10   0    0.69    0.75
   7 -11   0    8.95    1.29
  -7  11   0    9.15    1.31
   6 -11   0   28.36    1.27
   6 -11   0   25.85    1.38
  -6  11   0   25.87    1.40
  -6  11   0   27.11    1.39
   5 -11   0   76.29    2.49
   5 -11   0   78.59    2.50
  -5  11   0   77.25    2.49
  -5  11   0   70.56    2.94
   4 -11   0   47.83    1.95
   4 -11   0   50.37    1.79
  -4  11   0   49.44    1.79
  -4  11   0   47.78    2.04
   3 -11   0   28.79    1.55
   3 -11   0   27.75    1.22
   3 -11   0   24.77    1.43
  -3  11   0   25.36    1.59
  -3  11   0   27.09    1.19
  -3  11   0   25.25    1.29
   2 -11   0  120.29    3.42
   2 -11   0  119.71    3.91
   2 -11   0  124.24    3.61
  -2  11   0  116.93    3.49
  -2  11   0  122.56    3.93
  -2  11   0  120.52    3.35
   1 -11   0   30.27    1.47
   1 -11   0   31.27    1.24
   1 -11   0   27.37    1.77
  -1  11   0   31.48    1.85
  -1  11   0   30.81    1.17
  -1  11   0   31.88    1.43
   0 -11   0    7.54    0.66
   0 -11   0    5.63    0.71
   0  11   0    4.45    0.81
   0  11   0    5.54    0.69
  -1 -11   0   96.01    2.90
  -1 -11   0   97.41    2.83
   1  11   0   93.41    2.96
   1  11   0   98.69    3.58
  -2 -11   0   38.48    1.53
  -2 -11   0   37.72    1.42
  -2 -11   0   37.53    1.25
   2  11   0   33.50    2.15
  -6  12   0   43.19    1.86
   5 -12   0    1.79    0.52
   5 -12   0    1.67    0.55
  -5  12   0    1.35    0.52
  -5  12   0    1.97    0.63
   4 -12   0   53.00    2.21
   4 -12   0   55.73    1.99
  -4  12   0   56.58    1.98
  -4  12   0   53.86    2.28
   3 -12   0   73.25    2.37
  -3  12   0   72.81    2.33
  -3  12   0   73.49    2.81
   2 -12   0   -0.59    0.67
   2 -12   0    0.67    0.39
  -2  12   0    0.29    0.61
  -2  12   0    0.11    0.33
   1 -12   0   68.73    2.47
   1 -12   0   68.54    2.21
  -1  12   0   70.27    2.12
  -1  12   0   68.16    2.86
   0 -12   0   74.61    2.54
   0 -12   0   75.90    2.37
   0  12   0   74.93    3.09
  -1 -12   0    0.55    0.59
  -1 -12   0    0.85    0.39
   1  12   0   -0.91    0.72
   3 -13   0   19.98    1.17
  -3  13   0   20.49    1.72
  -3  13   0   19.67    1.14
   2 -13   0   74.01    2.48
  -2  13   0   78.73    2.41
  -2  13   0   78.34    3.14
   0  13  -1   17.67    2.27
   0 -13   1   18.42    1.08
   0 -13   1   15.92    1.39
  -1  13  -1   95.72    2.77
  -1  13  -1   97.82    3.66
   1 -13   1   94.21    2.93
   1 -13   1   96.40    3.16
  -2  13  -1   36.63    2.14
  -2  13  -1   35.90    1.42
   2 -13   1   35.07    1.50
  -3  13  -1   24.40    1.22
  -3  13  -1   23.80    1.80
   3 -13   1   25.14    1.28
  -4  13  -1   91.28    2.88
  -4  13  -1   93.55    3.32
   4 -13   1   90.68    2.92
   2  12  -1    1.56    0.86
  -2 -12   1    0.78    0.37
  -2 -12   1    1.30    0.42
   1  12  -1   69.52    2.98
  -1 -12   1   65.69    2.20
  -1 -12   1   70.15    2.24
   0  12  -1   75.82    3.09
   0 -12   1   76.11    2.38
   0 -12   1   75.40    2.46
  -1  12  -1    0.74    0.31
  -1  12  -1    0.64    0.66
   1 -12   1   -0.90    0.55
   1 -12   1    0.40    0.36
  -2  12  -1   50.79    1.72
  -2  12  -1   52.02    2.36
   2 -12   1   49.30    2.06
   2 -12   1   50.65    1.79
  -3  12  -1   62.23    2.05
  -3  12  -1   63.67    2.57
   3 -12   1   58.16    2.39
   3 -12   1   61.83    2.09
  -4  12  -1    0.14    0.57
  -4  12  -1    1.03    0.44
   4 -12   1   -0.19    0.39
  -5  12  -1   51.54    2.19
  -5  12  -1   53.41    2.00
   5 -12   1   54.32    2.00
   5 -12   1   52.36    2.03
  -6  12  -1   61.31    2.30
  -6  12  -1   59.05    2.22
   6 -12   1   56.88    2.22
   3  11  -1   16.37    1.80
  -3 -11   1   17.81    1.00
   2  11  -1   69.30    2.93
   2  11  -1   69.27    2.87
  -2 -11   1   69.87    1.95
  -2 -11   1   67.36    2.10
  -2 -11   1   68.52    2.19
   1  11  -1    3.90    0.83
   1  11  -1    5.08    0.69
  -1 -11   1    3.78    0.59
  -1 -11   1    5.48    0.62
   0  11  -1   37.93    1.72
   0  11  -1   38.04    1.27
   0  11  -1   34.49    2.03
   0 -11   1   38.15    1.41
   0 -11   1   38.10    1.53
  -1  11  -1  121.89    3.29
  -1  11  -1  119.66    3.49
  -1  11  -1  120.85    3.99
   1 -11   1  118.85    3.93
   1 -11   1  119.38    3.38
   1 -11   1  121.78    3.48
  -2  11  -1   23.46    1.60
  -2  11  -1   23.12    1.21
  -2  11  -1   23.76    1.06
   2 -11   1   23.57    1.31
   2 -11   1   25.08    1.11
   2 -11   1   25.05    1.50
  -3  11  -1   14.83    1.37
  -3  11  -1   14.63    1.02
  -3  11  -1   16.02    0.94
   3 -11   1   15.81    1.19
   3 -11   1   16.51    0.94
   3 -11   1   15.92    1.18
  -4  11  -1  131.32    3.64
  -4  11  -1  126.84    3.91
   4 -11   1  129.77    3.65
   4 -11   1  127.89    3.77
   4 -11   1  116.21    3.71
  -5  11  -1   42.51    1.70
  -5  11  -1   41.86    2.05
   5 -11   1   42.86    1.66
   5 -11   1   41.92    1.66
  -6  11  -1   12.32    1.08
  -6  11  -1   13.14    1.12
   6 -11   1   11.37    1.02
   6 -11   1   11.66    0.91
  -7  11  -1   68.12    2.46
   7 -11   1   67.73    2.47
   4  10  -1   37.19    2.15
  -4 -10   1   36.37    1.45
   3  10  -1   57.09    2.58
   3  10  -1   52.57    2.00
  -3 -10   1   56.78    1.57
  -3 -10   1   56.20    1.86
  -3 -10   1   57.04    1.68
   2  10  -1   18.16    1.60
   2  10  -1   16.89    1.08
  -2 -10   1   17.86    0.90
  -2 -10   1   18.09    0.92
   1  10  -1  122.52    3.48
   1  10  -1  125.43    4.10
  -1 -10   1  122.48    4.02
  -1 -10   1  123.06    3.38
  -1 -10   1  122.24    3.42
   0  10  -1  138.10    3.66
   0  10  -1  138.38    4.38
   0  10  -1  139.49    3.85
   0 -10   1  142.64    4.38
   0 -10   1  139.03    3.81
   0 -10   1  139.41    3.79
  -1  10  -1    2.74    0.36
  -1  10  -1    2.79    0.69
  -1  10  -1    2.64    0.48
   1 -10   1    2.64    0.50
   1 -10   1    2.19    0.38
   1 -10   1    1.94    0.59
  -2  10  -1  163.72    5.38
  -2  10  -1  190.29    5.02
  -2  10  -1  190.27    5.43
   2 -10   1  193.91    5.36
   2 -10   1  192.99    5.07
   2 -10   1  195.91    5.00
  -3  10  -1  123.08    3.84
  -3  10  -1  121.15    3.47
  -3  10  -1  127.28    3.54
   3 -10   1  125.87    3.72
   3 -10   1  125.44    3.50
   3 -10   1  126.20    3.60
  -4  10  -1    0.52    0.50
  -4  10  -1    0.47    0.40
  -4  10  -1    0.38    0.38
   4 -10   1    0.39    0.36
   4 -10   1    0.68    0.37
   4 -10   1   -0.36    0.46
  -5  10  -1   91.22    2.90
  -5  10  -1  101.16    2.96
  -5  10  -1   97.73    3.01
   5 -10   1   96.59    2.85
   5 -10   1   93.93    2.99
   5 -10   1  101.19    2.96
  -6  10  -1   54.08    1.97
  -6  10  -1   53.08    1.88
   6 -10   1   50.28    1.94
   6 -10   1   55.48    1.75
  -7  10  -1    0.09    0.49
  -7  10  -1    0.57    0.35
   7 -10   1   -0.04    0.47
   8 -10   1   37.50    2.36
   5   9  -1   55.48    2.56
  -5  -9   1   52.94    1.88
   4   9  -1   14.30    1.09
   4   9  -1   10.55    1.44
  -4  -9   1   11.77    0.80
  -4  -9   1   11.62    0.48
   3   9  -1   44.33    1.61
   3   9  -1   45.77    2.21
  -3  -9   1   45.09    2.14
  -3  -9   1   43.82    1.26
  -3  -9   1   45.39    1.37
  -3  -9   1   44.36    1.54
   2   9  -1  152.09    4.16
   2   9  -1  155.54    4.77
  -2  -9   1  152.80    4.70
  -2  -9   1  153.17    4.12
  -2  -9   1  155.66    4.01
   1   9  -1   28.80    1.73
   1   9  -1   26.88    1.17
  -1  -9   1   29.80    1.62
  -1  -9   1   27.11    1.10
  -1  -9   1   28.90    1.11
   0   9  -1   32.83    1.27
   0   9  -1   31.30    1.79
   0   9  -1   32.34    1.09
   0  -9   1   33.53    1.66
   0  -9   1   32.57    1.18
  -1   9  -1  287.47    7.06
  -1   9  -1  274.86    7.48
  -1   9  -1  266.93    6.92
   1  -9   1  272.58    7.00
   1  -9   1  279.01    7.05
   1  -9   1  272.90    7.42
  -2   9  -1   18.63    0.94
  -2   9  -1   16.28    0.84
  -2   9  -1   17.42    1.33
   2  -9   1   16.09    0.85
   2  -9   1   18.29    1.00
   2  -9   1   17.72    1.14
  -3   9  -1   64.95    2.02
  -3   9  -1   62.89    2.31
  -3   9  -1   62.16    1.99
   3  -9   1   65.66    2.09
   3  -9   1   66.41    2.16
   3  -9   1   59.14    2.03
  -4   9  -1  119.25    3.32
  -4   9  -1  115.48    3.31
  -4   9  -1  120.00    3.50
   4  -9   1  114.34    3.30
   4  -9   1  116.33    3.32
   4  -9   1  116.70    3.37
  -5   9  -1   30.70    1.39
  -5   9  -1   30.00    1.32
  -5   9  -1   29.75    1.29
   5  -9   1   31.34    1.31
   5  -9   1   29.81    1.38
   5  -9   1   31.92    1.21
  -6   9  -1   54.49    1.76
  -6   9  -1   50.05    1.84
  -6   9  -1   49.25    1.87
   6  -9   1   47.58    1.86
   6  -9   1   54.20    1.61
   6  -9   1   51.89    1.87
  -7   9  -1   86.74    2.78
  -7   9  -1   87.03    2.34
   7  -9   1   87.37    2.81
  -8   9  -1   18.43    1.29
   8  -9   1   16.31    1.25
   6   8  -1   24.63    1.75
   5   8  -1    6.27    0.88
   5   8  -1    8.28    0.97
  -5  -8   1    7.70    0.71
   4   8  -1  147.62    4.56
   4   8  -1  144.20    3.99
  -4  -8   1  147.18    3.62
  -4  -8   1  146.59    3.66
  -4  -8   1  143.73    4.50
  -4  -8   1  146.77    3.97
   3   8  -1   96.82    2.92
   3   8  -1  101.42    3.40
  -3  -8   1   95.90    2.50
  -3  -8   1   97.85    2.58
  -3  -8   1  101.51    3.34
  -3  -8   1   94.80    2.82
   2   8  -1    3.77    0.70
   2   8  -1    4.24    0.62
  -2  -8   1    4.50    0.49
  -2  -8   1    4.71    0.51
  -2  -8   1    4.10    0.68
   1   8  -1  154.23    4.60
   1   8  -1  152.14    4.06
  -1  -8   1  156.65    4.55
  -1  -8   1  147.62    4.02
  -1  -8   1  155.63    4.00
   0   8  -1  108.42    2.97
   0   8  -1  106.64    3.43
   0   8  -1  105.23    2.83
   0  -8   1  111.43    3.39
   0  -8   1  106.02    2.94
   0  -8   1  106.90    2.92
  -1   8  -1   25.13    1.48
  -1   8  -1   24.77    0.94
  -1   8  -1   25.54    1.02
   1  -8   1   23.53    0.95
   1  -8   1   26.57    1.31
   1  -8   1   24.79    1.05
  -2   8  -1  152.63    4.05
  -2   8  -1  157.19    4.43
  -2   8  -1  158.62    4.09
   2  -8   1  146.85    4.10
   2  -8   1  151.43    4.32
   2  -8   1  155.72    4.07
  -3   8  -1   47.12    1.58
  -3   8  -1   48.04    1.59
  -3   8  -1   48.44    1.86
   3  -8   1   46.51    1.56
   3  -8   1   48.26    1.67
   3  -8   1   47.79    1.64
  -4   8  -1    0.93    0.46
  -4   8  -1    1.31    0.36
  -4   8  -1    0.08    0.36
   4  -8   1    0.77    0.36
   4  -8   1    0.64    0.28
   4  -8   1    0.50    0.38
  -5   8  -1  102.17    3.00
  -5   8  -1  100.85    3.03
  -5   8  -1  104.47    3.01
   5  -8   1  105.41    3.05
   5  -8   1  108.05    2.88
   5  -8   1  106.49    3.04
  -6   8  -1   49.26    1.59
  -6   8  -1   50.83    1.75
  -6   8  -1   48.80    1.80
   6  -8   1   50.59    1.79
   6  -8   1   50.56    1.84
  -7   8  -1    0.11    0.44
  -7   8  -1   -0.88    0.42
   7  -8   1   -0.42    0.40
  -8   8  -1   14.04    1.13
   8  -8   1   12.02    1.08
   6   7  -1   17.26    1.17
   6   7  -1   15.28    1.41
  -6  -7   1   12.51    1.85
   5   7  -1   41.18    1.54
   5   7  -1   42.40    1.99
  -5  -7   1   40.32    2.00
  -5  -7   1   41.96    1.49
   4   7  -1    1.41    0.58
   4   7  -1    2.06    0.42
  -4  -7   1    1.51    0.22
  -4  -7   1    1.73    0.35
  -4  -7   1    1.29    0.58
  -4  -7   1    1.62    0.23
   3   7  -1  132.18    3.51
   3   7  -1  118.18    4.19
  -3  -7   1  130.65    3.49
  -3  -7   1  136.87    4.00
  -3  -7   1  128.96    3.35
  -3  -7   1  132.46    3.25
   2   7  -1   91.56    3.04
   2   7  -1   85.83    2.50
  -2  -7   1   91.45    2.40
  -2  -7   1   89.94    2.95
  -2  -7   1   89.69    2.49
   1   7  -1   28.77    0.89
   1   7  -1   29.07    1.55
  -1  -7   1   29.60    1.01
  -1  -7   1   29.55    1.44
  -1  -7   1   28.08    1.01
   0   7  -1   60.57    1.79
   0   7  -1   59.91    1.68
   0   7  -1   60.90    2.22
   0  -7   1   60.56    1.77
   0  -7   1   57.94    2.18
   0  -7   1   61.69    1.76
  -1   7  -1  171.03    4.45
  -1   7  -1  178.73    4.52
  -1   7  -1  175.41    4.87
   1  -7   1  173.86    4.78
   1  -7   1  174.85    4.49
   1  -7   1  172.89    4.52
  -2   7  -1   11.36    1.00
  -2   7  -1    9.65    0.76
  -2   7  -1   11.05    0.66
   2  -7   1   11.37    0.63
   2  -7   1   11.21    0.78
   2  -7   1   10.80    0.70
  -3   7  -1   98.95    2.71
  -3   7  -1   97.49    2.91
  -3   7  -1   97.15    2.72
   3  -7   1  101.57    2.77
   3  -7   1   95.17    2.74
   3  -7   1   93.58    2.70
  -4   7  -1  354.21    8.95
  -4   7  -1  360.51    8.93
  -4   7  -1  351.39    8.99
   4  -7   1  364.64    8.97
   4  -7   1  347.78    8.93
   4  -7   1  358.55    8.87
  -5   7  -1   61.90    2.08
  -5   7  -1   63.36    1.99
  -5   7  -1   61.23    1.95
   5  -7   1   66.48    2.04
   5  -7   1   66.90    2.05
   5  -7   1   64.11    1.82
  -6   7  -1   42.11    1.52
  -6   7  -1   40.99    1.31
  -6   7  -1   42.70    1.58
   6  -7   1   45.33    1.56
   6  -7   1   42.58    1.59
  -7   7  -1   96.71    2.91
  -7   7  -1   95.83    2.87
   7  -7   1   98.84    2.88
   7  -7   1   93.14    2.93
  -8   7  -1   24.93    1.32
   8  -7   1   25.06    1.34
  -9   7  -1   13.21    1.18
   9  -7   1   11.48    1.18
   7   6  -1   69.35    2.97
  -7  -6   1   65.06    2.65
   6   6  -1   30.73    1.36
   6   6  -1   32.29    1.69
  -6  -6   1   33.25    1.78
   5   6  -1    1.71    0.39
   5   6  -1    1.26    0.58
  -5  -6   1    0.32    0.55
   4   6  -1  128.56    3.51
   4   6  -1  131.86    4.00
  -4  -6   1  133.66    3.94
  -4  -6   1  128.68    3.30
  -4  -6   1  129.76    3.22
  -4  -6   1  131.22    3.52
   3   6  -1   39.30    1.29
   3   6  -1   40.00    1.82
  -3  -6   1   38.81    1.27
  -3  -6   1   40.44    1.74
  -3  -6   1   37.99    1.05
  -3  -6   1   39.17    1.12
   2   6  -1    4.01    0.64
   2   6  -1    5.33    0.48
  -2  -6   1    5.65    0.44
  -2  -6   1    6.10    0.41
  -2  -6   1    5.41    0.84
   1   6  -1  187.36    4.70
   1   6  -1  181.42    4.57
   1   6  -1  184.07    5.11
  -1  -6   1  190.08    5.09
  -1  -6   1  181.35    4.68
  -1  -6   1  182.87    4.73
   0   6  -1  226.47    5.71
   0   6  -1  232.03    5.79
   0   6  -1  233.11    6.16
   0  -6   1  236.01    6.11
   0  -6   1  225.66    5.77
   0  -6   1  230.68    5.78
  -1   6  -1   77.27    2.10
  -1   6  -1   77.86    2.14
  -1   6  -1   75.31    2.42
   1  -6   1   77.80    2.12
   1  -6   1   78.01    2.35
   1  -6   1   76.58    2.15
  -2   6  -1  216.98    5.53
  -2   6  -1  213.31    5.72
  -2   6  -1  218.17    5.54
   2  -6   1  220.59    5.54
   2  -6   1  223.33    5.66
   2  -6   1  221.23    5.56
  -3   6  -1  176.01    4.66
  -3   6  -1  179.32    4.69
  -3   6  -1  181.07    4.78
   3  -6   1  185.12    4.71
   3  -6   1  187.39    4.69
   3  -6   1  182.18    4.68
  -4   6  -1    7.63    0.64
  -4   6  -1    8.12    0.68
  -4   6  -1    7.39    0.56
   4  -6   1    7.41    0.62
   4  -6   1    8.01    0.63
   4  -6   1    7.69    0.46
  -5   6  -1  208.82    5.18
  -5   6  -1  202.21    5.31
  -5   6  -1  204.13    5.28
   5  -6   1  196.52    5.30
   5  -6   1  206.22    5.30
  -6   6  -1   81.17    2.03
  -6   6  -1   81.68    2.46
  -6   6  -1   80.39    2.40
   6  -6   1   75.81    2.67
   6  -6   1   82.15    2.40
  -7   6  -1    3.53    0.50
  -7   6  -1    2.91    0.50
   7  -6   1    3.45    0.47
   7  -6   1    3.65    0.54
  -8   6  -1   87.87    2.91
  -8   6  -1   83.87    2.64
   8  -6   1   80.14    2.59
   8  -6   1   82.89    2.70
  -9   6  -1   30.97    1.46
   9  -6   1   24.46    1.49
   7   5  -1    0.87    0.54
   7   5  -1    1.17    0.55
  -7  -5   1   -0.01    0.61
   6   5  -1   40.60    2.76
   6   5  -1   45.91    1.60
  -6  -5   1   46.45    1.93
   5   5  -1   85.01    2.80
   5   5  -1   82.68    2.42
  -5  -5   1   82.71    2.73
   4   5  -1    3.40    0.49
   4   5  -1    2.92    0.61
  -4  -5   1    3.09    0.55
  -4  -5   1    3.57    0.28
  -4  -5   1    3.02    0.45
   3   5  -1  134.99    3.57
   3   5  -1  138.68    4.00
  -3  -5   1  133.37    3.39
  -3  -5   1  138.64    3.57
  -3  -5   1  138.60    3.36
  -3  -5   1  136.25    3.94
   2   5  -1  343.56    8.63
   2   5  -1  328.06    8.22
  -2  -5   1  337.45    8.22
  -2  -5   1  321.11    8.10
  -2  -5   1  334.50    8.57
   1   5  -1   84.20    2.26
   1   5  -1   81.88    2.15
   1   5  -1   86.65    2.64
  -1  -5   1   83.43    2.21
  -1  -5   1   85.82    2.26
  -1  -5   1   85.85    2.58
   0   5  -1  619.10   14.75
   0   5  -1  601.77   14.69
   0   5  -1  604.02   15.03
   0  -5   1  655.07   14.89
   0  -5   1  580.08   14.73
   0  -5   1  582.69   14.98
  -1   5  -1  544.81   12.65
  -1   5  -1  515.08   12.79
  -1   5  -1  507.45   12.57
   1  -5   1  495.61   12.59
   1  -5   1  510.37   12.74
   1  -5   1  525.01   12.59
  -2   5  -1   86.27    2.39
  -2   5  -1   80.47    2.26
  -2   5  -1   83.69    2.25
   2  -5   1   86.00    2.26
   2  -5   1   82.11    2.30
   2  -5   1   80.52    2.26
  -3   5  -1   90.52    2.45
  -3   5  -1   89.68    2.49
   3  -5   1   91.52    2.44
   3  -5   1   91.73    2.48
   3  -5   1   89.92    2.46
  -4   5  -1  285.24    7.01
  -4   5  -1  284.28    6.96
  -4   5  -1  275.70    7.03
   4  -5   1  284.68    7.03
   4  -5   1  272.56    6.88
   4  -5   1  274.53    7.02
  -5   5  -1    1.98    0.32
  -5   5  -1    2.41    0.42
  -5   5  -1    2.15    0.36
   5  -5   1    2.14    0.35
   5  -5   1    2.26    0.37
  -6   5  -1   39.53    1.44
  -6   5  -1   40.75    1.40
   6  -5   1   38.97    1.45
   6  -5   1   40.83    1.40
  -7   5  -1   87.03    2.58
  -7   5  -1   87.80    2.60
   7  -5   1   88.23    2.54
   7  -5   1   83.42    2.63
  -8   5  -1   14.97    1.01
   8  -5   1   14.41    0.92
   8  -5   1   15.29    1.07
  -9   5  -1    7.19    0.94
   9  -5   1    7.24    1.01
   8   4  -1   18.93    1.16
   8   4  -1   15.72    1.14
   7   4  -1   66.01    2.26
   7   4  -1   63.36    2.11
   7   4  -1   62.01    2.09
  -7  -4   1   63.85    2.29
   6   4  -1   30.22    1.43
   6   4  -1   30.67    1.22
  -6  -4   1   29.16    0.87
  -6  -4   1   27.99    1.40
   5   4  -1   28.09    1.09
   5   4  -1   27.80    1.40
  -5  -4   1   28.56    0.81
  -5  -4   1   27.71    1.34
   4   4  -1  295.82    7.72
   4   4  -1  297.57    7.40
  -4  -4   1  293.06    7.17
  -4  -4   1  298.44    7.41
  -4  -4   1  288.08    7.17
  -4  -4   1  302.81    7.67
   3   4  -1   78.65    2.15
   3   4  -1   78.69    2.51
  -3  -4   1   78.54    2.42
  -3  -4   1   80.28    2.15
  -3  -4   1   79.26    1.96
  -3  -4   1   76.53    1.97
   2   4  -1   42.68    1.58
   2   4  -1   40.64    1.22
  -2  -4   1   41.21    1.07
  -2  -4   1   41.50    1.11
  -2  -4   1   41.84    1.51
  -2  -4   1   42.70    1.22
   1   4  -1  222.37    5.68
   1   4  -1  212.70    5.28
   1   4  -1  224.38    5.38
  -1  -4   1  217.27    5.63
  -1  -4   1  209.11    5.31
  -1  -4   1  215.75    5.37
   0   4  -1   10.08    0.70
   0   4  -1    9.63    0.40
   0  -4   1    8.52    0.42
   0  -4   1    9.06    0.62
  -1   4  -1   71.06    2.00
  -1   4  -1   67.81    1.85
  -1   4  -1   69.00    1.85
   1  -4   1   71.62    1.96
   1  -4   1   67.20    1.86
   1  -4   1   69.97    1.85
  -2   4  -1  206.80    5.13
  -2   4  -1  203.82    5.18
  -2   4  -1  200.11    5.14
   2  -4   1  204.82    5.13
   2  -4   1  209.65    5.15
   2  -4   1  209.09    5.15
  -3   4  -1  310.27    7.40
  -3   4  -1  297.26    7.36
  -3   4  -1  291.27    7.41
   3  -4   1  306.40    7.41
   3  -4   1  297.37    7.32
   3  -4   1  289.89    7.39
  -4   4  -1   70.50    2.05
  -4   4  -1   74.10    2.03
  -4   4  -1   74.86    1.92
   4  -4   1   74.52    2.04
   4  -4   1   67.74    2.03
  -5   4  -1   45.29    1.47
  -5   4  -1   46.48    1.19
  -5   4  -1   40.42    1.56
  -5   4  -1   46.92    1.24
   5  -4   1   46.24    1.43
   5  -4   1   44.72    1.48
  -6   4  -1   16.15    0.81
  -6   4  -1   16.50    0.87
   6  -4   1   16.45    0.80
   6  -4   1   16.56    0.88
  -7   4  -1    1.03    0.44
   7  -4   1    0.45    0.32
   7  -4   1    0.95    0.42
  -8   4  -1   75.72    2.35
   8  -4   1   76.09    2.28
   8  -4   1   72.83    2.43
  -9   4  -1   22.07    1.21
   9  -4   1   20.87    1.33
   8   3  -1   30.28    1.45
   8   3  -1   31.73    1.32
   8   3  -1   26.68    1.34
  -8  -3   1   28.97    1.44
  -8  -3   1   28.86    0.97
   7   3  -1    1.87    0.44
   7   3  -1    2.05    0.46
   7   3  -1    2.10    0.45
  -7  -3   1    1.93    0.49
  -7  -3   1    2.44    0.28
   6   3  -1   71.10    2.17
   6   3  -1   72.47    2.31
  -6  -3   1   71.35    1.91
  -6  -3   1   73.26    2.30
   5   3  -1  128.89    3.21
   5   3  -1  127.82    3.65
   5   3  -1  129.89    3.45
  -5  -3   1  129.38    3.22
  -5  -3   1  129.03    3.60
   4   3  -1    1.09    0.43
   4   3  -1    1.24    0.26
  -4  -3   1    1.81    0.21
  -4  -3   1    1.94    0.37
   3   3  -1  189.66    4.81
   3   3  -1  195.77    5.08
  -3  -3   1  186.85    5.01
  -3  -3   1  190.31    4.64
  -3  -3   1  193.97    4.82
   2   3  -1  155.60    4.01
   2   3  -1  150.98    3.74
  -2  -3   1  149.77    3.74
  -2  -3   1  146.92    3.94
  -2  -3   1  147.05    3.60
  -2  -3   1  140.89    3.61
   1   3  -1    1.95    0.24
   1   3  -1    2.34    0.16
  -1  -3   1    3.01    0.47
  -1  -3   1    2.22    0.23
  -1  -3   1    2.34    0.21
   0   3  -1  409.16   10.05
   0   3  -1  412.97   10.08
   0   3  -1  405.50   10.10
   0  -3   1  405.68   10.04
   0  -3   1  429.45   10.20
   0  -3   1  403.15   10.08
  -1   3  -1  167.57    4.12
  -1   3  -1  156.08    4.05
  -1   3  -1  161.05    4.06
   1  -3   1  166.21    4.10
   1  -3   1  169.38    4.06
   1  -3   1  159.45    4.06
  -2   3  -1  159.46    3.90
  -2   3  -1  148.33    3.90
  -2   3  -1  156.66    3.88
   2  -3   1  154.45    4.07
   2  -3   1  152.95    3.86
   2  -3   1  159.43    3.90
  -3   3  -1  181.55    4.50
  -3   3  -1  177.40    4.41
  -3   3  -1  176.05    4.48
   3  -3   1  181.88    4.49
   3  -3   1  174.50    4.47
  -4   3  -1  330.13    7.84
  -4   3  -1  304.29    7.97
  -4   3  -1  310.18    7.81
  -4   3  -1  327.81    7.99
   4  -3   1  324.78    7.97
   4  -3   1  336.69    8.01
  -5   3  -1   12.06    0.63
  -5   3  -1   13.05    0.46
  -5   3  -1   12.47    0.48
  -5   3  -1   12.84    0.70
   5  -3   1   11.91    0.69
   5  -3   1   13.31    0.63
  -6   3  -1   35.78    1.25
   6  -3   1   34.00    1.17
   6  -3   1   33.62    1.29
  -7   3  -1  173.20    4.48
   7  -3   1  171.22    4.41
   7  -3   1  158.43    5.17
  -8   3  -1    5.39    0.74
   8  -3   1    5.32    0.79
   8  -3   1    4.45    0.61
  -9   3  -1   18.99    1.13
   9  -3   1   17.18    0.97
   9  -3   1   17.52    1.21
   8   2  -1   14.22    1.00
   8   2  -1   15.96    1.15
   8   2  -1   16.14    0.64
   8   2  -1   16.96    0.87
  -8  -2   1   16.53    0.77
  -8  -2   1   12.74    0.95
   7   2  -1   75.71    2.39
   7   2  -1   76.51    2.04
   7   2  -1   77.44    2.29
   7   2  -1   77.52    2.37
  -7  -2   1   76.69    2.09
  -7  -2   1   76.30    2.29
   6   2  -1   21.56    0.96
   6   2  -1   20.37    0.97
   6   2  -1   20.61    0.68
   6   2  -1   21.44    1.03
  -6  -2   1   21.18    0.75
  -6  -2   1   19.98    0.97
   5   2  -1   30.18    1.23
   5   2  -1   29.47    0.86
  -5  -2   1   29.64    1.15
  -5  -2   1   29.38    0.90
   4   2  -1  208.50    5.23
   4   2  -1  201.07    5.04
   4   2  -1  204.73    5.36
  -4  -2   1  210.15    5.32
  -4  -2   1  208.12    5.06
   3   2  -1  159.21    3.95
   3   2  -1  164.42    4.27
   3   2  -1  167.54    4.11
  -3  -2   1  162.74    3.96
  -3  -2   1  158.00    4.21
   2   2  -1    6.82    0.37
   2   2  -1    8.62    0.65
  -2  -2   1    8.28    0.37
  -2  -2   1    8.06    0.53
  -2  -2   1    8.23    0.24
   1   2  -1  614.92   15.15
   1   2  -1  615.43   15.12
  -1  -2   1  656.16   15.09
  -1  -2   1  583.83   14.96
  -1  -2   1  584.43   14.75
   0   2  -1  308.40    7.67
   0   2  -1  311.87    7.78
   0  -2   1  302.11    7.62
   0  -2   1  330.30    7.81
   0  -2   1  313.17    7.80
  -1   2  -1  162.99    4.05
  -1   2  -1  161.47    4.04
  -1   2  -1  164.28    4.06
   1  -2   1  164.42    4.05
   1  -2   1  169.40    4.04
   1  -2   1  161.41    4.04
  -2   2  -1  103.84    2.60
  -2   2  -1  101.45    2.59
  -2   2  -1  102.62    2.56
   2  -2   1  100.84    2.59
   2  -2   1  101.90    2.60
  -3   2  -1  145.93    3.66
  -3   2  -1  139.88    3.56
  -3   2  -1  144.87    3.65
  -3   2  -1  140.93    3.57
   3  -2   1  142.77    3.63
   3  -2   1  152.18    3.67
  -4   2  -1  113.27    2.93
  -4   2  -1  117.91    3.04
  -4   2  -1  119.90    3.04
   4  -2   1  115.55    3.06
   4  -2   1  116.27    3.02
  -5   2  -1  269.91    6.59
  -5   2  -1  258.24    6.48
   5  -2   1  266.10    6.56
   5  -2   1  257.75    6.64
  -6   2  -1   82.63    2.31
  -6   2  -1   84.68    2.20
  -6   2  -1   78.36    2.11
   6  -2   1   77.61    2.25
   6  -2   1   82.73    2.40
  -7   2  -1   11.91    0.48
  -7   2  -1   12.95    0.79
  -7   2  -1   11.55    0.55
   7  -2   1   12.17    0.85
   7  -2   1   12.64    0.68
  -8   2  -1   64.94    2.05
   8  -2   1   65.45    1.95
   8  -2   1   64.60    2.15
   8  -2   1   62.50    2.16
  -9   2  -1   10.33    0.93
   9  -2   1    8.37    1.03
   9  -2   1   11.05    0.82
   9   1  -1   34.27    1.59
  -9  -1   1   36.64    1.31
   8   1  -1   25.72    1.32
   8   1  -1   26.53    1.04
   8   1  -1   25.83    1.26
   8   1  -1   26.45    0.94
  -8  -1   1   26.01    1.03
  -8  -1   1   24.70    1.00
   7   1  -1    0.54    0.38
   7   1  -1    0.71    0.26
   7   1  -1    0.96    0.21
   7   1  -1    0.85    0.42
  -7  -1   1    0.31    0.27
  -7  -1   1    0.91    0.29
   6   1  -1   68.83    2.05
   6   1  -1   66.02    1.81
   6   1  -1   68.57    1.95
   6   1  -1   65.86    2.07
  -6  -1   1   68.16    1.87
  -6  -1   1   66.78    1.94
   5   1  -1  181.12    4.64
   5   1  -1  178.36    4.70
   5   1  -1  182.04    4.49
   5   1  -1  183.75    4.68
  -5  -1   1  175.34    4.51
  -5  -1   1  183.86    4.65
   4   1  -1    1.61    0.25
   4   1  -1    1.08    0.29
   4   1  -1    1.57    0.20
  -4  -1   1    1.25    0.25
  -4  -1   1    1.85    0.27
   3   1  -1  240.40    6.02
   3   1  -1  239.62    5.85
   3   1  -1  246.15    5.98
  -3  -1   1  240.98    5.86
  -3  -1   1  236.91    5.98
   2   1  -1  146.30    3.61
   2   1  -1  147.79    3.50
   2   1  -1  145.25    3.67
  -2  -1   1  150.18    3.64
  -2  -1   1  132.61    3.54
   1   1  -1   57.37    1.47
   1   1  -1   58.98    1.51
  -1  -1   1   56.91    1.47
  -1  -1   1   55.81    1.49
  -1   1  -1  612.62   15.64
  -1   1  -1  685.52   15.65
   1  -1   1  607.42   15.61
   1  -1   1  649.39   15.66
  -2   1  -1   -0.14    0.11
  -2   1  -1   -0.25    0.11
  -2   1  -1    0.07    0.12
   2  -1   1    0.06    0.13
   2  -1   1   -0.28    0.10
   2  -1   1   -0.05    0.11
  -3   1  -1  314.39    7.86
  -3   1  -1  316.35    7.83
  -3   1  -1  329.25    7.85
   3  -1   1  326.19    7.87
   3  -1   1  319.64    7.82
  -4   1  -1  254.63    6.34
  -4   1  -1  260.84    6.34
   4  -1   1  258.81    6.32
   4  -1   1  251.59    6.29
   4  -1   1  253.06    6.38
  -5   1  -1    2.85    0.51
   5  -1   1    2.46    0.35
   5  -1   1    2.13    0.33
  -6   1  -1   53.09    1.59
  -6   1  -1   51.73    1.62
   6  -1   1   52.55    1.69
   6  -1   1   51.48    1.58
  -7   1  -1   97.40    2.70
   7  -1   1   97.59    2.65
   7  -1   1   96.13    2.79
   7  -1   1   95.28    2.82
  -8   1  -1    2.55    0.54
  -8   1  -1    2.90    0.40
   8  -1   1    2.30    0.52
   8  -1   1    3.21    0.56
   8  -1   1    2.50    0.36
  -9   1  -1   12.66    0.96
   9  -1   1   11.22    1.09
   9  -1   1   12.85    0.83
   9   0  -1    8.58    1.01
  -9   0   1    9.89    0.85
   8   0  -1   24.03    0.88
   8   0  -1   22.18    1.17
   8   0  -1   22.17    1.23
  -8   0   1   24.64    1.01
   7   0  -1   71.57    2.43
   7   0  -1   74.66    1.95
   7   0  -1   75.42    2.04
   7   0  -1   75.13    2.28
  -7   0   1   77.86    2.12
  -7   0   1   68.83    1.94
   6   0  -1   60.49    1.68
   6   0  -1   61.39    1.65
   6   0  -1   59.16    1.88
   6   0  -1   60.24    1.91
  -6   0   1   60.40    1.64
  -6   0   1   60.63    1.74
   5   0  -1   89.13    2.29
   5   0  -1   87.17    2.47
   5   0  -1   87.33    2.29
  -5   0   1   90.44    2.34
  -5   0   1   84.75    2.27
   4   0  -1  216.51    5.35
   4   0  -1  214.93    5.36
   4   0  -1  216.13    5.50
  -4   0   1  225.86    5.39
  -4   0   1  213.19    5.35
   3   0  -1   42.87    1.25
   3   0  -1   42.95    1.14
   3   0  -1   42.08    1.18
  -3   0   1   42.80    1.14
  -3   0   1   42.88    1.17
   2   0  -1  892.98   20.60
   2   0  -1  770.25   20.38
   2   0  -1  851.44   20.38
  -2   0   1  797.88   20.28
  -2   0   1  866.21   20.43
   1   0  -1  472.40   12.93
   1   0  -1  588.90   12.96
  -1   0  -1  160.17    3.70
  -1   0  -1  151.39    3.74
   1   0   1  140.82    3.68
   1   0   1  152.38    3.70
   1   0   1  153.04    3.74
  -2   0  -1  435.61   10.73
  -2   0  -1  454.51   10.72
   2   0   1  447.95   10.57
   2   0   1  420.18   10.57
   2   0   1  426.70   10.88
  -3   0  -1   26.40    0.79
  -3   0  -1   25.70    0.91
   3   0   1   27.20    0.87
   3   0   1   27.22    0.84
   3   0   1   26.51    0.79
  -4   0  -1   20.33    0.85
  -4   0  -1   20.26    0.69
   4   0   1   18.90    0.75
   4   0   1   19.78    0.76
   4   0   1   19.52    0.67
  -5   0  -1  113.61    2.94
  -5   0  -1  110.81    3.09
   5   0   1  110.62    2.98
   5   0   1  112.27    2.92
   5   0   1  111.37    3.03
   5   0   1  116.20    3.01
  -6   0  -1   44.73    1.39
  -6   0  -1   46.76    1.56
   6   0   1   44.69    1.34
   6   0   1   44.10    1.40
   6   0   1   43.73    1.46
   6   0   1   44.25    1.50
  -7   0  -1    8.52    0.65
  -7   0  -1    7.03    0.76
   7   0   1    6.76    0.73
   7   0   1    8.97    0.76
   7   0   1    7.55    0.53
   7   0   1    8.69    0.59
  -8   0  -1   35.12    1.33
  -8   0  -1   33.09    1.37
   8   0   1   38.05    1.50
   8   0   1   35.25    1.49
   8   0   1   38.24    1.25
  -9   0  -1   12.06    0.96
   9   0   1   11.05    1.11
   9  -1  -1   31.15    1.52
   9  -1  -1   32.23    1.19
  -9   1   1   32.18    1.38
   8  -1  -1   28.62    1.03
   8  -1  -1   27.71    1.33
   8  -1  -1   26.43    1.30
  -8   1   1   27.45    1.13
   7  -1  -1    4.23    0.48
   7  -1  -1    4.31    0.60
  -7   1   1    3.62    0.43
   6  -1  -1  160.21    4.28
   6  -1  -1  159.55    4.09
  -6   1   1  160.55    4.15
   5  -1  -1  109.58    2.99
   5  -1  -1  109.92    2.84
  -5   1   1  107.97    2.88
   4  -1  -1    4.31    0.35
   4  -1  -1    4.58    0.42
  -4   1   1    3.48    0.38
   3  -1  -1  101.71    2.69
   3  -1  -1  103.57    2.63
  -3   1   1  104.86    2.66
   2  -1  -1  910.16   22.37
   2  -1  -1  885.31   22.10
  -2   1   1  918.26   22.16
   1  -1  -1    0.03    0.09
   1  -1  -1    0.00    0.10
   1  -1  -1    0.16    0.09
  -1   1   1    0.23    0.10
  -1   1   1    0.05    0.09
   0  -1  -1  244.13    6.35
   0  -1  -1  259.10    6.28
   0  -1  -1  244.54    6.24
   0   1   1  253.11    6.34
   0   1   1  273.09    6.28
  -1  -1  -1  208.43    4.89
  -1  -1  -1  196.23    5.01
  -1  -1  -1  205.71    4.88
   1   1   1  199.09    4.88
   1   1   1  195.69    5.01
   1   1   1  198.34    4.86
  -2  -1  -1   21.85    0.86
  -2  -1  -1   21.20    0.63
   2   1   1   21.92    0.83
   2   1   1   20.38    0.63
   2   1   1   20.75    0.64
  -3  -1  -1  174.75    4.72
  -3  -1  -1  171.73    4.18
   3   1   1  166.52    4.22
   3   1   1  168.32    4.36
   3   1   1  164.13    4.18
  -4  -1  -1  193.06    5.09
  -4  -1  -1  200.25    4.85
   4   1   1  192.63    4.93
   4   1   1  197.79    5.04
   4   1   1  193.55    4.84
   4   1   1  193.72    4.90
  -5  -1  -1    4.04    0.74
  -5  -1  -1    4.41    0.40
   5   1   1    3.85    0.58
   5   1   1    3.97    0.32
   5   1   1    3.71    0.49
   5   1   1    3.58    0.43
  -6  -1  -1  138.32    3.50
  -6  -1  -1  135.82    3.76
   6   1   1  131.63    3.63
   6   1   1  132.59    3.83
   6   1   1  133.10    3.46
   6   1   1  134.54    3.59
  -7  -1  -1   69.71    2.01
  -7  -1  -1   66.94    2.24
   7   1   1   68.81    1.95
   7   1   1   71.95    2.12
   7   1   1   67.75    2.13
   7   1   1   71.05    2.19
  -8  -1  -1    0.24    0.36
  -8  -1  -1   -1.11    0.63
   8   1   1   -0.05    0.50
   8   1   1   -0.19    0.27
   8   1   1   -0.15    0.41
   8   1   1    0.51    0.30
   9  -2  -1    0.67    0.51
   9  -2  -1    0.36    0.35
  -9   2   1    1.57    0.45
   8  -2  -1   46.78    1.52
   8  -2  -1   48.58    1.79
  -8   2   1   45.97    1.62
   7  -2  -1  101.56    2.98
   7  -2  -1  100.95    2.77
  -7   2   1  102.36    2.84
   6  -2  -1   20.05    0.96
   6  -2  -1   19.59    0.80
  -6   2   1   19.96    0.88
   5  -2  -1  143.35    3.62
   5  -2  -1  138.88    3.73
  -5   2   1  137.92    3.66
   4  -2  -1  198.92    5.05
   4  -2  -1  198.52    5.13
  -4   2   1  208.10    5.09
  -4   2   1  201.25    5.11
   3  -2  -1  160.43    4.06
   3  -2  -1  158.26    4.03
  -3   2   1  161.62    4.05
  -3   2   1  159.35    4.05
   2  -2  -1    2.96    0.33
   2  -2  -1    3.31    0.34
  -2   2   1    2.78    0.27
   1  -2  -1  319.65    8.37
   1  -2  -1  340.54    8.45
   1  -2  -1  370.00    8.43
  -1   2   1  337.65    8.37
  -1   2   1  354.95    8.36
  -1   2   1  340.33    8.42
   0  -2  -1    8.05    0.32
   0  -2  -1    8.20    0.35
   0  -2  -1    7.96    0.58
   0   2   1    8.78    0.34
   0   2   1    8.10    0.57
   0   2   1    8.82    0.34
  -1  -2  -1    3.80    0.21
  -1  -2  -1    3.80    0.57
  -1  -2  -1    3.24    0.20
   1   2   1    3.12    0.21
   1   2   1    2.45    0.35
  -2  -2  -1  490.25   11.73
  -2  -2  -1  490.49   11.81
  -2  -2  -1  475.96   11.94
   2   2   1  475.10   11.93
   2   2   1  483.08   11.72
  -3  -2  -1   77.11    1.94
  -3  -2  -1   73.87    2.26
   3   2   1   75.63    1.98
   3   2   1   72.84    2.23
   3   2   1   75.80    1.94
  -4  -2  -1   46.24    1.67
  -4  -2  -1   46.10    1.27
   4   2   1   44.91    1.60
   4   2   1   44.77    1.26
   4   2   1   45.79    1.34
  -5  -2  -1   90.78    2.37
  -5  -2  -1   91.44    2.77
   5   2   1   91.14    2.36
   5   2   1   86.10    2.45
   5   2   1   89.04    2.50
   5   2   1   89.84    2.67
  -6  -2  -1   41.81    1.28
   6   2   1   40.50    1.44
   6   2   1   41.46    1.24
   6   2   1   42.56    1.55
   6   2   1   42.26    1.40
  -7  -2  -1   11.23    1.14
  -7  -2  -1   12.71    0.70
   7   2   1   11.37    1.02
   7   2   1   11.75    0.86
   7   2   1   12.68    0.88
  -8  -2  -1   46.33    1.98
  -8  -2  -1   48.49    1.60
   8   2   1   50.66    1.83
   8   2   1   50.66    1.76
   8   2   1   47.74    1.82
   8   2   1   55.39    1.89
   9  -3  -1   25.25    1.39
   9  -3  -1   25.25    1.13
  -9   3   1   25.89    1.22
   8  -3  -1   23.81    1.24
   8  -3  -1   25.30    1.05
  -8   3   1   25.78    1.16
   7  -3  -1    0.51    0.29
   7  -3  -1    0.63    0.39
  -7   3   1    0.91    0.35
   6  -3  -1  108.33    2.96
   6  -3  -1  109.12    3.10
  -6   3   1  111.91    3.04
   5  -3  -1  112.88    2.89
   5  -3  -1  105.19    2.95
  -5   3   1  102.42    2.97
  -5   3   1  108.75    2.92
   4  -3  -1   65.05    1.83
   4  -3  -1   64.09    1.86
  -4   3   1   64.51    1.84
  -4   3   1   63.56    1.85
   3  -3  -1  323.82    8.12
   3  -3  -1  316.04    8.00
   3  -3  -1  341.56    8.13
  -3   3   1  332.50    8.00
  -3   3   1  334.74    8.13
  -3   3   1  326.16    8.11
   2  -3  -1  350.23    8.52
   2  -3  -1  331.92    8.48
   2  -3  -1  359.64    8.47
  -2   3   1  346.39    8.48
  -2   3   1  352.84    8.46
  -2   3   1  332.93    8.47
   1  -3  -1   13.18    0.52
   1  -3  -1   14.76    0.79
  -1   3   1   14.75    0.53
  -1   3   1   13.05    0.71
   0  -3  -1  213.85    5.85
   0  -3  -1  215.39    5.19
   0  -3  -1  209.49    5.21
   0   3   1  207.43    5.43
   0   3   1  213.57    5.20
   0   3   1  208.97    5.19
  -1  -3  -1  203.03    5.22
  -1  -3  -1  199.69    4.90
  -1  -3  -1  198.62    4.90
   1   3   1  196.29    5.20
   1   3   1  198.28    4.90
  -2  -3  -1    6.54    0.34
  -2  -3  -1    7.15    0.74
  -2  -3  -1    6.09    0.30
   2   3   1    6.10    0.35
   2   3   1    6.02    0.75
  -3  -3  -1  438.80   11.03
  -3  -3  -1  438.53   10.68
  -3  -3  -1  440.92   10.61
   3   3   1  431.20   10.66
   3   3   1  436.70   11.01
  -4  -3  -1  115.89    3.44
  -4  -3  -1  116.37    2.95
   4   3   1  117.01    3.39
   4   3   1  115.02    3.04
  -5  -3  -1    1.18    0.22
  -5  -3  -1    1.45    0.51
   5   3   1    0.85    0.29
   5   3   1    1.46    0.44
  -6  -3  -1   39.86    1.78
  -6  -3  -1   41.63    1.26
   6   3   1   39.69    1.40
   6   3   1   40.72    1.43
   6   3   1   41.55    1.64
  -7  -3  -1   39.17    1.91
  -7  -3  -1   41.93    1.33
   7   3   1   41.51    1.55
   7   3   1   43.45    1.69
   7   3   1   40.91    1.55
   8   3   1    0.46    0.56
   8   3   1   -0.43    0.48
   9  -4  -1    3.78    0.52
   9  -4  -1    3.70    0.67
  -9   4   1    3.64    0.59
   8  -4  -1   37.42    1.60
   8  -4  -1   38.47    1.40
  -8   4   1   40.12    1.51
   7  -4  -1  105.87    2.99
   7  -4  -1  107.92    3.15
  -7   4   1  108.17    3.10
   6  -4  -1    1.76    0.39
   6  -4  -1    2.22    0.36
  -6   4   1    1.59    0.38
  -6   4   1    1.20    0.34
   5  -4  -1   84.30    2.42
   5  -4  -1   76.53    2.46
  -5   4   1   85.58    2.38
  -5   4   1   87.20    2.41
   4  -4  -1  267.49    6.74
   4  -4  -1  269.18    6.75
   4  -4  -1  268.82    6.55
  -4   4   1  273.58    6.74
  -4   4   1  257.01    6.54
  -4   4   1  273.34    6.76
   3  -4  -1   97.20    2.56
   3  -4  -1   94.05    2.52
   3  -4  -1   94.41    2.58
  -3   4   1   94.12    2.58
  -3   4   1   96.62    2.55
  -3   4   1   95.06    2.52
   2  -4  -1  233.33    5.85
   2  -4  -1  233.20    5.89
   2  -4  -1  240.97    6.00
  -2   4   1  234.52    5.86
  -2   4   1  236.62    5.96
  -2   4   1  233.60    5.88
   1  -4  -1  462.74   11.49
   1  -4  -1  449.15   11.27
   1  -4  -1  484.90   11.24
  -1   4   1  456.05   11.24
  -1   4   1  445.38   11.43
  -1   4   1  469.93   11.24
   0  -4  -1    0.67    0.19
   0  -4  -1    0.54    0.37
   0  -4  -1    0.45    0.15
   0   4   1    0.66    0.16
   0   4   1    0.53    0.21
   0   4   1    0.03    0.32
  -1  -4  -1  106.12    3.13
  -1  -4  -1  105.65    2.76
  -1  -4  -1  107.12    2.73
   1   4   1  107.97    2.74
  -2  -4  -1  210.49    5.21
  -2  -4  -1  208.77    5.16
  -2  -4  -1  214.35    5.66
  -2  -4  -1  208.33    5.18
   2   4   1  205.34    5.62
   2   4   1  209.43    5.21
  -3  -4  -1   29.26    1.49
  -3  -4  -1   27.39    0.86
  -3  -4  -1   28.49    0.93
  -3  -4  -1   28.47    0.84
   3   4   1   27.96    0.92
   3   4   1   26.93    1.41
  -4  -4  -1   79.89    2.63
  -4  -4  -1   76.95    2.03
   4   4   1   76.38    2.13
   4   4   1   75.48    2.56
  -5  -4  -1  155.99    3.92
  -5  -4  -1  156.79    4.52
   5   4   1  153.92    4.44
   5   4   1  153.65    4.05
  -6  -4  -1    7.85    0.51
  -6  -4  -1    6.80    0.86
   6   4   1    7.61    0.73
   6   4   1    7.03    1.08
  -7  -4  -1   14.89    1.56
  -7  -4  -1   18.56    0.82
   7   4   1   19.62    1.11
   7   4   1   21.66    1.28
   7   4   1   19.55    1.09
   9  -5  -1   44.96    1.94
  -9   5   1   48.91    1.81
   8  -5  -1   37.70    1.44
   8  -5  -1   37.07    1.60
  -8   5   1   38.92    1.53
   7  -5  -1   11.13    0.88
   7  -5  -1   12.34    0.81
  -7   5   1   10.72    0.86
  -7   5   1   13.69    0.84
   6  -5  -1   77.83    2.27
   6  -5  -1   69.77    2.81
  -6   5   1   77.13    2.30
  -6   5   1   78.00    2.31
   5  -5  -1   58.45    1.83
   5  -5  -1   57.86    1.80
   5  -5  -1   58.00    1.51
  -5   5   1   57.97    1.79
  -5   5   1   56.64    1.83
   4  -5  -1    4.22    0.51
   4  -5  -1    3.55    0.36
  -4   5   1    3.07    0.43
  -4   5   1    3.38    0.45
  -4   5   1    3.00    0.39
   3  -5  -1  169.98    4.38
   3  -5  -1  166.52    4.43
   3  -5  -1  166.18    4.41
  -3   5   1  173.30    4.38
  -3   5   1  166.11    4.41
  -3   5   1  179.76    4.42
   2  -5  -1   58.11    1.65
   2  -5  -1   59.35    1.71
   2  -5  -1   60.34    1.88
  -2   5   1   56.54    1.83
  -2   5   1   55.20    1.66
  -2   5   1   56.99    1.65
   1  -5  -1   54.55    1.85
   1  -5  -1   52.96    1.50
   1  -5  -1   51.18    1.55
  -1   5   1   52.01    1.50
  -1   5   1   50.13    1.79
  -1   5   1   54.05    1.51
   0  -5  -1  308.11    7.62
   0  -5  -1  315.68    8.03
   0  -5  -1  311.69    7.66
   0   5   1  315.02    7.64
   0   5   1  304.20    7.60
   0   5   1  302.57    7.98
  -1  -5  -1  220.84    5.52
  -1  -5  -1  219.33    5.50
  -1  -5  -1  230.62    6.00
   1   5   1  221.15    5.52
   1   5   1  213.65    5.93
  -2  -5  -1    3.56    0.37
  -2  -5  -1    2.57    0.53
  -2  -5  -1    2.64    0.28
  -2  -5  -1    3.30    0.34
   2   5   1    2.28    0.54
   2   5   1    2.93    0.38
  -3  -5  -1  144.54    3.73
  -3  -5  -1  146.98    3.80
  -3  -5  -1  145.89    3.70
  -3  -5  -1  150.42    4.34
   3   5   1  146.64    4.32
   3   5   1  148.88    3.80
  -4  -5  -1  113.13    2.90
  -4  -5  -1  118.72    3.58
  -4  -5  -1  112.30    3.01
  -4  -5  -1  113.16    2.87
   4   5   1  112.80    3.49
   4   5   1  101.62    3.12
  -5  -5  -1    1.39    0.65
  -5  -5  -1    2.62    0.31
  -5  -5  -1    2.30    0.27
   5   5   1    2.19    0.60
   5   5   1    2.95    0.42
  -6  -5  -1   79.94    2.16
  -6  -5  -1   81.12    2.15
  -6  -5  -1   80.21    2.96
   6   5   1   79.70    2.77
   6   5   1   75.83    2.37
  -7  -5  -1   39.49    2.22
   7   5   1   42.91    1.63
   7   5   1   44.50    1.97
   7   5   1   43.49    1.65
   9  -6  -1    0.63    0.56
  -9   6   1    0.04    0.46
   8  -6  -1   46.50    1.74
   8  -6  -1   47.64    1.89
  -8   6   1   53.96    1.85
   7  -6  -1   95.20    2.82
   7  -6  -1   93.14    2.72
  -7   6   1   87.01    2.73
  -7   6   1   88.56    2.74
   6  -6  -1    6.19    0.72
   6  -6  -1    5.44    0.72
  -6   6   1    5.43    0.74
  -6   6   1    7.04    0.67
   5  -6  -1  161.34    4.03
   5  -6  -1  157.07    4.27
   5  -6  -1  160.80    4.28
  -5   6   1  158.07    4.28
  -5   6   1  153.91    4.02
  -5   6   1  164.02    4.26
   4  -6  -1  270.25    6.87
   4  -6  -1  273.77    6.98
   4  -6  -1  278.89    6.96
  -4   6   1  285.78    6.95
  -4   6   1  267.13    6.88
  -4   6   1  267.03    6.96
   3  -6  -1    0.53    0.35
   3  -6  -1    0.56    0.26
   3  -6  -1    0.45    0.30
  -3   6   1    0.45    0.34
  -3   6   1    0.13    0.26
   2  -6  -1  105.62    2.79
   2  -6  -1  106.84    3.07
   2  -6  -1  100.13    2.84
  -2   6   1  101.77    2.79
  -2   6   1  102.04    3.02
  -2   6   1  104.21    2.79
   1  -6  -1  238.04    6.10
   1  -6  -1  251.27    6.46
   1  -6  -1  236.85    6.03
  -1   6   1  236.24    6.37
  -1   6   1  236.30    6.03
  -1   6   1  246.55    6.06
   0  -6  -1   77.19    2.07
   0  -6  -1   72.98    2.84
   0  -6  -1   77.44    2.13
   0   6   1   74.75    2.09
   0   6   1   75.16    2.53
   0   6   1   74.09    2.03
  -1  -6  -1   98.82    3.13
  -1  -6  -1   96.15    2.61
  -1  -6  -1   97.94    2.58
   1   6   1   97.84    2.61
   1   6   1   93.54    3.09
  -2  -6  -1  179.79    4.62
  -2  -6  -1  180.80    5.20
  -2  -6  -1  182.49    4.56
  -2  -6  -1  186.77    4.67
   2   6   1  185.54    4.65
   2   6   1  176.12    5.17
  -3  -6  -1    6.72    1.14
  -3  -6  -1    6.21    0.39
  -3  -6  -1    6.71    0.48
  -3  -6  -1    5.78    0.49
   3   6   1    4.73    0.72
   3   6   1    5.47    0.65
  -4  -6  -1    7.09    0.55
  -4  -6  -1    5.79    0.85
  -4  -6  -1    6.87    0.43
  -4  -6  -1    6.84    0.52
   4   6   1    7.45    0.62
   4   6   1    6.40    1.09
  -5  -6  -1   18.69    0.77
  -5  -6  -1   19.87    0.81
  -5  -6  -1   18.45    1.62
   5   6   1   20.29    1.45
   5   6   1   19.75    1.00
  -6  -6  -1    3.02    0.35
  -6  -6  -1    1.49    1.39
   6   6   1    3.24    0.70
   6   6   1    3.46    0.55
   9  -7  -1   30.86    1.68
  -9   7   1   31.86    1.56
   8  -7  -1    3.32    0.61
  -8   7   1    2.59    0.55
   7  -7  -1   23.66    1.23
   7  -7  -1   22.56    1.17
  -7   7   1   21.52    1.14
  -7   7   1   23.61    1.20
   6  -7  -1  117.79    3.01
   6  -7  -1  121.36    3.36
   6  -7  -1  116.89    3.38
  -6   7   1  114.03    3.35
  -6   7   1  118.66    3.35
  -6   7   1  114.47    2.98
   5  -7  -1   77.72    2.14
   5  -7  -1   70.72    2.36
   5  -7  -1   75.57    2.34
  -5   7   1   79.60    2.32
  -5   7   1   75.52    2.15
  -5   7   1   74.66    2.38
   4  -7  -1   26.61    1.10
   4  -7  -1   26.83    1.17
   4  -7  -1   26.92    1.09
  -4   7   1   26.49    1.08
  -4   7   1   26.24    1.12
  -4   7   1   25.05    1.14
   3  -7  -1  202.01    5.31
   3  -7  -1  199.25    5.13
   3  -7  -1  199.21    5.20
  -3   7   1  192.97    5.28
  -3   7   1  201.64    5.14
  -3   7   1  194.22    5.13
   2  -7  -1  105.42    2.95
   2  -7  -1  108.47    3.22
   2  -7  -1  104.84    2.86
  -2   7   1  103.62    2.86
  -2   7   1  104.34    2.88
  -2   7   1  103.38    3.17
   1  -7  -1   19.17    1.26
   1  -7  -1   17.28    0.76
   1  -7  -1   16.83    0.96
  -1   7   1   17.92    1.24
  -1   7   1   17.88    0.75
  -1   7   1   18.39    0.96
   0  -7  -1  306.51    8.07
   0  -7  -1  302.49    7.57
   0  -7  -1  297.53    7.50
   0   7   1  299.81    7.47
   0   7   1  296.71    8.00
   0   7   1  304.69    7.55
  -1  -7  -1  122.06    3.19
  -1  -7  -1  122.47    3.80
  -1  -7  -1  123.66    3.24
   1   7   1  116.17    3.37
   1   7   1  117.93    3.76
  -2  -7  -1    1.72    0.61
  -2  -7  -1    1.82    0.33
  -2  -7  -1    1.72    0.29
  -2  -7  -1    1.67    0.24
   2   7   1    2.24    0.36
   2   7   1    1.37    0.65
  -3  -7  -1  171.06    4.32
  -3  -7  -1  169.77    4.37
  -3  -7  -1  166.68    4.23
  -3  -7  -1  166.64    5.01
   3   7   1  165.40    5.00
   3   7   1  163.47    4.38
  -4  -7  -1   78.48    2.20
  -4  -7  -1   80.89    2.12
  -4  -7  -1   79.91    2.29
  -4  -7  -1   76.52    2.98
   4   7   1   78.33    2.89
   4   7   1   76.99    2.32
  -5  -7  -1    4.83    0.62
  -5  -7  -1    5.39    0.48
   5   7   1    6.98    1.25
   5   7   1    5.37    0.85
   6   7   1   61.37    2.56
   6   7   1   57.41    2.05
   8  -8  -1   44.10    1.87
  -8   8   1   43.70    1.80
   7  -8  -1   47.71    1.86
  -7   8   1   48.71    1.84
   6  -8  -1    1.74    0.49
   6  -8  -1    2.29    0.29
   6  -8  -1    2.30    0.49
  -6   8   1    2.12    0.46
  -6   8   1    2.93    0.50
  -6   8   1    2.26    0.31
   5  -8  -1   86.69    2.67
   5  -8  -1   88.50    2.52
   5  -8  -1   88.98    2.65
  -5   8   1   91.79    2.65
  -5   8   1   86.08    2.55
  -5   8   1   84.74    2.64
   4  -8  -1  159.09    4.33
   4  -8  -1  147.82    4.43
   4  -8  -1  162.15    4.32
  -4   8   1  158.68    4.25
  -4   8   1  158.85    4.32
  -4   8   1  158.44    4.26
   3  -8  -1   10.89    0.95
   3  -8  -1    9.55    0.70
   3  -8  -1    9.15    0.85
  -3   8   1    9.88    0.97
  -3   8   1    9.61    0.72
  -3   8   1    8.93    0.72
   2  -8  -1   80.90    2.34
   2  -8  -1   80.63    2.45
   2  -8  -1   82.80    2.74
  -2   8   1   79.62    2.33
  -2   8   1   80.30    2.71
  -2   8   1   83.72    2.38
   1  -8  -1  143.12    3.85
   1  -8  -1  140.91    3.74
   1  -8  -1  146.40    4.29
  -1   8   1  141.54    3.78
  -1   8   1  139.08    3.71
  -1   8   1  136.50    4.20
   0  -8  -1    0.44    0.36
   0  -8  -1    0.89    0.56
   0  -8  -1    0.91    0.26
   0   8   1    1.18    0.34
   0   8   1    0.62    0.64
  -1  -8  -1   78.93    2.88
  -1  -8  -1   77.49    2.33
  -1  -8  -1   77.92    2.22
   1   8   1   77.85    2.95
   1   8   1   77.69    2.27
  -2  -8  -1   77.39    2.12
  -2  -8  -1   76.36    2.21
  -2  -8  -1   77.03    2.92
   2   8   1   78.32    2.29
   2   8   1   75.50    2.85
  -3  -8  -1    6.82    1.01
  -3  -8  -1    7.94    0.60
  -3  -8  -1    8.50    0.50
  -3  -8  -1    9.27    0.73
   3   8   1    5.50    0.85
   3   8   1    7.31    0.76
  -4  -8  -1   65.07    1.96
  -4  -8  -1   65.38    1.84
  -4  -8  -1   67.11    2.04
   4   8   1   66.03    2.12
   4   8   1   66.09    2.71
   5   8   1   63.87    2.72
   5   8   1   60.03    2.08
   8  -9  -1   13.38    1.25
  -8   9   1   15.13    1.23
   7  -9  -1    5.61    0.44
   7  -9  -1    4.24    0.62
  -7   9   1    4.82    0.63
  -7   9   1    5.43    0.43
   6  -9  -1  110.88    3.05
   6  -9  -1  110.95    3.32
  -6   9   1  111.77    3.07
  -6   9   1  111.47    3.31
   5  -9  -1   41.20    1.58
   5  -9  -1   42.50    1.70
   5  -9  -1   41.67    1.54
  -5   9   1   40.92    1.58
  -5   9   1   41.22    1.57
  -5   9   1   42.35    1.59
   4  -9  -1   23.16    1.23
   4  -9  -1   22.87    1.09
   4  -9  -1   22.91    1.19
  -4   9   1   21.86    1.08
  -4   9   1   21.71    1.23
  -4   9   1   22.51    1.09
   3  -9  -1  132.86    3.76
   3  -9  -1  130.68    3.92
   3  -9  -1  130.74    3.63
  -3   9   1  137.95    3.68
  -3   9   1  129.62    3.63
  -3   9   1  131.31    3.91
   2  -9  -1   65.22    2.10
   2  -9  -1   66.09    2.40
  -2   9   1   63.26    1.99
  -2   9   1   54.19    2.35
  -2   9   1   61.50    2.40
   1  -9  -1   18.22    0.84
   1  -9  -1   17.42    1.40
   1  -9  -1   17.37    1.04
  -1   9   1   18.09    0.82
  -1   9   1   17.47    0.94
  -1   9   1   15.88    1.35
   0  -9  -1  167.11    5.03
   0  -9  -1  163.91    4.45
   0  -9  -1  162.24    4.34
   0   9   1  163.43    4.94
   0   9   1  168.86    4.45
  -1  -9  -1   51.55    1.65
  -1  -9  -1   53.91    1.76
  -1  -9  -1   48.97    2.37
   1   9   1   50.75    2.31
   1   9   1   52.04    1.74
  -2  -9  -1   19.53    0.93
  -2  -9  -1   19.76    0.79
  -2  -9  -1   17.78    2.03
  -2  -9  -1   18.11    1.03
   2   9   1   19.81    1.06
   2   9   1   19.06    1.59
  -3  -9  -1   74.87    2.24
  -3  -9  -1   75.94    2.24
  -3  -9  -1   73.77    2.07
   3   9   1   73.90    2.96
   3   9   1   72.79    2.34
  -4  -9  -1   26.69    0.98
  -4  -9  -1   27.22    1.17
   4   9   1   29.82    1.96
   4   9   1   26.21    1.32
   7 -10  -1   60.17    2.25
  -7  10   1   60.99    1.83
  -7  10   1   59.22    2.21
   6 -10  -1   -0.24    0.41
   6 -10  -1    0.02    0.33
  -6  10   1    0.12    0.38
  -6  10   1    0.50    0.43
   5 -10  -1   77.06    2.50
   5 -10  -1   77.74    2.49
  -5  10   1   79.58    2.53
  -5  10   1   77.66    2.50
   4 -10  -1   37.59    1.64
   4 -10  -1   35.65    1.44
   4 -10  -1   38.78    1.66
  -4  10   1   37.36    1.80
  -4  10   1   34.51    1.49
  -4  10   1   37.00    1.46
   3 -10  -1   -0.38    0.51
   3 -10  -1    0.19    0.33
   3 -10  -1    0.49    0.48
  -3  10   1    0.83    0.36
  -3  10   1    0.06    0.42
  -3  10   1    0.97    0.51
   2 -10  -1  152.98    4.33
   2 -10  -1  161.80    4.73
   2 -10  -1  150.70    4.18
  -2  10   1  153.00    4.15
  -2  10   1  157.49    4.26
  -2  10   1  154.05    4.64
   1 -10  -1  120.03    3.34
   1 -10  -1  123.62    3.98
   1 -10  -1  121.65    3.49
  -1  10   1  118.75    3.90
  -1  10   1  120.25    3.29
  -1  10   1  118.19    3.41
   0 -10  -1    1.27    0.70
   0 -10  -1    2.68    0.56
   0 -10  -1    2.36    0.38
   0  10   1    3.09    0.52
  -1 -10  -1   43.22    1.48
  -1 -10  -1   42.49    1.68
   1  10   1   44.89    2.17
   1  10   1   41.03    1.61
  -2 -10  -1   57.10    1.85
  -2 -10  -1   58.04    2.00
  -2 -10  -1   58.53    1.75
   2  10   1   57.05    2.04
   2  10   1   59.99    2.65
  -3 -10  -1    1.00    0.32
  -3 -10  -1    0.39    0.36
   3  10   1    0.38    0.58
   3  10   1    1.13    0.71
   6 -11  -1   88.96    2.74
   6 -11  -1   82.18    2.83
  -6  11   1   88.28    2.73
  -6  11   1   87.55    2.83
   5 -11  -1   10.56    1.02
   5 -11  -1   10.82    0.95
  -5  11   1   11.85    0.99
  -5  11   1   11.37    1.10
   4 -11  -1   27.90    1.54
   4 -11  -1   28.06    1.29
  -4  11   1   27.70    1.55
  -4  11   1   27.76    1.29
   3 -11  -1  139.09    4.26
   3 -11  -1  134.80    3.84
   3 -11  -1  138.12    4.17
  -3  11   1  134.93    3.81
  -3  11   1  136.30    4.27
  -3  11   1  137.59    4.23
   2 -11  -1   43.58    1.92
   2 -11  -1   45.81    1.61
   2 -11  -1   40.96    2.12
  -2  11   1   46.41    1.58
  -2  11   1   43.95    1.76
  -2  11   1   45.39    2.11
   1 -11  -1   39.39    1.74
   1 -11  -1   37.54    1.40
  -1  11   1   39.46    2.03
  -1  11   1   34.97    1.58
   0 -11  -1   91.50    2.67
   0 -11  -1   90.79    2.86
   0  11   1   92.77    3.39
   0  11   1   86.11    2.81
  -1 -11  -1   62.01    2.18
  -1 -11  -1   64.08    2.03
   1  11   1   66.73    2.86
   1  11   1   57.31    2.17
   1  11   1   65.19    2.75
  -2 -11  -1    2.90    0.47
  -2 -11  -1    1.57    0.44
   2  11   1    2.25    0.86
   5 -12  -1   48.52    2.09
   5 -12  -1   53.27    2.01
  -5  12   1   53.13    2.13
  -5  12   1   53.45    2.01
   4 -12  -1   54.70    2.01
   4 -12  -1   54.20    3.04
  -4  12   1   58.00    2.34
  -4  12   1   55.00    2.00
   3 -12  -1    2.48    0.48
  -3  12   1    2.44    0.46
  -3  12   1    2.45    0.72
   2 -12  -1   56.02    1.91
  -2  12   1   54.74    2.47
  -2  12   1   54.22    1.85
   1 -12  -1   52.03    1.82
  -1  12   1   52.62    2.55
   0 -12  -1   -0.82    0.69
   0 -12  -1    1.43    0.42
   0  12   1    0.32    0.77
   0  13  -2   84.52    3.49
   0 -13   2   88.27    2.74
   0 -13   2   89.12    2.75
  -1  13  -2   24.22    1.94
  -1  13  -2   24.94    1.09
   1 -13   2   23.63    1.20
   1 -13   2   21.01    1.47
  -2  13  -2   14.12    1.62
  -2  13  -2   15.79    0.93
   2 -13   2   16.00    1.00
  -3  13  -2   49.19    2.39
  -3  13  -2   47.47    1.77
   3 -13   2   50.27    1.86
  -4  13  -2   27.21    1.85
  -4  13  -2   26.30    1.37
   4 -13   2   28.28    1.39
  -5  13  -2    9.84    1.46
  -5  13  -2    8.80    1.07
   5 -13   2    7.70    1.29
   2  12  -2   58.32    2.82
  -2 -12   2   60.00    1.72
  -2 -12   2   60.57    2.04
   1  12  -2   64.81    2.88
  -1 -12   2   63.73    2.12
  -1 -12   2   64.98    2.08
   0  12  -2    2.33    0.37
   0  12  -2    2.40    0.77
   0 -12   2    1.89    0.58
   0 -12   2    1.94    0.42
  -1  12  -2   70.39    2.06
  -1  12  -2   65.95    2.79
   1 -12   2   67.39    2.19
   1 -12   2   66.54    2.27
  -2  12  -2   81.03    2.44
  -2  12  -2   83.81    3.11
   2 -12   2   80.61    2.66
   2 -12   2   81.77    2.53
   2 -12   2   80.01    3.04
  -3  12  -2    0.69    0.66
  -3  12  -2   -0.03    0.37
   3 -12   2   -0.14    0.51
   3 -12   2   -0.76    0.58
   3 -12   2    0.14    0.35
  -4  12  -2   93.87    2.85
  -4  12  -2   91.53    3.21
   4 -12   2   89.01    2.84
   4 -12   2   93.23    3.02
  -5  12  -2  106.43    3.25
  -5  12  -2  105.92    3.47
   5 -12   2  107.05    3.27
   5 -12   2  106.14    3.27
  -6  12  -2    7.03    0.91
  -6  12  -2    9.31    1.10
   6 -12   2    7.39    0.97
   6 -12   2    6.89    1.05
   3  11  -2   53.01    2.59
  -3 -11   2   50.84    1.82
  -3 -11   2   51.95    1.48
   2  11  -2   22.24    1.75
  -2 -11   2   23.32    1.00
  -2 -11   2   23.38    1.10
   1  11  -2   29.85    1.89
   1  11  -2   30.01    1.40
  -1 -11   2   31.48    1.25
  -1 -11   2   28.92    1.22
   0  11  -2  136.02    3.88
   0  11  -2  137.85    4.43
   0  11  -2  140.69    3.63
   0 -11   2  138.31    3.81
   0 -11   2  134.53    4.35
   0 -11   2  136.82    3.77
  -1  11  -2   48.32    1.64
  -1  11  -2   51.25    2.33
  -1  11  -2   50.04    1.81
   1 -11   2   53.17    1.82
   1 -11   2   48.86    1.69
   1 -11   2   50.02    2.18
  -2  11  -2   16.88    1.03
  -2  11  -2   16.08    1.45
  -2  11  -2   15.82    0.87
   2 -11   2   15.82    1.09
   2 -11   2   14.84    0.88
   2 -11   2   15.83    1.22
  -3  11  -2  158.81    4.77
  -3  11  -2  160.37    4.33
  -3  11  -2  154.90    4.39
   3 -11   2  159.96    4.37
   3 -11   2  159.29    4.45
   3 -11   2  160.89    4.61
  -4  11  -2   33.76    1.42
  -4  11  -2   31.44    1.62
  -4  11  -2   31.41    1.74
   4 -11   2   33.99    1.49
   4 -11   2   34.33    1.40
   4 -11   2   32.83    1.56
  -5  11  -2   38.58    1.82
  -5  11  -2   40.48    1.64
   5 -11   2   39.51    1.59
   5 -11   2   40.68    1.58
  -6  11  -2  100.20    3.12
  -6  11  -2   99.69    3.10
   6 -11   2  100.59    2.94
   6 -11   2   97.61    3.09
  -7  11  -2   39.34    1.82
  -7  11  -2   43.05    1.90
   7 -11   2   39.79    1.82
   4  10  -2   33.00    2.05
  -4 -10   2   32.52    1.36
   3  10  -2    5.63    0.78
   3  10  -2    4.30    0.90
   3  10  -2    6.21    0.94
  -3 -10   2    5.51    0.63
  -3 -10   2    4.41    0.49
  -3 -10   2    4.67    0.34
   2  10  -2   99.62    3.52
   2  10  -2   97.62    2.90
  -2 -10   2   97.72    2.83
  -2 -10   2   95.00    3.39
  -2 -10   2   97.95    2.64
   1  10  -2   90.20    2.70
   1  10  -2   89.79    3.26
  -1 -10   2   91.22    3.18
  -1 -10   2   88.62    2.63
  -1 -10   2   91.59    2.54
   0  10  -2   41.09    2.05
   0  10  -2   40.54    1.30
   0  10  -2   39.83    1.50
   0 -10   2   42.10    1.45
   0 -10   2   41.15    1.44
   0 -10   2   40.41    1.88
  -1  10  -2  145.45    4.57
  -1  10  -2  151.35    3.97
  -1  10  -2  152.60    4.11
   1 -10   2  149.03    4.08
   1 -10   2  151.36    4.06
   1 -10   2  152.51    4.50
  -2  10  -2  134.36    3.66
  -2  10  -2  130.72    3.57
   2 -10   2  132.52    3.93
   2 -10   2  127.87    3.61
   2 -10   2  129.89    3.66
  -3  10  -2    0.80    0.57
  -3  10  -2    0.55    0.38
  -3  10  -2    0.65    0.37
   3 -10   2    0.92    0.43
   3 -10   2    0.42    0.43
   3 -10   2    0.86    0.34
  -4  10  -2  158.39    4.62
  -4  10  -2  158.56    4.38
  -4  10  -2  158.47    4.37
   4 -10   2  159.67    4.42
   4 -10   2  161.67    4.38
   4 -10   2  161.72    4.44
  -5  10  -2   55.88    2.09
  -5  10  -2   58.12    1.99
  -5  10  -2   54.19    1.92
   5 -10   2   55.92    1.94
   5 -10   2   53.37    2.00
   5 -10   2   55.60    1.86
  -6  10  -2    0.14    0.45
  -6  10  -2    0.52    0.47
   6 -10   2   -0.05    0.42
   6 -10   2    1.23    0.30
  -7  10  -2   22.19    1.10
  -7  10  -2   20.19    1.31
   7 -10   2   20.09    1.29
   8 -10   2   32.08    1.73
   5   9  -2   12.15    1.49
  -5  -9   2   10.98    0.86
   4   9  -2   81.70    2.64
   4   9  -2   88.13    3.22
  -4  -9   2   86.66    2.58
   3   9  -2  145.94    3.94
   3   9  -2  144.66    4.50
  -3  -9   2  137.54    3.53
  -3  -9   2  140.63    3.88
  -3  -9   2  142.73    4.42
   2   9  -2   35.67    1.36
   2   9  -2   36.28    1.91
  -2  -9   2   34.91    1.13
  -2  -9   2   36.36    1.80
  -2  -9   2   33.62    1.27
   1   9  -2   35.96    1.19
   1   9  -2   36.09    1.33
  -1  -9   2   32.98    1.29
  -1  -9   2   35.03    1.69
  -1  -9   2   34.58    1.19
   0   9  -2  265.62    6.80
   0   9  -2  264.02    6.64
   0  -9   2  268.10    7.22
   0  -9   2  262.83    6.72
   0  -9   2  268.81    6.77
  -1   9  -2   16.57    0.79
  -1   9  -2   18.01    0.90
  -1   9  -2   17.02    1.40
   1  -9   2   17.04    1.37
   1  -9   2   17.30    0.83
   1  -9   2   17.45    0.90
  -2   9  -2   23.05    1.00
  -2   9  -2   23.18    1.45
  -2   9  -2   24.69    1.06
   2  -9   2   22.67    0.98
   2  -9   2   23.47    1.22
   2  -9   2   21.86    1.06
  -3   9  -2  136.80    3.84
  -3   9  -2  142.22    4.16
  -3   9  -2  143.02    3.85
   3  -9   2  145.74    3.98
   3  -9   2  138.70    3.89
  -4   9  -2   15.72    0.90
  -4   9  -2   16.76    0.96
  -4   9  -2   15.79    1.17
   4  -9   2   14.80    0.85
   4  -9   2   15.05    0.95
   4  -9   2   15.06    0.88
  -5   9  -2   38.14    1.49
  -5   9  -2   39.59    1.65
  -5   9  -2   39.07    1.54
   5  -9   2   40.51    1.53
   5  -9   2   42.54    1.57
   5  -9   2   40.19    1.57
  -6   9  -2   57.37    1.91
  -6   9  -2   56.54    1.94
  -6   9  -2   55.29    1.99
   6  -9   2   54.04    1.97
   6  -9   2   56.50    1.97
  -7   9  -2    6.46    0.94
  -7   9  -2    7.94    0.69
  -7   9  -2    8.82    0.53
   7  -9   2    8.03    0.93
  -8   9  -2   41.54    1.83
   8  -9   2   41.41    1.83
   6   8  -2   11.07    1.40
   5   8  -2   86.23    3.08
   5   8  -2   79.96    2.58
  -5  -8   2   80.26    3.03
  -5  -8   2   83.45    2.52
   4   8  -2   66.14    2.59
   4   8  -2   62.33    2.05
  -4  -8   2   67.54    2.54
  -4  -8   2   61.54    2.00
   3   8  -2   21.89    1.02
   3   8  -2   23.19    1.58
  -3  -8   2   22.32    0.72
  -3  -8   2   22.33    0.66
  -3  -8   2   20.49    1.35
  -3  -8   2   23.43    1.46
   2   8  -2   50.00    3.27
   2   8  -2   58.57    1.82
  -2  -8   2   58.05    1.78
  -2  -8   2   58.66    2.23
  -2  -8   2   59.98    1.62
   1   8  -2  125.44    3.26
   1   8  -2  130.46    3.98
   1   8  -2  127.85    3.46
  -1  -8   2  130.72    3.88
  -1  -8   2  126.23    3.34
  -1  -8   2  129.10    3.44
   0   8  -2    5.92    1.06
   0   8  -2    4.93    0.57
   0   8  -2    4.68    0.44
   0  -8   2    5.41    0.54
   0  -8   2    5.06    0.83
   0  -8   2    4.62    0.46
  -1   8  -2  239.50    6.34
  -1   8  -2  234.49    5.95
  -1   8  -2  231.25    5.87
   1  -8   2  233.53    6.22
   1  -8   2  229.97    5.92
   1  -8   2  225.27    5.91
  -2   8  -2   73.89    2.19
  -2   8  -2   76.75    2.51
  -2   8  -2   75.70    2.16
   2  -8   2   75.83    2.21
   2  -8   2   74.52    2.16
   2  -8   2   69.67    2.61
  -3   8  -2    4.13    0.47
  -3   8  -2    4.49    0.58
  -3   8  -2    3.34    0.56
   3  -8   2    4.34    0.56
   3  -8   2    4.57    0.57
   3  -8   2    3.97    0.45
  -4   8  -2  154.96    4.28
  -4   8  -2  163.08    4.43
  -4   8  -2  158.53    4.31
   4  -8   2  158.98    4.30
   4  -8   2  165.05    4.34
   4  -8   2  162.58    4.27
  -5   8  -2  190.33    5.12
  -5   8  -2  194.41    5.09
  -5   8  -2  189.89    5.11
   5  -8   2  192.54    5.11
   5  -8   2  191.67    5.11
   5  -8   2  194.32    4.97
  -6   8  -2   12.59    0.88
  -6   8  -2   12.70    0.85
  -6   8  -2   13.63    0.96
   6  -8   2   13.40    0.96
   6  -8   2   12.46    0.89
  -7   8  -2   54.37    1.44
  -7   8  -2   55.90    1.95
  -7   8  -2   51.41    1.52
  -7   8  -2   48.65    1.84
   7  -8   2   52.15    1.93
  -8   8  -2   44.07    1.79
   8  -8   2   42.55    1.81
   7   7  -2   14.77    1.41
   6   7  -2   33.17    1.77
   6   7  -2   29.92    1.44
  -6  -7   2   27.31    1.79
   5   7  -2    4.33    0.75
   5   7  -2    6.30    0.74
  -5  -7   2    4.80    0.60
  -5  -7   2    4.15    0.73
   4   7  -2   66.45    2.02
   4   7  -2   66.16    2.50
  -4  -7   2   58.38    2.20
  -4  -7   2   67.90    2.43
   3   7  -2  193.66    5.46
   3   7  -2  189.12    4.95
  -3  -7   2  195.14    5.37
  -3  -7   2  185.81    4.64
  -3  -7   2  194.24    4.95
  -3  -7   2  184.12    4.66
   2   7  -2   34.11    1.23
   2   7  -2   41.27    1.80
  -2  -7   2   37.49    1.08
  -2  -7   2   34.23    1.21
   1   7  -2   39.52    1.12
   1   7  -2   37.68    1.33
   1   7  -2   40.58    1.78
  -1  -7   2   39.67    1.27
  -1  -7   2   39.31    1.61
  -1  -7   2   39.44    1.19
   0   7  -2  284.16    7.39
   0   7  -2  279.82    7.03
   0   7  -2  285.41    6.91
   0  -7   2  263.21    7.54
   0  -7   2  288.03    7.00
   0  -7   2  275.93    6.95
  -1   7  -2    5.78    0.52
  -1   7  -2    6.43    0.87
  -1   7  -2    5.54    0.50
   1  -7   2    5.10    0.47
   1  -7   2    5.93    0.66
   1  -7   2    6.67    0.53
  -2   7  -2  133.45    3.76
  -2   7  -2  131.88    3.52
   2  -7   2  132.19    3.54
   2  -7   2  131.43    3.52
   2  -7   2  137.89    3.67
  -3   7  -2  259.61    6.78
  -3   7  -2  265.16    6.80
  -3   7  -2  274.66    6.95
   3  -7   2  273.21    6.84
   3  -7   2  268.48    6.81
   3  -7   2  270.36    6.80
  -4   7  -2   29.44    1.11
  -4   7  -2   29.44    1.22
  -4   7  -2   27.78    1.14
   4  -7   2   29.35    1.15
   4  -7   2   28.03    1.12
   4  -7   2   28.11    1.02
  -5   7  -2   98.75    2.77
  -5   7  -2   90.90    2.97
  -5   7  -2  100.08    2.77
   5  -7   2   95.72    2.80
   5  -7   2  100.77    2.64
   5  -7   2   97.94    2.81
  -6   7  -2  122.21    3.51
  -6   7  -2  138.08    3.68
  -6   7  -2  132.76    3.72
  -6   7  -2  130.56    3.50
   6  -7   2  137.53    3.69
   6  -7   2  134.24    3.74
  -7   7  -2   10.50    0.82
  -7   7  -2   10.44    0.92
   7  -7   2   11.05    0.88
   7  -7   2   10.62    0.89
  -8   7  -2   19.62    1.19
   8  -7   2   17.89    1.17
  -9   7  -2   39.26    1.74
   9  -7   2   34.92    1.76
   7   6  -2   26.33    1.52
  -7  -6   2   21.06    1.61
   6   6  -2    1.21    0.57
   6   6  -2    1.24    0.47
  -6  -6   2    0.78    0.57
   5   6  -2   89.91    3.12
   5   6  -2   87.33    2.59
  -5  -6   2   88.55    2.89
   4   6  -2   53.48    2.11
   4   6  -2   50.89    1.65
  -4  -6   2   53.02    1.99
  -4  -6   2   50.32    1.63
   3   6  -2   15.63    1.24
   3   6  -2   14.19    0.72
  -3  -6   2   15.27    0.70
  -3  -6   2   14.66    1.04
   2   6  -2  140.47    4.02
   2   6  -2  137.05    3.57
  -2  -6   2  134.78    3.56
  -2  -6   2  132.04    3.38
   1   6  -2   60.79    1.60
   1   6  -2   60.24    1.74
   1   6  -2   61.22    2.11
  -1  -6   2   59.00    1.63
  -1  -6   2   61.51    1.73
  -1  -6   2   61.81    2.04
   0   6  -2   28.04    0.89
   0   6  -2   27.61    0.96
   0   6  -2   28.89    1.27
   0  -6   2   28.42    1.19
   0  -6   2   28.39    0.92
   0  -6   2   27.23    0.93
  -1   6  -2  394.84    9.63
  -1   6  -2  388.98    9.85
  -1   6  -2  380.61    9.59
   1  -6   2  393.85    9.63
   1  -6   2  395.24    9.80
   1  -6   2  391.82    9.61
  -2   6  -2  214.81    5.62
  -2   6  -2  210.78    5.46
  -2   6  -2  223.89    5.48
   2  -6   2  213.62    5.47
   2  -6   2  217.74    5.55
   2  -6   2  218.78    5.48
  -3   6  -2   34.92    1.20
  -3   6  -2   35.72    1.26
  -3   6  -2   35.10    1.18
   3  -6   2   34.67    1.19
   3  -6   2   35.00    1.15
   3  -6   2   34.00    1.17
  -4   6  -2  201.31    5.24
  -4   6  -2  201.33    5.20
  -4   6  -2  206.98    5.21
   4  -6   2  201.13    5.12
   4  -6   2  201.06    5.22
   4  -6   2  204.00    5.22
  -5   6  -2   67.24    2.12
  -5   6  -2   71.08    2.08
  -5   6  -2   72.03    2.01
   5  -6   2   68.25    2.11
   5  -6   2   69.77    2.09
  -6   6  -2    2.54    0.31
  -6   6  -2    2.03    0.31
  -6   6  -2    1.73    0.41
  -6   6  -2    2.20    0.39
   6  -6   2    3.44    0.58
   6  -6   2    2.33    0.41
  -7   6  -2  101.33    2.90
  -7   6  -2   99.45    2.94
   7  -6   2   95.19    2.96
   7  -6   2   99.96    2.89
  -8   6  -2   33.25    1.38
  -8   6  -2   35.59    1.49
   8  -6   2   33.41    1.53
  -9   6  -2    0.13    0.51
   9  -6   2    0.62    0.59
   8   5  -2    0.82    0.51
   8   5  -2   -1.03    0.50
   7   5  -2   34.21    1.53
   7   5  -2   35.32    1.62
  -7  -5   2   31.63    1.66
   6   5  -2  101.74    3.21
   6   5  -2  101.31    2.94
  -6  -5   2   99.71    3.10
   5   5  -2    0.88    0.50
   5   5  -2    0.56    0.34
  -5  -5   2    0.39    0.39
   4   5  -2  140.23    4.09
   4   5  -2  140.98    3.72
  -4  -5   2  139.28    3.71
  -4  -5   2  139.19    4.02
   3   5  -2  229.87    5.79
   3   5  -2  227.45    6.15
  -3  -5   2  224.84    5.78
  -3  -5   2  233.62    6.06
   2   5  -2   12.27    0.99
   2   5  -2   11.03    0.55
  -2  -5   2   10.84    0.53
  -2  -5   2   11.64    0.78
  -2  -5   2   11.62    0.39
   1   5  -2  496.76   12.19
   1   5  -2  518.68   12.49
   1   5  -2  498.61   12.07
  -1  -5   2  505.74   12.43
  -1  -5   2  480.76   12.08
  -1  -5   2  498.54   12.20
   0   5  -2  403.57   10.12
   0   5  -2  401.69    9.84
   0   5  -2  406.98    9.91
   0  -5   2  403.34    9.90
   0  -5   2  415.01   10.10
   0  -5   2  396.99    9.85
  -1   5  -2   87.02    2.34
  -1   5  -2   88.79    2.36
  -1   5  -2   90.83    2.52
   1  -5   2   90.30    2.48
   1  -5   2   87.78    2.34
   1  -5   2   88.23    2.36
  -2   5  -2   70.92    1.96
  -2   5  -2   72.77    2.03
  -2   5  -2   71.83    1.95
   2  -5   2   71.11    1.98
   2  -5   2   68.97    1.95
   2  -5   2   70.12    1.95
  -3   5  -2  254.36    6.30
  -3   5  -2  232.04    6.25
  -3   5  -2  259.77    6.29
   3  -5   2  266.41    6.36
   3  -5   2  255.66    6.26
   3  -5   2  234.47    6.26
  -4   5  -2    5.81    0.57
  -4   5  -2    5.41    0.47
  -4   5  -2    5.96    0.47
   4  -5   2    4.76    0.60
   4  -5   2    5.61    0.53
  -5   5  -2   49.85    1.41
  -5   5  -2   50.50    1.65
  -5   5  -2   50.05    1.59
  -5   5  -2   53.46    1.50
   5  -5   2   52.86    1.63
   5  -5   2   51.77    1.65
  -6   5  -2  148.47    4.12
  -6   5  -2  156.41    3.91
  -6   5  -2  155.10    4.18
  -6   5  -2  159.60    3.88
   6  -5   2  156.99    4.14
   6  -5   2  153.88    4.18
  -7   5  -2   20.03    1.05
  -7   5  -2   19.72    0.96
   7  -5   2   20.41    1.07
   7  -5   2   20.81    0.98
  -8   5  -2   23.98    1.20
   8  -5   2   24.73    1.26
   8  -5   2   21.98    1.10
  -9   5  -2   23.30    1.31
   9  -5   2   23.94    1.39
   8   4  -2   44.95    1.71
   8   4  -2   42.04    1.71
  -8  -4   2   40.68    1.82
   7   4  -2   18.06    1.08
   7   4  -2   16.72    1.12
  -7  -4   2   16.66    1.15
   6   4  -2   31.95    1.47
   6   4  -2   31.46    1.25
  -6  -4   2   30.56    1.34
   5   4  -2  123.05    3.39
   5   4  -2  124.28    3.65
  -5  -4   2  126.92    3.54
   4   4  -2   48.18    1.83
  -4  -4   2   48.62    1.67
  -4  -4   2   46.98    1.48
   3   4  -2    5.59    0.81
   3   4  -2    6.01    0.44
  -3  -4   2    6.17    0.62
  -3  -4   2    6.25    0.43
   2   4  -2  352.16    8.68
   2   4  -2  356.12    8.93
  -2  -4   2  354.59    8.67
  -2  -4   2  348.96    8.87
   1   4  -2   40.89    1.09
   1   4  -2   40.65    1.20
  -1  -4   2   42.87    1.10
  -1  -4   2   43.40    1.21
  -1  -4   2   42.16    1.37
   0   4  -2  256.10    6.36
   0   4  -2  252.79    6.16
   0   4  -2  251.03    6.21
   0  -4   2  247.23    6.16
   0  -4   2  253.82    6.35
   0  -4   2  251.44    6.21
  -1   4  -2  191.36    4.69
  -1   4  -2  191.03    4.79
  -1   4  -2  191.82    4.70
   1  -4   2  188.13    4.77
   1  -4   2  181.72    4.69
   1  -4   2  185.86    4.69
  -2   4  -2  493.01   12.33
  -2   4  -2  498.16   12.32
  -2   4  -2  518.04   12.36
   2  -4   2  510.11   12.33
   2  -4   2  497.48   12.34
   2  -4   2  523.12   12.33
  -3   4  -2    0.15    0.18
   3  -4   2    0.15    0.17
   3  -4   2    0.38    0.21
  -4   4  -2  179.36    4.65
  -4   4  -2  185.32    4.79
  -4   4  -2  189.90    4.76
  -4   4  -2  189.27    4.70
   4  -4   2  189.77    4.78
   4  -4   2  191.03    4.79
  -5   4  -2   51.48    1.49
  -5   4  -2   55.15    1.70
  -5   4  -2   54.69    1.70
  -5   4  -2   56.96    1.54
   5  -4   2   56.15    1.66
   5  -4   2   55.54    1.70
  -6   4  -2   -0.12    0.26
  -6   4  -2    0.29    0.20
  -6   4  -2    0.65    0.19
  -6   4  -2    0.55    0.34
   6  -4   2   -0.10    0.25
   6  -4   2    0.46    0.32
  -7   4  -2   68.08    1.75
  -7   4  -2   67.41    2.10
   7  -4   2   68.24    2.05
   7  -4   2   62.54    2.47
  -8   4  -2   30.76    1.32
   8  -4   2   28.94    1.36
   8  -4   2   28.17    1.20
  -9   4  -2    0.87    0.51
   9  -4   2    0.01    0.55
   8   3  -2    0.85    0.37
   8   3  -2   -0.13    0.44
   7   3  -2   46.82    1.70
   7   3  -2   47.25    1.70
   7   3  -2   45.94    1.69
   7   3  -2   48.31    1.26
  -7  -3   2   47.06    1.28
  -7  -3   2   45.52    1.65
   6   3  -2   85.76    2.57
   6   3  -2   90.36    2.69
   6   3  -2   89.11    2.23
  -6  -3   2   88.38    2.25
  -6  -3   2   88.27    2.58
   5   3  -2    2.64    0.37
   5   3  -2    3.67    0.20
   5   3  -2    2.58    0.50
  -5  -3   2    3.17    0.27
  -5  -3   2    2.78    0.39
   4   3  -2  157.43    4.29
   4   3  -2  158.04    4.09
  -4  -3   2  158.04    4.18
   3   3  -2  234.06    5.81
   3   3  -2  233.33    6.01
  -3  -3   2  233.95    5.92
  -3  -3   2  227.26    5.80
   2   3  -2   40.79    1.38
  -2  -3   2   39.52    1.19
  -2  -3   2   43.74    1.54
   1   3  -2  290.81    7.28
   1   3  -2  296.65    7.40
  -1  -3   2  298.72    7.39
  -1  -3   2  303.03    7.28
  -1  -3   2  300.17    7.23
   0   3  -2  216.46    5.39
   0   3  -2  226.74    5.44
   0   3  -2  221.92    5.52
   0  -3   2  217.01    5.39
   0  -3   2  215.66    5.51
   0  -3   2  230.33    5.44
  -1   3  -2  139.10    3.43
  -1   3  -2  137.37    3.43
  -1   3  -2  141.97    3.49
   1  -3   2  134.36    3.42
   1  -3   2  134.19    3.42
   1  -3   2  136.15    3.47
  -2   3  -2  241.74    5.90
  -2   3  -2  242.21    5.88
  -2   3  -2  241.91    5.90
   2  -3   2  232.57    5.89
   2  -3   2  241.43    5.89
   2  -3   2  234.22    5.89
  -3   3  -2  305.10    7.60
  -3   3  -2  307.56    7.56
  -3   3  -2  312.58    7.58
   3  -3   2  314.93    7.60
   3  -3   2  300.91    7.58
  -4   3  -2    4.78    0.45
  -4   3  -2    4.81    0.34
  -4   3  -2    4.97    0.33
  -4   3  -2    4.72    0.39
   4  -3   2    4.78    0.45
   4  -3   2    5.17    0.41
  -5   3  -2  108.53    2.94
  -5   3  -2  106.22    2.91
  -5   3  -2  110.16    2.82
  -5   3  -2  108.41    2.82
   5  -3   2  111.36    2.97
  -6   3  -2  142.37    3.79
  -6   3  -2  140.39    3.61
  -6   3  -2  139.00    3.65
   6  -3   2  143.01    3.83
   6  -3   2  144.77    3.75
  -7   3  -2   11.21    0.68
  -7   3  -2   10.05    1.20
  -7   3  -2   12.14    0.53
   7  -3   2   12.34    0.72
   7  -3   2   10.88    0.84
  -8   3  -2   52.97    1.77
   8  -3   2   48.60    1.66
   8  -3   2   48.69    1.83
  -9   3  -2   43.14    1.69
   9  -3   2   42.67    1.81
   9   2  -2    6.96    1.01
   8   2  -2   54.39    1.66
   8   2  -2   52.10    1.91
   8   2  -2   53.51    1.47
   8   2  -2   50.53    1.93
  -8  -2   2   51.77    1.65
  -8  -2   2   52.94    1.60
   7   2  -2   25.39    0.79
   7   2  -2   26.41    1.19
   7   2  -2   26.51    1.08
   7   2  -2   25.11    1.17
  -7  -2   2   23.72    1.00
  -7  -2   2   25.44    0.87
   6   2  -2   23.05    0.88
   6   2  -2   20.75    1.01
   6   2  -2   21.03    1.00
   6   2  -2   24.12    1.06
  -6  -2   2   23.00    0.77
  -6  -2   2   22.28    0.91
   5   2  -2  180.52    4.76
   5   2  -2  184.79    4.83
   5   2  -2  186.22    4.51
  -5  -2   2  188.13    4.73
  -5  -2   2  179.16    4.54
   4   2  -2   35.48    1.13
   4   2  -2   33.76    0.89
   4   2  -2   33.38    1.25
  -4  -2   2   34.33    1.32
  -4  -2   2   31.60    0.92
   3   2  -2   66.17    1.92
   3   2  -2   65.06    1.61
   3   2  -2   63.50    1.80
  -3  -2   2   65.91    1.83
   2   2  -2  422.17   10.41
   2   2  -2  440.55   10.51
  -2  -2   2  408.20   10.37
  -2  -2   2  429.11   10.35
   1   2  -2   86.44    2.16
   1   2  -2   92.65    2.32
  -1  -2   2   88.35    2.16
  -1  -2   2   87.28    2.31
  -1  -2   2   90.78    2.26
   0   2  -2   42.09    1.12
   0   2  -2   41.68    1.10
   0   2  -2   43.57    1.18
   0  -2   2   42.79    1.12
   0  -2   2   42.69    1.10
   0  -2   2   42.65    1.18
  -1   2  -2  249.92    6.19
  -1   2  -2  260.83    6.18
  -1   2  -2  246.42    6.23
   1  -2   2  247.53    6.19
   1  -2   2  262.73    6.18
  -2   2  -2   59.93    1.53
  -2   2  -2   58.07    1.56
  -2   2  -2   58.06    1.54
  -2   2  -2   58.87    1.56
   2  -2   2   57.47    1.56
   2  -2   2   57.90    1.53
  -3   2  -2  168.09    4.27
  -3   2  -2  164.63    4.24
  -3   2  -2  172.29    4.29
   3  -2   2  178.72    4.28
   3  -2   2  167.74    4.26
  -4   2  -2  268.39    6.76
  -4   2  -2  283.99    6.81
  -4   2  -2  269.65    6.79
   4  -2   2  271.42    6.81
   4  -2   2  276.54    6.80
  -5   2  -2  144.55    3.75
  -5   2  -2  145.18    3.72
   5  -2   2  144.85    3.79
   5  -2   2  141.47    3.73
  -6   2  -2    9.21    0.82
  -6   2  -2    8.39    0.64
   6  -2   2    9.17    0.57
   6  -2   2    8.45    0.69
  -7   2  -2   72.86    2.19
  -7   2  -2   77.22    2.23
   7  -2   2   74.65    2.31
   7  -2   2   73.94    2.17
  -8   2  -2   19.49    0.76
  -8   2  -2   20.21    1.05
   8  -2   2   20.16    1.13
   8  -2   2   21.07    0.94
   8  -2   2   19.11    1.13
  -9   2  -2    2.45    0.55
   9  -2   2    1.42    0.60
   9  -2   2    2.35    0.45
   9   1  -2   23.66    1.36
  -9  -1   2   28.54    1.08
   8   1  -2    5.57    0.43
   8   1  -2    3.65    0.62
   8   1  -2    5.13    0.42
   8   1  -2    4.96    0.67
  -8  -1   2    5.23    0.58
  -8  -1   2    3.73    0.41
   7   1  -2   88.70    2.65
   7   1  -2   89.56    2.64
   7   1  -2   85.16    2.36
   7   1  -2   91.93    2.32
  -7  -1   2   82.59    2.32
  -7  -1   2   87.80    2.38
   6   1  -2   99.29    2.77
   6   1  -2   99.42    2.63
   6   1  -2   97.43    2.50
   6   1  -2   97.50    2.79
  -6  -1   2   95.86    2.55
  -6  -1   2   90.80    2.54
   5   1  -2   10.75    0.68
   5   1  -2   10.49    0.44
   5   1  -2   11.21    0.67
  -5  -1   2   10.72    0.52
  -5  -1   2   11.34    0.52
   4   1  -2  216.92    5.34
   4   1  -2  215.18    5.51
   4   1  -2  227.96    5.53
  -4  -1   2  218.86    5.38
  -4  -1   2  213.68    5.42
   3   1  -2  486.32   11.64
   3   1  -2  478.94   11.62
   3   1  -2  477.11   11.54
  -3  -1   2  482.04   11.72
  -3  -1   2  458.47   11.50
   2   1  -2   75.82    2.05
   2   1  -2   78.39    1.95
   2   1  -2   80.14    2.03
  -2  -1   2   78.16    2.01
  -2  -1   2   78.40    1.94
   1   1  -2  445.43   10.93
   1   1  -2  430.52   11.05
   1   1  -2  454.76   11.05
  -1  -1   2  469.04   11.00
  -1  -1   2  431.10   11.07
   0   1  -2  342.25    8.39
   0   1  -2  339.83    8.31
   0  -1   2  341.89    8.43
   0  -1   2  343.35    8.42
  -1   1  -2   39.19    1.04
  -1   1  -2   38.29    1.08
  -1   1  -2   38.63    1.00
   1  -1   2   37.13    1.01
  -2   1  -2  209.91    5.14
  -2   1  -2  205.02    5.07
  -2   1  -2  210.25    5.11
   2  -1   2  207.03    5.13
   2  -1   2  207.60    5.11
   2  -1   2  206.11    5.07
  -3   1  -2  219.09    5.25
  -3   1  -2  208.54    5.27
   3  -1   2  213.41    5.24
   3  -1   2  204.91    5.23
   3  -1   2  211.26    5.26
  -4   1  -2    6.36    0.66
  -4   1  -2    6.12    0.43
   4  -1   2    6.52    0.40
   4  -1   2    6.62    0.45
   4  -1   2    7.21    0.44
  -5   1  -2  146.44    3.99
  -5   1  -2  154.77    3.93
   5  -1   2  155.73    3.98
   5  -1   2  151.93    3.92
   5  -1   2  153.28    3.92
  -6   1  -2  127.28    3.36
  -6   1  -2  129.37    3.46
   6  -1   2  126.11    3.34
   6  -1   2  122.06    3.43
   6  -1   2  132.80    3.34
   6  -1   2  121.10    3.43
  -7   1  -2    0.79    0.41
  -7   1  -2    0.86    0.34
   7  -1   2    0.12    0.36
   7  -1   2    1.04    0.40
   7  -1   2    0.53    0.26
  -8   1  -2    8.51    0.92
  -8   1  -2    9.55    0.84
   8  -1   2    9.85    0.94
   8  -1   2   10.53    0.94
   8  -1   2   11.99    0.70
  -9   1  -2   21.25    1.20
   9  -1   2   22.22    1.63
   9  -1   2   20.43    1.34
   9  -1   2   19.76    1.33
   9   0  -2   18.37    0.91
   9   0  -2   15.85    1.15
  -9   0   2   18.38    0.95
   8   0  -2   65.56    2.21
   8   0  -2   66.54    2.23
   8   0  -2   66.60    1.88
  -8   0   2   65.34    1.95
   7   0  -2   11.02    0.83
   7   0  -2   10.80    0.55
   7   0  -2   10.22    0.81
  -7   0   2   11.54    0.68
   6   0  -2    1.28    0.18
   6   0  -2    1.41    0.23
   6   0  -2    1.66    0.37
   6   0  -2    1.36    0.36
  -6   0   2    1.50    0.31
   5   0  -2   81.72    2.12
   5   0  -2   82.38    2.15
   5   0  -2   83.15    2.35
  -5   0   2   84.28    2.21
  -5   0   2   78.44    2.06
   4   0  -2   15.59    0.60
   4   0  -2   15.43    0.69
   4   0  -2   15.94    0.56
  -4   0   2   15.27    0.47
  -4   0   2   15.24    0.60
   3   0  -2  350.08    8.31
   3   0  -2  344.22    8.32
   3   0  -2  347.40    8.43
  -3   0   2  336.06    8.27
  -3   0   2  334.44    8.34
   2   0  -2   53.04    1.39
   2   0  -2   55.41    1.37
   2   0  -2   52.71    1.46
  -2   0   2   53.01    1.40
   1   0  -2   93.72    2.41
   1   0  -2   94.48    2.33
   1   0  -2   93.47    2.35
   0   0  -2  299.25    7.13
   0   0  -2  288.33    7.06
   0   0  -2  290.62    7.16
   0   0  -2  285.78    7.06
   0   0   2  287.38    7.08
  -1   0  -2  770.28   19.97
  -1   0  -2  812.76   19.71
   1   0   2  826.43   19.67
   1   0   2  806.82   19.95
  -2   0  -2  148.41    3.57
  -2   0  -2  141.43    3.66
   2   0   2  142.35    3.56
   2   0   2  141.83    3.53
   2   0   2  142.40    3.65
  -3   0  -2   45.93    1.53
  -3   0  -2   46.47    1.27
   3   0   2   45.00    1.26
   3   0   2   45.38    1.37
   3   0   2   44.44    1.26
   3   0   2   45.54    1.25
  -4   0  -2  147.76    3.70
  -4   0  -2  144.29    3.86
   4   0   2  144.60    3.73
   4   0   2  146.90    3.81
   4   0   2  143.09    3.69
   4   0   2  146.61    3.70
  -5   0  -2  130.11    3.65
  -5   0  -2  134.90    3.47
   5   0   2  134.34    3.48
   5   0   2  134.77    3.45
   5   0   2  134.31    3.56
   5   0   2  133.48    3.52
  -6   0  -2    6.11    0.53
  -6   0  -2    4.96    0.82
   6   0   2    6.20    0.46
   6   0   2    6.03    0.61
   6   0   2    5.89    0.92
   6   0   2    5.85    0.69
  -7   0  -2   71.78    2.33
  -7   0  -2   72.40    2.10
   7   0   2   69.83    2.05
   7   0   2   71.40    2.15
   7   0   2   68.50    2.21
   7   0   2   73.70    2.13
  -8   0  -2   26.01    1.42
  -8   0  -2   28.80    1.19
   8   0   2   27.18    1.31
   8   0   2   27.94    1.08
   8   0   2   28.01    1.30
   9  -1  -2   18.38    0.88
   9  -1  -2   17.56    1.20
  -9   1   2   20.53    1.08
   8  -1  -2    5.89    0.55
   8  -1  -2    6.30    0.79
   8  -1  -2    7.13    0.89
  -8   1   2    6.14    0.67
   7  -1  -2  110.47    3.10
   7  -1  -2   94.95    3.05
  -7   1   2  109.30    2.89
   6  -1  -2  134.05    3.67
   6  -1  -2  133.76    3.46
  -6   1   2  133.82    3.53
   5  -1  -2    5.51    0.41
   5  -1  -2    4.73    0.52
   4  -1  -2  645.53   15.93
   4  -1  -2  657.36   15.82
  -4   1   2  655.96   15.85
   3  -1  -2  245.35    6.09
   3  -1  -2  248.60    6.10
   3  -1  -2  259.34    6.22
  -3   1   2  256.67    6.23
   2  -1  -2   26.99    0.84
   2  -1  -2   28.12    0.80
  -2   1   2   28.91    0.77
  -2   1   2   27.53    0.85
  -2   1   2   27.71    0.85
   1  -1  -2  141.05    3.53
   1  -1  -2  143.71    3.52
   1  -1  -2  141.99    3.57
  -1   1   2  141.32    3.53
  -1   1   2  145.35    3.53
  -1   1   2  143.31    3.56
   0  -1  -2  536.22   13.66
   0  -1  -2  549.13   13.99
   0   1   2  552.28   13.75
   0   1   2  566.91   13.44
  -1  -1  -2   21.35    0.64
   1   1   2   22.56    0.65
   1   1   2   21.68    0.58
   1   1   2   20.70    0.80
  -2  -1  -2  201.25    4.83
  -2  -1  -2  196.13    5.01
   2   1   2  193.38    4.83
   2   1   2  191.94    4.78
   2   1   2  196.86    5.00
  -3  -1  -2  100.42    2.81
  -3  -1  -2  103.33    2.59
   3   1   2   99.46    2.56
   3   1   2   99.01    2.77
   3   1   2  101.55    2.58
  -4  -1  -2   -0.04    0.16
  -4  -1  -2    0.14    0.34
   4   1   2    0.11    0.28
   4   1   2    0.02    0.17
   4   1   2    0.02    0.20
   4   1   2    0.35    0.15
  -5  -1  -2   83.76    2.52
  -5  -1  -2   80.20    2.19
   5   1   2   79.45    2.38
   5   1   2   78.26    2.20
   5   1   2   81.05    2.18
   5   1   2   80.79    2.27
  -6  -1  -2   69.14    2.32
  -6  -1  -2   69.69    1.94
   6   1   2   66.69    2.04
   6   1   2   65.97    2.01
   6   1   2   67.28    2.11
   6   1   2   67.32    1.95
  -7  -1  -2    0.69    0.56
  -7  -1  -2    0.91    0.33
   7   1   2    1.33    0.43
   7   1   2    1.37    0.36
   7   1   2    1.40    0.29
   7   1   2    1.05    0.42
  -8  -1  -2   31.02    1.71
   8   1   2   34.41    1.21
   8   1   2   31.66    1.45
   8   1   2   33.98    1.40
   8   1   2   35.41    1.36
   9  -2  -2   20.99    1.30
   9  -2  -2   23.35    1.01
  -9   2   2   24.26    1.14
   8  -2  -2   57.83    2.05
   8  -2  -2   58.71    1.79
  -8   2   2   58.37    1.87
   7  -2  -2    1.39    0.41
   7  -2  -2    1.37    0.29
  -7   2   2    1.72    0.38
   6  -2  -2   56.17    1.84
   6  -2  -2   58.14    1.69
  -6   2   2   56.96    1.75
   5  -2  -2  143.30    3.61
   5  -2  -2  134.34    3.71
  -5   2   2  139.44    3.65
   4  -2  -2  130.56    3.37
   4  -2  -2  134.50    3.45
  -4   2   2  127.48    3.39
  -4   2   2  128.99    3.42
   3  -2  -2  102.98    2.77
   3  -2  -2  104.60    2.69
  -3   2   2  102.36    2.78
  -3   2   2  110.06    2.80
  -3   2   2  112.96    2.64
   2  -2  -2  285.21    7.48
   2  -2  -2  286.93    7.31
   2  -2  -2  303.29    7.31
  -2   2   2  297.17    7.31
  -2   2   2  306.39    7.27
  -2   2   2  306.16    7.31
   1  -2  -2   28.51    0.87
   1  -2  -2   28.61    0.99
   1  -2  -2   29.92    0.84
  -1   2   2   30.30    0.84
  -1   2   2   28.34    0.93
   0  -2  -2  191.32    4.96
   0  -2  -2  194.84    4.75
   0  -2  -2  194.97    4.80
   0   2   2  199.60    4.99
   0   2   2  192.84    4.95
   0   2   2  195.31    4.76
  -1  -2  -2  294.42    7.05
  -1  -2  -2  289.08    7.00
  -1  -2  -2  288.50    7.27
   1   2   2  285.77    7.00
   1   2   2  285.74    7.26
  -2  -2  -2  206.12    5.03
  -2  -2  -2  210.09    5.26
  -2  -2  -2  211.31    5.06
  -2  -2  -2  199.36    5.33
   2   2   2  196.12    5.01
   2   2   2  207.00    5.32
  -3  -2  -2   31.16    1.30
  -3  -2  -2   31.15    0.93
   3   2   2   30.90    0.93
   3   2   2   30.66    0.93
   3   2   2   30.50    1.24
  -4  -2  -2  305.06    7.51
  -4  -2  -2  317.01    7.89
   4   2   2  305.26    7.81
   4   2   2  295.13    7.51
   4   2   2  302.45    7.51
  -5  -2  -2   41.32    2.00
  -5  -2  -2   46.84    1.36
   5   2   2   46.59    1.35
   5   2   2   44.99    1.39
   5   2   2   46.79    1.45
   5   2   2   46.04    1.66
  -6  -2  -2   22.99    0.88
  -6  -2  -2   20.96    1.39
   6   2   2   22.95    0.99
   6   2   2   22.15    0.94
   6   2   2   24.62    1.16
   6   2   2   19.85    1.11
  -7  -2  -2   46.91    2.07
  -7  -2  -2   46.10    1.51
   7   2   2   49.77    1.49
   7   2   2   47.25    1.63
   7   2   2   45.67    1.66
   7   2   2   48.53    1.76
  -8  -2  -2   11.11    0.87
   8   2   2    9.22    0.99
   8   2   2   12.95    1.00
   8   2   2   12.73    1.00
   9  -3  -2   17.82    0.97
   9  -3  -2   16.10    1.20
  -9   3   2   18.32    1.04
   8  -3  -2    1.74    0.37
   8  -3  -2    1.82    0.52
  -8   3   2    1.38    0.43
   7  -3  -2   91.07    2.57
   7  -3  -2   92.74    2.77
  -7   3   2   89.74    2.63
   6  -3  -2   62.51    1.84
   6  -3  -2   61.44    1.98
  -6   3   2   61.79    1.90
   5  -3  -2   23.91    0.99
   5  -3  -2   24.18    0.92
  -5   3   2   22.62    0.96
  -5   3   2   22.37    0.93
   4  -3  -2  176.00    4.43
   4  -3  -2  174.88    4.39
   4  -3  -2  168.37    4.18
  -4   3   2  171.15    4.41
  -4   3   2  153.74    4.17
  -4   3   2  182.13    4.42
   3  -3  -2  429.32   10.03
   3  -3  -2  401.58   10.01
   3  -3  -2  395.36    9.99
  -3   3   2  408.74    9.90
  -3   3   2  408.36   10.01
  -3   3   2  403.20   10.02
   2  -3  -2   22.41    0.81
   2  -3  -2   24.33    0.94
   2  -3  -2   24.98    0.79
  -2   3   2   22.59    0.81
  -2   3   2   22.58    0.76
  -2   3   2   21.85    0.79
   1  -3  -2  174.68    4.65
   1  -3  -2  191.08    4.63
  -1   3   2  193.66    4.63
  -1   3   2  184.42    4.65
  -1   3   2  187.60    4.78
   0  -3  -2  112.08    3.06
   0  -3  -2  108.89    2.76
   0  -3  -2  108.04    2.81
   0   3   2  108.02    3.02
   0   3   2  112.74    2.77
  -1  -3  -2    3.20    0.29
  -1  -3  -2    3.48    0.27
  -1  -3  -2    3.49    0.25
  -1  -3  -2    5.06    0.69
   1   3   2    3.60    0.27
   1   3   2    3.07    0.60
  -2  -3  -2  240.42    6.27
  -2  -3  -2  238.27    5.88
  -2  -3  -2  240.40    5.89
   2   3   2  233.63    5.87
   2   3   2  243.30    6.26
  -3  -3  -2  180.80    4.49
  -3  -3  -2  177.94    4.47
  -3  -3  -2  180.60    4.91
   3   3   2  176.20    4.47
   3   3   2  179.48    4.88
  -4  -3  -2    0.57    0.49
  -4  -3  -2    0.75    0.19
   4   3   2    0.77    0.42
   4   3   2    0.73    0.22
  -5  -3  -2   73.16    1.97
  -5  -3  -2   72.32    2.54
   5   3   2   68.92    2.01
   5   3   2   71.19    2.38
  -6  -3  -2   71.39    1.97
  -6  -3  -2   66.44    2.55
   6   3   2   70.76    2.12
   6   3   2   69.62    2.06
   6   3   2   69.69    2.37
  -7  -3  -2   -1.21    0.67
  -7  -3  -2   -0.31    0.32
   7   3   2   -0.39    0.42
   7   3   2    0.85    0.45
   7   3   2    0.56    0.49
   9  -4  -2   13.86    1.17
   9  -4  -2   15.25    0.95
  -9   4   2   17.01    1.07
   8  -4  -2   46.98    1.82
   8  -4  -2   46.57    1.60
  -8   4   2   47.54    1.70
   7  -4  -2   28.09    1.16
   7  -4  -2   29.67    1.30
  -7   4   2   27.79    1.38
   6  -4  -2  114.47    3.13
   6  -4  -2  113.38    3.24
  -6   4   2  111.74    3.19
  -6   4   2  116.43    3.19
   5  -4  -2  123.25    3.48
   5  -4  -2  122.78    3.43
  -5   4   2  133.44    3.48
  -5   4   2  133.36    3.48
   4  -4  -2    1.24    0.29
   4  -4  -2    2.06    0.34
   4  -4  -2    1.86    0.34
  -4   4   2    1.63    0.28
  -4   4   2    1.43    0.27
  -4   4   2    1.18    0.30
   3  -4  -2   87.34    2.47
   3  -4  -2   85.83    2.43
   3  -4  -2   91.31    2.41
  -3   4   2   89.56    2.40
  -3   4   2   87.12    2.42
  -3   4   2   89.34    2.37
   2  -4  -2  441.26   10.88
   2  -4  -2  451.67   10.85
   2  -4  -2  444.83   11.04
  -2   4   2  449.47   10.85
  -2   4   2  442.19   10.94
  -2   4   2  430.13   10.86
   1  -4  -2    6.62    0.40
   1  -4  -2    8.66    0.77
   1  -4  -2    6.92    0.47
  -1   4   2    7.52    0.68
  -1   4   2    6.50    0.42
  -1   4   2    7.09    0.41
   0  -4  -2  206.43    5.31
   0  -4  -2  216.56    5.26
   0  -4  -2  217.36    5.64
   0   4   2  207.88    5.35
   0   4   2  215.15    5.60
  -1  -4  -2  312.47    7.93
  -1  -4  -2  303.06    7.48
  -1  -4  -2  301.24    7.52
   1   4   2  303.57    7.58
   1   4   2  307.87    7.89
  -2  -4  -2   34.31    1.56
  -2  -4  -2   35.21    1.02
  -2  -4  -2   34.85    1.02
  -2  -4  -2   35.77    1.06
   2   4   2   32.53    1.49
   2   4   2   34.31    1.03
  -3  -4  -2  110.82    2.91
  -3  -4  -2  113.54    2.95
  -3  -4  -2  114.14    3.48
   3   4   2  113.30    2.94
   3   4   2  115.12    3.44
  -4  -4  -2   80.90    2.79
  -4  -4  -2   81.62    2.15
   4   4   2   77.65    2.66
   4   4   2   80.25    2.19
  -5  -4  -2   18.19    0.72
  -5  -4  -2   19.21    1.45
   5   4   2   15.00    1.13
  -6  -4  -2    7.59    0.56
  -6  -4  -2    5.78    0.86
   6   4   2    6.73    0.69
   6   4   2    8.14    0.74
   6   4   2    7.47    0.99
  -7  -4  -2   55.21    2.60
  -7  -4  -2   62.15    1.83
   7   4   2   61.16    1.97
   7   4   2   61.57    2.05
   7   4   2   63.47    2.31
   9  -5  -2   16.90    1.26
  -9   5   2   18.26    1.16
   8  -5  -2    9.54    0.90
   8  -5  -2    7.62    0.78
  -8   5   2    7.68    0.86
   7  -5  -2  109.13    3.24
   7  -5  -2  110.66    3.12
  -7   5   2  112.19    3.21
  -7   5   2  108.27    3.17
   6  -5  -2  136.73    3.71
   6  -5  -2  133.77    3.78
  -6   5   2  132.81    3.74
  -6   5   2  140.43    3.76
   5  -5  -2    7.08    0.67
   5  -5  -2    8.46    0.69
   5  -5  -2    9.01    0.41
  -5   5   2    8.11    0.38
  -5   5   2    8.32    0.63
  -5   5   2    7.42    0.69
   4  -5  -2  121.00    3.30
   4  -5  -2  119.72    3.33
   4  -5  -2  124.85    3.29
  -4   5   2  119.81    3.30
  -4   5   2  119.65    3.15
  -4   5   2  123.83    3.28
   3  -5  -2  165.93    4.44
   3  -5  -2  170.87    4.54
   3  -5  -2  174.66    4.41
  -3   5   2  169.76    4.43
  -3   5   2  172.04    4.41
  -3   5   2  172.31    4.44
   2  -5  -2   35.81    1.23
   2  -5  -2   38.18    1.49
   2  -5  -2   36.21    1.16
  -2   5   2   37.41    1.16
  -2   5   2   35.19    1.34
  -2   5   2   35.94    1.18
   1  -5  -2  365.38    9.24
   1  -5  -2  367.18    8.92
   1  -5  -2  363.25    8.85
  -1   5   2  368.61    8.86
  -1   5   2  347.43    9.12
  -1   5   2  348.22    8.86
   0  -5  -2   53.32    1.57
   0  -5  -2   54.03    1.51
   0   5   2   55.82    1.53
   0   5   2   52.01    1.91
  -1  -5  -2    0.68    0.52
  -1  -5  -2    0.69    0.22
  -1  -5  -2    0.35    0.17
   1   5   2    0.40    0.21
   1   5   2    0.86    0.45
   1   5   2   -0.07    0.38
  -2  -5  -2  181.64    4.54
  -2  -5  -2  180.69    4.51
  -2  -5  -2  175.37    4.50
  -2  -5  -2  183.45    5.12
   2   5   2  180.31    4.53
   2   5   2  172.75    5.02
  -3  -5  -2  151.00    4.35
  -3  -5  -2  145.28    3.69
  -3  -5  -2  143.11    3.68
  -3  -5  -2  142.01    3.65
   3   5   2  137.97    3.68
   3   5   2  138.47    4.23
  -4  -5  -2   27.99    1.68
  -4  -5  -2   28.30    0.98
  -4  -5  -2   28.43    0.94
   4   5   2   28.56    1.02
   4   5   2   28.13    1.54
  -5  -5  -2  100.52    2.65
  -5  -5  -2   98.96    3.43
  -5  -5  -2   99.90    2.68
   5   5   2   96.25    2.74
   5   5   2  102.39    3.30
  -6  -5  -2   55.45    1.76
  -6  -5  -2   47.74    2.48
  -6  -5  -2   54.17    1.61
   6   5   2   56.64    2.21
   6   5   2   54.78    1.81
   9  -6  -2   42.47    1.91
  -9   6   2   46.23    1.81
   8  -6  -2   28.09    1.40
   8  -6  -2   27.08    1.30
  -8   6   2   27.62    1.33
   7  -6  -2   -0.48    0.35
   7  -6  -2    0.30    0.39
  -7   6   2   -0.19    0.35
  -7   6   2    0.50    0.37
   6  -6  -2   62.31    1.60
   6  -6  -2   59.44    2.02
   6  -6  -2   63.32    2.01
  -6   6   2   62.85    2.01
  -6   6   2   61.07    2.02
   5  -6  -2  111.33    3.18
   5  -6  -2  113.03    3.16
   5  -6  -2  109.10    3.14
  -5   6   2  112.31    3.13
  -5   6   2  109.72    2.90
  -5   6   2  112.99    3.16
   4  -6  -2    0.83    0.35
   4  -6  -2    0.95    0.32
   4  -6  -2    1.05    0.32
  -4   6   2    1.28    0.31
  -4   6   2    0.41    0.27
  -4   6   2    0.68    0.30
   3  -6  -2  116.98    3.29
   3  -6  -2  113.16    3.12
   3  -6  -2  112.18    3.05
  -3   6   2  110.56    3.07
  -3   6   2  113.46    3.17
  -3   6   2  109.77    3.05
   2  -6  -2  234.38    6.08
   2  -6  -2  219.25    5.70
  -2   6   2  219.83    5.93
  -2   6   2  229.34    5.72
  -2   6   2  223.97    5.72
   1  -6  -2    9.76    0.66
   1  -6  -2   11.14    1.11
   1  -6  -2    9.30    0.55
  -1   6   2   10.79    0.97
  -1   6   2   10.39    0.58
  -1   6   2    9.76    0.57
   0  -6  -2   99.92    2.63
   0  -6  -2  100.85    3.21
   0  -6  -2   96.60    2.71
   0   6   2  104.16    2.67
   0   6   2   93.74    3.09
  -1  -6  -2  251.72    6.30
  -1  -6  -2  246.03    6.24
  -1  -6  -2  255.74    6.88
   1   6   2  238.81    6.76
   1   6   2  255.37    6.27
   1   6   2  254.22    6.64
  -2  -6  -2  133.49    3.38
  -2  -6  -2  128.70    3.35
  -2  -6  -2  132.14    4.04
  -2  -6  -2  128.59    3.41
   2   6   2  129.41    3.39
   2   6   2  124.54    3.95
  -3  -6  -2    2.09    0.27
  -3  -6  -2    2.11    0.67
  -3  -6  -2    2.15    0.30
  -3  -6  -2    1.70    0.33
   3   6   2    2.12    0.33
   3   6   2    1.99    0.58
  -4  -6  -2   73.06    1.98
  -4  -6  -2   70.82    2.82
  -4  -6  -2   69.94    2.03
  -4  -6  -2   72.22    2.07
   4   6   2   70.88    2.68
   4   6   2   70.64    2.08
  -5  -6  -2   11.62    0.63
  -5  -6  -2    8.58    1.12
   5   6   2   11.59    0.86
   5   6   2   13.25    1.31
  -6  -6  -2    8.59    0.67
   6   6   2   12.13    1.30
   6   6   2   12.08    0.96
   9  -7  -2    6.47    0.98
  -9   7   2    8.06    1.05
   8  -7  -2   14.22    1.14
  -8   7   2   14.02    1.08
   7  -7  -2   70.85    2.38
   7  -7  -2   70.51    2.31
  -7   7   2   71.85    2.34
  -7   7   2   70.70    2.58
   6  -7  -2   65.46    2.10
   6  -7  -2   60.88    2.06
  -6   7   2   60.23    2.05
  -6   7   2   60.22    1.68
  -6   7   2   62.57    2.06
   5  -7  -2   27.15    1.09
   5  -7  -2   26.77    1.18
   5  -7  -2   27.18    1.22
  -5   7   2   26.47    1.01
  -5   7   2   26.18    1.18
  -5   7   2   27.01    1.15
   4  -7  -2  171.83    4.68
   4  -7  -2  173.75    4.64
   4  -7  -2  177.07    4.71
  -4   7   2  181.21    4.64
  -4   7   2  172.07    4.66
  -4   7   2  173.58    4.63
   3  -7  -2  104.05    2.91
   3  -7  -2  103.54    3.00
   3  -7  -2  109.90    3.21
  -3   7   2  100.85    3.07
  -3   7   2  103.80    2.93
  -3   7   2  108.54    2.94
   2  -7  -2    2.86    0.59
   2  -7  -2    1.55    0.33
   2  -7  -2    1.98    0.42
  -2   7   2    2.30    0.34
  -2   7   2    2.25    0.37
  -2   7   2    2.23    0.50
   1  -7  -2  201.73    5.06
   1  -7  -2  201.44    5.16
   1  -7  -2  212.39    5.65
  -1   7   2  200.58    5.06
  -1   7   2  178.87    5.40
  -1   7   2  192.70    5.47
   0  -7  -2  155.54    4.12
   0  -7  -2  158.83    4.67
   0  -7  -2  154.42    4.02
   0   7   2  151.24    4.55
   0   7   2  157.60    4.07
  -1  -7  -2   45.95    2.08
  -1  -7  -2   45.49    1.50
  -1  -7  -2   46.33    1.39
   1   7   2   40.77    2.75
   1   7   2   45.20    1.77
   1   7   2   45.75    1.49
  -2  -7  -2  151.27    3.85
  -2  -7  -2  146.95    3.80
  -2  -7  -2  151.41    4.58
  -2  -7  -2  141.24    3.92
   2   7   2  145.03    3.93
   2   7   2  147.74    4.49
  -3  -7  -2   19.49    0.77
  -3  -7  -2   21.44    0.93
  -3  -7  -2   17.58    1.62
  -3  -7  -2   21.09    0.85
   3   7   2   19.50    0.92
   3   7   2   17.72    1.43
  -4  -7  -2    4.24    0.49
  -4  -7  -2    6.28    0.71
  -4  -7  -2    4.74    0.57
  -4  -7  -2    3.71    1.04
   4   7   2    6.58    0.76
   4   7   2    4.41    0.78
  -5  -7  -2   76.52    2.13
  -5  -7  -2   76.57    2.36
   5   7   2   74.99    2.34
   5   7   2   75.92    2.94
   8  -8  -2   39.25    1.80
  -8   8   2   40.60    1.72
   7  -8  -2    1.74    0.52
  -7   8   2    0.94    0.47
   6  -8  -2   51.75    1.86
   6  -8  -2   50.00    1.88
   6  -8  -2   53.18    1.57
  -6   8   2   49.45    1.83
  -6   8   2   51.11    1.84
  -6   8   2   51.33    1.55
   5  -8  -2  116.24    3.35
   5  -8  -2  119.08    3.28
   5  -8  -2  115.33    3.40
  -5   8   2  119.57    3.36
  -5   8   2  117.79    3.36
  -5   8   2  113.11    3.23
   4  -8  -2    5.56    0.80
   4  -8  -2    5.27    0.79
   4  -8  -2    5.12    0.66
  -4   8   2    5.82    0.69
  -4   8   2    5.31    0.69
  -4   8   2    5.80    0.76
   3  -8  -2  121.50    3.28
   3  -8  -2  127.18    3.63
   3  -8  -2  118.67    3.38
  -3   8   2  115.20    3.49
  -3   8   2  118.79    3.30
  -3   8   2  107.37    3.45
   2  -8  -2  164.28    4.40
   2  -8  -2  171.12    4.54
   2  -8  -2  169.30    4.89
  -2   8   2  166.40    4.77
  -2   8   2  171.14    4.44
  -2   8   2  163.82    4.41
   1  -8  -2    4.13    0.73
   1  -8  -2    5.25    0.75
   1  -8  -2    4.69    0.50
  -1   8   2    5.15    0.62
  -1   8   2    4.69    0.51
  -1   8   2    5.98    1.06
   0  -8  -2   52.28    1.59
   0  -8  -2   51.57    1.75
   0  -8  -2   53.60    2.30
   0   8   2   50.94    2.19
   0   8   2   52.21    1.67
  -1  -8  -2  152.11    4.73
  -1  -8  -2  155.38    4.00
  -1  -8  -2  148.82    4.08
   1   8   2  154.50    4.45
   1   8   2  150.59    4.64
   1   8   2  150.95    4.04
  -2  -8  -2    0.13    0.22
  -2  -8  -2    0.40    0.37
  -2  -8  -2   -0.14    0.67
  -2  -8  -2    0.39    0.25
   2   8   2    0.02    0.52
   2   8   2    0.32    0.38
  -3  -8  -2   70.31    2.12
  -3  -8  -2   68.15    2.05
  -3  -8  -2   66.45    1.95
   3   8   2   69.03    2.14
   3   8   2   69.86    2.77
  -4  -8  -2   82.30    2.40
  -4  -8  -2   78.02    2.54
  -4  -8  -2   80.87    2.25
   4   8   2   83.37    3.15
   4   8   2   78.93    2.45
   8  -9  -2   16.24    1.41
  -8   9   2   17.57    1.29
   7  -9  -2   98.34    3.13
  -7   9   2   99.52    2.60
  -7   9   2   99.67    3.10
   6  -9  -2   40.83    1.42
   6  -9  -2   40.90    1.64
  -6   9   2   38.72    1.61
  -6   9   2   39.92    1.41
   5  -9  -2   19.82    1.08
   5  -9  -2   19.99    1.09
   5  -9  -2   18.25    1.21
  -5   9   2   20.22    1.09
  -5   9   2   21.05    1.08
  -5   9   2   18.65    1.11
   4  -9  -2  165.03    4.50
   4  -9  -2  170.50    4.70
   4  -9  -2  165.21    4.61
  -4   9   2  161.82    4.60
  -4   9   2  168.94    4.53
  -4   9   2  163.71    4.50
   3  -9  -2   63.18    2.18
   3  -9  -2   65.39    2.41
   3  -9  -2   65.49    2.03
  -3   9   2   64.12    2.07
  -3   9   2   63.49    2.31
  -3   9   2   64.45    2.03
   2  -9  -2   44.27    2.03
   2  -9  -2   42.82    1.54
   2  -9  -2   42.54    1.67
  -2   9   2   43.44    1.92
  -2   9   2   42.50    1.49
  -2   9   2   43.71    1.55
   1  -9  -2   93.95    3.28
   1  -9  -2   90.85    2.76
   1  -9  -2   86.80    2.62
  -1   9   2   93.70    2.68
  -1   9   2   92.63    3.17
   0  -9  -2   32.39    1.89
   0  -9  -2   34.82    1.44
   0  -9  -2   34.05    1.20
   0   9   2   33.54    1.32
   0   9   2   32.69    1.81
  -1  -9  -2    4.50    0.59
  -1  -9  -2    2.56    0.80
  -1  -9  -2    3.53    0.50
   1   9   2    3.79    0.79
   1   9   2    3.67    0.51
  -2  -9  -2  106.54    3.01
  -2  -9  -2  100.37    2.81
   2   9   2  102.89    2.98
   2   9   2  102.28    3.63
  -3  -9  -2   26.46    1.31
  -3  -9  -2   25.56    1.02
  -3  -9  -2   27.23    1.12
   3   9   2   27.10    1.90
   3   9   2   24.71    1.28
  -4  -9  -2    0.37    0.37
  -4  -9  -2    0.20    0.36
   4   9   2    1.44    0.79
   7 -10  -2    0.39    0.56
  -7  10   2   -0.07    0.52
   6 -10  -2   44.98    1.79
   6 -10  -2   42.77    1.62
  -6  10   2   43.70    1.76
  -6  10   2   45.60    1.62
   5 -10  -2   15.93    1.12
   5 -10  -2   15.33    1.04
  -5  10   2   15.72    1.04
  -5  10   2   16.29    1.10
   4 -10  -2    0.75    0.50
   4 -10  -2    0.67    0.39
   4 -10  -2   -0.62    0.78
  -4  10   2    1.79    0.44
  -4  10   2    1.46    0.50
  -4  10   2    1.58    0.49
   3 -10  -2   83.25    2.92
   3 -10  -2   79.64    2.67
   3 -10  -2   81.95    2.48
  -3  10   2   82.27    2.81
  -3  10   2   82.01    2.48
  -3  10   2   79.25    2.54
   2 -10  -2  123.29    4.16
   2 -10  -2  115.45    3.28
   2 -10  -2  115.59    3.47
  -2  10   2  113.86    3.26
  -2  10   2  118.37    3.37
  -2  10   2  114.96    3.74
   1 -10  -2    0.83    0.68
   1 -10  -2    1.70    0.36
   1 -10  -2    2.83    0.62
  -1  10   2    2.05    0.49
  -1  10   2    2.03    0.69
   0 -10  -2   49.10    1.86
   0 -10  -2   50.36    1.63
   0  10   2   48.11    1.75
   0  10   2   48.02    2.28
  -1 -10  -2   82.89    2.56
  -1 -10  -2   78.51    2.35
   1  10   2   78.21    3.08
   1  10   2   77.55    2.49
  -2 -10  -2    1.38    0.39
  -2 -10  -2    2.16    0.58
  -2 -10  -2    1.53    0.37
   2  10   2    2.03    0.59
   2  10   2    1.78    0.77
   6 -11  -2    5.05    0.73
  -6  11   2    7.37    1.32
  -6  11   2    4.61    0.65
   5 -11  -2   20.47    1.19
   5 -11  -2   17.76    1.31
  -5  11   2   20.20    1.31
  -5  11   2   21.28    1.23
   4 -11  -2   77.34    2.81
   4 -11  -2   80.07    2.52
  -4  11   2   77.60    2.73
  -4  11   2   78.41    2.50
   3 -11  -2   44.45    1.63
   3 -11  -2   41.45    2.09
  -3  11   2   46.19    1.65
  -3  11   2   42.81    1.99
   2 -11  -2   26.75    1.17
  -2  11   2   24.73    1.37
  -2  11   2   27.73    1.67
  -2  11   2   27.58    1.18
   1 -11  -2  116.68    3.56
   1 -11  -2  118.23    3.31
  -1  11   2  118.23    3.94
  -1  11   2  113.65    3.44
   0 -11  -2   36.23    1.74
   0 -11  -2   34.55    1.34
   0  11   2   35.29    2.07
   0  11   2   32.74    1.57
  -1 -11  -2   17.49    0.95
  -1 -11  -2   18.13    0.96
  -1 -11  -2   17.27    1.39
   1  11   2   21.62    1.83
   1  11   2   16.83    1.26
   4 -12  -2    1.14    0.50
  -4  12   2    1.48    0.49
  -4  12   2    1.05    0.62
   3 -12  -2   70.92    2.34
  -3  12   2   71.35    2.77
  -3  12   2   70.92    2.32
   2 -12  -2   48.82    1.77
  -2  12   2   49.56    2.37
   1 -12  -2    0.66    0.40
  -1  12   2    0.81    0.74
   1  13  -3   69.33    3.46
  -1 -13   3   73.32    2.39
   0  13  -3   20.77    0.94
   0  13  -3   16.95    1.90
   0 -13   3   20.57    1.20
   0 -13   3   19.97    1.12
  -1  13  -3   12.91    1.61
  -1  13  -3   14.03    0.84
   1 -13   3   10.61    1.18
   1 -13   3   13.49    0.95
  -2  13  -3   65.16    2.07
  -2  13  -3   61.94    2.80
   2 -13   3   66.42    2.18
   2 -13   3   61.58    2.31
  -3  13  -3   44.13    2.35
  -3  13  -3   48.78    1.77
   3 -13   3   51.75    1.86
  -4  13  -3   13.02    1.07
  -4  13  -3    9.90    1.51
   4 -13   3   11.67    0.98
  -5  13  -3   56.34    2.13
  -5  13  -3   53.67    2.47
   5 -13   3   56.18    2.24
   5 -13   3   56.51    2.22
   2  12  -3   73.09    3.15
  -2 -12   3   76.28    2.42
   1  12  -3    0.66    0.73
  -1 -12   3    0.82    0.37
  -1 -12   3    0.59    0.44
   0  12  -3   85.84    2.39
   0  12  -3   85.60    3.30
   0 -12   3   83.18    2.54
   0 -12   3   83.44    2.60
  -1  12  -3   48.13    1.57
  -1  12  -3   46.17    2.33
   1 -12   3   45.62    1.77
   1 -12   3   49.30    1.71
  -2  12  -3    2.45    0.78
  -2  12  -3    2.63    0.43
   2 -12   3    2.98    0.69
   2 -12   3    3.49    0.63
   2 -12   3    3.42    0.49
  -3  12  -3  112.97    3.21
  -3  12  -3  113.26    3.76
   3 -12   3  109.00    3.23
   3 -12   3  107.37    3.36
   3 -12   3  107.06    3.50
  -4  12  -3  118.37    3.89
  -4  12  -3  121.04    3.51
   4 -12   3  118.23    3.51
   4 -12   3  122.44    3.68
  -5  12  -3    0.55    0.67
  -5  12  -3    1.04    0.50
   5 -12   3    0.70    0.45
   5 -12   3    0.75    0.45
  -6  12  -3   34.19    1.95
  -6  12  -3   38.71    1.73
   6 -12   3   35.42    1.52
   6 -12   3   33.94    1.63
   4  11  -3   48.68    2.59
  -4 -11   3   51.87    1.88
   3  11  -3   12.69    1.60
  -3 -11   3   12.11    0.87
   2  11  -3   15.50    1.64
  -2 -11   3   16.06    0.91
  -2 -11   3   14.60    0.72
   1  11  -3  161.87    5.09
   1  11  -3  156.22    4.48
   1  11  -3  164.03    4.16
  -1 -11   3  161.05    4.43
  -1 -11   3  172.43    5.94
   0  11  -3   26.67    1.26
   0  11  -3   28.49    1.03
   0  11  -3   26.63    1.81
   0 -11   3   26.08    1.14
   0 -11   3   27.08    1.61
   0 -11   3   25.63    1.14
  -1  11  -3   64.84    1.96
  -1  11  -3   64.23    2.65
  -1  11  -3   65.47    2.15
   1 -11   3   66.20    2.52
   1 -11   3   65.19    2.09
   1 -11   3   64.28    2.06
  -2  11  -3  113.25    3.25
  -2  11  -3  112.10    3.72
  -2  11  -3  113.85    3.13
   2 -11   3  111.99    3.19
   2 -11   3  108.76    3.50
   2 -11   3  107.04    3.22
  -3  11  -3   38.33    1.53
  -3  11  -3   39.99    1.49
  -3  11  -3   38.96    1.98
   3 -11   3   40.25    1.63
   3 -11   3   39.32    1.68
   3 -11   3   40.26    1.50
  -4  11  -3   66.89    2.17
  -4  11  -3   62.72    2.17
  -4  11  -3   67.79    2.55
   4 -11   3   61.12    2.22
   4 -11   3   62.19    2.11
   4 -11   3   65.27    2.22
  -5  11  -3  133.32    3.82
  -5  11  -3  129.74    4.07
   5 -11   3  130.92    3.80
   5 -11   3  133.44    3.77
  -6  11  -3   29.96    1.62
  -6  11  -3   30.32    1.52
   6 -11   3   32.64    1.31
   6 -11   3   28.96    1.43
  -7  11  -3   11.22    1.16
  -7  11  -3   12.30    1.24
   7 -11   3   10.23    1.10
   5  10  -3   26.40    1.97
  -5 -10   3   24.77    1.29
   4  10  -3    1.13    0.73
  -4 -10   3    0.42    0.38
   3  10  -3   61.75    2.16
   3  10  -3   66.59    2.76
  -3 -10   3   64.53    2.07
   2  10  -3   53.24    1.86
   2  10  -3   58.61    2.50
  -2 -10   3   52.61    1.78
  -2 -10   3   51.47    1.53
  -2 -10   3   54.25    2.32
   1  10  -3    3.00    0.39
   1  10  -3    3.77    0.51
   1  10  -3    2.73    0.75
  -1 -10   3    2.15    0.62
  -1 -10   3    3.55    0.53
  -1 -10   3    3.11    0.38
   0  10  -3  171.16    4.56
   0  10  -3  170.08    5.08
   0  10  -3  168.66    4.35
   0 -10   3  169.20    4.51
   0 -10   3  166.34    4.93
  -1  10  -3  128.21    4.04
  -1  10  -3  129.49    3.56
  -1  10  -3  128.50    3.42
   1 -10   3  125.09    3.49
   1 -10   3  127.11    3.56
   1 -10   3  126.10    3.88
  -2  10  -3    0.80    0.34
  -2  10  -3    0.27    0.32
  -2  10  -3   -0.67    0.76
   2 -10   3    0.38    0.40
   2 -10   3    0.39    0.30
   2 -10   3   -0.10    0.40
  -3  10  -3   99.52    2.88
  -3  10  -3   99.02    3.22
  -3  10  -3   97.67    2.85
   3 -10   3  100.37    3.02
   3 -10   3   93.86    2.84
   3 -10   3  100.38    2.93
  -4  10  -3  140.37    3.85
  -4  10  -3  137.33    4.09
  -4  10  -3  139.46    3.86
   4 -10   3  132.09    3.81
   4 -10   3  138.87    3.89
   4 -10   3  137.27    3.87
  -5  10  -3    6.29    0.76
  -5  10  -3    5.66    0.81
  -5  10  -3    5.57    0.73
   5 -10   3    6.44    0.69
   5 -10   3    4.61    0.64
   5 -10   3    6.79    0.73
  -6  10  -3   37.04    1.61
  -6  10  -3   41.05    1.74
   6 -10   3   40.38    1.61
  -7  10  -3   62.10    2.23
  -7  10  -3   58.61    2.03
   7 -10   3   59.48    2.20
   5   9  -3   41.56    2.19
  -5  -9   3   42.45    1.61
   4   9  -3  119.09    3.47
   4   9  -3  124.09    4.01
  -4  -9   3  116.82    3.87
  -4  -9   3  120.21    3.41
   3   9  -3   25.10    1.15
   3   9  -3   23.51    1.69
  -3  -9   3   24.15    1.05
  -3  -9   3   23.80    1.56
   2   9  -3  118.19    3.83
   2   9  -3  119.71    3.27
  -2  -9   3  106.25    3.07
  -2  -9   3  117.43    3.23
  -2  -9   3  117.35    3.69
   1   9  -3  104.06    3.49
   1   9  -3  107.17    2.98
   1   9  -3  108.02    2.73
  -1  -9   3   93.34    3.09
  -1  -9   3  105.71    2.77
  -1  -9   3  109.32    3.39
   0   9  -3   33.32    1.14
   0   9  -3   33.85    1.76
   0   9  -3   33.92    1.29
   0  -9   3   32.37    1.21
   0  -9   3   33.79    1.17
   0  -9   3   37.34    1.61
  -1   9  -3   60.23    1.89
  -1   9  -3   56.69    1.97
  -1   9  -3   67.58    2.42
   1  -9   3   74.43    2.35
   1  -9   3   66.26    2.47
  -2   9  -3  252.33    6.40
  -2   9  -3  245.36    6.34
  -2   9  -3  248.36    6.72
   2  -9   3  246.21    6.38
   2  -9   3  247.93    6.38
   2  -9   3  251.56    6.59
  -3   9  -3   28.54    1.16
  -3   9  -3   26.51    1.14
  -3   9  -3   27.22    1.43
   3  -9   3   26.83    1.17
   3  -9   3   28.42    1.21
   3  -9   3   24.84    1.55
  -4   9  -3   19.26    1.19
  -4   9  -3   16.48    0.97
  -4   9  -3   17.43    0.93
   4  -9   3   15.99    0.97
   4  -9   3   17.67    0.93
   4  -9   3   19.04    0.92
  -5   9  -3   44.27    1.65
  -5   9  -3   44.80    1.60
  -5   9  -3   43.62    1.74
   5  -9   3   42.87    1.55
   5  -9   3   46.86    1.65
   5  -9   3   44.80    1.67
  -6   9  -3    4.57    0.60
  -6   9  -3    2.93    0.51
  -6   9  -3    4.88    0.61
   6  -9   3    3.71    0.56
   6  -9   3    3.11    0.52
  -7   9  -3   33.56    1.13
  -7   9  -3   33.81    1.36
  -7   9  -3   33.83    1.54
   7  -9   3   32.35    1.48
  -8   9  -3   51.34    2.03
   8  -9   3   49.26    2.01
   6   8  -3   56.19    2.45
   5   8  -3   25.54    1.67
   5   8  -3   26.77    1.30
  -5  -8   3   25.53    1.69
  -5  -8   3   25.72    1.19
   4   8  -3    3.62    0.78
   4   8  -3    4.20    0.68
  -4  -8   3    5.21    0.58
  -4  -8   3    3.85    0.67
   3   8  -3  143.69    3.79
   3   8  -3  141.06    4.30
  -3  -8   3  140.05    4.17
  -3  -8   3  128.75    3.92
   2   8  -3  134.04    3.61
   2   8  -3  134.26    4.13
  -2  -8   3  134.26    3.60
  -2  -8   3  130.31    3.34
  -2  -8   3  132.95    3.98
   1   8  -3    5.13    0.38
   1   8  -3    4.88    0.58
   1   8  -3    5.93    1.07
  -1  -8   3    5.34    0.49
  -1  -8   3    5.72    0.43
  -1  -8   3    5.43    0.80
   0   8  -3  107.01    2.95
   0   8  -3  108.27    3.34
   0   8  -3  106.11    2.81
   0  -8   3  103.12    2.91
   0  -8   3  108.06    2.84
   0  -8   3  108.87    3.24
  -1   8  -3  269.18    7.04
  -1   8  -3  265.15    6.65
  -1   8  -3  263.73    6.72
   1  -8   3  253.84    6.69
   1  -8   3  268.16    6.67
   1  -8   3  269.84    6.96
  -2   8  -3   21.32    0.94
  -2   8  -3   20.28    0.90
  -2   8  -3   20.54    1.19
   2  -8   3   21.21    0.89
   2  -8   3   20.91    0.95
   2  -8   3   18.07    1.21
  -3   8  -3  238.99    6.23
  -3   8  -3  247.82    6.44
  -3   8  -3  246.60    6.25
   3  -8   3  249.20    6.32
   3  -8   3  244.29    6.26
   3  -8   3  235.98    6.23
  -4   8  -3  146.83    3.93
  -4   8  -3  142.62    3.95
  -4   8  -3  146.97    4.05
   4  -8   3  145.91    3.94
   4  -8   3  140.97    3.94
   4  -8   3  150.07    3.92
  -5   8  -3    8.41    0.71
  -5   8  -3    9.56    0.81
  -5   8  -3   10.00    0.87
   5  -8   3    9.95    0.61
   5  -8   3    9.53    0.77
   5  -8   3    9.18    0.77
  -6   8  -3  138.56    3.85
  -6   8  -3  141.21    3.81
  -6   8  -3  138.60    3.92
   6  -8   3  140.85    3.91
   6  -8   3  136.56    3.90
  -7   8  -3   82.53    2.36
  -7   8  -3   78.75    2.54
  -7   8  -3   85.14    2.65
  -7   8  -3   82.66    2.22
   7  -8   3   82.01    2.63
  -8   8  -3    1.13    0.54
   8  -8   3    0.77    0.49
   7   7  -3   38.61    1.93
  -7  -7   3   33.35    1.89
   6   7  -3    5.23    0.77
   6   7  -3    5.38    0.86
  -6  -7   3    3.64    0.76
   5   7  -3   50.68    2.16
   5   7  -3   49.15    1.72
  -5  -7   3   48.19    1.68
  -5  -7   3   49.25    2.02
   4   7  -3   81.42    2.37
   4   7  -3   76.83    3.37
  -4  -7   3   80.19    2.68
  -4  -7   3   77.90    2.50
   3   7  -3   28.24    1.11
   3   7  -3   30.46    1.65
  -3  -7   3   28.58    1.41
  -3  -7   3   28.08    1.08
   2   7  -3   74.70    2.62
   2   7  -3   77.33    2.19
  -2  -7   3   75.28    2.48
  -2  -7   3   74.32    1.93
  -2  -7   3   76.62    2.17
   1   7  -3  145.48    3.76
   1   7  -3  151.46    4.32
   1   7  -3  152.73    3.95
  -1  -7   3  149.24    3.93
  -1  -7   3  147.99    3.99
  -1  -7   3  156.97    4.26
   0   7  -3    2.73    0.42
   0   7  -3    1.98    0.46
   0   7  -3    3.05    0.39
   0  -7   3    3.37    0.61
   0  -7   3    3.14    0.37
   0  -7   3    2.53    0.37
  -1   7  -3   94.63    2.83
  -1   7  -3   92.86    2.59
  -1   7  -3   91.37    2.54
   1  -7   3   96.26    2.77
   1  -7   3   96.94    2.55
  -2   7  -3  248.90    6.95
  -2   7  -3  271.92    6.76
  -2   7  -3  260.16    6.55
   2  -7   3  252.26    6.55
   2  -7   3  269.46    6.68
   2  -7   3  258.66    6.55
  -3   7  -3    1.60    0.31
  -3   7  -3    1.34    0.31
  -3   7  -3    1.85    0.38
   3  -7   3    1.84    0.33
   3  -7   3    2.33    0.41
   3  -7   3    1.70    0.31
  -4   7  -3   59.20    1.85
  -4   7  -3   58.19    1.77
  -4   7  -3   56.37    1.82
   4  -7   3   57.45    1.79
   4  -7   3   56.27    1.80
   4  -7   3   57.01    1.73
  -5   7  -3  194.42    5.04
  -5   7  -3  181.20    5.55
  -5   7  -3  196.60    5.02
   5  -7   3  192.34    5.07
   5  -7   3  195.99    5.08
  -6   7  -3   37.72    1.18
  -6   7  -3   38.55    1.40
  -6   7  -3   37.66    1.48
  -6   7  -3   38.19    1.34
   6  -7   3   39.19    1.45
   6  -7   3   37.17    1.44
  -7   7  -3   40.36    1.20
  -7   7  -3   41.60    1.51
  -7   7  -3   40.45    1.32
  -7   7  -3   40.15    1.60
   7  -7   3   39.07    1.58
   7  -7   3   37.38    1.51
  -8   7  -3   46.85    1.80
   8  -7   3   42.29    1.78
   7   6  -3    4.01    0.70
  -7  -6   3    4.13    0.73
   6   6  -3   61.00    2.06
   6   6  -3   62.02    2.36
  -6  -6   3   60.23    2.24
   5   6  -3   82.97    2.47
   5   6  -3   83.17    2.84
  -5  -6   3   84.96    2.48
  -5  -6   3   80.43    2.70
   4   6  -3   11.07    1.18
   4   6  -3   10.37    0.71
  -4  -6   3   10.41    0.96
  -4  -6   3   10.87    0.66
   3   6  -3  146.65    3.99
   3   6  -3  152.54    4.42
  -3  -6   3  156.44    4.28
  -3  -6   3  153.95    4.01
   2   6  -3  174.66    4.87
   2   6  -3  174.71    4.56
  -2  -6   3  181.47    4.80
  -2  -6   3  178.70    4.52
  -2  -6   3  168.72    4.27
   1   6  -3   35.31    1.00
   1   6  -3   35.28    1.43
   1   6  -3   35.45    1.15
  -1  -6   3   35.90    1.36
  -1  -6   3   35.44    1.00
  -1  -6   3   35.25    1.13
   0   6  -3  291.19    7.28
   0   6  -3  286.61    7.19
   0   6  -3  293.77    7.50
   0  -6   3  293.66    7.27
   0  -6   3  286.80    7.19
   0  -6   3  304.42    7.49
  -1   6  -3  281.82    6.69
  -1   6  -3  266.89    6.85
  -1   6  -3  263.00    6.64
   1  -6   3  264.09    6.67
   1  -6   3  257.85    6.63
   1  -6   3  272.16    6.82
  -2   6  -3    2.82    0.41
  -2   6  -3    1.79    0.29
   2  -6   3    2.03    0.29
   2  -6   3    1.85    0.26
   2  -6   3    2.45    0.39
  -3   6  -3  246.42    6.13
  -3   6  -3  236.75    6.08
  -3   6  -3  243.32    6.06
   3  -6   3  238.73    6.08
   3  -6   3  240.43    6.08
   3  -6   3  235.19    6.06
  -4   6  -3   55.92    1.75
  -4   6  -3   55.84    1.76
  -4   6  -3   58.54    1.74
   4  -6   3   57.77    1.75
   4  -6   3   56.81    1.74
  -5   6  -3   10.60    0.67
  -5   6  -3   10.53    0.77
  -5   6  -3   10.25    0.66
   5  -6   3   11.20    0.73
   5  -6   3   10.49    0.70
  -6   6  -3   92.65    2.74
  -6   6  -3   89.73    2.48
  -6   6  -3   91.00    2.67
  -6   6  -3   96.67    2.56
   6  -6   3   92.67    2.73
   6  -6   3   95.39    2.71
  -7   6  -3   53.82    1.56
  -7   6  -3   54.30    1.88
  -7   6  -3   52.18    1.77
  -7   6  -3   53.97    1.53
   7  -6   3   52.57    1.81
   7  -6   3   54.99    1.89
  -8   6  -3    0.21    0.45
   8  -6   3   -0.38    0.44
  -9   6  -3   25.40    1.43
   9  -6   3   25.11    1.49
   8   5  -3   28.11    1.48
   8   5  -3   25.04    1.38
   7   5  -3   43.11    1.81
   7   5  -3   40.02    1.67
  -7  -5   3   40.39    1.76
   6   5  -3    3.88    0.63
  -6  -5   3    3.48    0.56
   5   5  -3  102.45    2.95
   5   5  -3  105.52    3.26
  -5  -5   3  105.03    3.10
   4   5  -3   94.32    2.57
   4   5  -3   91.07    2.90
  -4  -5   3   87.52    2.53
  -4  -5   3   88.53    2.81
   3   5  -3   15.77    1.07
   3   5  -3   14.36    0.72
  -3  -5   3   16.06    0.89
  -3  -5   3   15.69    0.70
   2   5  -3  159.33    4.13
   2   5  -3  163.15    4.40
  -2  -5   3  166.15    4.34
  -2  -5   3  156.23    4.12
   1   5  -3  497.12   12.04
   1   5  -3  491.18   11.91
   1   5  -3  498.85   12.25
  -1  -5   3  485.98   12.04
  -1  -5   3  507.50   12.24
  -1  -5   3  478.36   11.90
   0   5  -3    0.62    0.25
   0   5  -3    0.16    0.18
   0  -5   3    0.25    0.13
   0  -5   3    0.25    0.20
   0  -5   3    0.20    0.16
  -1   5  -3  251.49    6.31
  -1   5  -3  247.60    6.16
  -1   5  -3  248.71    6.19
   1  -5   3  250.37    6.19
   1  -5   3  244.74    6.16
   1  -5   3  252.10    6.29
  -2   5  -3  283.46    7.07
  -2   5  -3  292.69    7.17
  -2   5  -3  289.13    7.15
   2  -5   3  289.63    7.07
   2  -5   3  275.02    7.06
   2  -5   3  281.68    7.12
  -3   5  -3   21.87    0.80
  -3   5  -3   20.79    0.84
  -3   5  -3   22.87    0.85
   3  -5   3   19.78    0.78
   3  -5   3   20.97    0.81
   3  -5   3   25.08    0.85
  -4   5  -3  178.54    4.31
  -4   5  -3  167.63    4.29
  -4   5  -3  164.11    4.33
   4  -5   3  161.51    4.32
   4  -5   3  161.22    4.30
  -5   5  -3  195.90    4.84
  -5   5  -3  185.10    4.94
  -5   5  -3  187.05    4.77
  -5   5  -3  186.94    4.89
   5  -5   3  191.80    4.94
   5  -5   3  191.99    4.93
  -6   5  -3   18.40    0.95
  -6   5  -3   20.36    0.79
  -6   5  -3   18.22    1.05
  -6   5  -3   20.66    0.89
   6  -5   3   19.48    0.96
   6  -5   3   19.61    0.93
  -7   5  -3   25.46    0.92
  -7   5  -3   27.41    1.10
  -7   5  -3   25.84    0.91
  -7   5  -3   24.61    1.16
   7  -5   3   24.62    1.19
   7  -5   3   25.20    1.12
  -8   5  -3   65.20    2.17
   8  -5   3   64.70    2.21
   8  -5   3   63.58    2.40
  -9   5  -3    6.46    0.76
   9  -5   3    6.96    1.07
   8   4  -3   12.04    0.99
   8   4  -3    8.58    0.93
  -8  -4   3    9.81    1.02
   7   4  -3   23.76    1.23
   7   4  -3   23.19    1.27
  -7  -4   3   22.01    1.18
   6   4  -3  135.23    3.85
   6   4  -3  131.29    3.69
   5   4  -3   69.16    2.12
   5   4  -3   71.92    2.37
  -5  -4   3   70.87    2.18
   4   4  -3   48.87    1.54
   4   4  -3   50.34    1.84
  -4  -4   3   49.29    1.63
  -4  -4   3   49.16    1.53
   3   4  -3  180.91    4.75
   3   4  -3  181.58    4.55
  -3  -4   3  171.80    4.64
  -3  -4   3  175.20    4.53
   2   4  -3  184.98    4.78
   2   4  -3  195.77    4.96
  -2  -4   3  189.87    4.78
  -2  -4   3  189.13    4.92
   1   4  -3   83.49    2.14
   1   4  -3   84.90    2.25
  -1  -4   3   88.93    2.39
   0   4  -3  633.01   15.63
   0   4  -3  651.18   15.84
   0   4  -3  629.83   15.71
   0  -4   3  628.00   15.71
   0  -4   3  679.31   15.80
   0  -4   3  646.70   15.76
  -1   4  -3  141.79    3.55
  -1   4  -3  134.17    3.44
  -1   4  -3  132.77    3.45
   1  -4   3  140.82    3.46
   1  -4   3  136.44    3.52
   1  -4   3  134.39    3.53
  -2   4  -3   26.92    0.91
  -2   4  -3   27.00    0.85
   2  -4   3   26.97    0.86
   2  -4   3   26.45    0.86
   2  -4   3   25.80    0.88
  -3   4  -3  177.27    4.63
  -3   4  -3  187.27    4.68
  -3   4  -3  186.66    4.68
   3  -4   3  183.69    4.65
   3  -4   3  186.72    4.67
  -4   4  -3  221.41    5.73
  -4   4  -3  236.93    5.74
  -4   4  -3  226.32    5.74
  -4   4  -3  229.64    5.78
   4  -4   3  236.70    5.77
   4  -4   3  220.84    5.76
  -5   4  -3    0.72    0.29
  -5   4  -3    0.62    0.21
  -5   4  -3    0.82    0.26
   5  -4   3    1.14    0.33
   5  -4   3    1.08    0.27
  -6   4  -3   75.36    2.08
  -6   4  -3   75.77    2.09
  -6   4  -3   74.87    2.24
  -6   4  -3   74.25    2.17
   6  -4   3   75.84    2.20
   6  -4   3   72.35    2.22
  -7   4  -3   33.71    1.12
  -7   4  -3   33.87    1.34
   7  -4   3   35.75    1.29
   7  -4   3   35.32    1.44
  -8   4  -3    0.24    0.41
  -8   4  -3    0.24    0.23
  -8   4  -3    0.19    0.34
   8  -4   3    0.20    0.37
   8  -4   3   -0.24    0.44
  -9   4  -3   45.21    1.77
   9  -4   3   39.27    1.79
   8   3  -3   34.97    1.34
   8   3  -3   32.79    1.48
  -8  -3   3   32.52    1.31
   7   3  -3   35.39    1.46
   7   3  -3   38.75    1.48
   7   3  -3   38.58    1.50
  -7  -3   3   36.54    1.35
   6   3  -3    0.63    0.34
   6   3  -3    0.13    0.48
  -6  -3   3    0.06    0.27
   5   3  -3   66.29    2.15
   5   3  -3   66.98    1.99
  -5  -3   3   65.04    1.96
   4   3  -3  147.06    3.85
   4   3  -3  145.97    4.00
  -4  -3   3  147.53    3.87
   3   3  -3    3.67    0.54
   3   3  -3    3.01    0.36
  -3  -3   3    2.68    0.33
   2   3  -3  153.61    3.99
  -2  -3   3  148.91    3.89
  -2  -3   3  159.46    4.07
   1   3  -3  270.08    6.50
   1   3  -3  266.61    6.68
   1   3  -3  285.24    6.76
  -1  -3   3  265.07    6.49
  -1  -3   3  259.48    6.59
  -1  -3   3  265.31    6.68
   0   3  -3    2.74    0.23
   0   3  -3    2.32    0.31
   0   3  -3    1.80    0.25
   0  -3   3    2.37    0.29
   0  -3   3    2.05    0.23
   0  -3   3    2.41    0.20
  -1   3  -3   53.81    1.44
  -1   3  -3   55.24    1.52
  -1   3  -3   52.75    1.43
   1  -3   3   55.82    1.44
   1  -3   3   52.20    1.50
   1  -3   3   53.56    1.44
  -2   3  -3  245.27    6.10
  -2   3  -3  246.16    6.17
   2  -3   3  253.24    6.11
   2  -3   3  248.39    6.14
  -3   3  -3    3.38    0.33
  -3   3  -3    3.90    0.37
  -3   3  -3    2.95    0.32
  -3   3  -3    4.24    0.32
   3  -3   3    3.35    0.34
   3  -3   3    3.16    0.34
  -4   3  -3  232.03    5.70
  -4   3  -3  234.23    5.65
  -4   3  -3  220.05    5.66
  -4   3  -3  216.50    5.67
   4  -3   3  218.96    5.65
   4  -3   3  233.75    5.69
  -5   3  -3  157.88    4.00
  -5   3  -3  158.05    4.02
  -5   3  -3  156.94    4.06
  -5   3  -3  151.67    3.99
   5  -3   3  155.63    4.04
   5  -3   3  150.54    4.04
  -6   3  -3    3.86    0.43
  -6   3  -3    4.05    0.55
  -6   3  -3    3.82    0.45
   6  -3   3    3.93    0.60
   6  -3   3    4.52    0.52
  -7   3  -3   43.03    1.50
  -7   3  -3   44.20    1.39
  -7   3  -3   44.53    1.57
   7  -3   3   47.26    1.53
   7  -3   3   45.67    1.62
  -8   3  -3   64.59    2.09
  -8   3  -3   64.81    1.84
  -8   3  -3   63.90    1.99
   8  -3   3   60.58    2.00
   8  -3   3   64.88    2.17
  -9   3  -3    6.77    0.72
   9  -3   3    6.79    0.83
   9  -3   3    7.08    0.97
   9   2  -3   32.78    1.60
   8   2  -3   11.18    0.68
   8   2  -3    9.46    1.23
   8   2  -3    9.99    0.45
   8   2  -3    8.89    0.88
  -8  -2   3    8.98    0.62
  -8  -2   3   10.01    0.52
   7   2  -3   21.97    1.12
   7   2  -3   22.71    1.00
   7   2  -3   24.39    1.15
   7   2  -3   23.28    0.72
  -7  -2   3   23.18    0.78
  -7  -2   3   21.69    0.87
   6   2  -3  116.97    2.91
   6   2  -3  117.29    3.21
   6   2  -3  114.15    3.27
   6   2  -3  119.48    3.26
  -6  -2   3  113.64    2.94
  -6  -2   3  114.10    3.07
   5   2  -3   46.33    1.25
   5   2  -3   49.19    1.62
   5   2  -3   46.30    1.54
  -5  -2   3   50.72    1.30
  -5  -2   3   47.30    1.43
   4   2  -3   74.31    2.19
   4   2  -3   76.20    2.15
   4   2  -3   76.12    1.90
  -4  -2   3   77.01    2.13
  -4  -2   3   76.95    1.91
   3   2  -3  324.93    7.80
   3   2  -3  316.25    7.81
   3   2  -3  304.23    7.60
  -3  -2   3  314.81    7.77
   2   2  -3  426.02   10.22
   2   2  -3  434.49   10.26
   2   2  -3  431.01   10.31
   2   2  -3  404.99   10.32
  -2  -2   3  412.60   10.31
  -2  -2   3  426.94   10.30
   1   2  -3   34.25    1.01
   1   2  -3   33.78    0.88
   1   2  -3   34.12    0.96
  -1  -2   3   34.32    0.88
  -1  -2   3   32.90    0.95
   0   2  -3  310.50    7.46
   0   2  -3  300.58    7.46
   0   2  -3  301.74    7.55
   0  -2   3  305.15    7.46
   0  -2   3  318.77    7.55
  -1   2  -3  130.57    3.19
  -1   2  -3  127.97    3.29
   1  -2   3  129.33    3.19
   1  -2   3  129.12    3.23
  -2   2  -3   92.73    2.38
  -2   2  -3   91.93    2.41
  -2   2  -3   91.87    2.32
   2  -2   3   92.85    2.33
   2  -2   3   90.98    2.38
  -3   2  -3  389.58    9.52
  -3   2  -3  394.07    9.58
   3  -2   3  393.05    9.58
   3  -2   3  388.11    9.53
  -4   2  -3   80.87    2.22
  -4   2  -3   81.76    2.21
  -4   2  -3   79.31    2.15
   4  -2   3   82.31    2.21
   4  -2   3   79.56    2.17
  -5   2  -3    4.83    0.49
  -5   2  -3    3.22    0.53
   5  -2   3    3.47    0.42
   5  -2   3    3.35    0.49
  -6   2  -3  123.64    3.40
  -6   2  -3  123.74    3.35
   6  -2   3  126.17    3.34
   6  -2   3  123.83    3.38
  -7   2  -3   27.80    1.15
  -7   2  -3   27.80    1.35
   7  -2   3   27.52    1.20
   7  -2   3   29.20    1.11
  -8   2  -3   10.04    1.05
  -8   2  -3   11.33    0.87
  -8   2  -3   12.73    0.75
   8  -2   3   12.04    0.99
   8  -2   3   11.51    0.80
   8  -2   3   11.91    0.97
   9   1  -3   -0.92    0.46
  -9  -1   3    0.08    0.31
   8   1  -3   56.74    2.06
   8   1  -3   59.89    1.65
   8   1  -3   56.89    2.06
  -8  -1   3   61.45    1.73
   7   1  -3   85.40    2.27
   7   1  -3   84.47    2.22
   7   1  -3   86.79    2.58
   7   1  -3   80.10    2.57
  -7  -1   3   82.06    2.18
  -7  -1   3   86.69    2.29
   6   1  -3    0.51    0.28
   6   1  -3    0.34    0.17
   6   1  -3    0.49    0.33
   6   1  -3    0.08    0.32
  -6  -1   3    0.37    0.23
  -6  -1   3    0.38    0.15
   5   1  -3  179.65    4.73
   5   1  -3  182.52    4.50
   5   1  -3  182.20    4.65
   5   1  -3  186.34    4.76
  -5  -1   3  180.35    4.53
  -5  -1   3  178.00    4.52
   4   1  -3  266.29    6.56
   4   1  -3  262.58    6.49
   4   1  -3  255.96    6.36
  -4  -1   3  256.45    6.41
  -4  -1   3  262.74    6.39
   3   1  -3   21.60    0.77
   3   1  -3   20.92    0.64
   3   1  -3   19.88    0.70
  -3  -1   3   23.66    0.74
  -3  -1   3   20.19    0.63
   2   1  -3  466.68   11.44
   2   1  -3  470.88   11.45
   2   1  -3  472.57   11.59
  -2  -1   3  472.76   11.57
   1   1  -3  437.08   10.39
   1   1  -3  412.39   10.61
   1   1  -3  431.47   10.46
  -1  -1   3  425.44   10.36
   0   1  -3   15.51    0.45
   0  -1   3   15.25    0.45
  -1   1  -3  475.40   12.08
  -1   1  -3  491.23   11.83
  -1   1  -3  488.43   11.81
   1  -1   3  496.70   11.94
  -2   1  -3  251.21    6.35
  -2   1  -3  248.94    6.17
  -2   1  -3  260.15    6.26
   2  -1   3  247.07    6.17
   2  -1   3  257.42    6.25
   2  -1   3  260.05    6.32
  -3   1  -3    7.62    0.42
  -3   1  -3    7.55    0.51
   3  -1   3    7.84    0.41
   3  -1   3    7.80    0.48
   3  -1   3    8.53    0.39
  -4   1  -3  157.21    4.02
  -4   1  -3  157.66    4.11
   4  -1   3  158.19    4.09
   4  -1   3  157.19    3.99
   4  -1   3  157.33    4.02
  -5   1  -3  146.47    3.93
  -5   1  -3  153.82    3.83
   5  -1   3  134.62    3.91
   5  -1   3  149.77    3.87
   5  -1   3  148.11    3.82
  -6   1  -3   20.82    0.90
  -6   1  -3   21.17    1.09
   6  -1   3   20.98    0.86
   6  -1   3   20.32    0.93
   6  -1   3   19.57    0.86
   6  -1   3   21.40    0.91
  -7   1  -3   27.78    1.36
  -7   1  -3   31.40    1.46
   7  -1   3   31.99    1.23
   7  -1   3   32.00    1.16
   7  -1   3   32.08    1.28
  -8   1  -3   27.91    1.21
  -8   1  -3   23.67    1.59
   8  -1   3   27.48    1.12
   8  -1   3   27.48    1.32
   8  -1   3   28.75    1.28
   9   0  -3   51.18    2.05
   9   0  -3   55.66    1.73
  -9   0   3   57.24    1.74
   8   0  -3   10.30    0.90
   8   0  -3   11.19    0.96
  -8   0   3   11.84    0.73
   7   0  -3    8.63    0.78
   7   0  -3    8.61    0.78
   7   0  -3    9.06    0.50
  -7   0   3    8.69    0.62
   6   0  -3   66.72    1.80
   6   0  -3   66.21    2.03
   6   0  -3   64.42    2.05
  -6   0   3   63.86    1.86
   5   0  -3   50.77    1.40
   5   0  -3   50.03    1.40
   5   0  -3   49.25    1.60
  -5   0   3   49.08    1.45
   4   0  -3   25.72    1.00
   4   0  -3   25.49    0.94
   4   0  -3   26.83    0.79
  -4   0   3   24.29    0.83
   3   0  -3  384.33    9.11
   3   0  -3  369.27    9.00
  -3   0   3  361.87    9.00
  -3   0   3  363.27    9.07
   2   0  -3    5.90    0.32
   2   0  -3    6.20    0.36
   2   0  -3    5.97    0.32
  -2   0   3    7.04    0.32
   1   0  -3  178.80    4.45
   1   0  -3  180.02    4.41
   0   0  -3  253.01    5.96
   0   0  -3  258.01    6.00
   0   0  -3  238.65    6.06
   0   0  -3  222.17    5.96
   0   0   3  253.56    6.07
  -1   0  -3  301.47    7.29
  -1   0  -3  288.16    7.38
   1   0   3  306.00    7.39
  -2   0  -3   50.90    1.39
  -2   0  -3   50.95    1.51
   2   0   3   50.18    1.38
   2   0   3   50.34    1.29
   2   0   3   49.40    1.28
   2   0   3   51.06    1.50
  -3   0  -3  326.74    8.05
  -3   0  -3  337.76    8.21
   3   0   3  314.39    7.97
   3   0   3  324.83    8.18
   3   0   3  335.14    8.06
   3   0   3  328.37    7.99
  -4   0  -3   76.22    2.24
  -4   0  -3   74.84    2.04
   4   0   3   75.18    2.03
   4   0   3   73.21    1.98
   4   0   3   75.52    2.02
   4   0   3   73.42    2.17
  -5   0  -3   12.58    0.62
  -5   0  -3   11.14    0.90
   5   0   3   12.46    0.66
   5   0   3   11.53    0.74
   5   0   3   11.77    0.58
  -6   0  -3  109.89    3.24
  -6   0  -3  104.08    2.87
   6   0   3  102.37    2.85
   6   0   3  105.47    2.92
   6   0   3  106.64    2.86
   6   0   3  106.14    3.00
  -7   0  -3   35.28    1.82
  -7   0  -3   38.93    1.74
   7   0   3   39.22    1.40
   7   0   3   38.63    1.32
   7   0   3   41.78    1.45
   7   0   3   39.48    1.46
  -8   0  -3    3.83    0.53
  -8   0  -3    2.23    0.81
   8   0   3    3.11    0.42
   8   0   3    3.47    0.61
   8   0   3    4.16    0.56
   9  -1  -3    6.28    0.96
   9  -1  -3    7.03    0.66
  -9   1   3    7.13    0.78
   8  -1  -3   43.18    1.72
   8  -1  -3   45.31    1.42
   8  -1  -3   43.35    1.71
  -8   1   3   45.97    1.51
   7  -1  -3   34.92    1.48
   7  -1  -3   39.18    1.48
  -7   1   3   38.27    1.31
   6  -1  -3   31.51    1.04
   6  -1  -3   31.94    1.24
  -6   1   3   29.84    1.11
   5  -1  -3  221.14    5.67
   5  -1  -3  220.63    5.52
  -5   1   3  219.54    5.56
   4  -1  -3   68.80    1.97
   4  -1  -3   68.98    1.88
   4  -1  -3   68.20    1.74
   4  -1  -3   70.23    1.77
  -4   1   3   67.81    1.90
   3  -1  -3    3.05    0.35
   3  -1  -3    3.01    0.27
   3  -1  -3    3.83    0.36
  -3   1   3    3.09    0.34
   2  -1  -3  275.06    6.47
   2  -1  -3  259.86    6.45
   2  -1  -3  255.81    6.45
  -2   1   3  262.11    6.47
  -2   1   3  258.03    6.44
  -2   1   3  264.35    6.43
   1  -1  -3   83.40    2.21
   1  -1  -3   83.74    2.11
   1  -1  -3   81.02    2.13
  -1   1   3   83.42    2.12
  -1   1   3   83.23    2.19
   0  -1  -3   12.16    0.46
   0  -1  -3   11.56    0.64
   0  -1  -3   11.87    0.37
   0   1   3   12.04    0.57
   0   1   3   12.57    0.37
  -1  -1  -3  230.40    5.49
  -1  -1  -3  209.87    5.62
   1   1   3  227.01    5.63
  -2  -1  -3  261.93    6.90
  -2  -1  -3  278.46    6.72
   2   1   3  280.60    6.92
   2   1   3  278.31    6.73
   2   1   3  267.53    6.61
  -3  -1  -3   17.03    0.63
  -3  -1  -3   16.44    0.90
   3   1   3   17.13    0.62
   3   1   3   16.00    0.85
   3   1   3   16.64    0.54
   3   1   3   16.73    0.58
  -4  -1  -3   40.36    1.52
  -4  -1  -3   39.09    1.18
   4   1   3   38.24    1.42
   4   1   3   36.50    1.11
   4   1   3   37.70    1.16
   4   1   3   38.29    1.17
  -5  -1  -3   78.47    3.20
  -5  -1  -3   90.55    2.38
   5   1   3   89.42    2.39
   5   1   3   84.69    2.32
   5   1   3   89.04    2.61
  -6  -1  -3    0.16    0.26
  -6  -1  -3   -0.42    0.49
   6   1   3    0.42    0.29
   6   1   3    0.01    0.30
   6   1   3    0.22    0.32
   6   1   3    0.11    0.22
  -7  -1  -3   63.86    2.53
  -7  -1  -3   69.61    2.09
   7   1   3   68.60    1.99
   7   1   3   69.80    2.12
   7   1   3   64.71    2.03
   7   1   3   67.04    2.20
  -8  -1  -3   34.02    1.36
   8   1   3   33.11    1.67
   8   1   3   33.34    1.28
   8   1   3   36.24    1.91
   9  -2  -3   25.88    1.41
   9  -2  -3   25.68    1.08
  -9   2   3   27.20    1.21
   8  -2  -3    4.81    0.77
   8  -2  -3    4.37    0.44
  -8   2   3    3.95    0.50
   7  -2  -3   33.98    1.19
   7  -2  -3   33.99    1.41
  -7   2   3   34.58    1.27
   6  -2  -3  293.08    7.29
   6  -2  -3  289.82    7.43
  -6   2   3  286.16    7.30
   5  -2  -3    9.35    0.59
   5  -2  -3    9.53    0.66
  -5   2   3    8.86    0.63
   4  -2  -3   21.37    0.85
   4  -2  -3   21.19    0.80
   4  -2  -3   22.13    0.69
  -4   2   3   19.73    0.81
  -4   2   3   19.87    0.81
   3  -2  -3  301.97    7.69
   3  -2  -3  323.02    7.72
   3  -2  -3  305.50    7.65
  -3   2   3  312.77    7.60
  -3   2   3  327.14    7.73
  -3   2   3  299.36    7.69
   2  -2  -3  386.22    9.80
   2  -2  -3  400.26    9.85
   2  -2  -3  410.31    9.80
  -2   2   3  415.80    9.82
  -2   2   3  391.00    9.80
  -2   2   3  404.59    9.80
   1  -2  -3  207.48    5.27
   1  -2  -3  216.73    5.23
  -1   2   3  216.03    5.35
  -1   2   3  214.42    5.50
  -1   2   3  209.29    5.23
   0  -2  -3  396.09    9.34
   0  -2  -3  383.38    9.53
   0  -2  -3  382.60    9.34
   0   2   3  387.97    9.34
   0   2   3  366.40    9.48
  -1  -2  -3  155.66    4.08
  -1  -2  -3  150.56    3.72
  -1  -2  -3  155.69    3.82
   1   2   3  149.07    4.03
   1   2   3  150.23    3.72
  -2  -2  -3  142.00    3.80
  -2  -2  -3  138.64    3.56
  -2  -2  -3  143.53    3.86
  -2  -2  -3  140.87    3.47
   2   2   3  140.84    3.83
   2   2   3  137.84    3.46
  -3  -2  -3  234.16    5.73
  -3  -2  -3  233.48    6.08
   3   2   3  223.16    5.64
   3   2   3  230.15    6.03
  -4  -2  -3   49.33    1.41
  -4  -2  -3   47.91    1.84
   4   2   3   48.75    1.42
   4   2   3   47.47    1.35
   4   2   3   47.34    1.74
   4   2   3   46.57    1.39
  -5  -2  -3   26.64    0.96
  -5  -2  -3   26.18    1.45
  -5  -2  -3   29.60    1.66
   5   2   3   26.14    0.98
   5   2   3   27.24    1.27
   5   2   3   26.22    0.92
   5   2   3   25.92    0.95
  -6  -2  -3   84.90    2.91
  -6  -2  -3   84.91    2.35
   6   2   3   85.43    2.67
   6   2   3   84.44    2.41
   6   2   3   85.76    2.35
   6   2   3   76.77    2.46
  -7  -2  -3    9.38    0.76
  -7  -2  -3    7.34    0.99
   7   2   3   10.73    1.01
   7   2   3    9.94    0.83
   7   2   3    8.52    0.68
   7   2   3    9.17    0.83
   9  -3  -3    2.91    0.48
   9  -3  -3    3.48    0.67
  -9   3   3    4.43    0.55
   8  -3  -3   28.82    1.16
   8  -3  -3   29.49    1.39
  -8   3   3   30.29    1.26
   7  -3  -3   66.33    1.97
   7  -3  -3   62.72    2.13
  -7   3   3   65.77    2.04
   6  -3  -3    2.05    0.36
   6  -3  -3    1.87    0.41
  -6   3   3    1.65    0.38
   5  -3  -3  254.23    6.54
   5  -3  -3  257.67    6.59
  -5   3   3  266.70    6.58
  -5   3   3  252.36    6.53
   4  -3  -3  142.81    3.66
   4  -3  -3  135.20    3.54
   4  -3  -3  137.32    3.62
  -4   3   3  141.11    3.65
  -4   3   3  134.59    3.44
  -4   3   3  138.65    3.64
   3  -3  -3    8.96    0.52
   3  -3  -3    9.57    0.62
   3  -3  -3    8.34    0.54
  -3   3   3    8.24    0.54
  -3   3   3    8.70    0.44
  -3   3   3    8.98    0.50
   2  -3  -3  460.55   11.52
   2  -3  -3  460.14   11.42
   2  -3  -3  472.81   11.38
  -2   3   3  481.61   11.45
  -2   3   3  453.24   11.40
  -2   3   3  472.69   11.39
   1  -3  -3  107.99    2.84
   1  -3  -3  109.65    2.78
   1  -3  -3  109.48    3.03
  -1   3   3  110.87    2.78
  -1   3   3  107.59    2.96
   0  -3  -3   30.21    0.86
   0  -3  -3   29.01    0.93
   0  -3  -3   29.87    1.22
   0   3   3   30.19    0.86
   0   3   3   28.32    1.14
  -1  -3  -3  194.23    4.84
  -1  -3  -3  192.37    4.93
  -1  -3  -3  205.77    5.27
  -1  -3  -3  202.68    4.94
   1   3   3  195.09    4.85
   1   3   3  195.05    5.22
  -2  -3  -3  288.25    6.94
  -2  -3  -3  286.20    7.32
  -2  -3  -3  279.50    6.86
   2   3   3  274.10    6.86
   2   3   3  276.56    7.29
  -3  -3  -3   11.99    1.06
  -3  -3  -3   10.57    0.51
   3   3   3   10.75    0.94
   3   3   3   11.04    0.67
  -4  -3  -3  140.70    4.07
  -4  -3  -3  137.41    3.53
   4   3   3  135.00    3.95
   4   3   3  133.91    3.48
  -5  -3  -3   64.95    1.83
  -5  -3  -3   63.09    2.44
   5   3   3   64.98    2.27
   5   3   3   62.55    1.80
   5   3   3   63.10    1.86
  -6  -3  -3   -0.90    0.64
  -6  -3  -3   -0.04    0.27
   6   3   3    0.72    0.43
   6   3   3    0.45    0.35
   6   3   3    0.12    0.34
  -7  -3  -3   10.86    1.21
  -7  -3  -3   13.79    1.00
   7   3   3   14.76    1.12
   7   3   3   14.07    0.92
   7   3   3   13.68    0.97
   9  -4  -3   31.57    1.35
   9  -4  -3   34.49    1.65
  -9   4   3   36.21    1.48
   8  -4  -3    3.40    0.59
   8  -4  -3    2.63    0.45
  -8   4   3    2.31    0.46
   7  -4  -3   38.01    1.53
   7  -4  -3   41.49    1.42
  -7   4   3   35.84    1.68
   6  -4  -3  134.15    3.63
  -6   4   3  133.73    3.69
  -6   4   3  134.06    3.67
   5  -4  -3    0.36    0.31
   5  -4  -3    0.07    0.30
  -5   4   3    0.19    0.30
  -5   4   3    0.25    0.27
   4  -4  -3  116.63    3.13
   4  -4  -3  117.69    3.15
  -4   4   3  115.52    3.15
  -4   4   3  114.59    2.98
   3  -4  -3  191.44    5.07
   3  -4  -3  198.02    5.17
   3  -4  -3  199.63    5.05
  -3   4   3  198.29    5.03
  -3   4   3  204.62    5.05
  -3   4   3  198.01    5.07
   2  -4  -3   23.94    0.84
   2  -4  -3   25.01    1.13
   2  -4  -3   23.11    0.90
  -2   4   3   23.05    0.86
  -2   4   3   24.20    0.84
  -2   4   3   23.61    0.95
   1  -4  -3  183.62    4.65
   1  -4  -3  189.48    4.74
   1  -4  -3  186.62    4.99
  -1   4   3  184.56    4.90
  -1   4   3  187.55    4.67
   0  -4  -3  157.83    4.35
   0  -4  -3  156.15    4.01
   0  -4  -3  155.62    3.92
   0   4   3  155.19    4.28
   0   4   3  156.14    3.98
   0   4   3  159.91    4.32
  -1  -4  -3   46.77    1.35
  -1  -4  -3   45.83    1.27
  -1  -4  -3   47.86    1.38
  -1  -4  -3   45.21    1.84
   1   4   3   45.31    1.74
   1   4   3   47.23    1.42
  -2  -4  -3   33.51    1.06
  -2  -4  -3   33.65    0.99
  -2  -4  -3   33.01    1.04
  -2  -4  -3   33.73    1.59
   2   4   3   32.10    1.48
   2   4   3   33.44    1.00
  -3  -4  -3  105.70    2.79
  -3  -4  -3  107.20    2.76
  -3  -4  -3  110.11    3.39
   3   4   3  102.90    2.75
   3   4   3  105.28    3.29
  -4  -4  -3   31.90    1.75
  -4  -4  -3   33.71    1.07
   4   4   3   31.13    2.12
   4   4   3   32.28    1.05
  -5  -4  -3   26.33    1.76
  -5  -4  -3   27.94    1.02
   5   4   3   29.41    1.53
   5   4   3   30.04    1.04
  -6  -4  -3   83.01    3.24
  -6  -4  -3   83.23    2.37
   6   4   3   86.56    2.89
   6   4   3   84.88    2.41
   6   4   3   83.08    2.46
   7   4   3   14.09    1.04
   7   4   3   17.06    1.32
   9  -5  -3    5.39    0.80
  -9   5   3    7.05    0.91
   8  -5  -3   96.51    2.88
   8  -5  -3   99.36    3.08
  -8   5   3   98.47    2.95
   7  -5  -3   66.85    2.11
   7  -5  -3   65.07    2.21
  -7   5   3   65.48    2.14
  -7   5   3   67.01    2.18
   6  -5  -3   14.28    0.91
  -6   5   3   15.79    0.87
   5  -5  -3   82.99    2.43
   5  -5  -3   81.69    2.42
   5  -5  -3   81.94    2.22
  -5   5   3   77.01    2.13
  -5   5   3   81.45    2.42
  -5   5   3   84.46    2.42
   4  -5  -3   49.94    1.68
   4  -5  -3   52.63    1.65
   4  -5  -3   53.49    1.73
  -4   5   3   51.85    1.67
  -4   5   3   53.01    1.55
  -4   5   3   52.17    1.63
   3  -5  -3   10.08    0.91
   3  -5  -3    8.63    0.65
   3  -5  -3    8.69    0.59
  -3   5   3    8.44    0.60
  -3   5   3    8.17    0.64
  -3   5   3    9.15    0.57
   2  -5  -3  188.07    4.78
   2  -5  -3  177.36    4.87
   2  -5  -3  198.24    5.13
  -2   5   3  180.92    4.79
  -2   5   3  188.00    4.95
  -2   5   3  192.18    4.78
   1  -5  -3  119.08    3.17
   1  -5  -3  118.22    3.51
   1  -5  -3  116.53    3.07
  -1   5   3  117.56    3.40
  -1   5   3  121.19    3.10
   0  -5  -3    8.52    0.45
   0  -5  -3    8.93    0.58
   0  -5  -3    8.70    1.01
   0   5   3    8.31    1.29
   0   5   3    8.99    0.49
   0   5   3    8.22    0.91
  -1  -5  -3  204.17    5.75
  -1  -5  -3  210.24    5.24
  -1  -5  -3  207.51    5.17
  -1  -5  -3  211.23    5.27
   1   5   3  210.84    5.20
   1   5   3  201.72    5.68
  -2  -5  -3   33.74    1.08
  -2  -5  -3   33.80    1.04
  -2  -5  -3   33.68    1.14
  -2  -5  -3   34.84    1.74
   2   5   3   34.37    1.64
   2   5   3   34.63    1.08
  -3  -5  -3    9.13    0.52
  -3  -5  -3    9.60    1.26
  -3  -5  -3    8.41    0.95
  -3  -5  -3    9.42    0.51
   3   5   3    8.51    1.11
   3   5   3    9.68    0.55
  -4  -5  -3   84.52    2.25
  -4  -5  -3   79.21    2.99
  -4  -5  -3   79.28    2.27
   4   5   3   81.54    2.85
   4   5   3   81.63    2.25
  -5  -5  -3   96.67    3.53
  -5  -5  -3   97.98    2.71
  -5  -5  -3   98.17    2.66
   5   5   3  101.08    3.30
   5   5   3   95.36    2.82
  -6  -5  -3    1.59    0.39
  -6  -5  -3    2.74    0.49
   6   5   3    2.06    0.45
   6   5   3    3.31    0.78
   6   5   3    3.28    0.66
   9  -6  -3   22.75    1.45
  -9   6   3   23.16    1.31
   8  -6  -3    0.87    0.48
  -8   6   3    1.03    0.46
   7  -6  -3   50.89    1.88
   7  -6  -3   51.89    1.81
  -7   6   3   52.13    1.83
  -7   6   3   49.67    1.83
   6  -6  -3   62.54    2.04
   6  -6  -3   63.40    1.68
   6  -6  -3   61.38    2.05
  -6   6   3   58.91    1.63
  -6   6   3   63.37    2.05
  -6   6   3   64.03    2.05
   5  -6  -3   23.76    1.14
   5  -6  -3   26.54    1.01
  -5   6   3   24.19    0.89
  -5   6   3   25.43    1.09
   4  -6  -3   86.70    2.57
   4  -6  -3   85.88    2.52
   4  -6  -3   89.15    2.64
  -4   6   3   89.95    2.52
  -4   6   3   85.99    2.54
  -4   6   3   85.40    2.46
   3  -6  -3  281.46    7.34
   3  -6  -3  305.87    7.58
   3  -6  -3  290.79    7.27
  -3   6   3  278.53    7.27
  -3   6   3  287.57    7.30
  -3   6   3  288.34    7.37
   2  -6  -3    2.36    0.66
   2  -6  -3    2.63    0.36
   2  -6  -3    4.15    0.60
  -2   6   3    2.67    0.36
  -2   6   3    2.02    0.44
  -2   6   3    2.95    0.46
   1  -6  -3   86.35    2.37
   1  -6  -3   85.36    2.48
   1  -6  -3   90.83    2.94
  -1   6   3   85.06    2.75
  -1   6   3   89.08    2.40
   0  -6  -3  444.02   11.44
   0  -6  -3  435.51   10.83
   0  -6  -3  440.24   10.94
   0   6   3  459.76   11.35
   0   6   3  426.84   11.30
   0   6   3  446.43   10.86
  -1  -6  -3  193.20    5.60
  -1  -6  -3  198.75    4.98
  -1  -6  -3  196.04    4.92
  -1  -6  -3  199.04    5.04
   1   6   3  184.29    5.47
   1   6   3  199.69    4.96
  -2  -6  -3   89.02    2.47
  -2  -6  -3   87.90    3.12
  -2  -6  -3   90.01    2.40
  -2  -6  -3   87.60    2.40
   2   6   3   87.60    2.39
   2   6   3   84.03    3.11
  -3  -6  -3  122.81    3.22
  -3  -6  -3  125.55    3.22
  -3  -6  -3  121.09    3.27
  -3  -6  -3  120.99    3.99
   3   6   3  119.97    3.87
   3   6   3  119.84    3.23
  -4  -6  -3   28.66    1.01
  -4  -6  -3   26.93    1.90
  -4  -6  -3   27.95    1.13
   4   6   3   26.96    1.62
  -5  -6  -3   15.88    0.96
  -5  -6  -3   14.51    0.79
   5   6   3   16.21    0.95
   5   6   3   17.43    1.43
   8  -7  -3   52.89    2.07
  -8   7   3   53.56    1.98
   7  -7  -3   21.65    1.44
   7  -7  -3   23.51    1.25
  -7   7   3   23.01    1.23
   6  -7  -3   15.48    1.02
   6  -7  -3   15.02    0.67
   6  -7  -3   14.57    0.99
  -6   7   3   14.09    0.95
  -6   7   3   14.75    0.97
  -6   7   3   14.53    0.63
   5  -7  -3  130.61    3.64
   5  -7  -3  126.19    3.52
   5  -7  -3  129.08    3.60
  -5   7   3  132.89    3.60
  -5   7   3  123.14    3.42
  -5   7   3  126.81    3.59
   4  -7  -3  127.69    3.63
   4  -7  -3  119.87    3.51
   4  -7  -3  124.93    3.46
  -4   7   3  125.89    3.46
  -4   7   3  127.31    3.47
  -4   7   3  123.33    3.46
   3  -7  -3   59.78    1.99
   3  -7  -3   65.31    2.29
   3  -7  -3   62.44    1.90
  -3   7   3   62.26    1.92
  -3   7   3   61.23    2.07
  -3   7   3   62.30    1.93
   2  -7  -3  166.71    4.53
   2  -7  -3  173.21    4.92
   2  -7  -3  171.39    4.42
  -2   7   3  167.76    4.44
  -2   7   3  164.88    4.71
  -2   7   3  173.36    4.45
   1  -7  -3   36.27    1.20
   1  -7  -3   38.59    1.87
   1  -7  -3   37.02    1.37
  -1   7   3   34.33    1.65
  -1   7   3   35.80    1.30
   0  -7  -3    1.32    0.66
   0  -7  -3    2.12    0.30
   0  -7  -3    1.92    0.40
   0   7   3    2.68    0.39
   0   7   3    2.06    0.79
   0   7   3    4.06    0.77
  -1  -7  -3  128.46    3.31
  -1  -7  -3  128.83    4.10
  -1  -7  -3  125.33    3.43
  -1  -7  -3  124.32    3.34
   1   7   3  126.90    3.35
   1   7   3  120.51    3.93
  -2  -7  -3   37.03    2.06
  -2  -7  -3   40.23    1.25
  -2  -7  -3   38.15    1.26
  -2  -7  -3   38.61    1.39
   2   7   3   37.68    1.94
  -3  -7  -3   15.15    0.73
  -3  -7  -3   15.33    0.74
  -3  -7  -3   13.83    1.61
  -3  -7  -3   16.67    0.94
   3   7   3   15.76    0.85
   3   7   3   15.03    1.43
  -4  -7  -3   47.50    1.51
  -4  -7  -3   47.16    1.67
   4   7   3   45.41    2.23
   4   7   3   48.62    1.62
  -5  -7  -3   36.58    1.42
   5   7   3   33.63    2.02
   8  -8  -3    0.24    0.56
  -8   8   3    1.66    0.53
   7  -8  -3   81.08    2.71
   7  -8  -3   88.01    2.30
  -7   8   3   78.33    2.64
   6  -8  -3   75.42    2.87
   6  -8  -3   70.11    2.12
   6  -8  -3   66.82    2.29
  -6   8   3   66.15    2.29
  -6   8   3   66.11    2.17
  -6   8   3   70.64    2.29
   5  -8  -3    1.71    0.44
   5  -8  -3    1.50    0.48
  -5   8   3    2.09    0.46
  -5   8   3    1.84    0.38
  -5   8   3    1.36    0.44
   4  -8  -3   98.13    3.00
   4  -8  -3   93.44    2.86
   4  -8  -3   93.81    2.77
  -4   8   3   90.94    2.76
  -4   8   3   95.11    2.79
  -4   8   3   94.27    2.82
   3  -8  -3  196.00    5.17
   3  -8  -3  193.50    5.46
   3  -8  -3  184.41    5.08
  -3   8   3  189.45    5.25
  -3   8   3  189.95    5.06
  -3   8   3  198.13    5.08
   2  -8  -3   13.08    0.93
   2  -8  -3   14.04    0.74
   2  -8  -3   14.82    1.35
  -2   8   3   14.06    0.83
  -2   8   3   12.69    1.30
  -2   8   3   13.10    0.77
   1  -8  -3   64.61    2.14
   1  -8  -3   66.30    1.97
   1  -8  -3   69.73    2.67
  -1   8   3   68.66    2.04
  -1   8   3   65.26    2.45
   0  -8  -3   84.78    2.35
   0  -8  -3   81.38    2.70
   0  -8  -3   86.80    3.16
   0   8   3   84.61    2.90
   0   8   3   80.73    2.93
   0   8   3   83.96    2.42
  -1  -8  -3    2.10    0.47
  -1  -8  -3    1.44    0.75
  -1  -8  -3    1.64    0.34
  -1  -8  -3    1.89    0.31
   1   8   3    2.20    0.63
   1   8   3    1.34    0.41
  -2  -8  -3   54.73    1.85
  -2  -8  -3   55.91    1.67
  -2  -8  -3   50.07    1.81
   2   8   3   53.45    1.75
   2   8   3   55.31    2.41
  -3  -8  -3   76.01    2.19
  -3  -8  -3   74.01    2.34
   3   8   3   74.59    2.96
   3   8   3   75.93    2.29
  -4  -8  -3    9.28    0.73
  -4  -8  -3   10.22    0.75
   4   8   3    9.82    1.47
   7  -9  -3   13.72    1.15
  -7   9   3   14.43    0.69
  -7   9   3   14.45    1.14
   6  -9  -3   23.91    1.26
   6  -9  -3   23.70    1.11
  -6   9   3   23.70    1.06
  -6   9   3   20.56    1.20
   5  -9  -3   72.75    2.31
   5  -9  -3   68.25    2.34
  -5   9   3   69.54    2.29
  -5   9   3   67.82    2.31
  -5   9   3   72.21    2.25
   4  -9  -3   27.19    1.43
   4  -9  -3   28.54    1.25
   4  -9  -3   29.89    1.56
  -4   9   3   30.70    1.41
  -4   9   3   29.78    1.28
  -4   9   3   30.02    1.33
   3  -9  -3   21.24    1.49
   3  -9  -3   22.68    1.27
   3  -9  -3   21.02    1.02
  -3   9   3   22.65    1.06
  -3   9   3   22.68    1.12
  -3   9   3   22.69    1.31
   2  -9  -3   89.20    2.77
   2  -9  -3   86.33    2.55
   2  -9  -3   90.27    3.20
  -2   9   3   88.30    2.58
  -2   9   3   87.83    2.98
  -2   9   3   89.02    2.63
   1  -9  -3   60.99    2.61
   1  -9  -3   53.51    2.23
   1  -9  -3   63.26    2.11
  -1   9   3   60.21    2.39
  -1   9   3   60.71    1.94
   0  -9  -3   13.88    0.72
   0  -9  -3   12.88    1.03
   0  -9  -3   10.20    1.44
   0   9   3   13.15    0.91
   0   9   3   10.63    1.29
   0   9   3   13.45    1.24
  -1  -9  -3   97.17    2.77
  -1  -9  -3  100.62    2.96
  -1  -9  -3  101.52    2.77
   1   9   3   95.44    2.85
   1   9   3   97.41    3.50
  -2  -9  -3   45.61    1.53
  -2  -9  -3   47.17    1.78
   2   9   3   47.46    2.33
   2   9   3   44.70    1.69
  -3  -9  -3    4.42    0.64
  -3  -9  -3    4.38    0.61
  -3  -9  -3    4.62    0.64
   3   9   3    3.58    0.85
   7 -10  -3   26.47    1.57
   6 -10  -3   58.71    2.06
   6 -10  -3   61.13    2.18
  -6  10   3   59.18    2.15
  -6  10   3   59.00    2.00
   5 -10  -3    0.39    0.42
  -5  10   3    0.53    0.44
  -5  10   3    0.13    0.40
   4 -10  -3   75.57    2.73
   4 -10  -3   76.09    2.41
  -4  10   3   75.64    2.42
  -4  10   3   76.62    2.78
  -4  10   3   75.00    2.57
   3 -10  -3   89.32    2.66
   3 -10  -3   90.04    3.19
  -3  10   3   85.01    2.74
  -3  10   3   90.11    3.01
  -3  10   3   89.29    2.68
   2 -10  -3    3.91    0.70
   2 -10  -3    3.00    0.82
   2 -10  -3    5.29    0.61
  -2  10   3    5.33    0.67
  -2  10   3    6.64    1.10
   1 -10  -3   42.12    1.46
   1 -10  -3   41.63    1.79
  -1  10   3   41.93    2.05
  -1  10   3   41.07    1.62
   0 -10  -3  120.31    3.32
   0 -10  -3  119.14    3.58
   0  10   3  118.52    3.43
   0  10   3  120.18    4.04
  -1 -10  -3    6.25    0.63
  -1 -10  -3    5.99    0.80
  -1 -10  -3    5.54    0.67
   1  10   3    5.98    0.69
   1  10   3    5.91    0.95
  -2 -10  -3   19.03    0.98
  -2 -10  -3   19.20    1.38
  -2 -10  -3   21.04    0.97
   2  10   3   22.82    2.72
   5 -11  -3   61.48    2.46
   5 -11  -3   64.42    2.27
  -5  11   3   67.71    2.30
  -5  11   3   66.01    2.35
   4 -11  -3   11.98    1.40
   4 -11  -3   15.89    1.03
  -4  11   3   16.82    1.09
  -4  11   3   15.73    1.28
   3 -11  -3   25.58    1.20
  -3  11   3   25.44    1.59
  -3  11   3   26.37    1.24
   2 -11  -3   95.63    2.82
  -2  11   3   94.56    3.36
   1 -11  -3   18.29    0.95
  -1  11   3   16.66    1.61
  -1  11   3   14.85    1.21
   0 -11  -3   55.92    1.88
   0  11   3   54.20    2.61
   0  11   3   51.13    2.01
  -1  14  -4    2.38    1.01
  -2  14  -4   50.16    2.74
  -2  14  -4   55.57    1.91
   2 -14   4   59.76    2.72
  -3  14  -4   54.90    1.95
  -3  14  -4   50.90    2.70
   1  13  -4   29.53    2.24
  -1 -13   4   33.58    1.44
   0  13  -4   11.88    1.78
   0  13  -4   14.68    0.78
   0 -13   4   14.89    1.01
   0 -13   4   14.50    1.03
  -1  13  -4  102.49    3.77
  -1  13  -4   98.89    2.85
   1 -13   4   96.73    3.00
   1 -13   4  102.53    3.06
  -2  13  -4   42.08    2.31
  -2  13  -4   42.10    1.54
   2 -13   4   39.67    1.80
   2 -13   4   42.62    1.64
  -3  13  -4    2.20    0.82
  -3  13  -4    3.97    0.57
   3 -13   4    5.69    0.76
  -4  13  -4   90.74    2.83
  -4  13  -4   87.35    3.34
   4 -13   4   89.09    2.84
  -5  13  -4   60.99    2.69
  -5  13  -4   62.42    2.28
   5 -13   4   55.40    2.21
   5 -13   4   68.66    2.64
   3  12  -4   50.22    2.65
  -3 -12   4   48.01    1.84
   2  12  -4    0.52    0.84
  -2 -12   4    1.49    0.43
   1  12  -4   52.73    1.52
   1  12  -4   48.08    2.50
  -1 -12   4   50.70    1.81
  -1 -12   4   50.22    1.61
   0  12  -4   66.34    1.96
   0  12  -4   65.98    2.87
   0 -12   4   68.32    2.19
   0 -12   4   66.21    2.09
  -1  12  -4    1.21    0.33
  -1  12  -4    2.15    0.80
   1 -12   4    1.26    0.38
   1 -12   4    0.42    0.47
   1 -12   4    1.09    1.10
  -2  12  -4   79.73    3.08
  -2  12  -4   80.06    2.40
   2 -12   4   77.58    2.49
   2 -12   4   76.50    2.80
   2 -12   4   79.25    2.47
  -3  12  -4   79.97    3.02
  -3  12  -4   82.52    2.50
   3 -12   4   76.70    2.60
   3 -12   4   78.50    2.73
   3 -12   4   79.16    2.50
  -4  12  -4    0.38    0.45
  -4  12  -4   -0.02    0.63
   4 -12   4    0.58    0.39
   4 -12   4    0.11    0.46
  -5  12  -4   79.71    2.59
  -5  12  -4   76.56    2.89
   5 -12   4   74.93    2.54
   5 -12   4   77.09    2.55
  -6  12  -4   69.88    2.49
  -6  12  -4   68.71    2.68
   6 -12   4   68.18    2.41
   6 -12   4   66.71    2.28
   4  11  -4    6.73    1.05
  -4 -11   4    8.49    0.86
   3  11  -4   39.67    2.24
  -3 -11   4   40.35    1.56
   2  11  -4  117.68    4.02
  -2 -11   4  113.07    2.97
  -2 -11   4  116.17    3.34
   1  11  -4   18.62    0.72
   1  11  -4   17.43    1.07
   1  11  -4   16.83    1.64
  -1 -11   4   17.45    0.80
  -1 -11   4   17.89    0.94
  -1 -11   4   15.77    1.40
   0  11  -4   37.50    1.25
   0  11  -4   37.11    1.49
   0  11  -4   35.78    2.03
   0 -11   4   35.44    1.37
   0 -11   4   34.96    1.82
   0 -11   4   36.97    1.31
  -1  11  -4  165.07    5.05
  -1  11  -4  167.46    4.39
  -1  11  -4  169.25    4.57
   1 -11   4  169.34    4.52
   1 -11   4  163.85    4.44
   1 -11   4  165.84    4.90
  -2  11  -4   40.13    1.53
  -2  11  -4   40.72    1.97
  -2  11  -4   40.69    1.45
   2 -11   4   39.05    1.52
   2 -11   4   39.61    1.73
   2 -11   4   36.93    1.44
  -3  11  -4   46.14    1.72
  -3  11  -4   48.45    1.71
  -3  11  -4   49.36    2.15
   3 -11   4   47.87    1.78
   3 -11   4   46.53    1.69
   3 -11   4   49.75    1.89
  -4  11  -4  120.67    3.56
  -4  11  -4  123.62    3.87
  -4  11  -4  127.99    3.58
   4 -11   4  118.27    3.60
   4 -11   4  126.11    3.56
   4 -11   4  125.07    3.63
  -5  11  -4   16.87    1.13
   5 -11   4   18.63    1.03
   5 -11   4   16.65    1.03
  -6  11  -4   14.75    1.16
  -6  11  -4   14.56    1.37
   6 -11   4   16.04    1.08
  -7  11  -4   56.74    2.26
  -7  11  -4   50.73    2.19
   7 -11   4   53.39    2.09
   5  10  -4   -0.42    0.75
   4  10  -4   36.29    2.07
  -4 -10   4   35.41    1.45
   3  10  -4   64.99    2.73
   3  10  -4   61.40    2.14
  -3 -10   4   64.00    2.66
  -3 -10   4   65.50    2.09
   2  10  -4   -0.13    0.37
   2  10  -4   -0.59    0.60
  -2 -10   4   -0.03    0.17
  -2 -10   4    0.55    0.32
  -2 -10   4    0.10    0.51
   1  10  -4  161.79    4.95
   1  10  -4  163.76    4.11
   1  10  -4  168.79    4.42
  -1 -10   4  158.76    4.80
  -1 -10   4  160.54    4.13
  -1 -10   4  157.68    4.35
   0  10  -4   68.95    2.65
   0  10  -4   72.26    2.01
   0  10  -4   69.67    2.19
   0 -10   4   67.61    2.14
   0 -10   4   71.37    2.54
   0 -10   4   70.98    2.04
  -1  10  -4    6.49    1.14
  -1  10  -4    6.43    0.71
  -1  10  -4    6.62    0.60
   1 -10   4    5.26    0.84
   1 -10   4    6.03    0.64
   1 -10   4    6.46    0.60
  -2  10  -4  181.76    4.76
  -2  10  -4  165.87    5.91
  -2  10  -4  192.69    4.85
   2 -10   4  175.04    4.78
   2 -10   4  179.52    4.79
   2 -10   4  187.78    5.10
  -3  10  -4  163.79    4.71
  -3  10  -4  166.16    4.41
  -3  10  -4  157.66    4.37
   3 -10   4  164.04    4.54
   3 -10   4  163.00    4.41
   3 -10   4  158.67    4.37
  -4  10  -4    1.03    0.40
  -4  10  -4    0.65    0.51
  -4  10  -4    0.79    0.41
   4 -10   4    0.34    0.41
   4 -10   4    1.37    0.38
   4 -10   4    1.52    0.39
  -5  10  -4  104.06    3.12
  -5  10  -4  111.13    3.32
  -5  10  -4  106.76    3.17
   5 -10   4  105.44    3.18
   5 -10   4  104.88    3.07
   5 -10   4  104.65    3.12
  -6  10  -4   82.33    2.68
  -6  10  -4   81.30    2.64
   6 -10   4   80.53    2.60
  -7  10  -4    0.16    0.52
   7 -10   4    0.31    0.49
   6   9  -4   31.71    1.99
   5   9  -4   59.01    2.58
  -5  -9   4   60.50    2.05
   4   9  -4    0.38    0.43
   4   9  -4    0.19    0.63
  -4  -9   4    0.33    0.32
  -4  -9   4   -0.14    0.58
   3   9  -4   52.60    2.35
   3   9  -4   53.59    1.82
  -3  -9   4   54.84    1.79
  -3  -9   4   53.64    2.18
   2   9  -4  183.21    4.77
   2   9  -4  176.54    5.28
  -2  -9   4  178.93    5.15
  -2  -9   4  176.64    4.43
  -2  -9   4  176.93    4.73
   1   9  -4   22.68    1.02
   1   9  -4   21.13    0.77
   1   9  -4   22.07    1.53
  -1  -9   4   22.35    0.79
  -1  -9   4   22.34    1.30
   0   9  -4   88.21    2.96
   0   9  -4   84.01    2.51
   0   9  -4   86.11    2.37
   0  -9   4   89.06    2.38
   0  -9   4   84.58    2.81
   0  -9   4   88.13    2.50
  -1   9  -4  197.36    5.08
  -1   9  -4  192.33    4.98
  -1   9  -4  196.32    5.43
   1  -9   4  190.54    5.31
   1  -9   4  192.06    5.05
  -2   9  -4  145.26    4.16
  -2   9  -4  141.07    3.86
  -2   9  -4  140.04    3.81
   2  -9   4  139.18    3.83
   2  -9   4  145.47    3.84
   2  -9   4  144.96    4.03
  -3   9  -4    1.72    0.39
  -3   9  -4    0.57    0.34
  -3   9  -4    0.23    0.41
   3  -9   4    0.57    0.41
   3  -9   4    0.93    0.32
   3  -9   4    0.69    0.36
  -4   9  -4   43.67    1.50
  -4   9  -4   42.35    1.68
  -4   9  -4   41.34    1.54
   4  -9   4   41.30    1.53
   4  -9   4   40.59    1.48
   4  -9   4   40.53    1.48
  -5   9  -4   28.69    1.31
  -5   9  -4   29.55    1.38
  -5   9  -4   29.94    1.24
   5  -9   4   29.74    1.26
   5  -9   4   29.88    1.31
  -6   9  -4   12.45    1.01
  -6   9  -4   13.30    1.00
  -6   9  -4   11.51    0.90
   6  -9   4   11.85    1.26
   6  -9   4   12.05    0.89
  -7   9  -4   60.01    1.99
  -7   9  -4   57.27    2.10
  -7   9  -4   58.72    1.76
   7  -9   4   54.77    2.07
  -8   9  -4   11.31    1.22
   8  -9   4   14.91    1.23
   6   8  -4   26.79    1.77
  -6  -8   4   27.57    1.77
   5   8  -4    1.54    0.48
   5   8  -4    1.20    0.65
  -5  -8   4    0.98    0.63
  -5  -8   4    1.11    0.39
   4   8  -4  152.99    4.10
   4   8  -4  144.93    4.55
  -4  -8   4  147.07    4.40
  -4  -8   4  150.26    4.07
   3   8  -4   61.05    2.45
   3   8  -4   61.05    1.94
  -3  -8   4   60.89    1.91
  -3  -8   4   60.56    2.25
   2   8  -4    0.57    0.31
   2   8  -4    0.20    0.52
   2   8  -4    0.07    0.13
  -2  -8   4    0.06    0.12
  -2  -8   4    0.24    0.24
  -2  -8   4    0.64    0.43
   1   8  -4   98.84    2.73
   1   8  -4   98.52    3.13
   1   8  -4   96.83    2.52
  -1  -8   4   99.67    2.52
  -1  -8   4   94.45    2.70
  -1  -8   4   95.30    3.01
   0   8  -4  104.38    2.77
   0   8  -4  106.06    3.23
   0   8  -4  101.41    2.88
   0  -8   4  107.00    3.15
   0  -8   4  105.78    2.76
   0  -8   4  104.15    2.87
  -1   8  -4    8.56    0.88
  -1   8  -4    8.10    0.58
  -1   8  -4    7.82    0.63
   1  -8   4    7.56    0.55
   1  -8   4    7.99    0.70
   1  -8   4    7.96    0.53
  -2   8  -4  322.08    8.01
  -2   8  -4  323.61    8.04
  -2   8  -4  322.81    8.25
   2  -8   4  317.98    8.01
   2  -8   4  308.08    8.01
   2  -8   4  322.14    8.17
  -3   8  -4  123.72    3.32
  -3   8  -4  120.22    3.28
  -3   8  -4  126.91    3.48
   3  -8   4  119.19    3.28
   3  -8   4  105.44    3.53
   3  -8   4  126.33    3.31
  -4   8  -4   24.84    1.05
  -4   8  -4   22.40    1.22
  -4   8  -4   24.18    1.17
   4  -8   4   25.01    1.05
   4  -8   4   22.86    1.19
   4  -8   4   24.14    1.06
  -5   8  -4  135.07    3.69
  -5   8  -4  132.18    3.71
  -5   8  -4  128.21    3.68
   5  -8   4  131.02    3.67
   5  -8   4  132.85    3.68
  -6   8  -4  134.36    3.69
  -6   8  -4  134.43    3.78
  -6   8  -4  135.45    3.67
  -6   8  -4  130.61    3.51
   6  -8   4  131.50    3.73
   6  -8   4  129.52    3.74
  -7   8  -4    0.43    0.40
  -7   8  -4   -0.16    0.27
  -7   8  -4   -0.44    0.44
  -7   8  -4    0.18    0.39
   7  -8   4   -0.13    0.43
  -8   8  -4   43.60    1.83
   8  -8   4   42.03    1.81
   7   7  -4   -0.28    0.60
  -7  -7   4   -0.27    0.66
   6   7  -4   18.77    1.48
  -6  -7   4   19.29    1.43
   5   7  -4   89.53    3.10
   5   7  -4   88.15    2.69
  -5  -7   4   91.53    2.95
  -5  -7   4   90.00    2.68
   4   7  -4   13.36    1.27
   4   7  -4   13.35    0.82
  -4  -7   4   12.36    1.04
  -4  -7   4   12.57    0.75
   3   7  -4   87.98    2.96
   3   7  -4   90.79    2.56
  -3  -7   4   90.70    2.84
  -3  -7   4   87.72    2.54
   2   7  -4  169.40    4.25
   2   7  -4  176.33    4.90
   2   7  -4  172.26    4.53
  -2  -7   4  175.93    4.53
  -2  -7   4  177.00    4.82
  -2  -7   4  173.11    4.25
   1   7  -4   88.36    2.30
   1   7  -4   88.67    2.77
   1   7  -4   87.79    2.46
  -1  -7   4   89.97    2.72
  -1  -7   4   89.36    2.46
  -1  -7   4   87.45    2.30
   0   7  -4  104.24    2.64
   0   7  -4  103.72    3.00
   0  -7   4  103.26    2.61
   0  -7   4   99.91    2.71
   0  -7   4   88.61    3.18
  -1   7  -4  275.53    7.03
  -1   7  -4  276.50    6.78
  -1   7  -4  275.75    6.89
   1  -7   4  267.63    6.76
   1  -7   4  268.17    6.81
   1  -7   4  266.37    6.97
  -2   7  -4   40.46    1.73
  -2   7  -4   48.27    1.63
  -2   7  -4   49.17    1.48
   2  -7   4   49.59    1.46
   2  -7   4   46.72    1.45
   2  -7   4   45.37    1.54
  -3   7  -4  117.28    3.25
  -3   7  -4  111.57    3.12
  -3   7  -4  115.23    3.15
   3  -7   4  120.19    3.14
   3  -7   4  115.63    3.14
   3  -7   4  115.33    3.17
  -4   7  -4  200.31    5.18
  -4   7  -4  200.45    5.17
  -4   7  -4  190.49    5.10
   4  -7   4  198.00    5.15
   4  -7   4  198.94    5.13
  -5   7  -4   36.74    1.32
  -5   7  -4   34.82    1.36
  -5   7  -4   33.16    1.26
   5  -7   4   33.77    1.31
   5  -7   4   35.06    1.31
  -6   7  -4   48.44    1.57
  -6   7  -4   46.59    1.58
  -6   7  -4   46.12    1.68
  -6   7  -4   44.59    1.43
   6  -7   4   44.27    1.63
   6  -7   4   46.72    1.77
  -7   7  -4   76.42    2.15
  -7   7  -4   76.34    2.24
  -7   7  -4   78.20    2.48
  -7   7  -4   79.15    2.38
   7  -7   4   75.08    2.44
  -8   7  -4    2.72    0.61
   8  -7   4    3.13    0.62
   7   6  -4   70.83    2.58
  -7  -6   4   68.82    2.47
   6   6  -4   47.72    1.76
  -6  -6   4   46.75    1.90
   5   6  -4    1.50    0.57
   5   6  -4    1.46    0.39
  -5  -6   4    1.67    0.48
  -5  -6   4    1.64    0.37
   4   6  -4  157.30    4.22
   4   6  -4  156.85    4.58
  -4  -6   4  160.22    4.42
  -4  -6   4  159.44    4.22
   3   6  -4  111.54    3.03
   3   6  -4  111.72    3.36
  -3  -6   4  108.11    3.02
  -3  -6   4  112.52    3.25
   2   6  -4   49.15    1.29
   2   6  -4   47.45    1.71
   2   6  -4   51.72    1.85
  -2  -6   4   53.36    1.78
  -2  -6   4   51.52    1.28
  -2  -6   4   52.30    1.55
   1   6  -4  358.59    8.63
   1   6  -4  344.91    8.48
   1   6  -4  356.97    8.87
  -1  -6   4  350.82    8.83
  -1  -6   4  332.84    8.61
  -1  -6   4  345.21    8.46
   0   6  -4  148.08    4.03
   0   6  -4  152.29    3.85
   0   6  -4  148.02    3.76
   0  -6   4  146.62    3.83
   0  -6   4  149.30    3.75
   0  -6   4  149.82    4.01
  -1   6  -4   28.13    0.97
  -1   6  -4   28.88    0.94
  -1   6  -4   28.99    1.12
   1  -6   4   27.11    0.90
   1  -6   4   28.14    0.95
   1  -6   4   26.91    1.05
  -2   6  -4  144.86    3.75
  -2   6  -4  144.02    3.75
  -2   6  -4  146.82    3.87
   2  -6   4  142.91    3.74
   2  -6   4  140.47    3.85
   2  -6   4  148.49    3.75
  -3   6  -4   91.33    2.48
  -3   6  -4   89.07    2.42
  -3   6  -4   85.74    2.37
   3  -6   4   88.12    2.43
   3  -6   4   78.55    2.78
   3  -6   4   84.77    2.38
  -4   6  -4   19.44    0.86
  -4   6  -4   17.52    0.86
   4  -6   4   18.48    0.84
   4  -6   4   18.70    0.84
  -5   6  -4  146.17    3.94
  -5   6  -4  139.72    4.08
  -5   6  -4  147.15    3.87
  -5   6  -4  157.20    3.99
   5  -6   4  151.03    3.99
   5  -6   4  152.82    4.01
  -6   6  -4   84.95    2.41
  -6   6  -4   85.85    2.53
  -6   6  -4   92.54    2.51
  -6   6  -4   87.92    2.63
   6  -6   4   91.15    2.61
   6  -6   4   86.72    2.60
  -7   6  -4   -0.50    0.38
  -7   6  -4    0.55    0.27
  -7   6  -4    0.24    0.33
  -7   6  -4   -0.50    0.28
   7  -6   4   -0.24    0.37
   7  -6   4    0.67    0.36
  -8   6  -4   23.73    1.25
  -8   6  -4   20.56    0.87
   8  -6   4   20.06    1.21
   8   5  -4   15.21    1.14
   8   5  -4   17.01    2.01
   7   5  -4    2.22    0.58
  -7  -5   4    1.50    0.53
   6   5  -4   51.98    1.82
   6   5  -4   55.00    2.07
  -6  -5   4   51.22    1.86
   5   5  -4   64.54    2.06
   5   5  -4   70.05    2.39
  -5  -5   4   65.43    2.15
   4   5  -4    4.34    0.54
   4   5  -4    5.34    0.89
  -4  -5   4    4.80    0.65
  -4  -5   4    4.18    0.48
   3   5  -4  184.16    4.79
   3   5  -4  163.96    4.57
  -3  -5   4  183.82    4.69
  -3  -5   4  168.89    4.51
   2   5  -4  218.34    5.47
   2   5  -4  216.57    5.66
  -2  -5   4  212.88    5.46
  -2  -5   4  212.92    5.23
  -2  -5   4  222.28    5.64
   1   5  -4    1.42    0.32
   1   5  -4    1.11    0.22
  -1  -5   4    1.42    0.17
  -1  -5   4    1.04    0.25
  -1  -5   4    1.84    0.30
   0   5  -4  139.91    3.67
   0   5  -4  139.11    3.46
   0   5  -4  134.84    3.51
   0  -5   4  130.92    3.50
   0  -5   4  138.84    3.52
   0  -5   4  140.31    3.66
  -1   5  -4  257.02    6.46
  -1   5  -4  248.18    6.31
  -1   5  -4  255.73    6.34
   1  -5   4  250.83    6.30
   1  -5   4  260.09    6.33
   1  -5   4  258.35    6.45
  -2   5  -4   32.03    1.02
  -2   5  -4   32.45    1.04
  -2   5  -4   32.98    1.12
   2  -5   4   32.24    1.03
   2  -5   4   31.09    1.01
   2  -5   4   31.19    1.07
  -3   5  -4  122.86    3.24
  -3   5  -4  124.39    3.29
  -3   5  -4  128.19    3.34
   3  -5   4  125.83    3.29
   3  -5   4  123.05    3.26
  -4   5  -4  123.88    3.32
  -4   5  -4  127.79    3.39
  -4   5  -4  130.87    3.33
  -4   5  -4  129.27    3.39
   4  -5   4  125.14    3.35
   4  -5   4  123.28    3.37
  -5   5  -4   28.93    1.02
  -5   5  -4   29.81    1.09
  -5   5  -4   26.57    1.17
  -5   5  -4   29.89    1.16
   5  -5   4   31.02    1.13
   5  -5   4   30.94    1.13
  -6   5  -4   29.02    1.07
  -6   5  -4   27.91    1.08
  -6   5  -4   28.09    1.19
  -6   5  -4   28.26    1.02
   6  -5   4   27.27    1.15
   6  -5   4   28.23    1.14
  -7   5  -4   97.33    2.87
  -7   5  -4   99.01    2.69
  -7   5  -4   96.74    2.69
   7  -5   4   98.02    2.83
   7  -5   4   94.85    3.01
  -8   5  -4   11.96    1.01
  -8   5  -4   12.42    1.18
  -8   5  -4   13.35    0.73
   8  -5   4   12.81    1.02
   8   4  -4   11.08    0.97
   8   4  -4    9.66    0.97
  -8  -4   4   10.03    0.95
   7   4  -4   82.07    2.68
   7   4  -4   87.49    2.74
  -7  -4   4   90.97    2.81
   6   4  -4   58.64    2.07
   6   4  -4   56.46    1.89
  -6  -4   4   55.95    1.85
   5   4  -4   56.86    1.85
   5   4  -4   59.14    2.09
  -5  -4   4   60.81    1.88
   4   4  -4   59.27    1.81
   4   4  -4   60.29    2.01
  -4  -4   4   59.68    1.86
  -4  -4   4   61.10    1.81
   3   4  -4  100.14    2.75
   3   4  -4   92.60    2.58
  -3  -4   4   95.92    2.66
  -3  -4   4   91.62    2.57
   2   4  -4    8.52    0.60
   2   4  -4    8.52    0.28
   2   4  -4    7.61    0.45
  -2  -4   4    7.45    0.45
   1   4  -4  437.67   10.78
   1   4  -4  441.90   11.01
   1   4  -4  437.08   10.88
  -1  -4   4  440.88   11.00
  -1  -4   4  462.13   10.81
  -1  -4   4  456.47   10.89
   0   4  -4  120.81    3.06
   0   4  -4  117.38    3.02
   0   4  -4  122.29    3.18
   0  -4   4  117.33    3.01
   0  -4   4  121.31    3.06
   0  -4   4  121.42    3.18
  -1   4  -4   14.61    0.66
  -1   4  -4   14.83    0.57
  -1   4  -4   15.30    0.56
   1  -4   4   15.20    0.55
   1  -4   4   14.65    0.55
  -2   4  -4  474.90   11.57
  -2   4  -4  471.37   11.53
  -2   4  -4  473.01   11.64
   2  -4   4  474.87   11.56
   2  -4   4  474.64   11.53
  -3   4  -4  357.52    8.88
  -3   4  -4  363.38    8.78
  -3   4  -4  358.67    8.84
   3  -4   4  365.05    8.79
   3  -4   4  344.65    8.83
  -4   4  -4    1.03    0.28
  -4   4  -4    0.84    0.23
  -4   4  -4    1.53    0.25
  -4   4  -4    0.71    0.22
   4  -4   4    0.99    0.26
   4  -4   4    1.58    0.29
  -5   4  -4  136.37    3.63
  -5   4  -4  135.97    3.58
  -5   4  -4  138.90    3.58
  -5   4  -4  138.20    3.67
   5  -4   4  135.75    3.62
   5  -4   4  134.99    3.64
  -6   4  -4   81.71    2.33
  -6   4  -4   82.02    2.41
  -6   4  -4   81.82    2.33
  -6   4  -4   81.79    2.33
   6  -4   4   80.29    2.39
   6  -4   4   84.10    2.44
  -7   4  -4    9.89    0.81
  -7   4  -4   10.92    0.80
  -7   4  -4   10.26    0.69
   7  -4   4    9.48    0.83
   7  -4   4   11.21    0.77
  -8   4  -4   49.93    1.82
  -8   4  -4   54.40    1.65
  -8   4  -4   51.15    1.86
   8  -4   4   50.80    1.90
   8   3  -4   23.05    1.27
   8   3  -4   26.91    1.12
  -8  -3   4   22.88    1.04
   7   3  -4    2.91    0.50
   7   3  -4    3.18    0.49
   7   3  -4    3.81    0.56
  -7  -3   4    2.71    0.37
   6   3  -4   97.13    3.08
   6   3  -4   98.54    2.88
  -6  -3   4  101.67    2.75
   5   3  -4   99.43    2.88
   5   3  -4   96.46    2.76
  -5  -3   4   96.46    2.68
   4   3  -4    4.34    0.63
  -4  -3   4    4.64    0.46
   3   3  -4  114.25    3.07
   3   3  -4  119.86    3.14
  -3  -3   4  114.60    3.07
  -3  -3   4  117.52    3.09
   2   3  -4  780.48   18.95
   2   3  -4  812.14   19.10
   2   3  -4  762.61   19.28
  -2  -3   4  753.66   19.01
  -2  -3   4  807.54   19.21
   1   3  -4   36.99    0.99
  -1  -3   4   36.39    1.14
  -1  -3   4   36.74    1.06
  -1  -3   4   37.12    0.98
   0   3  -4  119.73    3.04
   0   3  -4  115.96    2.91
   0   3  -4  115.86    2.92
   0  -3   4  112.99    2.92
   0  -3   4  115.31    2.90
  -1   3  -4  181.27    4.66
  -1   3  -4  186.82    4.54
  -1   3  -4  182.19    4.57
   1  -3   4  182.19    4.53
   1  -3   4  186.16    4.57
  -2   3  -4   53.47    1.57
  -2   3  -4   53.71    1.50
  -2   3  -4   54.58    1.44
   2  -3   4   52.94    1.44
   2  -3   4   52.39    1.49
  -3   3  -4  161.44    4.09
  -3   3  -4  160.40    4.17
   3  -3   4  163.93    4.15
   3  -3   4  165.67    4.09
  -4   3  -4  201.06    4.84
  -4   3  -4  196.88    4.80
  -4   3  -4  192.69    4.71
   4  -3   4  185.84    4.72
   4  -3   4  157.70    5.07
  -5   3  -4    0.84    0.28
  -5   3  -4    0.90    0.28
  -5   3  -4    0.92    0.25
   5  -3   4    1.35    0.31
   5  -3   4    0.93    0.26
  -6   3  -4   58.52    1.84
  -6   3  -4   58.47    1.79
   6  -3   4   58.31    1.80
   6  -3   4   58.35    1.81
  -7   3  -4   69.94    2.07
  -7   3  -4   68.36    2.18
  -7   3  -4   69.55    2.16
   7  -3   4   73.07    2.13
   7  -3   4   65.44    2.14
  -8   3  -4    5.85    0.76
  -8   3  -4    5.22    0.68
  -8   3  -4    6.19    0.65
   8  -3   4    6.37    0.86
   8  -3   4    6.70    0.90
   8  -3   4    5.14    0.66
   9   2  -4    4.39    0.70
   8   2  -4    8.30    0.41
   8   2  -4    9.78    0.63
   8   2  -4    7.64    0.87
  -8  -2   4    9.19    0.46
   7   2  -4   77.11    2.45
   7   2  -4   78.45    2.28
   7   2  -4   79.56    2.46
  -7  -2   4   77.40    2.03
  -7  -2   4   77.18    2.13
   6   2  -4   53.35    1.76
   6   2  -4   51.78    2.06
   6   2  -4   52.50    1.72
   6   2  -4   52.46    1.38
  -6  -2   4   50.26    1.52
  -6  -2   4   51.82    1.40
   5   2  -4   51.31    1.35
   5   2  -4   52.60    1.67
   5   2  -4   52.91    1.66
  -5  -2   4   50.05    1.36
  -5  -2   4   50.28    1.50
   4   2  -4  314.02    7.90
   4   2  -4  336.07    8.12
   4   2  -4  327.49    8.14
   3   2  -4  289.46    7.10
   3   2  -4  294.94    7.12
   3   2  -4  278.72    6.93
  -3  -2   4  280.28    7.08
   2   2  -4   92.17    2.44
   2   2  -4   91.10    2.30
   2   2  -4   92.59    2.42
   2   2  -4   93.38    2.30
  -2  -2   4   91.05    2.43
  -2  -2   4   92.82    2.42
   1   2  -4  163.42    4.08
   1   2  -4  167.96    4.20
   1   2  -4  164.35    4.12
  -1  -2   4  166.85    4.12
  -1  -2   4  165.85    4.07
   0   2  -4   50.62    1.33
   0   2  -4   51.96    1.47
   0   2  -4   51.07    1.36
   0  -2   4   50.26    1.35
   0  -2   4   50.97    1.33
  -1   2  -4  154.40    3.97
  -1   2  -4  152.57    3.82
  -1   2  -4  158.09    3.90
   1  -2   4  152.97    3.89
   1  -2   4  160.36    3.82
  -2   2  -4  501.02   12.29
  -2   2  -4  509.48   12.31
  -2   2  -4  498.29   12.36
   2  -2   4  512.39   12.31
   2  -2   4  507.80   12.31
  -3   2  -4   40.13    1.19
  -3   2  -4   39.43    1.24
  -3   2  -4   38.39    1.08
   3  -2   4   39.01    1.18
   3  -2   4   37.65    1.09
  -4   2  -4   29.83    1.09
  -4   2  -4   30.02    1.03
   4  -2   4   29.20    1.13
   4  -2   4   30.86    0.96
  -5   2  -4  109.90    3.06
  -5   2  -4  110.90    2.99
   5  -2   4  108.24    2.93
   5  -2   4  111.58    2.97
  -6   2  -4   36.71    1.41
  -6   2  -4   36.36    1.31
   6  -2   4   35.69    1.28
   6  -2   4   35.60    1.26
  -7   2  -4    1.25    0.57
  -7   2  -4    1.46    0.39
   7  -2   4    1.64    0.42
   7  -2   4    2.04    0.45
   7  -2   4    1.59    0.35
  -8   2  -4   27.69    1.27
  -8   2  -4   26.94    1.91
   8  -2   4   26.49    1.15
   8  -2   4   26.68    1.26
   8  -2   4   25.35    1.30
   9   1  -4   25.41    1.45
  -9  -1   4   27.90    1.00
   8   1  -4   36.03    1.54
   8   1  -4   33.83    1.08
  -8  -1   4   35.27    1.25
   7   1  -4    7.24    0.75
   7   1  -4    6.85    0.42
   7   1  -4    7.10    0.52
   7   1  -4    6.26    0.75
  -7  -1   4    7.22    0.52
   6   1  -4  147.69    4.07
   6   1  -4  148.63    4.06
   6   1  -4  147.40    3.87
   6   1  -4  152.87    3.76
  -6  -1   4  149.43    3.79
   5   1  -4   39.11    1.39
   5   1  -4   38.80    1.23
   5   1  -4   42.45    1.40
   5   1  -4   40.99    1.30
  -5  -1   4   41.25    1.18
   4   1  -4   12.13    0.55
   4   1  -4   13.14    0.64
   4   1  -4   11.73    0.48
  -4  -1   4   11.35    0.47
   3   1  -4  367.11    8.84
   3   1  -4  347.05    8.70
   3   1  -4  359.78    8.77
   2   1  -4  212.50    5.25
   2   1  -4  206.67    5.16
   2   1  -4  213.36    5.25
   1   1  -4   24.18    0.73
   1   1  -4   24.50    0.73
   0   1  -4   54.14    1.37
   0   1  -4   52.99    1.72
   0   1  -4   53.07    1.43
   0  -1   4   53.02    1.46
   0  -1   4   55.78    1.37
  -1   1  -4  406.50   10.26
  -1   1  -4  418.99   10.18
   1  -1   4  424.04   10.18
   1  -1   4  423.29   10.27
  -2   1  -4   10.83    0.59
  -2   1  -4   10.57    0.48
   2  -1   4   11.19    0.48
   2  -1   4   10.94    0.36
   2  -1   4   11.28    0.59
  -3   1  -4   61.46    1.71
  -3   1  -4   60.61    1.82
   3  -1   4   60.91    1.81
   3  -1   4   62.91    1.60
   3  -1   4   60.22    1.70
  -4   1  -4  189.31    4.75
  -4   1  -4  187.79    4.88
   4  -1   4  181.08    4.78
   4  -1   4  186.47    4.85
   4  -1   4  186.74    4.65
  -5   1  -4   34.20    1.37
  -5   1  -4   35.80    1.18
   5  -1   4   34.76    1.14
   5  -1   4   33.64    1.08
   5  -1   4   33.77    1.16
   5  -1   4   35.09    1.28
  -6   1  -4   77.15    2.22
  -6   1  -4   68.08    2.58
   6  -1   4   75.93    2.19
   6  -1   4   77.13    2.13
   6  -1   4   79.78    2.21
  -7   1  -4   72.52    2.17
  -7   1  -4   71.95    2.48
   7  -1   4   68.89    2.12
   7  -1   4   70.86    2.11
   7  -1   4   71.97    2.19
  -8   1  -4    7.49    0.85
   8  -1   4    6.62    0.75
   8  -1   4    8.66    0.89
   9   0  -4   19.37    1.25
   9   0  -4   16.43    1.00
  -9   0   4   19.40    0.92
   8   0  -4   20.39    1.22
   8   0  -4   19.97    1.15
  -8   0   4   21.06    0.90
   7   0  -4  132.74    3.82
   7   0  -4  138.01    3.81
   7   0  -4  135.28    3.50
  -7   0   4  135.09    3.55
   6   0  -4   40.99    1.49
   6   0  -4   41.16    1.23
   6   0  -4   42.61    1.48
   6   0  -4   40.30    1.09
   6   0  -4   38.33    1.16
  -6   0   4   41.45    1.29
   5   0  -4    1.28    0.24
   5   0  -4    1.02    0.16
   5   0  -4    0.93    0.29
  -5   0   4    1.06    0.25
   4   0  -4   91.53    2.35
   4   0  -4   90.98    2.53
   4   0  -4   89.91    2.34
   4   0  -4   92.47    2.39
  -4   0   4   90.92    2.39
   3   0  -4   86.06    2.37
   3   0  -4   92.46    2.45
   3   0  -4   91.05    2.35
   3   0  -4   92.88    2.35
  -3   0   4   91.15    2.35
   2   0  -4  255.60    6.42
   2   0  -4  255.80    6.45
   2   0  -4  268.50    6.43
   1   0  -4  117.73    2.90
   1   0  -4  112.68    3.03
   0   0  -4  150.21    3.69
   0   0  -4  141.15    3.59
   0   0  -4  147.88    3.79
   0   0  -4  145.56    3.58
   0   0   4  152.08    3.80
  -1   0  -4  107.67    2.91
  -1   0  -4  108.04    2.79
   1   0   4  110.72    2.79
   1   0   4  108.72    2.91
  -2   0  -4  497.78   12.21
  -2   0  -4  503.67   12.06
   2   0   4  495.84   12.06
   2   0   4  482.88   12.19
  -3   0  -4   41.96    1.28
  -3   0  -4   49.35    1.51
   3   0   4   42.88    1.15
   3   0   4   41.44    1.27
   3   0   4   41.39    1.13
   3   0   4   42.96    1.44
  -4   0  -4    4.81    0.71
  -4   0  -4    4.67    0.43
   4   0   4    4.06    0.57
   4   0   4    4.42    0.32
   4   0   4    3.84    0.52
   4   0   4    4.45    0.37
  -5   0  -4  220.99    5.95
  -5   0  -4  228.21    5.69
   5   0   4  224.27    5.68
   5   0   4  221.36    5.57
   5   0   4  226.16    5.86
   5   0   4  221.32    5.62
  -6   0  -4   29.60    1.51
  -6   0  -4   29.73    1.12
   6   0   4   30.28    1.26
   6   0   4   30.18    1.13
   6   0   4   29.70    1.09
   6   0   4   28.27    1.03
  -7   0  -4    7.27    0.92
  -7   0  -4    8.66    0.76
   7   0   4    8.94    0.83
   7   0   4    7.68    0.78
   7   0   4    9.09    0.71
   7   0   4    8.76    0.66
  -8   0  -4   37.48    1.47
   8   0   4   38.52    1.39
   8   0   4   35.01    1.63
   9  -1  -4   17.16    0.87
   9  -1  -4   15.31    1.21
  -9   1   4   20.84    0.99
   8  -1  -4    9.33    0.88
   8  -1  -4    7.17    0.86
   8  -1  -4    7.27    0.60
  -8   1   4    9.32    0.71
   7  -1  -4    9.73    0.64
   7  -1  -4    8.53    0.78
  -7   1   4    9.28    0.69
   6  -1  -4   84.64    2.31
   6  -1  -4   83.64    2.51
  -6   1   4   83.57    2.36
   5  -1  -4  150.89    3.80
   5  -1  -4  153.32    4.10
   5  -1  -4  156.12    3.81
   5  -1  -4  159.16    3.97
  -5   1   4  151.65    3.99
   4  -1  -4    1.56    0.21
   4  -1  -4    1.36    0.19
   4  -1  -4    1.46    0.26
  -4   1   4    1.43    0.25
   3  -1  -4  339.61    8.23
   3  -1  -4  326.84    8.15
   3  -1  -4  328.65    8.13
  -3   1   4  328.13    8.34
  -3   1   4  334.97    8.16
   2  -1  -4  242.55    6.27
   2  -1  -4  256.56    6.23
   2  -1  -4  255.34    6.24
  -2   1   4  255.54    6.26
   1  -1  -4   22.02    0.72
   1  -1  -4   21.74    0.83
   1  -1  -4   21.91    0.67
  -1   1   4   21.40    0.79
   0  -1  -4  180.40    4.48
   0  -1  -4  180.66    4.35
   0  -1  -4  175.66    4.61
   0   1   4  180.09    4.60
  -1  -1  -4  939.52   22.25
  -1  -1  -4  887.18   22.08
   1   1   4  896.03   22.31
  -2  -1  -4   17.37    0.65
  -2  -1  -4   17.39    0.90
   2   1   4   18.59    0.66
   2   1   4   17.98    0.87
  -3  -1  -4   76.86    2.38
  -3  -1  -4   78.92    2.11
   3   1   4   79.43    2.11
   3   1   4   76.82    2.34
   3   1   4   74.15    1.96
  -4  -1  -4   63.61    2.21
  -4  -1  -4   67.04    1.89
   4   1   4   66.43    2.01
   4   1   4   69.34    2.15
   4   1   4   67.14    1.76
   4   1   4   66.40    1.79
  -5  -1  -4    1.62    0.53
  -5  -1  -4    1.18    0.28
   5   1   4    1.56    0.29
   5   1   4    1.59    0.25
   5   1   4    0.90    0.36
   5   1   4    1.30    0.28
  -6  -1  -4   73.10    2.66
  -6  -1  -4   74.44    2.17
   6   1   4   76.73    2.16
   6   1   4   72.17    2.06
   6   1   4   74.86    2.16
   6   1   4   73.30    2.40
  -7  -1  -4   31.31    1.25
  -7  -1  -4   29.40    1.91
   7   1   4   31.56    1.20
   7   1   4   35.48    1.64
   7   1   4   32.18    1.21
   7   1   4   30.61    1.28
   9  -2  -4    1.96    0.63
   9  -2  -4    2.31    0.42
  -9   2   4    3.20    0.49
   8  -2  -4   31.38    1.45
   8  -2  -4   33.16    1.21
  -8   2   4   33.32    1.32
   7  -2  -4  138.49    3.87
   7  -2  -4  136.75    3.63
  -7   2   4  133.52    3.68
   6  -2  -4   20.92    0.90
   6  -2  -4   20.16    1.01
  -6   2   4   20.45    0.94
   5  -2  -4   82.46    1.98
   5  -2  -4   73.07    2.14
   5  -2  -4   75.33    2.24
  -5   2   4   71.29    2.16
   4  -2  -4  296.48    7.42
   4  -2  -4  290.04    7.28
   4  -2  -4  300.89    7.36
  -4   2   4  294.52    7.37
   3  -2  -4   41.05    1.29
   3  -2  -4   41.23    1.28
   3  -2  -4   44.45    1.30
  -3   2   4   42.02    1.29
  -3   2   4   40.82    1.27
  -3   2   4   41.99    1.22
   2  -2  -4  132.25    3.58
   2  -2  -4  137.53    3.48
   2  -2  -4  137.04    3.51
  -2   2   4  142.81    3.50
  -2   2   4  136.44    3.77
  -2   2   4  134.96    3.53
   1  -2  -4  308.44    7.59
   1  -2  -4  297.14    7.72
   1  -2  -4  308.87    7.52
  -1   2   4  311.36    7.69
  -1   2   4  313.76    7.54
   0  -2  -4   16.35    0.51
   0  -2  -4   16.78    0.63
   0  -2  -4   17.40    0.85
   0   2   4   16.89    0.52
   0   2   4   16.13    0.78
  -1  -2  -4  189.58    4.76
  -1  -2  -4  193.88    5.02
   1   2   4  185.05    4.98
  -2  -2  -4  215.35    5.60
  -2  -2  -4  213.00    5.28
  -2  -2  -4  211.08    5.56
   2   2   4  202.85    5.54
  -3  -2  -4   28.91    0.95
  -3  -2  -4   29.02    1.37
   3   2   4   28.99    1.28
   3   2   4   27.30    0.80
   3   2   4   27.34    0.83
  -4  -2  -4   18.56    0.75
  -4  -2  -4   18.38    1.01
  -4  -2  -4   17.66    1.25
   4   2   4   18.39    1.09
   4   2   4   18.01    0.68
   4   2   4   17.30    0.72
  -5  -2  -4  118.30    3.16
  -5  -2  -4  124.19    3.71
  -5  -2  -4  120.08    3.47
   5   2   4  113.87    3.04
   5   2   4  115.12    3.50
   5   2   4  116.79    3.11
  -6  -2  -4    9.73    1.44
  -6  -2  -4    8.68    1.09
   6   2   4   11.23    0.74
   6   2   4   11.42    0.98
   6   2   4   11.22    0.65
  -7  -2  -4   10.37    0.84
   7   2   4   11.95    1.05
   7   2   4   11.27    0.90
   9  -3  -4   28.45    1.24
   9  -3  -4   28.89    1.53
  -9   3   4   30.97    1.32
   8  -3  -4   39.66    1.66
   8  -3  -4   39.17    1.43
  -8   3   4   41.56    1.52
   7  -3  -4   17.32    0.89
   7  -3  -4   15.81    1.00
  -7   3   4   17.01    0.94
   6  -3  -4  157.04    4.15
  -6   3   4  156.23    4.18
   5  -3  -4   73.15    2.17
   5  -3  -4   76.70    2.03
   5  -3  -4   74.53    2.24
  -5   3   4   75.34    2.20
   4  -3  -4   11.09    0.66
   4  -3  -4   11.83    0.67
  -4   3   4   11.40    0.66
  -4   3   4   10.99    0.66
  -4   3   4   10.46    0.48
   3  -3  -4  284.47    7.08
   3  -3  -4  282.68    7.06
   3  -3  -4  286.08    7.14
  -3   3   4  297.63    7.08
  -3   3   4  274.75    7.02
  -3   3   4  272.73    7.07
   2  -3  -4  220.88    5.42
   2  -3  -4  217.89    5.61
   2  -3  -4  217.00    5.47
  -2   3   4  207.94    5.45
  -2   3   4  218.73    5.52
  -2   3   4  220.13    5.43
   1  -3  -4    0.11    0.31
   1  -3  -4    0.46    0.20
   1  -3  -4    0.76    0.19
  -1   3   4    0.60    0.26
  -1   3   4    0.50    0.27
   0  -3  -4  286.48    7.02
   0  -3  -4  286.56    7.30
   0  -3  -4  279.94    6.90
   0   3   4  283.67    6.92
   0   3   4  278.41    7.23
  -1  -3  -4   56.15    1.44
  -1  -3  -4   57.12    1.58
   1   3   4   55.59    1.46
   1   3   4   53.16    1.87
  -2  -3  -4    0.31    0.13
  -2  -3  -4    0.41    0.18
  -2  -3  -4    0.09    0.43
   2   3   4    0.44    0.16
   2   3   4   -0.07    0.38
  -3  -3  -4   88.90    2.88
  -3  -3  -4   87.21    2.38
   3   3   4   84.99    2.25
   3   3   4   90.97    2.81
  -4  -3  -4  130.67    4.07
  -4  -3  -4  136.64    3.53
   4   3   4  131.68    3.45
   4   3   4  135.83    3.44
   4   3   4  138.87    4.04
  -5  -3  -4   -0.51    0.62
  -5  -3  -4    0.41    0.28
   5   3   4    0.74    0.25
   5   3   4    0.54    0.28
   5   3   4    0.89    0.45
  -6  -3  -4   33.81    2.21
  -6  -3  -4   36.58    1.36
   6   3   4   37.66    1.25
   6   3   4   36.93    1.31
   6   3   4   39.48    1.73
  -7  -3  -4   30.14    1.28
   7   3   4   32.59    1.63
   9  -4  -4    1.39    0.48
   9  -4  -4    2.04    0.62
  -9   4   4    1.97    0.51
   8  -4  -4   12.45    1.02
   8  -4  -4   12.55    0.87
  -8   4   4   12.57    0.92
   7  -4  -4   81.11    2.41
   7  -4  -4   80.18    2.55
  -7   4   4   78.67    2.61
   6  -4  -4   14.81    0.87
   6  -4  -4   13.50    0.91
  -6   4   4   15.68    0.89
   5  -4  -4   33.35    1.13
   5  -4  -4   32.35    1.25
   5  -4  -4   30.87    1.21
  -5   4   4   32.31    1.21
  -5   4   4   32.12    1.24
   4  -4  -4  127.66    3.50
   4  -4  -4  127.24    3.46
   4  -4  -4  130.13    3.46
  -4   4   4  125.17    3.45
  -4   4   4  133.36    3.46
  -4   4   4  125.67    3.32
   3  -4  -4    2.02    0.32
   3  -4  -4    2.22    0.43
   3  -4  -4    2.11    0.41
  -3   4   4    1.88    0.30
  -3   4   4    1.97    0.31
  -3   4   4    2.54    0.39
   2  -4  -4   43.13    1.38
   2  -4  -4   43.41    1.31
   2  -4  -4   45.24    1.63
  -2   4   4   43.38    1.46
  -2   4   4   40.57    1.34
  -2   4   4   44.94    1.31
   1  -4  -4  224.14    5.83
   1  -4  -4  224.41    5.43
   1  -4  -4  224.83    5.54
  -1   4   4  190.22    6.60
  -1   4   4  224.95    5.45
  -1   4   4  219.99    5.72
   0  -4  -4  107.58    2.82
   0  -4  -4   94.46    3.91
   0  -4  -4  108.85    2.69
   0   4   4  108.31    2.79
   0   4   4  105.48    3.09
  -1  -4  -4   70.29    1.83
  -1  -4  -4   70.46    1.98
  -1  -4  -4   72.02    2.42
  -1  -4  -4   68.97    1.95
   1   4   4   70.17    1.85
   1   4   4   66.92    2.32
  -2  -4  -4  156.74    4.17
  -2  -4  -4  160.20    4.64
  -2  -4  -4  163.87    4.13
  -2  -4  -4  160.41    4.00
   2   4   4  163.01    4.58
   2   4   4  158.81    4.02
  -3  -4  -4   19.58    1.47
  -3  -4  -4   22.02    0.82
   3   4   4   21.67    0.74
  -4  -4  -4   64.38    1.90
  -4  -4  -4   65.46    2.58
   4   4   4   68.41    2.45
   4   4   4   64.71    1.80
  -5  -4  -4   93.82    2.54
  -5  -4  -4   90.39    3.36
   5   4   4   87.57    2.64
   5   4   4   94.97    3.10
   5   4   4   87.43    2.44
  -6  -4  -4   25.02    1.07
   6   4   4   22.52    1.06
   6   4   4   25.35    1.51
   9  -5  -4   34.06    1.72
  -9   5   4   39.29    1.59
   8  -5  -4   19.62    1.12
   8  -5  -4   20.95    1.22
  -8   5   4   24.04    1.29
   7  -5  -4    7.27    0.81
   7  -5  -4   10.47    0.89
  -7   5   4   10.76    0.85
   6  -5  -4  115.63    3.38
   6  -5  -4  124.19    3.07
   6  -5  -4  118.69    3.43
  -6   5   4  125.91    3.51
  -6   5   4  118.77    3.42
   5  -5  -4   81.71    2.45
   5  -5  -4   81.53    2.37
   5  -5  -4   84.72    2.46
  -5   5   4   81.71    2.21
  -5   5   4   80.78    2.44
  -5   5   4   80.77    2.43
   4  -5  -4    7.98    0.86
   4  -5  -4    6.67    0.61
   4  -5  -4    5.92    0.66
  -4   5   4    6.32    0.53
  -4   5   4    5.66    0.63
  -4   5   4    6.78    0.62
   3  -5  -4  199.70    5.10
   3  -5  -4  199.57    5.30
   3  -5  -4  194.98    5.02
  -3   5   4  196.64    5.10
  -3   5   4  187.79    5.19
  -3   5   4  195.48    5.06
   2  -5  -4  134.95    3.81
   2  -5  -4  128.47    3.40
   2  -5  -4  127.74    3.48
  -2   5   4  128.28    3.45
  -2   5   4  132.43    3.41
  -2   5   4  125.98    3.59
   1  -5  -4    2.96    0.57
   1  -5  -4    2.97    0.39
   1  -5  -4    3.56    0.51
  -1   5   4    3.67    0.69
  -1   5   4    3.12    0.40
  -1   5   4    2.25    0.45
   0  -5  -4  128.50    3.29
   0  -5  -4  132.69    3.90
   0  -5  -4  129.95    3.44
   0   5   4  127.38    3.32
   0   5   4  126.20    3.77
  -1  -5  -4   74.40    2.12
  -1  -5  -4   76.62    2.01
  -1  -5  -4   77.59    2.16
  -1  -5  -4   77.06    2.71
   1   5   4   72.28    2.58
   1   5   4   74.79    2.03
  -2  -5  -4    0.30    0.28
  -2  -5  -4    0.43    0.56
  -2  -5  -4    0.27    0.21
  -2  -5  -4    0.65    0.19
   2   5   4    0.59    0.50
   2   5   4    0.57    0.23
  -3  -5  -4  101.43    2.86
  -3  -5  -4  106.31    2.83
  -3  -5  -4  108.97    2.90
  -3  -5  -4  103.72    3.53
   3   5   4  103.18    3.41
   3   5   4  102.89    2.74
  -4  -5  -4   62.99    2.75
  -4  -5  -4   68.05    1.94
  -4  -5  -4   65.35    1.99
   4   5   4   64.82    1.86
   4   5   4   68.39    2.56
  -5  -5  -4    2.11    0.46
  -5  -5  -4    1.08    0.36
   5   5   4    1.36    0.36
   5   5   4    1.33    0.58
   5   5   4    1.64    0.38
  -6  -5  -4   30.10    1.23
   6   5   4   29.69    1.77
  -9   6   4    5.01    0.67
   8  -6  -4   36.36    1.67
  -8   6   4   39.69    1.60
   7  -6  -4   65.33    2.28
   7  -6  -4   66.25    2.22
  -7   6   4   70.55    2.25
  -7   6   4   69.88    2.70
   6  -6  -4    3.92    0.47
   6  -6  -4    3.26    0.53
   6  -6  -4    3.81    0.55
  -6   6   4    3.72    0.51
  -6   6   4    4.00    0.52
  -6   6   4    4.43    0.37
   5  -6  -4   37.95    1.50
   5  -6  -4   41.01    1.50
   5  -6  -4   38.04    1.47
  -5   6   4   41.22    1.51
  -5   6   4   43.46    1.52
  -5   6   4   41.98    1.32
   4  -6  -4  153.31    4.19
   4  -6  -4  149.29    4.11
   4  -6  -4  156.43    4.33
  -4   6   4  156.82    4.13
  -4   6   4  153.38    4.10
   3  -6  -4    0.35    0.30
   3  -6  -4   -0.09    0.30
  -3   6   4    0.73    0.35
  -3   6   4    0.68    0.31
  -3   6   4    0.81    0.29
   2  -6  -4  272.48    6.89
   2  -6  -4  275.66    7.01
   2  -6  -4  282.54    7.39
  -2   6   4  266.09    7.00
  -2   6   4  275.45    7.17
   1  -6  -4  355.34    9.36
   1  -6  -4  346.57    8.77
   1  -6  -4  352.00    8.92
  -1   6   4  351.13    9.19
  -1   6   4  360.40    8.82
  -1   6   4  366.36    9.39
   0  -6  -4    2.25    0.28
   0  -6  -4    2.51    0.61
   0  -6  -4    2.41    0.41
   0   6   4    2.18    0.56
   0   6   4    2.24    0.32
  -1  -6  -4  146.05    3.71
  -1  -6  -4  144.05    3.80
  -1  -6  -4  146.94    4.47
  -1  -6  -4  141.99    3.85
   1   6   4  145.27    3.73
   1   6   4  140.57    4.66
  -2  -6  -4  164.11    4.25
  -2  -6  -4  166.13    4.16
  -2  -6  -4  161.88    4.31
  -2  -6  -4  163.11    4.99
   2   6   4  163.44    4.18
   2   6   4  159.27    4.85
  -3  -6  -4   54.19    1.75
  -3  -6  -4   55.81    1.67
  -3  -6  -4   51.82    2.50
  -3  -6  -4   55.33    1.59
   3   6   4   54.38    2.29
   3   6   4   54.02    1.62
  -4  -6  -4   30.35    1.27
  -4  -6  -4   29.47    1.16
   4   6   4   28.45    1.11
   4   6   4   30.40    1.77
  -5  -6  -4   36.85    1.35
  -5  -6  -4   38.79    1.45
   5   6   4   37.12    2.03
   8  -7  -4    9.24    1.09
  -8   7   4    9.17    1.02
   7  -7  -4   24.22    1.30
  -7   7   4   25.01    1.27
   6  -7  -4   88.52    2.74
   6  -7  -4   89.32    2.49
   6  -7  -4   83.91    2.71
  -6   7   4   88.76    2.40
  -6   7   4   86.61    2.71
  -6   7   4   89.36    2.71
   5  -7  -4   60.20    2.08
   5  -7  -4   61.58    2.07
   5  -7  -4   62.29    2.02
  -5   7   4   59.13    1.87
  -5   7   4   63.18    2.04
  -5   7   4   61.24    2.03
   4  -7  -4   20.94    1.11
   4  -7  -4   16.32    1.40
   4  -7  -4   21.41    1.28
  -4   7   4   20.09    1.00
  -4   7   4   20.96    1.01
  -4   7   4   20.76    1.02
   3  -7  -4  159.23    4.35
   3  -7  -4  159.01    4.22
   3  -7  -4  158.88    4.66
  -3   7   4  157.75    4.29
  -3   7   4  164.00    4.26
  -3   7   4  155.18    4.39
   2  -7  -4   79.64    2.48
   2  -7  -4   86.69    2.98
   2  -7  -4   81.06    2.34
  -2   7   4   83.66    2.39
  -2   7   4   81.87    2.68
   1  -7  -4    4.28    0.53
   1  -7  -4    4.26    0.47
   1  -7  -4    5.08    0.84
  -1   7   4    4.63    0.56
  -1   7   4    3.93    0.65
  -1   7   4    5.50    0.92
   0  -7  -4  117.12    3.82
   0  -7  -4  115.89    3.21
   0  -7  -4  113.85    3.01
   0   7   4  111.28    3.11
   0   7   4  110.66    3.59
  -1  -7  -4   52.23    1.48
  -1  -7  -4   49.84    1.68
  -1  -7  -4   43.00    1.90
  -1  -7  -4   46.28    2.30
   1   7   4   49.86    2.16
   1   7   4   51.21    1.55
  -2  -7  -4    3.01    0.40
  -2  -7  -4    2.96    0.90
  -2  -7  -4    3.94    0.43
  -2  -7  -4    3.36    0.51
   2   7   4    3.37    0.44
   2   7   4    3.07    0.74
  -3  -7  -4   61.92    1.97
  -3  -7  -4   59.79    1.81
  -3  -7  -4   60.51    1.74
   3   7   4   60.63    2.56
   3   7   4   49.79    2.16
  -4  -7  -4   33.45    1.40
  -4  -7  -4   31.60    1.24
   4   7   4   34.02    1.99
   8  -8  -4   32.97    1.74
  -8   8   4   36.88    1.67
   7  -8  -4   58.27    2.14
  -7   8   4   55.30    2.07
   6  -8  -4    1.32    0.45
   6  -8  -4    0.66    0.37
  -6   8   4    1.17    0.44
  -6   8   4    1.21    0.32
   5  -8  -4   76.22    2.42
   5  -8  -4   76.46    2.51
   5  -8  -4   72.38    2.49
  -5   8   4   78.50    2.44
  -5   8   4   78.99    2.46
  -5   8   4   77.21    2.34
   4  -8  -4  131.37    3.96
   4  -8  -4  130.57    3.62
   4  -8  -4  126.46    3.75
  -4   8   4  129.78    3.71
  -4   8   4  128.65    3.65
  -4   8   4  132.80    3.66
   3  -8  -4    1.42    0.45
   3  -8  -4    1.58    0.64
   3  -8  -4    1.64    0.48
  -3   8   4    1.72    0.38
  -3   8   4    1.73    0.41
   2  -8  -4   27.73    1.09
   2  -8  -4   28.37    1.32
   2  -8  -4   27.14    1.73
  -2   8   4   28.72    1.18
  -2   8   4   29.81    1.49
   1  -8  -4   55.67    1.70
   1  -8  -4   58.24    2.52
   1  -8  -4   58.04    1.94
  -1   8   4   55.40    1.79
  -1   8   4   54.43    2.30
  -1   8   4   54.03    2.21
   0  -8  -4    5.47    0.57
   0  -8  -4    3.42    0.82
   0  -8  -4    5.23    0.60
   0   8   4    4.69    0.67
   0   8   4    6.09    1.05
  -1  -8  -4   83.63    2.43
  -1  -8  -4   86.80    2.36
  -1  -8  -4   83.35    2.58
   1   8   4   83.91    3.08
   1   8   4   80.52    2.41
  -2  -8  -4   69.79    2.07
  -2  -8  -4   70.28    2.00
  -2  -8  -4   66.87    2.24
   2   8   4   68.03    2.09
   2   8   4   69.09    2.81
  -3  -8  -4   11.23    1.03
  -3  -8  -4   11.73    0.71
  -3  -8  -4   11.49    0.79
   3   8   4   13.02    1.56
   7  -9  -4   15.73    1.23
  -7   9   4   16.19    1.21
   6  -9  -4   61.22    2.19
   6  -9  -4   61.91    2.11
  -6   9   4   64.01    2.00
  -6   9   4   61.68    2.18
   5  -9  -4   31.52    1.40
   5  -9  -4   30.83    1.56
  -5   9   4   33.14    1.40
  -5   9   4   31.57    1.40
   4  -9  -4    8.07    1.19
   4  -9  -4    9.46    0.82
  -4   9   4    9.16    0.96
  -4   9   4   10.46    0.98
  -4   9   4    9.71    0.83
   3  -9  -4  153.14    4.59
   3  -9  -4  145.70    3.98
   3  -9  -4  137.34    4.15
  -3   9   4  145.27    4.05
  -3   9   4  147.81    4.04
  -3   9   4  146.29    4.29
   2  -9  -4   49.39    1.91
   2  -9  -4   50.26    2.38
   2  -9  -4   50.00    1.64
  -2   9   4   48.94    1.75
  -2   9   4   49.30    2.07
   1  -9  -4   14.20    0.91
   1  -9  -4   16.52    1.18
   1  -9  -4   11.60    1.61
  -1   9   4   13.49    0.96
  -1   9   4   15.79    1.32
  -1   9   4   16.71    1.60
   0  -9  -4   84.21    2.40
   0  -9  -4   81.35    2.68
   0   9   4   81.01    2.49
   0   9   4   85.10    3.11
  -1  -9  -4   39.39    1.70
  -1  -9  -4   37.12    1.36
  -1  -9  -4   38.16    1.30
   1   9   4   34.51    1.49
   1   9   4   36.09    2.04
  -2  -9  -4    7.56    0.72
  -2  -9  -4    5.49    0.75
  -2  -9  -4    7.96    0.63
   2   9   4    8.93    1.45
   2   9   4    8.00    1.15
   6 -10  -4   -0.33    0.50
  -6  10   4    0.65    0.54
  -6  10   4    1.11    0.54
   5 -10  -4   49.30    2.10
   5 -10  -4   52.02    1.91
  -5  10   4   48.90    1.90
  -5  10   4   52.38    1.96
   4 -10  -4   54.34    2.43
   4 -10  -4   60.49    2.03
  -4  10   4   62.85    2.26
  -4  10   4   61.10    2.08
   3 -10  -4    1.57    0.42
   3 -10  -4    0.36    0.71
  -3  10   4    1.94    0.57
  -3  10   4    1.17    0.57
   2 -10  -4   93.23    2.72
  -2  10   4   95.86    3.25
  -2  10   4   89.87    2.86
   1 -10  -4  104.84    2.97
  -1  10   4  105.47    3.64
  -1  10   4  105.35    3.13
   0 -10  -4    8.47    0.68
   0  10   4    9.44    1.41
   0  10   4    7.05    0.94
  -1 -10  -4   50.53    1.65
  -1 -10  -4   47.98    1.72
   1  10   4   52.10    3.53
   4 -11  -4   13.77    1.01
  -4  11   4   11.94    1.27
  -4  11   4   12.96    1.06
   3 -11  -4   38.52    1.50
  -3  11   4   36.62    1.93
   2 -11  -4   12.99    0.88
  -2  11   4   15.03    1.52
  -1  11   4   21.87    1.82
  -1  14  -5   34.72    1.33
  -1  14  -5   33.23    2.39
   1 -14   5   30.49    1.51
   1 -14   5   35.18    2.06
  -2  14  -5   59.35    3.00
  -2  14  -5   63.46    2.13
   2 -14   5   71.91    2.60
  -3  14  -5    4.13    1.08
  -3  14  -5    4.75    0.62
  -2 -13   5   27.27    1.38
   1  13  -5    3.39    0.98
   1  13  -5    4.95    0.52
  -1 -13   5    5.12    0.79
   0  13  -5  104.84    3.94
   0 -13   5  105.57    3.19
   0 -13   5  104.64    2.98
  -1  13  -5   39.15    1.42
  -1  13  -5   39.95    2.33
   1 -13   5   36.39    1.55
   1 -13   5   39.84    1.57
  -2  13  -5   21.41    1.07
  -2  13  -5   18.64    1.81
   2 -13   5   22.51    1.14
   2 -13   5   17.25    1.29
  -3  13  -5  140.67    3.90
  -3  13  -5  134.60    4.52
   3 -13   5  135.75    3.95
  -4  13  -5   49.75    2.51
  -4  13  -5   54.08    2.01
   4 -13   5   53.48    1.97
  -5  13  -5    4.96    0.98
  -5  13  -5    8.40    1.12
   5 -13   5    6.91    0.91
   3  12  -5    0.55    0.91
  -3 -12   5    0.73    0.44
   2  12  -5   60.01    2.87
  -2 -12   5   62.97    2.12
   1  12  -5  113.32    2.93
   1  12  -5  109.95    3.98
  -1 -12   5  109.18    3.26
   0  12  -5   -0.32    0.70
   0  12  -5    0.29    0.30
   0 -12   5   -0.03    0.37
   0 -12   5   -0.01    0.34
  -1  12  -5   79.69    3.07
  -1  12  -5   77.05    2.37
   1 -12   5   77.42    3.41
   1 -12   5   79.98    2.46
   1 -12   5   75.15    2.37
  -2  12  -5   87.07    3.19
  -2  12  -5   86.55    2.57
   2 -12   5   86.64    2.64
   2 -12   5   83.76    2.95
   2 -12   5   84.15    2.63
  -3  12  -5    1.86    0.72
  -3  12  -5    3.45    0.53
   3 -12   5    3.38    0.59
   3 -12   5    3.96    0.66
   3 -12   5    4.50    0.67
  -4  12  -5   96.80    3.43
  -4  12  -5  100.86    3.07
   4 -12   5  102.77    3.06
   4 -12   5  100.77    3.18
  -5  12  -5   92.85    2.92
  -5  12  -5   88.27    3.19
   5 -12   5   92.55    2.88
   5 -12   5   89.79    2.89
  -6  12  -5   -0.53    0.54
  -6  12  -5   -1.24    0.66
   6 -12   5    0.78    0.50
   4  11  -5   20.71    1.94
  -4 -11   5   22.87    1.21
   3  11  -5   62.24    2.80
  -3 -11   5   62.05    2.11
   2  11  -5   22.37    1.79
  -2 -11   5   26.05    1.17
  -2 -11   5   25.33    0.81
   1  11  -5   40.78    2.19
   1  11  -5   43.42    1.28
   1  11  -5   42.12    1.62
  -1 -11   5   41.47    1.98
  -1 -11   5   41.99    1.54
  -1 -11   5   40.53    1.29
   0  11  -5  131.47    3.40
   0  11  -5  125.95    3.63
   0  11  -5  127.06    4.14
   0 -11   5  126.47    4.02
   0 -11   5  124.59    3.39
   0 -11   5  129.11    3.59
  -1  11  -5    7.64    0.67
  -1  11  -5    7.34    1.19
  -1  11  -5    8.06    0.80
   1 -11   5    6.30    0.95
   1 -11   5    8.09    0.68
   1 -11   5    7.62    0.72
  -2  11  -5   21.10    1.04
  -2  11  -5   22.23    1.13
  -2  11  -5   23.08    1.51
   2 -11   5   20.86    1.25
   2 -11   5   22.43    1.05
   2 -11   5   22.67    1.10
  -3  11  -5   84.44    2.68
  -3  11  -5   88.88    3.06
  -3  11  -5   89.49    2.67
   3 -11   5   88.53    2.67
   3 -11   5   90.24    2.72
   3 -11   5   89.80    2.85
  -4  11  -5   20.26    1.44
  -4  11  -5   19.87    1.13
  -4  11  -5   22.60    1.17
   4 -11   5   21.61    1.08
   4 -11   5   19.03    1.19
   4 -11   5   20.37    1.13
  -5  11  -5   25.43    1.59
  -5  11  -5   26.93    1.37
   5 -11   5   26.65    1.25
   5 -11   5   26.15    1.24
  -6  11  -5   74.08    3.38
  -6  11  -5   91.11    2.85
   6 -11   5   90.00    2.77
  -7  11  -5   22.65    1.64
   7 -11   5   27.15    1.45
   5  10  -5   65.41    2.91
  -5 -10   5   69.37    2.31
   4  10  -5   34.12    2.06
  -4 -10   5   36.91    1.47
   3  10  -5    5.09    0.79
   3  10  -5    5.51    0.96
  -3 -10   5    5.65    0.66
  -3 -10   5    5.80    0.83
   2  10  -5   70.33    2.27
   2  10  -5   72.02    1.88
   2  10  -5   70.92    2.81
  -2 -10   5   70.45    2.23
  -2 -10   5   69.40    2.64
  -2 -10   5   77.85    2.05
   1  10  -5   80.44    2.43
   1  10  -5   76.29    2.88
   1  10  -5   77.53    2.14
  -1 -10   5   78.80    2.38
  -1 -10   5   80.45    2.14
  -1 -10   5   80.50    2.78
   0  10  -5   10.42    1.21
   0  10  -5   10.90    0.80
   0  10  -5   11.40    0.66
   0 -10   5   12.04    1.03
   0 -10   5   11.40    0.73
   0 -10   5   11.41    0.63
  -1  10  -5  186.28    5.04
  -1  10  -5  191.62    5.44
  -1  10  -5  189.10    4.93
   1 -10   5  189.72    5.02
   1 -10   5  194.52    4.94
   1 -10   5  189.73    5.32
  -2  10  -5  134.23    4.43
  -2  10  -5  146.58    3.87
  -2  10  -5  141.12    3.79
   2 -10   5  145.09    3.84
   2 -10   5  134.60    4.11
   2 -10   5  135.95    3.78
  -3  10  -5    0.63    0.36
  -3  10  -5    0.15    0.51
  -3  10  -5    1.64    0.42
   3 -10   5    0.47    0.35
   3 -10   5    0.84    0.34
   3 -10   5    1.08    0.38
  -4  10  -5   61.63    2.03
  -4  10  -5   58.59    2.21
  -4  10  -5   60.38    2.03
   4 -10   5   62.57    2.00
   4 -10   5   62.68    2.07
   4 -10   5   59.74    2.05
  -5  10  -5   74.24    2.53
  -5  10  -5   73.57    2.33
  -5  10  -5   76.00    2.41
   5 -10   5   72.87    2.32
   5 -10   5   69.35    2.38
  -6  10  -5    2.64    0.56
  -6  10  -5    3.09    0.63
   6 -10   5    3.45    0.57
  -7  10  -5   43.48    1.83
  -7  10  -5   43.26    1.86
   7 -10   5   44.76    1.81
   6   9  -5   32.74    2.02
   5   9  -5    2.13    0.75
  -5  -9   5    2.18    1.20
   4   9  -5   21.34    1.14
   4   9  -5   21.17    1.66
  -4  -9   5   22.16    1.07
  -4  -9   5   22.44    1.52
   3   9  -5  137.39    3.85
   3   9  -5  134.51    4.35
  -3  -9   5  144.65    3.85
  -3  -9   5  137.34    4.20
   2   9  -5   19.38    0.62
   2   9  -5   21.38    1.00
   2   9  -5   17.60    1.44
  -2  -9   5   19.46    0.94
  -2  -9   5   19.45    0.62
  -2  -9   5   18.88    1.24
   1   9  -5   72.31    2.76
   1   9  -5   77.33    2.28
   1   9  -5   74.63    2.03
  -1  -9   5   75.60    2.57
  -1  -9   5   73.16    2.34
  -1  -9   5   77.28    2.01
   0   9  -5  248.22    6.81
   0   9  -5  247.33    6.44
   0   9  -5  249.31    6.29
   0  -9   5  248.68    6.72
   0  -9   5  254.32    6.28
   0  -9   5  256.28    6.44
  -1   9  -5  226.63    6.11
  -1   9  -5  224.02    5.70
  -1   9  -5  219.41    5.78
   1  -9   5  232.09    6.04
   1  -9   5  212.31    5.82
   1  -9   5  226.71    5.77
  -2   9  -5    7.02    0.89
  -2   9  -5    6.32    0.65
  -2   9  -5    7.40    0.70
   2  -9   5    6.19    0.72
   2  -9   5    6.28    0.61
   2  -9   5    6.96    0.59
  -3   9  -5  226.13    5.95
  -3   9  -5  233.70    6.15
  -3   9  -5  240.30    5.95
   3  -9   5  211.12    6.16
   3  -9   5  227.30    5.93
   3  -9   5  234.41    6.06
  -4   9  -5   57.56    1.93
  -4   9  -5   60.32    2.07
  -4   9  -5   59.15    1.88
   4  -9   5   55.95    1.88
   4  -9   5   59.35    1.93
   4  -9   5   58.36    1.91
  -5   9  -5   10.46    0.80
  -5   9  -5   11.59    0.93
  -5   9  -5   12.46    0.99
   5  -9   5   11.55    0.82
   5  -9   5   12.00    0.94
  -6   9  -5  116.50    3.31
  -6   9  -5  109.02    3.32
  -6   9  -5  110.20    3.23
   6  -9   5  111.35    3.27
  -7   9  -5   11.44    1.09
  -7   9  -5   11.93    1.05
   7  -9   5   11.51    1.01
   6   8  -5   11.72    1.43
  -6  -8   5   11.90    1.43
   5   8  -5   50.92    2.29
   5   8  -5   49.31    1.84
  -5  -8   5   50.59    2.13
  -5  -8   5   53.74    1.82
   4   8  -5   86.51    2.61
   4   8  -5   83.57    3.06
  -4  -8   5   89.16    2.90
  -4  -8   5   87.10    2.59
   3   8  -5    0.33    0.55
   3   8  -5    0.43    0.31
  -3  -8   5    0.15    0.28
  -3  -8   5   -0.32    0.41
   2   8  -5  256.92    6.46
   2   8  -5  247.72    6.14
   2   8  -5  255.62    6.85
  -2  -8   5  242.00    6.12
  -2  -8   5  254.59    6.45
  -2  -8   5  254.08    6.76
   1   8  -5   43.38    1.78
   1   8  -5   44.47    1.28
   1   8  -5   43.50    1.47
  -1  -8   5   43.98    1.45
  -1  -8   5   44.67    1.25
  -1  -8   5   45.13    1.71
   0   8  -5    1.55    0.29
   0   8  -5    1.52    0.32
   0   8  -5    1.74    0.43
   0  -8   5    1.83    0.24
   0  -8   5    1.61    0.36
   0  -8   5    1.46    0.28
  -1   8  -5  141.71    3.71
  -1   8  -5  145.70    3.79
  -1   8  -5  139.99    4.01
   1  -8   5  143.70    3.97
   1  -8   5  135.92    3.74
   1  -8   5  143.85    3.70
  -2   8  -5  139.57    3.95
  -2   8  -5  139.78    3.74
  -2   8  -5  140.43    3.76
   2  -8   5  143.21    3.73
   2  -8   5  143.11    3.90
   2  -8   5  138.15    3.74
  -3   8  -5   44.95    1.52
  -3   8  -5   46.20    1.56
  -3   8  -5   48.62    1.70
   3  -8   5   43.54    1.56
   3  -8   5   46.89    1.53
   3  -8   5   45.97    1.51
  -4   8  -5  164.53    4.31
  -4   8  -5  166.20    4.44
  -4   8  -5  160.01    4.37
   4  -8   5  155.07    4.30
   4  -8   5  164.79    4.36
  -5   8  -5  102.53    2.93
  -5   8  -5  101.46    2.93
  -5   8  -5   97.31    2.83
   5  -8   5  101.50    2.92
   5  -8   5   93.36    3.04
  -6   8  -5    0.41    0.43
  -6   8  -5   -0.08    0.37
  -6   8  -5    0.41    0.32
  -6   8  -5    0.52    0.34
   6  -8   5    0.48    0.40
   6  -8   5    0.21    0.37
  -7   8  -5   60.38    2.12
  -7   8  -5   53.24    1.94
  -7   8  -5   60.86    1.97
  -7   8  -5   59.86    1.83
   7  -8   5   58.86    2.06
  -8   8  -5   28.50    1.55
   8  -8   5   29.47    1.51
   7   7  -5   19.39    1.55
  -7  -7   5   19.30    1.49
   6   7  -5  100.95    3.37
  -6  -7   5   99.02    3.20
   5   7  -5    2.33    0.65
   5   7  -5    3.70    0.52
  -5  -7   5    2.97    0.45
  -5  -7   5    2.25    0.55
   4   7  -5   29.05    1.61
   4   7  -5   33.16    1.26
  -4  -7   5   30.70    1.45
  -4  -7   5   30.78    1.20
   3   7  -5  249.18    6.79
   3   7  -5  245.24    6.44
  -3  -7   5  253.48    6.45
  -3  -7   5  258.32    6.70
   2   7  -5   30.04    1.41
   2   7  -5   27.48    0.80
   2   7  -5   27.55    1.06
  -2  -7   5   26.84    0.77
  -2  -7   5   30.60    1.29
  -2  -7   5   27.79    1.05
   1   7  -5   93.51    2.41
   1   7  -5   95.16    2.58
   1   7  -5   93.97    2.83
  -1  -7   5   91.54    2.56
  -1  -7   5   89.76    2.44
  -1  -7   5   93.42    2.79
   0   7  -5  162.73    4.45
   0   7  -5  161.07    4.13
   0   7  -5  158.90    4.28
   0  -7   5  163.44    4.47
   0  -7   5  165.38    4.11
   0  -7   5  165.31    4.23
  -1   7  -5   44.40    1.38
  -1   7  -5   45.71    1.69
  -1   7  -5   46.26    1.60
   1  -7   5   43.20    2.02
   1  -7   5   46.60    1.35
   1  -7   5   44.91    1.40
  -2   7  -5  267.23    6.73
  -2   7  -5  261.20    6.55
   2  -7   5  250.81    6.70
   2  -7   5  256.85    6.73
   2  -7   5  263.15    6.55
  -3   7  -5  121.81    3.30
  -3   7  -5  125.97    3.41
  -3   7  -5  120.59    3.26
   3  -7   5  117.51    3.34
   3  -7   5  119.33    3.26
   3  -7   5  124.01    3.28
  -4   7  -5    7.43    0.68
  -4   7  -5    6.44    0.58
  -4   7  -5    6.62    0.68
   4  -7   5    6.55    0.59
   4  -7   5    7.42    0.64
  -5   7  -5   20.19    0.93
  -5   7  -5   19.80    1.02
  -5   7  -5   20.24    1.00
  -5   7  -5   19.93    0.89
   5  -7   5   19.60    0.95
   5  -7   5   20.81    0.99
  -6   7  -5  114.46    3.14
  -6   7  -5  114.16    3.16
  -6   7  -5  107.24    3.05
  -6   7  -5  114.44    3.25
   6  -7   5  110.39    3.24
   6  -7   5  110.47    3.21
  -7   7  -5    6.61    0.68
  -7   7  -5    7.41    0.78
  -7   7  -5    8.73    0.72
  -7   7  -5    7.61    0.89
   7  -7   5    7.98    0.83
  -8   7  -5   19.00    1.28
  -8   7  -5   20.43    1.27
   8  -7   5   18.71    1.24
   7   6  -5   28.54    2.07
  -7  -6   5   28.21    1.56
   6   6  -5   17.73    1.08
   6   6  -5   17.65    1.44
  -6  -6   5   16.53    1.17
   5   6  -5  105.46    3.36
   5   6  -5  104.52    3.05
  -5  -6   5  105.00    3.04
  -5  -6   5  108.38    3.18
   4   6  -5   18.42    1.22
   4   6  -5   16.66    0.87
  -4  -6   5   16.69    1.01
  -4  -6   5   17.44    0.85
   3   6  -5   26.93    1.04
   3   6  -5   26.76    1.32
  -3  -6   5   26.47    1.02
  -3  -6   5   26.14    1.17
   2   6  -5  366.77    8.94
   2   6  -5  375.42    9.18
   2   6  -5  352.90    8.69
  -2  -6   5  355.57    8.67
  -2  -6   5  336.11    9.39
  -2  -6   5  369.34    8.94
   1   6  -5   93.55    2.73
   1   6  -5   93.19    2.40
   1   6  -5   94.85    2.54
  -1  -6   5   93.74    2.37
  -1  -6   5   93.12    2.70
  -1  -6   5   91.45    2.53
   0   6  -5    0.97    0.20
   0   6  -5    0.38    0.22
   0   6  -5    0.58    0.29
   0  -6   5    1.36    0.30
   0  -6   5    0.84    0.23
   0  -6   5    0.66    0.16
  -1   6  -5  174.98    4.43
  -1   6  -5  172.48    4.58
  -1   6  -5  166.92    4.39
   1  -6   5  173.23    4.57
   1  -6   5  178.29    4.39
   1  -6   5  173.26    4.42
  -2   6  -5  142.05    3.87
  -2   6  -5  142.64    3.74
  -2   6  -5  144.43    3.73
   2  -6   5  142.75    3.72
   2  -6   5  144.46    3.86
   2  -6   5  147.18    3.74
  -3   6  -5    6.44    0.52
  -3   6  -5    5.85    0.59
  -3   6  -5    7.68    0.57
   3  -6   5    6.17    0.50
   3  -6   5    5.80    0.51
  -4   6  -5  133.31    3.89
  -4   6  -5  149.76    3.87
  -4   6  -5  144.57    3.83
   4  -6   5  146.63    3.82
   4  -6   5  140.96    3.77
  -5   6  -5  149.72    3.97
  -5   6  -5  145.47    3.98
  -5   6  -5  150.17    3.89
  -5   6  -5  145.42    3.88
   5  -6   5  144.91    3.92
   5  -6   5  146.15    3.97
  -6   6  -5    0.16    0.37
  -6   6  -5    0.02    0.28
  -6   6  -5   -0.29    0.29
  -6   6  -5    0.35    0.29
   6  -6   5   -0.01    0.35
   6  -6   5    0.07    0.30
  -7   6  -5   48.02    1.61
  -7   6  -5   49.53    1.64
  -7   6  -5   48.67    1.63
  -7   6  -5   49.10    1.78
   7  -6   5   45.13    1.71
  -8   6  -5   38.45    1.67
  -8   6  -5   39.95    1.43
   8  -6   5   38.99    1.65
   8   5  -5    0.85    0.53
   8   5  -5   -0.16    0.49
   7   5  -5   16.76    1.27
  -7  -5   5   16.21    1.12
   6   5  -5   73.38    2.54
   6   5  -5   74.78    2.34
  -6  -5   5   72.33    2.33
   5   5  -5    7.50    0.97
   5   5  -5    7.93    0.70
  -5  -5   5    8.45    0.76
   4   5  -5   61.93    2.11
   4   5  -5   60.42    1.89
  -4  -5   5   60.77    1.87
  -4  -5   5   61.85    1.97
   3   5  -5  152.92    4.15
   3   5  -5  151.10    3.98
  -3  -5   5  149.81    3.97
  -3  -5   5  151.51    4.09
   2   5  -5   22.18    0.64
   2   5  -5   23.15    1.02
   2   5  -5   21.36    0.83
  -2  -5   5   22.36    0.61
  -2  -5   5   21.45    0.94
   1   5  -5  106.35    2.82
   1   5  -5  107.81    2.98
   1   5  -5  106.87    2.71
  -1  -5   5  107.27    2.69
  -1  -5   5  109.63    2.97
  -1  -5   5  106.12    2.82
   0   5  -5  174.69    4.41
   0   5  -5  171.53    4.35
   0   5  -5  172.00    4.55
   0  -5   5  179.09    4.34
   0  -5   5  173.13    4.40
   0  -5   5  173.92    4.55
  -1   5  -5   44.65    1.27
  -1   5  -5   44.81    1.41
  -1   5  -5   40.87    1.26
   1  -5   5   42.69    1.38
   1  -5   5   41.91    1.25
   1  -5   5   41.60    1.24
  -2   5  -5   87.89    2.46
  -2   5  -5   86.58    2.35
  -2   5  -5   87.71    2.31
   2  -5   5   85.70    2.34
   2  -5   5   84.63    2.30
  -3   5  -5  255.66    6.38
  -3   5  -5  254.95    6.24
  -3   5  -5  249.68    6.30
   3  -5   5  238.49    6.32
   3  -5   5  250.92    6.24
  -4   5  -5   63.97    1.94
  -4   5  -5   66.40    1.86
  -4   5  -5   65.09    1.92
  -4   5  -5   65.34    1.98
   4  -5   5   67.03    1.94
   4  -5   5   64.48    1.88
  -5   5  -5   93.86    2.92
  -5   5  -5  107.53    2.90
  -5   5  -5  100.39    2.82
   5  -5   5  103.89    2.88
   5  -5   5  106.60    2.83
  -6   5  -5  103.56    2.96
  -6   5  -5  101.53    2.87
  -6   5  -5  105.52    2.92
  -6   5  -5  103.31    2.86
   6  -5   5  104.52    2.95
   6  -5   5  100.99    2.90
  -7   5  -5   19.64    1.08
  -7   5  -5   19.83    0.99
  -7   5  -5   20.67    1.04
   7  -5   5   19.68    1.04
   7  -5   5   17.15    1.22
  -8   5  -5    7.84    0.92
  -8   5  -5    7.52    0.79
   8  -5   5    6.65    0.95
   8   4  -5   28.32    1.44
   8   4  -5   30.16    1.37
   7   4  -5   12.67    1.06
   7   4  -5   12.95    0.97
  -7  -4   5    9.84    1.10
   6   4  -5   11.88    0.83
   6   4  -5   11.66    1.05
  -6  -4   5   10.93    0.76
   5   4  -5  155.91    4.22
   5   4  -5  157.98    4.35
  -5  -4   5  156.91    4.19
   4   4  -5   43.85    1.44
   4   4  -5   42.60    1.56
  -4  -4   5   43.51    1.44
   3   4  -5   60.47    1.73
   3   4  -5   58.50    1.87
  -3  -4   5   54.06    1.69
  -3  -4   5   58.59    1.76
   2   4  -5  222.08    5.53
   2   4  -5  213.28    5.35
   2   4  -5  217.79    5.63
  -2  -4   5  223.49    5.53
  -2  -4   5  220.98    5.62
   1   4  -5  243.87    6.14
   1   4  -5  239.01    6.00
   1   4  -5  240.60    5.92
  -1  -4   5  241.73    6.13
  -1  -4   5  238.37    5.91
  -1  -4   5  247.19    6.01
   0   4  -5  176.17    4.52
   0   4  -5  175.46    4.37
   0   4  -5  172.63    4.35
   0  -4   5  175.25    4.34
   0  -4   5  175.32    4.51
   0  -4   5  170.65    4.37
  -1   4  -5  974.45   23.23
  -1   4  -5  928.63   22.97
  -1   4  -5  925.70   23.27
   1  -4   5 1000.00   23.34
   1  -4   5  924.52   23.10
  -2   4  -5  126.91    3.26
  -2   4  -5  126.08    3.32
  -2   4  -5  130.24    3.44
   2  -4   5  129.85    3.26
   2  -4   5  128.19    3.32
  -3   4  -5    0.34    0.20
  -3   4  -5    0.23    0.20
  -3   4  -5    0.91    0.21
  -3   4  -5    0.36    0.20
   3  -4   5    0.25    0.20
   3  -4   5    0.56    0.25
  -4   4  -5  166.99    4.30
  -4   4  -5  161.24    4.18
  -4   4  -5  166.82    4.36
  -4   4  -5  163.79    4.30
   4  -4   5  166.28    4.30
   4  -4   5  164.74    4.21
  -5   4  -5   96.73    2.74
  -5   4  -5   96.18    2.72
  -5   4  -5   94.75    2.70
  -5   4  -5   95.84    2.60
   5  -4   5   97.64    2.71
   5  -4   5   96.68    2.64
  -6   4  -5   17.45    0.92
  -6   4  -5   16.79    0.90
  -6   4  -5   17.08    0.86
   6  -4   5   16.54    0.85
   6  -4   5   15.60    0.85
  -7   4  -5   30.67    1.54
  -7   4  -5   31.13    1.24
  -7   4  -5   31.72    1.31
   7  -4   5   30.62    1.29
   7  -4   5   30.86    1.26
  -8   4  -5   22.85    1.23
  -8   4  -5   23.33    1.13
   8  -4   5   20.46    1.23
   8   3  -5    2.12    0.45
   8   3  -5    1.25    0.50
  -8  -3   5    2.20    0.35
   7   3  -5   72.31    2.34
   7   3  -5   72.84    2.27
   7   3  -5   74.06    2.35
  -7  -3   5   66.61    2.14
   6   3  -5   92.47    2.71
   6   3  -5   91.79    2.75
  -6  -3   5   87.60    2.51
   5   3  -5    4.89    0.71
   5   3  -5    4.10    0.58
  -5  -3   5    3.97    0.46
   4   3  -5  172.54    4.35
   4   3  -5  179.84    4.67
   4   3  -5  182.26    4.66
   4   3  -5  183.26    4.35
  -4  -3   5  175.17    4.60
   3   3  -5  321.47    7.89
   3   3  -5  316.88    7.89
   3   3  -5  321.83    8.13
   3   3  -5  335.78    8.12
  -3  -3   5  327.30    8.12
  -3  -3   5  333.04    8.11
   2   3  -5   43.27    1.16
   2   3  -5   45.22    1.37
   2   3  -5   43.30    1.30
  -2  -3   5   43.14    1.29
  -2  -3   5   43.34    1.34
   1   3  -5   58.37    1.69
   1   3  -5   56.48    1.52
   1   3  -5   58.30    1.57
  -1  -3   5   57.16    1.57
  -1  -3   5   58.07    1.51
   0   3  -5  369.04    9.20
   0   3  -5  373.48    9.35
   0   3  -5  384.10    9.19
   0  -3   5  379.01    9.20
   0  -3   5  382.80    9.19
  -1   3  -5    0.75    0.18
  -1   3  -5    1.16    0.18
  -1   3  -5    0.93    0.22
   1  -3   5    0.57    0.16
   1  -3   5    1.06    0.16
  -2   3  -5  158.75    4.11
  -2   3  -5  158.70    4.04
  -2   3  -5  159.95    3.94
   2  -3   5  158.94    3.94
   2  -3   5  157.59    4.04
  -3   3  -5   98.22    2.49
  -3   3  -5   97.47    2.64
  -3   3  -5   95.43    2.59
   3  -3   5   92.21    2.57
   3  -3   5   96.56    2.48
  -4   3  -5   38.69    1.15
  -4   3  -5   38.80    1.33
  -4   3  -5   39.07    1.28
   4  -3   5   39.63    1.18
   4  -3   5   38.86    1.27
  -5   3  -5  125.81    3.41
  -5   3  -5  124.51    3.45
   5  -3   5  128.09    3.32
   5  -3   5  126.44    3.40
  -6   3  -5   67.86    2.09
   6  -3   5   69.04    2.07
   6  -3   5   67.11    2.02
  -7   3  -5    0.38    0.35
  -7   3  -5    0.35    0.32
  -7   3  -5    0.32    0.48
   7  -3   5    0.54    0.33
   7  -3   5    0.05    0.38
  -8   3  -5   31.03    1.33
  -8   3  -5   31.09    1.41
   8  -3   5   30.17    1.32
   8  -3   5   31.81    1.49
   9   2  -5    4.77    0.74
   8   2  -5   61.46    2.21
   8   2  -5   64.09    1.69
   8   2  -5   64.96    1.86
   7   2  -5    8.02    0.79
   7   2  -5    7.42    0.73
   7   2  -5    7.06    0.40
   7   2  -5    7.73    0.81
   6   2  -5   65.73    2.13
   6   2  -5   66.10    1.79
   6   2  -5   69.86    2.09
   6   2  -5   66.70    2.13
   5   2  -5  185.28    4.78
   5   2  -5  182.73    4.70
   5   2  -5  175.43    4.47
  -5  -2   5  181.09    4.61
   4   2  -5  154.08    3.82
   4   2  -5  157.04    3.98
   4   2  -5  142.04    4.36
  -4  -2   5  160.43    3.95
   3   2  -5  135.91    3.49
   3   2  -5  145.19    3.66
   3   2  -5  139.50    3.66
   3   2  -5  142.32    3.50
   2   2  -5  276.69    6.98
   2   2  -5  283.38    6.85
   2   2  -5  280.95    6.94
   1   2  -5   22.83    0.69
   1   2  -5   22.31    0.71
   1   2  -5   22.07    0.81
  -1  -2   5   22.30    0.71
   0   2  -5    2.85    0.36
   0   2  -5    2.83    0.22
   0   2  -5    2.99    0.26
   0  -2   5    3.04    0.22
   0  -2   5    2.90    0.24
  -1   2  -5  304.11    7.43
  -1   2  -5  308.04    7.55
  -1   2  -5  302.53    7.64
   1  -2   5  302.51    7.43
   1  -2   5  315.89    7.55
  -2   2  -5  100.94    2.58
  -2   2  -5  101.43    2.72
  -2   2  -5  104.66    2.82
   2  -2   5  107.24    2.59
   2  -2   5  105.78    2.73
  -3   2  -5   10.82    0.54
  -3   2  -5    9.65    0.64
  -3   2  -5   10.03    0.40
   3  -2   5   10.49    0.53
   3  -2   5    9.47    0.42
  -4   2  -5  127.44    3.34
  -4   2  -5  125.36    3.44
   4  -2   5  127.18    3.33
   4  -2   5  122.65    3.19
  -5   2  -5   88.91    2.53
   5  -2   5   92.26    2.53
   5  -2   5   88.53    2.42
  -6   2  -5    0.94    0.45
  -6   2  -5    0.64    0.33
   6  -2   5    0.42    0.32
   6  -2   5    0.98    0.31
   6  -2   5    0.69    0.28
  -7   2  -5   20.91    1.04
  -7   2  -5   18.79    1.36
   7  -2   5   20.48    0.96
   7  -2   5   21.86    1.00
   7  -2   5   20.54    1.02
  -8   2  -5   32.39    1.42
   8  -2   5   32.95    1.47
   9   1  -5   14.39    1.20
  -9  -1   5   15.94    0.80
   8   1  -5    0.33    0.44
   8   1  -5    0.38    0.23
  -8  -1   5    0.27    0.27
   7   1  -5   54.72    1.69
   7   1  -5   60.91    2.03
   7   1  -5   59.26    2.01
   7   1  -5   60.46    1.64
  -7  -1   5   59.26    1.67
   6   1  -5   38.64    1.29
   6   1  -5   37.33    1.14
   6   1  -5   39.77    1.44
  -6  -1   5   36.53    1.15
   5   1  -5    4.92    0.47
   5   1  -5    4.81    0.40
   5   1  -5    4.06    0.55
   5   1  -5    4.97    0.58
  -5  -1   5    4.18    0.37
   4   1  -5   95.26    2.60
   4   1  -5   90.98    2.43
   4   1  -5   94.38    2.49
   3   1  -5  176.81    4.53
   3   1  -5  180.52    4.59
   3   1  -5  181.07    4.47
   2   1  -5    0.71    0.15
   2   1  -5    0.26    0.18
   2   1  -5    0.78    0.16
   2   1  -5    0.40    0.18
   2   1  -5    0.43    0.16
   1   1  -5   93.93    2.41
   1   1  -5   94.22    2.39
   1   1  -5   92.21    2.50
   0   1  -5  290.08    7.29
   0   1  -5  290.17    7.08
   0   1  -5  296.86    7.19
  -1   1  -5   24.11    0.92
  -2   1  -5  271.41    6.82
  -2   1  -5  281.80    6.95
   2  -1   5  272.29    6.81
   2  -1   5  273.52    6.95
  -3   1  -5  168.80    4.50
  -3   1  -5  171.63    4.36
   3  -1   5  171.05    4.50
   3  -1   5  169.93    4.37
  -4   1  -5    1.23    0.26
  -4   1  -5    1.66    0.45
   4  -1   5    1.70    0.26
   4  -1   5    1.46    0.21
   4  -1   5    1.64    0.27
   4  -1   5    1.23    0.31
  -5   1  -5   96.21    2.67
  -5   1  -5   93.84    2.88
   5  -1   5   95.83    2.53
   5  -1   5   92.89    2.49
   5  -1   5   99.87    2.82
   5  -1   5   96.17    2.66
  -6   1  -5  132.20    3.57
  -6   1  -5  131.46    3.84
   6  -1   5  132.48    3.56
   6  -1   5  130.26    3.41
   6  -1   5  129.33    3.46
  -7   1  -5    5.19    0.71
  -7   1  -5    4.29    0.81
   7  -1   5    5.28    0.78
   7  -1   5    4.31    0.52
   7  -1   5    5.23    0.67
  -8   1  -5   17.56    1.11
   8  -1   5   16.32    1.40
   9   0  -5   18.81    1.26
  -9   0   5   17.55    0.88
   8   0  -5  107.12    3.32
   8   0  -5  111.80    2.94
  -8   0   5  110.81    2.98
   7   0  -5   18.46    0.77
   7   0  -5   19.32    1.06
   7   0  -5   19.13    1.06
  -7   0   5   19.83    0.84
   6   0  -5   36.19    1.04
   6   0  -5   33.01    1.79
   6   0  -5   37.13    1.40
   6   0  -5   36.54    1.13
   6   0  -5   37.48    1.17
  -6   0   5   37.13    1.20
   5   0  -5   98.33    2.50
   5   0  -5   94.46    2.54
   5   0  -5   95.68    2.72
   5   0  -5   91.68    2.47
   5   0  -5   98.12    2.74
  -5   0   5   94.68    2.55
   4   0  -5   77.37    2.12
   4   0  -5   75.79    2.12
   4   0  -5   79.21    2.09
   4   0  -5   82.45    2.26
  -4   0   5   78.42    2.12
   3   0  -5  111.55    2.86
   3   0  -5  113.43    2.89
   3   0  -5  108.11    2.89
   3   0  -5  109.81    2.94
   2   0  -5  309.73    7.59
   2   0  -5  303.76    7.63
   2   0  -5  310.09    7.55
   1   0  -5   65.94    1.72
   1   0  -5   64.74    1.72
   1   0  -5   64.24    1.87
   1   0  -5   67.47    1.78
   0   0  -5  148.49    3.88
   0   0  -5  149.98    3.62
   0   0  -5  149.28    3.76
   0   0  -5  144.42    3.61
   0   0   5  149.57    3.88
  -1   0  -5  286.25    7.00
  -1   0  -5  281.87    7.14
   1   0   5  280.18    6.99
   1   0   5  282.73    7.14
  -2   0  -5  145.74    3.92
  -2   0  -5  145.79    3.73
   2   0   5  143.57    3.73
   2   0   5  145.93    3.91
  -3   0  -5   34.06    1.10
  -3   0  -5   33.66    1.38
   3   0   5   33.91    1.30
  -4   0  -5  164.76    4.28
  -4   0  -5  165.64    4.55
   4   0   5  164.47    4.49
   4   0   5  166.14    4.29
  -5   0  -5   33.48    1.19
  -5   0  -5   33.73    1.56
   5   0   5   33.28    1.00
   5   0   5   34.81    1.40
   5   0   5   32.96    1.17
   5   0   5   33.32    1.06
  -6   0  -5   10.98    0.75
  -6   0  -5   10.12    1.25
   6   0   5   11.01    0.69
   6   0   5   12.19    0.91
   6   0   5   12.46    0.71
   6   0   5   12.04    0.60
  -7   0  -5   64.64    2.63
  -7   0  -5   65.58    2.07
   7   0   5   67.77    1.93
   7   0   5   68.10    2.13
   7   0   5   62.37    2.02
   7   0   5   64.20    2.47
   9  -1  -5   21.90    1.38
   9  -1  -5   24.39    1.05
  -9   1   5   24.63    1.26
   8  -1  -5    0.11    0.30
   8  -1  -5    0.56    0.46
  -8   1   5    0.43    0.33
   7  -1  -5   74.99    2.39
   7  -1  -5   72.31    2.12
  -7   1   5   76.31    2.18
   6  -1  -5   80.96    2.25
  -6   1   5   78.69    2.26
   5  -1  -5    3.57    0.30
   5  -1  -5    3.50    0.48
   5  -1  -5    3.02    0.36
   5  -1  -5    3.84    0.54
  -5   1   5    3.40    0.48
   4  -1  -5  214.71    5.32
   4  -1  -5  212.69    5.40
   4  -1  -5  211.31    5.25
   4  -1  -5  208.90    5.31
  -4   1   5  206.27    5.32
   3  -1  -5  211.85    5.30
   3  -1  -5  209.13    5.32
   3  -1  -5  212.61    5.34
   2  -1  -5   17.14    0.66
   2  -1  -5   17.59    0.64
   2  -1  -5   16.83    0.74
  -2   1   5   17.48    0.70
   1  -1  -5  450.41   10.90
   1  -1  -5  454.65   11.11
   1  -1  -5  444.04   10.97
  -1   1   5  449.72   11.08
   0  -1  -5  400.14    9.86
   0  -1  -5  412.99    9.70
   0  -1  -5  403.30   10.03
   0   1   5  393.51    9.99
  -1  -1  -5    1.65    0.32
  -1  -1  -5    2.70    0.32
   1   1   5    2.76    0.51
  -2  -1  -5   71.31    2.31
  -2  -1  -5   74.19    2.00
   2   1   5   70.88    2.22
  -3  -1  -5  217.03    5.52
  -3  -1  -5  217.60    5.81
   3   1   5  215.48    5.77
   3   1   5  222.43    5.53
  -4  -1  -5    1.56    0.28
  -4  -1  -5    2.29    0.56
   4   1   5    1.15    0.39
   4   1   5    1.83    0.29
  -5  -1  -5   61.30    1.84
  -5  -1  -5   58.63    2.27
   5   1   5   60.33    2.14
   5   1   5   59.94    1.68
   5   1   5   62.69    1.85
  -6  -1  -5   56.68    2.36
  -6  -1  -5   55.90    1.77
   6   1   5   53.59    1.57
   6   1   5   55.87    1.76
   6   1   5   56.20    2.04
   6   1   5   54.49    1.65
  -7  -1  -5    4.69    0.99
  -7  -1  -5    5.78    0.76
  -7  -1  -5    9.09    1.94
   7   1   5    5.24    0.75
   7   1   5    6.67    0.93
   7   1   5    6.63    0.76
   9  -2  -5   21.88    1.37
   9  -2  -5   20.83    1.03
  -9   2   5   23.37    1.14
   8  -2  -5   36.00    1.30
   8  -2  -5   35.78    1.55
  -8   2   5   32.36    1.75
   7  -2  -5    8.48    0.82
   7  -2  -5    8.20    0.67
  -7   2   5    7.65    0.70
  -7   2   5    7.22    0.80
   6  -2  -5   67.27    2.42
   6  -2  -5   72.03    2.09
  -6   2   5   72.68    2.12
   5  -2  -5  224.62    5.74
   5  -2  -5  222.63    5.46
   5  -2  -5  220.35    5.53
  -5   2   5  217.44    5.65
   4  -2  -5   10.25    0.62
   4  -2  -5   10.14    0.62
   4  -2  -5   11.59    0.66
  -4   2   5    9.96    0.62
  -4   2   5   10.54    0.81
   3  -2  -5   77.56    2.18
   3  -2  -5   76.47    2.22
   3  -2  -5   81.76    2.19
  -3   2   5   79.65    2.16
   2  -2  -5  143.97    3.83
   2  -2  -5  145.74    3.67
   2  -2  -5  143.69    3.71
  -2   2   5  141.00    3.76
  -2   2   5  144.94    3.69
   1  -2  -5  181.79    4.72
   1  -2  -5  180.49    4.44
   1  -2  -5  175.85    4.53
  -1   2   5  180.21    4.67
  -1   2   5  177.69    4.47
   0  -2  -5   98.20    2.87
   0  -2  -5   99.81    2.49
   0  -2  -5  100.45    2.66
   0   2   5  101.70    2.52
   0   2   5  101.05    2.85
  -1  -2  -5  208.88    5.11
  -1  -2  -5  192.66    5.71
   1   2   5  203.92    5.35
  -2  -2  -5   31.17    1.34
  -2  -2  -5   30.65    1.03
  -2  -2  -5   32.88    1.41
   2   2   5   30.52    1.33
  -3  -2  -5   10.72    0.58
  -3  -2  -5   10.52    1.04
  -3  -2  -5   11.90    0.90
   3   2   5   10.07    0.91
  -4  -2  -5  126.98    3.35
  -4  -2  -5  123.71    3.81
  -4  -2  -5  132.65    3.73
   4   2   5  118.85    3.78
  -5  -2  -5   12.47    0.89
  -5  -2  -5   14.50    1.40
   5   2   5   14.03    1.05
   5   2   5   12.77    0.61
  -6  -2  -5    1.00    0.36
  -6  -2  -5    0.86    0.84
   6   2   5    1.16    0.46
   6   2   5    1.30    0.35
  -7  -2  -5   29.85    1.31
   7   2   5   31.74    1.61
   9  -3  -5   19.97    1.32
   9  -3  -5   17.79    1.07
  -9   3   5   21.26    1.14
   8  -3  -5    2.60    0.57
   8  -3  -5    2.45    0.43
  -8   3   5    2.75    0.48
   7  -3  -5   64.02    2.14
   7  -3  -5   61.33    1.96
   6  -3  -5   85.92    2.59
   6  -3  -5   86.27    2.49
  -6   3   5   84.01    2.50
   5  -3  -5   16.84    0.83
   5  -3  -5   15.36    0.84
   5  -3  -5   15.69    0.85
  -5   3   5   14.99    0.83
   4  -3  -5  165.61    4.31
   4  -3  -5  166.39    4.30
   4  -3  -5  164.19    4.30
  -4   3   5  165.53    4.19
  -4   3   5  162.91    4.32
  -4   3   5  160.00    4.29
   3  -3  -5   90.61    3.22
   3  -3  -5  110.94    3.03
   3  -3  -5  114.52    2.91
  -3   3   5  107.03    2.91
  -3   3   5  112.22    2.91
  -3   3   5  101.23    3.64
  -3   3   5  116.34    2.92
   2  -3  -5    2.19    0.36
   2  -3  -5    2.33    0.41
   2  -3  -5    2.21    0.32
  -2   3   5    1.87    0.32
  -2   3   5    2.24    0.34
   1  -3  -5  160.84    4.00
   1  -3  -5  162.36    4.37
   1  -3  -5  161.46    4.12
  -1   3   5  157.40    4.05
  -1   3   5  157.23    4.27
   0  -3  -5  144.74    3.52
   0  -3  -5  143.47    3.69
   0  -3  -5  132.19    4.20
   0  -3  -5  139.37    3.84
   0   3   5  144.45    3.93
   0   3   5  145.46    3.55
  -1  -3  -5   19.88    1.19
  -1  -3  -5   19.51    0.77
   1   3   5   20.49    0.61
   1   3   5   18.29    1.08
  -2  -3  -5   96.76    2.64
  -2  -3  -5  100.04    3.11
   2   3   5   96.17    3.02
  -3  -3  -5  155.47    4.42
  -3  -3  -5  154.62    3.89
   3   3   5  134.14    4.98
  -4  -3  -5    0.37    0.25
  -4  -3  -5    0.88    0.61
   4   3   5    0.60    0.45
  -5  -3  -5   79.43    2.30
  -5  -3  -5   76.46    3.02
   5   3   5   81.24    2.77
  -6  -3  -5   41.73    1.50
   6   3   5   43.01    1.93
   9  -4  -5   26.19    1.54
  -9   4   5   29.28    1.37
   8  -4  -5   52.18    1.98
   8  -4  -5   51.51    1.79
  -8   4   5   51.08    1.81
   7  -4  -5    7.88    0.77
   7  -4  -5    9.76    0.89
  -7   4   5    8.67    0.80
   6  -4  -5   33.79    1.37
   6  -4  -5   34.24    1.33
   6  -4  -5   35.88    1.09
  -6   4   5   29.06    1.52
   5  -4  -5  141.65    3.87
   5  -4  -5  141.00    3.83
   5  -4  -5  142.46    3.89
  -5   4   5  148.61    3.91
  -5   4   5  139.85    3.87
   4  -4  -5   11.63    0.77
   4  -4  -5   12.15    0.90
   4  -4  -5   12.45    0.72
  -4   4   5   12.25    0.71
  -4   4   5   12.43    0.64
  -4   4   5   11.72    0.74
   3  -4  -5  125.84    3.44
   3  -4  -5  124.71    3.37
   3  -4  -5  141.20    3.66
  -3   4   5  127.46    3.39
  -3   4   5  123.93    3.43
  -3   4   5  121.18    3.40
   2  -4  -5  305.87    8.10
   2  -4  -5  316.52    7.78
   2  -4  -5  315.21    7.88
  -2   4   5  313.03    7.97
  -2   4   5  319.79    7.80
   1  -4  -5   50.36    1.88
   1  -4  -5   48.53    1.40
   1  -4  -5   49.39    1.54
  -1   4   5   48.47    1.72
  -1   4   5   48.82    1.42
   0  -4  -5   58.01    1.74
   0  -4  -5   58.07    1.72
   0  -4  -5   60.95    2.16
   0  -4  -5   58.76    1.57
   0   4   5   56.68    2.01
   0   4   5   57.51    1.81
  -1  -4  -5  110.82    2.98
  -1  -4  -5  110.44    2.78
  -1  -4  -5  110.65    2.96
  -1  -4  -5  111.09    3.44
   1   4   5  110.53    2.80
   1   4   5  107.21    3.34
  -2  -4  -5   16.46    0.74
  -2  -4  -5   18.17    1.32
  -2  -4  -5   16.24    0.56
  -2  -4  -5   17.17    0.80
   2   4   5   16.47    0.59
   2   4   5   15.54    1.39
  -3  -4  -5   47.83    2.12
  -3  -4  -5   46.09    1.46
   3   4   5   45.39    1.26
   3   4   5   44.14    1.94
  -4  -4  -5  130.69    3.63
  -4  -4  -5  132.78    4.29
   4   4   5  137.86    4.14
  -5  -4  -5   12.11    0.76
   5   4   5   11.91    1.22
  -6  -4  -5    9.21    0.84
   6   4   5   11.99    1.27
   9  -5  -5    9.29    1.49
  -9   5   5   12.82    1.09
   8  -5  -5    6.03    0.89
  -8   5   5    7.70    0.87
   7  -5  -5   74.11    2.45
   7  -5  -5   75.12    2.42
  -7   5   5   75.06    2.38
   6  -5  -5   70.16    2.19
   6  -5  -5   68.94    2.15
   6  -5  -5   69.16    2.22
  -6   5   5   65.79    2.17
  -6   5   5   67.65    2.20
   5  -5  -5    3.33    0.51
   5  -5  -5    3.63    0.50
  -5   5   5    3.65    0.59
  -5   5   5    3.53    0.47
  -5   5   5    3.29    0.44
   4  -5  -5  126.55    3.54
   4  -5  -5  127.48    3.68
   4  -5  -5  129.41    3.48
  -4   5   5  125.17    3.52
  -4   5   5  122.85    3.43
  -4   5   5  135.97    3.52
   3  -5  -5  114.34    3.22
   3  -5  -5  118.43    4.11
   3  -5  -5  116.86    3.14
  -3   5   5  116.10    3.24
  -3   5   5  113.12    3.18
  -3   5   5  116.19    3.16
   2  -5  -5    2.87    0.45
   2  -5  -5    2.60    0.39
   2  -5  -5    2.67    0.57
  -2   5   5    3.13    0.79
  -2   5   5    2.54    0.45
  -2   5   5    2.75    0.34
   1  -5  -5  125.28    3.37
   1  -5  -5  123.55    3.76
   1  -5  -5  121.50    3.19
  -1   5   5  125.47    3.23
  -1   5   5  120.78    3.58
   0  -5  -5  155.49    3.94
   0  -5  -5  157.22    4.60
   0  -5  -5  158.47    4.13
   0   5   5  157.63    3.98
   0   5   5  152.03    4.45
  -1  -5  -5    3.97    0.46
  -1  -5  -5    3.20    0.68
  -1  -5  -5    4.34    0.59
  -1  -5  -5    3.17    0.31
   1   5   5    4.08    0.40
   1   5   5    2.60    0.57
  -2  -5  -5  129.70    4.07
  -2  -5  -5  128.24    3.40
  -2  -5  -5  129.15    3.48
  -2  -5  -5  127.86    3.21
   2   5   5  125.66    3.92
   2   5   5  119.38    3.22
  -3  -5  -5   62.99    1.95
  -3  -5  -5   60.87    1.92
  -3  -5  -5   62.64    2.63
   3   5   5   62.20    1.72
   3   5   5   63.87    2.49
  -4  -5  -5    0.15    0.28
  -4  -5  -5    0.28    0.41
   4   5   5   -0.08    0.53
  -5  -5  -5   46.37    1.62
  -5  -5  -5   49.55    1.72
   5   5   5   50.75    2.28
   8  -6  -5   55.37    2.16
  -8   6   5   59.04    2.08
   7  -6  -5   -0.45    0.76
   7  -6  -5   -0.11    0.44
  -7   6   5    0.51    0.41
   6  -6  -5   42.19    1.49
   6  -6  -5   45.19    1.68
   6  -6  -5   43.63    1.69
  -6   6   5   46.62    1.37
  -6   6   5   45.60    1.69
  -6   6   5   43.39    1.65
   5  -6  -5   58.45    2.08
   5  -6  -5   62.22    2.04
   5  -6  -5   60.66    2.08
  -5   6   5   59.91    1.83
  -5   6   5   61.33    2.00
  -5   6   5   59.92    1.99
   4  -6  -5    0.07    0.33
   4  -6  -5    0.46    0.50
   4  -6  -5   -0.08    0.36
  -4   6   5    0.37    0.34
  -4   6   5   -0.02    0.32
  -4   6   5    0.36    0.29
   3  -6  -5  146.25    3.92
   3  -6  -5  147.01    4.34
   3  -6  -5  146.98    4.03
  -3   6   5  148.53    4.09
  -3   6   5  149.69    3.95
   2  -6  -5  115.25    3.18
   2  -6  -5  113.16    3.56
   2  -6  -5  114.82    3.02
  -2   6   5  113.89    3.65
  -2   6   5  102.93    3.20
  -2   6   5  111.94    3.33
   1  -6  -5    0.83    0.62
   1  -6  -5    0.40    0.24
   1  -6  -5   -0.11    0.34
  -1   6   5    0.68    0.29
  -1   6   5    0.74    0.78
   0  -6  -5  123.59    3.40
   0  -6  -5  123.68    3.94
   0  -6  -5  122.43    3.17
   0   6   5  120.97    3.75
   0   6   5  121.10    3.22
  -1  -6  -5  221.46    5.76
  -1  -6  -5  225.94    5.54
  -1  -6  -5  224.39    5.77
  -1  -6  -5  229.23    6.40
   1   6   5  215.84    6.22
   1   6   5  215.34    5.57
  -2  -6  -5   20.69    1.02
  -2  -6  -5   21.67    0.75
  -2  -6  -5   20.70    0.91
  -2  -6  -5   18.28    1.66
   2   6   5   19.82    0.81
   2   6   5   20.18    1.46
  -3  -6  -5   17.60    0.87
  -3  -6  -5   18.65    1.04
   3   6   5   18.37    1.47
   3   6   5   18.02    0.79
  -4  -6  -5   43.06    1.50
  -4  -6  -5   42.57    1.63
   4   6   5   44.65    2.20
   8  -7  -5    8.51    1.13
  -8   7   5   11.83    1.08
   7  -7  -5   70.09    2.43
  -7   7   5   71.63    2.38
   6  -7  -5   26.64    1.21
   6  -7  -5   28.54    1.33
  -6   7   5   27.43    1.31
  -6   7   5   27.52    1.35
  -6   7   5   29.35    1.07
   5  -7  -5    1.63    0.44
   5  -7  -5    1.28    0.50
   5  -7  -5    1.38    0.49
  -5   7   5    1.81    0.49
  -5   7   5    1.88    0.37
  -5   7   5    1.59    0.43
   4  -7  -5  189.03    4.97
   4  -7  -5  185.80    5.32
   4  -7  -5  182.83    5.07
  -4   7   5  185.26    5.01
  -4   7   5  188.83    5.03
  -4   7   5  192.50    5.01
   3  -7  -5  148.67    4.16
   3  -7  -5  154.71    4.57
   3  -7  -5  149.08    4.02
  -3   7   5  149.64    4.06
  -3   7   5  150.54    4.24
   2  -7  -5   17.62    1.50
   2  -7  -5   19.30    1.06
   2  -7  -5   18.35    0.83
  -2   7   5   18.95    1.19
  -2   7   5   19.28    0.92
  -2   7   5   18.72    1.37
   1  -7  -5   95.54    2.59
   1  -7  -5   95.52    2.82
   1  -7  -5   96.38    3.37
  -1   7   5   92.01    3.08
  -1   7   5   93.89    2.65
   0  -7  -5   54.90    2.48
   0  -7  -5   55.96    1.62
   0  -7  -5   54.17    1.86
   0   7   5   54.67    2.24
   0   7   5   54.98    1.70
  -1  -7  -5    0.30    0.43
  -1  -7  -5    0.45    0.27
  -1  -7  -5   -0.79    0.68
  -1  -7  -5    0.25    0.22
   1   7   5    0.88    0.58
   1   7   5    0.10    0.32
  -2  -7  -5   92.93    2.79
  -2  -7  -5   91.64    2.64
  -2  -7  -5   94.63    2.50
   2   7   5   89.95    3.30
   2   7   5   91.88    2.55
  -3  -7  -5   32.39    1.47
  -3  -7  -5   33.32    1.25
   3   7   5   33.09    1.97
   7  -8  -5    0.29    0.56
  -7   8   5    1.47    0.51
   6  -8  -5   68.01    2.24
   6  -8  -5   69.79    2.33
  -6   8   5   67.72    2.30
  -6   8   5   67.00    2.07
   5  -8  -5   82.36    2.72
   5  -8  -5   80.80    2.51
  -5   8   5   76.25    2.55
  -5   8   5   80.05    2.54
  -5   8   5   80.43    2.47
   4  -8  -5    6.96    0.96
   4  -8  -5    9.81    0.78
   4  -8  -5    8.38    1.23
  -4   8   5   10.33    0.83
  -4   8   5    9.72    0.92
  -4   8   5    9.02    0.89
   3  -8  -5   35.01    1.31
   3  -8  -5   34.61    1.89
   3  -8  -5   32.61    1.48
  -3   8   5   35.96    1.59
  -3   8   5   34.99    1.40
   2  -8  -5   86.08    2.74
   2  -8  -5   86.20    2.49
   2  -8  -5   91.20    3.29
  -2   8   5   86.65    2.92
  -2   8   5   86.47    2.57
  -2   8   5   87.64    3.23
   1  -8  -5    4.51    0.51
   1  -8  -5    3.48    0.89
   1  -8  -5    3.51    0.58
  -1   8   5    5.19    0.72
  -1   8   5    4.22    0.69
   0  -8  -5   39.79    1.43
   0  -8  -5   39.70    1.65
   0  -8  -5   39.54    1.29
   0   8   5   38.29    1.95
   0   8   5   38.25    1.42
  -1  -8  -5   92.34    2.45
  -1  -8  -5   82.78    2.77
  -1  -8  -5   88.40    2.58
   1   8   5   89.42    2.55
   1   8   5   87.69    3.24
  -2  -8  -5    9.46    0.62
  -2  -8  -5   10.52    0.79
  -2  -8  -5    9.59    1.06
   2   8   5   10.96    1.44
   6  -9  -5   16.76    1.57
   6  -9  -5   18.54    1.22
  -6   9   5   20.98    1.11
  -6   9   5   20.28    1.24
   5  -9  -5   14.71    1.31
   5  -9  -5   16.12    1.06
  -5   9   5   16.57    1.07
  -5   9   5   16.06    1.07
   4  -9  -5   62.64    2.58
   4  -9  -5   65.11    2.09
  -4   9   5   64.05    2.26
  -4   9   5   59.90    2.19
   3  -9  -5   28.85    1.89
   3  -9  -5   29.51    1.21
  -3   9   5   28.08    1.53
  -3   9   5   30.60    1.41
  -2   9   5    2.36    0.59
  -2   9   5    1.97    0.53
   1  -9  -5  108.27    2.92
  -1   9   5  100.83    3.51
  -1   9   5  101.27    3.02
   0  -9  -5   31.38    1.31
   0  -9  -5   33.74    1.22
   0   9   5   30.07    1.38
   0   9   5   31.44    1.91
  -1  -9  -5    5.60    0.74
  -1  -9  -5    6.41    0.61
   1   9   5    8.31    1.45
   5 -10  -5   66.25    2.28
   5 -10  -5   59.08    2.54
  -5  10   5   68.26    2.34
  -5  10   5   67.72    2.37
   4 -10  -5    2.30    0.49
   3 -10  -5   85.59    2.57
  -3  10   5   83.33    2.88
  -3  10   5   83.97    2.97
   2 -10  -5   90.71    2.63
  -2  10   5   91.62    3.20
  -2  10   5   84.08    2.77
   1 -10  -5    2.55    0.42
  -1  10   5    3.25    0.76
  -1  14  -6   81.36    3.57
  -1  14  -6   85.53    2.50
   1 -14   6   82.32    2.62
  -2  14  -6   20.69    1.16
   2 -14   6   23.81    1.81
  -3  14  -6   25.46    2.14
  -2 -13   6   26.19    1.42
   1  13  -6   82.81    3.52
   1  13  -6   84.07    2.30
  -1 -13   6   84.77    2.70
   0  13  -6   20.25    1.09
   0  13  -6   18.16    1.90
   0 -13   6   21.37    1.14
   0 -13   6   20.66    1.08
  -1  13  -6   39.10    1.45
  -1  13  -6   39.19    2.29
   1 -13   6   41.35    1.61
   1 -13   6   38.60    1.56
  -2  13  -6  155.10    4.17
  -2  13  -6  150.93    4.87
   2 -13   6  152.33    4.27
   2 -13   6  144.19    4.21
  -3  13  -6   30.90    2.06
  -3  13  -6   32.49    1.46
   3 -13   6   33.28    1.45
  -4  13  -6    6.27    1.01
  -4  13  -6    7.66    0.80
   4 -13   6    8.34    0.89
  -5  13  -6   68.65    2.49
  -5  13  -6   70.72    2.93
   5 -13   6   70.51    2.45
   3  12  -6   57.97    2.84
  -3 -12   6   55.33    2.05
   2  12  -6   93.34    3.59
  -2 -12   6   89.27    2.82
   1  12  -6    1.72    0.85
   1  12  -6    3.04    0.33
  -1 -12   6    1.96    0.40
  -1 -12   6    2.71    0.42
   0  12  -6   74.68    2.17
   0  12  -6   71.88    2.97
   0 -12   6   73.88    2.19
   0 -12   6   77.63    2.41
  -1  12  -6   91.34    3.33
  -1  12  -6   94.14    2.72
   1 -12   6   89.63    2.77
   1 -12   6   91.32    2.69
  -2  12  -6    1.91    0.69
  -2  12  -6    2.14    0.45
   2 -12   6    2.39    0.57
   2 -12   6    2.85    0.46
   2 -12   6    2.22    0.52
  -3  12  -6   53.55    2.35
  -3  12  -6   51.75    1.87
   3 -12   6   51.39    1.96
   3 -12   6   54.02    1.88
   3 -12   6   54.04    2.10
  -4  12  -6   53.28    1.95
  -4  12  -6   53.35    2.31
   4 -12   6   48.50    1.99
   4 -12   6   51.96    1.88
  -5  12  -6    2.63    0.63
  -5  12  -6    1.80    0.74
   5 -12   6    3.39    0.53
  -6  12  -6   56.97    2.73
  -6  12  -6   53.17    2.37
   6 -12   6   50.71    2.02
   4  11  -6   47.33    2.54
  -4 -11   6   46.45    1.81
   3  11  -6    8.92    1.57
  -3 -11   6   11.51    0.86
   2  11  -6   43.61    1.19
   2  11  -6   41.86    2.19
  -2 -11   6   41.71    1.19
  -2 -11   6   41.99    1.58
   1  11  -6   85.42    2.27
   1  11  -6   80.24    2.58
   1  11  -6   86.00    3.16
  -1 -11   6   83.86    2.25
  -1 -11   6   82.77    2.53
  -1 -11   6   78.83    2.93
   0  11  -6   40.37    2.00
   0  11  -6   39.83    1.32
   0  11  -6   38.45    1.53
   0 -11   6   37.80    1.83
   0 -11   6   39.96    1.47
   0 -11   6   39.43    1.31
  -1  11  -6   13.09    1.29
  -1  11  -6   15.36    0.84
  -1  11  -6   15.10    0.98
   1 -11   6   15.78    0.88
   1 -11   6   14.92    0.86
   1 -11   6   15.60    1.18
  -2  11  -6  120.10    3.86
  -2  11  -6  124.63    3.52
  -2  11  -6  123.57    3.43
   2 -11   6  123.77    3.74
   2 -11   6  122.32    3.43
   2 -11   6  121.12    3.46
  -3  11  -6   33.23    1.69
  -3  11  -6   33.89    1.36
  -3  11  -6   31.92    1.37
   3 -11   6   32.19    1.32
   3 -11   6   33.15    1.51
   3 -11   6   33.56    1.42
  -4  11  -6   21.71    1.18
  -4  11  -6   24.90    1.24
  -4  11  -6   22.96    1.45
   4 -11   6   24.95    1.25
   4 -11   6   23.74    1.13
   4 -11   6   21.57    1.27
  -5  11  -6  135.65    3.90
  -5  11  -6  134.20    4.07
   5 -11   6  132.29    3.83
  -6  11  -6   29.72    1.67
  -6  11  -6   28.79    1.52
   6 -11   6   28.79    1.38
   5  10  -6   33.54    2.14
  -5 -10   6   33.88    1.52
   4  10  -6   -0.72    0.71
  -4 -10   6    0.90    0.40
   3  10  -6   62.23    2.69
   3  10  -6   71.64    2.67
  -3 -10   6   63.28    2.53
  -3 -10   6   65.14    2.13
   2  10  -6   57.35    1.53
   2  10  -6   56.20    2.43
   2  10  -6   57.48    1.95
  -2 -10   6   57.84    1.89
  -2 -10   6   56.56    2.26
   1  10  -6    4.80    0.80
   1  10  -6    4.71    0.53
   1  10  -6    5.08    0.67
  -1 -10   6    4.11    0.67
  -1 -10   6    5.63    0.58
  -1 -10   6    4.31    0.42
   0  10  -6   74.33    2.28
   0  10  -6   76.03    2.11
   0  10  -6   75.45    2.68
   0 -10   6   70.98    2.22
   0 -10   6   75.26    2.58
   0 -10   6   70.22    2.23
  -1  10  -6  123.92    3.84
  -1  10  -6  125.30    3.50
  -1  10  -6  125.77    3.39
   1 -10   6  128.30    3.38
   1 -10   6  122.49    3.46
   1 -10   6  125.41    3.74
  -2  10  -6   -0.04    0.43
  -2  10  -6    0.44    0.35
  -2  10  -6    0.28    0.34
   2 -10   6    0.54    0.34
   2 -10   6    0.56    0.32
   2 -10   6    0.53    0.37
  -3  10  -6   70.11    2.47
  -3  10  -6   71.37    2.22
  -3  10  -6   72.72    2.23
   3 -10   6   70.52    2.21
   3 -10   6   69.14    2.18
   3 -10   6   69.05    2.32
  -4  10  -6  112.12    3.16
  -4  10  -6  109.32    3.18
  -4  10  -6  102.44    3.48
   4 -10   6  110.65    3.23
   4 -10   6  105.80    3.11
   4 -10   6  110.95    3.20
  -5  10  -6    1.07    0.43
  -5  10  -6    0.46    0.47
  -5  10  -6    0.15    0.68
   5 -10   6    0.48    0.39
  -6  10  -6   62.70    2.21
   6 -10   6   60.51    2.10
  -7  10  -6   44.52    1.95
  -7  10  -6   47.67    1.99
   7 -10   6   48.26    1.87
   6   9  -6    2.08    0.79
   5   9  -6   29.46    1.91
  -5  -9   6   29.37    1.98
  -5  -9   6   31.68    1.37
   4   9  -6   47.10    1.78
   4   9  -6   48.35    2.26
  -4  -9   6   47.80    1.71
  -4  -9   6   46.99    2.05
   3   9  -6   12.35    1.35
   3   9  -6   12.04    0.88
  -3  -9   6   12.62    1.13
  -3  -9   6   13.13    0.81
   2   9  -6  154.35    4.57
   2   9  -6  151.63    4.14
   2   9  -6  150.73    3.79
  -2  -9   6  152.57    4.47
  -2  -9   6  152.85    3.77
  -2  -9   6  152.19    4.13
   1   9  -6  352.83    8.58
   1   9  -6  355.25    9.18
   1   9  -6  345.18    8.80
  -1  -9   6  342.70    8.79
  -1  -9   6  345.53    9.11
  -1  -9   6  350.38    8.54
   0   9  -6   82.50    2.33
   0   9  -6   84.50    2.45
   0  -9   6   80.02    2.56
   0  -9   6   83.24    2.26
   0  -9   6   83.82    2.70
  -1   9  -6  143.99    4.18
  -1   9  -6  144.98    3.82
  -1   9  -6  144.83    3.90
   1  -9   6  144.78    4.12
   1  -9   6  146.50    3.79
   1  -9   6  140.80    3.87
  -2   9  -6  318.82    8.38
  -2   9  -6  325.99    8.15
  -2   9  -6  314.60    8.10
   2  -9   6  321.30    8.32
   2  -9   6  327.62    8.10
   2  -9   6  320.91    8.12
  -3   9  -6   51.43    1.65
  -3   9  -6   50.93    1.87
  -3   9  -6   48.83    1.83
   3  -9   6   40.32    1.89
   3  -9   6   48.06    1.72
   3  -9   6   49.88    1.64
  -4   9  -6   13.21    1.00
  -4   9  -6   14.41    0.92
  -4   9  -6   13.30    0.83
   4  -9   6   14.19    0.82
   4  -9   6   12.89    0.88
  -5   9  -6  126.74    3.53
  -5   9  -6  126.46    3.63
  -5   9  -6  129.02    3.69
   5  -9   6  125.07    3.55
   5  -9   6  124.37    3.62
  -6   9  -6   14.06    1.06
  -6   9  -6   13.65    0.95
  -6   9  -6   12.95    0.90
  -6   9  -6   14.36    1.07
   6  -9   6   12.57    0.93
  -7   9  -6   16.54    1.23
  -7   9  -6   18.61    1.29
  -7   9  -6   14.90    1.19
   7  -9   6   17.66    1.13
   6   8  -6   65.61    2.63
  -6  -8   6   60.93    2.49
   5   8  -6   54.82    2.40
  -5  -8   6   58.17    2.26
  -5  -8   6   59.43    1.99
   4   8  -6    0.34    0.35
   4   8  -6   -0.04    0.54
  -4  -8   6    0.06    0.30
  -4  -8   6    0.74    0.46
   3   8  -6  125.17    3.90
   3   8  -6  129.01    3.52
  -3  -8   6  130.90    3.80
  -3  -8   6  120.94    3.52
   2   8  -6  130.73    3.21
   2   8  -6  127.67    3.84
   2   8  -6  130.26    3.52
  -2  -8   6  134.58    3.81
  -2  -8   6  119.58    3.68
  -2  -8   6  126.31    3.18
   1   8  -6    0.91    0.31
   1   8  -6    1.87    0.27
   1   8  -6    1.14    0.46
  -1  -8   6    1.76    0.33
  -1  -8   6    1.35    0.20
  -1  -8   6    0.63    0.35
   0   8  -6   26.40    1.29
   0   8  -6   27.09    0.97
   0   8  -6   26.97    1.08
   0  -8   6   27.53    1.23
   0  -8   6   28.27    1.04
   0  -8   6   26.85    0.90
  -1   8  -6   97.43    2.66
  -1   8  -6   95.50    2.59
  -1   8  -6   95.35    2.87
   1  -8   6   93.43    2.82
   1  -8   6   93.95    2.62
   1  -8   6   87.88    2.58
  -2   8  -6   19.52    1.07
  -2   8  -6   18.25    0.87
  -2   8  -6   18.37    0.89
   2  -8   6   18.13    0.83
   2  -8   6   18.16    0.83
   2  -8   6   19.77    0.97
  -3   8  -6  162.48    4.24
  -3   8  -6  157.99    4.27
  -3   8  -6  161.82    4.42
   3  -8   6  161.28    4.26
   3  -8   6  157.55    4.23
  -4   8  -6   96.57    2.81
  -4   8  -6   99.64    2.92
  -4   8  -6   96.57    2.74
   4  -8   6   96.36    2.80
   4  -8   6   94.15    2.74
  -5   8  -6    0.60    0.38
  -5   8  -6    0.60    0.40
  -5   8  -6    0.69    0.33
   5  -8   6    0.63    0.37
   5  -8   6    0.91    0.60
  -6   8  -6   56.69    1.87
  -6   8  -6   61.97    2.06
  -6   8  -6   60.62    2.00
  -6   8  -6   58.48    1.90
   6  -8   6   55.99    1.94
  -7   8  -6   51.05    1.97
  -7   8  -6   52.19    1.87
  -7   8  -6   49.67    1.77
  -7   8  -6   50.86    1.75
   7  -8   6   52.00    1.89
   7   7  -6   37.76    1.94
  -7  -7   6   35.80    1.79
   6   7  -6    4.72    0.81
  -6  -7   6    4.36    0.70
   5   7  -6   39.49    1.91
   5   7  -6   40.91    1.58
  -5  -7   6   41.86    1.53
  -5  -7   6   41.39    1.73
   4   7  -6  170.37    4.62
   4   7  -6  166.21    4.92
  -4  -7   6  176.71    4.82
  -4  -7   6  175.26    4.62
   3   7  -6    2.42    0.54
   3   7  -6    1.89    0.36
  -3  -7   6    1.78    0.42
  -3  -7   6    1.88    0.36
   2   7  -6  136.98    3.87
   2   7  -6  132.82    3.35
   2   7  -6  133.82    3.60
  -2  -7   6  132.56    3.80
  -2  -7   6  134.78    3.32
  -2  -7   6  133.27    3.59
   1   7  -6  130.66    3.38
   1   7  -6  132.28    3.77
   1   7  -6  135.34    3.55
  -1  -7   6  134.25    3.75
  -1  -7   6  130.30    3.34
  -1  -7   6  134.16    3.54
   0   7  -6   19.81    0.85
   0   7  -6   19.61    1.04
   0   7  -6   21.57    0.78
   0  -7   6   20.13    0.71
   0  -7   6   21.11    0.98
   0  -7   6   19.19    0.81
  -1   7  -6   67.46    2.08
  -1   7  -6   53.50    2.26
  -1   7  -6   64.67    1.83
   1  -7   6   65.34    2.01
   1  -7   6   65.67    1.85
   1  -7   6   62.22    1.79
  -2   7  -6  218.50    5.63
  -2   7  -6  221.94    5.81
   2  -7   6  220.67    5.78
   2  -7   6  226.20    5.63
   2  -7   6  218.00    5.61
  -3   7  -6   31.59    1.21
  -3   7  -6   32.68    1.16
  -3   7  -6   35.40    1.33
   3  -7   6   32.71    1.15
   3  -7   6   33.46    1.20
  -4   7  -6   39.16    1.46
  -4   7  -6   38.18    1.31
  -4   7  -6   37.68    1.40
   4  -7   6   39.85    1.33
   4  -7   6   38.69    1.38
  -5   7  -6  103.84    3.00
  -5   7  -6  103.72    2.87
  -5   7  -6  103.27    3.00
  -5   7  -6  103.40    2.92
   5  -7   6  100.82    2.90
   5  -7   6  105.54    2.98
  -6   7  -6   13.41    0.90
  -6   7  -6   13.59    0.96
  -6   7  -6   12.84    0.80
  -6   7  -6   15.00    0.88
   6  -7   6   13.29    0.91
   6  -7   6   10.74    1.39
  -7   7  -6    6.74    0.69
  -7   7  -6    5.03    0.63
  -7   7  -6    7.44    0.83
  -7   7  -6    4.40    0.79
   7  -7   6    4.95    0.80
  -8   7  -6   40.67    1.83
   8  -7   6   40.66    1.76
   7   6  -6   13.69    1.65
  -7  -6   6   14.68    1.26
   6   6  -6   43.55    2.09
   6   6  -6   43.82    1.69
  -6  -6   6   45.13    1.75
   5   6  -6   44.70    1.92
   5   6  -6   49.02    1.69
  -5  -6   6   45.76    1.74
   4   6  -6   17.28    1.16
   4   6  -6   16.57    0.89
  -4  -6   6   16.82    1.00
   3   6  -6  183.42    4.96
   3   6  -6  180.18    4.74
  -3  -6   6  180.43    4.73
  -3  -6   6  181.41    4.89
   2   6  -6  151.89    3.79
   2   6  -6  155.95    4.22
   2   6  -6  151.54    4.01
  -2  -6   6  155.90    4.20
  -2  -6   6  149.29    4.00
  -2  -6   6  154.55    3.78
   1   6  -6    6.03    0.65
   1   6  -6    4.89    0.46
   1   6  -6    4.61    0.35
  -1  -6   6    4.85    0.29
  -1  -6   6    3.07    0.59
  -1  -6   6    4.72    0.42
   0   6  -6  303.73    7.53
   0   6  -6  307.52    7.60
   0   6  -6  305.15    7.79
   0  -6   6  310.75    7.52
   0  -6   6  311.71    7.60
   0  -6   6  293.47    7.80
  -1   6  -6   75.09    2.25
  -1   6  -6   74.40    2.05
  -1   6  -6   73.90    2.07
   1  -6   6   74.46    2.23
   1  -6   6   75.64    2.04
   1  -6   6   72.83    2.05
  -2   6  -6   21.43    0.98
  -2   6  -6   21.30    0.85
  -2   6  -6   21.36    0.83
   2  -6   6   20.10    0.79
  -3   6  -6  129.74    3.61
  -3   6  -6  131.73    3.51
  -3   6  -6  135.83    3.44
   3  -6   6  125.74    3.43
   3  -6   6  132.56    3.50
  -4   6  -6  177.63    4.74
  -4   6  -6  177.95    4.57
  -4   6  -6  174.35    4.70
   4  -6   6  177.77    4.58
   4  -6   6  178.45    4.66
  -5   6  -6    2.48    0.38
  -5   6  -6    2.96    0.44
  -5   6  -6    1.99    0.33
  -5   6  -6    2.31    0.41
   5  -6   6    3.30    0.45
   5  -6   6    3.06    0.41
  -6   6  -6  111.76    3.18
  -6   6  -6  112.20    3.16
  -6   6  -6  105.74    3.08
  -6   6  -6  109.38    3.03
   6  -6   6  107.56    3.14
   6  -6   6  110.47    3.09
  -7   6  -6   47.26    1.71
  -7   6  -6   47.52    1.60
  -7   6  -6   48.95    1.72
  -7   6  -6   46.36    1.78
   7  -6   6   47.60    1.72
  -8   6  -6    0.86    0.54
  -8   6  -6   -0.18    0.60
   8  -6   6    0.44    0.54
   8   5  -6   26.39    1.45
   8   5  -6   25.93    1.46
   7   5  -6   47.84    1.98
  -7  -5   6   47.07    1.77
   6   5  -6    1.01    0.53
   6   5  -6    1.43    0.41
  -6  -5   6    1.42    0.41
   5   5  -6   37.91    1.62
   5   5  -6   39.53    1.45
  -5  -5   6   38.84    1.46
   4   5  -6  169.13    4.44
   4   5  -6  171.65    4.58
  -4  -5   6  159.82    4.40
   3   5  -6    0.53    0.27
   3   5  -6    0.57    0.10
   3   5  -6    0.59    0.31
   3   5  -6    0.65    0.11
  -3  -5   6    0.61    0.26
  -3  -5   6    0.42    0.24
   2   5  -6   80.52    2.37
   2   5  -6   78.72    2.05
   2   5  -6   80.77    2.24
  -2  -5   6   80.93    2.04
  -2  -5   6   80.11    2.23
  -2  -5   6   79.94    2.35
   1   5  -6  320.61    8.06
   1   5  -6  317.16    7.79
   1   5  -6  315.74    7.89
  -1  -5   6  315.48    7.89
  -1  -5   6  320.80    8.05
  -1  -5   6  321.59    7.78
   0   5  -6   51.23    1.49
   0   5  -6   52.35    1.67
   0   5  -6   51.35    1.46
   0  -5   6   52.07    1.64
   0  -5   6   51.46    1.49
   0  -5   6   52.69    1.44
  -1   5  -6  290.63    7.04
  -1   5  -6  289.98    7.24
  -1   5  -6  279.37    7.05
   1  -5   6  280.19    7.04
   1  -5   6  280.61    7.02
  -2   5  -6  257.74    6.22
  -2   5  -6  249.20    6.28
  -2   5  -6  252.63    6.43
   2  -5   6  238.06    6.20
   2  -5   6  253.14    6.29
  -3   5  -6   67.61    2.06
  -3   5  -6   66.45    1.95
  -3   5  -6   69.12    1.86
  -3   5  -6   66.44    2.00
   3  -5   6   68.13    1.95
   3  -5   6   64.22    1.86
  -4   5  -6   77.68    2.33
  -4   5  -6   78.06    2.13
  -4   5  -6   77.45    2.25
  -4   5  -6   74.93    2.31
   4  -5   6   76.90    2.24
   4  -5   6   78.07    2.15
  -5   5  -6  170.21    4.53
  -5   5  -6  169.76    4.34
  -5   5  -6  159.68    4.47
  -5   5  -6  168.85    4.49
   5  -5   6  170.51    4.38
   5  -5   6  169.76    4.47
  -6   5  -6    8.16    0.76
  -6   5  -6    8.54    0.78
  -6   5  -6    8.99    0.80
  -6   5  -6   10.78    0.64
   6  -5   6    7.78    0.74
   6  -5   6    9.73    0.72
  -7   5  -6   23.63    1.19
  -7   5  -6   25.10    1.27
  -7   5  -6   24.23    1.18
   7  -5   6   22.65    1.14
  -8   5  -6   63.31    2.08
  -8   5  -6   57.42    2.15
   8  -5   6   59.30    2.11
   8   4  -6   11.10    1.05
   8   4  -6   10.08    1.00
   7   4  -6    7.71    1.00
  -7  -4   6    6.40    0.76
   6   4  -6   91.78    2.78
   6   4  -6   94.99    2.87
  -6  -4   6   90.67    2.66
   5   4  -6   98.27    2.86
   5   4  -6   93.52    2.76
  -5  -4   6   94.17    2.71
   4   4  -6   19.20    0.89
   4   4  -6   19.86    0.97
  -4  -4   6   18.98    0.86
   3   4  -6  144.14    3.46
   3   4  -6  142.26    3.78
   3   4  -6  121.75    4.07
   3   4  -6  145.33    3.46
  -3  -4   6  142.68    3.70
  -3  -4   6  143.48    3.76
   2   4  -6    3.55    0.25
   2   4  -6    3.24    0.47
   2   4  -6    2.63    0.37
  -2  -4   6    3.20    0.40
  -2  -4   6    2.93    0.36
   1   4  -6   32.46    0.95
   1   4  -6   31.87    1.01
   1   4  -6   32.57    1.16
  -1  -4   6   33.12    1.02
  -1  -4   6   31.95    1.13
  -1  -4   6   31.57    0.93
   0   4  -6  375.49    9.47
   0   4  -6  371.34    9.27
   0   4  -6  376.93    9.28
   0  -4   6  390.63    9.28
   0  -4   6  381.19    9.28
  -1   4  -6  139.42    3.75
  -1   4  -6  139.35    3.59
  -1   4  -6  138.00    3.54
   1  -4   6  143.91    3.59
   1  -4   6  139.22    3.53
  -2   4  -6   13.89    0.56
  -2   4  -6   13.28    0.73
  -2   4  -6   13.98    0.64
  -2   4  -6   13.36    0.71
   2  -4   6   15.54    0.56
   2  -4   6   15.48    0.64
  -3   4  -6  185.07    4.92
  -3   4  -6  192.86    4.99
  -3   4  -6  186.47    4.72
  -3   4  -6  195.05    4.87
   3  -4   6  188.20    4.85
   3  -4   6  188.13    4.73
  -4   4  -6   85.99    2.51
  -4   4  -6   86.91    2.43
  -4   4  -6   81.03    2.65
  -4   4  -6   83.79    2.26
   4  -4   6   85.31    2.28
   4  -4   6   85.32    2.40
  -5   4  -6    2.04    0.38
  -5   4  -6    2.63    0.38
  -5   4  -6    2.19    0.38
  -5   4  -6    2.27    0.41
   5  -4   6    3.55    0.49
   5  -4   6    2.92    0.39
  -6   4  -6   43.96    1.58
  -6   4  -6   45.93    1.61
  -6   4  -6   43.93    1.63
   6  -4   6   43.38    1.56
   6  -4   6   45.41    1.48
  -7   4  -6   47.90    1.71
  -7   4  -6   47.60    1.84
  -7   4  -6   43.52    1.67
   7  -4   6   45.22    1.61
  -8   4  -6    0.27    0.51
  -8   4  -6   -0.39    0.50
   8  -4   6    0.98    0.57
   8   3  -6   22.37    1.15
   8   3  -6   21.28    1.26
   7   3  -6   59.22    2.00
   7   3  -6   55.47    2.00
   7   3  -6   58.04    2.03
   6   3  -6    0.52    0.12
   6   3  -6    0.33    0.12
   6   3  -6    0.65    0.39
   6   3  -6   -0.34    0.33
  -6  -3   6    0.43    0.25
   5   3  -6  156.03    3.95
   5   3  -6  159.75    4.29
   5   3  -6  163.88    4.32
   5   3  -6  163.03    3.95
  -5  -3   6  158.27    4.19
   4   3  -6  194.95    4.86
   4   3  -6  194.21    5.12
   4   3  -6  196.15    5.12
   4   3  -6  201.21    4.86
  -4  -3   6  201.76    5.09
   3   3  -6   15.45    0.53
   3   3  -6   16.29    0.75
   3   3  -6   16.08    0.71
   3   3  -6   15.60    0.53
   2   3  -6  180.81    4.64
   2   3  -6  179.63    4.44
   2   3  -6  176.85    4.54
  -2  -3   6  178.54    4.54
   1   3  -6  521.41   12.54
   1   3  -6  513.16   12.70
   1   3  -6  519.56   12.52
  -1  -3   6  515.45   12.51
  -1  -3   6  509.39   12.55
   0   3  -6    5.68    0.35
   0   3  -6    5.57    0.47
   0   3  -6    6.22    0.37
   0  -3   6    5.53    0.32
   0  -3   6    5.91    0.35
  -1   3  -6  169.35    4.40
  -1   3  -6  167.29    4.35
  -1   3  -6  163.58    4.13
  -1   3  -6  164.89    4.23
   1  -3   6  169.02    4.23
   1  -3   6  167.16    4.13
  -2   3  -6  190.93    4.76
  -2   3  -6  187.86    4.85
  -2   3  -6  179.04    4.60
   2  -3   6  183.73    4.60
   2  -3   6  192.07    4.75
  -3   3  -6   39.13    1.28
  -3   3  -6   39.35    1.38
  -3   3  -6   40.25    1.11
   3  -3   6   38.96    1.11
   3  -3   6   40.59    1.27
  -4   3  -6   66.41    1.77
  -4   3  -6   61.09    2.21
  -4   3  -6   68.16    1.96
   4  -3   6   64.91    1.78
   4  -3   6   67.33    1.94
  -5   3  -6   51.98    1.65
  -5   3  -6   47.28    1.83
   5  -3   6   51.16    1.49
   5  -3   6   50.85    1.63
  -6   3  -6    0.06    0.31
  -6   3  -6    0.45    0.41
   6  -3   6    0.17    0.31
   6  -3   6    0.29    0.33
  -7   3  -6   45.95    1.73
  -7   3  -6   51.23    2.02
   7  -3   6   50.07    1.66
   7  -3   6   49.79    1.60
   9   2  -6   30.71    1.62
   8   2  -6    6.12    0.86
   8   2  -6    7.02    0.40
   8   2  -6    7.49    0.66
   7   2  -6   38.19    1.56
   7   2  -6   37.82    1.43
   7   2  -6   37.72    1.54
   7   2  -6   39.97    1.12
   6   2  -6  149.01    4.06
   6   2  -6  150.04    3.94
   6   2  -6  149.35    3.69
   6   2  -6  137.00    4.05
   5   2  -6   35.16    1.21
   5   2  -6   34.05    1.29
   5   2  -6   32.87    1.02
   4   2  -6   20.13    0.87
   4   2  -6   19.47    0.81
   4   2  -6   19.33    0.68
   3   2  -6  227.96    5.82
   3   2  -6  239.70    5.83
   3   2  -6  231.71    5.68
   3   2  -6  220.34    5.66
   2   2  -6  177.42    4.62
   2   2  -6  178.48    4.47
   2   2  -6  181.99    4.53
   1   2  -6   32.51    1.02
   1   2  -6   33.70    1.01
   1   2  -6   33.67    1.14
   1   2  -6   34.61    1.16
  -1  -2   6   34.72    1.00
   0   2  -6  223.93    5.58
   0   2  -6  230.18    5.68
   0   2  -6  229.40    5.80
   0  -2   6  228.41    5.59
   0  -2   6  227.68    5.67
  -1   2  -6   48.86    1.41
  -1   2  -6   47.23    1.26
  -1   2  -6   49.32    1.54
   1  -2   6   49.53    1.26
  -2   2  -6    1.85    0.33
  -2   2  -6    1.58    0.24
   2  -2   6    1.67    0.23
  -3   2  -6  270.13    7.30
  -3   2  -6  276.70    6.94
   3  -2   6  283.08    6.95
  -4   2  -6  110.44    2.95
  -4   2  -6  107.02    3.08
   4  -2   6  103.77    2.72
   4  -2   6  108.59    2.95
  -5   2  -6    2.91    0.51
  -5   2  -6    4.04    0.55
   5  -2   6    3.49    0.37
   5  -2   6    3.27    0.42
   5  -2   6    3.76    0.41
  -6   2  -6   76.99    2.29
  -6   2  -6   74.19    2.52
   6  -2   6   73.59    2.06
   6  -2   6   75.70    2.12
   6  -2   6   75.91    2.26
  -7   2  -6   65.21    2.15
  -7   2  -6   66.16    2.51
   7  -2   6   65.80    1.94
   7  -2   6   67.72    2.21
   9   1  -6    0.34    0.56
   8   1  -6   25.23    0.89
   8   1  -6   26.12    1.32
   7   1  -6   58.60    2.01
   7   1  -6   57.53    1.63
   7   1  -6   55.08    1.98
   7   1  -6   57.81    1.74
   6   1  -6    0.09    0.26
   6   1  -6    0.31    0.33
   6   1  -6    0.50    0.34
   6   1  -6    0.41    0.23
   6   1  -6    0.28    0.20
   5   1  -6   80.98    2.25
   5   1  -6   84.00    2.43
   5   1  -6   80.15    2.41
   5   1  -6   82.02    2.21
   4   1  -6  126.96    3.31
   4   1  -6  132.46    3.42
   4   1  -6  131.53    3.32
   4   1  -6  108.74    3.54
   4   1  -6  130.08    3.24
   3   1  -6    7.82    0.51
   3   1  -6    7.50    0.50
   3   1  -6    8.04    0.48
   3   1  -6    8.12    0.43
   2   1  -6  271.54    6.74
   2   1  -6  259.88    6.81
   2   1  -6  281.54    6.73
   2   1  -6  274.53    6.70
   1   1  -6  218.44    5.53
   1   1  -6  222.85    5.41
   1   1  -6  208.90    5.34
   0   1  -6   12.62    0.54
   0   1  -6   12.20    0.67
   0   1  -6   12.05    0.40
  -1   1  -6  135.00    3.53
  -1   1  -6  136.59    3.68
   1  -1   6  138.70    3.53
  -2   1  -6  184.15    4.71
  -2   1  -6  184.76    4.87
   2  -1   6  185.32    4.87
  -3   1  -6   -0.26    0.31
  -3   1  -6    0.26    0.20
   3  -1   6    0.30    0.20
   3  -1   6   -0.08    0.27
  -4   1  -6  160.20    4.26
  -4   1  -6  164.03    4.48
   4  -1   6  165.68    4.45
   4  -1   6  161.27    4.26
  -5   1  -6   81.65    2.62
  -5   1  -6   81.44    2.32
   5  -1   6   79.27    2.30
   5  -1   6   74.67    2.04
  -6   1  -6   18.16    1.40
  -6   1  -6   17.95    0.92
   6  -1   6   17.23    0.89
   6  -1   6   16.69    0.69
   6  -1   6   17.21    0.75
  -7   1  -6   20.99    1.61
  -7   1  -6   20.27    1.08
   7  -1   6   18.71    0.93
   9   0  -6   37.24    1.75
  -9   0   6   39.58    1.34
   8   0  -6   12.92    0.70
   8   0  -6   14.45    1.05
  -8   0   6   12.97    0.75
   7   0  -6   30.44    1.34
   7   0  -6   29.77    0.89
   7   0  -6   31.74    1.36
  -7   0   6   29.80    1.08
   6   0  -6  105.27    3.01
   6   0  -6  111.07    3.21
   6   0  -6  115.93    3.00
   6   0  -6  113.13    2.93
   6   0  -6  114.08    3.23
  -6   0   6  112.69    2.99
   5   0  -6   40.52    1.28
   5   0  -6   39.29    1.24
   5   0  -6   40.63    1.43
   5   0  -6   41.67    1.44
   5   0  -6   42.21    1.25
   4   0  -6    3.47    0.47
   4   0  -6    2.76    0.41
   4   0  -6    3.97    0.47
   4   0  -6    3.05    0.35
   3   0  -6  172.90    4.45
   3   0  -6  174.79    4.45
   3   0  -6  169.46    4.44
   3   0  -6  174.57    4.38
   2   0  -6   46.17    1.31
   2   0  -6   44.13    1.41
   2   0  -6   44.96    1.32
   2   0  -6   44.20    1.31
   1   0  -6   27.12    1.05
   1   0  -6   29.06    0.85
   1   0  -6   29.51    0.94
   1   0  -6   28.82    0.86
   0   0  -6  286.76    7.08
   0   0  -6  283.63    7.22
   0   0   6  284.47    7.22
  -1   0  -6   94.29    2.76
  -1   0  -6   97.56    2.58
   1   0   6   97.52    2.75
  -2   0  -6   35.72    1.42
  -2   0  -6   36.66    1.18
   2   0   6   37.42    1.38
   2   0   6   37.10    1.18
  -3   0  -6  143.24    3.69
  -3   0  -6  140.31    3.94
   3   0   6  138.19    3.68
   3   0   6  138.02    3.91
  -4   0  -6   53.39    2.00
  -4   0  -6   54.23    1.68
   4   0   6   54.73    1.69
   4   0   6   55.49    1.93
  -5   0  -6   27.06    1.48
  -5   0  -6   26.89    1.08
   5   0   6   27.99    1.09
   5   0   6   24.56    1.53
  -6   0  -6   60.67    2.48
  -6   0  -6   63.72    2.00
   6   0   6   65.95    2.24
   6   0   6   64.50    2.00
  -7   0  -6   14.08    1.76
  -7   0  -6   18.48    1.05
   9  -1  -6    0.50    0.59
  -9   1   6    0.08    0.39
   8  -1  -6   53.52    1.69
   8  -1  -6   52.96    1.99
  -8   1   6   55.14    1.74
   7  -1  -6   40.97    1.61
   7  -1  -6   42.65    1.62
   7  -1  -6   41.02    1.38
  -7   1   6   40.89    1.40
   6  -1  -6    3.33    0.41
   6  -1  -6    3.82    0.49
   6  -1  -6    3.99    0.36
   6  -1  -6    4.20    0.56
  -6   1   6    4.78    0.54
   5  -1  -6  104.94    2.96
   5  -1  -6  104.29    2.74
   5  -1  -6  104.04    2.89
  -5   1   6  104.85    2.85
   4  -1  -6  133.82    3.56
   4  -1  -6  135.79    3.56
   4  -1  -6  137.98    3.63
   3  -1  -6   21.03    0.85
   3  -1  -6   22.79    0.87
   3  -1  -6   27.19    0.97
   2  -1  -6  499.68   12.06
   2  -1  -6  494.70   12.22
   2  -1  -6  496.22   12.09
  -2   1   6  487.70   12.17
   1  -1  -6  240.51    6.02
   1  -1  -6  241.41    6.16
   1  -1  -6  238.47    5.99
   1  -1  -6  236.82    5.89
  -1   1   6  241.97    6.14
   0  -1  -6    8.96    0.70
   0  -1  -6    8.96    0.49
   0   1   6    8.37    0.65
  -1  -1  -6  243.67    6.07
  -1  -1  -6  241.44    6.31
   1   1   6  239.44    6.28
  -2  -1  -6  157.08    4.34
  -2  -1  -6  155.98    4.06
   2   1   6  156.67    4.32
  -3  -1  -6    2.31    0.31
  -3  -1  -6    1.44    0.49
   3   1   6    1.31    0.39
  -4  -1  -6   70.12    2.45
  -4  -1  -6   64.57    2.42
   4   1   6   70.07    2.04
   4   1   6   68.10    3.00
  -5  -1  -6   87.59    2.54
  -5  -1  -6   87.25    3.03
   5   1   6   89.03    2.86
   5   1   6   89.90    2.56
  -6  -1  -6    0.05    0.34
  -6  -1  -6   -1.25    0.75
   6   1   6   -0.25    0.38
   6   1   6    0.28    0.38
   9  -2  -6   32.48    1.68
   9  -2  -6   34.77    1.39
  -9   2   6   36.56    1.41
   8  -2  -6    1.94    0.40
   8  -2  -6    2.15    0.53
  -8   2   6    2.21    0.44
   7  -2  -6   38.60    1.36
   7  -2  -6   35.87    1.52
  -7   2   6   37.58    1.37
   6  -2  -6  142.71    3.57
   6  -2  -6  142.71    3.80
   6  -2  -6  143.34    3.64
   6  -2  -6  139.47    3.93
  -6   2   6  140.59    3.81
   5  -2  -6   56.18    1.81
   5  -2  -6   57.73    1.59
   5  -2  -6   55.98    1.68
   5  -2  -6   54.90    1.73
  -5   2   6   54.13    1.73
   4  -2  -6   74.67    2.17
   4  -2  -6   75.25    2.17
   4  -2  -6   73.87    2.14
   3  -2  -6  258.03    6.28
   3  -2  -6  232.23    6.42
   3  -2  -6  255.46    6.41
  -3   2   6  251.98    6.31
   2  -2  -6   53.45    1.50
   2  -2  -6   52.28    1.73
  -2   2   6   51.28    1.64
   1  -2  -6   35.98    1.33
   1  -2  -6   34.54    1.37
   1  -2  -6   36.61    1.18
   1  -2  -6   37.38    1.04
  -1   2   6   34.62    1.29
   0  -2  -6  162.67    4.23
   0  -2  -6  165.84    4.49
   0   2   6  163.60    4.43
  -1  -2  -6   74.90    2.41
  -1  -2  -6   74.64    2.09
   1   2   6   72.16    2.33
  -2  -2  -6   70.16    2.36
  -2  -2  -6   68.79    2.38
  -2  -2  -6   70.64    2.00
   2   2   6   68.44    2.31
  -3  -2  -6  116.89    3.47
  -3  -2  -6  115.10    3.51
  -3  -2  -6  115.14    3.07
   3   2   6  104.59    3.74
  -4  -2  -6   53.09    2.07
  -4  -2  -6   53.93    1.69
  -4  -2  -6   54.74    2.22
   4   2   6   54.48    2.07
  -5  -2  -6    0.44    0.30
  -5  -2  -6    0.94    0.77
   5   2   6    0.69    0.44
  -6  -2  -6   32.77    1.34
   6   2   6   35.27    1.70
   9  -3  -6    0.28    0.58
   9  -3  -6   -0.47    0.43
  -9   3   6    1.76    0.48
   8  -3  -6   35.08    1.41
   8  -3  -6   36.34    1.61
  -8   3   6   37.19    1.44
   7  -3  -6   25.05    1.12
   7  -3  -6   24.36    1.23
  -7   3   6   23.51    1.12
   6  -3  -6    8.22    0.64
   6  -3  -6    7.43    0.73
   6  -3  -6    6.94    0.39
   6  -3  -6    7.06    0.74
  -6   3   6    9.22    0.76
  -6   3   6    5.76    0.84
   5  -3  -6  158.37    4.23
   5  -3  -6  157.79    4.20
   5  -3  -6  156.75    4.16
  -5   3   6  154.87    4.19
   4  -3  -6   59.12    1.79
   4  -3  -6   59.90    1.82
   4  -3  -6   56.42    1.87
  -4   3   6   56.54    1.72
   3  -3  -6    2.29    0.37
   3  -3  -6    2.90    0.46
   3  -3  -6    2.38    0.45
  -3   3   6    3.31    0.45
  -3   3   6    2.09    0.33
   2  -3  -6  105.47    3.21
   2  -3  -6  108.31    2.85
   2  -3  -6  108.89    2.94
  -2   3   6  110.12    2.87
  -2   3   6  106.54    3.02
   1  -3  -6  177.13    4.38
   1  -3  -6  178.69    4.82
   1  -3  -6  172.97    4.52
  -1   3   6  173.70    4.42
  -1   3   6  174.02    4.71
   0  -3  -6    3.56    0.28
   0  -3  -6    3.72    0.43
   0  -3  -6    3.46    0.58
   0  -3  -6    4.23    0.48
   0   3   6    4.98    0.71
   0   3   6    3.98    0.32
  -1  -3  -6  138.24    3.68
  -1  -3  -6  142.54    4.09
   1   3   6  137.99    4.01
  -2  -3  -6  106.23    2.87
  -2  -3  -6  106.37    3.35
   2   3   6  101.26    3.28
  -3  -3  -6   -0.17    0.53
  -3  -3  -6    0.13    0.30
   3   3   6    0.24    0.42
  -4  -3  -6   59.62    1.84
  -4  -3  -6   57.61    2.48
   4   3   6   59.85    2.28
  -5  -3  -6   66.00    2.06
   5   3   6   68.76    2.56
  -6  -3  -6    0.19    0.44
   6   3   6    0.90    0.56
   9  -4  -6   41.68    2.34
  -9   4   6   47.66    1.77
   8  -4  -6    2.85    0.51
   8  -4  -6    4.49    0.67
  -8   4   6    4.44    0.57
  -8   4   6    3.77    0.92
   7  -4  -6   30.51    1.41
   7  -4  -6   31.42    1.33
  -7   4   6   29.99    1.58
  -7   4   6   30.62    1.31
   6  -4  -6   79.52    2.42
   6  -4  -6   79.76    2.47
   6  -4  -6   80.96    2.31
  -6   4   6   76.36    2.41
   5  -4  -6   20.88    1.04
   5  -4  -6   21.69    1.09
   5  -4  -6   20.46    1.03
  -5   4   6   20.16    1.30
  -5   4   6   19.21    1.02
   4  -4  -6   77.71    2.46
   4  -4  -6   74.37    2.31
   4  -4  -6   79.59    2.28
  -4   4   6   74.55    2.70
  -4   4   6   77.95    2.25
  -4   4   6   80.98    2.31
   3  -4  -6  132.83    3.38
   3  -4  -6  130.52    3.47
   3  -4  -6  112.19    4.24
  -3   4   6  128.41    3.46
  -3   4   6  128.29    3.48
   2  -4  -6   69.84    2.39
   2  -4  -6   69.46    2.12
   2  -4  -6   71.75    1.99
  -2   4   6   71.06    2.23
  -2   4   6   73.79    2.03
   1  -4  -6   27.33    0.89
   1  -4  -6   25.92    1.06
   1  -4  -6   28.61    1.48
  -1   4   6   28.49    0.94
  -1   4   6   25.16    1.24
   0  -4  -6  120.38    3.60
   0  -4  -6  117.96    3.15
   0  -4  -6  118.89    2.92
   0  -4  -6  114.34    3.15
   0   4   6  103.87    3.14
   0   4   6  117.56    3.46
  -1  -4  -6   10.22    0.64
  -1  -4  -6   10.23    1.12
  -1  -4  -6   11.13    0.72
   1   4   6   10.77    1.01
  -2  -4  -6   34.46    1.83
  -2  -4  -6   35.75    1.27
  -2  -4  -6   32.40    1.31
   2   4   6   34.43    1.65
  -3  -4  -6  132.27    3.60
  -3  -4  -6  131.34    3.57
  -3  -4  -6  129.87    4.21
   3   4   6  135.36    4.12
  -4  -4  -6   16.67    0.87
   4   4   6   18.38    1.34
  -5  -4  -6   19.25    1.01
   5   4   6   19.66    1.51
   8  -5  -6   47.13    1.93
  -8   5   6   48.70    1.83
   7  -5  -6   27.39    0.84
   7  -5  -6   25.68    1.31
   7  -5  -6   28.73    1.35
  -7   5   6   30.42    1.32
   6  -5  -6    1.26    0.45
   6  -5  -6    1.02    0.40
   6  -5  -6    1.31    0.44
  -6   5   6    1.96    0.44
   5  -5  -6  160.68    4.45
   5  -5  -6  161.21    4.38
   5  -5  -6  160.93    4.35
  -5   5   6  154.86    4.35
  -5   5   6  165.93    4.38
  -5   5   6  159.35    4.21
   4  -5  -6  156.09    4.12
   4  -5  -6  156.18    4.20
   4  -5  -6  154.07    4.38
  -4   5   6  155.83    4.16
  -4   5   6  148.40    4.67
  -4   5   6  153.25    4.12
   3  -5  -6   15.91    0.92
   3  -5  -6   16.71    1.22
   3  -5  -6   16.87    0.81
  -3   5   6   16.34    0.82
  -3   5   6   16.29    0.93
   2  -5  -6  192.26    5.35
   2  -5  -6  187.93    4.83
   2  -5  -6  187.14    4.99
  -2   5   6  192.06    4.89
  -2   5   6  187.64    5.13
   1  -5  -6  154.60    3.88
   1  -5  -6  151.47    4.08
   1  -5  -6  153.56    4.51
  -1   5   6  154.83    3.93
  -1   5   6  142.87    4.55
   0  -5  -6    6.63    0.67
   0  -5  -6    6.55    0.40
   0  -5  -6    5.75    0.80
   0  -5  -6    5.96    0.55
   0   5   6    5.78    0.91
   0   5   6    6.84    0.47
  -1  -5  -6  130.62    3.23
  -1  -5  -6  127.71    4.06
  -1  -5  -6  128.18    3.51
  -1  -5  -6  128.52    3.48
   1   5   6  125.04    3.93
  -2  -5  -6   88.36    3.33
  -2  -5  -6   93.97    2.66
  -2  -5  -6   96.37    2.72
   2   5   6   95.25    3.21
  -3  -5  -6    2.01    0.36
  -3  -5  -6    2.60    0.49
   3   5   6    1.61    0.58
  -4  -5  -6   62.03    2.09
  -4  -5  -6   60.97    1.98
   4   5   6   65.92    2.64
   8  -6  -6    6.12    0.82
  -8   6   6    6.17    0.71
   7  -6  -6   31.66    1.15
   7  -6  -6   32.04    1.49
  -7   6   6   33.92    1.47
   6  -6  -6   47.60    1.76
   6  -6  -6   52.66    1.84
   6  -6  -6   47.98    1.87
  -6   6   6   49.68    1.82
  -6   6   6   51.67    1.86
   5  -6  -6    7.80    0.77
   5  -6  -6    7.71    0.85
   5  -6  -6    7.85    1.03
  -5   6   6    8.38    0.67
  -5   6   6    7.10    0.74
  -5   6   6    7.32    0.78
   4  -6  -6   27.48    1.52
   4  -6  -6   25.34    1.28
   4  -6  -6   27.25    1.25
  -4   6   6   26.61    1.65
  -4   6   6   28.36    1.19
  -4   6   6   26.91    1.16
   3  -6  -6   42.42    1.45
   3  -6  -6   43.59    1.96
   3  -6  -6   44.81    1.61
  -3   6   6   42.05    1.64
  -3   6   6   43.26    1.50
   2  -6  -6    0.70    0.36
   2  -6  -6    0.39    0.28
   2  -6  -6    0.17    0.56
  -2   6   6    0.59    0.33
  -2   6   6    0.05    0.37
   1  -6  -6  115.02    3.77
   1  -6  -6  112.27    3.24
   1  -6  -6  115.66    3.02
  -1   6   6  114.09    3.52
  -1   6   6  114.03    3.08
   0  -6  -6  155.59    4.23
   0  -6  -6  153.94    4.16
   0  -6  -6  157.98    3.96
   0  -6  -6  157.26    4.82
   0   6   6  155.88    4.62
   0   6   6  151.22    4.01
  -1  -6  -6   10.38    0.70
  -1  -6  -6   11.12    0.51
  -1  -6  -6   11.70    0.91
  -1  -6  -6    7.83    1.37
   1   6   6   10.93    0.61
   1   6   6   11.55    1.17
  -2  -6  -6   14.89    1.04
  -2  -6  -6   15.55    0.85
   2   6   6   16.01    1.39
  -3  -6  -6   74.48    2.26
  -3  -6  -6   74.56    2.39
   3   6   6   75.24    2.96
  -4  -6  -6   15.01    0.95
   4   6   6   15.76    1.62
   7  -7  -6    7.79    1.02
  -7   7   6   10.59    1.02
   6  -7  -6   40.84    1.62
   6  -7  -6   37.36    1.61
  -6   7   6   39.60    1.40
  -6   7   6   39.50    1.62
   5  -7  -6  122.64    3.78
   5  -7  -6  126.13    3.56
  -5   7   6  121.90    3.58
  -5   7   6  128.21    3.51
  -5   7   6  124.69    3.62
   4  -7  -6   44.55    1.77
   4  -7  -6   49.40    1.66
   4  -7  -6   48.19    2.14
  -4   7   6   44.94    2.26
  -4   7   6   48.62    1.73
   3  -7  -6   14.10    1.02
   3  -7  -6   13.77    1.41
   3  -7  -6   16.38    0.86
  -3   7   6   15.92    1.06
  -3   7   6   15.18    0.92
   2  -7  -6  114.27    3.89
   2  -7  -6  117.53    3.17
   2  -7  -6  116.04    3.41
  -2   7   6  118.12    3.59
  -2   7   6  119.46    3.26
   1  -7  -6   75.75    2.44
   1  -7  -6   74.32    2.99
   1  -7  -6   77.76    2.15
  -1   7   6   76.08    2.71
  -1   7   6   77.87    2.26
   0  -7  -6    6.39    0.66
   0  -7  -6    7.27    0.51
   0  -7  -6    8.39    1.14
   0   7   6    7.05    0.68
   0   7   6    6.70    1.09
  -1  -7  -6   55.50    1.55
  -1  -7  -6   54.38    1.96
  -1  -7  -6   52.73    1.90
   1   7   6   53.47    2.36
   1   7   6   51.12    1.64
  -2  -7  -6   42.53    1.90
  -2  -7  -6   40.43    1.48
  -2  -7  -6   39.27    1.22
   2   7   6   39.25    2.08
  -3  -7  -6    0.29    0.39
   3   7   6    1.25    0.84
   7  -8  -6   27.39    1.50
  -7   8   6   26.33    1.47
   6  -8  -6   67.24    2.43
   6  -8  -6   71.08    2.39
  -6   8   6   71.25    2.21
  -6   8   6   69.53    2.39
   5  -8  -6   14.17    1.33
   5  -8  -6   16.04    1.04
  -5   8   6   16.17    1.07
  -5   8   6   16.67    1.03
  -5   8   6   16.95    1.37
   4  -8  -6   42.41    1.57
   4  -8  -6   42.11    2.08
  -4   8   6   42.82    1.72
  -4   8   6   42.77    1.72
   3  -8  -6   73.82    2.98
   3  -8  -6   77.54    2.30
  -3   8   6   75.37    2.41
  -3   8   6   79.00    2.63
   2  -8  -6   10.80    0.73
   2  -8  -6    8.60    1.53
  -2   8   6   10.38    0.94
  -2   8   6   11.55    1.11
   1  -8  -6   31.08    1.11
  -1   8   6   29.16    1.28
  -1   8   6   29.13    1.66
   0  -8  -6   97.21    2.59
   0  -8  -6   94.88    2.80
   0   8   6   92.08    2.71
   0   8   6   91.76    3.33
  -1  -8  -6    8.74    0.58
  -1  -8  -6    9.15    0.79
   1   8   6    9.63    1.40
  -6   9   6   10.22    0.97
   5  -9  -6   65.00    2.73
   5  -9  -6   76.62    2.41
  -5   9   6   72.70    2.44
   4  -9  -6   30.69    1.33
   4  -9  -6   26.58    1.90
  -4   9   6   33.22    1.56
  -4   9   6   30.75    1.79
   3  -9  -6   10.46    0.78
  -3   9   6    7.40    1.07
  -3   9   6    9.41    1.11
   2  -9  -6   96.64    2.69
  -2   9   6   88.37    3.19
  -2   9   6   92.76    2.82
   1  -9  -6   56.44    1.73
  -1   9   6   54.14    2.39
  -1   9   6   51.53    1.88
   0  -9  -6    5.50    0.61
   0   9   6    5.11    0.91
  -1  14  -7    8.98    0.82
   1 -14   7    6.62    0.76
  -2  14  -7   57.63    1.98
  -2  14  -7   51.64    2.82
  -2 -13   7   47.96    2.27
   1  13  -7   14.20    1.90
   1  13  -7   18.52    0.80
  -1 -13   7   19.29    1.12
   0  13  -7   10.14    1.67
   0 -13   7   10.37    0.88
   0 -13   7   12.39    0.94
  -1  13  -7  107.21    3.91
  -1  13  -7  109.06    3.10
   1 -13   7  108.53    3.13
   1 -13   7  109.65    3.27
  -2  13  -7   28.18    1.28
  -2  13  -7   25.80    1.91
   2 -13   7   28.63    1.32
   2 -13   7   27.77    1.43
  -3  13  -7    7.86    0.92
  -3  13  -7    5.59    0.96
   3 -13   7    8.51    0.84
  -4  13  -7   64.87    2.82
  -4  13  -7   69.04    2.39
   4 -13   7   68.38    2.33
   3  12  -7   42.74    2.60
  -3 -12   7   43.63    1.76
   2  12  -7    0.73    0.83
   2  12  -7    0.77    0.21
  -2 -12   7    0.53    0.40
   1  12  -7   55.95    2.57
   1  12  -7   56.18    1.61
  -1 -12   7   54.80    1.91
  -1 -12   7   48.32    1.95
   0  12  -7  103.67    3.69
   0  12  -7  105.83    2.91
   0 -12   7  104.17    3.11
   0 -12   7  105.17    2.90
  -1  12  -7    0.07    0.59
  -1  12  -7    0.09    0.35
   1 -12   7    0.52    0.35
   1 -12   7   -0.19    0.38
  -2  12  -7   61.16    1.99
  -2  12  -7   58.36    2.49
   2 -12   7   58.44    2.00
   2 -12   7   59.48    2.02
  -3  12  -7   57.16    1.97
  -3  12  -7   56.34    2.39
   3 -12   7   56.32    1.94
   3 -12   7   56.14    2.49
   3 -12   7   51.67    1.99
  -4  12  -7    5.23    0.81
  -4  12  -7    5.46    0.69
   4 -12   7    5.82    0.95
   4 -12   7    7.40    0.78
  -5  12  -7   97.02    3.31
  -5  12  -7   94.55    3.05
   5 -12   7   93.10    2.95
   4  11  -7   13.55    1.79
  -4 -11   7   17.18    1.10
   3  11  -7   20.60    1.78
  -3 -11   7   21.80    1.15
   2  11  -7  102.13    3.66
   2  11  -7  102.49    2.64
  -2 -11   7  100.90    2.63
  -2 -11   7  107.83    3.10
   1  11  -7   67.88    1.87
   1  11  -7   67.16    2.35
   1  11  -7   64.14    2.64
  -1 -11   7   59.71    2.56
  -1 -11   7   65.86    2.13
  -1 -11   7   64.78    1.83
   0  11  -7   27.70    1.66
   0  11  -7   26.78    1.06
   0  11  -7   24.71    1.23
   0 -11   7   27.43    1.02
   0 -11   7   26.08    1.16
   0 -11   7   25.29    1.47
  -1  11  -7  123.61    3.38
  -1  11  -7  122.27    3.88
  -1  11  -7  120.33    3.50
   1 -11   7  122.26    3.35
   1 -11   7  122.37    3.79
   1 -11   7  123.83    3.48
  -2  11  -7    5.33    0.78
  -2  11  -7    3.83    0.65
  -2  11  -7    5.71    0.71
   2 -11   7    4.68    0.84
   2 -11   7    4.83    0.54
   2 -11   7    5.30    0.61
  -3  11  -7   13.35    1.23
  -3  11  -7   13.51    0.95
  -3  11  -7   13.71    0.93
   3 -11   7   13.23    1.02
   3 -11   7   13.39    0.85
   3 -11   7   15.44    1.04
  -4  11  -7  120.36    3.53
  -4  11  -7  119.92    3.77
  -4  11  -7  122.21    3.54
   4 -11   7  121.23    3.48
  -5  11  -7   45.90    1.83
  -5  11  -7   42.74    1.96
   5 -11   7   46.39    1.70
  -6  11  -7   17.30    1.44
  -6  11  -7   20.17    1.37
   6 -11   7   19.03    1.16
   5  10  -7   -1.23    0.71
  -5 -10   7    0.00    0.44
   4  10  -7   48.25    2.38
  -4 -10   7   47.68    1.78
   3  10  -7   34.77    1.96
  -3 -10   7   32.16    1.77
  -3 -10   7   34.18    1.39
   2  10  -7    0.19    0.19
   2  10  -7    0.14    0.37
   2  10  -7   -0.28    0.54
  -2 -10   7    0.23    0.17
  -2 -10   7   -0.68    0.46
  -2 -10   7   -0.08    0.30
   1  10  -7   78.14    2.40
   1  10  -7   77.50    2.13
   1  10  -7   79.92    2.79
  -1 -10   7   75.72    2.69
  -1 -10   7   74.78    2.34
  -1 -10   7   75.99    2.09
   0  10  -7  141.20    3.80
   0  10  -7  145.74    3.99
   0  10  -7  144.43    4.33
   0 -10   7  146.20    4.29
   0 -10   7  148.05    3.98
   0 -10   7  143.71    3.77
  -1  10  -7    2.02    0.51
  -1  10  -7    2.02    0.43
   1 -10   7    1.53    0.34
   1 -10   7    1.58    0.44
   1 -10   7    1.94    0.37
  -2  10  -7  134.03    3.97
  -2  10  -7  135.96    3.69
  -2  10  -7  122.42    3.90
   2 -10   7  128.22    3.63
   2 -10   7  134.67    3.88
   2 -10   7  137.14    3.62
  -3  10  -7  132.36    3.63
  -3  10  -7  128.59    3.63
  -3  10  -7  126.83    3.86
   3 -10   7  127.66    3.77
   3 -10   7  131.53    3.61
   3 -10   7  131.34    3.63
  -4  10  -7    1.71    0.43
  -4  10  -7    1.46    0.51
  -4  10  -7    1.82    0.48
   4 -10   7    1.62    0.38
   4 -10   7    1.83    0.49
  -5  10  -7   64.85    2.33
  -5  10  -7   64.09    2.13
  -5  10  -7   64.76    2.24
   5 -10   7   68.68    2.19
  -6  10  -7   60.97    2.28
  -6  10  -7   64.61    2.15
  -6  10  -7   62.36    2.24
   6 -10   7   58.95    2.09
   6   9  -7   14.80    1.71
   5   9  -7   54.85    2.53
  -5  -9   7   60.17    2.77
  -5  -9   7   56.14    2.01
   4   9  -7    1.21    0.67
  -4  -9   7    1.04    0.37
  -4  -9   7    0.95    0.66
   3   9  -7   97.51    2.95
   3   9  -7  100.49    3.38
  -3  -9   7  102.33    3.28
  -3  -9   7  102.44    2.96
   2   9  -7  155.74    3.89
   2   9  -7  153.97    4.58
   2   9  -7  153.14    4.21
  -2  -9   7  154.74    4.20
  -2  -9   7  157.12    4.52
   1   9  -7    7.20    0.53
   1   9  -7    7.40    0.68
   1   9  -7    6.80    0.96
  -1  -9   7    7.83    0.87
  -1  -9   7    6.86    0.42
  -1  -9   7    7.64    0.62
   0   9  -7  106.48    3.30
   0   9  -7  108.24    3.01
   0   9  -7  107.99    2.87
   0  -9   7   95.30    3.47
   0  -9   7  109.48    2.83
   0  -9   7  108.25    3.26
  -1   9  -7  199.13    5.04
  -1   9  -7  198.93    5.13
  -1   9  -7  182.24    5.59
   1  -9   7  192.81    5.14
   1  -9   7  206.38    5.02
   1  -9   7  189.91    5.33
  -2   9  -7   64.11    3.20
  -2   9  -7   80.83    2.30
  -2   9  -7   80.85    2.33
   2  -9   7   80.10    2.27
   2  -9   7   77.35    2.48
   2  -9   7   77.31    2.30
  -3   9  -7   50.61    1.72
  -3   9  -7   51.23    1.70
   3  -9   7   50.83    1.70
  -4   9  -7  110.18    3.08
  -4   9  -7  109.03    3.16
   4  -9   7  105.76    3.13
   4  -9   7  109.53    3.08
  -5   9  -7   17.03    0.92
  -5   9  -7   17.07    1.07
  -5   9  -7   14.23    1.20
   5  -9   7   18.74    0.97
  -6   9  -7    6.19    0.74
  -6   9  -7    6.89    0.99
  -6   9  -7    5.68    0.69
   6  -9   7    5.90    0.76
  -7   9  -7   51.31    2.01
  -7   9  -7   50.75    2.05
   7  -9   7   50.30    1.90
   6   8  -7   22.17    1.70
  -6  -8   7   22.86    1.62
   5   8  -7    1.59    0.67
  -5  -8   7    1.66    0.43
  -5  -8   7    1.84    0.60
   4   8  -7   97.71    3.25
   4   8  -7   96.17    2.87
  -4  -8   7   96.87    2.85
  -4  -8   7   94.78    3.08
   3   8  -7  197.93    5.48
   3   8  -7  192.70    5.14
  -3  -8   7  193.46    5.38
  -3  -8   7  191.06    5.12
   2   8  -7    5.78    1.06
   2   8  -7    7.41    0.44
   2   8  -7    7.91    0.68
  -2  -8   7    7.22    0.66
  -2  -8   7    7.98    0.83
   1   8  -7  187.36    5.22
   1   8  -7  187.53    4.95
   1   8  -7  190.58    4.77
  -1  -8   7  193.03    5.21
  -1  -8   7  190.90    4.95
  -1  -8   7  186.81    4.73
   0   8  -7   57.88    1.67
   0   8  -7   55.61    2.01
   0   8  -7   56.34    1.77
   0  -8   7   57.05    1.62
   0  -8   7   57.30    1.98
   0  -8   7   55.04    1.74
  -1   8  -7    8.30    0.66
  -1   8  -7    8.55    0.61
  -1   8  -7    8.58    0.83
   1  -8   7    7.70    0.57
   1  -8   7    8.01    0.54
   1  -8   7    6.96    0.69
  -2   8  -7  117.94    3.18
  -2   8  -7  115.92    3.17
  -2   8  -7  115.33    3.40
   2  -8   7  118.18    3.15
   2  -8   7  112.57    3.14
   2  -8   7  115.06    3.34
  -3   8  -7  193.89    5.15
  -3   8  -7  195.47    4.92
  -3   8  -7  181.16    5.15
   3  -8   7  189.47    4.90
   3  -8   7  181.30    4.93
  -4   8  -7    2.89    0.48
  -4   8  -7    3.22    0.46
  -4   8  -7    4.17    0.57
   4  -8   7    3.91    0.55
   4  -8   7    3.88    0.49
  -5   8  -7   77.71    2.49
  -5   8  -7   79.50    2.41
  -5   8  -7   77.87    2.29
  -5   8  -7   78.59    2.44
   5  -8   7   71.36    2.37
  -6   8  -7   55.04    1.91
  -6   8  -7   53.35    1.95
  -6   8  -7   56.52    2.38
  -6   8  -7   52.01    1.76
   6  -8   7   54.44    1.85
  -7   8  -7    0.29    0.53
  -7   8  -7   -0.52    0.77
  -7   8  -7    0.87    0.44
  -7   8  -7    0.55    0.53
   7  -8   7    0.64    0.46
   7   7  -7   -0.23    0.66
  -7  -7   7   -0.13    0.61
   6   7  -7   49.75    2.22
  -6  -7   7   52.71    2.05
   5   7  -7   73.81    2.89
   5   7  -7   72.62    2.37
  -5  -7   7   76.96    2.36
  -5  -7   7   72.54    2.48
   4   7  -7    7.50    1.34
   4   7  -7   11.58    0.80
  -4  -7   7   11.31    0.75
  -4  -7   7   10.51    0.96
   3   7  -7   67.78    2.32
   3   7  -7   66.86    2.07
  -3  -7   7   68.61    2.26
  -3  -7   7   64.39    2.32
   2   7  -7  151.25    3.82
   2   7  -7  156.23    4.08
   2   7  -7  152.06    4.30
  -2  -7   7  152.66    3.99
  -2  -7   7  147.93    4.05
  -2  -7   7  157.27    4.28
   1   7  -7   37.90    1.16
   1   7  -7   38.41    1.30
   1   7  -7   38.52    1.53
  -1  -7   7   37.31    1.28
  -1  -7   7   38.47    1.48
  -1  -7   7   39.77    1.12
   0   7  -7   72.88    2.03
   0   7  -7   73.16    2.32
   0   7  -7   73.35    2.11
   0  -7   7   72.43    2.29
   0  -7   7   73.41    2.09
   0  -7   7   73.72    2.00
  -1   7  -7  141.25    3.59
  -1   7  -7  140.45    3.81
  -1   7  -7  137.56    3.55
   1  -7   7  116.71    3.73
   1  -7   7  135.54    3.75
   1  -7   7  134.57    3.55
  -2   7  -7   49.13    1.55
  -2   7  -7   47.10    1.63
  -2   7  -7   48.98    1.73
   2  -7   7   48.81    1.50
   2  -7   7   50.16    1.54
  -3   7  -7   51.37    1.79
  -3   7  -7   52.07    1.59
  -3   7  -7   50.88    1.65
   3  -7   7   49.70    1.56
   3  -7   7   50.81    1.63
  -4   7  -7  125.55    3.55
  -4   7  -7  128.63    3.64
  -4   7  -7  126.87    3.53
  -4   7  -7  126.83    3.41
   4  -7   7  129.95    3.43
   4  -7   7  127.74    3.52
  -5   7  -7   20.40    1.06
  -5   7  -7   18.63    0.89
  -5   7  -7   21.43    1.08
  -5   7  -7   20.23    1.10
   5  -7   7   21.00    0.94
   5  -7   7   21.16    1.04
  -6   7  -7    3.36    0.54
  -6   7  -7    2.95    0.51
  -6   7  -7    2.80    0.51
  -6   7  -7    3.44    0.44
   6  -7   7    2.51    0.56
  -7   7  -7   67.81    2.07
  -7   7  -7   56.11    2.87
  -7   7  -7   67.84    2.21
  -7   7  -7   64.90    2.28
   7  -7   7   66.86    2.17
   7   6  -7   30.85    1.91
  -7  -6   7   34.14    1.62
  -6  -6   7   27.97    1.40
   5   6  -7   11.78    0.88
   5   6  -7   12.24    1.13
  -5  -6   7   12.93    0.97
   4   6  -7  144.29    4.08
   4   6  -7  143.50    3.89
  -4  -6   7  141.05    3.98
  -4  -6   7  138.55    3.86
   3   6  -7   46.75    1.24
   3   6  -7   47.14    1.56
   3   6  -7   47.41    1.74
  -3  -6   7   47.78    1.68
  -3  -6   7   46.16    1.53
   2   6  -7   21.80    0.91
   2   6  -7   23.68    1.12
   2   6  -7   22.58    0.72
  -2  -6   7   22.62    1.04
  -2  -6   7   22.76    0.76
  -2  -6   7   21.75    0.89
   1   6  -7  114.64    2.91
   1   6  -7  113.81    3.20
   1   6  -7   95.03    3.31
  -1  -6   7  113.52    2.99
  -1  -6   7  110.91    3.16
  -1  -6   7  117.26    2.85
   0   6  -7  171.77    4.62
   0   6  -7  170.26    4.40
   0   6  -7  170.43    4.36
   0  -6   7  171.36    4.40
   0  -6   7  172.26    4.60
   0  -6   7  173.05    4.34
  -1   6  -7   12.73    0.78
  -1   6  -7   12.52    0.63
  -1   6  -7   12.01    0.61
   1  -6   7   11.57    0.59
   1  -6   7   12.11    0.58
  -2   6  -7  189.87    4.94
  -2   6  -7  199.26    4.89
  -2   6  -7  192.33    5.12
   2  -6   7  183.19    4.86
   2  -6   7  195.20    4.93
  -3   6  -7  117.92    3.22
  -3   6  -7  119.37    3.12
  -3   6  -7  119.15    3.36
   3  -6   7  114.79    3.11
   3  -6   7  118.39    3.21
  -4   6  -7    8.77    0.69
  -4   6  -7    7.47    0.75
  -4   6  -7    8.95    0.57
  -4   6  -7    8.08    0.74
   4  -6   7    7.74    0.63
   4  -6   7    9.23    0.59
  -5   6  -7   97.76    2.92
  -5   6  -7   96.59    2.84
  -5   6  -7   99.73    2.68
  -5   6  -7   97.79    2.85
   5  -6   7   95.58    2.85
   5  -6   7   96.73    2.71
  -6   6  -7   76.78    2.43
  -6   6  -7   71.54    2.37
  -6   6  -7   72.68    2.18
  -6   6  -7   76.54    2.39
   6  -6   7   77.60    2.25
  -7   6  -7    0.16    0.45
  -7   6  -7   -0.36    0.65
  -7   6  -7    0.52    0.49
   8   5  -7   27.65    1.53
   8   5  -7   29.32    1.58
   7   5  -7    0.32    0.56
  -7  -5   7    1.14    0.47
   6   5  -7   43.44    1.80
   6   5  -7   41.85    1.64
  -6  -5   7   43.83    1.62
   5   5  -7  110.47    3.20
   5   5  -7  111.87    3.31
  -5  -5   7  111.76    3.31
   4   5  -7   23.42    1.03
   4   5  -7   23.26    1.15
  -4  -5   7   23.23    1.05
  -4  -5   7   23.54    1.01
   3   5  -7   93.13    2.75
   3   5  -7   95.50    2.63
   3   5  -7   92.71    2.36
  -3  -5   7   94.91    2.79
  -3  -5   7   89.40    2.60
   2   5  -7  199.05    6.08
   2   5  -7  238.85    5.99
   2   5  -7  236.12    5.66
  -2  -5   7  242.18    5.83
   1   5  -7   19.93    0.78
   1   5  -7   21.05    0.95
   1   5  -7   20.70    0.71
  -1  -5   7   20.49    0.68
  -1  -5   7   19.94    0.78
   0   5  -7  194.54    4.88
   0   5  -7  195.79    5.12
   0   5  -7  188.05    4.88
   0  -5   7  191.14    4.89
   0  -5   7  199.32    4.87
  -1   5  -7  283.07    7.07
  -1   5  -7  286.73    7.28
   1  -5   7  278.46    7.01
   1  -5   7  285.39    7.05
  -2   5  -7   24.94    0.87
  -2   5  -7   25.22    1.09
  -2   5  -7   26.09    0.96
   2  -5   7   26.48    0.94
   2  -5   7   24.97    0.85
  -3   5  -7   51.21    1.47
  -3   5  -7   50.93    1.74
  -3   5  -7   49.63    1.68
  -3   5  -7   51.88    1.61
   3  -5   7   51.24    1.58
   3  -5   7   49.35    1.46
  -4   5  -7  198.79    5.25
  -4   5  -7  196.90    4.95
  -4   5  -7  199.17    5.12
  -4   5  -7  194.37    5.17
   4  -5   7  193.01    5.10
   4  -5   7  192.18    4.95
  -5   5  -7    2.72    0.42
  -5   5  -7    2.48    0.45
  -5   5  -7    2.68    0.41
  -5   5  -7    2.10    0.42
   5  -5   7    2.82    0.41
   5  -5   7    2.64    0.36
  -6   5  -7   60.80    2.11
  -6   5  -7   63.88    2.25
  -6   5  -7   61.45    2.05
   6  -5   7   62.17    1.90
   6  -5   7   64.31    2.25
  -7   5  -7   61.36    2.18
  -7   5  -7   67.03    2.31
  -7   5  -7   63.51    2.22
   7  -5   7   66.70    2.07
   8   4  -7    8.32    1.03
   8   4  -7    6.87    1.01
   7   4  -7   43.79    1.81
   6   4  -7   54.30    1.91
   6   4  -7   54.39    1.96
  -6  -4   7   57.16    2.41
   5   4  -7    0.98    0.36
   5   4  -7    0.98    0.36
   4   4  -7  103.47    2.95
   4   4  -7  101.30    2.58
   4   4  -7  100.67    2.59
   4   4  -7  104.17    2.90
  -4  -4   7  103.85    2.90
   3   4  -7   39.80    1.38
   3   4  -7   36.22    1.10
   3   4  -7   36.39    1.06
   3   4  -7   38.71    1.29
  -3  -4   7   38.61    1.27
   2   4  -7   39.05    1.22
   2   4  -7   38.30    1.34
   2   4  -7   38.74    1.11
  -2  -4   7   36.50    1.21
   1   4  -7  278.98    6.84
   1   4  -7  275.73    7.03
   1   4  -7  272.92    6.80
  -1  -4   7  276.20    6.79
  -1  -4   7  273.22    6.84
   0   4  -7  209.03    5.05
   0   4  -7  199.94    5.28
   0   4  -7  196.81    5.08
   0  -4   7  200.29    5.07
   0  -4   7  204.67    5.05
  -1   4  -7   69.45    1.89
  -1   4  -7   70.40    1.98
  -1   4  -7   70.30    2.15
   1  -4   7   71.23    1.88
   1  -4   7   72.30    1.97
  -2   4  -7  206.04    5.65
  -2   4  -7  218.51    5.35
  -2   4  -7  220.08    5.67
  -2   4  -7  214.64    5.49
   2  -4   7  214.66    5.34
   2  -4   7  221.81    5.49
  -3   4  -7  134.21    3.72
  -3   4  -7  132.09    3.65
  -3   4  -7  136.00    3.57
  -3   4  -7  131.59    3.38
   3  -4   7  133.57    3.55
   3  -4   7  133.28    3.38
  -4   4  -7    0.25    0.27
  -4   4  -7    0.21    0.18
  -4   4  -7    0.63    0.34
  -4   4  -7    0.20    0.28
   4  -4   7    0.00    0.20
   4  -4   7    0.49    0.27
  -5   4  -7  126.74    3.58
  -5   4  -7  124.74    3.54
  -5   4  -7  124.97    3.45
   5  -4   7  120.52    3.43
   5  -4   7  124.49    3.25
  -6   4  -7   56.55    2.02
  -6   4  -7   58.58    1.89
  -6   4  -7   47.38    2.56
   6  -4   7   58.47    1.71
   6  -4   7   55.22    1.86
  -7   4  -7    0.49    0.44
  -7   4  -7   -0.41    0.42
  -7   4  -7    0.43    0.57
   7  -4   7    0.67    0.41
   8   3  -7   30.30    1.35
   8   3  -7   31.43    1.51
   7   3  -7    0.10    0.40
   7   3  -7    0.53    0.14
   7   3  -7    0.08    0.43
   7   3  -7    0.81    0.76
   6   3  -7  112.85    3.28
   6   3  -7  111.89    2.85
   6   3  -7  114.09    3.22
   6   3  -7  112.68    2.86
   5   3  -7  188.42    4.99
   5   3  -7  195.92    5.16
   5   3  -7  198.82    5.22
   5   3  -7  204.24    4.88
   4   3  -7    4.37    0.55
   4   3  -7    4.19    0.35
   4   3  -7    4.16    0.53
   4   3  -7    4.37    0.31
   3   3  -7  232.36    6.00
   3   3  -7  234.11    5.81
   3   3  -7  235.61    6.03
   3   3  -7  237.87    5.80
   2   3  -7  149.25    4.01
   2   3  -7  150.35    3.88
   2   3  -7  150.83    3.81
  -2  -3   7  152.06    3.89
   1   3  -7   47.66    1.55
   1   3  -7   47.76    1.36
   1   3  -7   48.38    1.38
  -1  -3   7   47.56    1.37
  -1  -3   7   47.96    1.36
   0   3  -7  143.85    3.62
   0   3  -7  139.48    3.80
   0   3  -7  142.93    3.78
   0   3  -7  139.12    3.56
   0  -3   7  139.38    3.54
   0  -3   7  138.72    3.60
  -1   3  -7  272.39    6.81
  -1   3  -7  258.67    6.97
  -1   3  -7  273.45    6.66
   1  -3   7  284.31    6.81
   1  -3   7  274.39    6.66
  -2   3  -7    3.88    0.28
  -2   3  -7    2.51    0.39
  -2   3  -7    3.60    0.40
   2  -3   7    3.39    0.26
   2  -3   7    3.49    0.40
  -3   3  -7    8.90    0.76
  -3   3  -7    9.65    0.61
  -3   3  -7    9.91    0.40
   3  -3   7    9.86    0.60
   3  -3   7   10.02    0.40
  -4   3  -7   37.88    1.33
  -4   3  -7   36.80    1.46
   4  -3   7   38.45    1.32
   4  -3   7   37.73    1.08
  -5   3  -7    4.38    0.60
  -5   3  -7    6.44    0.88
   5  -3   7    5.56    0.63
   5  -3   7    5.62    0.43
  -6   3  -7   14.63    0.91
  -6   3  -7   15.12    1.20
   6  -3   7   13.89    0.89
   6  -3   7   15.09    0.70
   6  -3   7   14.68    0.72
  -7   3  -7   32.70    1.45
  -7   3  -7   35.03    1.76
   7  -3   7   34.19    1.25
   8   2  -7    9.33    0.50
   8   2  -7   10.06    1.00
   8   2  -7    9.52    0.78
   8   2  -7   10.80    0.56
   7   2  -7   58.60    2.07
   7   2  -7   59.84    1.64
   7   2  -7   60.35    2.09
   7   2  -7   58.75    1.93
   6   2  -7    8.46    0.72
   6   2  -7    9.16    0.51
   6   2  -7    8.38    0.76
   6   2  -7    8.69    0.79
   5   2  -7   25.43    0.88
   5   2  -7   25.50    1.11
   5   2  -7   25.75    1.02
   4   2  -7  176.31    4.65
   4   2  -7  170.26    4.45
   4   2  -7  182.28    4.47
   4   2  -7  179.54    4.61
   3   2  -7   93.59    2.61
   3   2  -7   92.53    2.45
   3   2  -7   95.23    2.59
   3   2  -7   93.68    2.47
   2   2  -7   53.61    1.77
   2   2  -7   58.61    1.58
   2   2  -7   55.96    1.60
   2   2  -7   54.94    1.72
   1   2  -7  190.76    4.78
   1   2  -7  188.97    4.98
   1   2  -7  196.04    4.84
   0   2  -7  117.61    3.10
   0   2  -7  117.68    3.25
   0   2  -7  118.63    2.97
   0  -2   7  121.07    3.10
  -1   2  -7   25.44    0.90
   1  -2   7   25.36    0.71
  -2   2  -7  230.63    5.90
  -2   2  -7  233.75    6.06
   2  -2   7  235.16    5.90
  -3   2  -7  107.77    3.17
  -3   2  -7  111.02    3.01
   3  -2   7  113.29    3.02
  -4   2  -7   22.53    1.19
  -4   2  -7   21.76    0.94
   4  -2   7   21.82    0.94
  -5   2  -7  195.14    5.36
  -5   2  -7  196.29    5.14
   5  -2   7  195.54    5.14
  -6   2  -7   51.36    2.10
  -6   2  -7   50.53    1.74
   6  -2   7   49.04    1.72
  -7   2  -7    0.75    0.46
  -7   2  -7    1.58    0.76
   9   1  -7   26.18    1.76
   8   1  -7   58.05    1.81
   8   1  -7   56.77    2.12
   7   1  -7   -0.22    0.31
   7   1  -7    0.60    0.41
   7   1  -7    0.56    0.39
   7   1  -7    0.32    0.26
   7   1  -7    0.34    0.19
   6   1  -7   54.22    1.83
   6   1  -7   54.28    1.57
   6   1  -7   51.08    1.61
   6   1  -7   50.82    1.81
   6   1  -7   52.38    1.57
   5   1  -7   69.74    2.12
   5   1  -7   68.41    1.96
   5   1  -7   65.94    1.95
   5   1  -7   67.46    2.11
   5   1  -7   67.91    1.91
   4   1  -7   16.53    0.74
   4   1  -7   16.06    0.76
   4   1  -7   16.05    0.80
   4   1  -7   17.15    0.69
   4   1  -7   15.59    0.80
   3   1  -7  151.08    3.98
   3   1  -7  155.15    3.98
   3   1  -7  145.97    3.94
   3   1  -7  154.49    3.88
   3   1  -7  152.73    3.86
   3   1  -7  147.11    3.94
   2   1  -7  273.20    6.73
   2   1  -7  267.97    6.72
   2   1  -7  270.18    6.86
   1   1  -7    4.10    0.51
   1   1  -7    4.77    0.38
   1   1  -7    4.54    0.38
   0   1  -7   42.25    1.30
   0   1  -7   42.85    1.14
   0   1  -7   47.19    1.50
   0   1  -7   39.00    1.12
  -1   1  -7  143.75    3.94
  -1   1  -7  144.00    3.76
   1  -1   7  146.26    3.76
  -2   1  -7    1.59    0.42
   2  -1   7    1.36    0.27
  -3   1  -7  140.47    3.98
  -3   1  -7  139.71    3.75
   3  -1   7  144.84    3.77
  -4   1  -7  151.67    4.28
  -4   1  -7  148.72    4.20
   4  -1   7  150.18    4.01
  -5   1  -7    7.72    0.67
  -5   1  -7    6.81    1.04
   5  -1   7    6.76    0.65
  -6   1  -7   33.39    1.37
  -6   1  -7   35.77    1.92
   6  -1   7   36.55    1.59
  -7   1  -7   35.34    1.47
  -7   1  -7   29.85    2.02
   9   0  -7    5.87    0.82
   8   0  -7    8.34    0.92
   8   0  -7    8.51    0.66
   7   0  -7   93.87    2.89
   7   0  -7   95.69    2.61
   7   0  -7   99.54    2.91
   7   0  -7   84.36    2.74
   7   0  -7   95.42    2.53
   6   0  -7   40.99    1.41
   6   0  -7   42.24    1.32
   6   0  -7   41.14    1.31
   6   0  -7   44.78    1.59
   6   0  -7   42.10    1.57
   5   0  -7   22.75    0.86
   5   0  -7   21.85    0.90
   5   0  -7   22.41    1.02
   5   0  -7   23.65    1.03
   5   0  -7   21.23    0.89
   4   0  -7  151.98    3.93
   4   0  -7  152.22    3.99
   4   0  -7  149.45    4.03
   4   0  -7  149.05    4.04
   4   0  -7  156.51    3.98
   3   0  -7   73.86    2.16
   3   0  -7   75.46    2.12
   3   0  -7   73.81    2.06
   3   0  -7   74.25    2.11
   2   0  -7   68.26    1.86
   2   0  -7   63.35    1.86
   2   0  -7   66.13    2.01
   2   0  -7   67.15    1.90
   2   0  -7   69.05    1.86
   1   0  -7  392.46    9.63
   1   0  -7  399.52    9.92
   1   0  -7  397.20    9.77
   1   0  -7  393.75    9.63
   0   0  -7   74.95    2.31
   0   0  -7   77.48    2.13
   0   0   7   75.96    2.28
  -1   0  -7   29.46    1.02
  -1   0  -7   28.61    1.23
   1   0   7   29.49    1.21
  -2   0  -7  240.99    6.21
  -2   0  -7  245.11    6.46
   2   0   7  252.52    6.23
   2   0   7  242.01    6.44
  -3   0  -7   24.36    1.31
  -3   0  -7   23.45    1.00
   3   0   7   26.04    1.25
   3   0   7   24.57    0.98
  -4   0  -7   12.57    0.73
  -4   0  -7   13.45    1.14
   4   0   7   13.33    0.76
   4   0   7   11.66    0.96
  -5   0  -7   51.91    2.17
  -5   0  -7   51.34    1.72
   5   0   7   53.44    2.00
   5   0   7   53.00    1.73
  -6   0  -7   30.59    1.28
  -6   0  -7   28.67    1.95
   9  -1  -7   29.89    1.63
   8  -1  -7   35.65    1.59
   8  -1  -7   36.02    1.34
   7  -1  -7    3.86    0.55
   7  -1  -7    3.01    0.40
   7  -1  -7    3.09    0.43
   7  -1  -7    3.59    0.40
   7  -1  -7    3.14    0.53
   6  -1  -7   90.97    2.49
   6  -1  -7   90.79    2.45
   6  -1  -7   93.34    2.59
   6  -1  -7   90.32    2.74
   5  -1  -7   82.73    2.24
   5  -1  -7   80.04    2.41
   5  -1  -7   80.99    2.31
   5  -1  -7   79.20    2.29
   4  -1  -7   27.53    1.06
   4  -1  -7   27.45    1.04
   4  -1  -7   27.67    1.08
   3  -1  -7  129.63    3.56
   3  -1  -7  130.82    3.53
   3  -1  -7  132.57    3.46
   2  -1  -7  198.51    4.92
   2  -1  -7  193.05    4.98
   2  -1  -7  199.13    5.02
   2  -1  -7  191.51    5.13
   1  -1  -7    8.72    0.53
   1  -1  -7    8.76    0.54
   1  -1  -7    8.82    0.41
   1  -1  -7    8.38    0.41
   1  -1  -7    7.58    0.72
  -1   1   7    7.99    0.65
   0  -1  -7  206.02    5.33
   0  -1  -7  207.78    5.68
   0  -1  -7  213.22    5.57
   0   1   7  209.54    5.53
  -1  -1  -7   75.82    2.17
  -1  -1  -7   76.22    2.46
   1   1   7   78.05    2.42
  -2  -1  -7   13.01    0.68
  -2  -1  -7   12.35    1.01
   2   1   7   12.04    0.93
  -3  -1  -7  103.85    2.91
  -3  -1  -7  106.40    3.30
   3   1   7  104.97    3.23
  -4  -1  -7   57.41    1.84
  -4  -1  -7   58.89    2.32
   4   1   7   60.65    2.20
  -5  -1  -7    0.75    0.34
  -5  -1  -7    0.99    0.73
   5   1   7    0.62    0.44
  -6  -1  -7   26.21    1.24
  -6  -1  -7   26.66    1.78
   6   1   7   29.62    1.58
  -9   2   7    2.80    0.50
   8  -2  -7   34.73    1.36
   8  -2  -7   34.55    1.60
  -8   2   7   38.09    1.41
   7  -2  -7   39.20    1.62
   7  -2  -7   40.51    1.47
  -7   2   7   42.75    1.49
   6  -2  -7   17.01    0.69
   6  -2  -7   17.47    0.99
   6  -2  -7   18.26    0.92
   6  -2  -7   16.13    0.82
   5  -2  -7   71.88    2.13
   5  -2  -7   70.36    2.19
   5  -2  -7   71.83    2.14
   4  -2  -7  225.92    5.79
   4  -2  -7  226.60    5.84
   4  -2  -7  223.25    5.78
   3  -2  -7    7.51    0.54
   3  -2  -7    6.99    0.72
   3  -2  -7    6.06    0.57
   2  -2  -7   11.21    0.66
   2  -2  -7   10.46    0.83
   2  -2  -7   11.51    0.56
  -2   2   7   11.68    0.74
   1  -2  -7  255.98    6.68
   1  -2  -7  253.86    6.45
   1  -2  -7  251.48    6.25
   1  -2  -7  259.46    6.44
  -1   2   7  252.49    6.61
   0  -2  -7   16.15    0.75
   0  -2  -7   16.57    1.06
   0   2   7   16.37    0.95
  -1  -2  -7   37.36    1.27
  -1  -2  -7   36.71    1.63
   1   2   7   38.11    1.54
  -2  -2  -7  159.17    4.97
  -2  -2  -7  182.03    4.98
   2   2   7  179.64    4.91
  -3  -2  -7  146.42    4.38
  -3  -2  -7  145.23    3.91
   3   2   7  146.91    4.30
  -4  -2  -7   12.73    1.44
  -4  -2  -7   11.53    0.74
   4   2   7   11.61    1.10
  -5  -2  -7   39.98    1.49
   5   2   7   42.68    1.92
  -9   3   7   33.24    1.45
   8  -3  -7   12.02    0.96
   8  -3  -7   14.12    1.12
  -8   3   7   15.50    0.96
   7  -3  -7    0.06    0.42
   7  -3  -7   -0.55    0.37
  -7   3   7    0.56    0.36
   6  -3  -7   51.69    1.84
   6  -3  -7   55.33    1.75
   6  -3  -7   53.70    1.81
   6  -3  -7   54.46    1.57
   5  -3  -7  147.78    3.94
   5  -3  -7  141.19    4.01
   5  -3  -7  143.01    4.03
   4  -3  -7    6.85    0.68
   4  -3  -7    6.28    0.80
   4  -3  -7    5.57    0.59
   3  -3  -7   76.92    2.14
   3  -3  -7   73.05    2.39
   3  -3  -7   74.96    2.22
  -3   3   7   75.30    2.25
   2  -3  -7  103.09    2.83
   2  -3  -7  100.29    3.07
   2  -3  -7  103.24    2.69
  -2   3   7   98.63    2.93
   1  -3  -7   22.50    0.74
   1  -3  -7   22.57    0.92
   1  -3  -7   20.81    1.26
   1  -3  -7   20.98    0.93
  -1   3   7   21.86    1.10
   0  -3  -7  187.89    4.86
   0  -3  -7  193.71    5.25
   0  -3  -7  185.82    4.86
   0   3   7  180.42    5.14
  -1  -3  -7   66.31    2.41
  -1  -3  -7   67.93    2.09
  -1  -3  -7   65.91    2.00
   1   3   7   64.33    2.30
  -2  -3  -7   -0.27    0.50
  -2  -3  -7    0.30    0.27
   2   3   7   -0.08    0.39
  -3  -3  -7   70.13    2.13
  -3  -3  -7   69.27    2.73
   3   3   7   73.53    2.62
  -4  -3  -7   47.44    1.63
   4   3   7   49.85    2.10
  -5  -3  -7    1.87    0.43
   5   3   7    1.25    0.58
   8  -4  -7   19.15    1.29
  -8   4   7   21.61    1.17
   7  -4  -7   48.65    1.84
   7  -4  -7   48.12    1.33
   7  -4  -7   48.17    1.58
   7  -4  -7   44.71    1.74
  -7   4   7   49.22    1.75
   6  -4  -7   11.13    0.88
   6  -4  -7   12.71    0.90
   6  -4  -7   13.18    0.93
  -6   4   7   11.94    0.87
   5  -4  -7   50.54    1.83
   5  -4  -7   48.73    1.69
   5  -4  -7   48.42    1.73
   4  -4  -7  165.57    4.57
   4  -4  -7  173.68    4.75
   4  -4  -7  173.51    4.52
  -4   4   7  171.40    4.54
   3  -4  -7   37.60    1.64
   3  -4  -7   35.78    1.37
   3  -4  -7   37.10    1.26
  -3   4   7   36.72    1.40
  -3   4   7   37.16    1.31
   2  -4  -7   28.28    1.15
   2  -4  -7   27.62    1.49
   2  -4  -7   28.15    0.98
  -2   4   7   27.63    1.02
  -2   4   7   26.04    1.23
   1  -4  -7  195.76    4.81
   1  -4  -7  189.31    5.03
   1  -4  -7  194.39    5.43
   1  -4  -7  189.17    5.02
  -1   4   7  192.14    4.87
   0  -4  -7   26.70    1.07
   0  -4  -7   28.03    1.12
   0  -4  -7   26.15    0.80
   0  -4  -7   27.72    1.58
   0   4   7   27.34    0.87
   0   4   7   25.25    1.34
  -1  -4  -7   66.95    2.01
  -1  -4  -7   63.70    2.50
  -1  -4  -7   63.28    1.95
   1   4   7   61.89    2.34
  -2  -4  -7   82.25    2.45
  -2  -4  -7   82.50    3.07
  -2  -4  -7   85.13    2.50
   2   4   7   87.26    2.97
  -3  -4  -7   21.45    0.99
  -3  -4  -7   20.91    1.12
   3   4   7   24.77    1.48
  -4  -4  -7   25.05    1.13
   4   4   7   26.02    1.66
   8  -5  -7   17.88    1.25
  -8   5   7   17.28    1.15
   7  -5  -7   12.53    1.01
   7  -5  -7    9.44    0.74
   7  -5  -7   12.73    0.58
  -7   5   7   13.83    0.99
   6  -5  -7  118.68    3.41
   6  -5  -7  110.54    3.38
   6  -5  -7  121.22    3.41
  -6   5   7  115.04    3.39
   5  -5  -7   55.00    2.02
   5  -5  -7   53.03    1.80
   5  -5  -7   51.11    1.86
  -5   5   7   52.67    1.71
   4  -5  -7   15.10    0.85
   4  -5  -7   15.73    0.99
   4  -5  -7   17.05    1.23
  -4   5   7   16.34    0.93
  -4   5   7   15.54    0.89
   3  -5  -7  168.62    4.59
   3  -5  -7  171.75    4.44
   3  -5  -7  167.86    4.90
  -3   5   7  175.42    4.51
  -3   5   7  165.69    4.64
   2  -5  -7   60.76    2.37
   2  -5  -7   60.78    1.98
   2  -5  -7   61.22    1.78
  -2   5   7   61.64    1.85
  -2   5   7   60.61    2.11
   1  -5  -7   19.29    0.71
   1  -5  -7   18.07    1.43
   1  -5  -7   17.13    0.88
   1  -5  -7   17.57    0.98
  -1   5   7   17.64    1.14
  -1   5   7   16.49    0.78
   0  -5  -7   99.78    2.90
   0  -5  -7  103.15    2.94
   0  -5  -7  101.40    3.46
   0  -5  -7  102.37    2.62
   0   5   7  101.28    3.28
   0   5   7  102.68    2.69
  -1  -5  -7   67.87    2.07
  -1  -5  -7   65.22    2.69
  -1  -5  -7   66.11    2.12
   1   5   7   68.41    2.55
  -2  -5  -7    1.00    0.33
  -2  -5  -7    0.14    0.46
   2   5   7    0.41    0.52
  -3  -5  -7   56.15    2.58
  -3  -5  -7   47.63    1.72
   3   5   7   50.51    2.31
  -4  -5  -7   29.19    1.29
   4   5   7   30.83    1.91
   8  -6  -7   11.00    1.22
   7  -6  -7   63.77    2.26
  -7   6   7   62.74    2.21
   6  -6  -7   21.52    1.31
   6  -6  -7   19.67    1.14
   5  -6  -7   18.27    1.02
   5  -6  -7   16.25    1.33
  -5   6   7   18.02    0.97
  -5   6   7   18.94    1.12
   4  -6  -7   37.41    1.84
   4  -6  -7   35.34    1.51
   4  -6  -7   38.45    1.40
  -4   6   7   37.87    1.47
   3  -6  -7    3.87    0.55
   3  -6  -7    4.93    0.79
   3  -6  -7    4.49    0.59
  -3   6   7    4.34    0.54
  -3   6   7    2.88    0.49
   2  -6  -7   78.71    2.51
   2  -6  -7   81.61    2.27
   2  -6  -7   80.51    2.97
  -2   6   7   82.06    2.68
  -2   6   7   79.52    2.36
   1  -6  -7   97.23    2.93
   1  -6  -7   96.97    2.86
   1  -6  -7   94.84    3.44
   1  -6  -7  100.45    2.63
  -1   6   7   99.25    2.73
  -1   6   7   99.94    3.21
   0  -6  -7   19.60    1.13
   0  -6  -7   19.10    0.98
   0  -6  -7   21.19    2.34
   0  -6  -7   21.40    0.74
   0   6   7   20.14    1.38
   0   6   7   20.58    0.88
  -1  -6  -7   33.89    1.50
  -1  -6  -7   34.73    1.33
   1   6   7   34.30    1.83
  -2  -6  -7  114.75    3.24
   2   6   7  112.11    3.86
  -3  -6  -7    5.18    0.58
   3   6   7    8.96    1.39
   7  -7  -7   11.81    1.15
  -7   7   7   14.86    1.19
   6  -7  -7   68.31    2.51
   6  -7  -7   73.68    2.42
  -6   7   7   72.66    2.24
   5  -7  -7   13.50    0.95
   5  -7  -7   11.66    1.36
  -5   7   7   14.17    0.96
  -5   7   7   15.07    1.16
   4  -7  -7   -0.03    0.63
   4  -7  -7    1.48    0.41
  -4   7   7    1.76    0.55
  -4   7   7    1.54    0.43
   3  -7  -7   95.14    3.37
  -3   7   7   93.12    2.98
  -3   7   7   91.64    2.79
   2  -7  -7   79.29    2.27
   2  -7  -7   75.59    3.07
  -2   7   7   78.97    2.73
  -2   7   7   81.45    2.42
   1  -7  -7    7.08    0.72
   1  -7  -7    5.89    0.52
  -1   7   7    5.68    0.77
  -1   7   7    7.60    1.05
   0  -7  -7   49.48    1.43
   0  -7  -7   47.86    1.71
   0   7   7   47.35    2.16
   0   7   7   47.54    1.59
  -1  -7  -7   60.24    2.01
  -1  -7  -7   61.63    1.86
   1   7   7   61.38    2.63
  -2  -7  -7    0.78    0.42
   6  -8  -7    0.62    0.53
  -6   8   7    1.90    0.47
   5  -8  -7   47.34    2.31
   5  -8  -7   51.16    1.85
  -5   8   7   51.82    1.89
   4  -8  -7   79.27    3.14
   4  -8  -7   84.70    2.52
  -4   8   7   81.04    2.67
  -4   8   7   80.69    2.69
   3  -8  -7   17.98    0.93
  -3   8   7   20.63    1.31
  -3   8   7   15.23    1.18
  -2   8   7   69.32    2.60
  -2   8   7   69.03    2.26
   1  -8  -7   71.75    2.36
   1  -8  -7   75.91    2.12
  -1   8   7   69.37    2.79
  -1   8   7   75.42    2.31
   0  -8  -7    1.34    0.43
   0  -8  -7    1.72    0.46
   0   8   7    2.02    0.72
   4  -9  -7   17.57    1.06
  -4   9   7   19.44    1.34
   3  -9  -7   73.91    2.26
  -3   9   7   69.92    2.49
  -3   9   7   74.46    2.72
   2  -9  -7   45.49    1.52
  -2   9   7   41.46    2.08
   1  13  -8   11.16    1.82
   1  13  -8   15.00    0.74
  -1 -13   8   13.43    1.03
   0  13  -8   82.90    3.40
   0  13  -8   90.59    2.59
   0 -13   8   86.83    2.50
   0 -13   8   82.63    2.73
  -1  13  -8   30.43    1.27
  -1  13  -8   27.13    2.01
   1 -13   8   29.37    1.33
   1 -13   8   28.86    1.36
  -2  13  -8   14.48    1.01
  -2  13  -8   13.16    1.59
   2 -13   8   13.37    1.11
   2 -13   8   13.82    1.00
  -3  13  -8   70.87    2.41
  -3  13  -8   73.18    2.96
   3 -13   8   72.97    2.42
  -4  13  -8   39.75    1.74
  -4  13  -8   36.71    2.15
   4 -13   8   39.47    1.64
   3  12  -8    1.12    0.92
  -3 -12   8    1.55    0.49
   2  12  -8   62.74    2.87
   2  12  -8   64.38    1.73
  -2 -12   8   60.62    2.16
   1  12  -8   80.55    2.21
   1  12  -8   75.21    3.07
  -1 -12   8   77.65    2.25
  -1 -12   8   78.27    2.51
   0  12  -8   10.52    1.39
   0  12  -8   11.36    0.78
   0 -12   8   11.00    0.82
   0 -12   8   10.66    0.82
  -1  12  -8   54.91    1.85
  -1  12  -8   52.73    2.36
   1 -12   8   54.07    1.81
   1 -12   8   54.98    1.90
  -2  12  -8   60.92    1.99
  -2  12  -8   57.71    2.45
   2 -12   8   57.60    2.00
   2 -12   8   59.33    2.03
  -3  12  -8    3.82    0.60
  -3  12  -8    2.20    0.68
   3 -12   8    3.08    0.51
  -4  12  -8   59.99    2.49
  -4  12  -8   64.39    2.23
   4 -12   8   60.16    2.10
  -5  12  -8   71.81    2.78
  -5  12  -8   71.82    2.56
   5 -12   8   72.52    2.42
   4  11  -8   18.08    1.89
  -4 -11   8   18.54    1.17
   3  11  -8   69.44    2.97
  -3 -11   8   72.46    2.37
   2  11  -8   19.46    0.71
   2  11  -8   17.82    1.59
  -2 -11   8   16.44    0.86
  -2 -11   8   18.21    1.01
   1  11  -8   13.32    1.35
   1  11  -8   13.22    0.70
  -1 -11   8   12.31    0.64
  -1 -11   8   11.95    0.84
   0  11  -8   75.65    2.43
   0  11  -8   79.60    2.25
   0  11  -8   75.33    2.82
   0 -11   8   73.85    2.19
   0 -11   8   79.28    2.41
   0 -11   8   76.91    2.76
  -1  11  -8   26.80    1.57
  -1  11  -8   25.14    1.36
  -1  11  -8   24.75    1.21
   1 -11   8   24.62    1.42
   1 -11   8   26.62    1.14
   1 -11   8   26.00    1.11
  -2  11  -8   23.75    1.49
  -2  11  -8   23.77    1.20
  -2  11  -8   24.73    1.15
   2 -11   8   24.92    1.14
   2 -11   8   24.58    1.35
   2 -11   8   25.51    1.12
  -3  11  -8  129.70    4.19
  -3  11  -8  126.12    3.55
  -3  11  -8  117.44    3.52
   3 -11   8  119.79    3.53
   3 -11   8  124.07    3.50
  -4  11  -8   39.20    1.84
  -4  11  -8   41.38    1.84
  -4  11  -8   40.11    1.64
   4 -11   8   38.13    1.50
  -5  11  -8    4.91    0.72
  -5  11  -8    4.57    0.76
   5 -11   8    6.06    0.77
  -6  11  -8   70.79    2.68
   6 -11   8   72.49    2.42
   5  10  -8   39.35    2.32
  -5 -10   8   43.17    1.76
   4  10  -8   69.45    2.89
  -4 -10   8   71.67    2.35
   3  10  -8    0.45    0.63
  -3 -10   8    1.03    1.05
  -3 -10   8    1.24    0.39
   2  10  -8  136.32    3.38
   2  10  -8  131.97    4.16
   2  10  -8  129.14    3.74
  -2 -10   8  135.69    3.34
  -2 -10   8  129.45    4.07
  -2 -10   8  131.50    3.72
   1  10  -8  160.15    4.06
   1  10  -8  157.32    4.31
   1  10  -8  155.53    4.67
  -1 -10   8  153.43    4.63
  -1 -10   8  160.85    4.01
  -1 -10   8  154.91    4.28
   0  10  -8    1.70    0.43
   0  10  -8    1.17    0.33
   0  10  -8    1.41    0.50
   0 -10   8    1.17    0.35
   0 -10   8    1.64    0.31
   0 -10   8    2.27    0.49
  -1  10  -8  110.54    3.15
  -1  10  -8  108.00    3.06
  -1  10  -8  110.88    3.47
   1 -10   8  113.50    3.43
   1 -10   8  111.17    3.03
   1 -10   8  106.97    3.11
  -2  10  -8  159.87    4.27
  -2  10  -8  156.74    4.22
  -2  10  -8  156.32    4.56
   2 -10   8  155.97    4.48
   2 -10   8  151.11    4.21
   2 -10   8  158.21    4.20
  -3  10  -8    4.47    0.53
  -3  10  -8    4.00    0.53
  -3  10  -8    4.63    0.66
   3 -10   8    5.20    0.60
   3 -10   8    4.64    0.53
  -4  10  -8  106.83    3.23
  -4  10  -8  110.29    3.17
  -4  10  -8  107.87    3.43
   4 -10   8  108.89    3.15
   4 -10   8  115.64    3.71
  -5  10  -8   59.97    2.23
  -5  10  -8   57.13    1.96
  -5  10  -8   58.06    2.11
   5 -10   8   58.98    1.97
  -6  10  -8    1.00    0.54
  -6  10  -8    0.28    0.57
  -6  10  -8   -0.72    0.50
   6 -10   8    0.53    0.44
   6   9  -8   29.06    2.02
   5   9  -8    1.04    0.73
  -5  -9   8    0.98    0.45
   4   9  -8   18.05    1.50
  -4  -9   8   17.78    1.42
  -4  -9   8   18.89    1.02
   3   9  -8   44.90    1.97
   3   9  -8   41.37    1.58
  -3  -9   8   39.94    1.54
  -3  -9   8   43.51    1.88
   2   9  -8    4.08    0.42
   2   9  -8    3.23    0.61
   2   9  -8    4.69    0.66
  -2  -9   8    3.98    0.56
  -2  -9   8    4.24    0.32
  -2  -9   8    3.75    0.59
   1   9  -8   82.12    2.25
   1   9  -8   82.52    2.45
   1   9  -8   80.51    2.74
  -1  -9   8   82.10    2.19
  -1  -9   8   81.81    2.71
  -1  -9   8   79.69    2.42
   0   9  -8  210.50    5.35
   0   9  -8  206.99    5.47
   0   9  -8  209.83    5.78
   0  -9   8  212.63    5.47
   0  -9   8  208.19    5.73
   0  -9   8  207.07    5.30
  -1   9  -8   15.12    0.87
  -1   9  -8   15.15    1.09
  -1   9  -8   15.23    0.80
   1  -9   8   14.57    0.96
   1  -9   8   16.00    0.78
  -2   9  -8   39.79    1.85
  -2   9  -8   39.85    1.63
  -2   9  -8   42.50    1.48
   2  -9   8   42.04    1.66
   2  -9   8   43.83    1.46
  -3   9  -8  167.59    4.34
  -3   9  -8  164.12    4.61
  -3   9  -8  165.15    4.39
   3  -9   8  171.32    4.39
   3  -9   8  141.10    4.56
  -4   9  -8   35.77    1.60
  -4   9  -8   35.84    1.34
  -4   9  -8   36.03    1.46
   4  -9   8   35.83    1.44
   4  -9   8   36.94    1.35
  -5   9  -8   15.02    0.88
  -5   9  -8   16.38    1.11
  -5   9  -8   15.39    1.12
  -5   9  -8   13.69    1.04
   5  -9   8   15.16    0.88
  -6   9  -8   47.12    1.73
  -6   9  -8   48.24    1.94
  -6   9  -8   53.17    1.93
  -6   9  -8   51.47    2.01
   6  -9   8   52.16    1.80
   6   8  -8   16.34    1.56
  -6  -8   8   17.01    1.50
   5   8  -8  161.00    4.87
  -5  -8   8  166.65    4.53
  -5  -8   8  159.19    4.72
   4   8  -8  102.21    3.31
   4   8  -8   93.46    2.96
  -4  -8   8  103.72    2.99
  -4  -8   8  103.02    3.21
   3   8  -8    2.75    0.27
   3   8  -8    2.20    0.53
   3   8  -8    2.87    0.44
  -3  -8   8    2.42    0.51
  -3  -8   8    2.26    0.39
   2   8  -8  124.55    3.49
   2   8  -8  127.04    3.77
   2   8  -8  126.31    3.23
  -2  -8   8  127.21    3.49
  -2  -8   8  126.33    3.19
  -2  -8   8  127.58    3.75
   1   8  -8  108.41    3.00
   1   8  -8  103.58    3.30
   1   8  -8  107.13    2.83
  -1  -8   8  105.46    2.98
  -1  -8   8  111.42    2.80
  -1  -8   8  105.79    3.22
   0   8  -8    0.72    0.31
   0   8  -8    1.15    0.28
   0  -8   8    0.54    0.32
   0  -8   8    0.88    0.27
  -1   8  -8  149.49    4.00
  -1   8  -8  154.62    4.05
   1  -8   8  152.48    4.02
   1  -8   8  150.53    3.97
  -2   8  -8   57.86    2.89
  -2   8  -8   72.75    2.08
  -2   8  -8   70.61    2.08
   2  -8   8   70.44    2.06
   2  -8   8   70.88    2.04
  -3   8  -8    0.23    0.37
  -3   8  -8    1.09    0.37
  -3   8  -8    1.03    0.32
   3  -8   8    0.33    0.26
   3  -8   8    0.03    0.31
  -4   8  -8   68.31    2.17
  -4   8  -8   69.29    2.31
  -4   8  -8   67.96    2.05
   4  -8   8   68.28    2.05
   4  -8   8   66.31    2.16
  -5   8  -8   33.48    1.28
  -5   8  -8   33.66    1.42
  -5   8  -8   35.14    1.53
  -5   8  -8   37.34    1.52
   5  -8   8   30.61    1.78
  -6   8  -8    1.14    0.48
  -6   8  -8   -0.27    0.45
  -6   8  -8    0.17    0.36
  -6   8  -8    0.59    0.49
   6  -8   8   -0.04    0.39
  -7   8  -8   35.63    1.69
   7  -8   8   38.40    1.55
   7   7  -8   20.32    1.67
  -7  -7   8   19.82    1.46
   6   7  -8   33.28    1.82
  -6  -7   8   35.20    1.67
   5   7  -8   11.74    1.20
   5   7  -8   12.84    0.92
  -5  -7   8   11.23    1.06
   4   7  -8   21.65    1.31
   4   7  -8   21.75    1.08
  -4  -7   8   20.94    1.01
  -4  -7   8   21.83    1.21
   3   7  -8  153.87    4.11
   3   7  -8  151.95    3.77
   3   7  -8  145.54    4.83
  -3  -7   8  156.31    4.11
  -3  -7   8  150.49    4.28
   2   7  -8   10.09    0.92
   2   7  -8   10.65    0.71
   2   7  -8   11.13    0.51
  -2  -7   8    9.45    0.82
  -2  -7   8   10.37    0.44
  -2  -7   8    9.94    0.66
   1   7  -8   61.71    2.10
   1   7  -8   62.42    1.86
   1   7  -8   62.30    1.73
  -1  -7   8   58.55    1.68
  -1  -7   8   61.90    2.05
  -1  -7   8   60.41    1.84
   0   7  -8  135.62    3.57
   0   7  -8  132.76    3.51
   0   7  -8  132.84    3.82
   0  -7   8  134.04    3.79
   0  -7   8  135.61    3.57
   0  -7   8  133.77    3.49
  -1   7  -8   55.87    1.71
  -1   7  -8   56.41    1.70
  -1   7  -8   55.35    1.94
   1  -7   8   55.25    1.67
   1  -7   8   56.83    1.68
  -2   7  -8   36.53    1.49
  -2   7  -8   35.40    1.25
  -2   7  -8   36.34    1.29
   2  -7   8   38.91    1.23
   2  -7   8   36.57    1.26
  -3   7  -8  205.40    5.50
  -3   7  -8  203.80    5.29
  -3   7  -8  202.65    5.18
   3  -7   8  201.12    5.18
   3  -7   8  199.32    5.27
  -4   7  -8   59.27    2.03
  -4   7  -8   60.63    1.96
  -4   7  -8   59.02    1.79
   4  -7   8   61.09    1.94
   4  -7   8   60.76    1.82
  -5   7  -8   40.91    1.39
  -5   7  -8   42.45    1.64
  -5   7  -8   40.75    1.66
  -5   7  -8   41.59    1.57
   5  -7   8   41.03    1.67
   5  -7   8   41.58    1.42
  -6   7  -8   65.02    2.28
  -6   7  -8   67.82    2.32
  -6   7  -8   66.75    2.26
  -6   7  -8   69.96    2.06
   6  -7   8   67.19    2.09
  -7   7  -8   13.82    1.20
  -7   7  -8   14.37    1.20
   7  -7   8   15.38    1.08
   7   6  -8    5.99    0.86
  -7  -6   8    7.97    1.07
   6   6  -8    4.44    0.71
  -6  -6   8    5.02    0.64
   5   6  -8   76.28    2.46
   5   6  -8   80.11    2.67
  -5  -6   8   77.63    2.51
   4   6  -8   74.94    2.46
   4   6  -8   76.09    2.30
  -4  -6   8   73.20    2.38
  -4  -6   8   74.40    2.28
   3   6  -8    5.43    0.59
   3   6  -8    4.45    0.73
   3   6  -8    5.23    0.33
  -3  -6   8    4.60    0.66
  -3  -6   8    4.83    0.54
   2   6  -8  174.93    4.39
   2   6  -8  173.70    4.76
   2   6  -8  179.37    4.57
  -2  -6   8  174.79    4.36
  -2  -6   8  173.32    4.56
  -2  -6   8  171.90    4.74
   1   6  -8  167.61    4.49
   1   6  -8  175.50    4.42
   1   6  -8  173.60    4.73
  -1  -6   8  178.43    4.39
  -1  -6   8  175.10    4.50
   0   6  -8    0.56    0.26
   0   6  -8    0.57    0.29
   0   6  -8    0.91    0.23
   0  -6   8    0.52    0.19
   0  -6   8    0.52    0.23
  -1   6  -8  196.94    4.87
  -1   6  -8  187.63    5.13
  -1   6  -8  188.44    4.89
   1  -6   8  189.55    4.87
   1  -6   8  189.93    4.85
  -2   6  -8   90.42    2.46
  -2   6  -8   88.80    2.54
  -2   6  -8   90.07    2.75
   2  -6   8   89.39    2.44
   2  -6   8   92.70    2.54
  -3   6  -8    5.10    0.58
  -3   6  -8    4.64    0.70
  -3   6  -8    5.85    0.72
  -3   6  -8    6.04    0.49
   3  -6   8    5.74    0.47
   3  -6   8    5.95    0.58
  -4   6  -8  122.03    3.46
  -4   6  -8  122.10    3.19
  -4   6  -8  120.34    3.74
  -4   6  -8  120.38    3.37
   4  -6   8  118.37    3.19
   4  -6   8  119.95    3.36
  -5   6  -8   90.04    2.75
  -5   6  -8   89.02    2.61
  -5   6  -8   91.64    2.70
  -5   6  -8   89.84    2.81
   5  -6   8   86.01    2.66
   5  -6   8   89.36    2.49
  -6   6  -8    0.48    0.42
  -6   6  -8    1.02    0.47
  -6   6  -8    1.70    0.34
  -6   6  -8    1.32    0.51
   6  -6   8    1.16    0.38
  -7   6  -8   43.82    1.81
  -7   6  -8   45.71    1.95
  -7   6  -8   45.68    1.85
   7  -6   8   45.97    1.64
   8   5  -8    1.71    0.80
   8   5  -8    0.70    0.78
   7   5  -8   27.95    1.57
   6   5  -8   65.75    2.30
   6   5  -8   71.07    2.40
   5   5  -8   10.43    0.81
   5   5  -8   10.95    0.93
  -5  -5   8   11.66    0.85
   4   5  -8  109.11    3.18
   4   5  -8  110.64    2.75
   4   5  -8  109.59    3.10
   4   5  -8  107.34    2.74
  -4  -5   8  108.04    3.14
   3   5  -8   68.43    2.21
   3   5  -8   70.38    1.86
   3   5  -8   71.75    2.11
  -3  -5   8   70.44    2.09
   1   5  -8  156.98    4.31
   1   5  -8  154.57    4.03
   1   5  -8  159.12    4.08
  -1  -5   8  163.28    4.02
  -1  -5   8  157.29    4.09
   0   5  -8  366.01    9.38
   0   5  -8  364.54    9.10
   0   5  -8  368.20    9.13
   0  -5   8  378.65    9.11
   0  -5   8  369.90    9.19
  -1   5  -8    4.97    0.47
  -1   5  -8    4.87    0.44
  -1   5  -8    4.84    0.62
   1  -5   8    4.76    0.43
   1  -5   8    4.72    0.39
  -2   5  -8  128.83    3.24
  -2   5  -8  125.14    3.52
  -2   5  -8  124.94    3.37
  -2   5  -8  125.82    3.59
   2  -5   8  126.23    3.36
   2  -5   8  121.58    3.22
  -3   5  -8   73.04    2.02
  -3   5  -8   71.30    2.26
  -3   5  -8   77.95    2.35
  -3   5  -8   75.91    2.39
   3  -5   8   73.93    2.19
   3  -5   8   76.24    2.03
  -4   5  -8    5.84    0.43
  -4   5  -8    6.45    0.80
  -4   5  -8    5.90    0.63
  -4   5  -8    5.50    0.79
   4  -5   8    5.26    0.62
   4  -5   8    6.57    0.46
  -5   5  -8   35.52    1.41
  -5   5  -8   38.19    1.17
  -5   5  -8   36.17    1.55
  -5   5  -8   36.82    1.54
   5  -5   8   34.83    1.38
   5  -5   8   37.20    1.19
  -6   5  -8   90.58    2.72
  -6   5  -8   86.46    2.81
  -6   5  -8   86.73    2.81
   6  -5   8   87.54    2.45
  -7   5  -8   15.22    1.13
  -7   5  -8   16.81    1.36
  -7   5  -8   13.81    1.18
   7  -5   8   15.32    0.94
   8   4  -8   57.52    2.19
   8   4  -8   61.10    2.27
   7   4  -8   18.11    1.23
   6   4  -8    0.80    0.41
   6   4  -8    0.97    0.44
   5   4  -8  146.36    3.66
   5   4  -8  148.13    4.05
   5   4  -8  146.46    4.06
   4   4  -8  105.39    3.01
   4   4  -8  104.44    2.68
   4   4  -8  102.60    2.67
   4   4  -8  105.09    2.98
   3   4  -8   52.78    1.73
   3   4  -8   50.73    1.45
   3   4  -8   50.49    1.62
   3   4  -8   53.13    1.44
   2   4  -8  145.80    3.87
   2   4  -8  148.73    4.05
   2   4  -8  150.30    3.79
  -2  -4   8  150.11    3.88
   1   4  -8   83.49    2.52
   1   4  -8   85.17    2.30
   1   4  -8   85.39    2.30
  -1  -4   8   87.02    2.32
  -1  -4   8   84.88    2.28
   0   4  -8   31.76    1.01
   0   4  -8   32.73    1.07
   0   4  -8   34.40    1.28
   0  -4   8   30.81    1.05
   0  -4   8   31.48    1.01
  -1   4  -8  179.02    4.86
  -1   4  -8  183.22    4.92
  -1   4  -8  182.42    4.70
  -1   4  -8  183.18    4.57
   1  -4   8  184.24    4.57
   1  -4   8  185.55    4.69
  -2   4  -8  117.73    3.19
  -2   4  -8  125.97    3.34
  -2   4  -8  127.01    3.50
  -2   4  -8  123.06    3.53
   2  -4   8  128.17    3.33
   2  -4   8  122.43    3.14
  -3   4  -8   13.89    0.91
  -3   4  -8   13.80    0.91
  -3   4  -8   14.44    0.93
   3  -4   8   15.78    0.76
   3  -4   8   15.12    0.55
  -4   4  -8  146.06    4.11
  -4   4  -8  147.43    3.97
  -4   4  -8  148.26    3.71
   4  -4   8  144.95    3.96
   4  -4   8  147.26    3.70
  -5   4  -8   47.75    1.65
  -5   4  -8   47.08    1.81
  -5   4  -8   43.67    1.77
   5  -4   8   46.20    1.63
   5  -4   8   47.87    1.36
  -6   4  -8    0.74    0.40
  -6   4  -8    1.75    0.58
  -6   4  -8    0.85    0.43
   6  -4   8    1.29    0.30
  -7   4  -8   31.12    1.52
  -7   4  -8   34.19    1.63
  -7   4  -8   35.71    1.86
   8   3  -8    0.76    0.53
   8   3  -8    0.65    0.50
   7   3  -8   29.46    1.38
   7   3  -8   29.33    0.91
   7   3  -8   30.35    1.41
   7   3  -8   32.13    0.94
   6   3  -8   35.65    1.05
   6   3  -8   34.38    1.39
   6   3  -8   34.60    1.06
   6   3  -8   34.04    1.43
   5   3  -8    0.51    0.22
   5   3  -8    0.89    0.32
   5   3  -8   -0.27    0.29
   5   3  -8    0.36    0.17
   4   3  -8  130.15    3.56
   4   3  -8  129.52    3.55
   4   3  -8  130.06    3.33
   4   3  -8  128.87    3.32
   3   3  -8  102.25    2.83
   3   3  -8  102.03    2.71
   3   3  -8  104.52    2.70
   3   3  -8  104.42    2.93
   2   3  -8    8.52    0.51
   2   3  -8    8.71    0.47
   2   3  -8    8.73    0.65
   1   3  -8  138.13    3.49
   1   3  -8  132.51    3.71
   1   3  -8  138.96    3.75
   1   3  -8  134.90    3.53
  -1  -3   8  135.55    3.50
   0   3  -8  227.25    5.64
   0   3  -8  218.52    5.51
   0   3  -8  227.17    5.82
   0   3  -8  228.06    5.86
   0  -3   8  216.78    5.81
   0  -3   8  219.62    5.52
  -1   3  -8   76.98    2.34
  -1   3  -8   76.62    2.17
  -1   3  -8   76.12    1.98
   1  -3   8   77.69    1.99
  -2   3  -8   12.73    0.86
  -2   3  -8   13.27    0.68
   2  -3   8   13.50    0.45
   2  -3   8   13.18    0.68
  -3   3  -8  203.10    5.24
  -3   3  -8  198.59    5.38
   3  -3   8  200.60    5.21
  -4   3  -8   40.07    1.63
  -4   3  -8   40.48    1.43
   4  -3   8   40.81    1.42
  -5   3  -8    9.44    0.76
  -5   3  -8    9.82    1.05
   5  -3   8    7.26    0.72
  -6   3  -8   45.65    2.02
  -6   3  -8   45.47    1.68
   8   2  -8   30.75    1.34
   8   2  -8   35.55    1.15
   8   2  -8   32.72    1.57
   7   2  -8   19.72    0.95
   7   2  -8   20.39    0.87
   7   2  -8   20.53    1.16
   7   2  -8   19.81    1.05
   6   2  -8   37.08    1.16
   6   2  -8   37.19    1.27
   6   2  -8   33.86    1.42
   6   2  -8   36.19    1.46
   6   2  -8   35.87    1.32
   6   2  -8   35.91    1.16
   5   2  -8  168.15    4.30
   5   2  -8  164.75    4.54
   5   2  -8  166.87    5.09
   5   2  -8  173.69    4.32
   5   2  -8  168.31    4.45
   5   2  -8  169.56    4.44
   4   2  -8   40.67    1.24
   4   2  -8   41.19    1.41
   4   2  -8   37.98    1.36
   4   2  -8   39.98    1.39
   4   2  -8   39.61    1.23
   3   2  -8    0.67    0.29
   3   2  -8    0.71    0.25
   3   2  -8    0.72    0.21
   3   2  -8    0.71    0.21
   3   2  -8    0.98    0.27
   2   2  -8  240.01    6.09
   2   2  -8  216.60    6.40
   2   2  -8  240.48    5.90
   2   2  -8  241.46    5.91
   1   2  -8  213.04    5.61
   1   2  -8  218.81    5.45
   1   2  -8  213.98    5.35
   0   2  -8   68.96    1.96
   0   2  -8   68.17    2.13
   0   2  -8   69.16    1.79
  -1   2  -8  112.25    2.99
  -1   2  -8  109.33    3.16
   1  -2   8  109.95    2.98
  -2   2  -8   40.14    1.35
  -2   2  -8   40.90    1.57
   2  -2   8   42.50    1.37
  -3   2  -8   66.70    2.23
  -3   2  -8   66.13    2.00
   3  -2   8   66.42    2.00
  -4   2  -8  145.67    4.21
  -4   2  -8  147.47    3.97
   4  -2   8  147.03    3.98
  -5   2  -8   53.96    2.09
  -5   2  -8   53.02    1.77
   5  -2   8   49.52    1.74
  -6   2  -8    1.98    0.76
  -6   2  -8    1.60    0.45
   8   1  -8    0.82    0.36
   8   1  -8    1.29    0.52
   8   1  -8    1.18    0.32
   7   1  -8   30.90    1.78
   7   1  -8   32.27    1.10
   7   1  -8   32.29    1.21
   7   1  -8   32.04    1.44
   7   1  -8   31.22    1.12
   6   1  -8   90.58    2.65
   6   1  -8   89.27    2.41
   6   1  -8   88.79    2.64
   6   1  -8   81.70    2.67
   6   1  -8   73.40    2.71
   5   1  -8   -0.28    0.23
   5   1  -8   -0.07    0.24
   5   1  -8    0.44    0.26
   5   1  -8    0.09    0.35
   5   1  -8    0.04    0.31
   4   1  -8  101.20    2.84
   4   1  -8  102.87    2.72
   4   1  -8  100.19    2.81
   4   1  -8   97.25    2.81
   4   1  -8  102.12    2.72
   4   1  -8   98.78    2.82
   3   1  -8  165.92    4.29
   3   1  -8  168.96    4.25
   3   1  -8  166.14    4.37
   3   1  -8  165.40    4.29
   3   1  -8  158.30    4.42
   3   1  -8  162.55    4.26
   2   1  -8   35.30    1.11
   2   1  -8   32.23    1.31
   2   1  -8   33.64    1.13
   2   1  -8   35.68    1.11
   1   1  -8  217.13    5.55
   1   1  -8  226.47    5.69
   1   1  -8  224.74    5.57
   1   1  -8  229.90    5.87
   0   1  -8   91.90    2.56
   0   1  -8   93.98    2.35
   0   1  -8   92.72    2.33
   0   1  -8   95.15    2.77
  -1   1  -8    1.17    0.27
  -1   1  -8    0.80    0.36
  -2   1  -8  122.25    3.31
  -2   1  -8  122.61    3.54
   2  -1   8  120.62    3.30
  -3   1  -8  220.34    6.04
  -3   1  -8  223.95    5.77
   3  -1   8  227.38    5.79
  -4   1  -8    0.89    0.50
  -4   1  -8    1.18    0.33
   4  -1   8    0.83    0.31
  -5   1  -8   26.10    1.66
  -5   1  -8   26.60    1.17
   5  -1   8   26.79    1.24
  -6   1  -8   42.61    1.62
   8   0  -8   56.05    1.75
   8   0  -8   53.93    2.08
   7   0  -8   22.93    0.87
   7   0  -8   21.90    1.19
   7   0  -8   21.53    0.98
   7   0  -8   20.61    0.89
   7   0  -8   22.08    1.26
   6   0  -8   31.97    1.17
   6   0  -8   32.21    1.14
   6   0  -8   31.16    1.33
   6   0  -8   31.21    1.33
   6   0  -8   30.34    1.11
   5   0  -8  187.40    4.97
   5   0  -8  190.97    4.84
   5   0  -8  179.70    4.94
   5   0  -8  188.97    4.82
   5   0  -8  184.04    4.85
   4   0  -8   25.05    1.07
   4   0  -8   26.43    1.03
   4   0  -8   26.00    1.05
   4   0  -8   26.18    1.05
   4   0  -8   25.96    1.00
   3   0  -8   61.65    1.81
   3   0  -8   60.96    1.81
   3   0  -8   60.48    1.81
   3   0  -8   60.94    1.79
   2   0  -8  228.13    5.97
   2   0  -8  230.09    5.79
   2   0  -8  228.58    5.74
   2   0  -8  229.75    5.74
   2   0  -8  228.12    5.83
   1   0  -8   49.11    1.52
   1   0  -8   47.96    1.72
   1   0  -8   50.38    1.38
   1   0  -8   50.32    1.37
   0   0  -8   52.89    1.64
   0   0  -8   55.09    1.88
  -1   0  -8   84.99    2.40
  -1   0  -8   85.49    2.66
   1   0   8   83.38    2.62
  -2   0  -8   98.42    2.77
  -2   0  -8   99.71    3.05
   2   0   8   95.17    3.18
  -3   0  -8   15.01    1.13
  -3   0  -8   13.18    0.75
   3   0   8   12.72    1.01
  -4   0  -8   84.02    2.92
  -4   0  -8   83.31    2.48
   4   0   8   84.82    2.80
  -5   0  -8   18.14    0.99
  -5   0  -8   18.55    1.68
  -6   0  -8    0.57    0.43
   8  -1  -8   -0.19    0.38
   8  -1  -8   -0.07    0.50
   7  -1  -8   38.09    1.22
   7  -1  -8   36.76    1.54
   7  -1  -8   36.19    1.75
   7  -1  -8   36.99    1.38
   7  -1  -8   36.24    1.18
   6  -1  -8   39.28    1.34
   6  -1  -8   40.58    1.29
   6  -1  -8   40.23    1.41
   6  -1  -8   38.51    1.50
   6  -1  -8   37.17    1.49
   5  -1  -8    2.52    0.44
   5  -1  -8    2.82    0.40
   5  -1  -8    2.34    0.37
   5  -1  -8    2.37    0.43
   5  -1  -8    2.06    0.30
   4  -1  -8   58.15    2.18
   4  -1  -8   64.60    1.98
   4  -1  -8   64.84    1.95
   4  -1  -8   67.18    1.94
   3  -1  -8   63.89    1.96
   3  -1  -8   68.57    2.14
   3  -1  -8   70.18    1.96
   3  -1  -8   66.80    1.98
   2  -1  -8   -0.05    0.21
   2  -1  -8    0.00    0.22
   2  -1  -8    0.28    0.25
   2  -1  -8    0.13    0.31
   2  -1  -8   -0.07    0.20
   1  -1  -8  140.00    3.50
   1  -1  -8  135.00    3.91
   1  -1  -8  142.10    3.72
   1  -1  -8  140.14    3.69
   1  -1  -8  139.26    3.51
  -1   1   8  139.20    3.87
   0  -1  -8  163.52    4.31
   0  -1  -8  161.97    4.71
   0  -1  -8  165.20    4.59
   0   1   8  166.83    4.54
  -1  -1  -8    0.23    0.43
  -1  -1  -8   -0.11    0.39
   1   1   8   -0.23    0.40
  -2  -1  -8   52.37    1.70
  -2  -1  -8   55.54    2.06
   2   1   8   53.06    2.00
  -3  -1  -8   79.50    2.35
  -3  -1  -8   77.02    2.77
   3   1   8   81.14    2.71
  -4  -1  -8    4.11    0.49
  -4  -1  -8    3.81    0.74
   4   1   8    3.57    0.63
  -5  -1  -8   33.46    1.38
  -5  -1  -8   34.39    1.90
   5   1   8   33.85    1.73
   8  -2  -8   43.26    1.86
   8  -2  -8   45.10    1.64
   7  -2  -8    2.95    0.45
   7  -2  -8    1.94    0.33
   7  -2  -8    2.29    0.54
   7  -2  -8    1.79    0.27
   6  -2  -8   46.12    1.62
   6  -2  -8   46.77    1.46
   6  -2  -8   47.28    1.58
   6  -2  -8   46.18    1.69
   5  -2  -8  119.98    3.37
   5  -2  -8  120.80    3.35
   4  -2  -8   55.84    1.91
   4  -2  -8   56.93    1.80
   4  -2  -8   56.49    1.77
   3  -2  -8   32.08    1.41
   3  -2  -8   36.09    1.18
   3  -2  -8   32.52    1.24
   2  -2  -8  150.50    4.13
   2  -2  -8  157.11    4.36
   2  -2  -8  159.12    3.98
   2  -2  -8  156.25    4.12
  -2   2   8  154.60    4.25
   1  -2  -8   19.92    0.96
   1  -2  -8   22.04    0.85
   1  -2  -8   22.26    0.72
   1  -2  -8   22.26    0.95
   1  -2  -8   20.69    1.22
  -1   2   8   20.91    1.10
   0  -2  -8   47.26    1.53
   0  -2  -8   46.41    1.86
   0  -2  -8   46.35    1.55
   0   2   8   45.51    1.81
  -1  -2  -8  296.57    7.46
  -1  -2  -8  292.88    7.83
   1   2   8  292.52    7.78
  -2  -2  -8   57.80    1.83
  -2  -2  -8   57.09    2.27
   2   2   8   59.63    2.20
  -3  -2  -8   15.67    0.84
  -3  -2  -8   14.77    1.38
   3   2   8   14.86    1.18
  -4  -2  -8   68.31    2.18
   4   2   8   72.48    2.66
  -5  -2  -8   23.14    1.17
   5   2   8   23.94    1.59
   8  -3  -8    0.66    0.56
   7  -3  -8   38.72    1.20
   7  -3  -8   39.76    1.54
   7  -3  -8   37.98    1.60
   7  -3  -8   38.77    1.37
   6  -3  -8   68.58    2.21
   6  -3  -8   69.36    2.19
   6  -3  -8   71.34    2.04
   6  -3  -8   68.92    2.26
   5  -3  -8    1.03    0.37
   5  -3  -8    1.00    0.41
   5  -3  -8    0.95    0.37
   4  -3  -8  114.80    3.25
   4  -3  -8  116.49    3.19
   4  -3  -8  114.34    3.39
   3  -3  -8  138.84    4.02
   3  -3  -8  141.86    3.81
   3  -3  -8  143.38    3.69
  -3   3   8  133.99    3.84
   2  -3  -8    7.79    0.99
   2  -3  -8    6.47    0.66
   2  -3  -8    7.55    0.58
   2  -3  -8    6.47    0.66
  -2   3   8    7.63    0.75
   1  -3  -8   76.83    2.30
   1  -3  -8   81.39    2.70
   1  -3  -8   77.50    2.31
   1  -3  -8   79.67    2.06
  -1   3   8   74.59    2.50
   0  -3  -8  104.25    3.35
   0  -3  -8  105.33    2.96
   0  -3  -8  107.18    2.97
   0   3   8  103.34    3.23
  -1  -3  -8    6.51    0.60
  -1  -3  -8    6.97    0.69
  -1  -3  -8    5.56    0.79
   1   3   8    6.03    0.90
  -2  -3  -8   94.80    3.32
  -2  -3  -8   99.48    2.81
   2   3   8   98.33    3.24
  -3  -3  -8   28.50    1.21
   3   3   8   31.26    1.67
  -4  -3  -8   -0.06    0.36
   4   3   8    0.44    0.59
   8  -4  -8   38.02    1.77
   7  -4  -8    7.88    0.80
   7  -4  -8    7.51    0.92
   7  -4  -8    8.52    0.56
   6  -4  -8   53.24    1.92
   6  -4  -8   55.76    1.94
   5  -4  -8  129.27    3.60
   5  -4  -8  126.02    3.65
   5  -4  -8  131.25    3.79
   4  -4  -8   22.16    1.00
   4  -4  -8   22.67    1.12
   4  -4  -8   22.75    1.33
  -4   4   8   21.30    1.05
   3  -4  -8   38.94    1.45
   3  -4  -8   38.60    1.30
   3  -4  -8   40.34    1.76
  -3   4   8   34.02    1.69
   2  -4  -8  186.55    4.91
   2  -4  -8  179.86    5.23
   2  -4  -8  188.39    4.69
  -2   4   8  181.80    5.05
   1  -4  -8   13.00    0.56
   1  -4  -8   12.21    0.77
   1  -4  -8   12.59    0.84
   1  -4  -8   12.54    1.22
  -1   4   8   12.63    0.98
   0  -4  -8   20.64    0.97
   0  -4  -8   19.96    1.48
   0  -4  -8   20.06    1.01
   0   4   8   18.67    1.24
  -1  -4  -8   92.92    2.74
  -1  -4  -8   93.45    2.71
  -1  -4  -8   90.98    3.31
   1   4   8   92.67    3.12
  -2  -4  -8    7.02    0.68
  -2  -4  -8    7.37    0.86
   2   4   8    7.39    1.12
  -3  -4  -8   26.53    1.19
   3   4   8   26.84    1.70
   7  -5  -8   39.92    1.71
   7  -5  -8   41.03    1.35
   6  -5  -8   14.84    1.01
   6  -5  -8   14.93    1.17
   5  -5  -8   10.71    0.84
   5  -5  -8   10.29    1.15
   4  -5  -8   43.34    1.94
   4  -5  -8   42.69    1.67
  -4   5   8   44.48    1.68
   3  -5  -8   48.28    1.79
   3  -5  -8   52.58    2.16
   3  -5  -8   51.21    1.62
  -3   5   8   48.56    1.83
   2  -5  -8   10.24    0.62
   2  -5  -8   10.12    1.27
   2  -5  -8   10.89    0.91
  -2   5   8    9.69    0.93
   1  -5  -8  118.09    3.91
   1  -5  -8  112.95    3.38
   1  -5  -8  125.30    3.09
   1  -5  -8  116.42    3.37
  -1   5   8  121.34    3.68
   0  -5  -8   52.02    1.76
   0  -5  -8   51.62    1.82
   0   5   8   50.53    2.12
  -1  -5  -8    0.95    0.35
   1   5   8    1.27    0.55
  -2  -5  -8   57.13    1.92
   2   5   8   57.61    2.50
  -3  -5  -8   42.84    1.62
   3   5   8   43.35    2.29
   7  -6  -8   11.10    1.11
   6  -6  -8   27.84    1.33
   6  -6  -8   21.93    1.54
   5  -6  -8   71.65    2.31
   5  -6  -8   71.44    2.65
  -5   6   8   72.67    2.31
   4  -6  -8    5.79    0.85
   4  -6  -8    7.17    0.72
  -4   6   8    7.58    0.82
   3  -6  -8   36.88    1.33
   3  -6  -8   36.65    2.00
  -3   6   8   36.62    1.48
  -3   6   8   38.04    1.60
   2  -6  -8   88.77    3.34
   2  -6  -8   96.40    2.58
  -2   6   8   93.16    3.04
  -2   6   8   93.09    2.70
   1  -6  -8    5.80    0.46
   1  -6  -8    4.08    0.51
  -1   6   8    5.64    0.70
  -1   6   8    5.92    0.94
   0  -6  -8   41.06    1.17
   0  -6  -8   38.58    1.51
   0   6   8   40.32    1.95
  -1  -6  -8   76.17    2.36
   1   6   8   72.56    2.89
  -2  -6  -8    7.05    0.86
   2   6   8    5.87    1.18
   6  -7  -8   18.09    1.21
   5  -7  -8    7.68    1.04
   5  -7  -8   10.03    0.91
  -5   7   8   10.74    0.96
   4  -7  -8   67.25    2.86
   4  -7  -8   73.90    2.25
  -4   7   8   74.20    2.46
  -4   7   8   70.54    2.42
   3  -7  -8   51.32    1.66
  -3   7   8   48.83    1.99
  -3   7   8   48.46    1.85
   2  -7  -8    1.84    0.35
  -2   7   8    1.58    0.56
   1  -7  -8  100.26    2.64
   1  -7  -8   95.60    2.95
  -1   7   8   96.54    3.36
   0  -7  -8   78.48    2.49
   0   7   8   76.16    3.00
   4  -8  -8    5.99    0.78
  -4   8   8    7.47    1.03
  -4   8   8    7.53    1.13
   3  -8  -8   39.16    1.43
  -3   8   8   38.79    1.85
  -3   8   8   38.84    1.70
   2  -8  -8   53.84    1.95
   2  -8  -8   51.60    2.00
  -2   8   8   55.24    2.34
   1  13  -9   77.28    2.46
   1  13  -9   67.37    3.40
  -1 -13   9   72.78    2.49
   0  13  -9   31.16    2.18
   0  13  -9   35.82    1.40
   0 -13   9   34.07    1.52
   0 -13   9   36.55    1.33
  -1  13  -9    8.87    1.53
  -1  13  -9   11.61    0.91
   1 -13   9   11.02    0.92
   1 -13   9    7.96    0.98
  -2  13  -9   87.43    2.70
  -2  13  -9   85.73    3.31
   2 -13   9   86.49    2.76
  -3  13  -9   56.20    2.64
  -3  13  -9   61.76    2.18
   3 -13   9   60.75    2.13
   3  12  -9   56.37    2.87
  -3 -12   9   61.49    2.62
   2  12  -9   52.96    2.62
  -2 -12   9   53.89    1.98
   1  12  -9    4.55    0.90
   1  12  -9    6.20    0.62
  -1 -12   9    6.71    0.64
  -1 -12   9    5.13    0.76
   0  12  -9   24.13    1.68
   0  12  -9   20.51    1.55
   0 -12   9   26.22    1.20
   0 -12   9   25.29    1.10
  -1  12  -9   54.20    1.82
  -1  12  -9   53.56    2.36
   1 -12   9   53.48    1.83
   1 -12   9   51.92    1.88
  -2  12  -9    0.39    0.43
   2 -12   9    0.38    0.36
   2 -12   9    0.21    0.53
  -3  12  -9   53.63    2.33
  -3  12  -9   53.67    1.97
   3 -12   9   53.83    1.90
  -4  12  -9   62.64    2.31
  -4  12  -9   66.12    2.62
   4 -12   9   65.01    2.19
   4  11  -9   70.91    3.10
  -4 -11   9   70.84    2.46
   3  11  -9   19.85    1.72
  -3 -11   9   18.51    1.11
   2  11  -9    7.23    1.27
   2  11  -9    6.88    0.50
  -2 -11   9    7.38    0.47
  -2 -11   9    7.08    0.74
   1  11  -9   96.92    3.45
   1  11  -9  102.72    2.79
  -1 -11   9  104.16    2.75
  -1 -11   9  103.70    3.04
   0  11  -9   69.69    2.09
   0  11  -9   68.83    2.64
   0  11  -9   71.05    2.46
   0 -11   9   66.71    2.03
   0 -11   9   68.75    2.21
  -1  11  -9   41.03    1.92
  -1  11  -9   37.97    1.55
  -1  11  -9   40.86    1.48
   1 -11   9   41.23    1.52
   1 -11   9   39.84    1.45
  -2  11  -9  119.09    3.53
  -2  11  -9  124.72    3.50
  -2  11  -9  124.04    3.89
   2 -11   9  123.10    3.49
   2 -11   9  126.04    3.52
  -3  11  -9   37.84    1.85
  -3  11  -9   35.78    1.50
  -3  11  -9   40.90    1.59
   3 -11   9   40.17    1.49
  -4  11  -9   10.99    1.23
  -4  11  -9   10.73    1.03
   4 -11   9   12.79    0.89
  -5  11  -9   87.43    2.89
  -5  11  -9   85.12    3.04
   5 -11   9   88.70    2.73
   5  10  -9   45.86    2.50
  -5 -10   9   51.17    2.02
   4  10  -9    2.05    0.76
  -4 -10   9    3.07    0.52
   3  10  -9   82.56    3.06
  -3 -10   9   85.06    2.63
   2  10  -9   51.70    2.26
   2  10  -9   54.72    1.55
   2  10  -9   52.54    2.05
  -2 -10   9   54.49    1.85
  -2 -10   9   53.00    2.29
  -2 -10   9   53.72    1.49
   1  10  -9    2.41    0.47
   1  10  -9    3.36    0.39
   1  10  -9    2.62    0.59
  -1 -10   9    2.33    0.55
  -1 -10   9    2.95    0.43
   0  10  -9  176.27    4.66
   0  10  -9  170.44    4.49
   0  10  -9  172.64    5.01
   0 -10   9  166.10    4.92
   0 -10   9  171.56    4.45
   0 -10   9  172.99    4.63
  -1  10  -9  105.53    3.04
  -1  10  -9  102.75    3.35
  -1  10  -9  105.37    3.03
   1 -10   9  107.24    2.93
   1 -10   9  106.58    3.02
   1 -10   9  101.65    3.28
  -2  10  -9    1.05    0.40
  -2  10  -9    1.20    0.40
  -2  10  -9    1.23    0.48
   2 -10   9    0.81    0.36
   2 -10   9    1.31    0.36
  -3  10  -9   62.00    2.34
  -3  10  -9   65.50    2.06
  -3  10  -9   65.02    2.12
   3 -10   9   62.85    2.11
   3 -10   9   63.04    2.02
  -4  10  -9   73.14    2.40
  -4  10  -9   71.00    2.56
  -4  10  -9   73.15    2.27
   4 -10   9   71.56    2.25
  -5  10  -9   -0.33    0.41
  -5  10  -9    0.28    0.52
  -5  10  -9    0.39    0.53
  -5  10  -9    0.33    0.53
   5 -10   9    0.65    0.40
   5   9  -9    7.51    1.03
  -5  -9   9   10.27    0.91
   4   9  -9   66.06    2.59
  -4  -9   9   66.72    2.18
  -4  -9   9   60.04    2.46
   3   9  -9    9.31    0.82
   3   9  -9    9.61    0.43
   3   9  -9    8.66    1.11
  -3  -9   9    8.45    1.08
  -3  -9   9    9.66    0.76
   2   9  -9   49.28    1.75
   2   9  -9   51.55    1.49
   2   9  -9   51.27    2.09
  -2  -9   9   52.73    1.44
  -2  -9   9   50.19    2.01
  -2  -9   9   50.06    1.73
   1   9  -9  125.20    3.45
   1   9  -9  124.78    3.25
   1   9  -9  122.47    3.75
  -1  -9   9  118.87    3.70
  -1  -9   9  125.28    3.43
  -1  -9   9  119.55    3.22
   0   9  -9   13.00    1.09
   0   9  -9   14.21    0.74
   0   9  -9   14.29    0.85
   0  -9   9   14.08    1.02
   0  -9   9   13.54    0.69
   0  -9   9   13.30    0.77
  -1   9  -9   31.51    1.20
  -1   9  -9   31.03    1.50
  -1   9  -9   31.29    1.25
   1  -9   9   32.33    1.16
   1  -9   9   30.64    1.20
  -2   9  -9  165.26    4.69
  -2   9  -9  169.82    4.39
  -2   9  -9  165.89    4.39
   2  -9   9  144.40    4.58
   2  -9   9  171.18    4.37
  -3   9  -9   57.13    2.13
  -3   9  -9   57.52    1.85
  -3   9  -9   59.69    1.94
   3  -9   9   57.30    1.91
   3  -9   9   55.74    1.87
  -4   9  -9   23.42    1.34
  -4   9  -9   25.23    1.22
  -4   9  -9   23.22    1.06
   4  -9   9   24.59    1.07
  -5   9  -9   64.40    2.36
  -5   9  -9   65.94    2.37
  -5   9  -9   66.13    2.26
  -5   9  -9   63.17    2.04
   5  -9   9   65.44    2.07
  -6   9  -9   14.48    1.26
  -6   9  -9   14.61    0.96
  -6   9  -9   16.76    1.31
  -6   9  -9   17.59    1.33
   6  -9   9   16.81    1.02
   6   8  -9   60.77    2.64
  -6  -8   9   65.43    2.49
   5   8  -9   32.41    1.78
  -5  -8   9   29.21    1.70
  -5  -8   9   31.76    1.40
   4   8  -9    7.19    1.06
   4   8  -9    6.53    0.77
  -4  -8   9    7.02    1.02
  -4  -8   9    7.13    0.71
   3   8  -9   51.19    1.41
   3   8  -9   52.37    1.78
   3   8  -9   50.23    2.03
  -3  -8   9   52.05    1.99
  -3  -8   9   49.90    1.73
   2   8  -9  142.92    3.53
   2   8  -9  141.39    4.06
   2   8  -9  133.48    3.76
  -2  -8   9  135.72    4.01
  -2  -8   9  132.70    3.75
  -2  -8   9  136.47    3.49
   1   8  -9    3.01    0.55
   1   8  -9    3.25    0.45
   1   8  -9    2.98    0.34
  -1  -8   9    3.18    0.40
  -1  -8   9    3.14    0.52
   0   8  -9  104.43    3.28
   0   8  -9  107.64    2.93
   0   8  -9  108.64    3.01
   0  -8   9  107.58    3.00
   0  -8   9  110.88    2.91
  -1   8  -9   70.44    2.10
  -1   8  -9   71.66    2.41
  -1   8  -9   72.94    2.13
   1  -8   9   72.61    2.11
   1  -8   9   68.00    2.06
  -2   8  -9   14.96    0.95
  -2   8  -9   15.98    0.83
  -2   8  -9   15.20    1.04
   2  -8   9   17.18    0.84
   2  -8   9   15.56    0.77
  -3   8  -9   79.10    2.57
  -3   8  -9   78.23    2.36
  -3   8  -9   74.25    2.23
   3  -8   9   78.28    2.24
   3  -8   9   74.63    2.33
  -4   8  -9   62.42    1.91
  -4   8  -9   63.18    2.23
  -4   8  -9   64.82    2.19
  -4   8  -9   61.93    2.07
   4  -8   9   57.74    2.04
   4  -8   9   62.56    1.92
  -5   8  -9    1.05    0.54
  -5   8  -9   -0.04    0.42
  -5   8  -9    0.27    0.34
  -5   8  -9    0.85    0.41
   5  -8   9    1.18    0.39
  -6   8  -9   39.48    1.44
  -6   8  -9   37.26    1.68
  -6   8  -9   40.88    1.79
  -6   8  -9   39.04    1.78
   6  -8   9   41.22    1.54
   7   7  -9   42.09    2.19
  -7  -7   9   49.04    2.04
   6   7  -9    5.15    0.79
  -6  -7   9    4.50    0.73
   5   7  -9   58.81    2.27
  -5  -7   9   56.59    2.14
   4   7  -9   87.76    2.87
   4   7  -9   87.69    2.65
  -4  -7   9   87.21    2.63
  -4  -7   9   85.14    2.78
   3   7  -9   26.89    0.85
   3   7  -9   26.90    1.36
   3   7  -9   26.53    1.15
  -3  -7   9   28.42    1.32
  -3  -7   9   27.20    1.12
   2   7  -9   34.24    1.49
   2   7  -9   32.85    1.24
   2   7  -9   33.71    1.30
  -2  -7   9   31.42    1.26
  -2  -7   9   32.16    1.42
  -2  -7   9   33.99    1.02
   1   7  -9  339.59    9.43
   1   7  -9  353.50    8.80
   1   7  -9  368.88    8.92
  -1  -7   9  351.97    8.77
  -1  -7   9  364.25    8.92
   0   7  -9   11.06    1.05
   0   7  -9   13.25    0.66
   0   7  -9   12.51    0.71
   0  -7   9   11.01    0.64
   0  -7   9   12.32    0.63
  -1   7  -9   45.20    1.79
  -1   7  -9   45.30    1.53
  -1   7  -9   51.23    1.55
   1  -7   9   50.48    1.55
   1  -7   9   50.07    1.52
  -2   7  -9  182.81    4.77
  -2   7  -9  186.28    4.86
  -2   7  -9  184.59    5.12
   2  -7   9  184.41    4.83
   2  -7   9  186.72    4.76
  -3   7  -9   34.88    1.33
  -3   7  -9   34.09    1.45
  -3   7  -9   34.55    1.18
  -3   7  -9   33.01    1.49
   3  -7   9   34.32    1.31
   3  -7   9   33.97    1.16
  -4   7  -9   61.79    1.82
  -4   7  -9   61.29    2.14
  -4   7  -9   62.73    2.02
  -4   7  -9   60.35    2.18
   4  -7   9   60.91    1.82
   4  -7   9   59.50    1.99
  -5   7  -9   82.95    2.60
  -5   7  -9   81.99    2.34
  -5   7  -9   82.09    2.73
  -5   7  -9   81.10    2.67
   5  -7   9   84.17    2.37
  -6   7  -9   23.82    1.14
  -6   7  -9   25.81    1.47
  -6   7  -9   21.03    1.26
  -6   7  -9   24.09    1.40
   6  -7   9   24.62    1.09
   7   6  -9    0.00    0.64
   6   6  -9   41.64    1.97
   5   6  -9   67.98    2.28
   5   6  -9   70.79    2.42
   4   6  -9   16.57    0.94
   4   6  -9   16.39    0.57
  -4  -6   9   15.63    0.88
   3   6  -9  140.86    3.77
   3   6  -9  143.56    3.51
   3   6  -9  143.19    3.97
  -3  -6   9  122.72    4.19
   2   6  -9   96.09    2.57
   2   6  -9   96.20    2.71
   2   6  -9   98.37    2.94
  -2  -6   9   96.45    2.72
   1   6  -9    4.66    0.68
   1   6  -9    4.52    0.50
   1   6  -9    4.32    0.43
  -1  -6   9    4.13    0.41
  -1  -6   9    4.05    0.47
   0   6  -9  140.75    4.09
   0   6  -9  155.79    3.99
   0   6  -9  156.70    4.29
   0  -6   9  154.07    3.97
   0  -6   9  155.83    3.96
  -1   6  -9   77.02    2.16
  -1   6  -9   73.47    2.60
  -1   6  -9   78.38    2.23
   1  -6   9   79.40    2.22
   1  -6   9   77.82    2.15
  -2   6  -9    1.63    0.41
  -2   6  -9    2.35    0.31
  -2   6  -9    1.62    0.37
   2  -6   9    2.41    0.31
   2  -6   9    2.22    0.35
  -3   6  -9  208.96    5.65
  -3   6  -9  207.69    5.41
  -3   6  -9  205.57    5.56
  -3   6  -9  210.59    5.22
   3  -6   9  205.78    5.40
   3  -6   9  201.35    5.21
  -4   6  -9   41.89    1.52
  -4   6  -9   39.44    1.67
  -4   6  -9   41.47    1.65
  -4   6  -9   42.35    1.28
   4  -6   9   38.12    1.47
   4  -6   9   40.56    1.28
  -5   6  -9    2.16    0.57
  -5   6  -9    0.90    0.44
  -5   6  -9    1.05    0.45
  -5   6  -9    1.58    0.30
   5  -6   9    2.02    0.34
  -6   6  -9   34.96    1.68
  -6   6  -9   35.16    1.58
  -6   6  -9   38.69    1.77
   6  -6   9   37.30    1.29
   6   5  -9    2.97    0.59
   5   5  -9   37.51    1.06
   5   5  -9   38.25    1.57
   5   5  -9   38.88    1.19
   5   5  -9   37.73    1.50
   4   5  -9  106.12    2.75
   4   5  -9  104.52    2.74
   4   5  -9  109.49    3.08
   4   5  -9  107.04    3.16
   3   5  -9    0.12    0.30
   3   5  -9    0.23    0.32
   3   5  -9    0.41    0.19
  -3  -5   9    0.39    0.27
   2   5  -9   97.88    2.69
   2   5  -9   95.03    2.88
   2   5  -9   98.03    2.59
  -2  -5   9   96.87    2.69
   1   5  -9  165.32    4.27
   1   5  -9  168.13    4.29
   1   5  -9  167.86    4.56
  -1  -5   9  159.68    4.42
  -1  -5   9  168.99    4.30
   0   5  -9   19.13    1.03
   0   5  -9   18.45    0.75
   0   5  -9   18.75    0.79
   0  -5   9   19.16    0.75
   0  -5   9   17.22    0.76
  -1   5  -9   36.12    1.17
  -1   5  -9   37.67    1.50
  -1   5  -9   35.97    1.27
  -1   5  -9   39.29    1.49
   1  -5   9   38.60    1.17
   1  -5   9   38.48    1.27
  -2   5  -9  103.95    3.06
  -2   5  -9  105.85    3.14
  -2   5  -9  106.04    2.77
   2  -5   9  108.42    2.77
   2  -5   9  107.05    2.95
  -3   5  -9   12.54    0.78
  -3   5  -9   12.68    0.95
  -3   5  -9   12.90    0.56
  -3   5  -9   12.39    0.94
   3  -5   9   13.08    0.56
   3  -5   9   13.74    0.77
  -4   5  -9   41.70    1.55
  -4   5  -9   45.15    1.76
  -4   5  -9   44.45    1.27
  -4   5  -9   42.12    1.74
   4  -5   9   44.20    1.56
   4  -5   9   44.49    1.28
  -5   5  -9   94.36    3.03
  -5   5  -9   94.17    3.02
  -5   5  -9   96.97    2.87
   5  -5   9   95.96    2.53
  -6   5  -9   21.72    1.35
  -6   5  -9   20.55    1.21
  -6   5  -9   23.39    1.53
   6  -5   9   22.65    0.87
   8   4  -9   17.52    1.68
   8   4  -9   18.38    1.79
   7   4  -9   12.18    1.12
   7   4  -9   13.38    1.07
   6   4  -9   92.35    2.80
   6   4  -9   92.67    2.35
   6   4  -9   89.63    2.33
   6   4  -9   85.82    2.78
   5   4  -9   40.01    1.19
   5   4  -9   40.47    1.52
   5   4  -9   39.15    1.18
   5   4  -9   39.86    1.53
   4   4  -9    2.85    0.35
   4   4  -9    3.05    0.38
   4   4  -9    2.70    0.43
   4   4  -9    2.55    0.41
   3   4  -9  107.23    3.13
   3   4  -9  111.79    2.86
   3   4  -9  106.17    3.00
   2   4  -9   62.90    2.06
   2   4  -9   63.97    1.80
   1   4  -9   22.40    0.87
   1   4  -9   22.31    1.06
   1   4  -9   23.77    0.84
   1   4  -9   22.66    1.09
  -1  -4   9   23.97    0.87
   0   4  -9  179.13    4.59
   0   4  -9  174.62    4.78
   0   4  -9  179.04    4.47
   0   4  -9  176.73    4.83
   0  -4   9  178.00    4.57
   0  -4   9  176.34    4.48
  -1   4  -9   57.49    1.94
  -1   4  -9   56.66    1.56
  -1   4  -9   57.53    1.74
  -1   4  -9   56.39    1.96
   1  -4   9   56.50    1.72
   1  -4   9   56.38    1.56
  -2   4  -9   21.32    0.71
  -2   4  -9   21.67    0.95
  -2   4  -9   21.29    1.13
   2  -4   9   21.90    0.92
   2  -4   9   20.45    0.69
  -3   4  -9   94.05    3.01
  -3   4  -9   94.85    2.74
  -3   4  -9   97.96    2.93
   3  -4   9   95.49    2.73
  -4   4  -9   64.37    2.28
  -4   4  -9   66.24    2.07
  -4   4  -9   65.82    2.27
   4  -4   9   62.66    2.05
  -5   4  -9   -0.50    0.34
  -5   4  -9   -0.07    0.40
  -5   4  -9    0.80    0.57
  -6   4  -9   62.03    2.42
  -6   4  -9   60.19    2.13
  -6   4  -9   63.70    2.35
   8   3  -9   12.24    1.16
   8   3  -9   10.14    1.45
   7   3  -9   28.93    0.92
   7   3  -9   27.39    0.92
   7   3  -9   29.64    1.16
   7   3  -9   26.30    1.32
   7   3  -9   27.51    1.37
   6   3  -9    0.57    0.35
   6   3  -9   -0.05    0.37
   6   3  -9    0.49    0.25
   6   3  -9    0.47    0.21
   6   3  -9    0.58    0.39
   5   3  -9   86.31    2.34
   5   3  -9   88.75    2.34
   5   3  -9   84.39    2.57
   5   3  -9   86.05    2.61
   4   3  -9  130.22    3.41
   4   3  -9  130.19    3.64
   4   3  -9  129.76    3.60
   4   3  -9  133.29    3.40
   3   3  -9    6.50    0.57
   3   3  -9    6.13    0.67
   3   3  -9    6.09    0.47
   3   3  -9    6.37    0.46
   3   3  -9    5.76    0.62
   2   3  -9  171.64    4.48
   2   3  -9  177.79    4.49
   2   3  -9  176.83    4.72
   2   3  -9  172.14    4.69
   1   3  -9  255.12    6.48
   1   3  -9  264.75    6.74
   1   3  -9  254.41    6.69
   1   3  -9  255.31    6.39
   0   3  -9   74.95    2.06
   0   3  -9   77.64    2.44
   0   3  -9   80.69    2.24
   0   3  -9   79.14    2.47
   0  -3   9   81.84    2.23
  -1   3  -9  123.33    3.13
  -1   3  -9  126.01    3.59
  -1   3  -9  128.69    3.39
   1  -3   9  124.04    3.37
  -2   3  -9  371.74    9.52
  -2   3  -9  366.48    9.31
   2  -3   9  377.37    9.31
  -3   3  -9   30.15    1.18
  -3   3  -9   29.89    1.39
   3  -3   9   29.34    1.16
  -4   3  -9   20.94    1.30
  -4   3  -9   19.39    0.97
   4  -3   9   19.88    0.98
  -5   3  -9   53.20    2.19
  -5   3  -9   53.10    1.84
  -6   3  -9    6.28    0.90
   8   2  -9    7.30    0.54
   8   2  -9    6.59    1.00
   7   2  -9    4.54    0.53
   7   2  -9    5.76    0.67
   7   2  -9    3.91    0.61
   7   2  -9    4.06    0.48
   6   2  -9  107.44    3.17
   6   2  -9  106.83    3.00
   6   2  -9  106.36    3.02
   6   2  -9  107.74    2.87
   6   2  -9  103.32    3.16
   5   2  -9   26.69    1.18
   5   2  -9   26.61    1.11
   5   2  -9   26.86    1.13
   5   2  -9   27.04    0.98
   5   2  -9   26.36    1.17
   4   2  -9   23.05    1.02
   4   2  -9   23.47    0.88
   4   2  -9   21.25    1.01
   4   2  -9   23.39    1.02
   4   2  -9   21.73    1.00
   4   2  -9   20.96    0.99
   3   2  -9  167.81    4.50
   3   2  -9  180.54    4.73
   3   2  -9  181.39    4.55
   3   2  -9  173.91    4.59
   3   2  -9  177.72    4.72
   2   2  -9   70.06    2.22
   2   2  -9   72.28    2.05
   2   2  -9   71.07    2.24
   2   2  -9   72.91    2.02
   1   2  -9   13.11    0.87
   1   2  -9   13.21    0.55
   1   2  -9   13.36    0.67
   0   2  -9   44.79    1.22
   0   2  -9   44.13    1.65
   0   2  -9   46.20    1.45
  -1   2  -9   38.14    1.55
  -1   2  -9   38.41    1.35
   1  -2   9   38.69    1.31
  -2   2  -9   34.38    1.26
  -2   2  -9   36.49    1.53
   2  -2   9   35.40    1.28
  -3   2  -9  131.27    3.66
  -3   2  -9  134.68    3.93
   3  -2   9  135.58    3.68
  -4   2  -9   31.20    1.62
  -4   2  -9   33.33    1.30
   4  -2   9   31.40    1.29
  -5   2  -9    2.80    0.69
  -5   2  -9    2.89    0.46
  -6   2  -9   53.86    1.96
   8   1  -9   31.16    1.54
   8   1  -9   31.81    1.56
   7   1  -9   69.10    2.35
   7   1  -9   68.08    2.02
   7   1  -9   67.45    2.08
   7   1  -9   68.07    2.03
   6   1  -9    0.91    0.32
   6   1  -9    1.01    0.46
   6   1  -9    1.16    0.34
   6   1  -9    0.99    0.40
   6   1  -9    0.45    0.41
   5   1  -9   86.38    2.54
   5   1  -9   83.80    2.60
   5   1  -9   86.69    2.60
   5   1  -9   84.76    2.45
   5   1  -9   90.39    2.46
   5   1  -9   89.42    2.54
   4   1  -9  101.76    2.79
   4   1  -9  102.41    2.90
   4   1  -9  104.88    2.93
   4   1  -9   99.86    2.92
   4   1  -9  103.74    2.91
   4   1  -9  101.08    2.81
   3   1  -9   35.04    1.19
   3   1  -9   33.09    1.32
   3   1  -9   34.62    1.18
   3   1  -9   34.82    1.21
   3   1  -9   32.62    1.59
   3   1  -9   35.17    1.33
   2   1  -9  171.51    4.39
   2   1  -9  171.59    4.66
   2   1  -9  173.80    4.45
   2   1  -9  171.23    4.40
   2   1  -9  171.38    4.48
   1   1  -9  130.37    3.29
   1   1  -9  128.53    3.46
   1   1  -9  128.56    3.66
   1   1  -9  128.13    3.27
   0   1  -9    1.39    0.31
   0   1  -9    1.54    0.43
  -1   1  -9   97.37    2.99
  -1   1  -9   97.09    2.74
  -2   1  -9   97.70    3.05
  -2   1  -9   97.06    2.77
  -3   1  -9    7.94    1.04
  -3   1  -9    5.14    0.60
   3  -1   9    5.78    0.63
  -4   1  -9   35.60    1.85
  -4   1  -9   36.83    1.40
   4  -1   9   37.73    1.72
  -5   1  -9   61.68    2.06
   8   0  -9    8.85    0.81
   8   0  -9   11.69    1.09
   7   0  -9   19.01    0.84
   7   0  -9   17.81    1.12
   7   0  -9   17.32    0.93
   7   0  -9   16.09    0.84
   6   0  -9   91.84    2.76
   6   0  -9   80.33    2.91
   6   0  -9   92.96    2.76
   6   0  -9   91.92    2.57
   6   0  -9   90.86    2.59
   5   0  -9    9.28    0.72
   5   0  -9    7.38    0.63
   5   0  -9    8.38    0.75
   5   0  -9    7.49    0.68
   5   0  -9    7.37    0.66
   4   0  -9   16.11    0.85
   4   0  -9   16.17    0.81
   4   0  -9   15.63    0.84
   4   0  -9   16.45    0.83
   4   0  -9   16.49    0.83
   4   0  -9   17.11    0.94
   3   0  -9  139.18    3.60
   3   0  -9  133.42    3.64
   3   0  -9  134.29    3.78
   3   0  -9  134.63    3.61
   3   0  -9  135.06    3.61
   2   0  -9   47.22    1.37
   2   0  -9   45.38    1.48
   2   0  -9   44.25    1.67
   2   0  -9   43.66    1.48
   2   0  -9   44.67    1.36
   1   0  -9   46.20    1.87
   1   0  -9   46.04    1.51
   1   0  -9   47.09    1.31
   1   0  -9   46.93    1.75
   0   0  -9  146.46    4.11
   0   0  -9  154.86    4.29
  -1   0  -9  101.77    3.16
  -1   0  -9  101.76    2.86
  -2   0  -9   22.63    1.33
  -2   0  -9   22.16    0.99
   2   0   9   22.42    1.24
  -3   0  -9   73.07    2.61
  -3   0  -9   71.14    2.21
   3   0   9   72.31    2.53
  -4   0  -9   30.15    1.26
  -5   0  -9    5.39    0.62
   8  -1  -9   25.24    1.41
   8  -1  -9   23.12    1.19
   7  -1  -9   50.47    1.89
   7  -1  -9   48.76    1.56
   7  -1  -9   49.55    1.71
   7  -1  -9   51.76    1.62
   6  -1  -9   -0.08    0.24
   6  -1  -9   -0.26    0.36
   6  -1  -9    0.06    0.34
   6  -1  -9    0.71    0.38
   5  -1  -9   97.34    2.80
   5  -1  -9   93.90    2.74
   5  -1  -9   90.89    2.79
   5  -1  -9   96.88    2.73
   5  -1  -9   96.43    2.79
   4  -1  -9   79.29    2.29
   4  -1  -9   77.95    2.30
   4  -1  -9   74.97    2.30
   4  -1  -9   77.79    2.42
   3  -1  -9   -0.47    0.33
   3  -1  -9    0.29    0.26
   3  -1  -9    0.50    0.31
   3  -1  -9    0.28    0.26
   2  -1  -9  113.08    3.55
   2  -1  -9  128.46    3.20
   2  -1  -9  122.12    3.56
   2  -1  -9  125.04    3.33
   2  -1  -9  121.28    3.20
   1  -1  -9  102.75    2.89
   1  -1  -9  103.12    3.16
   1  -1  -9  101.69    2.87
   1  -1  -9  105.18    2.64
   1  -1  -9  102.54    2.63
   0  -1  -9   14.70    0.80
   0  -1  -9   15.98    1.10
   0   1   9   15.13    1.01
  -1  -1  -9   88.72    2.54
  -1  -1  -9   85.73    2.98
  -1  -1  -9   87.21    2.91
   1   1   9   86.83    2.82
  -2  -1  -9  125.79    3.45
  -2  -1  -9  125.11    3.95
  -2  -1  -9  119.64    3.82
   2   1   9  125.30    3.80
  -3  -1  -9    0.53    0.32
  -3  -1  -9    1.16    0.78
   3   1   9    0.56    0.48
  -4  -1  -9   27.77    1.23
  -4  -1  -9   27.34    1.76
   4   1   9   27.46    1.59
   8  -2  -9    0.78    0.58
   8  -2  -9    2.72    0.67
   7  -2  -9   21.07    1.14
   7  -2  -9   19.86    0.98
   7  -2  -9   21.19    1.23
   7  -2  -9   22.13    1.02
   6  -2  -9   59.27    2.09
   6  -2  -9   64.47    2.04
   6  -2  -9   61.34    2.03
   6  -2  -9   63.14    1.91
   6  -2  -9   61.64    2.09
   5  -2  -9   24.26    1.10
   5  -2  -9   23.12    1.17
   5  -2  -9   22.97    1.08
   4  -2  -9   25.21    1.25
   4  -2  -9   24.70    1.09
   4  -2  -9   24.90    1.04
   3  -2  -9   92.51    2.51
   3  -2  -9   86.51    2.63
   3  -2  -9   90.31    2.84
   3  -2  -9   91.25    2.63
   2  -2  -9   12.73    0.64
   2  -2  -9   13.00    0.77
   2  -2  -9   13.19    0.80
   2  -2  -9   13.45    1.37
   2  -2  -9   11.82    0.61
  -2   2   9   11.38    0.88
   1  -2  -9  107.45    2.69
   1  -2  -9  104.32    2.95
   1  -2  -9  100.51    3.24
   1  -2  -9  104.89    2.65
   1  -2  -9  102.15    2.93
  -1   2   9  102.54    3.14
   0  -2  -9  143.76    3.91
   0  -2  -9  143.60    4.28
   0  -2  -9  146.44    3.94
   0   2   9  145.13    4.20
  -1  -2  -9   34.57    1.30
  -1  -2  -9   34.09    1.73
   1   2   9   33.76    1.61
  -2  -2  -9   23.47    1.07
   2   2   9   23.17    1.42
  -3  -2  -9   80.65    2.45
   3   2   9   79.09    2.89
  -4  -2  -9   30.64    1.33
   4   2   9   30.80    1.80
   8  -3  -9   46.71    1.98
   7  -3  -9   18.15    1.20
   7  -3  -9   25.11    1.10
   7  -3  -9   23.07    1.62
   6  -3  -9    0.72    0.42
   6  -3  -9    0.53    0.30
   6  -3  -9    0.88    0.43
   6  -3  -9   -0.05    0.39
   5  -3  -9   89.43    2.66
   5  -3  -9   88.32    2.81
   5  -3  -9   89.82    2.71
   4  -3  -9  113.18    3.11
   4  -3  -9  109.44    3.19
   4  -3  -9  110.80    3.39
   3  -3  -9    0.56    0.37
   3  -3  -9    0.30    0.46
   3  -3  -9    0.45    0.29
  -3   3   9    0.48    0.34
   2  -3  -9   94.11    2.76
   2  -3  -9   91.16    2.76
   2  -3  -9   96.01    2.57
   2  -3  -9   95.65    3.09
  -2   3   9   93.82    2.91
   1  -3  -9  142.65    4.28
   1  -3  -9  140.81    3.83
   1  -3  -9  141.49    3.87
   1  -3  -9  140.91    3.54
   1  -3  -9  138.22    3.86
  -1   3   9  141.72    4.12
   0  -3  -9    0.74    0.62
   0  -3  -9    0.78    0.31
   0  -3  -9    1.96    0.44
   0   3   9    1.39    0.45
  -1  -3  -9   53.49    1.84
  -1  -3  -9   53.18    1.81
   1   3   9   57.33    2.20
  -2  -3  -9   53.98    1.82
   2   3   9   53.98    2.26
  -3  -3  -9   -0.21    0.36
   3   3   9   -0.59    0.58
   7  -4  -9   28.09    1.44
   7  -4  -9   28.13    1.14
   6  -4  -9   68.99    2.31
   6  -4  -9   72.27    2.57
   5  -4  -9   14.75    1.22
   5  -4  -9   12.29    0.88
   4  -4  -9   70.08    2.18
   4  -4  -9   69.79    2.34
   4  -4  -9   72.07    2.54
   3  -4  -9   98.01    3.19
   3  -4  -9   99.69    2.70
   3  -4  -9   92.01    2.86
  -3   4   9   96.47    2.96
   2  -4  -9   18.66    1.03
   2  -4  -9   18.69    0.77
   2  -4  -9   17.76    1.40
   2  -4  -9   17.81    0.97
  -2   4   9   17.88    1.13
   1  -4  -9   11.27    0.79
   1  -4  -9    9.98    1.28
   1  -4  -9   11.06    0.49
   1  -4  -9   10.27    0.86
  -1   4   9   10.15    0.99
   0  -4  -9   93.51    2.80
   0   4   9   95.78    3.18
  -1  -4  -9    8.35    0.74
   1   4   9    7.96    1.11
  -2  -4  -9   24.13    1.17
   2   4   9   24.96    1.67
  -3  -4  -9   52.18    1.91
   3   4   9   56.51    3.15
   7  -5  -9   24.33    1.40
   6  -5  -9    2.17    0.69
   6  -5  -9    2.71    0.55
   5  -5  -9   40.99    1.57
   5  -5  -9   41.91    1.92
   4  -5  -9   47.59    2.11
   4  -5  -9   47.03    1.63
  -4   5   9   46.14    1.76
   3  -5  -9    5.32    0.86
   3  -5  -9    6.57    0.64
  -3   5   9    6.86    0.84
   2  -5  -9   87.95    2.38
   2  -5  -9   84.92    3.33
   2  -5  -9   84.94    2.66
  -2   5   9   87.37    2.88
   1  -5  -9   72.74    2.34
   1  -5  -9   74.33    1.99
  -1   5   9   74.03    2.65
   0  -5  -9    0.55    0.36
   0   5   9    1.18    0.53
  -1  -5  -9   55.67    1.94
   1   5   9   56.26    2.43
  -2  -5  -9   33.42    1.45
   6  -6  -9   42.99    1.74
   5  -6  -9    3.34    0.58
   5  -6  -9    3.22    0.81
   4  -6  -9   16.63    0.96
   4  -6  -9   12.39    1.57
  -4   6   9   17.56    1.13
   3  -6  -9   72.39    2.17
  -3   6   9   69.25    2.49
   2  -6  -9    2.38    0.48
   2  -6  -9    2.11    0.34
  -2   6   9    1.48    0.51
   1  -6  -9   25.59    1.29
   1  -6  -9   27.95    0.92
  -1   6   9   27.09    1.61
   0  -6  -9   54.59    1.95
   0   6   9   55.08    2.44
   4  -7  -9   35.25    1.44
  -4   7   9   37.61    1.71
   3  -7  -9    4.80    0.66
  -3   7   9    5.89    1.05
   2  -7  -9   94.13    3.05
   2  -7  -9  100.12    2.85
  -2   7   9   95.49    3.31
   0  13 -10   15.03    2.08
   0  13 -10   17.48    0.99
   0 -13  10   16.11    1.12
  -1  13 -10  101.39    3.77
  -1  13 -10  108.01    3.11
   1 -13  10  104.50    3.21
   1 -13  10  104.06    3.05
  -2  13 -10   66.82    2.24
  -2  13 -10   61.32    2.78
   2 -13  10   63.29    2.23
   2  12 -10    2.88    0.92
  -2 -12  10    3.63    0.58
   1  12 -10   43.46    1.43
   1  12 -10   39.27    2.17
  -1 -12  10   42.47    1.41
  -1 -12  10   41.78    1.68
   0  12 -10   62.03    1.95
   0  12 -10   56.68    2.56
   0 -12  10   59.94    2.08
   0 -12  10   61.33    1.90
  -1  12 -10    7.91    1.31
  -1  12 -10    7.49    0.83
   1 -12  10    7.68    0.91
   1 -12  10    8.05    0.79
  -2  12 -10   44.63    1.69
  -2  12 -10   43.12    2.13
   2 -12  10   41.30    1.62
  -3  12 -10   59.37    2.52
  -3  12 -10   59.54    2.15
   3 -12  10   59.69    2.06
   4  11 -10   23.44    2.02
   3  11 -10   10.30    1.57
  -3 -11  10   14.78    1.04
   2  11 -10   92.38    2.45
   2  11 -10   89.13    3.28
  -2 -11  10   91.76    2.40
  -2 -11  10   87.31    2.80
   1  11 -10   20.25    1.47
   1  11 -10   21.56    0.96
  -1 -11  10   21.17    0.93
  -1 -11  10   22.21    1.11
   0  11 -10   25.65    1.29
   0  11 -10   25.67    1.60
   0 -11  10   26.52    1.12
   0 -11  10   26.35    1.20
  -1  11 -10  101.21    2.91
  -1  11 -10  100.75    3.40
  -1  11 -10  101.39    3.21
   1 -11  10   99.29    2.88
   1 -11  10   98.33    2.96
  -2  11 -10   33.51    1.46
  -2  11 -10   32.99    1.76
  -2  11 -10   36.09    1.45
   2 -11  10   36.91    1.42
   2 -11  10   35.59    1.46
  -3  11 -10   39.93    1.76
  -3  11 -10   41.55    1.99
  -3  11 -10   45.66    1.72
   3 -11  10   43.20    1.60
  -4  11 -10   58.34    2.45
  -4  11 -10   60.37    2.21
   4 -11  10   62.45    2.06
   4  10 -10   43.20    2.23
  -4 -10  10   42.49    1.72
   3  10 -10   26.82    0.85
   3  10 -10   27.99    1.72
  -3 -10  10   27.12    1.27
   2  10 -10    0.99    0.30
   2  10 -10    0.18    0.54
  -2 -10  10    1.59    0.28
  -2 -10  10    0.46    0.36
   1  10 -10  144.47    4.42
   1  10 -10  141.85    4.04
   1  10 -10  147.86    3.83
  -1 -10  10  144.54    4.02
  -1 -10  10  144.90    3.78
   0  10 -10   68.12    2.07
   0  10 -10   66.59    2.50
   0  10 -10   68.64    2.25
   0 -10  10   66.48    2.02
   0 -10  10   68.98    2.15
  -2  10 -10   51.59    2.16
  -2  10 -10   55.09    1.85
  -2  10 -10   56.42    1.85
   2 -10  10   53.35    1.85
   2 -10  10   53.85    1.80
  -3  10 -10   86.74    2.97
  -3  10 -10   88.90    2.68
  -3  10 -10   82.18    2.57
   3 -10  10   86.19    2.57
  -4  10 -10   -0.15    0.44
  -4  10 -10   -0.23    0.49
  -4  10 -10   -0.15    0.40
   4 -10  10    0.30    0.35
  -5  10 -10   38.24    1.49
  -5  10 -10   40.34    1.78
  -5  10 -10   36.76    1.87
   5 -10  10   39.81    1.53
   5   9 -10   67.99    2.79
  -5  -9  10   71.35    2.42
   4   9 -10    6.73    1.20
  -4  -9  10    9.06    0.83
   3   9 -10    6.79    1.06
   3   9 -10    6.32    0.46
  -3  -9  10    5.78    1.04
  -3  -9  10    7.19    0.72
   2   9 -10  100.11    2.61
   2   9 -10   95.95    2.87
   2   9 -10   95.59    3.18
  -2  -9  10   92.62    3.13
  -2  -9  10   96.61    2.85
  -2  -9  10   97.30    2.56
   1   9 -10   17.61    0.98
   1   9 -10   19.05    0.96
   1   9 -10   19.13    1.26
  -1  -9  10   19.42    0.81
  -1  -9  10   20.52    0.97
   0   9 -10   90.86    2.98
   0   9 -10   89.60    2.54
   0   9 -10   89.43    2.63
   0  -9  10   86.65    2.60
   0  -9  10   89.78    2.51
  -1   9 -10   87.86    2.59
  -1   9 -10   90.25    2.58
  -1   9 -10   88.64    2.93
   1  -9  10   85.12    2.55
   1  -9  10   88.43    2.54
  -2   9 -10   54.32    1.77
  -2   9 -10   54.79    1.81
  -2   9 -10   52.43    2.09
   2  -9  10   53.32    1.79
   2  -9  10   52.44    1.73
  -3   9 -10   26.36    1.21
  -3   9 -10   25.71    1.41
  -3   9 -10   24.78    1.08
   3  -9  10   22.45    1.25
   3  -9  10   25.77    1.07
  -4   9 -10   86.21    2.95
  -4   9 -10   88.62    2.76
  -4   9 -10   88.08    2.56
  -4   9 -10   85.92    2.91
   4  -9  10   90.61    2.59
  -5   9 -10   16.09    1.28
  -5   9 -10   12.80    0.90
  -5   9 -10   16.70    1.17
   5  -9  10   15.99    0.94
   6   8 -10   20.10    1.68
   5   8 -10    7.20    1.20
  -5  -8  10    7.51    1.26
   4   8 -10   97.46    3.22
  -4  -8  10   92.93    3.15
  -4  -8  10   98.89    2.93
   3   8 -10   56.27    1.58
   3   8 -10   56.29    2.17
   3   8 -10   54.78    1.90
  -3  -8  10   57.08    2.16
  -3  -8  10   57.04    1.89
   2   8 -10    0.79    0.34
   2   8 -10    0.29    0.44
   2   8 -10    0.99    0.25
  -2  -8  10    0.47    0.24
  -2  -8  10    0.54    0.31
   1   8 -10  126.14    3.86
   1   8 -10  131.76    3.45
   1   8 -10  129.24    3.57
  -1  -8  10  132.23    3.42
  -1  -8  10  129.31    3.56
   0   8 -10  164.01    4.30
   0   8 -10  162.42    4.34
   0   8 -10  162.68    4.67
   0  -8  10  163.90    4.33
   0  -8  10  163.64    4.27
  -1   8 -10    2.09    0.39
  -1   8 -10    1.10    0.42
  -1   8 -10    1.99    0.37
   1  -8  10    2.10    0.35
   1  -8  10    1.91    0.38
  -2   8 -10   84.41    2.44
  -2   8 -10   82.59    2.78
  -2   8 -10   85.27    2.52
   2  -8  10   85.19    2.42
   2  -8  10   85.70    2.50
  -3   8 -10  110.96    3.45
  -3   8 -10  118.72    3.07
  -3   8 -10  107.93    3.19
  -3   8 -10  111.35    3.40
   3  -8  10  108.85    3.18
   3  -8  10  108.20    3.04
  -4   8 -10   -0.33    0.41
  -4   8 -10   -0.04    0.41
  -4   8 -10    0.40    0.51
  -4   8 -10   -0.28    0.38
   4  -8  10    0.60    0.33
  -5   8 -10   37.38    1.36
  -5   8 -10   39.81    1.86
  -5   8 -10   36.40    1.76
  -5   8 -10   37.64    1.60
   5  -8  10   38.97    1.40
   6   7 -10   31.09    1.75
   5   7 -10   64.42    2.41
   4   7 -10   17.00    0.59
   4   7 -10   15.96    1.00
   4   7 -10   15.91    1.16
   4   7 -10   16.43    0.60
  -4  -7  10   16.23    0.95
   3   7 -10   57.31    1.89
   3   7 -10   59.12    2.12
   3   7 -10   58.70    1.63
  -3  -7  10   55.28    1.86
   2   7 -10  130.23    3.33
   2   7 -10  128.58    3.50
   2   7 -10  125.12    3.76
  -2  -7  10  123.93    3.56
   1   7 -10   16.65    0.75
   1   7 -10   15.32    1.04
   1   7 -10   16.12    0.82
  -1  -7  10   15.50    0.80
  -1  -7  10   16.99    0.76
   0   7 -10   46.89    1.51
   0   7 -10   45.27    1.80
   0   7 -10   45.72    1.49
   0  -7  10   47.69    1.49
   0  -7  10   46.51    1.48
  -1   7 -10  129.61    3.81
  -1   7 -10  128.11    3.43
  -1   7 -10  125.95    3.50
   1  -7  10  130.03    3.48
   1  -7  10  127.60    3.42
  -2   7 -10    7.12    0.57
  -2   7 -10    7.69    0.85
  -2   7 -10    7.89    0.68
  -2   7 -10    7.29    0.86
   2  -7  10    6.96    0.54
   2  -7  10    8.37    0.69
  -3   7 -10   40.40    1.55
  -3   7 -10   43.78    1.78
  -3   7 -10   42.35    1.38
  -3   7 -10   41.85    1.75
   3  -7  10   42.53    1.56
   3  -7  10   44.46    1.38
  -4   7 -10  110.50    3.47
  -4   7 -10  107.05    3.40
  -4   7 -10  114.34    3.00
  -4   7 -10  114.36    3.27
   4  -7  10  109.68    3.00
  -5   7 -10   21.03    1.44
  -5   7 -10   20.91    1.36
  -5   7 -10   19.69    1.19
  -5   7 -10   22.35    0.91
   5  -7  10   23.29    0.95
  -6   7 -10   16.36    1.37
   7   6 -10   44.18    2.11
   6   6 -10   10.00    1.13
   5   6 -10    8.87    0.39
   5   6 -10    8.11    1.00
   5   6 -10    8.31    0.52
   5   6 -10    7.42    0.95
   4   6 -10   90.41    2.85
   4   6 -10   88.33    2.34
   4   6 -10   90.88    2.70
   4   6 -10   86.77    2.33
   3   6 -10  143.91    3.69
   3   6 -10  146.88    4.13
   3   6 -10  140.29    3.90
  -3  -6  10  142.00    3.90
   2   6 -10   27.04    1.30
   2   6 -10   26.19    0.96
   2   6 -10   26.44    1.06
  -2  -6  10   27.93    1.07
   1   6 -10  117.88    3.18
   1   6 -10  118.50    3.21
   1   6 -10  119.50    3.53
  -1  -6  10  116.84    3.21
  -1  -6  10  121.52    3.16
   0   6 -10   93.89    2.68
   0   6 -10   95.44    2.69
   0   6 -10   97.05    2.99
   0  -6  10   97.40    2.67
   0  -6  10   99.21    2.66
  -1   6 -10    1.16    0.41
  -1   6 -10    1.41    0.42
  -1   6 -10    1.56    0.34
  -1   6 -10    2.07    0.32
   1  -6  10    1.99    0.36
   1  -6  10    1.88    0.29
  -2   6 -10  122.67    3.64
  -2   6 -10  126.39    3.72
  -2   6 -10  122.87    3.25
  -2   6 -10  124.14    3.44
   2  -6  10  124.07    3.25
   2  -6  10  124.19    3.42
  -3   6 -10   40.99    1.75
  -3   6 -10   40.32    1.26
  -3   6 -10   40.63    1.71
  -3   6 -10   43.93    1.53
   3  -6  10   42.52    1.28
   3  -6  10   40.57    1.51
  -4   6 -10    1.10    0.55
  -4   6 -10    0.21    0.24
  -4   6 -10    0.56    0.39
  -4   6 -10    0.04    0.42
   4  -6  10    0.70    0.33
  -5   6 -10   75.89    2.73
  -5   6 -10   74.50    2.65
  -5   6 -10   68.74    2.33
  -5   6 -10   75.36    2.44
   5  -6  10   76.39    2.07
  -6   6 -10   52.76    2.21
   7   5 -10    6.87    1.13
   6   5 -10   29.48    0.86
   6   5 -10   29.07    1.47
   5   5 -10   57.80    1.61
   5   5 -10   59.78    2.09
   5   5 -10   54.88    1.98
   5   5 -10   58.12    1.59
   4   5 -10   13.61    0.87
   4   5 -10   14.51    1.35
   4   5 -10   13.49    0.62
   4   5 -10   14.37    0.61
   3   5 -10   65.66    2.01
   3   5 -10   64.15    1.84
   2   5 -10  122.92    3.38
   2   5 -10  126.66    3.33
  -2  -5  10  128.37    3.41
   1   5 -10    7.76    0.86
   1   5 -10    8.34    0.55
   1   5 -10    8.19    0.92
  -1  -5  10    8.35    0.56
  -1  -5  10    8.93    0.56
   0   5 -10   13.61    0.73
   0   5 -10   14.47    0.97
   0   5 -10   13.58    0.64
   0   5 -10   13.24    0.91
   0  -5  10   14.00    0.65
   0  -5  10   13.81    0.72
  -1   5 -10  243.75    6.18
  -1   5 -10  243.18    6.40
  -1   5 -10  238.33    5.98
  -1   5 -10  244.14    6.48
   1  -5  10  238.08    5.99
   1  -5  10  232.74    6.14
  -2   5 -10    1.28    0.43
  -2   5 -10    1.50    0.44
  -2   5 -10    1.75    0.36
  -2   5 -10    1.94    0.25
   2  -5  10    1.55    0.32
   2  -5  10    1.59    0.25
  -3   5 -10   72.89    2.43
  -3   5 -10   70.76    2.45
  -3   5 -10   71.81    2.21
  -3   5 -10   69.47    1.88
   3  -5  10   67.95    2.18
   3  -5  10   70.83    1.89
  -4   5 -10   61.19    2.32
  -4   5 -10   63.22    2.05
  -4   5 -10   60.34    2.29
  -5   5 -10   24.79    1.77
  -5   5 -10   23.06    1.40
  -5   5 -10   21.93    1.20
   7   4 -10   52.88    2.21
   7   4 -10   55.85    1.62
   7   4 -10   52.99    2.08
   6   4 -10   26.54    0.90
   6   4 -10   26.98    0.92
   6   4 -10   25.52    1.30
   5   4 -10   14.01    0.65
   5   4 -10   12.89    0.93
   5   4 -10   12.90    0.91
   5   4 -10   13.59    0.62
   4   4 -10   92.92    2.81
   4   4 -10   98.67    2.93
   4   4 -10   98.19    2.61
   4   4 -10   97.68    2.61
   3   4 -10   70.78    2.13
   3   4 -10   70.63    2.29
   3   4 -10   71.33    2.01
   2   4 -10   21.31    1.12
   2   4 -10   21.40    1.10
   2   4 -10   22.48    0.87
   2   4 -10   22.07    0.88
   1   4 -10   72.29    2.32
   1   4 -10   74.59    2.01
   1   4 -10   63.45    2.90
   1   4 -10   74.69    2.09
   0   4 -10   62.32    2.14
   0   4 -10   65.51    2.21
   0   4 -10   62.34    1.91
   0   4 -10   64.72    1.77
   0  -4  10   64.47    1.78
   0  -4  10   62.98    1.90
  -1   4 -10    0.06    0.18
  -1   4 -10   -0.15    0.24
  -1   4 -10   -0.01    0.31
   1  -4  10   -0.22    0.25
   1  -4  10    0.41    0.18
  -2   4 -10  157.71    4.48
  -2   4 -10  159.40    4.57
  -2   4 -10  161.07    4.28
   2  -4  10  159.05    4.26
  -3   4 -10   59.33    1.97
  -3   4 -10   62.25    2.26
  -3   4 -10   64.22    2.25
   3  -4  10   61.30    1.99
  -4   4 -10    0.10    0.43
  -4   4 -10    0.83    0.54
  -4   4 -10    0.39    0.34
  -5   4 -10   47.11    1.76
  -5   4 -10   47.35    2.02
   7   3 -10    0.27    0.25
   7   3 -10    0.09    0.42
   7   3 -10   -0.33    0.28
   7   3 -10    0.47    0.47
   7   3 -10    0.62    0.35
   6   3 -10   31.36    1.50
   6   3 -10   31.68    1.30
   6   3 -10   32.86    1.10
   6   3 -10   33.00    1.44
   6   3 -10   31.09    1.37
   5   3 -10   70.79    2.02
   5   3 -10   66.50    2.23
   5   3 -10   73.50    2.25
   5   3 -10   69.09    2.26
   5   3 -10   72.32    2.26
   5   3 -10   69.91    2.01
   4   3 -10    1.34    0.36
   4   3 -10    1.72    0.38
   4   3 -10    1.42    0.28
   4   3 -10    0.89    0.34
   3   3 -10  116.45    3.34
   3   3 -10  115.93    3.17
   3   3 -10  113.02    3.10
   3   3 -10  115.60    3.08
   3   3 -10  116.41    3.35
   2   3 -10  210.85    5.32
   2   3 -10  209.24    5.58
   2   3 -10  207.20    5.60
   2   3 -10  206.51    5.35
   1   3 -10    6.74    0.44
   1   3 -10    7.24    0.96
   1   3 -10    6.76    0.55
   1   3 -10    6.35    0.73
   0   3 -10  195.53    4.68
   0   3 -10  196.85    5.21
   0   3 -10  167.54    5.26
   0   3 -10  189.62    5.13
  -1   3 -10  218.92    5.62
  -1   3 -10  214.31    5.84
   1  -3  10  216.32    5.60
  -2   3 -10   34.41    1.55
  -2   3 -10   33.30    1.28
   2  -3  10   34.60    1.29
  -3   3 -10   38.73    1.70
  -3   3 -10   37.93    1.42
   3  -3  10   37.16    1.41
  -4   3 -10   87.70    3.06
  -4   3 -10   94.55    2.76
  -5   3 -10    1.96    0.51
   8   2 -10    5.20    0.82
   7   2 -10   39.59    1.56
   7   2 -10   43.89    1.51
   7   2 -10   42.11    1.75
   7   2 -10   42.12    1.37
   7   2 -10   41.33    1.40
   6   2 -10   25.50    0.99
   6   2 -10   25.59    1.02
   6   2 -10   24.15    1.15
   6   2 -10   23.73    1.23
   6   2 -10   25.76    1.13
   6   2 -10   24.39    1.23
   5   2 -10   29.62    1.29
   5   2 -10   31.33    1.30
   5   2 -10   32.19    1.14
   5   2 -10   29.79    1.26
   5   2 -10   30.72    1.27
   5   2 -10   31.18    1.12
   4   2 -10  130.81    3.64
   4   2 -10  131.16    3.58
   4   2 -10  130.10    3.45
   4   2 -10  127.79    3.63
   4   2 -10  126.22    3.45
   4   2 -10  128.51    3.56
   3   2 -10  108.11    3.11
   3   2 -10  102.24    3.08
   3   2 -10  108.80    2.91
   3   2 -10  102.73    3.22
   3   2 -10  106.37    2.88
   3   2 -10  104.50    2.91
   3   2 -10  104.63    2.92
   2   2 -10    2.91    0.45
   2   2 -10    4.24    0.49
   2   2 -10    4.07    0.47
   2   2 -10    4.67    0.44
   2   2 -10    4.99    0.73
   1   2 -10  129.04    3.47
   1   2 -10  129.76    3.29
   1   2 -10  123.94    3.25
   1   2 -10  125.99    3.66
   0   2 -10   76.24    1.98
   0   2 -10   77.68    2.24
   0   2 -10   74.34    2.48
  -1   2 -10   15.21    1.07
  -1   2 -10   13.86    0.78
  -2   2 -10   94.72    2.73
  -2   2 -10   92.41    3.00
   2  -2  10   94.07    2.73
  -3   2 -10   34.21    1.68
  -3   2 -10   33.98    1.33
   3  -2  10   34.17    1.38
  -4   2 -10    3.88    0.52
  -5   2 -10   67.15    2.26
   8   1 -10   35.41    1.71
   8   1 -10   34.48    1.36
   7   1 -10    4.18    0.50
   7   1 -10    3.08    0.50
   7   1 -10    4.79    0.65
   7   1 -10    3.43    0.61
   6   1 -10   78.61    2.34
   6   1 -10   76.90    2.32
   6   1 -10   69.44    2.43
   6   1 -10   76.07    2.45
   6   1 -10   77.30    2.25
   6   1 -10   75.19    2.24
   5   1 -10  100.39    2.96
   5   1 -10  102.78    2.84
   5   1 -10  101.10    2.97
   5   1 -10  102.67    2.95
   5   1 -10  100.69    2.84
   5   1 -10   98.55    2.97
   4   1 -10    1.55    0.34
   4   1 -10    1.77    0.33
   4   1 -10    1.33    0.36
   4   1 -10    1.26    0.36
   4   1 -10    1.18    0.35
   4   1 -10    1.54    0.37
   3   1 -10   52.50    1.65
   3   1 -10   50.19    1.61
   3   1 -10   50.58    1.62
   3   1 -10   51.72    1.83
   3   1 -10   51.26    1.81
   3   1 -10   51.62    1.62
   2   1 -10   84.86    2.95
   2   1 -10   89.35    2.52
   2   1 -10   91.28    2.43
   2   1 -10   91.70    2.46
   2   1 -10   89.22    2.77
   1   1 -10    2.18    0.34
   1   1 -10    1.01    0.42
   1   1 -10    1.90    0.24
   1   1 -10    1.46    0.22
   0   1 -10   97.04    2.77
   0   1 -10   97.55    3.03
  -1   1 -10   95.04    3.05
  -1   1 -10   99.01    2.79
  -2   1 -10    1.42    0.54
  -2   1 -10    1.36    0.34
  -3   1 -10   33.24    1.33
  -4   1 -10   53.53    1.87
  -5   1 -10    4.32    0.63
   8   0 -10   12.45    1.18
   7   0 -10   41.40    1.53
   7   0 -10   43.46    1.49
   7   0 -10   43.51    1.74
   7   0 -10   39.90    1.47
   6   0 -10   14.32    0.96
   6   0 -10   12.94    0.84
   6   0 -10   14.07    0.87
   6   0 -10   14.56    0.90
   6   0 -10   12.96    0.97
   6   0 -10   13.00    0.82
   5   0 -10   21.97    1.12
   5   0 -10   21.71    1.00
   5   0 -10   22.60    1.06
   5   0 -10   22.49    1.04
   5   0 -10   23.01    1.03
   5   0 -10   19.73    1.07
   4   0 -10  114.95    3.13
   4   0 -10  114.00    3.14
   4   0 -10  108.04    3.15
   4   0 -10  114.43    3.26
   4   0 -10  112.56    3.29
   4   0 -10  109.64    3.15
   3   0 -10   26.59    1.08
   3   0 -10   26.74    1.09
   3   0 -10   26.15    1.01
   3   0 -10   25.73    1.26
   3   0 -10   25.40    1.02
   2   0 -10   44.16    1.74
   2   0 -10   46.01    1.37
   2   0 -10   45.73    1.37
   2   0 -10   45.19    1.51
   2   0 -10   45.29    1.53
   1   0 -10  186.20    4.63
   1   0 -10  186.89    4.92
   1   0 -10  186.85    5.37
   1   0 -10  185.78    5.16
   0   0 -10   35.05    1.32
   0   0 -10   37.53    1.65
  -1   0 -10    3.07    0.61
  -1   0 -10    3.92    0.57
  -2   0 -10   72.56    2.68
  -2   0 -10   76.23    2.31
  -3   0 -10   37.19    1.44
  -4   0 -10   12.57    0.96
   8  -1 -10   26.92    1.31
   8  -1 -10   27.05    1.55
   7  -1 -10    0.94    0.40
   7  -1 -10    0.42    0.49
   7  -1 -10    0.74    0.33
   7  -1 -10    0.99    0.47
   6  -1 -10   40.11    1.49
   6  -1 -10   38.96    1.49
   6  -1 -10   39.41    1.42
   6  -1 -10   36.92    1.53
   6  -1 -10   34.92    1.51
   5  -1 -10   60.22    2.05
   5  -1 -10   55.99    1.95
   5  -1 -10   59.14    1.96
   5  -1 -10   60.65    1.95
   5  -1 -10   60.67    1.96
   4  -1 -10   -0.33    0.37
   4  -1 -10   -0.35    0.30
   4  -1 -10    0.37    0.33
   4  -1 -10    0.08    0.28
   4  -1 -10    0.06    0.30
   3  -1 -10   80.47    2.39
   3  -1 -10   80.74    2.62
   3  -1 -10   82.16    2.29
   3  -1 -10   78.50    2.39
   3  -1 -10   80.44    2.43
   2  -1 -10   94.12    2.58
   2  -1 -10   98.90    2.82
   2  -1 -10   94.46    3.04
   2  -1 -10   98.91    2.59
   2  -1 -10   96.39    2.78
   1  -1 -10    2.33    0.55
   1  -1 -10    1.91    0.37
   1  -1 -10    2.25    0.40
   0  -1 -10  116.63    3.26
   0  -1 -10  113.88    3.62
  -1  -1 -10   99.54    3.35
  -1  -1 -10  105.60    3.00
   1   1  10  105.69    3.33
  -2  -1 -10    3.34    0.45
  -2  -1 -10    3.55    0.92
   2   1  10    3.47    0.62
  -3  -1 -10   47.01    1.72
  -3  -1 -10   46.92    2.27
   3   1  10   49.22    2.14
  -4  -1 -10   50.07    1.85
   7  -2 -10   56.29    2.09
   7  -2 -10   55.40    1.78
   6  -2 -10   10.37    0.76
   6  -2 -10    8.97    0.89
   6  -2 -10   10.21    0.89
   6  -2 -10   11.46    0.96
   6  -2 -10    8.05    0.86
   5  -2 -10   11.13    0.98
   5  -2 -10    9.19    0.77
   5  -2 -10    9.19    0.78
   5  -2 -10    9.50    0.89
   4  -2 -10   76.69    2.40
   4  -2 -10   81.76    2.47
   4  -2 -10   79.67    2.48
   4  -2 -10   82.28    2.67
   4  -2 -10   81.38    2.38
   3  -2 -10   10.29    0.65
   3  -2 -10   10.09    0.68
   3  -2 -10    9.38    0.77
   3  -2 -10   10.37    0.81
   3  -2 -10   10.72    1.03
   2  -2 -10   21.88    0.82
   2  -2 -10   20.80    1.32
   2  -2 -10   22.12    1.04
   2  -2 -10   22.16    0.83
   2  -2 -10   20.79    1.06
   1  -2 -10   97.00    2.82
   1  -2 -10   94.86    2.82
   1  -2 -10   93.97    3.15
  -1   2  10   99.63    3.07
   0  -2 -10   41.62    1.51
   0  -2 -10   39.26    1.93
   0  -2 -10   42.14    1.56
   0   2  10   41.62    1.79
  -1  -2 -10   40.21    1.51
   1   2  10   39.55    1.82
  -2  -2 -10   84.72    2.57
   2   2  10   82.36    2.99
  -3  -2 -10   18.00    1.10
   3   2  10   21.48    1.56
   7  -3 -10    2.15    0.61
   7  -3 -10    2.53    0.62
   6  -3 -10   57.21    2.04
   6  -3 -10   58.96    2.14
   6  -3 -10   59.56    1.96
   5  -3 -10   59.27    2.16
   5  -3 -10   55.34    1.91
   4  -3 -10   -0.47    0.33
   4  -3 -10    0.42    0.46
   3  -3 -10  168.39    4.62
   3  -3 -10  183.68    4.59
   3  -3 -10  175.08    4.81
   3  -3 -10  177.53    5.11
   2  -3 -10   75.53    2.03
   2  -3 -10   69.89    2.08
   2  -3 -10   71.80    2.68
   2  -3 -10   73.73    2.33
  -2   3  10   74.62    2.49
   1  -3 -10    0.78    0.85
   1  -3 -10    0.31    0.33
  -1   3  10    0.53    0.43
   0  -3 -10   50.13    1.78
   0   3  10   51.17    2.08
  -1  -3 -10   57.80    1.98
   1   3  10   59.26    2.39
  -2  -3 -10    0.44    0.42
   2   3  10    0.16    0.60
   6  -4 -10    1.56    0.64
   6  -4 -10    0.65    0.49
   5  -4 -10   32.40    1.70
   5  -4 -10   30.78    1.33
   4  -4 -10   96.52    2.76
   4  -4 -10   92.03    3.19
   3  -4 -10   27.22    1.29
   3  -4 -10   28.91    1.11
   3  -4 -10   29.20    1.69
  -3   4  10   27.95    1.39
   2  -4 -10   34.22    1.45
   2  -4 -10   36.34    1.16
  -2   4  10   35.15    1.63
   1  -4 -10   46.93    1.72
  -1   4  10   45.68    1.98
   0  -4 -10   21.33    1.13
   0   4  10   20.67    1.46
  -1  -4 -10   17.56    1.09
   1   4  10   17.39    1.50
   6  -5 -10   44.21    1.78
   5  -5 -10   12.16    1.45
   5  -5 -10   11.49    1.05
   4  -5 -10    0.79    0.43
   4  -5 -10    1.86    0.88
  -4   5  10    1.50    0.47
   3  -5 -10   55.55    1.70
   3  -5 -10   48.79    1.93
  -3   5  10   53.94    2.08
   2  -5 -10   54.53    2.04
   2  -5 -10   57.88    1.67
  -2   5  10   59.64    2.28
   1  -5 -10    1.35    0.49
  -1   5  10    1.11    0.58
   0  -5 -10   48.42    1.86
   0   5  10   50.94    2.28
   4  -6 -10   45.67    1.64
  -4   6  10   46.32    1.93
   3  -6 -10   17.82    0.99
   3  -6 -10   18.09    1.73
  -3   6  10   17.17    1.33
   2  -6 -10   24.27    1.94
  -2   6  10   20.73    1.52
  -2 -12  11   51.68    2.03
   1  12 -11   71.59    2.99
   1  12 -11   73.71    2.42
  -1 -12  11   74.19    2.46
   0  12 -11   12.61    1.49
   0  12 -11   13.49    0.93
   0 -12  11   13.91    0.93
   0 -12  11   14.13    0.98
  -1  12 -11   27.40    1.82
  -1  12 -11   28.54    1.33
   1 -12  11   28.50    1.34
   1 -12  11   28.08    1.32
  -2  12 -11   62.71    2.69
  -2  12 -11   64.93    2.20
   2 -12  11   63.38    2.17
   3  11 -11   81.42    3.25
  -3 -11  11   84.96    2.74
   2  11 -11    8.86    0.67
   2  11 -11    7.30    1.32
  -2 -11  11   10.15    0.90
   1  11 -11   23.82    1.25
   1  11 -11   22.19    1.62
  -1 -11  11   24.25    1.19
  -1 -11  11   24.57    1.05
   0  11 -11   71.66    2.79
   0  11 -11   73.84    2.25
   0 -11  11   73.58    2.22
   0 -11  11   73.82    2.35
  -1  11 -11   34.10    1.85
  -1  11 -11   33.78    1.41
   1 -11  11   36.58    1.43
   1 -11  11   34.96    1.47
  -2  11 -11   21.97    1.54
  -2  11 -11   20.27    1.17
   2 -11  11   20.85    1.08
  -3  11 -11   78.01    2.56
  -3  11 -11   75.25    2.87
   3 -11  11   76.48    2.42
   4  10 -11   29.38    1.96
  -4 -10  11   31.39    1.47
   3  10 -11    1.04    0.69
   3  10 -11    1.91    0.30
  -3 -10  11    1.16    0.46
   2  10 -11   60.00    1.79
   2  10 -11   58.62    2.42
  -2 -10  11   58.99    2.05
  -2 -10  11   63.46    1.77
   1  10 -11   76.75    2.63
   1  10 -11   72.45    2.19
   1  10 -11   73.24    2.73
  -1 -10  11   74.45    2.36
  -1 -10  11   75.61    2.17
   0  10 -11    1.66    0.40
   0  10 -11    2.45    0.48
   0  10 -11    0.89    0.54
   0 -10  11    1.81    0.42
   0 -10  11    1.11    0.39
  -1  10 -11   91.75    3.13
  -1  10 -11   89.55    2.68
  -1  10 -11   88.53    2.70
   1 -10  11   92.79    2.70
   1 -10  11   90.54    2.68
  -2  10 -11   54.12    2.28
  -2  10 -11   58.19    1.93
  -2  10 -11   58.72    1.98
   2 -10  11   55.41    1.87
   2 -10  11   60.33    2.38
  -3  10 -11   -0.74    0.40
  -3  10 -11   -0.65    0.42
  -3  10 -11    0.45    0.54
   3 -10  11    0.55    0.36
  -4  10 -11   51.45    1.83
  -4  10 -11   52.81    2.29
  -4  10 -11   54.28    2.06
   4 -10  11   56.76    1.86
   5   9 -11    5.78    0.94
   4   9 -11   15.59    1.41
  -4  -9  11   16.78    1.07
   3   9 -11   67.44    2.56
   3   9 -11   65.46    1.85
  -3  -9  11   66.47    2.19
   2   9 -11    5.64    0.76
   2   9 -11    4.50    0.55
   2   9 -11    6.45    0.76
  -2  -9  11    6.24    0.67
   1   9 -11   28.70    1.13
   1   9 -11   28.65    1.56
   1   9 -11   31.12    1.25
  -1  -9  11   30.27    1.24
  -1  -9  11   30.26    1.13
   0   9 -11  122.53    3.38
   0   9 -11  118.63    3.75
   0   9 -11  120.37    3.31
   0  -9  11  117.32    3.27
   0  -9  11  119.14    3.35
  -1   9 -11   24.58    1.10
  -1   9 -11   23.54    1.08
  -1   9 -11   24.31    1.40
   1  -9  11   23.87    1.05
   1  -9  11   25.26    1.13
  -2   9 -11   19.10    1.30
  -2   9 -11   17.83    0.95
  -2   9 -11   18.13    1.03
   2  -9  11   18.28    1.09
   2  -9  11   19.00    0.93
  -3   9 -11   68.37    2.07
  -3   9 -11   67.62    2.51
  -3   9 -11   66.02    2.23
   3  -9  11   65.84    2.07
  -4   9 -11   39.78    1.67
  -4   9 -11   37.57    1.87
  -4   9 -11   40.93    1.44
   4  -9  11   40.07    1.45
   5   8 -11   55.55    2.36
   4   8 -11   59.86    2.35
   4   8 -11   61.06    1.61
   4   8 -11   58.55    1.62
  -4  -8  11   58.45    2.05
   3   8 -11    0.04    0.24
   3   8 -11   -0.40    0.44
   3   8 -11    0.45    0.38
  -3  -8  11    0.06    0.32
   2   8 -11  131.91    4.00
   2   8 -11  129.27    3.66
   2   8 -11  133.33    3.49
  -2  -8  11  131.85    3.67
   1   8 -11  101.07    2.84
   1   8 -11   96.64    2.74
   1   8 -11   96.45    3.18
  -1  -8  11  101.25    2.73
  -1  -8  11   96.79    2.83
   0   8 -11    0.91    0.33
   0   8 -11    1.16    0.48
   0   8 -11    0.78    0.31
   0  -8  11    0.84    0.34
  -1   8 -11  117.18    3.71
  -1   8 -11  121.94    3.38
  -1   8 -11  121.01    3.32
   1  -8  11  121.39    3.31
   1  -8  11  123.30    3.37
  -2   8 -11   91.33    3.06
  -2   8 -11   99.40    2.82
  -2   8 -11   94.52    3.11
  -2   8 -11   95.01    2.67
   2  -8  11   92.88    2.78
   2  -8  11   93.57    2.66
  -3   8 -11    0.26    0.34
  -3   8 -11    1.26    0.43
  -3   8 -11    0.85    0.50
   3  -8  11    1.08    0.34
  -4   8 -11   60.96    1.82
  -4   8 -11   57.03    2.32
  -4   8 -11   59.49    2.10
   4  -8  11   59.18    1.84
  -5   8 -11   59.77    2.46
  -5   8 -11   67.88    3.10
   5  -8  11   62.33    1.94
   6   7 -11   52.07    2.27
   5   7 -11    0.69    0.55
   4   7 -11   36.61    1.55
   4   7 -11   36.95    1.09
   4   7 -11   32.39    1.19
   4   7 -11   34.68    1.66
   3   7 -11   96.80    2.57
   3   7 -11   94.58    3.06
   3   7 -11   94.72    2.80
  -3  -7  11   92.84    2.79
   2   7 -11   33.72    1.29
   2   7 -11   36.09    1.20
   2   7 -11   35.29    1.59
  -2  -7  11   34.12    1.31
   1   7 -11   40.07    1.34
   1   7 -11   38.29    1.37
   1   7 -11   38.82    1.69
  -1  -7  11   38.25    1.37
  -1  -7  11   40.45    1.33
   0   7 -11  112.94    3.49
   0   7 -11  114.86    3.10
   0   7 -11  111.79    3.13
   0  -7  11  112.41    3.10
   0  -7  11  113.11    3.10
  -1   7 -11   18.90    1.20
  -1   7 -11   17.23    1.16
  -1   7 -11   18.33    0.84
  -1   7 -11   18.13    0.92
   1  -7  11   19.36    0.93
   1  -7  11   18.20    0.82
  -2   7 -11   61.91    1.96
  -2   7 -11   62.74    2.30
  -2   7 -11   63.91    2.34
  -2   7 -11   64.75    2.06
   2  -7  11   65.31    1.87
   2  -7  11   62.70    2.04
  -3   7 -11   81.02    2.87
  -3   7 -11   84.58    2.62
  -3   7 -11   88.96    3.04
   3  -7  11   85.52    2.37
  -4   7 -11   25.23    1.27
  -4   7 -11   20.26    1.03
  -4   7 -11   25.68    1.49
   4  -7  11   25.92    0.98
  -5   7 -11    4.26    0.73
  -5   7 -11    5.68    0.75
   6   6 -11    3.78    0.71
   5   6 -11   84.30    2.20
   5   6 -11   82.29    2.20
   5   6 -11   81.77    2.76
   4   6 -11   40.64    1.23
   4   6 -11   39.35    1.54
   4   6 -11   40.70    1.25
   4   6 -11   39.31    1.70
   3   6 -11    4.15    0.60
   3   6 -11    4.67    0.48
   3   6 -11    3.00    0.51
   2   6 -11  127.99    3.48
   2   6 -11  130.84    3.81
   2   6 -11  123.92    3.39
  -2  -6  11  126.71    3.49
   1   6 -11   64.19    2.28
   1   6 -11   64.77    1.96
   1   6 -11   66.18    1.94
  -1  -6  11   66.73    1.95
  -1  -6  11   63.11    1.94
   0   6 -11    2.23    0.48
   0   6 -11    3.84    0.47
   0   6 -11    3.32    0.53
   0   6 -11    3.17    0.43
   0  -6  11    3.22    0.40
   0  -6  11    2.88    0.36
  -1   6 -11   70.04    2.46
  -1   6 -11   74.01    2.23
  -1   6 -11   73.16    2.07
  -1   6 -11   74.19    2.54
   1  -6  11   73.55    2.07
   1  -6  11   75.44    2.22
  -2   6 -11   68.82    2.42
  -2   6 -11   67.35    1.92
  -2   6 -11   71.84    2.20
  -2   6 -11   67.75    2.46
   2  -6  11   70.54    1.94
   2  -6  11   67.91    2.15
  -3   6 -11    3.25    0.60
  -3   6 -11    3.79    0.64
  -3   6 -11    4.66    0.43
  -3   6 -11    4.92    0.71
   3  -6  11    5.50    0.47
  -4   6 -11   72.12    2.34
  -4   6 -11   72.54    2.63
  -4   6 -11   68.13    2.14
   4  -6  11   73.93    1.95
  -5   6 -11   50.07    2.17
  -5   6 -11   49.59    1.92
   7   5 -11   25.33    1.49
   7   5 -11   25.33    1.55
   6   5 -11   37.59    1.69
   6   5 -11   36.51    1.12
   5   5 -11    9.11    0.89
   5   5 -11    8.04    0.53
   5   5 -11   10.26    0.58
   5   5 -11    8.24    0.93
   4   5 -11   59.17    2.09
   4   5 -11   59.98    1.72
   4   5 -11   56.62    1.72
   4   5 -11   59.09    1.97
   3   5 -11  118.49    3.50
   3   5 -11  118.13    3.28
   3   5 -11  114.83    3.14
   2   5 -11    5.68    0.78
   2   5 -11    5.56    0.75
   2   5 -11    5.95    0.54
   2   5 -11    6.01    0.54
   1   5 -11   71.46    2.38
   1   5 -11   66.36    2.09
   1   5 -11   69.25    2.32
   1   5 -11   67.31    1.97
  -1  -5  11   68.90    2.01
   0   5 -11   74.64    2.26
   0   5 -11   77.64    2.59
   0   5 -11   77.30    2.13
   0   5 -11   77.64    2.55
   0  -5  11   75.81    2.25
   0  -5  11   76.81    2.14
  -1   5 -11   14.78    0.84
  -1   5 -11   15.83    1.09
  -1   5 -11   14.75    0.65
  -1   5 -11   15.91    1.08
   1  -5  11   15.97    0.66
   1  -5  11   15.82    0.86
  -2   5 -11   30.26    1.27
  -2   5 -11   33.33    1.55
  -2   5 -11   32.52    1.57
  -2   5 -11   32.08    0.98
   2  -5  11   32.18    0.99
   2  -5  11   31.51    1.27
  -3   5 -11  100.75    3.02
  -3   5 -11  104.09    3.36
  -3   5 -11  103.84    3.41
  -4   5 -11   10.50    1.14
  -4   5 -11    9.79    0.88
  -5   5 -11   21.08    1.51
  -5   5 -11   19.34    1.23
   7   4 -11   16.75    1.07
   7   4 -11   13.66    1.22
   7   4 -11   15.43    1.21
   6   4 -11    5.82    0.52
   6   4 -11    7.12    0.80
   6   4 -11    5.79    0.86
   6   4 -11    5.44    0.89
   5   4 -11   62.42    1.80
   5   4 -11   62.34    1.79
   5   4 -11   60.33    2.13
   5   4 -11   59.78    2.08
   5   4 -11   60.23    2.08
   4   4 -11   68.65    2.16
   4   4 -11   71.73    2.04
   4   4 -11   66.66    2.26
   4   4 -11   64.26    2.28
   4   4 -11   68.95    1.98
   4   4 -11   69.24    2.30
   3   4 -11    0.30    0.24
   3   4 -11    0.37    0.35
   3   4 -11    0.75    0.27
   3   4 -11    0.74    0.31
   3   4 -11    0.69    0.36
   2   4 -11   73.38    2.42
   2   4 -11   72.67    2.16
   2   4 -11   75.61    2.13
   2   4 -11   73.79    2.46
   1   4 -11  110.16    3.32
   1   4 -11  109.29    3.13
   1   4 -11  112.02    3.38
   1   4 -11  111.27    2.94
  -1   4 -11  165.43    4.45
  -1   4 -11  165.03    4.71
  -1   4 -11  167.73    4.78
   1  -4  11  165.35    4.44
  -2   4 -11   92.92    3.03
  -2   4 -11   94.66    2.77
  -2   4 -11   95.55    3.09
   2  -4  11   91.21    2.75
  -3   4 -11   -0.28    0.33
  -3   4 -11   -0.35    0.44
  -4   4 -11   50.99    2.21
  -4   4 -11   57.57    1.95
  -5   4 -11   40.69    1.95
  -5   4 -11   38.89    1.97
   7   3 -11   24.44    1.42
   7   3 -11   25.63    1.00
   7   3 -11   28.27    1.27
   6   3 -11   31.33    1.20
   6   3 -11   32.40    1.47
   6   3 -11   32.88    1.17
   6   3 -11   34.59    1.58
   6   3 -11   34.31    1.38
   5   3 -11    0.16    0.28
   5   3 -11    0.29    0.35
   5   3 -11    0.15    0.35
   5   3 -11    0.14    0.38
   5   3 -11   -0.03    0.26
   5   3 -11    0.28    0.36
   4   3 -11   60.30    2.07
   4   3 -11   60.50    1.82
   4   3 -11   61.27    1.84
   4   3 -11   60.93    2.08
   4   3 -11   58.23    1.98
   4   3 -11   58.92    1.95
   3   3 -11   63.34    2.17
   3   3 -11   63.42    1.91
   3   3 -11   62.11    1.86
   3   3 -11   60.68    2.11
   3   3 -11   59.54    1.87
   2   3 -11    5.09    0.77
   2   3 -11    4.81    0.60
   2   3 -11    5.55    0.77
   2   3 -11    4.80    0.74
   1   3 -11  117.69    3.51
   1   3 -11  117.51    3.07
   1   3 -11  119.08    3.55
   0   3 -11  187.72    4.95
   0   3 -11  189.49    5.23
   0   3 -11  187.23    4.69
   0   3 -11  186.98    5.26
   0   3 -11  185.77    4.66
  -1   3 -11    9.44    1.01
  -1   3 -11    8.53    0.69
  -2   3 -11   60.98    1.96
  -2   3 -11   60.95    2.26
   2  -3  11   57.84    1.98
  -3   3 -11   67.52    2.19
  -4   3 -11    8.78    0.89
   7   2 -11   22.12    1.16
   7   2 -11   19.45    1.14
   7   2 -11   17.34    1.06
   7   2 -11   17.74    1.23
   7   2 -11   18.03    1.02
   6   2 -11   17.70    1.00
   6   2 -11   16.34    0.89
   6   2 -11   17.01    1.08
   6   2 -11   13.82    1.01
   6   2 -11   15.65    0.98
   5   2 -11  137.72    3.87
   5   2 -11  138.18    3.89
   5   2 -11  143.15    3.71
   5   2 -11  139.53    3.88
   5   2 -11  125.12    4.06
   4   2 -11   91.73    3.34
   4   2 -11  115.48    2.95
   4   2 -11  107.58    3.03
   4   2 -11   96.94    3.22
   4   2 -11  105.71    3.15
   4   2 -11  111.13    3.18
   3   2 -11   17.31    0.86
   3   2 -11   18.36    0.86
   3   2 -11   18.99    1.08
   3   2 -11   17.45    1.08
   3   2 -11   17.02    0.85
   3   2 -11   16.49    1.18
   3   2 -11   17.51    0.84
   2   2 -11  161.01    4.59
   2   2 -11  164.53    4.59
   2   2 -11  161.58    4.20
   2   2 -11  164.49    4.24
   2   2 -11  163.09    4.35
   1   2 -11   45.75    1.32
   1   2 -11   47.37    1.58
   1   2 -11   46.84    1.83
   1   2 -11   45.21    1.41
   0   2 -11    4.99    0.86
   0   2 -11    2.91    0.40
  -1   2 -11   81.08    2.42
  -1   2 -11   78.08    2.69
  -2   2 -11   37.29    1.43
  -3   2 -11   13.99    0.91
  -4   2 -11   57.13    2.02
   7   1 -11   36.23    1.47
   7   1 -11   37.22    1.65
   7   1 -11   36.89    1.41
   7   1 -11   34.56    1.37
   6   1 -11   47.08    1.78
   6   1 -11   48.37    1.72
   6   1 -11   48.11    1.74
   6   1 -11   45.49    1.60
   6   1 -11   44.19    1.59
   5   1 -11    0.64    0.40
   5   1 -11    1.01    0.39
   5   1 -11    0.50    0.31
   5   1 -11    0.64    0.57
   5   1 -11    0.77    0.38
   5   1 -11    1.00    0.35
   4   1 -11   41.27    1.44
   4   1 -11   40.53    1.58
   4   1 -11   39.36    1.60
   4   1 -11   39.78    1.43
   4   1 -11   41.06    1.48
   4   1 -11   40.38    1.54
   3   1 -11   73.19    2.19
   3   1 -11   76.29    2.49
   3   1 -11   76.09    2.20
   3   1 -11   75.29    2.25
   3   1 -11   74.31    2.28
   3   1 -11   76.59    2.47
   2   1 -11    3.00    0.39
   2   1 -11    3.44    0.41
   2   1 -11    2.89    0.76
   2   1 -11    2.90    0.51
   2   1 -11    2.97    0.40
   2   1 -11    3.47    0.45
   1   1 -11   61.95    1.68
   1   1 -11   60.33    1.95
   1   1 -11   62.21    2.22
   1   1 -11   60.95    1.64
   0   1 -11   94.33    2.73
   0   1 -11   91.32    3.01
  -1   1 -11    6.61    1.02
  -1   1 -11    4.48    0.62
  -2   1 -11   29.13    1.25
  -3   1 -11   71.24    2.31
  -4   1 -11    9.13    0.97
   7   0 -11   16.41    1.19
   7   0 -11   19.29    1.10
   7   0 -11   16.17    1.06
   7   0 -11   17.93    1.03
   6   0 -11   18.56    1.08
   6   0 -11   18.09    1.09
   6   0 -11   17.06    1.01
   6   0 -11   18.75    1.03
   6   0 -11   15.31    0.96
   6   0 -11   17.91    1.60
   5   0 -11   47.51    1.77
   5   0 -11   45.69    1.66
   5   0 -11   43.99    1.67
   5   0 -11   45.14    1.63
   5   0 -11   46.82    1.64
   5   0 -11   48.59    1.94
   4   0 -11   11.19    0.88
   4   0 -11   12.63    0.79
   4   0 -11   12.18    0.81
   4   0 -11   12.36    0.82
   4   0 -11   12.41    0.98
   4   0 -11   10.73    0.77
   3   0 -11   16.52    0.89
   3   0 -11   15.43    0.79
   3   0 -11   16.27    0.80
   3   0 -11   14.88    1.10
   3   0 -11   17.71    0.92
   2   0 -11  106.35    2.80
   2   0 -11  104.34    2.79
   2   0 -11  105.88    3.00
   2   0 -11  103.90    3.27
   2   0 -11  105.49    3.04
   1   0 -11   73.99    2.25
   1   0 -11   69.89    2.53
   1   0 -11   75.37    2.28
   0   0 -11    9.76    0.75
   0   0 -11    9.67    1.14
   0   0 -11    9.95    1.06
  -1   0 -11   81.71    2.50
  -2   0 -11   17.37    1.01
  -3   0 -11    6.78    0.83
   7  -1 -11   30.83    1.29
   7  -1 -11   26.15    1.32
   7  -1 -11   29.65    1.48
   6  -1 -11   39.60    1.58
   6  -1 -11   41.59    1.66
   6  -1 -11   37.90    1.62
   6  -1 -11   41.32    1.63
   6  -1 -11   42.95    1.95
   5  -1 -11    1.53    0.41
   5  -1 -11    0.48    0.42
   5  -1 -11    0.46    0.42
   5  -1 -11    0.41    0.39
   5  -1 -11    0.35    0.37
   5  -1 -11    0.82    0.38
   4  -1 -11   82.33    2.41
   4  -1 -11   77.09    2.42
   4  -1 -11   81.25    2.51
   4  -1 -11   82.05    2.69
   4  -1 -11   80.55    2.49
   3  -1 -11   90.48    3.00
   3  -1 -11   96.18    2.61
   3  -1 -11   90.88    2.74
   3  -1 -11   93.00    2.65
   3  -1 -11   93.66    2.79
   2  -1 -11    5.63    0.50
   2  -1 -11    5.44    0.68
   2  -1 -11    5.57    0.45
   2  -1 -11    7.26    1.02
   2  -1 -11    4.47    0.54
   1  -1 -11   71.00    2.21
   1  -1 -11   65.02    2.49
   0  -1 -11  119.39    3.43
  -1  -1 -11    1.39    0.38
  -2  -1 -11   59.21    2.04
  -3  -1 -11   47.88    1.83
   7  -2 -11   11.32    1.10
   6  -2 -11    8.95    0.91
   6  -2 -11   11.77    1.09
   6  -2 -11   11.10    0.91
   5  -2 -11   52.76    1.94
   5  -2 -11   62.13    2.19
   5  -2 -11   56.06    2.02
   5  -2 -11   61.12    1.98
   4  -2 -11   38.22    1.73
   4  -2 -11   37.37    1.52
   4  -2 -11   38.62    1.53
   4  -2 -11   36.20    1.42
   3  -2 -11   21.68    1.15
   3  -2 -11   24.97    1.46
   3  -2 -11   24.71    0.99
   3  -2 -11   24.56    0.99
   2  -2 -11   78.52    2.14
   2  -2 -11   78.19    3.14
   2  -2 -11   76.87    2.46
   2  -2 -11   79.00    2.13
   1  -2 -11   11.59    0.86
   0  -2 -11   17.00    1.02
   0   2  11   19.22    1.30
  -1  -2 -11   94.06    2.86
   1   2  11   91.90    3.22
  -2  -2 -11   14.19    1.04
   2   2  11   14.95    1.39
   6  -3 -11   12.43    1.04
   6  -3 -11   14.21    0.99
   6  -3 -11   14.73    1.72
   5  -3 -11    8.43    0.89
   5  -3 -11    8.15    0.83
   5  -3 -11    9.28    1.19
   5  -3 -11    5.95    0.71
   4  -3 -11   73.50    2.25
   4  -3 -11   65.79    2.17
   4  -3 -11   68.40    2.34
   4  -3 -11   68.71    2.59
   3  -3 -11   62.13    1.97
   3  -3 -11   68.60    1.96
   3  -3 -11   64.60    2.23
   2  -3 -11    0.44    0.26
   2  -3 -11    1.23    0.42
   2  -3 -11    0.18    0.26
   1  -3 -11   53.26    1.91
  -1   3  11   52.26    2.15
   0  -3 -11   55.05    1.97
   0   3  11   56.72    2.36
  -1  -3 -11    0.94    0.48
   1   3  11   -0.70    0.57
   5  -4 -11   58.86    2.24
   5  -4 -11   55.42    2.07
   5  -4 -11   66.29    2.10
   5  -4 -11   63.85    2.61
   4  -4 -11   11.64    0.92
   4  -4 -11   13.69    1.09
   4  -4 -11   12.89    1.19
   3  -4 -11   18.22    0.89
   3  -4 -11   16.62    1.13
   2  -4 -11   55.88    2.09
  -2   4  11   60.58    2.32
   1  -4 -11   20.11    1.18
  -1   4  11   18.25    1.42
   0  -4 -11   15.32    1.46
   0   4  11   18.87    2.24
   0 -12  12   40.93    1.69
   2  11 -12   12.79    0.81
   2  11 -12   10.28    1.48
  -2 -11  12   14.19    1.02
   1  11 -12   69.54    2.83
   1  11 -12   70.81    2.31
  -1 -11  12   71.97    2.37
  -1 -11  12   71.22    2.13
   0  11 -12   17.21    1.02
   0  11 -12   16.71    1.52
   0 -11  12   18.30    1.06
   0 -11  12   16.95    1.05
  -1  11 -12    8.84    1.34
  -1  11 -12    9.34    0.92
   1 -11  12    9.79    0.84
  -2  11 -12   68.44    2.35
  -2  11 -12   68.40    2.77
   2 -11  12   71.32    2.28
   3  10 -12   45.50    2.25
  -3 -10  12   48.42    1.84
   2  10 -12   41.78    1.39
   2  10 -12   40.24    2.03
  -2 -10  12   38.45    1.58
   1  10 -12    0.19    0.41
   1  10 -12   -0.06    0.55
  -1 -10  12   -0.12    0.35
  -1 -10  12    0.37    0.40
   0  10 -12   57.65    1.91
   0  10 -12   56.95    2.38
   0 -10  12   58.51    1.92
   0 -10  12   59.77    1.97
  -1  10 -12   56.54    1.96
  -1  10 -12   60.41    2.01
  -1  10 -12   57.18    2.40
   1 -10  12   58.59    1.95
   1 -10  12   62.29    2.12
  -2  10 -12   -1.13    0.55
  -2  10 -12   -0.91    0.40
   2 -10  12    1.17    0.41
  -3  10 -12   44.30    1.79
  -3  10 -12   42.36    1.61
  -3  10 -12   43.63    2.13
   3 -10  12   44.97    1.62
   4   9 -12   45.89    2.21
  -4  -9  12   49.08    1.88
   3   9 -12   15.78    1.37
   3   9 -12   16.44    0.77
  -3  -9  12   15.58    1.02
   2   9 -12    5.60    0.62
   2   9 -12    4.99    0.77
  -2  -9  12    5.40    0.71
   1   9 -12  109.11    3.16
   1   9 -12  107.72    3.56
   1   9 -12  108.79    3.05
  -1  -9  12  108.59    3.15
  -1  -9  12  110.14    3.03
   0   9 -12   29.86    1.65
   0   9 -12   32.73    1.28
   0   9 -12   32.42    1.30
   0  -9  12   32.06    1.31
   0  -9  12   31.52    1.28
  -1   9 -12   21.11    1.09
  -1   9 -12   22.52    1.03
  -1   9 -12   22.38    1.41
   1  -9  12   20.75    1.13
   1  -9  12   20.78    1.02
  -2   9 -12   89.97    2.75
  -2   9 -12   87.32    3.09
  -2   9 -12   93.20    2.62
   2  -9  12   86.49    2.59
  -3   9 -12   30.79    1.25
  -3   9 -12   29.07    1.71
  -3   9 -12   30.94    1.46
   3  -9  12   31.24    1.27
   5   8 -12   33.52    1.87
   4   8 -12    8.40    1.16
   4   8 -12    9.82    0.57
   3   8 -12   86.93    2.36
   3   8 -12   83.22    2.92
  -3  -8  12   82.46    2.61
   2   8 -12   73.98    2.31
   2   8 -12   74.28    2.67
   2   8 -12   74.37    2.18
  -2  -8  12   74.70    2.32
   1   8 -12    2.78    0.42
   1   8 -12    2.92    0.42
   1   8 -12    2.09    0.56
  -1  -8  12    2.95    0.44
  -1  -8  12    2.68    0.43
   0   8 -12  137.59    3.73
   0   8 -12  134.78    3.75
   0   8 -12  135.50    4.17
   0  -8  12  137.06    3.73
   0  -8  12  137.56    3.73
  -1   8 -12   76.84    2.75
  -1   8 -12   80.11    2.42
  -1   8 -12   76.87    2.27
   1  -8  12   72.63    2.35
   1  -8  12   76.63    2.27
  -2   8 -12    0.13    0.39
  -2   8 -12   -0.30    0.31
  -2   8 -12    0.38    0.52
   2  -8  12    0.52    0.34
  -3   8 -12   77.44    2.20
  -3   8 -12   76.60    2.49
  -3   8 -12   74.20    2.79
   3  -8  12   74.27    2.20
  -4   8 -12   65.61    2.64
  -4   8 -12   67.18    2.42
   4  -8  12   67.89    2.13
   5   7 -12   26.41    1.59
   4   7 -12  109.10    3.55
   4   7 -12  115.09    3.00
   4   7 -12  114.51    3.00
   3   7 -12   12.95    0.72
   3   7 -12   11.50    0.85
   3   7 -12   12.65    1.10
   2   7 -12   24.46    1.03
   2   7 -12   24.74    1.40
   2   7 -12   26.20    1.09
  -2  -7  12   25.58    1.11
   1   7 -12   82.59    2.45
   1   7 -12   84.82    2.46
   1   7 -12   84.04    2.86
   0   7 -12   14.39    0.80
   0   7 -12   15.52    0.87
   0   7 -12   15.72    1.17
   0  -7  12   13.71    0.79
   0  -7  12   14.70    0.89
  -1   7 -12   41.18    1.36
  -1   7 -12   40.56    1.52
  -1   7 -12   40.38    1.83
   1  -7  12   42.64    1.38
   1  -7  12   39.17    1.51
  -2   7 -12  106.12    2.82
  -2   7 -12  101.69    3.06
  -2   7 -12  102.94    3.41
   2  -7  12  103.49    2.83
  -3   7 -12   27.85    1.16
  -3   7 -12   26.44    1.60
  -3   7 -12   28.63    1.33
   3  -7  12   28.65    1.09
  -4   7 -12    1.21    0.65
  -4   7 -12    2.24    0.58
   6   6 -12   33.75    1.77
   5   6 -12    8.41    1.06
   5   6 -12    9.82    0.60
   4   6 -12    1.92    0.34
   4   6 -12    2.10    0.45
   4   6 -12    1.51    0.53
   3   6 -12   96.93    2.68
   3   6 -12   96.41    3.10
   3   6 -12   93.95    2.79
   2   6 -12   45.69    1.51
   2   6 -12   43.37    1.78
   2   6 -12   38.15    1.88
   2   6 -12   45.36    1.86
   1   6 -12    0.17    0.41
   1   6 -12    0.51    0.30
   1   6 -12   -0.27    0.40
   1   6 -12    0.00    0.27
  -1  -6  12    0.28    0.30
   0   6 -12   78.09    2.34
   0   6 -12   79.82    2.71
   0   6 -12   76.33    2.21
   0   6 -12   74.22    2.69
   0  -6  12   76.34    2.20
   0  -6  12   76.08    2.32
  -1   6 -12   52.07    2.14
  -1   6 -12   53.22    1.59
  -1   6 -12   53.85    1.81
   1  -6  12   53.15    1.80
   1  -6  12   53.87    1.61
  -2   6 -12    3.05    0.42
  -2   6 -12    2.21    0.47
  -2   6 -12    1.73    0.58
   2  -6  12    3.10    0.46
  -3   6 -12   46.29    2.11
  -3   6 -12   51.72    1.84
  -4   6 -12   32.83    1.53
  -4   6 -12   35.34    1.88
   6   5 -12   -0.85    0.49
   6   5 -12    0.09    0.28
   6   5 -12    0.19    0.48
   5   5 -12   12.64    1.10
   5   5 -12   15.21    0.76
   5   5 -12   16.75    0.79
   5   5 -12   15.83    1.11
   4   5 -12   81.35    2.50
   4   5 -12   82.14    2.29
   4   5 -12   79.28    2.67
   4   5 -12   81.38    2.32
   4   5 -12   77.80    2.65
   3   5 -12   18.57    1.20
   3   5 -12   20.11    1.21
   3   5 -12   20.14    0.96
   3   5 -12   19.56    0.93
   2   5 -12   49.76    1.60
   2   5 -12   48.38    1.92
   2   5 -12   50.78    1.67
   2   5 -12   50.54    1.97
   1   5 -12   60.01    1.88
   1   5 -12   59.09    1.75
   1   5 -12   60.39    2.22
   1   5 -12   55.01    2.14
   0   5 -12   38.62    1.39
   0   5 -12   35.78    1.68
   0   5 -12   35.12    1.63
   0   5 -12   35.92    1.17
  -1   5 -12   35.62    1.38
  -1   5 -12   35.02    1.68
  -1   5 -12   33.50    1.08
   1  -5  12   33.65    1.36
  -2   5 -12   94.46    2.84
  -2   5 -12   93.87    3.19
  -3   5 -12   11.05    1.18
  -3   5 -12    9.97    0.90
  -4   5 -12   23.81    1.62
  -4   5 -12   24.14    1.34
   6   4 -12   63.46    2.28
   6   4 -12   63.47    1.88
   6   4 -12   60.75    2.25
   6   4 -12   64.89    2.23
   5   4 -12   39.38    1.34
   5   4 -12   36.56    1.61
   5   4 -12   37.86    1.57
   5   4 -12   39.06    1.69
   5   4 -12   37.89    1.63
   5   4 -12   38.45    1.33
   4   4 -12    0.98    0.40
   4   4 -12    1.03    0.63
   4   4 -12    0.83    0.33
   4   4 -12    1.02    0.43
   4   4 -12    1.02    0.42
   4   4 -12    0.70    0.38
   3   4 -12  178.36    4.64
   3   4 -12  169.73    4.89
   3   4 -12  175.40    4.61
   3   4 -12  177.51    4.94
   3   4 -12  171.35    4.55
   2   4 -12   42.14    1.45
   2   4 -12   40.20    1.73
   2   4 -12   40.66    1.36
   2   4 -12   40.00    1.72
   1   4 -12   22.53    0.87
   1   4 -12   23.01    1.31
   1   4 -12   22.34    1.03
   1   4 -12   23.72    1.31
   0   4 -12  144.29    4.20
   0   4 -12  139.14    3.54
   0   4 -12  139.50    3.82
   0   4 -12  129.92    4.06
  -1   4 -12  123.67    3.53
  -1   4 -12  125.15    3.87
  -2   4 -12    3.78    0.50
  -2   4 -12    5.67    0.97
  -3   4 -12   66.87    2.23
  -3   4 -12   65.18    2.58
  -4   4 -12   23.26    1.62
   6   3 -12    2.09    0.40
   6   3 -12    1.52    0.52
   6   3 -12    2.65    0.51
   6   3 -12    1.36    0.48
   6   3 -12    1.16    0.41
   5   3 -12   15.49    1.08
   5   3 -12   15.45    1.03
   5   3 -12   18.76    1.06
   5   3 -12   17.81    0.90
   5   3 -12   17.05    0.89
   5   3 -12   18.67    1.11
   4   3 -12   29.85    1.18
   4   3 -12   28.30    1.24
   4   3 -12   30.84    1.17
   4   3 -12   30.37    1.42
   4   3 -12   29.51    1.25
   4   3 -12   32.35    1.45
   3   3 -12    2.56    0.41
   3   3 -12    2.28    0.48
   3   3 -12    1.77    0.45
   3   3 -12    2.13    0.39
   3   3 -12    2.29    0.39
   3   3 -12    2.76    0.39
   2   3 -12   74.23    2.16
   2   3 -12   75.51    2.11
   2   3 -12   72.57    2.25
   2   3 -12   71.60    2.49
   2   3 -12   75.69    2.55
   1   3 -12   83.39    2.85
   1   3 -12   88.50    2.61
   1   3 -12   91.87    2.93
   1   3 -12   90.92    2.42
   1   3 -12   85.76    2.35
   0   3 -12    1.51    0.38
   0   3 -12    1.39    0.51
   0   3 -12    2.61    0.69
  -1   3 -12   52.51    1.81
  -2   3 -12   71.61    2.30
  -3   3 -12   18.45    1.10
   7   2 -12   18.90    1.32
   6   2 -12   74.68    2.53
   6   2 -12   77.49    2.34
   6   2 -12   76.66    2.52
   6   2 -12   76.49    2.32
   6   2 -12   77.99    2.51
   5   2 -12   18.33    1.13
   5   2 -12   15.27    1.03
   5   2 -12   17.76    0.94
   5   2 -12   16.65    1.02
   5   2 -12   17.24    1.09
   5   2 -12   18.02    0.94
   4   2 -12   39.04    1.46
   4   2 -12   38.51    1.65
   4   2 -12   37.74    1.44
   4   2 -12   40.04    1.42
   4   2 -12   37.87    1.42
   4   2 -12   40.37    1.64
   3   2 -12   96.35    2.75
   3   2 -12   94.19    3.07
   3   2 -12   99.92    3.06
   3   2 -12   95.36    2.80
   3   2 -12   96.52    2.74
   3   2 -12   92.38    2.70
   2   2 -12   65.45    1.87
   2   2 -12   62.80    2.27
   2   2 -12   60.06    2.00
   2   2 -12   61.64    2.27
   2   2 -12   63.48    1.82
   2   2 -12   62.63    1.98
   1   2 -12    2.62    0.43
   1   2 -12    2.25    0.28
   1   2 -12    2.61    0.34
   1   2 -12    2.56    0.56
   0   2 -12   90.28    2.71
  -1   2 -12   16.22    0.97
  -2   2 -12    1.52    0.43
  -3   2 -12   34.72    1.51
   6   1 -12   10.79    0.97
   6   1 -12   10.20    0.92
   6   1 -12    8.52    0.81
   6   1 -12    8.62    0.93
   5   1 -12   51.72    1.93
   5   1 -12   46.71    1.80
   5   1 -12   49.83    1.78
   5   1 -12   48.52    1.72
   5   1 -12   50.99    1.88
   5   1 -12   51.70    1.74
   4   1 -12   85.17    2.71
   4   1 -12   79.93    2.49
   4   1 -12   83.09    2.74
   4   1 -12   84.87    2.52
   4   1 -12   84.69    2.50
   4   1 -12   82.00    2.53
   3   1 -12    0.79    0.32
   3   1 -12   -0.13    0.31
   3   1 -12   -0.04    0.37
   3   1 -12    0.09    0.30
   3   1 -12    0.40    0.45
   3   1 -12    0.73    0.35
   2   1 -12   21.93    1.33
   2   1 -12   22.61    0.87
   2   1 -12   20.23    1.04
   2   1 -12   22.18    1.09
   2   1 -12   22.77    0.84
   1   1 -12  103.94    3.59
   1   1 -12  108.64    3.12
   0   1 -12   13.57    0.90
  -1   1 -12   70.54    2.29
  -2   1 -12   65.76    2.21
   6   0 -12   28.39    1.33
   6   0 -12   27.71    1.38
   6   0 -12   32.92    1.49
   6   0 -12   29.53    1.41
   5   0 -12   21.63    1.15
   5   0 -12   24.78    1.34
   5   0 -12   23.93    1.17
   5   0 -12   22.21    1.18
   5   0 -12   24.71    1.25
   4   0 -12   28.56    1.27
   4   0 -12   28.02    1.20
   4   0 -12   27.72    1.38
   4   0 -12   28.35    1.47
   4   0 -12   27.78    1.19
   3   0 -12  106.38    2.87
   3   0 -12  105.76    2.87
   3   0 -12  100.52    3.05
   3   0 -12  100.70    3.28
   2   0 -12   39.98    1.57
   2   0 -12   41.30    1.26
   2   0 -12   42.56    1.34
   1   0 -12    3.41    0.48
   0   0 -12   92.83    2.82
  -1   0 -12   21.10    1.13
  -1   0 -12   19.97    1.64
  -2   0 -12    8.04    1.43
  -2   0 -12    9.77    0.95
   6  -1 -12    0.49    0.46
   6  -1 -12    0.14    0.41
   6  -1 -12    0.04    0.48
   6  -1 -12    0.68    0.54
   5  -1 -12   33.52    1.37
   5  -1 -12   31.96    1.47
   5  -1 -12   31.75    1.43
   5  -1 -12   29.27    1.39
   5  -1 -12   32.90    1.62
   4  -1 -12   43.54    1.61
   4  -1 -12   44.21    1.73
   4  -1 -12   48.95    1.63
   4  -1 -12   46.17    1.93
   3  -1 -12    0.23    0.38
   3  -1 -12    0.38    0.31
   3  -1 -12    0.22    0.31
   2  -1 -12   66.74    2.28
   2  -1 -12   70.38    1.92
   2  -1 -12   70.37    1.92
   1  -1 -12   61.00    2.09
   0  -1 -12    0.58    0.41
  -1  -1 -12   41.99    1.68
   5  -2 -12   19.49    1.17
   5  -2 -12   21.57    1.13
   5  -2 -12   22.65    1.54
   5  -2 -12   19.00    1.23
   4  -2 -12   17.88    1.03
   4  -2 -12   20.20    1.18
   4  -2 -12   18.54    0.99
   3  -2 -12   56.80    1.71
   3  -2 -12   51.94    1.99
   3  -2 -12   55.67    1.85
   2  -2 -12   14.70    0.67
   2  -2 -12   13.77    1.02
   1  -2 -12   16.73    1.08
   0  -2 -12   63.21    2.20
   4  -3 -12   37.67    1.74
   4  -3 -12   41.70    1.49
   3  -3 -12    1.28    0.53
   3  -3 -12    0.32    0.37
   2  -3 -12   44.48    1.81
   0 -11  13    7.78    0.89
   2  10 -13   -0.40    0.37
   2  10 -13   -0.46    0.67
  -2 -10  13    0.44    0.46
   1  10 -13   32.19    1.88
   1  10 -13   33.27    1.34
  -1 -10  13   33.18    1.42
  -1 -10  13   33.69    1.36
   0  10 -13   65.56    2.14
   0  10 -13   62.63    2.62
   0 -10  13   62.50    2.12
   0 -10  13   66.47    2.26
  -1  10 -13    0.63    0.66
  -1  10 -13    3.08    0.52
  -1  10 -13    1.99    0.51
   1 -10  13    1.91    0.49
  -2  10 -13   39.95    2.56
  -2  10 -13   42.81    1.76
  -2  10 -13   36.61    1.94
   2 -10  13   45.27    1.60
   3   9 -13   24.97    1.04
   3   9 -13   23.43    1.68
  -3  -9  13   26.44    1.30
   2   9 -13   63.92    2.58
   2   9 -13   62.31    2.15
  -2  -9  13   64.72    2.14
   1   9 -13   28.25    1.70
   1   9 -13   29.79    1.24
   1   9 -13   30.59    1.30
  -1  -9  13   29.65    1.28
  -1  -9  13   29.90    1.30
   0   9 -13   31.91    1.34
   0   9 -13   29.31    1.72
   0   9 -13   31.07    1.32
   0  -9  13   30.35    1.36
   0  -9  13   32.22    1.29
  -1   9 -13  123.28    3.60
  -1   9 -13  125.92    3.50
  -1   9 -13  123.78    4.05
   1  -9  13  127.11    3.51
  -2   9 -13   13.31    1.38
  -2   9 -13   11.06    1.05
   2  -9  13   12.42    0.95
   4   8 -13   55.80    2.42
   4   8 -13   60.81    1.92
   3   8 -13   39.30    1.93
   3   8 -13   39.44    1.40
   2   8 -13    4.80    0.77
   2   8 -13    5.26    0.65
   2   8 -13    4.24    0.54
  -2  -8  13    5.29    0.72
   1   8 -13   53.24    1.78
   1   8 -13   53.00    2.23
   1   8 -13   53.17    1.79
  -1  -8  13   53.98    1.81
   0   8 -13   70.33    2.20
   0   8 -13   67.96    2.10
   0   8 -13   65.31    2.58
   0  -8  13   66.55    2.19
   0  -8  13   69.28    2.13
  -1   8 -13    6.01    0.69
  -1   8 -13    4.99    0.76
  -1   8 -13    4.61    0.59
   1  -8  13    5.77    0.69
  -2   8 -13   54.46    2.00
  -2   8 -13   55.08    2.37
   2  -8  13   56.84    1.78
  -3   8 -13   48.09    1.99
  -3   8 -13   46.66    2.25
   5   7 -13   45.82    2.07
   4   7 -13   11.03    1.22
   4   7 -13   12.27    1.00
   4   7 -13   10.79    0.72
   3   7 -13   36.58    1.34
   3   7 -13   32.86    1.40
   3   7 -13   35.90    1.75
   2   7 -13   63.83    2.04
   2   7 -13   63.31    2.44
   2   7 -13   63.73    1.99
   1   7 -13   11.15    0.75
   1   7 -13    9.89    0.79
   1   7 -13   10.12    1.10
  -1  -7  13   10.45    0.78
   0   7 -13   29.34    1.14
   0   7 -13   28.20    1.61
   0   7 -13   27.12    1.25
   0  -7  13   27.53    1.27
   0  -7  13   29.41    1.15
  -1   7 -13  123.70    3.98
  -1   7 -13  124.25    3.34
  -1   7 -13  124.71    3.59
   1  -7  13  126.22    3.37
  -2   7 -13   33.32    1.47
  -2   7 -13   31.04    1.78
   2  -7  13   33.30    1.17
  -3   7 -13    4.72    0.83
  -3   7 -13    3.82    0.63
   5   6 -13    1.92    0.62
   5   6 -13    3.63    0.41
   4   6 -13   56.17    1.73
   4   6 -13   54.82    2.20
   3   6 -13   59.31    2.31
   3   6 -13   61.68    1.99
   3   6 -13   60.48    1.91
   2   6 -13    0.49    0.50
   2   6 -13    0.97    0.34
   2   6 -13    0.63    0.34
   1   6 -13   58.68    1.82
   1   6 -13   58.49    2.30
   1   6 -13   57.23    1.91
   0   6 -13   69.27    2.59
   0   6 -13   69.37    2.23
   0   6 -13   70.10    2.03
  -1   6 -13   -0.01    0.39
  -1   6 -13   -0.22    0.27
  -1   6 -13   -0.09    0.51
  -2   6 -13   33.96    1.86
  -2   6 -13   34.03    1.51
  -3   6 -13   22.91    1.36
  -3   6 -13   22.08    1.68
   5   5 -13   46.06    1.98
   5   5 -13   50.01    1.70
   4   5 -13   10.61    0.73
   4   5 -13    8.51    1.06
   4   5 -13    9.50    0.85
   4   5 -13    8.56    1.03
   4   5 -13    9.56    1.05
   3   5 -13   24.51    1.08
   3   5 -13   24.22    1.03
   3   5 -13   24.41    1.39
   3   5 -13   24.67    1.08
   2   5 -13  124.68    3.46
   2   5 -13  123.77    3.84
   2   5 -13  121.94    3.37
   1   5 -13    9.65    1.10
   1   5 -13   12.86    0.69
   1   5 -13   11.63    0.81
   0   5 -13   40.27    1.87
   0   5 -13   40.01    1.26
   0   5 -13   40.21    1.54
  -1   5 -13   75.06    2.77
  -1   5 -13   73.21    2.39
  -2   5 -13   10.03    0.96
  -2   5 -13   11.07    1.28
  -3   5 -13   30.60    1.86
   6   4 -13   18.56    1.28
   5   4 -13   12.42    0.83
   5   4 -13   12.04    0.80
   5   4 -13    9.94    1.08
   5   4 -13    9.76    0.95
   4   4 -13   74.27    2.35
   4   4 -13   74.15    2.56
   4   4 -13   73.27    2.23
   4   4 -13   70.78    2.31
   4   4 -13   72.31    2.19
   3   4 -13   18.51    0.92
   3   4 -13   16.61    0.90
   3   4 -13   14.83    1.16
   3   4 -13   15.27    0.93
   3   4 -13   15.71    0.86
   2   4 -13   12.04    0.85
   2   4 -13   14.10    0.73
   2   4 -13   14.00    1.15
   2   4 -13   13.55    0.81
   1   4 -13  132.67    4.12
   1   4 -13  133.23    3.76
   1   4 -13  135.60    3.51
   1   4 -13  134.44    3.55
   0   4 -13   40.03    1.55
   0   4 -13   41.97    1.23
   0   4 -13   39.05    1.87
   0   4 -13   40.61    1.20
  -1   4 -13    1.82    0.57
  -1   4 -13    1.59    0.44
  -2   4 -13   45.12    2.11
  -2   4 -13   43.98    1.74
   6   3 -13    6.11    0.74
   6   3 -13    8.24    0.99
   6   3 -13    6.28    1.01
   5   3 -13   66.62    2.37
   5   3 -13   67.63    2.12
   5   3 -13   65.86    2.10
   5   3 -13   66.58    2.26
   4   3 -13    0.56    0.46
   4   3 -13    0.31    0.38
   4   3 -13    0.62    0.40
   4   3 -13    0.23    0.40
   4   3 -13    0.84    0.38
   3   3 -13   29.12    1.39
   3   3 -13   30.50    1.26
   3   3 -13   29.98    1.18
   3   3 -13   30.00    1.67
   3   3 -13   28.69    1.21
   3   3 -13   30.81    1.53
   2   3 -13   51.77    1.58
   2   3 -13   50.08    1.78
   2   3 -13   50.48    2.05
   2   3 -13   54.09    1.65
   1   3 -13   12.49    1.12
   1   3 -13   12.48    0.90
   1   3 -13   13.45    0.66
   1   3 -13   13.69    0.61
   0   3 -13   66.31    2.55
   0   3 -13   67.74    2.23
  -1   3 -13   76.46    2.47
  -1   3 -13   76.09    2.86
  -2   3 -13    4.63    0.60
   6   2 -13    4.93    0.68
   6   2 -13    5.50    0.78
   5   2 -13   12.97    1.02
   5   2 -13   10.44    0.88
   5   2 -13   10.68    1.07
   5   2 -13   11.79    0.93
   5   2 -13   12.02    0.95
   4   2 -13  104.90    3.09
   4   2 -13  109.52    3.20
   4   2 -13  104.53    3.32
   4   2 -13  102.34    3.04
   4   2 -13  104.65    3.06
   3   2 -13   33.90    1.25
   3   2 -13   34.37    1.63
   3   2 -13   32.75    1.37
   3   2 -13   34.00    1.29
   2   2 -13    0.52    0.30
   2   2 -13   -0.05    0.36
   2   2 -13    0.84    0.76
   2   2 -13    0.63    0.46
   2   2 -13    1.19    0.32
   1   2 -13   65.96    1.75
   1   2 -13   64.54    2.16
   0   2 -13   41.46    1.62
  -1   2 -13    0.74    0.46
   5   1 -13   59.70    2.06
   5   1 -13   61.41    2.08
   5   1 -13   58.20    2.07
   5   1 -13   61.68    2.24
   4   1 -13    0.73    0.45
   4   1 -13    0.75    0.42
   4   1 -13    1.56    0.43
   4   1 -13    0.66    0.41
   3   1 -13   54.51    2.15
   3   1 -13   55.92    1.74
   3   1 -13   56.00    1.73
   3   1 -13   52.39    1.92
   2   1 -13   78.92    2.55
   2   1 -13   81.18    2.21
   2   1 -13   82.58    2.24
   1   1 -13    1.48    0.46
   0   1 -13   45.44    2.28
   0   1 -13   44.32    1.73
  -1   1 -13   44.79    2.34
  -1   1 -13   45.48    1.79
   5   0 -13   17.42    1.11
   5   0 -13   14.34    1.08
   5   0 -13   16.30    1.20
   5   0 -13   16.88    1.10
   4   0 -13   64.70    2.10
   4   0 -13   65.82    2.39
   4   0 -13   65.23    2.12
   4   0 -13   65.86    2.25
   3   0 -13   23.93    1.01
   3   0 -13   23.36    1.22
   3   0 -13   21.42    1.21
   2   0 -13    5.33    0.51
   2   0 -13    4.52    0.59
   1   0 -13   83.94    2.69
   0   0 -13   24.26    1.28
   4  -1 -13    0.34    0.48
   4  -1 -13   -0.68    0.38
   3  -1 -13   35.16    1.26
   3  -1 -13   35.26    1.59
   2  -1 -13   40.99    1.72
   1  -1 -13    0.52    0.50
   2   9 -14    5.48    1.29
  -2  -9  14    6.05    0.84
   1   9 -14   13.68    0.98
   1   9 -14   15.40    2.02
  -1  -9  14   16.09    1.02
   0   9 -14   92.05    2.84
   0   9 -14   91.50    2.79
   0  -9  14   93.57    2.78
   3   8 -14    0.81    0.39
   3   8 -14    0.87    0.67
   2   8 -14   35.32    1.42
   2   8 -14   37.17    1.93
   1   8 -14   44.45    1.60
   1   8 -14   43.49    1.64
   1   8 -14   41.38    2.06
  -1  -8  14   44.93    1.64
   0   8 -14    0.93    0.67
   0   8 -14    1.50    0.50
   0   8 -14    1.19    0.47
   0  -8  14    2.41    0.49
  -1   8 -14   59.64    2.04
   1  -8  14   47.84    2.17
   3   7 -14   50.70    2.23
   3   7 -14   53.26    1.76
   2   7 -14   12.05    0.90
   2   7 -14   11.36    0.89
   2   7 -14   11.84    1.28
   1   7 -14   40.99    1.60
   1   7 -14   43.33    1.50
   1   7 -14   41.70    2.03
   0   7 -14   88.33    3.22
   0   7 -14   91.57    2.80
  -1   7 -14   20.21    1.58
  -1   7 -14   21.96    1.24
   4   6 -14   24.50    1.61
   4   6 -14   28.99    1.18
   3   6 -14    0.63    0.38
   3   6 -14    1.55    0.42
   3   6 -14    0.90    0.59
   2   6 -14   65.17    2.58
   2   6 -14   67.36    2.06
   2   6 -14   64.25    2.14
   1   6 -14   71.80    2.13
   1   6 -14   70.27    2.73
   1   6 -14   71.90    2.31
   0   6 -14    0.90    0.58
   0   6 -14    0.62    0.44
  -1   6 -14   17.52    1.49
  -1   6 -14   15.39    1.13
   4   5 -14   27.06    1.23
   4   5 -14   28.05    1.62
   4   5 -14   29.50    1.22
   4   5 -14   27.67    1.60
   4   5 -14   30.44    1.39
   3   5 -14   72.54    2.25
   3   5 -14   71.07    2.23
   3   5 -14   68.40    2.64
   3   5 -14   72.75    2.27
   2   5 -14   18.71    1.42
   2   5 -14   19.89    0.94
   2   5 -14   17.51    1.04
   1   5 -14   41.98    1.69
   1   5 -14   44.56    2.11
   1   5 -14   51.47    1.86
   0   5 -14   58.07    2.45
   0   5 -14   60.14    2.06
   0   5 -14   55.61    1.96
  -1   5 -14    2.91    0.72
  -1   5 -14    2.53    0.56
   4   4 -14   15.35    1.03
   4   4 -14   15.39    1.31
   4   4 -14   16.05    0.98
   4   4 -14   17.04    1.03
   3   4 -14    8.25    0.73
   3   4 -14    7.13    1.08
   3   4 -14    5.80    0.75
   3   4 -14    6.00    1.09
   3   4 -14    6.72    0.80
   2   4 -14   76.49    2.25
   2   4 -14   76.06    2.20
   2   4 -14   73.38    2.76
   2   4 -14   73.85    2.41
   1   4 -14   39.73    1.29
   1   4 -14   37.91    1.56
   1   4 -14   36.92    1.91
   0   4 -14    4.71    0.61
   0   4 -14    4.68    0.80
  -1   4 -14   44.92    1.85
  -1   4 -14   51.49    3.00
   4   3 -14   29.58    1.61
   4   3 -14   30.18    1.33
   4   3 -14   28.79    1.32
   4   3 -14   28.69    1.30
   3   3 -14   56.42    1.87
   3   3 -14   58.31    1.85
   3   3 -14   54.62    2.28
   3   3 -14   57.73    1.98
   2   3 -14    2.48    0.50
   2   3 -14    2.02    0.60
   2   3 -14    1.47    0.38
   2   3 -14    2.64    0.89
   1   3 -14   34.70    1.86
   1   3 -14   35.88    1.53
   0   3 -14   49.73    1.88
   0   3 -14   48.12    2.23
   4   2 -14   21.04    1.15
   4   2 -14   18.64    1.40
   4   2 -14   23.03    1.20
   4   2 -14   20.72    1.62
   3   2 -14    2.03    0.60
   3   2 -14    3.20    0.48
   3   2 -14    2.36    0.51
   2   2 -14   62.54    2.49
   2   2 -14   62.95    2.19
   1   2 -14   53.99    1.98
   1   2 -14   52.16    2.50
   1   2 -14   53.48    2.34
   0   2 -14    3.45    0.68
   3   1 -14   46.13    1.85
   3   1 -14   49.36    2.12
   3   1 -14   46.38    1.75
   2   1 -14    2.61    0.65
   2   1 -14    2.19    0.56
   1   1 -14   22.96    1.61
   0   0   0    0.00    0.00
;
_shelx_hkl_checksum              51576
loop_
_space_group_symop_operation_xyz
'x, y, z'
'-x, -y, -z'
loop_
_atom_site_label
_atom_site_type_symbol
_atom_site_fract_x
_atom_site_fract_y
_atom_site_fract_z
_atom_site_U_iso_or_equiv
_atom_site_adp_type
_atom_site_occupancy
_atom_site_site_symmetry_order
_atom_site_calc_flag
_atom_site_refinement_flags_posn
_atom_site_refinement_flags_adp
_atom_site_refinement_flags_occupancy
_atom_site_disorder_assembly
_atom_site_disorder_group
Dy1 Dy 0.66324(2) 0.75660(2) 0.66476(2) 0.01480(6) Uani 1 1 d . . . . .
C1 C 0.4399(3) 0.5670(2) 0.3422(2) 0.0185(5) Uani 1 1 d . . . . .
C2 C 0.4039(3) 0.6271(2) 0.2445(2) 0.0165(4) Uani 1 1 d . . . . .
C3 C 0.4326(3) 0.7688(2) 0.2874(2) 0.0165(4) Uani 1 1 d . . . . .
H3A H 0.4849 0.8262 0.3747 0.020 Uiso 1 1 calc R U . . .
C4 C 0.3822(3) 0.8232(2) 0.1986(2) 0.0162(4) Uani 1 1 d . . . . .
C5 C 0.3859(3) 0.9718(2) 0.2452(2) 0.0161(4) Uani 1 1 d . . . . .
C6 C 0.3081(3) 0.7371(2) 0.0676(2) 0.0185(5) Uani 1 1 d . . . . .
H6A H 0.2750 0.7739 0.0087 0.022 Uiso 1 1 calc R U . . .
C7 C 0.2827(3) 0.5957(2) 0.0235(2) 0.0175(5) Uani 1 1 d . . . . .
C8 C 0.3308(3) 0.5417(2) 0.1136(2) 0.0187(5) Uani 1 1 d . . . . .
H8A H 0.3136 0.4479 0.0855 0.022 Uiso 1 1 calc R U . . .
C9 C 0.1954(3) 0.5074(2) -0.1146(2) 0.0202(5) Uani 1 1 d . . . . .
O1 O 0.4930(3) 0.64762(18) 0.45987(16) 0.0344(5) Uani 1 1 d . . . . .
O2 O 0.4112(3) 0.43973(16) 0.30007(16) 0.0273(4) Uani 1 1 d . . . . .
O3 O 0.4748(2) 1.05673(15) 0.35782(15) 0.0196(3) Uani 1 1 d . . . . .
O4 O 0.2873(2) 1.00977(16) 0.17002(16) 0.0218(4) Uani 1 1 d . . . . .
O5 O 0.4027(3) 0.7556(2) 0.7515(3) 0.0472(6) Uani 1 1 d D . . . .
H5A H 0.371(5) 0.827(2) 0.787(4) 0.071 Uiso 1 1 d D U . . .
H5B H 0.338(5) 0.689(2) 0.759(4) 0.071 Uiso 1 1 d D U . . .
O6 O 0.8705(3) 0.8963(2) 0.6012(2) 0.0374(5) Uani 1 1 d D . . . .
H6B H 0.834(4) 0.957(3) 0.584(4) 0.056 Uiso 1 1 d D U . . .
H6C H 0.975(3) 0.893(3) 0.587(4) 0.056 Uiso 1 1 d D U . . .
O7 O 0.8760(3) 0.6284(2) 0.5733(2) 0.0422(5) Uani 1 1 d D . . . .
H7A H 0.884(5) 0.606(4) 0.4980(15) 0.063 Uiso 1 1 d D U . . .
H7B H 0.918(5) 0.584(3) 0.609(3) 0.063 Uiso 1 1 d D U . . .
O8 O 0.9184(3) 0.7919(2) 0.83685(18) 0.0302(4) Uani 1 1 d D . . . .
H8B H 0.909(4) 0.797(3) 0.9102(16) 0.045 Uiso 1 1 d D U . . .
H8C H 1.022(3) 0.839(3) 0.842(3) 0.045 Uiso 1 1 d D U . . .
O9 O 0.7043(4) 0.0247(2) 0.0932(2) 0.0556(6) Uani 1 1 d D . . . .
H9B H 0.742(6) -0.037(4) 0.099(5) 0.083 Uiso 1 1 d D U . . .
O10 O 0.0945(3) 0.1611(2) 0.9157(2) 0.0350(4) Uani 1 1 d D . . . .
H10A H -0.012(3) 0.106(3) 0.879(3) 0.052 Uiso 1 1 d D U . . .
H10B H 0.106(4) 0.226(2) 0.894(3) 0.052 Uiso 1 1 d D U . . .
O11 O 0.8284(2) 1.08862(18) 0.50469(18) 0.0290(4) Uani 1 1 d D . . . .
H11A H 0.872(4) 1.1640(18) 0.567(2) 0.043 Uiso 1 1 d D U . . .
H11B H 0.725(3) 1.081(3) 0.460(2) 0.043 Uiso 1 1 d D U . . .
N1 N 0.1138(3) 0.3733(2) -0.16322(19) 0.0258(5) Uani 1 1 d . . . . .
N2 N 0.0450(3) 0.3352(2) -0.2905(2) 0.0335(5) Uani 1 1 d . . . . .
N3 N 0.0861(4) 0.4412(2) -0.3177(2) 0.0414(6) Uani 1 1 d . . . . .
N4 N 0.1825(4) 0.5523(2) -0.2085(2) 0.0380(6) Uani 1 1 d . . . . .
loop_
_atom_site_aniso_label
_atom_site_aniso_U_11
_atom_site_aniso_U_22
_atom_site_aniso_U_33
_atom_site_aniso_U_23
_atom_site_aniso_U_13
_atom_site_aniso_U_12
Dy1 0.02307(8) 0.00934(7) 0.01240(7) 0.00513(5) 0.00298(4) 0.00529(4)
C1 0.0259(12) 0.0123(11) 0.0166(12) 0.0071(9) 0.0016(9) 0.0045(9)
C2 0.0223(11) 0.0121(10) 0.0151(11) 0.0063(9) 0.0034(9) 0.0041(9)
C3 0.0222(11) 0.0103(10) 0.0142(11) 0.0039(9) 0.0022(9) 0.0027(9)
C4 0.0205(11) 0.0118(10) 0.0162(11) 0.0059(9) 0.0046(9) 0.0041(9)
C5 0.0196(11) 0.0126(11) 0.0185(12) 0.0086(9) 0.0067(9) 0.0040(9)
C6 0.0257(12) 0.0159(11) 0.0168(11) 0.0100(9) 0.0049(9) 0.0061(9)
C7 0.0233(11) 0.0142(11) 0.0146(11) 0.0060(9) 0.0046(9) 0.0038(9)
C8 0.0278(12) 0.0092(10) 0.0172(12) 0.0041(9) 0.0047(9) 0.0042(9)
C9 0.0272(12) 0.0153(11) 0.0156(12) 0.0059(9) 0.0051(9) 0.0016(9)
O1 0.0635(13) 0.0180(9) 0.0146(9) 0.0062(7) -0.0038(8) 0.0082(9)
O2 0.0487(11) 0.0113(8) 0.0228(9) 0.0097(7) 0.0054(8) 0.0077(7)
O3 0.0251(8) 0.0111(7) 0.0181(8) 0.0039(7) 0.0001(7) 0.0043(6)
O4 0.0315(9) 0.0134(8) 0.0194(8) 0.0075(7) -0.0003(7) 0.0079(7)
O5 0.0557(14) 0.0246(10) 0.0863(17) 0.0328(12) 0.0510(13) 0.0181(10)
O6 0.0362(11) 0.0423(12) 0.0607(14) 0.0387(11) 0.0296(10) 0.0206(9)
O7 0.0717(15) 0.0526(13) 0.0316(11) 0.0276(10) 0.0305(11) 0.0471(12)
O8 0.0285(10) 0.0360(11) 0.0259(10) 0.0152(8) 0.0005(8) 0.0087(8)
O9 0.0897(19) 0.0470(14) 0.0580(15) 0.0303(12) 0.0417(14) 0.0439(13)
O10 0.0340(10) 0.0303(10) 0.0369(11) 0.0180(9) -0.0033(9) 0.0023(8)
O11 0.0232(9) 0.0264(9) 0.0303(10) 0.0068(8) 0.0025(8) 0.0052(8)
N1 0.0370(12) 0.0168(10) 0.0161(10) 0.0039(8) 0.0021(9) 0.0003(9)
N2 0.0444(14) 0.0264(12) 0.0150(11) 0.0029(9) 0.0010(10) -0.0062(10)
N3 0.0606(16) 0.0334(13) 0.0149(11) 0.0096(10) -0.0017(11) -0.0116(12)
N4 0.0606(16) 0.0252(12) 0.0158(11) 0.0105(9) -0.0018(10) -0.0111(11)
loop_
_atom_type_symbol
_atom_type_description
_atom_type_scat_dispersion_real
_atom_type_scat_dispersion_imag
_atom_type_scat_source
C C 0.0033 0.0016 'International Tables Vol C Tables 4.2.6.8 and 6.1.1.4'
Dy Dy -0.1892 4.4098 'International Tables Vol C Tables 4.2.6.8 and 6.1.1.4'
N N 0.0061 0.0033 'International Tables Vol C Tables 4.2.6.8 and 6.1.1.4'
O O 0.0106 0.0060 'International Tables Vol C Tables 4.2.6.8 and 6.1.1.4'
H H 0.0000 0.0000 'International Tables Vol C Tables 4.2.6.8 and 6.1.1.4'
loop_
_geom_angle_atom_site_label_1
_geom_angle_atom_site_label_2
_geom_angle_atom_site_label_3
_geom_angle
_geom_angle_site_symmetry_1
_geom_angle_site_symmetry_3
O1 Dy1 O2 91.58(6) . 2_666
O1 Dy1 O5 94.33(9) . .
O2 Dy1 O5 71.06(7) 2_666 .
O1 Dy1 O6 89.11(8) . .
O2 Dy1 O6 148.03(7) 2_666 .
O5 Dy1 O6 140.74(7) . .
O1 Dy1 O8 152.23(7) . .
O2 Dy1 O8 76.52(7) 2_666 .
O5 Dy1 O8 105.00(9) . .
O6 Dy1 O8 88.31(7) . .
O1 Dy1 O7 81.09(8) . .
O2 Dy1 O7 75.97(7) 2_666 .
O5 Dy1 O7 146.59(7) . .
O6 Dy1 O7 72.57(7) . .
O8 Dy1 O7 71.77(7) . .
O1 Dy1 O4 132.16(6) . 2_676
O2 Dy1 O4 124.52(6) 2_666 2_676
O5 Dy1 O4 73.09(7) . 2_676
O6 Dy1 O4 75.80(7) . 2_676
O8 Dy1 O4 73.61(6) . 2_676
O7 Dy1 O4 133.11(8) . 2_676
O1 Dy1 O3 80.10(6) . 2_676
O2 Dy1 O3 141.54(6) 2_666 2_676
O5 Dy1 O3 72.23(6) . 2_676
O6 Dy1 O3 69.90(6) . 2_676
O8 Dy1 O3 124.48(6) . 2_676
O7 Dy1 O3 137.97(6) . 2_676
O4 Dy1 O3 52.06(5) 2_676 2_676
O1 Dy1 C5 105.92(6) . 2_676
O2 Dy1 C5 139.95(6) 2_666 2_676
O5 Dy1 C5 71.90(6) . 2_676
O6 Dy1 C5 69.57(7) . 2_676
O8 Dy1 C5 99.03(7) . 2_676
O7 Dy1 C5 141.28(7) . 2_676
O4 Dy1 C5 26.27(6) 2_676 2_676
O3 Dy1 C5 25.85(6) 2_676 2_676
O1 C1 O2 124.6(2) . .
O1 C1 C2 117.68(19) . .
O2 C1 C2 117.7(2) . .
C8 C2 C3 120.2(2) . .
C8 C2 C1 120.10(19) . .
C3 C2 C1 119.6(2) . .
C4 C3 C2 119.7(2) . .
C4 C3 H3A 120.2 . .
C2 C3 H3A 120.2 . .
C6 C4 C3 120.0(2) . .
C6 C4 C5 119.4(2) . .
C3 C4 C5 120.3(2) . .
O3 C5 O4 119.86(19) . .
O3 C5 C4 121.41(19) . .
O4 C5 C4 118.6(2) . .
O3 C5 Dy1 61.40(11) . 2_676
O4 C5 Dy1 58.66(11) . 2_676
C4 C5 Dy1 171.63(15) . 2_676
C4 C6 C7 120.7(2) . .
C4 C6 H6A 119.6 . .
C7 C6 H6A 119.6 . .
C8 C7 C6 118.9(2) . .
C8 C7 C9 121.8(2) . .
C6 C7 C9 119.1(2) . .
C2 C8 C7 120.5(2) . .
C2 C8 H8A 119.7 . .
C7 C8 H8A 119.7 . .
N1 C9 N4 110.7(2) . .
N1 C9 C7 125.2(2) . .
N4 C9 C7 124.1(2) . .
C1 O1 Dy1 161.03(18) . .
C1 O2 Dy1 148.56(16) . 2_666
C5 O3 Dy1 92.75(13) . 2_676
C5 O4 Dy1 95.07(13) . 2_676
Dy1 O5 H5A 122(2) . .
Dy1 O5 H5B 126(2) . .
H5A O5 H5B 111.3(18) . .
Dy1 O6 H6B 118(2) . .
Dy1 O6 H6C 131(2) . .
H6B O6 H6C 111.3(17) . .
Dy1 O7 H7A 124(2) . .
Dy1 O7 H7B 118(2) . .
H7A O7 H7B 114.7(18) . .
Dy1 O8 H8B 125(2) . .
Dy1 O8 H8C 117(2) . .
H8B O8 H8C 110.7(17) . .
H10A O10 H10B 111.1(17) . .
H11A O11 H11B 113.3(17) . .
C9 N1 N2 105.5(2) . .
N3 N2 N1 109.3(2) . .
N2 N3 N4 109.5(2) . .
C9 N4 N3 105.0(2) . .
loop_
_geom_bond_atom_site_label_1
_geom_bond_atom_site_label_2
_geom_bond_distance
_geom_bond_site_symmetry_2
Dy1 O1 2.2253(17) .
Dy1 O2 2.3143(16) 2_666
Dy1 O5 2.3301(19) .
Dy1 O6 2.3643(18) .
Dy1 O8 2.3721(18) .
Dy1 O7 2.4257(19) .
Dy1 O4 2.4657(16) 2_676
Dy1 O3 2.5277(15) 2_676
Dy1 C5 2.876(2) 2_676
C1 O1 1.253(3) .
C1 O2 1.254(3) .
C1 C2 1.510(3) .
C2 C8 1.389(3) .
C2 C3 1.401(3) .
C3 C4 1.395(3) .
C3 H3A 0.9300 .
C4 C6 1.392(3) .
C4 C5 1.504(3) .
C5 O3 1.255(3) .
C5 O4 1.278(3) .
C5 Dy1 2.876(2) 2_676
C6 C7 1.401(3) .
C6 H6A 0.9300 .
C7 C8 1.399(3) .
C7 C9 1.471(3) .
C8 H8A 0.9300 .
C9 N1 1.335(3) .
C9 N4 1.338(3) .
O2 Dy1 2.3143(16) 2_666
O3 Dy1 2.5277(15) 2_676
O4 Dy1 2.4657(16) 2_676
O5 H5A 0.831(10) .
O5 H5B 0.832(10) .
O6 H6B 0.832(10) .
O6 H6C 0.831(10) .
O7 H7A 0.823(10) .
O7 H7B 0.817(10) .
O8 H8B 0.838(10) .
O8 H8C 0.830(10) .
O9 H9B 0.797(19) .
O10 H10A 0.837(10) .
O10 H10B 0.831(10) .
O11 H11A 0.828(10) .
O11 H11B 0.825(10) .
N1 N2 1.341(3) .
N2 N3 1.305(3) .
N3 N4 1.347(3) .
loop_
_geom_hbond_atom_site_label_D
_geom_hbond_atom_site_label_H
_geom_hbond_atom_site_label_A
_geom_hbond_distance_DH
_geom_hbond_distance_HA
_geom_hbond_distance_DA
_geom_hbond_angle_DHA
_geom_hbond_site_symmetry_A
O5 H5A O9 0.831(10) 1.944(15) 2.754(3) 165(4) 2_666
O5 H5B N4 0.832(10) 1.912(12) 2.741(3) 174(4) 1_556
O6 H6B O11 0.832(10) 1.978(17) 2.759(3) 156(3) .
O6 H6C O11 0.831(10) 1.966(18) 2.736(3) 154(3) 2_776
O7 H7A N3 0.823(10) 2.000(10) 2.822(3) 178(4) 2_665
O7 H7B N3 0.817(10) 2.467(14) 3.268(3) 167(3) 1_656
O8 H8B O10 0.838(10) 1.884(12) 2.714(3) 171(3) 2_667
O8 H8C O9 0.830(10) 2.123(14) 2.933(4) 165(3) 2_766
O9 H9B O10 0.797(19) 1.97(3) 2.728(3) 159(5) 2_656
O10 H10A O4 0.837(10) 2.069(13) 2.891(3) 167(4) 2_566
O10 H10B N1 0.831(10) 1.947(11) 2.776(3) 176(3) 1_556
O11 H11A N2 0.828(10) 1.996(12) 2.802(3) 164(3) 1_666
O11 H11B O3 0.825(10) 1.956(10) 2.780(2) 177(3) .
loop_
_geom_torsion_atom_site_label_1
_geom_torsion_atom_site_label_2
_geom_torsion_atom_site_label_3
_geom_torsion_atom_site_label_4
_geom_torsion
_geom_torsion_site_symmetry_1
_geom_torsion_site_symmetry_2
_geom_torsion_site_symmetry_3
_geom_torsion_site_symmetry_4
O1 C1 C2 C8 -175.0(2) . . . .
O2 C1 C2 C8 3.8(3) . . . .
O1 C1 C2 C3 0.7(3) . . . .
O2 C1 C2 C3 179.5(2) . . . .
C8 C2 C3 C4 1.9(3) . . . .
C1 C2 C3 C4 -173.8(2) . . . .
C2 C3 C4 C6 -1.5(3) . . . .
C2 C3 C4 C5 171.2(2) . . . .
C6 C4 C5 O3 -169.7(2) . . . .
C3 C4 C5 O3 17.6(3) . . . .
C6 C4 C5 O4 14.2(3) . . . .
C3 C4 C5 O4 -158.5(2) . . . .
C3 C4 C6 C7 0.1(3) . . . .
C5 C4 C6 C7 -172.6(2) . . . .
C4 C6 C7 C8 0.9(3) . . . .
C4 C6 C7 C9 177.0(2) . . . .
C3 C2 C8 C7 -0.8(4) . . . .
C1 C2 C8 C7 174.8(2) . . . .
C6 C7 C8 C2 -0.5(3) . . . .
C9 C7 C8 C2 -176.6(2) . . . .
C8 C7 C9 N1 16.6(4) . . . .
C6 C7 C9 N1 -159.5(2) . . . .
C8 C7 C9 N4 -165.5(3) . . . .
C6 C7 C9 N4 18.5(4) . . . .
O2 C1 O1 Dy1 55.9(7) . . . .
C2 C1 O1 Dy1 -125.5(4) . . . .
O1 C1 O2 Dy1 25.0(5) . . . 2_666
C2 C1 O2 Dy1 -153.6(2) . . . 2_666
O4 C5 O3 Dy1 5.2(2) . . . 2_676
C4 C5 O3 Dy1 -170.89(18) . . . 2_676
O3 C5 O4 Dy1 -5.3(2) . . . 2_676
C4 C5 O4 Dy1 170.86(17) . . . 2_676
N4 C9 N1 N2 -1.4(3) . . . .
C7 C9 N1 N2 176.8(2) . . . .
C9 N1 N2 N3 1.0(3) . . . .
N1 N2 N3 N4 -0.3(3) . . . .
N1 C9 N4 N3 1.2(3) . . . .
C7 C9 N4 N3 -177.1(2) . . . .
N2 N3 N4 C9 -0.5(3) . . . .
