#------------------------------------------------------------------------------
#$Date: 2021-03-29 10:19:33 +0300 (Mon, 29 Mar 2021) $
#$Revision: 263403 $
#$URL: file:///home/coder/svn-repositories/cod/cif/1/56/13/1561320.cif $
#------------------------------------------------------------------------------
#
# This file is available in the Crystallography Open Database (COD),
# http://www.crystallography.net/
#
# All data on this site have been placed in the public domain by the
# contributors.
#
data_1561320
loop_
_publ_author_name
'Zhang, Xiu-Mei'
'Li, Peng'
'Gao, Wei'
'Liu, Feng'
'Liu, Jie-Ping'
_publ_section_title
;
 Construction of three lanthanide metal-organic frameworks: Synthesis,
 structure, magnetic properties and highly selective sensing of metal ions
;
_journal_name_full               'Journal of Solid State Chemistry'
_journal_page_first              6
_journal_page_last               11
_journal_paper_doi               10.1016/j.jssc.2016.09.009
_journal_volume                  244
_journal_year                    2016
_chemical_formula_sum            'C9 H17 Gd N4 O11'
_chemical_formula_weight         514.52
_space_group_crystal_system      triclinic
_space_group_IT_number           2
_space_group_name_Hall           '-P 1'
_space_group_name_H-M_alt        'P -1'
_atom_sites_solution_hydrogens   mixed
_cell_angle_alpha                111.743(4)
_cell_angle_beta                 99.371(4)
_cell_angle_gamma                100.616(4)
_cell_formula_units_Z            2
_cell_length_a                   7.4963(10)
_cell_length_b                   10.9105(13)
_cell_length_c                   11.4669(15)
_cell_measurement_reflns_used    8414
_cell_measurement_temperature    293(2)
_cell_measurement_theta_max      27.48
_cell_measurement_theta_min      2.86
_cell_volume                     828.35(19)
_computing_cell_refinement       'Bruker SMART'
_computing_data_collection       'Bruker SMART'
_computing_data_reduction        'Bruker SAINT'
_computing_molecular_graphics    'Bruker SHELXTL'
_computing_publication_material  'Bruker SHELXTL'
_computing_structure_refinement  'SHELXL-2014/7 (Sheldrick, 2014)'
_computing_structure_solution    'Bruker SHELXTL'
_diffrn_ambient_temperature      293(2)
_diffrn_measured_fraction_theta_full 0.998
_diffrn_measured_fraction_theta_max 0.998
_diffrn_measurement_device_type  'CCD area detector'
_diffrn_measurement_method       'phi and omega scans'
_diffrn_radiation_type           MoK\a
_diffrn_radiation_wavelength     0.71073
_diffrn_reflns_av_R_equivalents  0.0183
_diffrn_reflns_av_unetI/netI     0.0195
_diffrn_reflns_Laue_measured_fraction_full 0.998
_diffrn_reflns_Laue_measured_fraction_max 0.998
_diffrn_reflns_limit_h_max       8
_diffrn_reflns_limit_h_min       -8
_diffrn_reflns_limit_k_max       12
_diffrn_reflns_limit_k_min       -12
_diffrn_reflns_limit_l_max       13
_diffrn_reflns_limit_l_min       -13
_diffrn_reflns_number            8809
_diffrn_reflns_point_group_measured_fraction_full 0.998
_diffrn_reflns_point_group_measured_fraction_max 0.998
_diffrn_reflns_theta_full        25.008
_diffrn_reflns_theta_max         25.008
_diffrn_reflns_theta_min         2.858
_diffrn_source                   'fine-focus sealed tube'
_exptl_absorpt_coefficient_mu    4.068
_exptl_absorpt_correction_type   none
_exptl_crystal_colour            colorless
_exptl_crystal_density_diffrn    2.063
_exptl_crystal_density_method    'not measured'
_exptl_crystal_description       block
_exptl_crystal_F_000             502
_exptl_crystal_size_max          0.200
_exptl_crystal_size_mid          0.100
_exptl_crystal_size_min          0.080
_refine_diff_density_max         0.732
_refine_diff_density_min         -0.707
_refine_diff_density_rms         0.109
_refine_ls_extinction_coef       .
_refine_ls_extinction_method     none
_refine_ls_goodness_of_fit_ref   1.193
_refine_ls_hydrogen_treatment    mixed
_refine_ls_matrix_type           full
_refine_ls_number_parameters     265
_refine_ls_number_reflns         2902
_refine_ls_number_restraints     19
_refine_ls_restrained_S_all      1.190
_refine_ls_R_factor_all          0.0214
_refine_ls_R_factor_gt           0.0197
_refine_ls_shift/su_max          0.001
_refine_ls_shift/su_mean         0.000
_refine_ls_structure_factor_coef Fsqd
_refine_ls_weighting_details
'w=1/[\s^2^(Fo^2^)+(0.0208P)^2^+2.1491P] where P=(Fo^2^+2Fc^2^)/3'
_refine_ls_weighting_scheme      calc
_refine_ls_wR_factor_gt          0.0532
_refine_ls_wR_factor_ref         0.0542
_reflns_Friedel_coverage         0.000
_reflns_Friedel_fraction_full    .
_reflns_Friedel_fraction_max     .
_reflns_number_gt                2769
_reflns_number_total             2902
_reflns_threshold_expression     'I > 2\s(I)'
_cod_data_source_file            mmc2.cif
_cod_data_source_block           1
_cod_original_cell_volume        828.34(19)
_cod_database_code               1561320
_shelx_space_group_comment
;
The symmetry employed for this shelxl refinement is uniquely defined
by the following loop, which should always be used as a source of
symmetry information in preference to the above space-group names.
They are only intended as comments.
;
_shelx_estimated_absorpt_t_min   0.497
_shelx_estimated_absorpt_t_max   0.737
_shelx_res_file
;

    3.res created by SHELXL-2014/7


TITL 2 in P1                     New: P-1
CELL  0.71073    7.4963   10.9105   11.4669   111.743    99.371   100.616
ZERR  2           0.0010    0.0013    0.0015     0.004     0.004     0.004
LATT   1
SFAC  C   2.31000  20.84392   1.02000  10.20751   1.58860   0.56870   0.86500 =
         51.65125   0.21560   0.00330   0.00160    11.500   0.68000  12.01000
SFAC Gd  25.07094   2.25341  19.07982   0.18195  13.85181  12.93311   3.54545 =
        101.39810   2.41960  -0.16530   3.90350 16300.000   1.79000 157.25000
SFAC  N  12.21261   0.00570   3.13220   9.89331   2.01250  28.99754   1.16630 =
          0.58260 -11.52901   0.00610   0.00330    19.600   0.68000  14.01000
SFAC  O   3.04850  13.27711   2.28680   5.70111   1.54630   0.32390   0.86700 =
         32.90894   0.25080   0.01060   0.00600    32.500   0.68000  16.00000
SFAC  H
UNIT    18    2   8  22 34

L.S. 30
HTAB
OMIT -3 50.02
SIZE 0.1 0.2 0.08
DFIX 0.83  0.01 O5 H5A O5 H5B
DFIX 1.38  0.01 H5B H5A
DFIX 0.83  0.01 O6 H6b o6 h6c
DFIX 1.38  0.01 H6B H6c
DFIX 0.83  0.01 O8 H8b o8 h8c
DFIX 1.38  0.01 H8B H8c
DFIX 0.83  0.01 O7 H7A o7 h7b
DFIX 1.38  0.01 H7B H7A
DFIX 0.83  0.01 O9 H9B
DFIX 0.83  0.01 O10 H10A O10 H10B
DFIX 1.38  0.01 H10B H10A
DFIX 0.83  0.01 O11 H11A O11 H11B
DFIX 1.38  0.01 H11B H11A
FMAP 2
PLAN 20
ACTA
BOND
BOND $H
EQIV $1 -x+1, -y+1, -z+1
EQIV $3 x, y, z+1
EQIV $4 -x+2, -y+2, -z+1
EQIV $5 -x+1, -y+1, -z
EQIV $6 x+1, y, z+1
EQIV $7 -x+1, -y+1, -z+2
EQIV $8 -x+2, -y+1, -z+1
EQIV $9 -x+1, -y, -z+1
EQIV $10 -x+1, -y, -z
EQIV $11 -x, -y+1, -z+1
EQIV $12 x+1, y+1, z+1
HTAB O5 O9_$1
HTAB O5 N4_$3
HTAB O6 O11
HTAB O6 O11_$4
HTAB O7 N3_$5
HTAB O7 N3_$6
HTAB O8 O10_$7
HTAB O8 O9_$8
HTAB O9 O10_$9
HTAB O10 O4_$11
HTAB O10 N1_$3
HTAB O11 N2_$12
HTAB O11 O3
CONF
WGHT    0.020800    2.149100
FVAR       0.17901
GD1   2    0.663024    0.756846    0.665203    11.00000    0.02326    0.00936 =
         0.01284    0.00520    0.00302    0.00541
C1    1    0.440281    0.566723    0.340278    11.00000    0.02191    0.00946 =
         0.01262    0.00615    0.00186    0.00400
C2    1    0.403267    0.626830    0.243605    11.00000    0.01742    0.00705 =
         0.01124    0.00451    0.00101    0.00266
C3    1    0.432612    0.768302    0.286130    11.00000    0.01893    0.00605 =
         0.00942    0.00237    0.00067    0.00159
AFIX  43
H3A   5    0.486156    0.825936    0.373212    11.00000   -1.20000
AFIX   0
C4    1    0.381360    0.822216    0.197616    11.00000    0.01702    0.00570 =
         0.01388    0.00498    0.00372    0.00300
C5    1    0.385859    0.970577    0.244262    11.00000    0.01611    0.00707 =
         0.01445    0.00654    0.00647    0.00314
C6    1    0.307878    0.736417    0.066858    11.00000    0.02078    0.01130 =
         0.01223    0.00857    0.00212    0.00321
AFIX  43
H6A   5    0.275483    0.773785    0.008154    11.00000   -1.20000
AFIX   0
C7    1    0.281915    0.595844    0.022212    11.00000    0.01746    0.01007 =
         0.00984    0.00347    0.00341    0.00119
C8    1    0.329765    0.541528    0.112251    11.00000    0.02275    0.00470 =
         0.01235    0.00377    0.00200    0.00174
AFIX  43
H8A   5    0.312332    0.447521    0.084136    11.00000   -1.20000
AFIX   0
C9    1    0.194720    0.507509   -0.115264    11.00000    0.02305    0.01124 =
         0.01070    0.00494    0.00429    0.00184
O1    4    0.493186    0.646972    0.457903    11.00000    0.05583    0.01280 =
         0.00963    0.00375   -0.00538    0.00579
O2    4    0.411655    0.439714    0.298471    11.00000    0.04270    0.00745 =
         0.01916    0.00861    0.00461    0.00710
O3    4    0.474831    1.055287    0.356892    11.00000    0.01934    0.00577 =
         0.01317    0.00212   -0.00221    0.00248
O4    4    0.288200    1.008457    0.168934    11.00000    0.02646    0.00891 =
         0.01465    0.00588   -0.00050    0.00677
O5    4    0.400459    0.755884    0.752007    11.00000    0.04842    0.01934 =
         0.07867    0.02958    0.04668    0.01663
H5A   5    0.367908    0.825908    0.787816    11.00000   -1.50000
H5B   5    0.338256    0.687827    0.756849    11.00000   -1.50000
O6    4    0.872192    0.898227    0.601759    11.00000    0.02997    0.03594 =
         0.05412    0.03523    0.02690    0.01841
H6B   5    0.833689    0.954710    0.579859    11.00000   -1.50000
H6C   5    0.978743    0.895730    0.593425    11.00000   -1.50000
O7    4    0.878304    0.628766    0.574187    11.00000    0.06266    0.04646 =
         0.02376    0.02295    0.02642    0.04330
H7A   5    0.861109    0.594073    0.495078    11.00000   -1.50000
H7B   5    0.923053    0.586388    0.611749    11.00000   -1.50000
O8    4    0.919736    0.793216    0.838896    11.00000    0.02237    0.03285 =
         0.02061    0.01423   -0.00078    0.00767
H8B   5    0.911547    0.792040    0.909462    11.00000   -1.50000
H8C   5    1.016450    0.846620    0.843694    11.00000   -1.50000
O9    4    0.706334    0.024334    0.093063    11.00000    0.07454    0.03944 =
         0.04903    0.02457    0.03382    0.03742
H9B   5    0.754179   -0.036170    0.097794    11.00000   -1.50000
O10   4    0.094399    0.161955    0.914629    11.00000    0.03018    0.02484 =
         0.03116    0.01579   -0.00295    0.00109
H10A  5   -0.008787    0.103932    0.879943    11.00000   -1.50000
H10B  5    0.107629    0.219479    0.883554    11.00000   -1.50000
O11   4    0.827484    1.088958    0.504603    11.00000    0.01836    0.02092 =
         0.02526    0.00508    0.00052    0.00317
H11A  5    0.873183    1.162559    0.568704    11.00000   -1.50000
H11B  5    0.726896    1.084484    0.460206    11.00000   -1.50000
N1    3    0.112991    0.373400   -0.164273    11.00000    0.03202    0.01272 =
         0.00972    0.00212    0.00041   -0.00111
N2    3    0.044032    0.335683   -0.291485    11.00000    0.03794    0.02168 =
         0.01271    0.00180    0.00084   -0.00610
N3    3    0.084489    0.441319   -0.318092    11.00000    0.05262    0.02833 =
         0.01178    0.00790   -0.00399   -0.01244
N4    3    0.180840    0.551681   -0.209400    11.00000    0.05500    0.01964 =
         0.01153    0.00831   -0.00129   -0.00917

HKLF 4

REM  2 in P1                     New: P-1
REM R1 =  0.0197 for    2769 Fo > 4sig(Fo)  and  0.0214 for all    2902 data
REM    265 parameters refined using     19 restraints

END

WGHT      0.0212      2.4215

REM Instructions for potential hydrogen bonds
HTAB O5 O9_$1
HTAB O5 N4_$3
HTAB O6 O11
HTAB O6 O11_$4
HTAB O7 N3_$5
HTAB O7 N3_$6
HTAB O8 O10_$7
HTAB O8 O9_$8
HTAB O9 O10_$9
HTAB O10 O4_$11
HTAB O10 N1_$3
HTAB O11 N2_$12
HTAB O11 O3

REM Highest difference peak  0.732,  deepest hole -0.707,  1-sigma level  0.109
Q1    1   0.6012 -0.0209  0.0462  11.00000  0.05    0.73
Q2    1   0.0885  0.5771 -0.1926  11.00000  0.05    0.51
Q3    1   0.3835  0.8884  0.2193  11.00000  0.05    0.43
Q4    1   0.2046  0.5243 -0.1591  11.00000  0.05    0.42
Q5    1   0.9198  0.6215  0.5226  11.00000  0.05    0.38
Q6    1   0.1484  0.4990 -0.2635  11.00000  0.05    0.38
Q7    1   0.2780  0.6568  0.0450  11.00000  0.05    0.38
Q8    1   0.2584  0.5590 -0.0408  11.00000  0.05    0.38
Q9    1   0.4209  0.6024  0.2932  11.00000  0.05    0.37
Q10   1   0.4324  0.7986  0.2413  11.00000  0.05    0.37
Q11   1   0.1739  0.4412 -0.1376  11.00000  0.05    0.35
Q12   1   0.2987  0.5726  0.0653  11.00000  0.05    0.34
Q13   1  -0.0052  0.4658 -0.3091  11.00000  0.05    0.33
Q14   1   0.4095  0.3850  0.3184  11.00000  0.05    0.33
Q15   1   0.4242  0.6964  0.2628  11.00000  0.05    0.31
Q16   1   0.7998  0.8596  0.5425  11.00000  0.05    0.30
Q17   1   0.3634  0.5860  0.1777  11.00000  0.05    0.29
Q18   1   0.4333  0.7446  0.8043  11.00000  0.05    0.29
Q19   1   0.0660  0.3475 -0.2264  11.00000  0.05    0.28
Q20   1   0.5755  0.6519  0.4468  11.00000  0.05    0.28
;
_shelx_res_checksum              22804
_shelx_hkl_file
;
   1   0   0  174.28    3.62
  -2   0   0   33.34    0.93
  -2   0   0   31.52    0.96
   2   0   0   31.91    0.99
   2   0   0   32.44    0.97
  -3   0   0  180.42    4.23
  -3   0   0  198.82    4.16
   3   0   0  202.81    4.24
   3   0   0  194.86    4.25
  -4   0   0  213.71    4.62
  -4   0   0  207.09    4.71
   4   0   0  214.95    4.77
   4   0   0  214.44    4.76
  -5   0   0   63.74    1.84
  -5   0   0   62.51    1.92
   5   0   0   62.05    2.06
   5   0   0   61.83    2.01
  -6   0   0   69.36    2.12
  -6   0   0   69.38    2.20
   6   0   0   70.69    2.34
   6   0   0   69.04    2.35
  -7   0   0   18.11    1.32
  -7   0   0   18.25    1.30
   7   0   0   15.91    1.39
   7   0   0   18.81    1.52
  -8   0   0    8.25    1.05
  -8   0   0    9.71    1.29
   8   0   0    6.63    0.99
   8   0   0    9.46    1.49
   9   0   0   19.13    1.96
   9   0   0   13.26    1.82
   9  -1   0    0.85    1.02
   9  -1   0    0.28    0.95
   9  -1   0   -1.00    0.81
   8  -1   0   50.33    2.35
   8  -1   0   49.89    2.17
  -8   1   0   51.46    2.20
  -8   1   0   54.17    2.03
   7  -1   0   33.15    1.63
   7  -1   0   31.88    1.81
  -7   1   0   32.98    1.48
  -7   1   0   30.98    1.58
   6  -1   0    3.09    0.63
   6  -1   0    2.97    0.72
  -6   1   0    2.57    0.50
  -6   1   0    2.55    0.55
   5  -1   0  165.24    3.93
   5  -1   0  167.88    4.08
  -5   1   0  168.87    3.87
  -5   1   0  165.22    4.04
   4  -1   0  326.98    6.89
   4  -1   0  329.88    7.01
  -4   1   0  320.74    6.84
  -4   1   0  333.70    6.91
   3  -1   0   70.79    1.80
  -3   1   0   74.49    1.78
   2  -1   0   11.97    0.53
  -2   1   0   12.42    0.48
  -2   1   0   12.44    0.60
   1  -1   0  169.49    3.21
  -1   1   0  138.28    3.33
  -1  -1   0  226.00    4.81
  -1  -1   0  242.71    4.67
   1   1   0  238.13    4.69
  -2  -1   0    9.96    0.46
   2   1   0   10.78    0.55
   2   1   0   10.39    0.65
  -3  -1   0   14.61    0.78
   3   1   0   14.79    0.85
   3   1   0   14.54    0.76
  -4  -1   0  247.35    5.20
  -4  -1   0  238.05    5.42
   4   1   0  245.34    5.35
   4   1   0  245.67    5.48
  -5  -1   0   68.11    2.15
  -5  -1   0   72.28    1.96
   5   1   0   70.70    2.19
   5   1   0   70.89    2.28
  -6  -1   0    0.68    0.45
  -6  -1   0    0.11    0.51
   6   1   0    0.54    0.61
   6   1   0    0.09    0.57
  -7  -1   0   30.05    1.51
  -7  -1   0   30.97    1.61
   7   1   0   26.77    1.71
   7   1   0   31.86    1.76
  -8  -1   0   69.43    2.60
   8   1   0   69.21    2.67
   8   1   0   71.79    2.76
   9   1   0    3.52    1.12
   9   1   0    4.27    1.06
   9  -2   0   32.87    1.95
   9  -2   0   37.85    2.34
   8  -2   0    1.66    0.87
   8  -2   0   -0.10    0.64
  -8   2   0    0.84    0.74
  -8   2   0    1.19    0.51
   7  -2   0   54.67    2.25
   7  -2   0   54.10    1.95
  -7   2   0   55.66    1.82
  -7   2   0   54.59    2.06
   6  -2   0  108.76    3.19
   6  -2   0  109.38    2.90
  -6   2   0  113.36    3.04
  -6   2   0  113.26    2.81
   5  -2   0   34.94    1.28
   5  -2   0   30.65    1.47
  -5   2   0   31.25    1.11
   4  -2   0  151.93    3.48
   4  -2   0  154.49    3.71
  -4   2   0  165.38    3.98
  -4   2   0  158.28    3.66
   3  -2   0  410.20    8.29
   3  -2   0  412.89    8.51
  -3   2   0  415.66    8.49
  -3   2   0  415.16    8.25
   2  -2   0    9.10    0.43
   2  -2   0    9.12    0.62
  -2   2   0    9.98    0.63
  -2   2   0    9.62    0.31
   1  -2   0   84.68    1.85
  -1   2   0   83.25    1.86
   0  -2   0  136.24    2.76
   0  -2   0  135.06    2.64
   0   2   0  129.62    2.76
   0   2   0  128.82    2.65
  -1  -2   0   46.44    0.99
  -1  -2   0   43.92    1.22
   1   2   0   45.90    1.26
  -2  -2   0   19.89    0.86
  -2  -2   0   21.68    0.63
   2   2   0   23.23    0.72
  -3  -2   0  259.49    5.67
  -3  -2   0  251.83    5.47
   3   2   0  263.01    5.45
   3   2   0  263.10    5.71
  -4  -2   0   63.64    2.00
  -4  -2   0   67.65    1.72
   4   2   0   64.54    1.88
   4   2   0   66.05    2.10
  -5  -2   0   19.38    1.18
  -5  -2   0   19.55    0.94
   5   2   0   20.20    1.38
   5   2   0   19.45    1.21
  -6  -2   0   35.85    1.71
  -6  -2   0   34.21    1.40
   6   2   0   36.91    1.90
   6   2   0   36.08    1.66
  -7  -2   0   18.12    1.47
  -7  -2   0   20.44    1.35
   7   2   0   21.77    1.67
   7   2   0   20.20    1.88
  -8  -2   0    9.07    1.12
   8   2   0    8.74    1.23
   8   2   0    8.65    1.12
   9  -3   0    5.41    1.18
   9  -3   0    3.00    0.88
   8  -3   0   57.61    2.52
   8  -3   0   55.66    2.13
  -8   3   0   57.93    2.37
   7  -3   0   36.64    1.90
   7  -3   0   34.28    1.47
  -7   3   0   34.69    1.73
  -7   3   0   35.45    1.31
   6  -3   0   15.64    1.35
   6  -3   0   16.44    0.98
  -6   3   0   15.57    0.80
   5  -3   0   94.12    2.72
   5  -3   0   96.51    2.36
  -5   3   0   97.70    2.66
  -5   3   0   96.47    2.26
   4  -3   0   51.44    1.35
   4  -3   0   50.41    1.69
  -4   3   0   54.62    1.69
  -4   3   0   50.39    1.26
   3  -3   0   32.55    1.17
   3  -3   0   33.02    0.83
  -3   3   0   30.64    0.76
  -3   3   0   33.02    1.18
   2  -3   0  273.99    5.56
  -2   3   0  258.76    5.56
   1  -3   0  350.84    6.80
   1  -3   0  356.44    6.96
  -1   3   0  347.89    6.81
  -1   3   0  332.39    6.97
   0  -3   0    0.19    0.19
   0   3   0   -0.20    0.16
   0   3   0    0.31    0.24
  -1  -3   0  131.97    2.70
  -1  -3   0  137.21    3.03
   1   3   0  134.40    3.05
  -2  -3   0  171.30    3.85
  -2  -3   0  167.66    3.48
   2   3   0  169.00    3.89
   2   3   0  171.20    3.53
  -3  -3   0   20.01    0.70
  -3  -3   0   20.91    1.03
   3   3   0   19.59    1.12
   3   3   0   19.34    0.83
  -4  -3   0  199.45    4.33
  -4  -3   0  202.99    4.76
   4   3   0  203.71    4.50
   4   3   0  201.67    4.84
  -5  -3   0  131.92    3.54
  -5  -3   0  132.11    3.13
   5   3   0  135.71    3.70
   5   3   0  133.56    3.34
  -6  -3   0    3.67    0.74
  -6  -3   0    3.15    0.56
   6   3   0    3.55    0.81
   6   3   0    2.90    0.69
  -7  -3   0   59.81    2.13
   7   3   0   63.52    2.60
  -8  -3   0   14.15    1.61
   8   3   0   11.84    1.45
   8   3   0   14.29    1.57
   9  -4   0   39.29    1.90
   9  -4   0   40.30    2.45
   8  -4   0    7.25    1.06
   8  -4   0   10.43    1.55
   7  -4   0   30.05    1.28
   7  -4   0   28.31    1.75
  -7   4   0   28.23    1.65
   6  -4   0   77.83    2.59
   6  -4   0   80.45    2.05
   5  -4   0    0.90    0.56
   5  -4   0    1.94    0.33
  -5   4   0    1.44    0.51
   4  -4   0  103.74    2.22
  -4   4   0  103.88    2.73
   3  -4   0  422.27    8.51
  -3   4   0  398.06    8.52
   2  -4   0  205.61    4.23
  -2   4   0  187.07    4.27
   1  -4   0  356.39    6.88
   1  -4   0  348.51    6.96
  -1   4   0  348.69    6.90
  -1   4   0  334.08    7.01
   0  -4   0  298.85    6.04
   0   4   0  282.65    5.87
   0   4   0  303.31    6.10
  -1  -4   0  163.98    3.60
   1   4   0  158.73    3.65
   1   4   0  159.46    3.20
  -2  -4   0  112.94    2.41
  -2  -4   0  119.29    2.87
   2   4   0  114.83    2.46
   2   4   0  114.65    2.92
  -3  -4   0  355.21    7.17
  -3  -4   0  333.43    7.97
   3   4   0  371.21    7.79
   3   4   0  363.94    7.28
  -4  -4   0    3.90    0.60
  -4  -4   0    4.22    0.50
   4   4   0    4.35    0.55
   4   4   0    3.89    0.70
  -5  -4   0   23.11    1.40
  -5  -4   0   24.77    1.02
   5   4   0   24.11    1.24
   5   4   0   24.66    1.71
  -6  -4   0   80.23    2.24
  -6  -4   0   78.66    2.72
   6   4   0   81.05    2.43
   6   4   0   74.56    2.81
  -7  -4   0   19.20    1.43
   7   4   0   21.11    1.66
   7   4   0   19.50    1.81
   8   4   0   14.02    1.50
   8   4   0   10.51    1.76
   9  -5   0    7.67    1.23
   9  -5   0    5.77    0.85
   8  -5   0   48.77    1.68
   8  -5   0   47.08    2.32
   7  -5   0   37.19    1.30
   7  -5   0   36.57    1.93
  -7   5   0   35.81    1.87
   6  -5   0    0.08    0.70
   6  -5   0    0.28    0.32
  -6   5   0    0.38    0.55
   5  -5   0  164.69    4.13
   5  -5   0  167.71    3.46
  -5   5   0  168.36    4.16
   4  -5   0   42.70    1.57
  -4   5   0   42.51    1.59
   3  -5   0   53.50    1.62
  -3   5   0   53.86    1.68
   2  -5   0  292.54    6.02
  -2   5   0  284.37    6.09
   1  -5   0    8.21    0.40
   1  -5   0    6.89    0.44
  -1   5   0    7.75    0.56
  -1   5   0    8.79    0.50
   0  -5   0  118.57    2.91
   0   5   0  126.00    2.85
   0   5   0  121.08    2.57
  -1  -5   0  163.25    3.68
   1   5   0  161.15    3.75
  -2  -5   0  198.10    4.44
   2   5   0  190.54    4.59
   2   5   0  191.65    3.94
  -3  -5   0   22.67    0.72
  -3  -5   0   24.92    1.20
   3   5   0   24.35    1.38
   3   5   0   23.42    0.88
  -4  -5   0  108.35    3.08
  -4  -5   0  109.03    2.52
   4   5   0  112.20    2.67
   4   5   0  112.83    3.34
  -5  -5   0   30.58    1.63
  -5  -5   0   31.84    1.15
   5   5   0   33.94    1.40
   5   5   0   31.28    1.83
  -6  -5   0    4.72    0.66
   6   5   0    4.68    0.71
   6   5   0    5.20    1.02
  -7  -5   0   18.57    1.41
   7   5   0   14.06    1.92
   7   5   0   21.35    2.04
   9  -6   0   30.95    1.41
   9  -6   0   36.95    2.35
   8  -6   0   -0.10    0.42
   8  -6   0    0.54    0.78
   7  -6   0   45.48    2.10
   7  -6   0   46.62    1.28
  -7   6   0   46.47    2.12
   6  -6   0  111.99    3.25
  -6   6   0  103.97    3.17
   5  -6   0   -0.34    0.50
  -5   6   0   -0.52    0.53
   4  -6   0  163.21    3.87
  -4   6   0  157.17    3.91
   3  -6   0  150.88    3.48
  -3   6   0  145.29    3.53
   2  -6   0   72.97    1.84
  -2   6   0   72.47    1.93
   1  -6   0  206.09    4.29
   1  -6   0  210.01    4.32
  -1   6   0  208.82    4.38
  -1   6   0  205.54    4.38
   0  -6   0  265.86    5.52
   0   6   0  265.97    5.62
   0   6   0  253.76    5.27
  -1  -6   0   28.97    1.11
   1   6   0   30.21    1.32
  -2  -6   0   24.44    1.35
   2   6   0   26.53    1.40
  -3  -6   0   84.74    2.45
   3   6   0   80.65    1.89
   3   6   0   79.32    2.60
  -4  -6   0   10.87    0.67
  -4  -6   0   11.75    1.14
   4   6   0   11.32    1.34
   4   6   0   11.45    0.76
  -5  -6   0   27.93    1.06
  -5  -6   0   29.17    1.70
   5   6   0   29.90    1.20
   5   6   0   28.27    1.83
  -6  -6   0   37.29    1.66
   6   6   0   34.83    2.13
   6   6   0   37.61    1.48
   9  -7   0   18.56    2.07
   8  -7   0   54.70    2.48
   7  -7   0    5.74    0.91
  -7   7   0    5.12    0.87
   6  -7   0   25.46    1.56
  -6   7   0   25.15    1.58
   5  -7   0  194.98    4.73
  -5   7   0  196.88    4.81
   4  -7   0   56.54    1.87
  -4   7   0   57.28    2.19
   3  -7   0    1.64    0.47
  -3   7   0    2.57    0.53
   2  -7   0   82.72    2.05
  -2   7   0   83.21    2.16
  -2   7   0   83.44    1.82
   1  -7   0  107.06    2.39
  -1   7   0  110.87    2.58
  -1   7   0  110.39    2.50
   0  -7   0   30.17    1.08
   0   7   0   31.38    1.25
   0   7   0   29.72    0.83
  -1  -7   0  142.88    3.42
   1   7   0  143.53    3.57
  -2  -7   0  108.50    2.89
   2   7   0  109.07    3.06
  -3  -7   0   -0.17    0.47
   3   7   0    0.21    0.81
  -4  -7   0   68.48    2.41
   4   7   0   63.92    1.60
   4   7   0   68.58    2.53
   5   7   0   68.95    1.79
   5   7   0   67.74    2.71
   6   7   0    1.13    0.94
   8  -8   0    2.02    0.92
   7  -8   0   17.22    1.54
  -7   8   0   13.74    1.57
   6  -8   0   68.84    2.42
  -6   8   0   69.69    2.49
   5  -8   0    2.56    0.63
  -5   8   0    2.45    0.69
   4  -8   0  169.07    4.11
  -4   8   0  176.67    4.22
   3  -8   0  128.81    3.16
  -3   8   0  135.66    3.28
   2  -8   0   14.33    0.75
  -2   8   0   15.07    0.86
  -2   8   0   13.72    0.62
   1  -8   0  101.52    2.37
   1  -8   0   98.83    2.25
  -1   8   0  103.91    2.35
  -1   8   0  104.07    2.52
   0  -8   0  150.32    3.50
   0   8   0  153.70    3.64
  -1  -8   0    3.96    0.55
   1   8   0    4.98    0.69
  -2  -8   0  105.75    2.92
   2   8   0  105.22    3.04
  -3  -8   0  103.65    3.03
   3   8   0  104.13    3.15
  -4  -8   0   -0.59    0.69
   4   8   0   -0.22    0.70
   5   8   0   20.62    1.90
   8  -9   0   64.93    2.79
   7  -9   0   23.12    1.68
   6  -9   0    9.27    1.20
  -6   9   0    6.46    0.91
  -5   9   0   96.14    2.90
   4  -9   0   33.34    1.40
  -4   9   0   32.46    1.49
   3  -9   0   22.08    1.04
  -3   9   0   23.15    1.16
   2  -9   0   78.29    1.95
  -2   9   0   78.91    2.04
  -2   9   0   76.24    1.84
   1  -9   0   38.24    1.20
  -1   9   0   38.34    1.11
  -1   9   0   40.44    1.41
   0  -9   0   40.74    1.40
   0   9   0   40.26    1.59
  -1  -9   0   93.56    2.63
   1   9   0   99.71    2.81
  -2  -9   0   24.05    1.39
   2   9   0   23.82    1.51
  -3  -9   0   15.95    1.46
   3   9   0   15.84    1.51
   4   9   0   51.92    2.42
   5   9   0   21.92    2.13
   7 -10   0   58.12    2.40
   6 -10   0   25.58    1.55
  -6  10   0   25.10    1.65
   5 -10   0    1.61    0.60
  -5  10   0    1.14    0.65
   4 -10   0   89.07    2.48
  -4  10   0   87.68    2.56
   3 -10   0   98.95    2.55
  -3  10   0  102.66    2.63
   2 -10   0   10.37    0.68
  -2  10   0   10.63    0.67
  -2  10   0   10.27    0.74
  -1  10   0  147.58    3.51
  -1  10   0  143.21    3.07
   0 -10   0  140.43    3.42
   0  10   0  141.91    3.61
  -1 -10   0    8.00    1.06
  -2 -10   0   25.66    1.60
   2  10   0   24.84    1.66
   3  10   0   41.73    2.16
   4  10   0   -0.86    0.93
   7 -11   0    6.23    1.02
   6 -11   0   23.93    1.55
  -6  11   0   18.96    1.63
   5 -11   0   59.26    2.11
  -5  11   0   57.42    2.10
   4 -11   0   38.14    1.56
  -4  11   0   41.73    1.62
   3 -11   0   21.83    1.06
  -3  11   0   20.43    1.33
  -2  11   0   95.10    2.24
  -2  11   0   94.47    2.28
  -1  11   0   22.00    1.20
   0  11   0    2.24    0.68
  -1 -11   0   79.40    2.53
   1  11   0   82.43    2.68
  -2 -11   0   28.13    1.87
   2  11   0   31.24    1.89
   6 -12   0   33.06    1.83
   5 -12   0    2.81    0.75
  -5  12   0    1.67    0.74
   4 -12   0   47.24    1.72
  -4  12   0   44.21    1.71
   3 -12   0   62.49    1.83
  -2  12   0    0.12    0.35
  -2  12   0   -0.43    0.40
  -1  12   0   55.77    1.82
   0  12   0   53.04    2.40
   1  12   0   -0.68    0.74
   4 -13   0    5.74    0.93
   0  13  -1   12.75    1.29
  -1  13  -1   77.96    2.25
   3 -13   1   20.24    1.14
   4 -13   1   77.56    2.32
   2  12  -1    0.69    0.90
   1  12  -1   50.51    2.14
  -1 -12   1   50.39    2.06
   0  12  -1   63.03    2.14
   0 -12   1   59.08    2.10
  -1  12  -1    0.55    0.49
  -2  12  -1   38.14    1.14
  -2  12  -1   36.11    1.19
  -3  12  -1   46.45    1.50
   3 -12   1   48.70    1.55
  -4  12  -1    0.78    0.60
   4 -12   1    0.75    0.58
  -5  12  -1   39.22    1.76
   5 -12   1   40.85    1.80
   6 -12   1   47.35    2.14
   3  11  -1   11.23    1.31
   2  11  -1   49.79    2.22
  -2 -11   1   47.81    2.14
   1  11  -1    1.45    1.00
  -1 -11   1    2.49    0.71
   0  11  -1   27.48    1.45
   0 -11   1   29.26    1.37
  -1  11  -1   95.43    2.46
   1 -11   1   91.60    2.37
  -2  11  -1   19.47    0.80
  -2  11  -1   19.54    0.81
   2 -11   1   19.66    0.81
  -3  11  -1   10.33    0.83
   3 -11   1    9.68    0.83
  -4  11  -1  109.20    2.91
   4 -11   1  105.56    2.86
  -5  11  -1   38.29    1.75
   5 -11   1   39.39    1.73
  -6  11  -1    7.02    1.00
   6 -11   1    8.95    1.26
   7 -11   1   53.43    2.38
   4  10  -1   22.94    2.02
   3  10  -1   43.30    2.20
  -3 -10   1   51.15    2.49
   2  10  -1   14.58    1.44
  -2 -10   1   17.18    1.38
   1  10  -1  107.55    3.05
  -1 -10   1  100.33    2.85
   0  10  -1  121.97    3.16
   0 -10   1  117.42    3.00
  -1  10  -1    4.32    0.56
   1 -10   1    3.96    0.47
  -2  10  -1  158.98    3.43
  -2  10  -1  161.60    3.55
   2 -10   1  161.15    3.53
  -3  10  -1  109.53    2.73
   3 -10   1  105.51    2.69
  -4  10  -1    1.15    0.52
   4 -10   1    1.39    0.52
  -5  10  -1   80.45    2.52
   5 -10   1   74.89    2.47
  -6  10  -1   36.31    1.89
   6 -10   1   38.32    1.86
   7 -10   1    0.70    0.76
   8 -10   1   32.72    2.22
   5   9  -1   42.63    2.48
   4   9  -1   10.66    1.25
   3   9  -1   36.10    1.92
  -3  -9   1   36.38    1.79
  -2  -9   1  125.24    3.34
   1   9  -1   22.71    1.37
  -1  -9   1   22.07    1.19
   0   9  -1   22.00    1.23
   0  -9   1   20.80    1.00
  -1   9  -1  231.82    4.83
  -1   9  -1  239.85    5.11
   1  -9   1  233.94    4.82
   1  -9   1  241.89    5.05
  -2   9  -1   13.88    0.61
  -2   9  -1   13.99    0.76
   2  -9   1   13.68    0.58
   2  -9   1   14.43    0.76
  -3   9  -1   52.28    1.66
   3  -9   1   50.95    1.63
  -4   9  -1   89.39    2.55
   4  -9   1   88.76    2.51
  -5   9  -1   24.01    1.45
   5  -9   1   25.14    1.47
  -6   9  -1   43.19    1.97
   6  -9   1   40.82    1.91
   7  -9   1   72.16    2.70
   8  -9   1   15.35    1.86
   6   8  -1   17.23    2.26
   5   8  -1    4.15    1.02
   4   8  -1  128.12    3.75
  -4  -8   1  119.90    3.53
   3   8  -1   87.73    2.83
  -3  -8   1   84.61    2.64
   2   8  -1    2.94    0.69
  -2  -8   1    2.34    0.58
   1   8  -1  120.85    3.20
   0   8  -1   90.13    2.44
   0  -8   1   87.62    2.27
  -1   8  -1   21.59    0.94
  -1   8  -1   21.34    0.73
   1  -8   1   20.72    0.70
   1  -8   1   22.02    0.84
  -2   8  -1  123.66    2.85
  -2   8  -1  120.97    2.59
   2  -8   1  124.34    2.61
   2  -8   1  121.30    2.81
  -3   8  -1   31.45    1.26
   3  -8   1   30.94    1.26
  -4   8  -1    1.76    0.54
   4  -8   1    1.31    0.52
  -5   8  -1   73.98    2.42
   5  -8   1   74.81    2.39
  -6   8  -1   34.59    1.80
   6  -8   1   36.14    1.77
  -7   8  -1   -0.86    0.73
   7  -8   1    0.06    0.72
   8  -8   1    7.07    1.12
   6   7  -1   10.36    1.38
   6   7  -1   12.22    0.80
   5   7  -1   30.62    1.96
   5   7  -1   30.77    0.97
   4   7  -1    1.31    0.71
  -4  -7   1    1.21    0.62
   3   7  -1  115.30    3.35
  -3  -7   1  118.10    3.19
   2   7  -1   68.37    2.26
  -2  -7   1   68.84    2.10
   1   7  -1   27.50    1.31
  -1  -7   1   25.44    1.10
   0   7  -1   41.60    1.46
   0  -7   1   42.55    1.32
  -1   7  -1  135.65    2.90
  -1   7  -1  135.62    3.00
   1  -7   1  136.35    2.98
   1  -7   1  130.99    2.87
  -2   7  -1    8.97    0.67
  -2   7  -1    7.79    0.38
   2  -7   1    8.60    0.38
   2  -7   1    7.96    0.65
  -3   7  -1   78.85    2.18
   3  -7   1   78.78    2.14
  -4   7  -1  240.45    7.07
   4  -7   1  311.34    6.21
  -5   7  -1   58.57    2.09
   5  -7   1   59.80    2.10
  -6   7  -1   29.88    1.70
   6  -7   1   30.16    1.65
  -7   7  -1   65.86    2.61
   7  -7   1   70.72    1.57
   7  -7   1   69.88    1.63
   7  -7   1   69.70    2.61
   8  -7   1   25.53    0.91
   8  -7   1   20.89    1.84
   8  -7   1   23.69    1.00
   9  -7   1    8.64    1.44
   7   6  -1   57.47    1.91
   7   6  -1   53.48    2.81
   6   6  -1   27.42    1.25
   6   6  -1   26.14    1.92
  -6  -6   1   26.38    1.19
   5   6  -1    0.76    0.78
   5   6  -1    1.18    0.43
  -5  -6   1    0.05    0.60
  -5  -6   1    0.70    0.35
   4   6  -1  106.81    3.20
   4   6  -1  103.79    2.40
  -4  -6   1  103.94    2.33
  -4  -6   1  108.38    3.07
   3   6  -1   28.89    1.55
  -3  -6   1   28.57    1.37
   2   6  -1    4.05    0.66
  -2  -6   1    3.22    0.52
   1   6  -1  143.83    3.50
  -1  -6   1  147.72    3.42
   0   6  -1  204.69    4.49
   0  -6   1  206.18    4.44
  -1   6  -1   69.68    1.66
  -1   6  -1   71.20    1.68
   1  -6   1   68.90    1.65
   1  -6   1   70.95    1.68
  -2   6  -1  169.72    3.36
  -2   6  -1  163.26    3.71
   2  -6   1  170.57    3.69
  -3   6  -1  150.10    3.53
   3  -6   1  148.69    3.49
  -4   6  -1    5.63    0.84
   4  -6   1    5.08    0.67
  -5   6  -1  168.35    4.18
   5  -6   1  166.20    4.16
  -6   6  -1   65.33    2.35
   6  -6   1   66.08    2.35
   6  -6   1   66.12    1.53
   6  -6   1   64.50    1.61
  -7   6  -1    1.60    0.78
   7  -6   1    1.79    0.77
   7  -6   1    2.35    0.46
   7  -6   1    2.73    0.36
   8  -6   1   67.25    2.73
   8  -6   1   66.51    1.83
   8  -6   1   69.47    2.01
   9  -6   1   19.08    1.41
   9  -6   1   23.11    2.15
   7   5  -1    0.17    0.89
   7   5  -1    0.99    0.65
  -7  -5   1    0.48    0.69
   6   5  -1   38.72    2.07
   6   5  -1   34.98    1.51
  -6  -5   1   33.79    1.81
  -6  -5   1   36.45    2.07
   5   5  -1   67.99    2.30
   5   5  -1   64.99    2.50
  -5  -5   1   68.57    2.36
  -5  -5   1   70.67    1.81
   4   5  -1    1.87    0.43
   4   5  -1    2.89    0.70
  -4  -5   1    2.81    0.57
  -4  -5   1    2.36    0.34
   3   5  -1  112.46    3.10
   3   5  -1  112.01    2.48
  -3  -5   1  111.42    2.97
  -3  -5   1  113.53    2.39
   2   5  -1  297.10    6.58
  -2  -5   1  305.07    6.52
   1   5  -1   82.45    2.23
  -1  -5   1   86.22    2.17
   0   5  -1  587.60   11.75
   0  -5   1  583.67   11.72
  -1   5  -1  481.56    9.21
  -1   5  -1  444.71    9.25
   1  -5   1  464.56    9.23
   1  -5   1  466.63    9.25
  -2   5  -1   73.98    2.03
   2  -5   1   76.25    1.89
  -3   5  -1   62.83    1.82
   3  -5   1   65.00    1.81
  -4   5  -1  241.62    5.36
   4  -5   1  238.12    4.74
   4  -5   1  236.56    4.80
   4  -5   1  235.11    5.31
  -5   5  -1    2.21    0.59
   5  -5   1    1.40    0.57
   5  -5   1    1.73    0.23
   5  -5   1    1.65    0.32
  -6   5  -1   34.35    1.67
   6  -5   1   31.42    1.14
  -7   5  -1   76.11    2.66
   7  -5   1   71.65    2.03
   7  -5   1   70.15    2.61
   8  -5   1   12.90    1.12
   8  -5   1   11.27    1.61
   9  -5   1    7.81    1.31
   8   4  -1   13.05    2.02
   8   4  -1   16.12    1.53
  -8  -4   1   15.23    1.56
   7   4  -1   51.29    2.04
   7   4  -1   49.33    2.43
  -7  -4   1   52.27    1.92
   6   4  -1   24.58    1.73
   6   4  -1   25.84    1.40
  -6  -4   1   24.07    1.21
  -6  -4   1   28.61    1.61
   5   4  -1   25.56    1.26
  -5  -4   1   25.81    1.46
  -5  -4   1   23.88    1.00
   4   4  -1  257.70    6.06
   4   4  -1  259.08    5.60
  -4  -4   1  267.18    5.98
  -4  -4   1  261.66    5.43
   3   4  -1   60.68    1.58
   3   4  -1   59.03    2.00
  -3  -4   1   61.53    1.44
  -3  -4   1   61.61    1.90
   2   4  -1   32.80    1.35
   2   4  -1   34.27    0.89
  -2  -4   1   35.61    0.81
   1   4  -1  172.28    3.92
  -1  -4   1  182.37    3.90
   0   4  -1    3.89    0.19
   0   4  -1    3.41    0.48
   0  -4   1    2.61    0.21
   0  -4   1    3.07    0.39
  -1   4  -1   58.44    1.28
  -1   4  -1   57.96    1.39
   1  -4   1   59.53    1.30
   1  -4   1   56.43    1.38
  -2   4  -1  157.52    3.51
   2  -4   1  159.19    3.46
  -3   4  -1  274.69    5.93
   3  -4   1  281.95    5.93
   3  -4   1  279.96    5.56
   3  -4   1  276.15    5.50
  -4   4  -1   66.94    1.96
   4  -4   1   66.63    1.99
   4  -4   1   65.62    1.62
  -5   4  -1   26.20    1.30
   5  -4   1   25.26    0.98
   5  -4   1   25.31    1.36
  -6   4  -1    9.77    1.09
   6  -4   1   10.94    0.90
   6  -4   1   10.32    1.22
  -7   4  -1   -0.52    0.63
   7  -4   1    0.88    0.50
   7  -4   1    1.12    0.71
   8  -4   1   61.39    2.58
   8  -4   1   60.58    2.12
   9  -4   1   18.60    2.01
   9  -4   1   15.48    1.54
   8   3  -1   23.56    1.71
   8   3  -1   16.95    1.93
  -8  -3   1   21.69    1.69
   7   3  -1    1.98    0.71
   7   3  -1    1.46    0.82
  -7  -3   1    1.61    0.70
  -7  -3   1    1.66    0.65
   6   3  -1   60.26    2.36
   6   3  -1   61.84    2.12
  -6  -3   1   65.53    2.28
  -6  -3   1   59.04    1.85
   5   3  -1  104.41    3.12
   5   3  -1  106.12    2.86
  -5  -3   1  104.73    2.60
  -5  -3   1  114.31    3.09
   4   3  -1    1.74    0.58
   4   3  -1    1.86    0.48
  -4  -3   1    2.50    0.61
  -4  -3   1    2.20    0.33
   3   3  -1  153.44    3.41
   3   3  -1  153.79    3.74
  -3  -3   1  151.65    3.66
  -3  -3   1  158.64    3.28
   2   3  -1  112.31    2.50
  -2  -3   1  117.62    2.42
  -2  -3   1  119.87    2.80
   1   3  -1    1.90    0.35
  -1  -3   1    1.36    0.29
   0   3  -1  392.36    7.57
   0   3  -1  366.39    7.49
   0  -3   1  383.19    7.55
   0  -3   1  373.55    7.45
  -1   3  -1  122.43    2.61
   1  -3   1  125.64    2.62
   1  -3   1  121.80    2.49
  -2   3  -1  160.32    3.46
   2  -3   1  157.65    3.18
   2  -3   1  158.16    3.19
   2  -3   1  161.22    3.45
  -3   3  -1  154.53    3.50
   3  -3   1  155.26    3.25
   3  -3   1  153.73    3.49
  -4   3  -1  293.99    6.24
   4  -3   1  286.07    6.01
   4  -3   1  286.64    6.26
  -5   3  -1   11.91    0.94
   5  -3   1   11.16    1.07
   5  -3   1   11.81    0.81
  -6   3  -1   26.11    1.42
   6  -3   1   23.76    1.23
   6  -3   1   24.34    1.50
  -7   3  -1  154.48    4.00
   7  -3   1  151.94    3.81
   7  -3   1  145.59    4.11
   8  -3   1    4.41    0.93
   8  -3   1    4.65    0.97
   9  -3   1   15.85    1.96
   9  -3   1   13.69    1.55
   8   2  -1   11.42    1.44
   8   2  -1   11.39    1.66
  -8  -2   1   11.37    1.56
   7   2  -1   59.50    2.53
   7   2  -1   59.48    2.40
  -7  -2   1   58.75    2.05
  -7  -2   1   61.85    2.32
   6   2  -1   15.50    1.29
  -6  -2   1   15.28    1.23
  -6  -2   1   14.92    1.01
   5   2  -1   23.91    1.40
   5   2  -1   21.53    1.28
  -5  -2   1   22.35    0.98
  -5  -2   1   22.42    1.25
   4   2  -1  163.88    3.82
   4   2  -1  156.22    3.97
  -4  -2   1  170.55    3.98
  -4  -2   1  167.86    3.63
   3   2  -1  142.87    3.45
   3   2  -1  141.03    3.25
  -3  -2   1  149.57    3.13
   2   2  -1   13.70    0.78
   2   2  -1   13.02    0.63
  -2  -2   1   14.99    0.52
   1   2  -1  563.87   11.29
   1   2  -1  552.74   11.26
  -1  -2   1  566.29   11.27
  -1  -2   1  586.98   11.26
   0   2  -1  297.27    5.89
   0   2  -1  297.55    5.90
   0  -2   1  299.52    5.91
   0  -2   1  296.60    5.91
  -1   2  -1  156.24    3.16
   1  -2   1  149.71    3.04
   1  -2   1  151.51    3.15
  -2   2  -1   66.18    1.64
  -2   2  -1   67.05    1.53
   2  -2   1   68.34    1.48
   2  -2   1   66.01    1.64
  -3   2  -1  130.99    2.96
   3  -2   1  128.71    2.83
   3  -2   1  127.34    2.97
  -4   2  -1  109.28    2.49
  -4   2  -1  111.97    2.70
   4  -2   1  104.05    2.51
   4  -2   1  108.99    2.62
   4  -2   1  107.00    2.74
  -5   2  -1  225.91    5.20
  -5   2  -1  234.29    5.14
   5  -2   1  217.46    4.93
   5  -2   1  225.18    5.05
   5  -2   1  227.91    5.21
  -6   2  -1   65.68    2.18
  -6   2  -1   71.85    2.21
   6  -2   1   70.48    2.38
   6  -2   1   70.22    2.16
   6  -2   1   65.63    2.24
  -7   2  -1    8.46    1.14
   7  -2   1   10.44    1.22
   7  -2   1   10.98    1.36
  -8   2  -1   49.60    2.41
   8  -2   1   49.43    2.38
   8  -2   1   52.25    2.14
   9  -2   1    6.40    1.22
   9  -2   1    4.89    1.04
   9   1  -1   26.36    2.16
   9   1  -1   27.99    2.06
   8   1  -1   18.57    1.68
   8   1  -1   20.88    1.68
  -8  -1   1   17.40    1.63
  -8  -1   1   19.54    1.56
   7   1  -1    0.31    0.63
  -7  -1   1    0.08    0.55
  -7  -1   1    0.89    0.59
   6   1  -1   46.93    1.95
   6   1  -1   49.38    1.97
  -6  -1   1   49.22    1.68
  -6  -1   1   47.12    1.84
   5   1  -1  150.24    3.75
   5   1  -1  149.60    3.72
  -5  -1   1  145.73    3.46
   4   1  -1    1.76    0.47
   4   1  -1    1.85    0.48
  -4  -1   1    1.38    0.39
  -4  -1   1    1.67    0.34
   3   1  -1  216.41    4.77
   3   1  -1  215.08    4.71
  -3  -1   1  218.99    4.75
  -3  -1   1  223.40    4.79
   2   1  -1  118.70    2.67
   2   1  -1  114.74    2.61
  -2  -1   1  119.58    2.56
  -2  -1   1  119.75    2.67
   1   1  -1   62.94    1.37
   1   1  -1   50.23    1.33
  -1  -1   1   61.42    1.30
  -1  -1   1   61.52    1.36
  -1   1  -1  609.94   12.34
  -2   1  -1   -0.10    0.14
  -2   1  -1    0.04    0.19
   2  -1   1   -0.08    0.16
  -3   1  -1  297.96    6.27
   3  -1   1  300.55    6.30
   3  -1   1  308.99    6.28
  -4   1  -1  226.45    4.95
  -4   1  -1  228.17    4.91
   4  -1   1  228.34    5.03
   4  -1   1  226.96    5.01
  -5   1  -1    2.38    0.54
  -5   1  -1    1.44    0.37
   5  -1   1    2.50    0.59
   5  -1   1    1.90    0.51
  -6   1  -1   37.43    1.54
  -6   1  -1   41.05    1.52
   6  -1   1   39.58    1.67
   6  -1   1   39.14    1.78
  -7   1  -1   78.79    2.42
  -7   1  -1   78.71    2.49
   7  -1   1   77.21    2.68
   7  -1   1   71.71    3.20
  -8   1  -1    2.47    0.85
   8  -1   1    1.68    0.87
   8  -1   1    2.42    0.81
   9  -1   1    9.12    1.35
   9  -1   1    5.88    1.12
   9   0  -1    2.44    0.96
   9   0  -1    4.82    1.08
   8   0  -1   19.72    1.70
   8   0  -1   18.47    1.58
  -8   0   1   20.12    1.47
  -8   0   1   18.62    1.61
   7   0  -1   58.03    2.35
  -7   0   1   60.52    2.08
  -7   0   1   56.83    2.09
   6   0  -1   53.71    1.95
   6   0  -1   54.91    2.09
  -6   0   1   50.62    1.79
  -6   0   1   55.09    1.88
   5   0  -1   74.31    2.18
   5   0  -1   70.65    2.27
  -5   0   1   70.99    2.11
  -5   0   1   74.65    2.07
   4   0  -1  178.07    4.02
   4   0  -1  174.32    4.10
  -4   0   1  183.53    3.98
  -4   0   1  173.35    4.05
   3   0  -1   63.75    1.64
   3   0  -1   61.09    1.71
  -3   0   1   57.73    1.66
  -3   0   1   63.78    1.65
   2   0  -1 1000.00   19.77
   2   0  -1  949.61   19.54
  -2   0   1  971.08   19.47
  -2   0   1  969.26   19.72
   1   0  -1  632.18   12.48
   1   0  -1  577.64   12.43
  -1   0  -1  138.33    2.88
  -1   0  -1  138.20    2.87
   1   0   1  141.98    2.89
   1   0   1  141.75    2.88
  -2   0  -1  399.41    8.01
  -2   0  -1  390.62    7.96
   2   0   1  398.05    8.02
   2   0   1  401.01    7.98
  -3   0  -1   17.80    0.72
  -3   0  -1   15.82    0.75
   3   0   1   17.08    0.81
   3   0   1   16.99    0.78
  -4   0  -1   13.76    0.80
  -4   0  -1   14.34    0.75
   4   0   1   13.53    0.91
   4   0   1   13.17    0.88
  -5   0  -1   80.02    2.56
   5   0   1   83.15    2.41
   5   0   1   83.67    2.45
  -6   0  -1   34.26    1.51
  -6   0  -1   35.01    1.45
   6   0   1   35.39    1.67
   6   0   1   33.76    1.65
  -7   0  -1    8.31    1.07
  -7   0  -1    5.15    0.77
   7   0   1    5.29    0.90
   7   0   1    4.61    1.00
  -8   0  -1   23.85    1.76
  -8   0  -1   27.34    1.68
   8   0   1   27.93    1.91
   8   0   1   27.27    1.86
   9   0   1    7.31    1.28
   9   0   1   12.35    1.94
   9  -1  -1   26.74    2.07
   9  -1  -1   22.71    1.80
  -9   1   1   22.39    1.62
   8  -1  -1   20.18    1.73
   8  -1  -1   18.60    1.49
  -8   1   1   17.47    1.59
  -8   1   1   20.20    1.31
   7  -1  -1    2.77    0.68
   7  -1  -1    3.25    0.84
  -7   1   1    3.33    0.72
  -7   1   1    4.19    0.66
   6  -1  -1  136.64    3.40
   6  -1  -1  132.15    3.65
  -6   1   1  135.19    3.44
   5  -1  -1   85.66    2.27
   5  -1  -1   81.71    2.49
  -5   1   1   83.45    2.25
  -5   1   1   81.86    2.31
   4  -1  -1    4.98    0.61
   4  -1  -1    4.13    0.64
  -4   1   1    4.92    0.70
  -4   1   1    4.90    0.58
   3  -1  -1   73.07    1.71
   3  -1  -1   71.38    1.92
  -3   1   1   68.68    1.74
   2  -1  -1  969.07   19.33
   2  -1  -1  989.10   19.42
  -2   1   1  930.24   19.29
  -2   1   1  988.35   19.38
   1  -1  -1    0.01    0.16
   1  -1  -1    0.06    0.08
  -1   1   1    0.13    0.16
  -1   1   1    0.01    0.08
  -1  -1  -1  162.90    3.37
   1   1   1  170.15    3.38
   1   1   1  164.85    3.47
  -2  -1  -1   22.35    0.70
   2   1   1   22.47    0.74
  -3  -1  -1  139.95    3.10
  -3  -1  -1  137.79    3.29
   3   1   1  143.14    3.17
   3   1   1  144.56    3.36
  -4  -1  -1  161.45    3.90
  -4  -1  -1  166.74    3.69
   4   1   1  163.92    3.96
   4   1   1  168.12    3.80
  -5  -1  -1    2.98    0.55
  -5  -1  -1    3.66    0.57
   5   1   1    3.94    0.66
   5   1   1    4.12    0.64
  -6  -1  -1  113.83    3.21
  -6  -1  -1  116.48    2.97
   6   1   1  118.48    3.19
   6   1   1   99.09    4.31
  -7  -1  -1   52.37    1.99
  -7  -1  -1   56.45    2.19
   7   1   1   54.59    2.25
   7   1   1   57.44    2.36
  -8  -1  -1   -0.42    0.80
   8   1   1   -0.31    0.79
   8   1   1   -0.95    0.78
   9  -2  -1    0.47    0.77
   9  -2  -1    0.37    0.94
  -9   2   1    0.58    0.65
   8  -2  -1   38.82    1.56
   8  -2  -1   39.98    2.15
  -8   2   1   41.96    1.66
  -8   2   1   38.75    1.99
   7  -2  -1   82.86    2.83
   7  -2  -1   79.92    2.42
  -7   2   1   85.61    2.37
  -7   2   1   81.13    2.61
   6  -2  -1   17.12    1.07
   6  -2  -1   14.68    1.34
  -6   2   1   16.14    1.19
  -6   2   1   16.91    0.91
   5  -2  -1  121.46    3.30
   5  -2  -1  124.99    2.95
  -5   2   1  129.57    2.97
   4  -2  -1  165.99    3.95
   4  -2  -1  168.91    3.62
  -4   2   1  165.39    3.66
  -4   2   1  171.72    3.92
   3  -2  -1  147.42    3.07
   3  -2  -1  150.11    3.41
  -3   2   1  141.29    3.13
  -3   2   1  149.66    3.40
   2  -2  -1    1.60    0.35
  -2   2   1    1.54    0.37
   1  -2  -1  302.76    5.98
  -1   2   1  287.80    6.00
  -1   2   1  298.84    5.82
   0  -2  -1    2.93    0.26
   0   2   1    2.68    0.25
   0   2   1    3.09    0.28
  -1  -2  -1    0.59    0.20
  -1  -2  -1    0.64    0.13
   1   2   1    0.77    0.15
   1   2   1    0.81    0.23
  -2  -2  -1  430.08    8.65
  -2  -2  -1  424.19    8.91
   2   2   1  435.04    8.68
   2   2   1  448.66    8.95
  -3  -2  -1   61.39    1.82
  -3  -2  -1   62.16    1.55
   3   2   1   62.15    1.62
   3   2   1   61.38    1.88
  -4  -2  -1   34.24    1.43
  -4  -2  -1   37.44    1.17
   4   2   1   35.89    1.53
   4   2   1   35.73    1.31
  -5  -2  -1   68.61    1.94
  -5  -2  -1   66.60    2.22
   5   2   1   68.45    2.32
   5   2   1   68.06    2.10
  -6  -2  -1   35.34    1.45
  -6  -2  -1   33.83    1.68
   6   2   1   37.34    1.67
   6   2   1   35.74    1.88
  -7  -2  -1    8.21    0.91
  -7  -2  -1    9.67    1.35
   7   2   1    9.95    1.34
   7   2   1    9.38    1.15
  -8  -2  -1   34.88    1.97
   8   2   1   36.55    2.27
   8   2   1   40.17    2.12
   9  -3  -1   19.58    1.54
   9  -3  -1   22.96    2.04
  -9   3   1   21.72    1.27
   8  -3  -1   16.19    1.27
   8  -3  -1   17.75    1.70
  -8   3   1   16.80    1.58
  -8   3   1   19.20    1.10
   7  -3  -1   -0.31    0.46
   7  -3  -1    0.15    0.65
  -7   3   1    0.77    0.64
  -7   3   1    0.47    0.39
   6  -3  -1   89.36    2.32
   6  -3  -1   90.07    2.82
  -6   3   1   91.92    2.71
  -6   3   1   89.52    2.27
   5  -3  -1   87.75    2.62
   5  -3  -1   89.37    2.15
  -5   3   1   88.05    2.12
  -5   3   1   90.87    2.57
   4  -3  -1   63.10    1.51
   4  -3  -1   63.58    1.97
  -4   3   1   64.75    1.53
   3  -3  -1  317.12    6.41
   3  -3  -1  298.49    5.93
  -3   3   1  296.69    5.99
  -3   3   1  290.90    6.39
   2  -3  -1  333.46    6.64
  -2   3   1  309.19    6.66
   1  -3  -1   13.38    0.55
  -1   3   1   14.09    0.43
  -1   3   1   12.64    0.63
   0  -3  -1  166.90    3.60
   0   3   1  172.96    3.53
   0   3   1  178.62    3.65
  -1  -3  -1  169.89    3.79
   1   3   1  177.83    3.84
   1   3   1  174.68    3.56
  -2  -3  -1    6.82    0.62
  -2  -3  -1    7.05    0.38
   2   3   1    7.37    0.72
   2   3   1    7.40    0.45
  -3  -3  -1  405.86    8.30
  -3  -3  -1  406.96    8.70
   3   3   1  410.76    8.37
   3   3   1  421.22    8.77
  -4  -3  -1   89.13    2.17
  -4  -3  -1   89.36    2.57
   4   3   1   85.88    2.28
   4   3   1   86.79    2.62
  -5  -3  -1    1.24    0.56
  -5  -3  -1    0.61    0.38
   5   3   1    0.69    0.72
   5   3   1    1.44    0.53
  -6  -3  -1   30.93    1.70
  -6  -3  -1   30.39    1.37
   6   3   1   31.74    1.57
   6   3   1   28.79    1.77
  -7  -3  -1   34.23    1.68
   7   3   1   29.09    2.06
   7   3   1   34.65    1.80
  -8  -3  -1   -0.43    0.87
   8   3   1   -0.05    0.89
   8   3   1   -0.66    0.93
   9  -4  -1    3.51    0.79
   9  -4  -1    2.82    1.02
   8  -4  -1   33.39    1.46
   8  -4  -1   35.29    2.09
  -8   4   1   39.45    2.76
   7  -4  -1   88.43    2.96
   7  -4  -1   89.45    2.33
  -7   4   1   94.47    2.93
  -7   4   1   86.47    2.21
   6  -4  -1    0.59    0.62
   6  -4  -1    0.33    0.33
  -6   4   1    1.16    0.59
  -6   4   1    1.36    0.27
   5  -4  -1   69.25    2.24
   5  -4  -1   66.15    1.60
  -5   4   1   67.84    1.58
  -5   4   1   68.99    2.22
   4  -4  -1  228.20    5.06
   4  -4  -1  223.92    4.44
  -4   4   1  215.65    4.44
  -4   4   1  223.28    5.09
   3  -4  -1   83.38    2.18
  -3   4   1   80.08    2.22
   2  -4  -1  227.10    4.78
  -2   4   1  223.56    4.88
   1  -4  -1  415.12    8.24
  -1   4   1  397.95    8.30
  -1   4   1  420.94    8.22
   0  -4  -1    1.26    0.24
   0   4   1    1.45    0.22
   0   4   1    1.54    0.29
  -1  -4  -1   86.32    2.18
   1   4   1   88.84    1.90
   1   4   1   89.58    2.27
  -2  -4  -1  164.19    3.94
  -2  -4  -1  170.23    3.56
   2   4   1  172.95    3.59
   2   4   1  177.09    4.05
  -3  -4  -1   19.88    0.73
  -3  -4  -1   20.33    1.09
   3   4   1   20.59    1.23
   3   4   1   20.33    0.84
  -4  -4  -1   64.26    2.16
  -4  -4  -1   63.95    1.70
   4   4   1   65.23    1.83
   4   4   1   63.92    2.26
  -5  -4  -1  128.49    3.59
  -5  -4  -1  127.18    3.08
   5   4   1  128.49    3.70
   5   4   1  134.39    3.27
  -6  -4  -1    5.23    0.68
  -6  -4  -1    2.94    0.79
   6   4   1    4.67    0.74
   6   4   1    5.82    0.97
  -7  -4  -1   13.92    1.44
   7   4   1   14.03    1.79
   7   4   1   16.78    1.50
   9  -5  -1   36.42    1.56
   9  -5  -1   42.69    2.45
   8  -5  -1   29.43    1.95
   8  -5  -1   30.51    1.24
   7  -5  -1   11.59    0.74
   7  -5  -1   10.76    1.39
  -7   5   1   12.38    1.37
   6  -5  -1   61.87    1.50
  -6   5   1   61.35    2.27
   5  -5  -1   42.88    1.74
  -5   5   1   39.66    1.73
   4  -5  -1    3.96    0.62
  -4   5   1    2.69    0.59
   3  -5  -1  125.12    2.98
  -3   5   1  122.28    3.07
   2  -5  -1   34.51    1.10
  -2   5   1   33.89    0.77
  -2   5   1   34.84    1.22
  -2   5   1   35.38    0.86
   1  -5  -1   49.09    1.26
  -1   5   1   48.11    1.37
  -1   5   1   52.79    1.34
   0  -5  -1  270.39    5.64
   0   5   1  279.28    5.75
   0   5   1  262.67    5.49
  -1  -5  -1  201.16    4.40
   1   5   1  202.43    4.49
   1   5   1  199.17    4.04
   1   5   1  190.88    4.03
  -2  -5  -1    2.27    0.44
   2   5   1    3.01    0.38
   2   5   1    2.10    0.52
  -3  -5  -1  114.77    3.10
   3   5   1  117.75    3.21
   3   5   1  117.93    2.66
  -4  -5  -1   93.97    2.27
  -4  -5  -1   93.40    2.82
   4   5   1   95.57    2.40
   4   5   1   96.89    2.97
  -5  -5  -1    2.99    0.71
  -5  -5  -1    3.02    0.50
   5   5   1    2.88    0.60
   5   5   1    2.06    0.78
  -6  -5  -1   68.55    2.11
   6   5   1   71.64    2.25
   6   5   1   66.81    2.76
   7   5   1   37.39    2.41
   9  -6  -1    1.03    0.97
   9  -6  -1    0.39    0.54
   8  -6  -1   42.69    2.24
   8  -6  -1   43.99    1.27
   7  -6  -1   70.02    2.59
  -7   6   1   70.54    2.63
   6  -6  -1    3.02    0.73
   5  -6  -1  134.10    3.54
  -5   6   1  136.40    3.63
   4  -6  -1  227.92    5.17
   3  -6  -1    0.11    0.36
  -3   6   1    0.01    0.43
   2  -6  -1   80.11    1.99
  -2   6   1   79.37    2.12
  -2   6   1   80.12    1.78
  -2   6   1   80.46    1.70
   1  -6  -1  194.85    4.13
  -1   6   1  206.46    4.26
  -1   6   1  191.34    4.24
   0  -6  -1   69.84    1.80
   0   6   1   67.28    1.66
   0   6   1   69.50    1.58
   0   6   1   71.78    1.94
  -1  -6  -1   79.11    2.14
   1   6   1   82.58    2.29
   1   6   1   80.21    1.76
   1   6   1   79.40    1.78
  -2  -6  -1  152.24    3.70
   2   6   1  154.94    3.82
   2   6   1  145.03    3.13
   2   6   1  152.86    3.18
  -3  -6  -1    4.05    0.63
   3   6   1    4.38    0.56
   3   6   1    3.95    0.73
  -4  -6  -1    3.65    0.54
  -4  -6  -1    2.60    0.67
   4   6   1    2.46    0.73
   4   6   1    3.20    0.48
  -5  -6  -1   12.76    0.90
   5   6   1   11.62    0.98
   5   6   1   10.48    1.21
  -6  -6  -1    2.42    0.66
   6   6   1    1.91    0.62
   6   6   1    0.43    0.88
   9  -7  -1   24.27    2.21
   8  -7  -1    1.74    0.87
   7  -7  -1   18.96    1.55
  -7   7   1   20.30    1.68
   6  -7  -1   89.00    3.06
  -6   7   1   92.53    2.94
   5  -7  -1   60.18    2.09
  -5   7   1   64.00    2.25
   4  -7  -1   22.70    1.18
  -4   7   1   25.49    1.37
   3  -7  -1  165.66    3.85
  -3   7   1  171.12    4.01
   2  -7  -1   86.29    2.16
  -2   7   1   89.70    2.02
  -2   7   1   90.73    2.34
  -1   7   1   16.61    1.31
  -1   7   1   16.64    0.88
   0  -7  -1  265.02    5.58
   0   7   1  265.47    5.70
   0   7   1  257.05    5.28
   0   7   1  254.94    5.36
   1   7   1   93.13    2.10
   1   7   1  100.31    2.70
   1   7   1   97.55    2.07
  -2  -7  -1    2.29    0.55
   2   7   1    1.56    0.59
  -3  -7  -1  142.69    3.73
   3   7   1  144.31    3.06
   3   7   1  142.27    3.87
   3   7   1  138.59    2.97
  -4  -7  -1   62.53    2.36
   4   7   1   65.97    1.69
   4   7   1   62.54    2.52
   5   7   1    4.43    0.98
   5   7   1    4.24    0.54
   6   7   1   51.45    3.08
   8  -8  -1   36.44    2.14
   7  -8  -1   40.61    1.93
  -7   8   1   33.16    2.03
   6  -8  -1    1.45    0.62
  -6   8   1    2.79    0.76
   5  -8  -1   68.49    2.23
  -5   8   1   70.66    2.40
   4  -8  -1  126.88    3.24
  -4   8   1  130.38    3.40
   3  -8  -1    6.37    0.73
  -3   8   1    6.26    0.91
   2  -8  -1   65.37    1.76
  -2   8   1   70.02    1.95
  -2   8   1   67.62    1.69
  -1   8   1  109.89    2.59
  -1   8   1  109.50    2.69
   0  -8  -1    0.08    0.31
   0   8   1    0.56    0.30
   0   8   1    0.11    0.18
   0   8   1    0.42    0.46
  -1  -8  -1   63.75    1.94
   1   8   1   60.91    2.09
  -2  -8  -1   56.12    1.96
  -3  -8  -1    5.52    0.83
   3   8   1    5.66    0.87
   4   8   1   55.48    2.43
   5   8   1   47.25    2.53
   8  -9  -1   12.55    1.71
   7  -9  -1    5.57    0.93
   6  -9  -1   88.54    2.80
  -6   9   1   90.34    2.94
   5  -9  -1   28.39    1.66
  -5   9   1   31.64    1.64
   4  -9  -1   20.93    1.16
  -4   9   1   21.09    1.31
   3  -9  -1  104.19    2.67
  -3   9   1  109.51    2.83
   2  -9  -1   49.54    1.44
  -2   9   1   50.23    1.41
  -2   9   1   50.09    1.57
  -1   9   1   14.99    0.80
  -1   9   1   14.99    0.98
   0   9   1  136.24    3.42
  -1  -9  -1   39.84    1.57
   1   9   1   35.85    1.65
  -2  -9  -1   15.88    1.27
   2   9   1   15.66    1.34
  -3  -9  -1   61.62    2.61
   3   9   1   54.81    2.34
   4   9   1   15.66    1.77
   7 -10  -1   48.86    2.20
   6 -10  -1    0.72    0.61
  -6  10   1   -0.10    0.76
   5 -10  -1   62.19    2.12
  -5  10   1   60.52    2.21
   4 -10  -1   21.84    1.20
  -4  10   1   22.87    1.36
   3 -10  -1    1.47    0.44
  -2  10   1  132.03    3.02
  -2  10   1  134.99    2.90
  -2  10   1  131.01    3.12
  -1  10   1   97.71    2.27
  -1  10   1   99.80    2.66
  -1  10   1  107.32    2.86
   0  10   1    1.37    0.59
   1  10   1   31.23    1.61
   2  10   1   41.75    1.98
   3  10   1    0.90    0.83
   6 -11  -1   69.27    2.51
  -6  11   1   73.93    3.14
   5 -11  -1    8.34    1.10
  -5  11   1    7.03    0.94
   4 -11  -1   23.37    1.27
  -4  11   1   24.30    1.41
   3 -11  -1  115.23    2.86
  -3  11   1  116.42    2.95
  -2  11   1   33.27    1.22
  -2  11   1   36.49    1.07
  -2  11   1   36.91    1.22
  -1  11   1   33.84    1.46
   0  11   1   76.81    2.50
   1  11   1   48.93    2.12
   2  11   1    2.81    0.96
   5 -12  -1   47.08    1.86
  -5  12   1   38.55    1.90
  -4  12   1   44.82    1.78
  -2  12   1   52.70    1.88
  -2  12   1   43.73    1.53
  -1  12   1   37.29    1.60
   0  12   1   -0.20    0.69
   0  13  -2   76.22    2.47
   0 -13   2   87.08    2.89
  -1  13  -2   21.43    1.15
  -2  13  -2   14.65    1.07
   3 -13   2   36.45    1.32
   4 -13   2   22.56    1.36
   5 -13   2    8.71    1.30
   2  12  -2   45.35    2.22
   1  12  -2   49.72    2.08
  -1 -12   2   53.61    2.12
   0  12  -2    2.24    0.66
   0 -12   2    2.47    0.75
  -1  12  -2   54.40    1.70
  -2  12  -2   65.35    1.64
   2 -12   2   61.98    1.58
   3 -12   2   -0.08    0.44
  -4  12  -2   75.78    2.25
   4 -12   2   76.94    2.31
  -5  12  -2   91.63    2.76
   5 -12   2   90.71    2.80
  -6  12  -2    5.25    1.18
   6 -12   2    7.67    1.02
   3  11  -2   38.81    2.22
   2  11  -2   18.96    1.63
  -2 -11   2   22.19    1.68
   1  11  -2   19.01    1.68
  -1 -11   2   23.33    1.46
   0  11  -2  113.34    2.96
   0 -11   2  105.28    2.85
  -1  11  -2   42.84    1.45
   1 -11   2   44.21    1.44
  -2  11  -2    9.03    0.59
  -2  11  -2   10.57    0.62
   2 -11   2   11.09    0.64
   2 -11   2   10.71    0.67
  -3  11  -2  134.63    3.18
   3 -11   2  133.63    3.22
  -4  11  -2   27.31    1.32
   4 -11   2   27.00    1.35
  -5  11  -2   30.50    1.56
   5 -11   2   33.78    1.65
  -6  11  -2   77.11    2.69
   6 -11   2   77.76    2.71
   7 -11   2   37.41    2.16
   4  10  -2   22.11    1.98
   3  10  -2    5.08    0.98
  -3 -10   2    3.35    0.91
   2  10  -2   78.32    2.87
  -2 -10   2   83.24    2.59
   1  10  -2   74.06    2.44
  -1 -10   2   74.32    2.29
   0  10  -2   38.52    1.52
  -1  10  -2  119.07    2.85
   1 -10   2  120.21    2.85
  -2  10  -2  109.61    2.45
  -2  10  -2  111.19    2.55
   2 -10   2  110.18    2.58
  -3  10  -2    1.23    0.41
   3 -10   2    0.83    0.45
  -4  10  -2  138.13    3.43
   4 -10   2  131.46    3.43
  -5  10  -2   41.81    1.79
   5 -10   2   41.40    1.81
  -6  10  -2   -0.73    0.70
   6 -10   2    0.39    0.64
   7 -10   2   14.35    1.58
   8 -10   2   28.03    2.20
   5   9  -2    9.57    1.35
   4   9  -2   73.28    2.83
   3   9  -2  120.05    3.59
  -3  -9   2  119.97    3.39
   2   9  -2   30.22    1.73
  -2  -9   2   32.49    1.53
   1   9  -2   25.76    1.45
  -1  -9   2   26.53    1.26
   0   9  -2  228.28    5.51
   0  -9   2  226.42    5.03
  -1   9  -2   13.17    0.82
  -1   9  -2   14.35    0.52
   1  -9   2   13.15    0.75
   1  -9   2   13.78    0.57
  -2   9  -2   12.97    0.71
  -2   9  -2   14.13    0.59
   2  -9   2   13.86    0.63
   2  -9   2   12.31    0.78
  -3   9  -2  115.55    2.81
   3  -9   2  109.60    2.82
  -4   9  -2   11.55    1.00
   4  -9   2   10.58    1.01
  -5   9  -2   28.76    1.53
   5  -9   2   27.48    1.78
  -6   9  -2   40.67    1.92
   6  -9   2   37.92    1.86
   7  -9   2    5.95    1.00
   8  -9   2   38.71    2.33
   6   8  -2    7.93    1.31
   5   8  -2   69.44    2.86
   4   8  -2   52.67    2.35
  -4  -8   2   48.36    2.11
   3   8  -2   18.69    1.52
  -3  -8   2   19.60    1.35
   2   8  -2   42.13    1.84
  -2  -8   2   41.62    1.64
   1   8  -2  105.97    2.89
  -1  -8   2  102.61    2.77
   0   8  -2    2.95    0.54
   0  -8   2    3.39    0.46
  -1   8  -2  187.19    3.93
  -1   8  -2  192.58    4.09
   1  -8   2  193.93    4.15
   1  -8   2  187.51    3.96
  -2   8  -2   56.60    1.35
  -2   8  -2   58.85    1.57
   2  -8   2   56.62    1.60
   2  -8   2   57.85    1.43
  -3   8  -2    5.67    0.79
   3  -8   2    5.04    0.79
  -4   8  -2  123.86    3.22
   4  -8   2  124.08    3.20
  -5   8  -2  153.67    4.06
   5  -8   2  163.84    4.06
  -6   8  -2   13.29    1.33
   6  -8   2   13.28    1.32
  -7   8  -2   35.68    2.01
   7  -8   2   44.30    2.13
   8  -8   2   37.71    2.24
   6   7  -2   19.96    1.95
   6   7  -2   21.99    0.90
  -6  -7   2   22.43    1.01
   5   7  -2    3.32    0.45
   5   7  -2    4.23    0.98
  -5  -7   2    3.32    0.78
  -5  -7   2    3.27    0.39
   4   7  -2   51.37    2.24
  -4  -7   2   51.38    2.02
   3   7  -2  168.33    4.37
  -3  -7   2  166.54    4.17
   2   7  -2   24.21    1.42
  -2  -7   2   23.95    1.21
   1   7  -2   23.99    1.30
  -1  -7   2   25.71    1.11
   0   7  -2  236.21    5.15
   0  -7   2  239.21    5.12
  -1   7  -2    3.44    0.48
  -1   7  -2    3.41    0.36
   1  -7   2    3.01    0.46
   1  -7   2    3.90    0.47
  -2   7  -2  106.37    2.25
  -2   7  -2  104.03    2.50
   2  -7   2  107.61    2.54
   2  -7   2  108.96    2.32
  -3   7  -2  221.72    4.89
   3  -7   2  215.98    4.84
  -4   7  -2   23.57    1.41
   4  -7   2   25.44    1.25
  -5   7  -2   77.25    2.48
   5  -7   2   80.26    2.48
  -6   7  -2  104.25    3.17
   6  -7   2  107.82    3.16
   6  -7   2  105.89    2.27
   6  -7   2  103.84    2.34
  -7   7  -2    7.07    0.98
   7  -7   2    8.66    0.72
   7  -7   2    9.86    0.60
   7  -7   2    8.22    1.09
   8  -7   2   12.87    1.66
   8  -7   2   14.83    0.90
   8  -7   2   13.40    1.03
   7   6  -2   19.69    2.08
   7   6  -2   20.31    1.19
  -7  -6   2   23.63    1.75
   6   6  -2    0.93    0.83
   6   6  -2    0.64    0.43
  -6  -6   2    0.62    0.47
   5   6  -2   70.21    1.83
   5   6  -2   69.02    2.68
  -5  -6   2   72.31    2.50
  -5  -6   2   71.62    1.79
   4   6  -2   38.56    1.06
  -4  -6   2   39.35    1.05
  -4  -6   2   39.19    1.70
   3   6  -2   13.00    1.29
  -3  -6   2   14.29    1.05
   2   6  -2  101.61    2.82
  -2  -6   2  101.53    2.68
   1   6  -2   39.64    1.47
  -1  -6   2   39.27    1.31
   0   6  -2   20.73    0.91
   0  -6   2   21.70    0.85
  -1   6  -2  343.88    6.77
  -1   6  -2  330.20    6.75
   1  -6   2  339.26    6.81
   1  -6   2  329.92    6.78
  -2   6  -2  175.11    3.56
  -2   6  -2  175.10    3.83
   2  -6   2  175.87    3.84
   2  -6   2  177.47    3.60
  -3   6  -2   30.57    1.21
   3  -6   2   32.09    1.24
   3  -6   2   33.86    0.80
  -4   6  -2  142.76    4.04
   4  -6   2  162.22    3.79
   4  -6   2  162.26    3.18
  -5   6  -2   53.44    1.95
   5  -6   2   54.52    1.29
   5  -6   2   52.60    1.93
   5  -6   2   53.52    1.40
  -6   6  -2    1.28    0.62
   6  -6   2    2.08    0.68
   6  -6   2    1.99    0.30
   6  -6   2    1.71    0.39
  -7   6  -2   80.56    2.82
   7  -6   2   80.13    2.80
   7  -6   2   81.01    2.01
   7  -6   2   80.64    2.19
   8  -6   2   28.62    1.96
   8  -6   2   26.57    1.20
   8  -6   2   26.40    1.36
   9  -6   2    0.61    1.01
   9  -6   2   -0.55    0.75
   8   5  -2    2.28    0.72
   7   5  -2   21.68    1.96
   7   5  -2   28.13    1.45
  -7  -5   2   26.17    1.45
   6   5  -2   87.55    2.41
   6   5  -2   83.24    3.04
  -6  -5   2   84.34    2.87
  -6  -5   2   86.08    2.27
   5   5  -2    0.52    0.42
   5   5  -2    0.82    0.71
  -5  -5   2    0.93    0.33
  -5  -5   2   -0.06    0.56
   4   5  -2  116.39    3.36
   4   5  -2  117.98    2.71
  -4  -5   2  119.77    3.24
   3   5  -2  186.03    4.59
   3   5  -2  189.46    3.91
  -3  -5   2  187.96    4.79
  -3  -5   2  195.90    3.89
   2   5  -2    8.70    0.92
  -2  -5   2    8.65    0.75
   1   5  -2  474.94    9.86
  -1  -5   2  486.72    9.80
   0   5  -2  372.34    7.31
   0   5  -2  347.62    7.03
   0  -5   2  363.40    7.29
   0  -5   2  350.29    7.06
  -1   5  -2   85.80    1.88
  -1   5  -2   83.97    1.92
   1  -5   2   87.92    1.95
   1  -5   2   86.64    1.95
  -2   5  -2   49.98    1.39
  -2   5  -2   50.57    1.14
   2  -5   2   52.91    1.17
   2  -5   2   50.37    1.39
  -3   5  -2  194.74    4.34
   3  -5   2  192.63    3.93
   3  -5   2  198.66    4.34
   3  -5   2  193.22    3.95
  -4   5  -2    3.43    0.51
   4  -5   2    3.66    0.41
   4  -5   2    3.52    0.33
   4  -5   2    3.94    0.59
  -5   5  -2   37.14    1.56
   5  -5   2   36.88    1.20
   5  -5   2   36.18    1.58
   5  -5   2   36.34    1.02
  -6   5  -2  138.71    3.61
   6  -5   2  122.55    3.64
   6  -5   2  133.76    3.15
  -7   5  -2   15.17    1.45
   7  -5   2   18.88    1.14
   7  -5   2   14.34    1.46
   8  -5   2   18.78    1.73
   8  -5   2   17.18    1.30
   9  -5   2   14.44    1.52
   9  -5   2   19.10    2.06
   8   4  -2   28.92    2.33
   8   4  -2   36.40    1.82
  -8  -4   2   33.17    1.76
   7   4  -2   11.71    1.64
   7   4  -2   13.49    1.33
  -7  -4   2   11.75    1.26
   6   4  -2   28.16    1.41
   6   4  -2   26.93    1.80
  -6  -4   2   27.69    1.65
   5   4  -2  100.23    2.61
   5   4  -2   95.57    3.03
  -5  -4   2  100.30    2.91
  -5  -4   2   95.38    2.37
   4   4  -2   33.15    1.20
   4   4  -2   30.72    1.58
  -4  -4   2   35.64    1.05
   3   4  -2    9.76    1.00
   3   4  -2    9.30    0.58
  -3  -4   2    9.72    0.83
  -3  -4   2    9.64    0.47
   2   4  -2  304.86    6.63
   2   4  -2  310.58    6.14
  -2  -4   2  307.92    6.14
  -2  -4   2  316.10    6.57
   1   4  -2   29.32    1.06
  -1  -4   2   30.42    0.99
   0   4  -2  239.71    4.92
   0   4  -2  255.25    5.10
   0  -4   2  251.22    5.10
   0  -4   2  248.51    4.93
  -1   4  -2  145.31    3.10
  -1   4  -2  147.75    3.03
   1  -4   2  148.19    3.05
   1  -4   2  148.46    3.11
  -2   4  -2  504.33    9.85
  -2   4  -2  521.27   10.27
   2  -4   2  483.92    9.84
   2  -4   2  496.02   10.07
  -3   4  -2    1.06    0.33
   3  -4   2    0.86    0.19
   3  -4   2    1.18    0.36
   3  -4   2    1.06    0.19
  -4   4  -2  150.72    3.54
   4  -4   2  144.33    3.52
   4  -4   2  145.56    3.23
   4  -4   2  149.65    3.52
  -5   4  -2   41.98    1.59
   5  -4   2   39.39    1.63
   5  -4   2   40.98    1.37
  -6   4  -2    0.20    0.51
   6  -4   2    0.60    0.47
  -7   4  -2   54.58    2.18
   7  -4   2   54.20    1.91
   7  -4   2   52.38    2.24
   8  -4   2   22.78    1.82
   9  -4   2    0.44    0.97
   9  -4   2   -0.69    0.80
   8   3  -2    1.34    0.76
   8   3  -2   -0.54    0.85
  -8  -3   2   -0.33    0.80
   7   3  -2   41.99    1.87
   7   3  -2   37.27    2.06
  -7  -3   2   38.00    1.63
  -7  -3   2   37.63    1.92
   6   3  -2   73.39    2.63
   6   3  -2   73.53    2.34
  -6  -3   2   76.31    2.51
  -6  -3   2   68.95    2.07
   5   3  -2    4.33    0.66
   5   3  -2    2.05    0.64
  -5  -3   2    3.74    0.62
  -5  -3   2    3.48    0.45
   4   3  -2  121.28    3.25
   4   3  -2  127.70    3.01
  -4  -3   2  112.82    3.43
  -4  -3   2  130.89    2.83
   3   3  -2  190.33    4.17
   3   3  -2  196.25    4.48
  -3  -3   2  192.99    4.07
  -3  -3   2  199.93    4.43
   2   3  -2   36.90    0.96
  -2  -3   2   38.54    0.96
  -2  -3   2   37.48    1.20
   1   3  -2  278.63    5.59
  -1  -3   2  266.17    5.54
  -1  -3   2  263.43    5.32
   0   3  -2  183.34    3.78
   0   3  -2  182.07    3.69
   0  -3   2  186.79    3.69
   0  -3   2  184.74    3.79
  -1   3  -2  138.32    2.91
  -1   3  -2  135.39    2.82
   1  -3   2  136.87    2.83
   1  -3   2  142.38    2.92
   2  -3   2  210.93    4.41
   2  -3   2  207.89    4.22
  -3   3  -2  262.90    5.66
   3  -3   2  267.46    5.66
   3  -3   2  270.76    5.46
  -4   3  -2    7.75    0.70
   4  -3   2    6.69    0.57
   4  -3   2    7.68    0.80
  -5   3  -2   88.26    2.44
   5  -3   2   86.51    2.51
   5  -3   2   84.65    2.41
  -6   3  -2  117.43    3.11
   6  -3   2  113.70    2.97
   6  -3   2  103.50    3.20
  -7   3  -2   10.13    1.25
   7  -3   2    9.54    1.34
   7  -3   2   10.61    1.18
   8  -3   2   38.23    1.90
   8  -3   2   43.31    2.21
   9  -3   2   34.40    2.41
   9  -3   2   33.42    2.00
   9   2  -2    7.06    1.17
   9   2  -2    5.06    1.27
   8   2  -2   41.57    2.23
   8   2  -2   45.59    2.13
  -8  -2   2   41.94    2.02
   7   2  -2   19.32    1.58
   7   2  -2   20.90    1.53
  -7  -2   2   18.16    1.31
  -7  -2   2   21.80    1.47
   6   2  -2   18.76    1.35
   6   2  -2   16.62    1.43
  -6  -2   2   16.04    1.05
  -6  -2   2   18.26    1.30
   5   2  -2  151.32    4.33
   5   2  -2  159.55    3.99
  -5  -2   2  159.82    3.96
  -5  -2   2  158.79    3.64
   4   2  -2   21.56    1.11
  -4  -2   2   24.22    1.13
  -4  -2   2   23.21    0.92
   3   2  -2   59.10    1.71
   3   2  -2   53.49    1.56
  -3  -2   2   56.61    1.65
  -3  -2   2   58.00    1.48
   2   2  -2  378.70    7.73
   2   2  -2  399.74    7.92
  -2  -2   2  379.97    7.73
   1   2  -2   71.89    1.52
  -1  -2   2   71.23    1.66
  -1  -2   2   71.03    1.53
   0   2  -2   31.62    0.76
   0   2  -2   31.90    0.79
   0  -2   2   32.21    0.76
   0  -2   2   31.33    0.79
  -1   2  -2  203.67    4.09
   1  -2   2  195.23    4.08
   1  -2   2  209.31    4.16
  -2   2  -2   40.23    1.26
  -2   2  -2   41.52    1.12
   2  -2   2   42.23    1.16
  -3   2  -2  169.87    3.74
   3  -2   2  164.70    3.73
   3  -2   2  171.64    3.63
  -4   2  -2  236.94    5.18
   4  -2   2  235.21    5.11
   4  -2   2  238.33    5.23
  -5   2  -2  134.49    3.24
   5  -2   2  126.90    3.21
   5  -2   2  123.16    3.28
  -6   2  -2    5.28    0.70
   6  -2   2    6.67    0.98
   6  -2   2    5.03    0.76
  -7   2  -2   59.62    2.19
   7  -2   2   60.93    2.35
   8  -2   2   15.69    1.65
   8  -2   2   13.42    1.50
   9  -2   2    2.62    1.13
   9  -2   2    2.41    0.99
   9   1  -2   20.72    1.98
   9   1  -2   23.79    1.99
   8   1  -2    5.74    0.98
   8   1  -2    3.26    0.88
  -8  -1   2    3.31    0.80
  -8  -1   2    3.84    0.89
   7   1  -2   73.39    2.53
   7   1  -2   60.94    3.62
  -7  -1   2   73.85    2.31
  -7  -1   2   73.13    2.44
   6   1  -2   74.86    2.51
   6   1  -2   79.38    2.50
  -6  -1   2   76.11    2.25
  -6  -1   2   79.91    2.45
   5   1  -2   11.38    1.07
   5   1  -2   10.56    1.11
  -5  -1   2   12.02    0.96
  -5  -1   2   12.17    0.87
   4   1  -2  199.80    4.42
   4   1  -2  182.66    4.40
  -4  -1   2  202.39    4.44
  -4  -1   2  191.96    4.28
   3   1  -2  419.75    9.18
   3   1  -2  461.83    9.20
  -3  -1   2  468.75    9.21
   2   1  -2   84.57    1.94
   2   1  -2   79.47    1.91
  -2  -1   2   81.83    1.92
  -2  -1   2   81.08    1.91
   1   1  -2  411.55    8.05
   1   1  -2  414.51    8.25
  -1  -1   2  401.99    8.03
  -1  -1   2  396.58    8.05
   0   1  -2  290.54    5.68
   0   1  -2  282.18    5.66
   0  -1   2  277.38    5.66
   0  -1   2  291.74    5.68
  -1   1  -2   36.98    0.96
   1  -1   2   38.58    0.97
   1  -1   2   37.65    0.93
  -2   1  -2  172.48    3.72
   2  -1   2  176.64    3.71
   2  -1   2  174.83    3.66
   2  -1   2  173.77    3.74
  -3   1  -2  167.84    3.77
   3  -1   2  175.06    3.77
   3  -1   2  175.33    3.81
  -4   1  -2    5.48    0.62
   4  -1   2    5.84    0.67
   4  -1   2    6.32    0.74
  -5   1  -2  130.29    3.24
   5  -1   2  131.96    3.37
   5  -1   2  134.93    3.40
  -6   1  -2  104.39    2.85
   6  -1   2  104.31    3.01
   6  -1   2  101.20    2.95
  -7   1  -2    0.43    0.60
   7  -1   2    0.92    0.72
   7  -1   2    0.62    0.66
   7  -1   2    0.60    0.66
   8  -1   2    5.84    1.06
   8  -1   2    6.09    1.04
   9  -1   2   18.21    1.96
   9  -1   2   22.77    2.18
   9   0  -2   11.94    1.68
   9   0  -2   16.00    1.85
   8   0  -2   55.03    2.43
   8   0  -2   51.70    2.21
  -8   0   2   51.61    2.21
  -8   0   2   56.65    2.14
   7   0  -2    6.08    1.11
   7   0  -2    5.09    0.80
  -7   0   2    6.99    1.09
  -7   0   2    8.33    1.06
   6   0  -2    0.58    0.53
   6   0  -2    0.43    0.63
  -6   0   2    0.02    0.45
  -6   0   2    0.44    0.49
   5   0  -2   54.39    1.98
   5   0  -2   57.11    1.82
  -5   0   2   56.89    1.83
  -5   0   2   59.07    1.82
   4   0  -2   24.13    1.20
   4   0  -2   26.06    1.05
  -4   0   2   24.71    1.08
  -4   0   2   25.15    1.05
   3   0  -2  356.22    7.12
   3   0  -2  341.91    7.26
  -3   0   2  350.24    7.19
  -3   0   2  344.76    7.21
   2   0  -2   23.85    0.74
   2   0  -2   23.33    0.86
  -2   0   2   24.06    0.87
  -2   0   2   25.81    0.79
   1   0  -2   79.88    1.67
   1   0  -2   75.26    1.72
  -1   0   2   77.84    1.73
  -1   0   2   78.43    1.67
   0   0  -2  296.29    5.82
   0   0   2  291.04    5.84
   0   0   2  290.79    5.81
  -1   0  -2  796.59   16.08
   1   0   2  802.52   16.27
  -2   0  -2  122.01    2.76
   2   0   2  126.09    2.78
   2   0   2  127.59    2.76
  -3   0  -2   37.14    1.14
  -3   0  -2   39.95    1.21
   3   0   2   38.42    1.20
  -4   0  -2  114.14    2.84
  -4   0  -2  113.90    2.75
   4   0   2  112.97    2.91
   4   0   2  116.23    2.83
  -5   0  -2  119.94    2.97
  -5   0  -2  120.01    3.08
   5   0   2  117.49    3.19
   5   0   2  117.93    3.09
  -6   0  -2    4.23    0.63
  -6   0  -2    4.40    0.68
   6   0   2    4.12    0.72
   6   0   2    3.50    0.90
  -7   0  -2   56.64    2.10
   7   0   2   54.33    2.22
   7   0   2   57.63    2.30
   8   0   2   22.26    1.80
   8   0   2   20.41    1.84
   9  -1  -2   14.93    1.87
   9  -1  -2   13.08    1.55
  -9   1   2   12.51    1.41
   8  -1  -2    5.19    0.86
   8  -1  -2    5.91    1.02
  -8   1   2    5.29    0.93
  -8   1   2    3.78    0.71
   7  -1  -2   91.05    2.70
   7  -1  -2   91.85    3.05
  -7   1   2   94.02    2.82
  -7   1   2   96.54    2.71
   6  -1  -2  113.67    2.92
   6  -1  -2  109.93    3.23
  -6   1   2  110.60    2.94
  -6   1   2  111.72    3.03
   5  -1  -2    4.92    0.75
   5  -1  -2    3.34    0.69
  -5   1   2    4.63    0.70
  -5   1   2    3.51    0.61
   4  -1  -2  659.35   13.37
   4  -1  -2  658.37   13.06
  -4   1   2  642.53   13.12
  -4   1   2  651.22   13.29
   3  -1  -2  231.44    5.09
   3  -1  -2  230.65    4.82
  -3   1   2  241.32    4.89
  -3   1   2  237.36    5.09
   2  -1  -2   31.20    0.80
   2  -1  -2   31.24    1.01
  -2   1   2   32.33    0.84
  -2   1   2   29.50    1.03
   1  -1  -2  106.55    2.33
   1  -1  -2  108.54    2.22
  -1   1   2  107.49    2.23
  -1   1   2  108.95    2.35
   0   1   2  559.64   11.06
  -1  -1  -2   23.29    0.70
   1   1   2   23.78    0.75
   1   1   2   24.50    0.71
  -2  -1  -2  166.90    3.56
  -2  -1  -2  162.40    3.65
   2   1   2  167.78    3.65
   2   1   2  169.59    3.56
  -3  -1  -2   71.77    1.80
  -3  -1  -2   71.41    1.95
   3   1   2   71.73    1.84
  -4  -1  -2   -0.24    0.25
   4   1   2    0.39    0.38
   4   1   2   -0.07    0.38
  -5  -1  -2   55.44    1.95
  -5  -1  -2   58.98    1.78
   5   1   2   60.57    2.11
   5   1   2   59.21    1.94
  -6  -1  -2   48.72    1.95
  -6  -1  -2   49.49    1.77
   6   1   2   52.28    2.10
   6   1   2   52.83    1.97
  -7  -1  -2    0.52    0.63
   7   1   2    0.89    0.69
   7   1   2    0.79    0.74
   8   1   2   27.48    1.89
   8   1   2   23.81    2.05
   9  -2  -2   18.39    1.52
   9  -2  -2   19.65    1.95
  -9   2   2   18.29    1.40
   8  -2  -2   43.63    1.82
   8  -2  -2   44.40    2.27
  -8   2   2   43.56    1.71
   7  -2  -2    0.82    0.53
   7  -2  -2    1.69    0.76
  -7   2   2    0.29    0.62
  -7   2   2    0.49    0.40
   6  -2  -2   49.51    1.61
   6  -2  -2   46.58    2.01
  -6   2   2   49.71    1.92
  -6   2   2   49.96    1.61
   5  -2  -2  107.09    3.00
   5  -2  -2  108.14    2.55
  -5   2   2  107.29    3.19
  -5   2   2  107.23    2.65
   4  -2  -2  125.62    3.12
   4  -2  -2  121.89    2.68
  -4   2   2  117.98    2.77
  -4   2   2  123.65    3.09
   3  -2  -2   88.60    2.25
   3  -2  -2   87.46    1.89
  -3   2   2   88.04    1.95
  -3   2   2   83.49    2.25
   2  -2  -2  254.73    5.11
   2  -2  -2  263.43    5.39
  -2   2   2  252.65    5.62
  -2   2   2  259.74    5.14
   1  -2  -2   18.13    0.63
  -1   2   2   17.56    0.67
  -1   2   2   17.89    0.51
   0   2   2  181.03    3.74
   0   2   2  182.23    3.76
  -1  -2  -2  248.19    5.05
   1   2   2  244.03    5.05
   1   2   2  252.28    5.18
  -2  -2  -2  192.12    4.16
  -2  -2  -2  179.06    4.08
   2   2   2  192.91    4.17
   2   2   2  186.81    3.97
  -3  -2  -2   22.45    1.04
  -3  -2  -2   24.05    0.85
   3   2   2   24.73    1.13
   3   2   2   23.89    0.92
  -4  -2  -2  256.64    5.99
  -4  -2  -2  270.14    5.69
   4   2   2  268.27    6.08
   4   2   2  271.04    5.78
  -5  -2  -2   36.39    1.62
  -5  -2  -2   36.91    1.36
   5   2   2   38.09    1.52
  -6  -2  -2   19.84    1.23
  -6  -2  -2   18.52    1.39
   6   2   2   19.56    1.36
   6   2   2   18.31    1.49
  -7  -2  -2   34.70    1.76
   7   2   2   35.68    1.86
   7   2   2   40.32    2.15
   8   2   2    8.55    1.14
   8   2   2    6.30    1.28
   9  -3  -2   14.40    1.89
   9  -3  -2   11.62    1.34
  -9   3   2   17.75    1.18
   8  -3  -2    1.55    0.85
   8  -3  -2    1.19    0.56
  -8   3   2    1.13    0.48
  -8   3   2   -0.51    0.74
   7  -3  -2   73.97    2.09
   7  -3  -2   73.38    2.69
  -7   3   2   75.81    2.59
  -7   3   2   75.45    2.07
   6  -3  -2   46.63    1.45
   6  -3  -2   48.66    2.03
  -6   3   2   50.64    1.50
  -6   3   2   48.87    1.97
   5  -3  -2   23.90    1.37
   5  -3  -2   24.24    0.86
  -5   3   2   25.63    1.16
  -5   3   2   23.03    1.33
   4  -3  -2  136.79    3.38
   4  -3  -2  136.92    2.86
  -4   3   2  134.76    2.96
  -4   3   2  135.91    3.40
   3  -3  -2  382.95    7.85
   3  -3  -2  368.43    7.39
  -3   3   2  368.27    7.88
  -3   3   2  382.38    7.46
   2  -3  -2   22.07    0.85
  -2   3   2   22.09    0.58
  -2   3   2   21.49    0.93
   1  -3  -2  152.07    3.25
  -1   3   2  153.69    3.29
  -1   3   2  150.75    3.15
  -1   3   2  152.74    3.14
   0   3   2   78.71    1.83
   0   3   2   78.58    1.77
  -1  -3  -2    2.67    0.41
   1   3   2    2.72    0.32
   1   3   2    2.49    0.35
  -2  -3  -2  203.23    4.55
   2   3   2  201.46    4.28
   2   3   2  206.41    4.57
  -3  -3  -2  149.08    3.23
  -3  -3  -2  139.32    3.57
   3   3   2  147.95    3.63
   3   3   2  143.88    3.25
  -4  -3  -2    1.25    0.51
  -4  -3  -2    0.48    0.33
   4   3   2    0.81    0.55
   4   3   2    1.19    0.44
  -5  -3  -2   55.98    2.09
  -5  -3  -2   54.99    1.71
   5   3   2   54.16    2.18
   5   3   2   56.43    1.85
  -6  -3  -2   52.02    2.26
  -6  -3  -2   58.05    1.92
   6   3   2   57.10    2.07
   6   3   2   57.80    2.37
  -7  -3  -2   -1.01    0.71
   7   3   2   -1.09    0.85
   7   3   2    0.03    0.72
   9  -4  -2   12.50    1.22
   9  -4  -2   11.86    1.88
  -9   4   2   15.11    1.03
   8  -4  -2   38.77    2.16
   8  -4  -2   36.48    1.41
   7  -4  -2   24.35    1.67
   7  -4  -2   25.44    1.04
  -7   4   2   24.56    0.96
  -7   4   2   24.74    1.67
   6  -4  -2  105.15    3.11
   6  -4  -2  103.52    2.38
  -6   4   2  106.46    3.11
  -6   4   2  102.13    2.40
   5  -4  -2  101.31    2.20
   5  -4  -2  102.40    2.88
  -5   4   2   98.01    2.88
  -5   4   2  102.24    2.26
   4  -4  -2    3.61    0.54
   4  -4  -2    4.27    0.28
  -4   4   2    6.54    0.94
   3  -4  -2   70.85    1.94
  -3   4   2   69.13    2.02
   2  -4  -2  395.01    8.02
  -2   4   2  379.48    7.71
  -2   4   2  392.08    7.73
  -2   4   2  399.74    8.11
   1  -4  -2    2.19    0.28
  -1   4   2    2.80    0.32
  -1   4   2    2.38    0.34
   0   4   2  193.14    4.02
   0   4   2  192.71    4.03
   0   4   2  193.76    4.15
  -1  -4  -2  264.68    5.67
   1   4   2  270.01    5.73
   1   4   2  264.58    5.44
  -2  -4  -2   24.83    1.08
   2   4   2   25.66    1.17
   2   4   2   24.05    0.82
  -3  -4  -2   97.25    2.30
  -3  -4  -2   96.80    2.69
   3   4   2   98.91    2.34
   3   4   2   95.94    2.77
  -4  -4  -2   58.72    1.65
  -4  -4  -2   58.16    2.08
   4   4   2   58.34    1.73
  -5  -4  -2   13.91    0.99
  -5  -4  -2   14.68    1.32
   5   4   2   13.67    1.06
   5   4   2   16.20    1.43
  -6  -4  -2    6.06    0.79
   6   4   2    4.21    0.97
   6   4   2    5.92    0.84
  -7  -4  -2   53.41    2.06
   7   4   2   51.43    2.18
   7   4   2   48.83    2.63
   9  -5  -2   15.44    1.92
   9  -5  -2   16.37    1.11
   8  -5  -2    9.98    0.89
   8  -5  -2   10.27    1.26
   7  -5  -2   92.93    3.03
   7  -5  -2   92.96    2.13
  -7   5   2   89.12    3.01
  -7   5   2   88.29    2.08
   6  -5  -2  110.32    4.34
   6  -5  -2  116.48    2.45
  -6   5   2  116.83    3.36
  -6   5   2  113.47    2.44
   5  -5  -2    6.27    0.96
  -5   5   2    5.42    0.79
   4  -5  -2   90.08    2.45
  -4   5   2   84.55    2.88
   3  -5  -2  140.29    3.28
  -3   5   2  137.36    3.40
   2  -5  -2   34.01    1.11
  -2   5   2   33.12    0.83
  -2   5   2   34.25    0.89
  -2   5   2   33.97    1.24
   1  -5  -2  316.19    6.47
  -1   5   2  315.57    6.57
  -1   5   2  318.90    6.50
   0   5   2   36.57    1.00
   0   5   2   34.75    1.03
   0   5   2   36.56    1.21
  -1  -5  -2    0.46    0.28
   1   5   2    0.46    0.37
   1   5   2    0.46    0.20
   1   5   2    0.57    0.23
  -2  -5  -2  145.82    3.57
   2   5   2  149.28    3.68
   2   5   2  145.02    3.18
  -3  -5  -2  113.35    3.10
   3   5   2  114.82    2.65
   3   5   2  113.91    3.20
  -4  -5  -2   29.89    1.56
  -4  -5  -2   29.60    1.10
   4   5   2   29.03    1.18
   4   5   2   29.61    1.66
  -5  -5  -2   69.74    2.70
  -5  -5  -2   79.06    2.74
   5   5   2   82.16    2.88
   5   5   2   84.76    2.33
  -6  -5  -2   44.74    1.78
   6   5   2   44.01    1.84
   6   5   2   43.54    2.37
   9  -6  -2   38.57    2.36
   8  -6  -2   22.99    1.75
   8  -6  -2   20.73    0.78
   7  -6  -2    0.71    0.64
  -7   6   2   -0.92    0.75
   6  -6  -2   48.44    1.97
  -6   6   2   49.88    2.12
   5  -6  -2   83.71    2.53
  -5   6   2   86.79    2.70
   4  -6  -2    1.18    0.47
  -4   6   2    1.94    0.63
   3  -6  -2   94.19    2.42
  -3   6   2   93.75    2.57
   2  -6  -2  182.77    4.00
  -2   6   2  182.42    4.14
  -2   6   2  185.13    3.84
  -2   6   2  178.84    3.73
  -1   6   2    5.96    0.66
  -1   6   2    6.33    0.61
   0   6   2   86.04    2.00
   0   6   2   87.26    2.29
   1   6   2  212.02    4.46
   1   6   2  214.79    4.45
   1   6   2  216.57    4.92
  -2  -6  -2  118.68    3.13
   2   6   2  122.97    3.27
   2   6   2  121.80    2.69
  -3  -6  -2    0.82    0.49
   3   6   2    0.90    0.36
   3   6   2    0.82    0.59
  -4  -6  -2   62.41    2.27
   4   6   2   56.01    2.34
   4   6   2   60.53    1.75
  -5  -6  -2   10.43    1.19
   5   6   2    8.26    1.00
   5   6   2    8.04    1.09
   6   6   2    5.93    0.83
   6   6   2    8.88    1.34
   9  -7  -2    6.07    1.53
   8  -7  -2   15.04    1.64
   7  -7  -2   58.90    2.31
  -7   7   2   52.09    2.38
   6  -7  -2   48.13    1.98
  -6   7   2   53.19    2.18
   5  -7  -2   24.24    1.34
  -5   7   2   25.81    1.53
   4  -7  -2  143.73    3.56
  -4   7   2  147.46    3.76
   3  -7  -2   82.63    2.25
  -3   7   2   87.37    2.45
   2  -7  -2    1.77    0.36
  -2   7   2    1.58    0.24
  -2   7   2    1.87    0.34
  -2   7   2    0.94    0.46
  -1   7   2  158.50    3.69
  -1   7   2  171.16    3.75
   0   7   2  128.03    2.79
   0   7   2  125.87    3.01
   0   7   2  127.12    3.15
   1   7   2   48.61    1.74
   1   7   2   46.74    1.22
   1   7   2   45.72    1.26
  -2  -7  -2  116.79    3.16
   2   7   2  116.48    3.31
   2   7   2  120.18    2.63
   2   7   2  120.19    2.73
  -3  -7  -2   12.00    1.22
   3   7   2   11.78    1.33
   3   7   2   11.28    0.72
   3   7   2   13.13    0.60
   4   7   2    4.36    0.89
   4   7   2    4.47    0.55
   5   7   2   63.08    2.84
   5   7   2   66.93    1.94
   8  -8  -2   37.42    2.15
   7  -8  -2    1.02    0.66
   6  -8  -2   43.14    1.83
  -6   8   2   39.61    2.00
  -5   8   2   94.43    2.91
   4  -8  -2    2.84    0.53
  -4   8   2    3.52    0.68
   3  -8  -2  104.41    2.60
  -3   8   2   99.84    3.13
   2  -8  -2  131.32    3.12
  -2   8   2  140.66    3.08
  -2   8   2  135.90    2.98
  -2   8   2  136.25    3.29
  -1   8   2    4.96    0.76
   0   8   2   38.83    1.53
   0   8   2   39.73    1.29
   0   8   2   41.07    1.12
   1   8   2  118.39    3.21
   1   8   2  115.41    2.62
   1   8   2  120.67    2.58
   2   8   2    0.53    0.26
   2   8   2   -0.56    0.56
   3   8   2   56.28    2.31
   4   8   2   66.04    2.75
   8  -9  -2   17.64    1.76
   7  -9  -2   83.69    2.87
   6  -9  -2   30.66    1.59
  -6   9   2   27.06    1.78
   5  -9  -2   18.26    1.23
  -5   9   2   16.99    1.40
   4  -9  -2  133.71    3.39
  -4   9   2  136.60    3.56
   3  -9  -2   49.75    1.58
  -3   9   2   49.28    1.76
  -2   9   2   39.86    1.45
  -2   9   2   39.66    1.12
  -2   9   2   39.25    1.28
  -1   9   2   68.25    1.87
  -1   9   2   68.37    1.85
  -1   9   2   70.77    2.04
   0   9   2   22.94    0.78
   0   9   2   22.17    1.31
   1   9   2    1.95    0.77
   2   9   2   82.93    2.78
   3   9   2   16.78    1.68
   4   9   2   -0.36    0.91
   7 -10  -2    0.79    0.74
   6 -10  -2   36.78    1.74
  -6  10   2   29.87    1.86
   5 -10  -2    8.21    1.05
  -5  10   2    7.26    0.92
   4 -10  -2    1.33    0.82
  -4  10   2    1.62    0.65
   3 -10  -2   65.78    1.92
  -3  10   2   67.21    2.08
  -2  10   2   90.15    2.16
  -2  10   2   95.43    2.34
  -2  10   2   91.46    2.43
  -1  10   2    1.39    0.34
  -1  10   2    0.90    0.41
  -1  10   2    0.56    0.51
   0  10   2   38.75    1.68
   1  10   2   59.16    2.21
   2  10   2    0.38    0.77
   6 -11  -2    3.39    0.82
   5 -11  -2   18.00    1.32
  -5  11   2   16.50    1.52
   4 -11  -2   62.82    2.26
  -4  11   2   60.77    2.16
  -3  11   2   33.54    1.47
  -2  11   2   22.77    1.28
  -2  11   2   20.64    1.08
  -2  11   2   23.13    1.29
  -1  11   2   96.62    2.68
  -1  11   2   96.12    2.22
   0  11   2   25.02    1.64
   1  11   2   15.83    1.80
   4 -12  -2    1.50    0.67
  -1  12   2   -0.74    0.69
   1  13  -3   55.77    2.20
  -1 -13   3   56.57    2.36
   0  13  -3   18.65    1.28
   0 -13   3   15.99    1.43
  -1  13  -3    9.69    0.90
   1 -13   3   10.28    1.14
  -2  13  -3   51.67    1.44
   3 -13   3   39.49    1.42
  -4  13  -3    9.63    1.51
   4 -13   3    8.58    1.20
  -5  13  -3   46.17    2.24
   5 -13   3   39.58    1.92
   2  12  -3   63.13    2.49
  -2 -12   3   64.02    2.57
   1  12  -3    1.23    0.68
  -1 -12   3    0.64    0.75
   0  12  -3   68.30    2.16
   0 -12   3   66.02    2.25
  -1  12  -3   35.58    1.33
  -2  12  -3    3.26    0.35
  -2  12  -3    3.67    0.42
   2 -12   3    3.71    0.56
   2 -12   3    5.10    0.73
  -3  12  -3   94.28    2.38
   3 -12   3   93.64    2.48
  -4  12  -3  100.75    2.81
   4 -12   3  103.26    2.87
  -5  12  -3   -0.49    0.63
   5 -12   3    1.12    0.71
   6 -12   3   24.01    1.79
   4  11  -3   42.45    2.49
   3  11  -3    8.13    1.13
   2  11  -3   12.11    1.44
  -2 -11   3    9.88    1.45
  -1 -11   3  136.57    3.61
   0  11  -3   21.13    1.98
   0 -11   3   21.74    1.26
  -1  11  -3   58.39    1.70
   1 -11   3   55.50    1.73
  -2  11  -3   82.67    2.01
  -2  11  -3   84.95    2.02
   2 -11   3   85.61    2.10
   2 -11   3   86.07    2.10
  -3  11  -3   33.65    1.25
   3 -11   3   34.09    1.37
  -4  11  -3   58.34    1.94
   4 -11   3   60.34    2.05
  -5  11  -3  110.13    3.10
   5 -11   3  105.57    3.12
  -6  11  -3   26.95    1.69
   6 -11   3   25.31    1.70
   7 -11   3   10.52    1.63
   5  10  -3   20.29    2.24
   4  10  -3   -1.50    0.82
   3  10  -3   50.09    2.30
  -3 -10   3   44.59    2.13
   2  10  -3   38.00    1.86
  -2 -10   3   35.61    1.71
   1  10  -3    2.40    0.63
  -1 -10   3    2.46    0.62
   0  10  -3  141.17    3.46
  -1  10  -3  102.24    2.22
  -1  10  -3  109.37    2.61
   1 -10   3  106.70    2.28
   1 -10   3   99.95    2.59
  -2  10  -3    0.82    0.29
  -2  10  -3    0.59    0.27
   2 -10   3    0.74    0.37
   2 -10   3    0.56    0.32
  -3  10  -3   80.38    2.14
   3 -10   3   76.91    2.21
   3 -10   3   79.30    1.77
  -4  10  -3  124.44    3.14
   4 -10   3  115.14    3.15
  -5  10  -3    5.01    0.78
   5 -10   3    5.51    0.82
  -6  10  -3   27.95    1.73
   6 -10   3   30.47    1.75
   7 -10   3   48.28    2.32
   5   9  -3   31.77    2.27
   4   9  -3  101.34    3.40
  -4  -9   3   95.21    3.15
   3   9  -3   19.80    1.63
  -3  -9   3   20.34    1.44
   2   9  -3  102.07    3.05
  -2  -9   3   98.13    2.88
   1   9  -3   76.89    2.39
  -1  -9   3   79.78    2.33
   0   9  -3   26.73    1.22
   0  -9   3   27.02    1.17
  -1   9  -3   35.83    0.95
  -1   9  -3   37.16    1.20
   1  -9   3   35.58    1.04
   1  -9   3   35.84    1.22
  -2   9  -3  200.22    4.16
  -2   9  -3  197.74    4.30
   2  -9   3  200.43    4.37
  -3   9  -3   22.44    0.63
  -3   9  -3   21.68    1.03
   3  -9   3   20.80    1.12
   3  -9   3   21.39    0.71
  -4   9  -3   11.57    0.98
   4  -9   3   10.84    1.05
  -5   9  -3   28.41    1.52
  -6   9  -3    2.58    0.81
   6  -9   3    1.94    0.70
   7  -9   3   28.44    1.85
   8  -9   3   39.84    2.37
   6   8  -3   45.10    2.64
   5   8  -3   18.93    1.92
   4   8  -3    2.09    0.85
  -4  -8   3    3.46    0.78
   3   8  -3  110.13    3.91
  -3  -8   3  118.31    3.26
   2   8  -3  106.90    3.12
  -2  -8   3  109.02    2.97
   1   8  -3    3.71    0.63
  -1  -8   3    4.49    0.59
   0   8  -3   77.31    2.10
   0  -8   3   78.26    2.08
  -1   8  -3  238.67    4.93
  -1   8  -3  234.65    4.80
   1  -8   3  237.46    4.99
   1  -8   3  226.66    4.86
  -2   8  -3   17.69    0.79
  -2   8  -3   18.38    0.65
   2  -8   3   17.26    0.89
   2  -8   3   19.50    0.74
  -3   8  -3  201.19    4.47
   3  -8   3  196.29    4.07
   3  -8   3  198.09    4.50
  -4   8  -3  118.04    3.09
   4  -8   3  116.41    3.09
  -5   8  -3    8.81    1.10
   5  -8   3    8.79    1.12
  -6   8  -3  111.16    3.36
   6  -8   3  113.11    2.43
   6  -8   3  116.78    3.35
   7  -8   3   65.95    1.73
   7  -8   3   67.03    1.62
   7  -8   3   65.73    2.59
   8  -8   3   -0.97    0.48
   8  -8   3    0.40    0.93
   7   7  -3   29.31    2.47
   6   7  -3    2.03    1.02
   6   7  -3    4.48    0.58
  -6  -7   3    4.00    0.52
   5   7  -3   36.68    2.20
   5   7  -3   37.89    1.04
  -5  -7   3   38.22    1.95
  -5  -7   3   41.48    1.17
   4   7  -3   58.86    2.48
  -4  -7   3   63.27    2.24
   3   7  -3   24.46    1.63
  -3  -7   3   25.12    1.37
   2   7  -3   58.32    2.09
  -2  -7   3   58.49    1.89
   1   7  -3  107.13    2.84
  -1  -7   3  112.55    2.77
   0   7  -3    1.24    0.39
   0  -7   3    1.41    0.35
  -1   7  -3   72.80    1.75
  -1   7  -3   73.23    1.68
   1  -7   3   70.69    1.73
   1  -7   3   72.03    1.80
  -2   7  -3  222.77    4.71
  -2   7  -3  220.85    4.50
   2  -7   3  220.21    4.56
   2  -7   3  216.74    4.73
  -3   7  -3    0.95    0.36
   3  -7   3    0.17    0.40
   3  -7   3    0.84    0.23
  -4   7  -3   39.95    1.54
   4  -7   3   40.52    1.03
   4  -7   3   40.16    1.56
   4  -7   3   41.13    1.04
  -5   7  -3  155.85    4.05
   5  -7   3  161.79    3.44
   5  -7   3  158.20    3.34
   5  -7   3  160.89    4.04
  -6   7  -3   33.57    1.76
   6  -7   3   33.78    1.02
   6  -7   3   33.94    1.74
   6  -7   3   33.50    1.17
  -7   7  -3   32.25    1.89
   7  -7   3   35.23    1.16
   7  -7   3   35.75    1.42
   7  -7   3   31.85    1.87
   8  -7   3   34.50    2.13
   8  -7   3   34.70    1.51
   7   6  -3    5.83    0.88
   7   6  -3    2.99    1.12
  -7  -6   3    4.07    0.72
   6   6  -3   47.02    2.46
   6   6  -3   47.36    1.50
  -6  -6   3   46.45    1.51
   5   6  -3   69.87    1.80
   5   6  -3   69.16    2.71
  -5  -6   3   74.22    2.54
  -5  -6   3   71.64    1.80
   4   6  -3    6.70    0.46
   4   6  -3    7.80    1.02
  -4  -6   3    7.93    0.49
  -4  -6   3    8.51    1.09
   3   6  -3  111.45    3.27
  -3  -6   3  123.54    2.42
  -3  -6   3  114.51    3.08
   2   6  -3  144.73    3.68
  -2  -6   3  149.75    3.55
   1   6  -3   29.37    1.21
  -1  -6   3   29.48    1.11
   0   6  -3  245.85    5.02
   0   6  -3  227.31    4.74
   0  -6   3  236.35    4.77
   0  -6   3  240.94    5.03
  -1   6  -3  237.38    4.83
  -1   6  -3  228.40    4.82
   1  -6   3  235.77    4.85
   1  -6   3  238.39    4.89
  -2   6  -3    2.98    0.37
  -2   6  -3    4.86    0.34
   2  -6   3    4.51    0.41
   2  -6   3    3.61    0.55
  -3   6  -3  200.74    4.43
   3  -6   3  199.03    4.42
   3  -6   3  193.90    4.05
  -4   6  -3   38.57    1.52
   4  -6   3   40.18    1.04
   4  -6   3   39.71    1.08
   4  -6   3   39.77    1.51
  -5   6  -3    9.36    1.01
   5  -6   3    8.68    0.64
   5  -6   3    8.03    1.06
   5  -6   3    8.94    0.53
  -6   6  -3   74.33    2.48
   6  -6   3   73.17    2.03
   6  -6   3   72.74    1.82
   6  -6   3   70.70    2.47
  -7   6  -3   39.51    2.01
   7  -6   3   43.16    2.09
   7  -6   3   43.94    1.42
   7  -6   3   42.17    1.59
   8  -6   3    0.26    0.80
   8  -6   3    0.55    0.55
   8  -6   3    0.25    0.64
   9  -6   3   18.61    1.62
   8   5  -3   19.42    1.38
   8   5  -3   16.17    2.25
   7   5  -3   32.22    1.48
   7   5  -3   28.40    2.14
  -7  -5   3   31.40    1.53
   6   5  -3    3.79    0.59
   6   5  -3    2.35    0.89
  -6  -5   3    3.41    0.55
  -6  -5   3    3.73    0.77
   5   5  -3   80.55    2.97
   5   5  -3   86.17    2.20
  -5  -5   3   86.87    2.71
  -5  -5   3   85.63    2.12
   4   5  -3   67.00    1.66
   4   5  -3   58.70    2.29
  -4  -5   3   66.45    2.04
  -4  -5   3   64.83    2.14
   3   5  -3   21.80    1.36
   3   5  -3   22.08    0.68
  -3  -5   3   22.35    0.70
   2   5  -3  132.50    3.26
  -2  -5   3  129.93    2.69
  -2  -5   3  131.05    3.14
   1   5  -3  467.86    9.46
  -1  -5   3  454.93    9.06
  -1  -5   3  464.71    9.42
   0   5  -3    0.13    0.23
   0   5  -3    0.40    0.13
   0  -5   3    0.48    0.15
   0  -5   3    0.61    0.48
  -1   5  -3  218.31    4.50
  -1   5  -3  217.88    4.54
   1  -5   3  222.01    4.55
   1  -5   3  222.85    4.54
  -2   5  -3  235.10    4.80
  -2   5  -3  237.65    5.00
   2  -5   3  238.90    5.00
   2  -5   3  234.64    4.80
  -3   5  -3   14.08    0.80
   3  -5   3   13.45    0.53
   3  -5   3   14.61    0.84
   4  -5   3  146.11    3.54
   4  -5   3  144.12    3.18
   4  -5   3  147.09    3.13
  -5   5  -3  163.99    3.95
   5  -5   3  152.66    3.90
   5  -5   3  156.08    3.55
   5  -5   3  154.61    3.41
  -6   5  -3   17.00    1.27
   6  -5   3   16.91    0.82
   6  -5   3   15.15    1.32
   6  -5   3   15.63    1.05
  -7   5  -3   17.59    1.52
   7  -5   3   19.42    1.59
   7  -5   3   19.46    1.23
   7  -5   3   18.90    1.02
   8  -5   3   51.95    2.44
   8  -5   3   50.49    1.82
   9  -5   3    5.50    1.91
   9  -5   3    6.48    0.94
   9  -5   3    4.82    1.02
   8   4  -3    4.03    1.18
   8   4  -3    6.50    0.89
  -8  -4   3    4.95    0.90
   7   4  -3   17.62    1.86
   7   4  -3   21.61    1.38
  -7  -4   3   20.03    1.35
  -7  -4   3   26.99    2.09
   6   4  -3  110.20    3.52
   6   4  -3  118.37    3.06
  -6  -4   3  117.57    3.40
   5   4  -3   56.07    2.28
   5   4  -3   61.06    1.83
  -5  -4   3   59.97    1.67
  -5  -4   3   58.68    2.12
   4   4  -3   43.56    1.36
   4   4  -3   44.24    1.86
  -4  -4   3   43.67    1.27
  -4  -4   3   45.33    1.66
   3   4  -3  136.52    2.97
   3   4  -3  137.98    3.45
  -3  -4   3  138.26    2.97
  -3  -4   3  135.89    3.32
   2   4  -3  168.68    3.80
  -2  -4   3  161.37    3.41
  -2  -4   3  163.63    3.71
   1   4  -3   77.94    1.92
  -1  -4   3   78.39    1.92
  -1  -4   3   76.42    1.66
  -1  -4   3   77.01    1.65
   0   4  -3  623.60   12.29
   0   4  -3  624.90   12.29
   0  -4   3  625.92   12.36
   0  -4   3  608.09   12.30
  -1   4  -3  105.42    2.30
  -1   4  -3  107.86    2.36
   1  -4   3  108.72    2.36
   1  -4   3  107.42    2.31
  -2   4  -3   34.62    0.91
  -2   4  -3   35.38    1.07
   2  -4   3   34.29    0.91
   2  -4   3   35.72    1.08
  -3   4  -3  148.23    3.37
   3  -4   3  141.53    3.21
   3  -4   3  147.24    3.36
  -4   4  -3  185.82    4.73
   4  -4   3  204.81    4.24
   4  -4   3  205.84    4.59
   4  -4   3  205.64    4.31
  -5   4  -3    0.57    0.45
   5  -4   3    1.40    0.56
   5  -4   3    0.13    0.33
  -6   4  -3   54.86    2.05
   6  -4   3   57.54    2.16
   6  -4   3   56.65    1.89
  -7   4  -3   29.43    1.73
   7  -4   3   26.44    1.48
   7  -4   3   27.86    1.74
   8  -4   3    0.98    0.71
   8  -4   3    0.36    0.84
   9  -4   3   38.85    2.55
   9  -4   3   28.58    2.09
   8   3  -3   21.48    1.94
   8   3  -3   27.14    1.68
  -8  -3   3   24.22    1.68
   7   3  -3   26.98    1.58
   7   3  -3   25.96    1.87
  -7  -3   3   26.34    1.43
  -7  -3   3   28.75    1.75
   6   3  -3   -0.05    0.69
   6   3  -3   -0.15    0.51
  -6  -3   3   -0.32    0.42
  -6  -3   3   -0.38    0.56
   5   3  -3   52.94    2.08
   5   3  -3   52.27    1.77
  -5  -3   3   52.70    1.60
  -5  -3   3   51.15    1.91
   4   3  -3  112.84    2.76
   4   3  -3  114.35    3.06
  -4  -3   3  113.50    2.66
  -4  -3   3  110.65    2.97
   3   3  -3    1.24    0.43
   3   3  -3    1.18    0.30
  -3  -3   3    1.39    0.31
  -3  -3   3    1.28    0.41
   2   3  -3  126.75    2.67
   2   3  -3  125.95    2.92
  -2  -3   3  124.10    2.70
   1   3  -3  234.51    4.82
  -1  -3   3  229.89    4.67
  -1  -3   3  230.82    4.87
   0   3  -3    4.30    0.29
   0   3  -3    4.06    0.37
   0  -3   3    4.30    0.40
   0  -3   3    4.59    0.31
  -1   3  -3   31.71    0.90
  -1   3  -3   33.95    0.86
   1  -3   3   31.31    0.85
   1  -3   3   33.02    0.92
  -2   3  -3  213.17    4.45
   2  -3   3  204.73    4.29
   2  -3   3  209.39    4.43
  -3   3  -3    2.40    0.39
   3  -3   3    1.93    0.26
   3  -3   3    2.64    0.41
   3  -3   3    2.16    0.29
  -4   3  -3  200.56    4.46
   4  -3   3  194.74    4.46
   4  -3   3  192.31    4.26
  -5   3  -3  128.76    3.26
   5  -3   3  125.02    3.29
   5  -3   3  126.62    3.12
  -6   3  -3    3.17    0.63
   6  -3   3    2.28    0.59
   6  -3   3    2.71    0.71
  -7   3  -3   37.08    1.79
   7  -3   3   36.02    1.91
   8  -3   3   54.14    2.25
   8  -3   3   52.24    2.47
   9  -3   3    5.43    1.29
   9   2  -3   20.54    2.15
   9   2  -3   28.49    2.02
   8   2  -3   10.24    1.43
   8   2  -3    5.20    1.01
  -8  -2   3    6.18    0.96
  -8  -2   3    5.64    1.14
   7   2  -3   21.17    1.64
   7   2  -3   20.74    1.54
  -7  -2   3   20.86    1.46
  -7  -2   3   19.80    1.33
   6   2  -3   95.14    2.81
   6   2  -3   92.52    2.90
  -6  -2   3   94.51    2.84
  -6  -2   3   92.15    2.55
   5   2  -3   33.67    1.48
   5   2  -3   36.02    1.62
  -5  -2   3   35.69    1.51
  -5  -2   3   35.68    1.33
   4   2  -3   68.71    1.97
   4   2  -3   70.45    2.09
  -4  -2   3   68.64    1.88
  -4  -2   3   70.57    2.02
   3   2  -3  287.29    5.97
   3   2  -3  269.40    5.84
  -3  -2   3  284.44    5.94
  -3  -2   3  277.14    6.02
   2   2  -3  417.80    8.30
   2   2  -3  403.46    8.38
  -2  -2   3  422.30    8.41
  -2  -2   3  412.25    8.31
   1   2  -3   45.88    1.19
  -1  -2   3   47.90    1.13
   0   2  -3  253.07    5.16
   0   2  -3  252.29    5.16
   0  -2   3  258.76    5.17
   0  -2   3  256.18    5.16
  -1   2  -3  106.26    2.37
  -1   2  -3  108.69    2.32
   1  -2   3  107.57    2.31
   1  -2   3  108.83    2.37
  -2   2  -3   85.30    2.06
  -2   2  -3   81.88    2.00
   2  -2   3   85.30    2.27
  -3   2  -3  355.81    7.39
   3  -2   3  357.78    7.40
   3  -2   3  354.33    7.29
  -4   2  -3   64.06    1.84
   4  -2   3   64.34    1.78
   4  -2   3   62.67    1.88
  -5   2  -3    2.27    0.50
   5  -2   3    1.03    0.53
   5  -2   3    2.18    0.49
  -6   2  -3  103.08    2.86
   6  -2   3   97.01    3.23
   6  -2   3  100.55    2.92
  -7   2  -3   20.10    1.46
   7  -2   3   21.89    1.60
   7  -2   3   21.74    1.51
   8  -2   3   11.78    1.51
   8  -2   3   10.55    1.27
   9   1  -3   -0.42    0.86
   9   1  -3   -0.69    0.85
   8   1  -3   47.74    2.19
   8   1  -3   49.98    2.24
  -8  -1   3   46.88    2.09
  -8  -1   3   45.27    2.09
   7   1  -3   69.05    2.45
  -7  -1   3   68.72    2.40
  -7  -1   3   66.04    2.28
   6   1  -3    0.37    0.61
   6   1  -3    0.86    0.59
  -6  -1   3    0.32    0.51
  -6  -1   3    0.26    0.53
   5   1  -3  151.71    3.93
   5   1  -3  162.88    3.88
  -5  -1   3  161.47    3.80
  -5  -1   3  162.29    3.89
   4   1  -3  217.91    5.02
   4   1  -3  229.93    4.97
  -4  -1   3  229.61    4.98
  -4  -1   3  224.16    4.95
   3   1  -3   22.25    0.94
   3   1  -3   23.04    0.90
  -3  -1   3   23.03    0.95
  -3  -1   3   22.72    0.90
   2   1  -3  440.65    8.83
   2   1  -3  438.70    8.79
  -2  -1   3  439.66    8.82
  -2  -1   3  436.06    8.83
   1   1  -3  363.70    7.28
  -1  -1   3  365.09    7.29
   0  -1   3   18.34    0.58
  -1   1  -3  457.91    9.21
   1  -1   3  465.59    9.17
   1  -1   3  459.33    9.21
  -2   1  -3  199.88    4.37
   2  -1   3  209.68    4.36
   2  -1   3  211.93    4.40
  -3   1  -3   10.81    0.64
   3  -1   3   11.37    0.73
   3  -1   3   11.91    0.65
   3  -1   3   10.22    0.69
  -4   1  -3  130.97    3.09
   4  -1   3  131.56    3.15
   4  -1   3  127.70    3.12
   4  -1   3  124.61    3.46
  -5   1  -3  123.16    3.09
   5  -1   3  117.04    3.17
   5  -1   3  123.89    3.19
   5  -1   3  122.77    3.20
  -6   1  -3   16.53    1.18
   6  -1   3   17.26    1.59
   6  -1   3   15.43    1.58
   6  -1   3   19.94    1.21
  -7   1  -3   22.71    1.51
   7  -1   3   25.24    1.65
   7  -1   3   21.73    1.57
   8  -1   3   21.11    1.83
   8  -1   3   21.21    1.81
   9   0  -3   41.75    2.14
   9   0  -3   48.21    2.48
   8   0  -3    7.63    1.08
   8   0  -3    6.40    0.93
  -8   0   3    9.15    1.21
  -8   0   3    7.83    0.99
   7   0  -3    5.49    0.78
   7   0  -3    4.42    0.87
  -7   0   3    7.71    1.04
  -7   0   3    5.84    0.82
   6   0  -3   47.84    1.76
   6   0  -3   46.06    2.00
  -6   0   3   48.71    1.80
  -6   0   3   49.66    1.82
   5   0  -3   40.30    1.71
   5   0  -3   42.57    1.49
  -5   0   3   44.60    1.53
  -5   0   3   43.46    1.63
   4   0  -3   14.27    0.79
   4   0  -3   14.63    0.97
  -4   0   3   13.91    0.92
  -4   0   3   15.08    0.83
   3   0  -3  342.68    6.88
   3   0  -3  330.87    7.05
  -3   0   3  339.84    7.05
  -3   0   3  335.30    7.07
   2   0  -3   14.27    0.66
   2   0  -3   15.39    0.58
  -2   0   3   14.84    0.61
  -2   0   3   15.08    0.71
   1   0  -3  166.38    3.43
  -1   0   3  166.05    3.44
  -1   0   3  168.22    3.51
   0   0  -3  204.88    4.32
   0   0  -3  218.84    4.44
   0   0   3  209.99    4.33
   0   0   3  214.26    4.38
  -1   0  -3  279.55    5.95
   1   0   3  297.39    6.35
   1   0   3  301.54    5.98
  -2   0  -3   42.79    1.20
   2   0   3   42.54    1.22
   2   0   3   43.50    1.22
  -3   0  -3  284.91    5.96
   3   0   3  279.17    6.02
   3   0   3  286.31    5.99
  -4   0  -3   61.00    1.74
   4   0   3   58.33    1.84
   4   0   3   60.39    1.80
  -5   0  -3    9.00    0.85
   5   0   3   10.06    1.05
   5   0   3   10.69    1.01
  -6   0  -3   86.11    2.50
   6   0   3   81.85    3.54
   6   0   3   81.89    3.24
  -7   0  -3   33.77    1.75
   7   0   3   32.15    1.85
   7   0   3   31.09    1.77
   8   0   3    0.86    0.90
   8   0   3    1.86    0.91
   8   0   3    3.17    1.20
   9  -1  -3    6.64    1.13
   9  -1  -3    6.06    0.93
  -9   1   3    6.42    0.92
   8  -1  -3   32.51    1.65
   8  -1  -3   33.64    2.05
  -8   1   3   36.68    1.66
  -8   1   3   32.45    1.94
   7  -1  -3   29.15    1.82
   7  -1  -3   29.23    1.42
  -7   1   3   29.53    1.44
  -7   1   3   31.30    1.62
   6  -1  -3   34.20    1.37
   6  -1  -3   33.79    1.75
  -6   1   3   35.25    1.60
  -6   1   3   32.34    1.43
   5  -1  -3  195.43    4.31
   5  -1  -3  194.12    4.70
  -5   1   3  199.45    4.45
   4  -1  -3   46.00    1.61
   4  -1  -3   45.11    1.29
  -4   1   3   48.47    1.39
  -4   1   3   46.84    1.61
   3  -1  -3    2.98    0.38
   3  -1  -3    2.50    0.40
  -3   1   3    2.63    0.47
  -3   1   3    3.35    0.48
   2  -1  -3  243.17    4.86
   2  -1  -3  237.23    5.05
  -2   1   3  239.96    5.07
  -2   1   3  240.16    4.88
   1  -1  -3   50.80    1.18
   1  -1  -3   49.38    1.27
  -1   1   3   48.37    1.18
  -1   1   3   51.60    1.30
   0   1   3   12.98    0.52
   0   1   3   12.60    0.60
  -1  -1  -3  189.64    4.22
   1   1   3  196.39    4.12
   1   1   3  198.15    4.10
  -2  -1  -3  233.97    4.99
   2   1   3  241.44    5.01
   2   1   3  239.73    5.09
  -3  -1  -3   18.32    0.78
   3   1   3   17.21    0.90
   3   1   3   19.34    0.86
  -4  -1  -3   24.24    1.02
   4   1   3   24.53    1.23
   4   1   3   26.16    1.13
  -5  -1  -3   68.54    1.97
   5   1   3   58.18    2.55
   5   1   3   67.15    2.08
  -6  -1  -3   -0.06    0.50
   6   1   3    0.04    0.58
  -7  -1  -3   55.50    2.22
   7   1   3   58.30    2.48
   7   1   3   58.74    2.31
   8   1   3   22.51    2.15
   8   1   3   24.78    1.96
   9  -2  -3   23.59    1.99
   9  -2  -3   18.04    1.43
  -9   2   3   17.21    1.36
   8  -2  -3    2.18    0.63
   8  -2  -3    2.90    0.91
  -8   2   3    1.74    0.85
  -8   2   3    1.31    0.57
   7  -2  -3   29.88    1.85
   7  -2  -3   27.00    1.26
  -7   2   3   27.68    1.32
  -7   2   3   30.42    1.70
   6  -2  -3  267.81    5.81
   6  -2  -3  272.28    6.39
  -6   2   3  274.55    6.30
  -6   2   3  275.65    6.02
   5  -2  -3    5.36    0.76
   5  -2  -3    4.87    0.59
  -5   2   3    4.60    0.69
  -5   2   3    5.66    0.68
   4  -2  -3   12.70    0.97
   4  -2  -3   13.34    0.60
  -4   2   3   14.38    0.99
  -4   2   3   14.02    0.81
   3  -2  -3  280.54    5.93
   3  -2  -3  278.69    5.58
  -3   2   3  267.34    5.94
  -3   2   3  280.10    5.64
   2  -2  -3  397.91    8.05
   2  -2  -3  390.61    7.81
  -2   2   3  397.41    8.08
  -2   2   3  389.11    7.82
  -1   2   3  197.32    4.04
   0   2   3  330.24    6.85
   0   2   3  345.20    7.25
   1   2   3  133.47    2.92
   1   2   3  133.86    3.00
  -2  -2  -3  130.65    2.91
   2   2   3  130.15    2.92
   2   2   3  128.85    3.06
  -3  -2  -3  193.06    4.16
   3   2   3  187.37    4.17
   3   2   3  189.68    4.40
  -4  -2  -3   37.60    1.31
   4   2   3   41.18    1.41
   4   2   3   38.65    1.64
  -5  -2  -3   20.98    1.11
   5   2   3   21.61    1.46
   5   2   3   22.57    1.22
  -6  -2  -3   68.15    2.17
   6   2   3   65.70    2.53
   6   2   3   61.26    2.61
  -7  -2  -3    5.57    0.95
   7   2   3    6.67    0.95
   7   2   3    6.98    1.14
   9  -3  -3    3.53    0.85
   9  -3  -3    2.63    1.07
  -9   3   3    3.48    0.67
   8  -3  -3   20.11    1.16
   8  -3  -3   19.55    1.77
  -8   3   3   18.52    1.74
  -8   3   3   22.15    1.13
   7  -3  -3   51.95    2.20
   7  -3  -3   51.60    1.61
  -7   3   3   52.49    1.66
  -7   3   3   50.52    2.17
   6  -3  -3    1.41    0.37
   6  -3  -3    1.15    0.61
  -6   3   3    1.26    0.41
  -6   3   3    0.36    0.61
   5  -3  -3  229.58    4.76
   5  -3  -3  235.15    5.37
  -5   3   3  227.35    4.90
  -5   3   3  223.93    5.37
   4  -3  -3  107.92    2.34
   4  -3  -3  111.78    2.85
  -4   3   3  107.96    2.43
  -4   3   3  105.52    2.89
   3  -3  -3    7.19    0.70
   3  -3  -3    7.58    0.37
  -3   3   3    8.27    0.81
  -3   3   3    8.12    0.45
   2  -3  -3  459.11    9.19
  -2   3   3  440.37    8.93
  -2   3   3  454.58    9.25
  -1   3   3   78.90    1.95
  -1   3   3   83.21    1.84
   0   3   3   27.42    0.90
   0   3   3   30.29    0.90
   0   3   3   28.05    0.90
   1   3   3  161.65    3.49
   1   3   3  162.58    3.63
  -2  -3  -3  240.99    5.12
   2   3   3  246.92    5.15
   2   3   3  244.04    5.38
  -3  -3  -3   13.73    0.72
   3   3   3   13.17    0.99
   3   3   3   13.71    0.78
  -4  -3  -3  119.04    2.88
   4   3   3  117.69    2.93
  -5  -3  -3   49.52    1.68
   5   3   3   49.38    1.76
   5   3   3   47.40    2.08
  -6  -3  -3    0.65    0.67
   6   3   3   -0.04    0.68
   6   3   3    0.68    0.73
  -7  -3  -3    8.33    1.06
   7   3   3    8.66    1.28
   7   3   3    8.80    1.05
   9  -4  -3   28.80    2.20
   9  -4  -3   28.24    1.37
  -9   4   3   26.54    1.24
   8  -4  -3    2.38    0.87
   8  -4  -3    2.34    0.50
  -8   4   3    2.13    0.46
   7  -4  -3   35.08    1.16
   7  -4  -3   35.17    1.86
  -7   4   3   33.16    1.88
  -7   4   3   33.99    1.18
   6  -4  -3  110.10    2.47
  -6   4   3  109.02    3.26
  -6   4   3  110.07    2.58
   5  -4  -3    0.18    0.20
   5  -4  -3    0.03    0.50
  -5   4   3    0.36    0.27
  -5   4   3    0.26    0.59
   4  -4  -3   98.25    2.61
   4  -4  -3   90.55    2.01
  -4   4   3   97.76    2.12
   3  -4  -3  151.51    3.54
  -3   4   3  151.85    3.64
  -3   4   3  152.12    3.14
   2  -4  -3   15.88    0.75
  -2   4   3   14.92    0.86
  -2   4   3   14.97    0.53
  -1   4   3  164.80    3.48
  -1   4   3  161.89    3.58
  -1   4   3  161.16    3.58
   0   4   3  115.79    2.61
   0   4   3  114.78    2.68
   0   4   3  116.19    2.61
   1   4   3   35.63    1.26
   1   4   3   38.35    1.10
   2   4   3   24.36    0.90
   2   4   3   24.04    1.16
  -3  -4  -3   80.51    2.01
   3   4   3   77.62    2.02
   3   4   3   75.58    2.42
  -4  -4  -3   26.49    1.10
   4   4   3   24.87    1.13
   4   4   3   23.50    1.50
  -5  -4  -3   25.50    1.27
   5   4   3   26.38    1.59
   5   4   3   25.91    1.73
  -6  -4  -3   72.01    2.29
   6   4   3   60.11    2.64
   6   4   3   65.29    2.77
   7   4   3   13.59    1.80
   9  -5  -3    7.03    0.91
   9  -5  -3    4.43    1.16
   8  -5  -3   86.87    3.09
   8  -5  -3   86.81    2.13
  -8   5   3   84.59    2.09
   7  -5  -3   54.95    2.27
   7  -5  -3   53.72    1.38
  -7   5   3   53.56    3.01
  -7   5   3   53.71    1.39
   6  -5  -3   13.94    1.31
   6  -5  -3   14.03    0.55
  -6   5   3   16.06    1.44
  -6   5   3   14.65    0.58
   5  -5  -3   58.16    1.29
   5  -5  -3   58.33    2.03
  -5   5   3   60.08    2.20
  -5   5   3   59.89    1.38
   4  -5  -3   37.57    1.47
  -4   5   3   39.60    1.64
   3  -5  -3    8.18    0.76
  -3   5   3    8.48    0.37
  -3   5   3    8.44    0.42
  -3   5   3    7.68    0.92
   2  -5  -3  146.83    3.30
  -2   5   3  136.95    3.39
  -2   5   3  147.63    3.06
  -2   5   3  147.93    3.10
  -1   5   3   90.12    2.10
  -1   5   3   90.27    2.24
  -1   5   3   91.61    2.16
   0   5   3    8.68    0.53
   0   5   3    8.12    0.57
   0   5   3    8.47    0.66
   1   5   3  171.18    4.03
   1   5   3  172.04    3.71
   1   5   3  173.72    3.73
   2   5   3   21.37    0.85
   2   5   3   18.41    1.17
   3   5   3    7.28    1.08
  -4  -5  -3   66.54    1.90
   4   5   3   63.89    2.45
   4   5   3   66.80    1.94
  -5  -5  -3   82.23    2.40
   5   5   3   84.75    2.44
   5   5   3   83.62    2.98
  -6  -5  -3    1.86    0.75
   6   5   3    1.69    1.01
   9  -6  -3   19.63    2.03
   8  -6  -3    0.86    0.77
   7  -6  -3   48.37    2.10
  -7   6   3   39.55    2.15
   6  -6  -3   42.41    1.84
  -6   6   3   44.00    2.02
   5  -6  -3   21.31    1.28
  -5   6   3   21.55    1.52
   4  -6  -3   69.71    2.11
  -4   6   3   71.56    2.31
   3  -6  -3  242.70    5.32
  -3   6   3  241.14    4.88
  -3   6   3  242.36    4.92
  -3   6   3  244.58    5.50
   2  -6  -3    0.52    0.32
  -2   6   3    0.92    0.26
  -2   6   3    0.57    0.44
  -1   6   3   69.99    1.76
  -1   6   3   71.69    1.92
  -1   6   3   70.15    1.86
   0   6   3  407.89    8.53
   0   6   3  403.87    8.31
   0   6   3  407.61    8.28
   1   6   3  178.16    3.80
   1   6   3  176.07    4.22
   1   6   3  171.70    3.79
   2   6   3   79.49    2.51
   2   6   3   81.95    1.99
   2   6   3   78.96    2.05
   3   6   3  103.06    2.54
   3   6   3  104.21    3.13
   4   6   3   25.98    1.72
   4   6   3   22.89    1.14
   5   6   3    9.35    1.23
   5   6   3   10.18    1.09
   8  -7  -3   40.59    2.15
   7  -7  -3   13.60    1.42
  -7   7   3   13.90    1.83
   6  -7  -3   13.50    1.23
  -6   7   3   13.47    1.47
  -5   7   3  102.93    3.10
   4  -7  -3  105.34    2.81
  -4   7   3  106.10    3.01
   3  -7  -3   61.94    1.82
  -3   7   3   62.98    1.49
  -3   7   3   61.82    1.40
  -3   7   3   57.70    2.20
  -2   7   3  133.90    2.90
  -2   7   3  133.19    3.27
  -2   7   3  131.60    3.03
  -1   7   3   22.67    1.06
  -1   7   3   24.32    1.08
   0   7   3    2.59    0.52
   0   7   3    2.29    0.41
   0   7   3    1.57    0.32
   1   7   3   93.91    2.73
   1   7   3   98.35    2.27
   1   7   3   96.05    2.29
   2   7   3   27.37    0.94
   2   7   3   23.49    1.97
   2   7   3   26.31    0.97
   3   7   3   15.06    0.74
   3   7   3   15.62    0.86
   3   7   3   13.44    1.42
   4   7   3   38.96    2.12
   4   7   3   33.89    1.34
   5   7   3   26.37    2.19
   8  -8  -3    0.54    0.83
   7  -8  -3   67.70    2.53
   6  -8  -3   53.02    2.07
  -6   8   3   52.11    2.35
   5  -8  -3    0.88    0.61
  -5   8   3    1.05    0.67
   4  -8  -3   77.30    2.29
  -4   8   3   81.56    2.53
   3  -8  -3  162.16    3.79
  -3   8   3  161.95    3.97
  -3   8   3  164.23    3.44
  -3   8   3  158.81    3.34
  -2   8   3   10.59    0.94
  -2   8   3   11.05    0.78
  -2   8   3   11.07    0.59
  -1   8   3   52.58    1.69
  -1   8   3   54.15    1.52
  -1   8   3   49.76    1.62
  -1   8   3   52.04    1.50
   0   8   3   58.94    1.67
   0   8   3   60.00    1.61
   0   8   3   59.95    1.96
   1   8   3    3.50    0.53
   1   8   3    4.09    0.57
   2   8   3   42.40    1.93
   2   8   3   43.52    1.25
   2   8   3   44.18    1.27
   3   8   3   57.93    2.46
   3   8   3   56.78    1.52
   3   8   3   58.26    1.60
   4   8   3    6.59    1.20
   7  -9  -3   10.85    1.40
   6  -9  -3   19.07    1.67
  -6   9   3   20.68    1.64
   5  -9  -3   52.12    1.93
  -5   9   3   53.69    2.14
   4  -9  -3   19.41    1.18
  -4   9   3   19.29    1.38
   3  -9  -3   20.42    1.04
  -3   9   3   20.09    1.27
  -3   9   3   20.41    0.78
  -2   9   3   64.34    1.66
  -2   9   3   68.95    1.88
  -2   9   3   63.86    2.51
  -1   9   3   47.43    1.55
  -1   9   3   47.94    1.68
  -1   9   3   51.99    1.46
  -1   9   3   43.86    1.64
   0   9   3   12.27    0.81
   0   9   3   11.00    0.67
   0   9   3   11.49    1.16
   1   9   3   76.34    1.91
   1   9   3   75.98    2.55
   1   9   3   78.52    1.87
   2   9   3   37.15    1.91
   2   9   3   35.26    1.06
   3   9   3    2.67    0.95
   7 -10  -3   18.11    1.68
   6 -10  -3   46.42    1.99
   5 -10  -3    0.09    0.54
  -5  10   3    0.27    0.73
   4 -10  -3   61.17    2.04
  -4  10   3   63.52    2.20
  -3  10   3   65.49    2.18
  -2  10   3    3.35    0.63
  -2  10   3    3.14    0.68
  -2  10   3    3.35    0.43
  -1  10   3   34.84    1.18
  -1  10   3   32.10    1.27
  -1  10   3   34.32    1.52
  -1  10   3   35.97    1.29
   0  10   3   97.18    2.37
   0  10   3   98.40    2.92
   0  10   3  102.91    2.32
   1  10   3    3.16    0.86
   2  10   3   11.07    1.60
   5 -11  -3   50.35    1.96
  -5  11   3   46.85    2.13
   4 -11  -3   12.86    1.15
  -4  11   3   10.50    1.02
  -3  11   3   20.49    1.36
  -2  11   3   77.69    2.13
  -2  11   3   79.44    2.20
  -1  11   3    7.42    0.84
   0  11   3   48.42    2.02
   1  13  -4   27.81    1.62
  -1 -13   4   23.85    1.83
   0  13  -4   13.61    1.19
   0 -13   4   11.09    1.42
  -1  13  -4   81.36    2.25
   1 -13   4   83.65    2.46
  -2  13  -4   35.61    1.40
   2 -13   4   37.65    1.38
  -3  13  -4    1.79    0.59
   3 -13   4    2.78    0.78
  -4  13  -4   69.61    2.18
   4 -13   4   71.96    2.42
  -5  13  -4   54.55    2.10
   5 -13   4   54.16    2.27
   3  12  -4   37.35    2.18
   2  12  -4    0.95    0.75
  -2 -12   4    1.55    0.92
   1  12  -4   34.04    1.69
  -1 -12   4   34.35    1.86
   0  12  -4   51.80    1.85
   0 -12   4   51.19    1.99
  -1  12  -4    0.04    0.40
   1 -12   4   -0.49    0.57
  -2  12  -4   60.80    1.56
  -2  12  -4   61.98    1.64
   2 -12   4   61.57    1.68
   2 -12   4   63.24    1.80
   3 -12   4   66.89    2.02
   3 -12   4   64.62    1.62
  -4  12  -4    0.73    0.54
   4 -12   4    0.96    0.64
  -5  12  -4   62.80    2.24
   5 -12   4   64.22    2.35
   6 -12   4   58.09    2.46
   4  11  -4    6.06    1.20
   3  11  -4   33.64    1.99
   2  11  -4   98.35    3.07
  -2 -11   4   96.84    3.07
  -1 -11   4   13.89    1.35
   0  11  -4   26.64    1.26
   0 -11   4   26.78    1.41
  -1  11  -4  135.35    3.21
   1 -11   4  137.32    3.35
  -2  11  -4   30.99    1.01
  -2  11  -4   30.83    1.03
   2 -11   4   31.78    1.19
   2 -11   4   30.00    1.17
  -3  11  -4   41.12    1.07
   3 -11   4   40.34    1.22
   3 -11   4   40.92    1.55
  -4  11  -4  106.96    2.86
   4 -11   4  101.99    2.94
  -5  11  -4   12.39    1.21
   5 -11   4   12.98    1.35
  -6  11  -4    8.64    1.07
  -6  11  -4   12.92    1.17
   6 -11   4   10.09    1.51
   7 -11   4   43.85    2.39
   5  10  -4    0.15    1.05
   4  10  -4   24.61    1.97
   3  10  -4   47.02    2.22
  -3 -10   4   48.98    2.23
   2  10  -4   -1.18    0.60
  -2 -10   4    0.06    0.60
   1  10  -4  132.38    3.44
  -1 -10   4  126.90    3.40
   0  10  -4   54.36    1.74
   0 -10   4   52.57    1.80
  -1  10  -4    6.13    0.67
  -1  10  -4    7.29    0.43
   1 -10   4    6.31    0.56
   1 -10   4    5.49    0.77
  -2  10  -4  157.25    3.56
  -2  10  -4  153.52    3.34
   2 -10   4  151.65    3.45
   2 -10   4  150.94    3.51
  -3  10  -4  134.52    3.45
  -3  10  -4  130.95    2.84
   3 -10   4  134.53    2.96
   3 -10   4  131.31    3.29
  -4  10  -4    0.33    0.45
   4 -10   4    0.57    0.54
  -5  10  -4   93.83    2.82
   5 -10   4   91.44    2.85
  -6  10  -4   57.39    2.36
   6 -10   4   62.71    2.43
   7 -10   4   -0.91    0.82
   6   9  -4   28.34    2.76
   5   9  -4   48.57    2.58
   4   9  -4    0.22    0.80
  -4  -9   4    0.02    0.74
   3   9  -4   41.28    2.04
  -3  -9   4   42.88    1.95
   2   9  -4  145.08    3.87
  -2  -9   4  147.66    3.80
   1   9  -4   15.49    1.12
  -1  -9   4   15.85    1.08
   0   9  -4   73.47    2.07
   0  -9   4   74.16    2.10
  -1   9  -4  152.57    3.41
  -1   9  -4  152.27    3.28
   1  -9   4  149.96    3.31
   1  -9   4  153.17    3.50
  -2   9  -4  135.94    2.98
  -2   9  -4  134.78    3.09
   2  -9   4  137.01    3.19
   2  -9   4  135.94    3.06
  -3   9  -4    1.73    0.26
  -3   9  -4    1.66    0.45
   3  -9   4    2.19    0.55
   3  -9   4    2.27    0.36
  -4   9  -4   25.55    1.27
   4  -9   4   26.53    0.87
   4  -9   4   25.23    1.35
  -5   9  -4   24.35    1.45
   5  -9   4   26.15    1.50
   5  -9   4   25.16    0.81
  -6   9  -4    6.06    0.95
   6  -9   4    9.88    0.59
   6  -9   4    8.67    1.30
   7  -9   4   47.13    1.29
   7  -9   4   42.15    1.33
   7  -9   4   44.73    2.21
   8  -9   4    9.55    1.34
   6   8  -4   20.91    2.17
   5   8  -4    0.27    0.90
   4   8  -4  123.80    3.74
  -4  -8   4  118.62    3.53
  -3  -8   4   41.93    1.80
   2   8  -4    0.14    0.56
  -2  -8   4    0.42    0.47
   1   8  -4   74.05    2.19
   0   8  -4   80.38    2.11
   0  -8   4   77.34    1.75
   0  -8   4   79.82    2.12
  -1   8  -4    5.09    0.56
   1  -8   4    5.63    0.61
   1  -8   4    5.30    0.55
  -2   8  -4  276.19    5.68
  -2   8  -4  275.86    5.84
   2  -8   4  274.96    5.88
   2  -8   4  281.32    5.77
  -3   8  -4  103.37    2.62
  -3   8  -4  101.92    2.26
   3  -8   4  100.56    2.55
   3  -8   4  103.43    2.67
  -4   8  -4   21.93    1.21
   4  -8   4   23.53    0.87
   4  -8   4   22.90    1.26
  -5   8  -4  101.27    3.00
   5  -8   4  108.51    3.59
   5  -8   4  102.26    2.37
   5  -8   4  103.59    2.36
  -6   8  -4  112.22    3.41
   6  -8   4  111.08    2.55
   6  -8   4  115.73    2.73
   6  -8   4  116.38    3.39
   7  -8   4    1.46    0.41
   7  -8   4    0.98    0.75
   8  -8   4   35.23    2.28
   8  -8   4   34.35    1.57
   7   7  -4   -0.75    1.13
   6   7  -4   17.19    1.08
   6   7  -4   17.13    1.87
  -6  -7   4   14.53    0.93
   5   7  -4   69.40    1.64
   5   7  -4   66.78    2.76
  -5  -7   4   69.37    2.56
   4   7  -4    8.00    1.04
  -4  -7   4   11.47    1.21
  -4  -7   4   10.37    0.48
   3   7  -4   69.02    2.46
  -3  -7   4   73.21    2.28
   2   7  -4  144.58    3.68
  -2  -7   4  146.17    3.58
   1   7  -4   82.62    2.26
  -1  -7   4   80.04    2.19
   0   7  -4   82.08    2.08
   0  -7   4   82.62    2.10
   0  -7   4   80.86    1.82
  -1   7  -4  229.53    4.85
  -1   7  -4  236.30    5.02
   1  -7   4  229.24    4.85
   1  -7   4  233.35    4.93
  -2   7  -4   40.17    1.10
  -2   7  -4   40.12    1.25
   2  -7   4   42.92    1.19
   2  -7   4   42.09    1.32
  -3   7  -4  101.04    2.59
   3  -7   4  102.26    2.61
  -4   7  -4  162.23    3.92
   4  -7   4  157.35    3.44
   4  -7   4  164.58    3.92
   4  -7   4  158.25    3.41
  -5   7  -4   29.78    1.51
   5  -7   4   28.71    0.95
   5  -7   4   28.16    1.76
   5  -7   4   29.78    1.02
  -6   7  -4   37.50    1.85
   6  -7   4   37.91    1.22
   6  -7   4   40.82    1.88
   6  -7   4   38.99    1.40
   7  -7   4   59.94    1.95
   7  -7   4   60.25    2.49
   8  -7   4    1.79    0.73
   8  -7   4    3.23    1.05
   8  -7   4    2.99    0.65
   7   6  -4   59.01    1.84
   7   6  -4   54.18    2.82
  -7  -6   4   58.59    1.97
   6   6  -4   35.21    2.22
   6   6  -4   40.12    1.35
  -6  -6   4   39.84    1.39
   5   6  -4    0.98    0.33
   5   6  -4    0.34    0.76
  -5  -6   4    0.65    0.34
  -5  -6   4    0.93    0.62
   4   6  -4  117.55    3.58
   4   6  -4  127.68    2.74
  -4  -6   4  127.78    2.78
  -4  -6   4  129.76    3.45
   3   6  -4   87.83    2.71
  -3  -6   4   91.82    2.56
  -3  -6   4   90.52    1.99
   2   6  -4   46.74    1.69
  -2  -6   4   46.67    1.06
  -2  -6   4   46.37    1.11
  -2  -6   4   46.88    1.58
   1   6  -4  318.60    6.58
  -1  -6   4  305.17    6.15
  -1  -6   4  312.10    6.55
  -1  -6   4  303.30    6.16
   0   6  -4  115.39    2.67
   0   6  -4  113.11    2.48
   0  -6   4  120.75    2.73
   0  -6   4  116.38    2.50
  -1   6  -4   23.42    0.81
  -1   6  -4   25.36    0.93
   1  -6   4   24.68    0.87
   1  -6   4   24.10    0.83
  -2   6  -4  107.36    2.39
  -2   6  -4  109.11    2.57
   2  -6   4  108.01    2.55
   2  -6   4  109.66    2.58
  -3   6  -4   64.97    1.84
   3  -6   4   65.79    1.87
   3  -6   4   62.41    1.55
  -4   6  -4   16.00    0.99
   4  -6   4   15.13    1.06
   4  -6   4   15.57    0.68
   4  -6   4   15.47    0.67
  -5   6  -4  124.80    3.32
   5  -6   4  121.76    2.78
   5  -6   4  121.96    2.87
   5  -6   4  121.87    3.30
  -6   6  -4   73.45    2.49
   6  -6   4   71.34    1.92
   6  -6   4   73.17    2.10
   6  -6   4   72.96    2.50
  -7   6  -4    0.03    1.23
   7  -6   4   -0.17    0.71
   7  -6   4    0.63    0.47
   7  -6   4    0.29    0.54
   8  -6   4   15.40    1.26
   8  -6   4   14.69    1.75
   8   5  -4   10.50    1.47
  -8  -5   4    9.52    1.39
   7   5  -4    1.02    0.56
   7   5  -4    1.77    0.97
  -7  -5   4    0.52    0.65
   6   5  -4   43.63    1.51
   6   5  -4   38.43    2.18
  -6  -5   4   44.12    2.24
  -6  -5   4   43.41    1.53
   5   5  -4   43.81    2.11
   5   5  -4   45.20    1.43
  -5  -5   4   47.15    1.43
  -5  -5   4   45.66    1.91
   4   5  -4    6.78    0.90
   4   5  -4    5.23    0.53
  -4  -5   4    7.52    0.93
  -4  -5   4    6.75    0.60
   3   5  -4  152.20    3.18
   3   5  -4  153.55    3.78
  -3  -5   4  141.97    3.88
  -3  -5   4  153.31    3.25
   2   5  -4  183.05    4.11
  -2  -5   4  172.65    3.70
  -2  -5   4  178.82    4.05
   1   5  -4    0.17    0.30
  -1  -5   4    0.52    0.33
  -1  -5   4    0.15    0.15
  -1  -5   4    0.23    0.17
   0   5  -4  105.97    2.44
   0   5  -4  104.87    2.33
   0  -5   4  107.43    2.33
   0  -5   4  111.33    2.49
  -1   5  -4  206.28    4.45
  -1   5  -4  210.17    4.39
   1  -5   4  213.03    4.44
   1  -5   4  216.13    4.44
  -2   5  -4   24.48    0.91
  -2   5  -4   25.01    0.78
   2  -5   4   24.21    0.80
   2  -5   4   25.51    0.94
  -3   5  -4  103.38    2.57
   3  -5   4  101.92    2.30
   3  -5   4  101.52    2.56
  -4   5  -4   95.69    2.54
   4  -5   4   91.72    2.17
   4  -5   4   91.28    2.22
   4  -5   4   92.12    2.52
  -5   5  -4   26.67    1.33
   5  -5   4   26.08    1.40
   5  -5   4   25.12    1.06
   5  -5   4   26.38    0.97
  -6   5  -4   22.79    1.44
   6  -5   4   22.31    1.19
   6  -5   4   21.14    0.99
   6  -5   4   20.77    1.45
   7  -5   4   79.30    2.50
   7  -5   4   73.79    2.18
   7  -5   4   81.28    2.83
   8  -5   4   10.31    1.28
   8  -5   4   11.68    1.19
   8  -5   4   11.06    1.44
   8   4  -4    8.01    1.22
   8   4  -4    5.67    1.19
  -8  -4   4    7.40    1.02
   7   4  -4   69.67    2.80
   7   4  -4   70.09    2.26
  -7  -4   4   64.85    2.58
  -7  -4   4   69.32    2.23
   6   4  -4   45.98    2.19
   6   4  -4   46.56    1.68
  -6  -4   4   45.56    1.65
  -6  -4   4   49.62    2.06
   5   4  -4   55.15    2.21
   5   4  -4   54.82    1.72
  -5  -4   4   54.73    2.01
  -5  -4   4   53.98    1.64
   4   4  -4   36.52    1.23
   4   4  -4   38.89    1.67
  -4  -4   4   39.20    1.26
  -4  -4   4   38.95    1.53
   3   4  -4   73.12    1.76
   3   4  -4   75.29    2.16
  -3  -4   4   72.95    1.97
  -3  -4   4   71.74    2.05
   2   4  -4    4.69    0.66
  -2  -4   4    5.28    0.44
  -2  -4   4    4.94    0.64
   1   4  -4  406.45    8.08
  -1  -4   4  397.98    7.91
  -1  -4   4  383.83    7.89
  -1  -4   4  396.25    8.10
   0   4  -4   94.86    2.15
   0   4  -4   93.45    2.09
   0  -4   4   95.54    2.09
   0  -4   4   93.58    2.16
  -1   4  -4   11.69    0.52
  -1   4  -4   12.17    0.56
   1  -4   4   12.44    0.57
   1  -4   4   12.81    0.85
  -2   4  -4  442.59    8.85
  -2   4  -4  440.91    9.00
   2  -4   4  435.10    8.84
   2  -4   4  447.83    9.00
  -3   4  -4  333.57    7.08
   3  -4   4  337.99    6.86
   3  -4   4  337.86    7.09
  -4   4  -4    0.56    0.35
   4  -4   4    0.60    0.45
   4  -4   4    0.51    0.26
   4  -4   4    0.20    0.27
  -5   4  -4  111.76    2.98
   5  -4   4  110.29    3.02
   5  -4   4  109.85    2.75
   5  -4   4  106.77    2.62
  -6   4  -4   68.80    2.30
   6  -4   4   67.69    1.95
   6  -4   4   68.15    2.14
   6  -4   4   68.25    2.36
  -7   4  -4    7.94    1.25
   7  -4   4   10.01    1.42
   7  -4   4    9.56    1.02
   8  -4   4   40.16    1.88
   8  -4   4   41.65    2.30
   8  -4   4   40.01    2.02
   8   3  -4   16.77    1.76
   8   3  -4   18.69    1.49
  -8  -3   4   15.77    1.59
   7   3  -4    3.21    0.72
   7   3  -4    1.88    0.81
  -7  -3   4    2.62    0.76
  -7  -3   4    2.76    0.71
   6   3  -4   82.85    2.82
   6   3  -4   85.42    2.51
  -6  -3   4   85.19    2.72
  -6  -3   4   83.66    2.38
   5   3  -4   75.35    2.44
   5   3  -4   76.01    2.24
  -5  -3   4   75.86    2.36
  -5  -3   4   76.50    2.12
   4   3  -4    3.57    0.63
   4   3  -4    2.62    0.46
  -4  -3   4    3.22    0.47
  -4  -3   4    2.59    0.62
   3   3  -4   89.56    2.15
   3   3  -4   90.78    2.36
  -3  -3   4   89.85    2.20
  -3  -3   4   92.30    2.34
   2   3  -4  728.43   14.68
  -2  -3   4  737.13   14.72
  -2  -3   4  742.72   14.57
   1   3  -4   32.64    0.99
  -1  -3   4   31.90    0.89
  -1  -3   4   32.26    1.01
   0   3  -4   83.56    1.96
   0   3  -4   86.01    1.98
   0  -3   4   87.27    1.97
   0  -3   4   92.97    2.39
  -1   3  -4  145.29    3.21
  -1   3  -4  146.09    3.15
   1  -3   4  149.62    3.28
   1  -3   4  151.38    3.22
  -2   3  -4   50.49    1.40
   2  -3   4   50.59    1.30
   2  -3   4   49.96    1.41
  -3   3  -4  134.49    3.16
   3  -3   4  134.60    2.98
   3  -3   4  133.28    3.15
  -4   3  -4  158.56    3.76
   4  -3   4  161.33    3.64
   4  -3   4  158.92    3.56
   4  -3   4  158.81    3.79
  -5   3  -4    0.72    0.41
   5  -3   4    0.00    0.36
   5  -3   4    0.50    0.51
  -6   3  -4   47.61    1.87
   6  -3   4   48.34    1.98
   6  -3   4   49.13    1.84
   7  -3   4   57.83    2.35
   7  -3   4   54.89    2.19
   8  -3   4    4.79    0.95
   8  -3   4    3.59    1.03
   9   2  -4    2.30    1.02
   9   2  -4    3.71    0.98
   8   2  -4    5.57    0.99
   8   2  -4    5.81    0.94
  -8  -2   4    4.83    0.98
  -8  -2   4    4.79    0.91
   7   2  -4   58.93    2.30
  -7  -2   4   62.58    2.32
  -7  -2   4   59.45    2.13
   6   2  -4   41.18    1.75
   6   2  -4   41.88    1.83
  -6  -2   4   43.20    1.81
  -6  -2   4   41.90    1.67
   5   2  -4   43.70    1.66
   5   2  -4   45.50    1.73
  -5  -2   4   44.63    1.60
  -5  -2   4   47.28    1.70
   4   2  -4  290.72    6.29
   4   2  -4  289.80    6.31
  -4  -2   4  296.73    6.35
  -4  -2   4  294.11    6.27
   3   2  -4  265.94    5.73
   3   2  -4  276.57    5.78
  -3  -2   4  278.45    5.82
  -3  -2   4  270.31    5.76
   2   2  -4   84.48    1.97
   2   2  -4   83.06    2.01
  -2  -2   4   84.32    2.05
   1   2  -4  123.03    2.63
  -1  -2   4  115.80    2.74
  -1  -2   4  118.53    2.60
   0   2  -4   33.16    0.92
   0  -2   4   33.53    1.27
  -1   2  -4  153.83    3.28
  -1   2  -4  155.38    3.34
   1  -2   4  154.05    3.34
   1  -2   4  152.40    3.28
  -2   2  -4  439.99    9.21
  -2   2  -4  463.25    9.35
   2  -2   4  448.67    9.23
   2  -2   4  462.84    9.15
  -3   2  -4   23.26    0.95
   3  -2   4   24.63    0.91
   3  -2   4   24.62    0.89
   3  -2   4   24.76    1.00
  -4   2  -4   26.16    1.12
   4  -2   4   26.76    1.19
   4  -2   4   26.04    1.07
  -5   2  -4   82.91    2.40
   5  -2   4   84.61    2.49
   5  -2   4   83.60    2.38
  -6   2  -4   25.84    1.41
   6  -2   4   28.03    1.56
  -7   2  -4    1.84    0.70
   7  -2   4    1.03    0.66
   7  -2   4    0.80    0.71
   8  -2   4   17.40    1.74
   8  -2   4   15.45    1.81
   9   1  -4   19.57    1.87
   9   1  -4   19.60    1.76
   8   1  -4   23.82    1.65
   8   1  -4   25.85    1.77
  -8  -1   4   23.97    1.83
  -8  -1   4   26.40    1.70
   7   1  -4    8.51    1.20
   7   1  -4    9.81    1.53
  -7  -1   4    8.18    1.20
  -7  -1   4    8.21    1.19
   6   1  -4  129.80    3.61
   6   1  -4  136.23    3.48
  -6  -1   4  139.40    3.51
  -6  -1   4  131.68    3.52
   5   1  -4   26.13    1.22
   5   1  -4   23.08    1.31
  -5  -1   4   26.21    1.28
  -5  -1   4   25.81    1.24
   4   1  -4   11.98    0.80
   4   1  -4   11.20    0.88
  -4  -1   4   11.70    0.89
  -4  -1   4   13.03    0.83
   3   1  -4  326.27    6.66
   3   1  -4  313.49    6.74
  -3  -1   4  319.07    6.76
  -3  -1   4  331.36    6.73
   2   1  -4  172.79    3.65
   2   1  -4  170.29    3.70
  -2  -1   4  172.74    3.68
  -2  -1   4  170.93    3.72
  -1  -1   4   27.30    0.97
   0  -1   4   32.03    1.23
  -1   1  -4  374.46    7.97
  -1   1  -4  403.32    8.11
   1  -1   4  395.73    7.94
   1  -1   4  400.04    7.99
  -2   1  -4   15.12    0.69
   2  -1   4   14.70    0.67
   2  -1   4   14.92    0.72
  -3   1  -4   39.58    1.27
   3  -1   4   38.80    1.25
   3  -1   4   37.68    1.28
  -4   1  -4  156.20    3.66
   4  -1   4  157.77    3.72
   4  -1   4  153.33    3.68
  -5   1  -4   27.86    1.32
   5  -1   4   32.54    1.45
   5  -1   4   32.76    1.46
  -6   1  -4   63.42    2.14
   6  -1   4   65.22    2.31
   6  -1   4   62.43    2.27
  -7   1  -4   54.28    2.19
   7  -1   4   56.68    2.29
   7  -1   4   53.59    2.30
   8  -1   4    6.22    1.15
   8  -1   4    4.92    1.02
   9   0  -4   15.81    1.88
   9   0  -4   18.48    1.59
  -9   0   4   18.53    2.00
   8   0  -4   15.26    1.62
   8   0  -4   14.40    1.32
  -8   0   4   13.71    1.70
  -8   0   4   15.50    1.36
   7   0  -4  113.79    3.63
   7   0  -4  109.35    3.04
  -7   0   4  116.94    3.27
  -7   0   4  111.48    3.21
   6   0  -4   31.93    1.38
   6   0  -4   30.51    1.67
  -6   0   4   32.88    1.46
  -6   0   4   32.30    1.57
   5   0  -4    0.04    0.49
   5   0  -4    0.60    0.39
  -5   0   4    1.14    0.58
  -5   0   4    0.64    0.41
   4   0  -4   56.03    1.81
   4   0  -4   56.89    1.59
  -4   0   4   60.19    1.85
  -4   0   4   60.44    1.68
   3   0  -4   74.06    1.78
   3   0  -4   70.67    1.95
  -3   0   4   74.84    1.85
  -3   0   4   73.00    1.99
   2   0  -4  260.94    5.48
   2   0  -4  265.43    5.36
  -2   0   4  259.13    5.49
   1   0  -4   74.89    1.72
  -1   0   4   74.99    1.80
  -1   0   4   73.17    1.85
   0   0  -4  134.32    2.97
   0   0  -4  126.94    2.82
   0   0   4  130.86    2.83
   0   0   4  130.89    2.89
  -1   0  -4  103.99    2.41
   1   0   4  104.94    2.40
   1   0   4  106.70    2.43
  -2   0  -4  445.58    8.89
   2   0   4  437.75    8.89
   2   0   4  426.83    8.89
   2   0   4  430.74    9.07
  -3   0  -4   29.93    1.07
   3   0   4   28.51    1.24
   3   0   4   29.11    1.13
   3   0   4   30.30    1.15
  -4   0  -4    2.61    0.46
   4   0   4    2.51    0.50
   4   0   4    2.39    0.50
  -5   0  -4  199.49    4.56
   5   0   4  193.39    4.62
   5   0   4  190.37    4.84
  -6   0  -4   20.55    1.29
   6   0   4   18.57    1.50
   6   0   4   20.33    1.48
   6   0   4   20.73    1.43
  -7   0  -4    3.78    0.91
   7   0   4    6.59    1.06
   7   0   4    5.74    0.91
   7   0   4    7.25    1.24
   8   0   4   30.63    2.22
   8   0   4   30.07    2.15
   9  -1  -4   14.22    1.84
   9  -1  -4   12.32    1.36
  -9   1   4   14.41    1.45
   8  -1  -4    4.84    0.76
   8  -1  -4    5.22    1.02
  -8   1   4    3.76    0.76
  -8   1   4    5.17    0.99
   7  -1  -4    8.14    0.95
   7  -1  -4    9.88    1.41
  -7   1   4    6.99    1.06
  -7   1   4    9.30    1.05
   6  -1  -4   64.46    1.89
   6  -1  -4   62.41    2.33
  -6   1   4   65.41    2.03
  -6   1   4   66.41    2.29
   5  -1  -4  133.75    3.50
   5  -1  -4  130.47    3.08
  -5   1   4  131.97    3.46
  -5   1   4  137.74    3.23
   4  -1  -4    1.74    0.45
   4  -1  -4    2.54    0.35
  -4   1   4    2.60    0.39
  -4   1   4    2.26    0.53
   3  -1  -4  299.65    6.46
   3  -1  -4  307.69    6.20
  -3   1   4  301.99    6.27
  -3   1   4  308.30    6.51
   2  -1  -4  212.31    4.36
   2  -1  -4  212.98    4.54
  -2   1   4  206.40    4.40
  -2   1   4  213.85    4.57
   1  -1  -4   21.69    0.70
  -1   1   4   21.37    0.79
   0   1   4  161.97    3.43
   0   1   4  157.95    3.48
  -1  -1  -4  917.76   18.04
   1   1   4  894.92   18.25
   1   1   4  925.77   18.05
   1   1   4  906.92   18.04
  -2  -1  -4   16.93    0.73
   2   1   4   15.31    0.75
  -3  -1  -4   53.19    1.56
   3   1   4   53.95    1.69
   3   1   4   55.60    1.62
  -4  -1  -4   51.09    1.63
   4   1   4   51.51    1.82
   4   1   4   51.61    1.67
  -5  -1  -4    0.78    0.48
   5   1   4    1.11    0.58
   5   1   4    0.60    0.50
  -6  -1  -4   55.14    2.03
   6   1   4   57.84    2.14
   6   1   4   59.78    2.39
  -7  -1  -4   19.94    1.69
   7   1   4   22.33    1.91
   7   1   4   21.72    1.66
   7   1   4   22.87    1.88
   9  -2  -4    1.82    0.69
   9  -2  -4    2.86    1.06
  -9   2   4    1.97    0.69
   8  -2  -4   27.84    1.36
   8  -2  -4   28.16    1.94
  -8   2   4   24.92    1.83
  -8   2   4   26.61    1.44
   7  -2  -4  111.45    2.84
   7  -2  -4  115.39    3.51
  -7   2   4  114.20    3.40
  -7   2   4  115.89    3.08
   6  -2  -4   14.44    0.86
   6  -2  -4   14.14    1.36
  -6   2   4   16.14    1.39
  -6   2   4   15.94    0.99
   5  -2  -4   65.57    2.18
   5  -2  -4   63.48    1.68
  -5   2   4   66.82    1.83
  -5   2   4   63.55    2.18
   4  -2  -4  268.44    5.52
   4  -2  -4  271.06    5.96
  -4   2   4  260.64    5.97
  -4   2   4  272.94    5.63
   3  -2  -4   27.68    0.81
  -3   2   4   28.02    1.00
  -3   2   4   26.26    1.16
   2  -2  -4  125.34    2.67
   2  -2  -4  126.29    2.88
  -2   2   4  119.16    2.70
  -2   2   4  125.80    2.92
  -1   2   4  265.56    5.52
  -1   2   4  273.80    5.65
   0   2   4    7.58    0.51
   0   2   4    8.54    0.52
   1   2   4  168.67    3.74
   1   2   4  173.63    3.80
  -2  -2  -4  163.29    3.62
   2   2   4  161.46    3.63
   2   2   4  162.58    3.75
  -3  -2  -4   20.26    0.89
   3   2   4   19.41    0.93
   3   2   4   19.09    1.07
  -4  -2  -4   14.47    0.91
   4   2   4   15.68    0.97
  -5  -2  -4   92.04    2.60
   5   2   4   92.16    2.64
   5   2   4   94.31    2.96
  -6  -2  -4    6.64    0.86
   6   2   4    7.67    1.04
   6   2   4    6.86    0.89
  -7  -2  -4    5.90    1.08
   7   2   4    6.83    1.01
   9  -3  -4   30.39    2.24
  -9   3   4   26.00    1.42
   8  -3  -4   33.95    2.08
   8  -3  -4   34.19    1.36
  -8   3   4   33.45    1.43
   7  -3  -4   18.07    0.94
   7  -3  -4   16.07    1.51
  -7   3   4   17.32    1.06
  -7   3   4   19.06    1.60
   6  -3  -4  137.78    3.06
  -6   3   4  134.19    3.75
  -6   3   4  134.59    3.24
   5  -3  -4   55.33    1.99
   5  -3  -4   55.56    1.43
  -5   3   4   56.38    1.58
  -5   3   4   55.18    2.06
   4  -3  -4   11.83    0.94
   4  -3  -4   12.38    0.54
   3  -3  -4  246.60    5.06
   3  -3  -4  250.43    5.43
  -3   3   4  247.10    5.50
  -3   3   4  249.90    5.10
   2  -3  -4  183.63    4.09
  -2   3   4  183.56    4.23
  -2   3   4  188.04    4.14
  -1   3   4    0.52    0.33
  -1   3   4    0.63    0.22
  -1   3   4    0.65    0.30
   0   3   4  249.97    5.19
   0   3   4  247.12    5.20
   0   3   4  242.94    5.20
   0   3   4  244.90    5.18
   1   3   4   32.09    1.38
   1   3   4   30.40    1.03
   2   3   4    0.05    0.28
   2   3   4   -0.01    0.31
  -3  -3  -4   70.91    1.91
   3   3   4   67.73    2.19
   3   3   4   70.10    1.94
  -4  -3  -4  112.47    2.92
   4   3   4  116.48    2.92
   4   3   4  113.55    3.29
  -5  -3  -4    0.41    0.53
   5   3   4    0.11    0.66
   5   3   4    0.48    0.52
  -6  -3  -4   26.27    1.59
   6   3   4   26.75    1.60
   6   3   4   27.71    1.91
   7   3   4   24.92    1.82
   9  -4  -4    2.80    0.60
   9  -4  -4    1.21    0.98
   8  -4  -4   12.63    1.56
   8  -4  -4    9.80    0.85
  -8   4   4   11.12    0.88
   7  -4  -4   66.59    1.75
   7  -4  -4   71.29    2.58
  -7   4   4   65.32    1.86
  -7   4   4   63.26    2.58
   6  -4  -4   11.19    1.25
   6  -4  -4   10.68    0.60
  -6   4   4   11.54    1.38
  -6   4   4   10.70    0.76
   5  -4  -4   24.47    1.35
   5  -4  -4   22.68    0.75
  -5   4   4   25.06    1.48
  -5   4   4   24.53    1.18
   4  -4  -4   95.54    2.61
   4  -4  -4   95.46    2.10
  -4   4   4   98.89    2.21
  -4   4   4   93.48    2.74
   3  -4  -4    0.21    0.34
  -3   4   4    0.09    0.42
  -3   4   4    0.29    0.24
   2  -4  -4   31.79    1.12
  -2   4   4   32.28    1.23
  -2   4   4   31.48    0.93
  -1   4   4  180.48    3.88
  -1   4   4  181.63    3.91
  -1   4   4  181.91    4.02
   0   4   4   96.45    2.34
   0   4   4   95.53    2.31
   0   4   4   96.62    2.33
   0   4   4   98.04    2.38
   1   4   4   59.03    1.59
   1   4   4   56.74    1.72
   2   4   4  127.45    2.96
   2   4   4  125.22    3.23
   3   4   4   15.59    1.38
   3   4   4   17.40    0.92
  -4  -4  -4   61.84    1.89
   4   4   4   58.32    2.31
   4   4   4   59.32    1.87
  -5  -4  -4   79.25    2.39
   5   4   4   74.62    2.33
   5   4   4   75.30    2.81
  -6  -4  -4   17.23    1.50
   6   4   4   15.29    1.44
   6   4   4   17.88    1.88
   9  -5  -4   32.29    1.35
   9  -5  -4   34.39    2.31
   8  -5  -4   17.98    0.86
   8  -5  -4   20.10    1.71
  -8   5   4   16.76    0.81
   7  -5  -4   11.47    1.36
   7  -5  -4   10.40    0.59
  -7   5   4   10.26    0.63
  -7   5   4   10.27    1.63
   6  -5  -4  105.10    3.05
   6  -5  -4   94.93    2.18
  -6   5   4  101.00    2.33
  -6   5   4  102.60    3.18
   5  -5  -4   66.85    1.52
   5  -5  -4   67.66    2.23
  -5   5   4   65.84    2.37
  -5   5   4   71.00    1.66
   4  -5  -4    5.46    0.66
  -4   5   4    5.32    0.49
  -4   5   4    5.28    0.79
   3  -5  -4  165.79    3.84
  -3   5   4  163.53    3.46
  -2   5   4  105.28    2.68
  -2   5   4  103.04    2.37
  -2   5   4  104.22    2.35
  -1   5   4    4.16    0.66
  -1   5   4    3.93    0.50
  -1   5   4    3.95    0.49
   0   5   4  102.90    2.58
   0   5   4  104.69    2.48
   0   5   4  100.30    2.46
   1   5   4   54.61    1.53
   1   5   4   54.85    1.77
   1   5   4   53.29    1.51
   2   5   4    0.77    0.34
   2   5   4    0.78    0.48
   3   5   4   85.13    2.24
   3   5   4   84.09    2.73
   4   5   4   47.66    1.65
   4   5   4   48.34    2.19
   5   5   4   -0.15    0.61
   5   5   4   -0.10    0.80
   6   5   4   21.11    1.58
   9  -6  -4    6.25    1.86
   8  -6  -4   35.10    2.06
   7  -6  -4   56.79    2.29
  -7   6   4   53.59    2.49
   6  -6  -4    1.88    0.64
  -6   6   4    2.80    0.84
  -5   6   4   33.31    1.73
   4  -6  -4  120.04    3.12
  -4   6   4  121.76    2.56
  -4   6   4  121.50    3.34
  -4   6   4  123.20    2.60
   3  -6  -4    0.06    0.36
  -3   6   4    0.30    0.27
  -3   6   4    0.26    0.51
  -3   6   4    0.41    0.21
  -2   6   4  247.33    5.16
  -2   6   4  249.07    5.53
  -2   6   4  248.27    5.22
  -1   6   4  305.45    6.48
  -1   6   4  304.22    6.43
  -1   6   4  300.57    6.34
   0   6   4   -0.10    0.34
   0   6   4    0.37    0.35
   0   6   4    0.46    0.30
   1   6   4  134.49    3.08
   1   6   4  133.52    3.44
   1   6   4  131.68    3.38
   2   6   4  137.27    3.16
   2   6   4  134.38    3.66
   2   6   4  135.09    3.13
   3   6   4   49.53    1.56
   3   6   4   47.46    2.11
   4   6   4   21.63    1.76
   4   6   4   24.14    1.22
   5   6   4   25.96    1.47
   5   6   4   25.98    2.09
   8  -7  -4    5.67    1.03
   7  -7  -4   26.17    1.69
   6  -7  -4   72.82    2.48
  -6   7   4   74.99    2.73
   5  -7  -4   46.13    1.81
  -5   7   4   48.88    2.07
   4  -7  -4   19.98    1.15
  -4   7   4   22.63    1.42
   3  -7  -4  121.57    3.06
  -3   7   4  122.20    2.76
  -3   7   4  121.63    3.26
  -3   7   4  129.03    2.97
  -2   7   4   53.44    2.69
  -2   7   4   57.91    1.53
  -2   7   4   63.36    1.68
  -1   7   4    4.84    0.63
  -1   7   4    5.71    0.60
  -1   7   4    5.30    0.73
  -1   7   4    6.15    0.78
   0   7   4   94.75    2.31
   0   7   4   91.03    2.58
   0   7   4   90.45    2.34
   1   7   4   36.39    1.23
   1   7   4   36.85    1.23
   2   7   4    2.10    0.68
   2   7   4    2.41    0.41
   2   7   4    2.73    0.45
   3   7   4   45.81    1.51
   3   7   4   48.71    1.44
   3   7   4   43.23    2.16
   4   7   4   23.39    1.24
   4   7   4   22.77    1.93
   8  -8  -4   27.84    2.00
   7  -8  -4   40.97    2.02
   6  -8  -4    0.61    0.88
  -6   8   4    1.84    0.83
   5  -8  -4   64.23    2.19
  -5   8   4   69.44    2.47
  -4   8   4   99.65    2.96
  -3   8   4    0.79    0.25
  -3   8   4    1.11    0.37
  -3   8   4    1.32    0.58
  -2   8   4   18.97    1.14
  -2   8   4   19.35    0.81
  -2   8   4   21.43    1.28
  -1   8   4   38.32    1.31
  -1   8   4   36.89    1.46
  -1   8   4   37.96    1.29
  -1   8   4   38.18    1.47
   0   8   4    2.79    0.50
   0   8   4    2.63    0.62
   0   8   4    3.03    0.44
   1   8   4   73.03    1.92
   1   8   4   70.27    2.44
   1   8   4   73.64    2.53
   2   8   4   53.45    1.57
   2   8   4   53.79    1.55
   2   8   4   50.93    2.20
   3   8   4    6.94    1.10
   3   8   4    6.74    0.85
   7  -9  -4   15.25    1.54
   6  -9  -4   45.40    1.94
   5  -9  -4   26.52    1.43
  -5   9   4   25.87    1.69
   4  -9  -4    7.76    0.96
  -4   9   4    7.80    1.22
  -3   9   4  122.92    2.80
  -3   9   4  121.10    3.28
  -3   9   4  120.77    2.67
  -2   9   4   39.27    1.23
  -2   9   4   38.48    1.45
  -2   9   4   39.34    1.58
  -1   9   4   13.16    0.87
  -1   9   4   11.34    1.10
  -1   9   4   15.02    0.89
   0   9   4   65.16    1.91
   0   9   4   68.50    2.04
   0   9   4   66.12    1.82
   0   9   4   66.25    2.30
   1   9   4   24.64    1.63
   1   9   4   25.82    1.24
   1   9   4   27.92    1.13
   2   9   4    4.65    0.97
   6 -10  -4   -0.29    0.66
   5 -10  -4   40.65    1.75
  -5  10   4   35.04    1.99
  -4  10   4   42.64    1.92
  -3  10   4   -0.46    0.38
  -3  10   4   -0.54    0.67
  -2  10   4   86.51    2.35
  -2  10   4   79.40    2.65
  -2  10   4   87.62    2.37
  -2  10   4   84.03    2.46
  -1  10   4   91.19    2.39
  -1  10   4   80.38    2.96
  -1  10   4   89.68    2.76
  -1  10   4   90.60    2.31
   0  10   4    5.15    0.63
   0  10   4    5.24    0.87
   1  10   4   38.94    2.07
  -4  11   4   10.34    1.30
  -2  11   4    8.36    1.17
  -1  14  -5   31.64    1.41
   2  13  -5   22.77    1.72
   1  13  -5    4.06    0.79
  -1 -13   5    2.22    0.98
   0  13  -5   88.30    2.59
   0 -13   5   87.82    2.82
  -1  13  -5   34.25    1.36
   1 -13   5   31.73    1.71
  -2  13  -5   17.57    0.88
   2 -13   5   15.97    1.20
   2 -13   5   17.39    0.90
  -3  13  -5  120.52    2.65
  -3  13  -5  117.71    2.96
   3 -13   5  121.30    3.11
  -4  13  -5   44.82    1.76
   4 -13   5   47.34    2.18
  -5  13  -5    3.34    0.81
   5 -13   5    5.39    0.98
   3  12  -5    0.10    0.81
   2  12  -5   49.67    2.12
  -2 -12   5   43.97    2.28
   1  12  -5   93.12    2.80
  -1 -12   5   91.17    2.96
   0  12  -5    0.25    0.49
   0 -12   5    0.00    0.74
  -1  12  -5   60.91    1.80
   1 -12   5   57.95    2.01
  -2  12  -5   73.52    1.90
  -2  12  -5   71.39    1.82
   2 -12   5   70.06    2.09
   2 -12   5   74.22    2.02
  -3  12  -5    3.42    0.52
  -3  12  -5    4.30    0.52
   3 -12   5    3.96    0.68
   3 -12   5    3.66    0.54
  -4  12  -5   83.42    2.45
  -5  12  -5   74.42    2.50
   5 -12   5   72.61    2.59
   6 -12   5   -0.78    0.83
   4  11  -5   15.49    1.93
   3  11  -5   44.25    2.18
   2  11  -5   19.96    1.49
  -2 -11   5   20.74    1.70
   1  11  -5   34.88    2.52
  -1 -11   5   36.19    1.76
   0  11  -5   97.84    2.66
   0 -11   5   99.69    2.80
  -1  11  -5    4.22    0.53
   1 -11   5    4.92    0.59
  -2  11  -5   15.22    0.79
  -2  11  -5   16.70    0.78
   2 -11   5   14.17    0.97
   2 -11   5   14.92    0.97
  -3  11  -5   65.51    1.64
  -3  11  -5   65.85    1.91
   3 -11   5   66.10    1.78
   3 -11   5   67.39    2.08
  -4  11  -5   15.62    1.14
   4 -11   5   16.57    0.84
   4 -11   5   17.28    1.32
  -5  11  -5   23.37    1.46
   5 -11   5   23.60    1.57
  -6  11  -5   78.34    2.37
   6 -11   5   73.71    2.77
   7 -11   5   24.54    2.09
   5  10  -5   60.53    2.93
   4  10  -5   22.29    1.92
   3  10  -5    4.71    0.89
  -3 -10   5    4.74    0.97
   2  10  -5   50.02    2.05
  -2 -10   5   50.84    2.05
   1  10  -5   61.17    2.04
  -1 -10   5   60.13    2.10
   0  10  -5   11.38    0.91
   0 -10   5   12.24    1.04
  -1  10  -5  156.86    3.55
  -1  10  -5  153.72    3.33
   1 -10   5  154.27    3.42
   1 -10   5  155.76    3.66
  -2  10  -5  114.66    2.64
  -2  10  -5  112.82    2.68
   2 -10   5  112.72    2.80
   2 -10   5  113.43    2.73
  -3  10  -5    1.15    0.29
  -3  10  -5    1.46    0.41
   3 -10   5    1.68    0.54
   3 -10   5    1.01    0.38
  -4  10  -5   46.92    1.73
   4 -10   5   45.78    1.83
   4 -10   5   46.68    1.35
  -5  10  -5   62.38    2.19
   5 -10   5   59.53    1.51
   5 -10   5   59.60    2.23
  -6  10  -5    2.56    0.86
   6 -10   5    2.73    0.43
   6 -10   5    3.73    0.87
   7 -10   5   36.07    2.16
   6   9  -5   23.11    2.29
   5   9  -5    0.12    0.92
   4   9  -5   13.73    1.65
  -4  -9   5   14.80    1.56
   3   9  -5  108.74    3.33
  -3  -9   5  110.05    3.23
   2   9  -5   14.16    1.28
  -2  -9   5   14.40    1.22
   1   9  -5   60.67    2.00
  -1  -9   5   64.45    2.06
   0   9  -5  212.57    4.73
   0  -9   5  211.77    4.38
   0  -9   5  212.56    4.84
  -1   9  -5  216.88    4.67
  -1   9  -5  211.56    4.52
   1  -9   5  217.51    4.61
   1  -9   5  216.53    4.75
  -2   9  -5    2.51    0.39
  -2   9  -5    2.24    0.35
   2  -9   5    3.00    0.51
   2  -9   5    3.36    0.47
  -3   9  -5  190.78    4.08
  -3   9  -5  189.49    4.44
   3  -9   5  196.38    4.17
   3  -9   5  194.05    4.46
  -4   9  -5   47.80    1.77
   4  -9   5   51.04    1.88
   4  -9   5   50.79    1.39
  -5   9  -5    7.14    1.08
   5  -9   5    8.08    1.16
   5  -9   5    6.97    0.62
   5  -9   5    9.30    0.66
  -6   9  -5   81.59    2.91
   6  -9   5   89.64    2.25
   6  -9   5   89.64    2.14
   6  -9   5   90.06    2.94
   7  -9   5   10.40    0.83
   7  -9   5    7.75    1.04
   7  -9   5   11.22    1.58
   6   8  -5    9.94    1.41
   5   8  -5   38.13    2.21
   4   8  -5   65.63    2.58
  -4  -8   5   65.48    2.43
   3   8  -5    0.55    0.73
  -3  -8   5    0.26    0.53
   2   8  -5  224.41    5.28
  -2  -8   5  225.67    5.23
   1   8  -5   27.77    1.27
  -1  -8   5   28.63    0.74
  -1  -8   5   28.45    1.28
   0   8  -5    0.88    0.37
   0  -8   5    1.25    0.27
   0  -8   5    1.47    0.43
  -1   8  -5  106.41    2.49
  -1   8  -5  109.40    2.58
   1  -8   5  109.36    2.55
   1  -8   5  113.60    2.68
  -2   8  -5  114.78    2.61
  -2   8  -5  111.43    2.79
   2  -8   5  116.78    2.69
   2  -8   5  116.81    2.79
  -3   8  -5   42.47    1.69
  -3   8  -5   43.80    1.22
   3  -8   5   45.67    1.58
   3  -8   5   43.24    1.28
  -4   8  -5  134.09    3.41
   4  -8   5  133.31    3.41
   4  -8   5  129.40    2.94
  -5   8  -5   83.48    2.61
   5  -8   5   81.76    2.60
   5  -8   5   82.67    2.07
   5  -8   5   81.32    2.00
  -6   8  -5   -0.50    0.65
   6  -8   5    0.24    0.68
   6  -8   5   -0.10    0.42
   6  -8   5    0.44    0.36
   7  -8   5   44.21    2.24
   7  -8   5   46.67    1.56
   7  -8   5   46.95    1.77
   8  -8   5   19.45    1.54
   8  -8   5   20.52    2.08
   7   7  -5   15.78    2.14
   7   7  -5   16.12    0.94
   6   7  -5   83.89    2.08
   6   7  -5   82.88    3.20
  -6  -7   5   83.91    2.18
   5   7  -5    0.36    0.78
  -5  -7   5    1.74    0.73
  -5  -7   5    2.00    0.39
   4   7  -5   20.49    1.58
  -4  -7   5   21.09    1.40
  -4  -7   5   22.82    0.79
   3   7  -5  218.11    5.25
  -3  -7   5  221.90    5.15
  -3  -7   5  214.98    4.43
  -3  -7   5  216.88    4.46
   2   7  -5   21.54    1.25
  -2  -7   5   21.41    0.63
  -2  -7   5   23.20    1.19
  -2  -7   5   22.00    0.71
   1   7  -5   71.55    2.02
  -1  -7   5   70.23    1.60
  -1  -7   5   73.33    2.05
  -1  -7   5   69.42    1.60
   0   7  -5  120.72    2.88
   0  -7   5  123.69    2.70
   0  -7   5  126.16    2.97
  -1   7  -5   35.49    1.09
  -1   7  -5   35.86    1.12
   1  -7   5   38.28    1.15
   1  -7   5   37.62    1.22
  -2   7  -5  249.89    5.31
  -2   7  -5  242.83    5.13
   2  -7   5  250.48    5.31
   2  -7   5  242.74    5.18
   3  -7   5   86.09    2.35
   3  -7   5   86.50    2.06
  -4   7  -5    4.05    0.59
   4  -7   5    3.80    0.53
   4  -7   5    3.84    0.61
  -5   7  -5   13.43    1.16
   5  -7   5   12.99    0.79
   5  -7   5   12.43    0.73
   5  -7   5   13.02    1.20
  -6   7  -5   91.72    2.96
   6  -7   5   92.37    2.92
   6  -7   5   89.35    2.44
   7  -7   5    5.73    0.78
   7  -7   5    7.72    1.02
   7  -7   5    4.93    0.95
   8  -7   5   15.16    1.56
   8  -7   5   14.50    1.92
   8  -7   5   20.99    1.32
   7   6  -5   22.09    1.14
   7   6  -5   17.49    1.98
  -7  -6   5   20.40    1.42
   6   6  -5   18.06    0.93
   6   6  -5   16.52    1.75
  -6  -6   5   15.29    1.58
  -6  -6   5   16.17    1.06
   5   6  -5   81.63    2.88
   5   6  -5   83.18    2.07
  -5  -6   5   84.75    2.75
  -5  -6   5   83.35    2.12
   4   6  -5   10.44    1.29
  -4  -6   5   12.06    0.72
  -4  -6   5    9.98    1.11
   3   6  -5   22.07    1.33
  -3  -6   5   23.89    1.25
  -3  -6   5   22.57    0.86
   2   6  -5  330.33    7.08
  -2  -6   5  335.42    6.63
  -2  -6   5  328.43    6.66
  -2  -6   5  321.64    7.53
   1   6  -5   68.97    1.90
  -1  -6   5   69.38    1.60
  -1  -6   5   70.43    1.95
  -1  -6   5   67.59    1.60
   0   6  -5    1.48    0.32
   0  -6   5    1.85    0.36
   0  -6   5    2.43    0.38
  -1   6  -5  135.42    3.03
  -1   6  -5  133.90    3.01
   1  -6   5  137.15    3.05
   1  -6   5  136.79    3.04
  -2   6  -5  111.46    2.54
  -2   6  -5  112.76    2.68
   2  -6   5  110.73    2.55
   2  -6   5  113.96    2.70
  -3   6  -5    5.82    0.77
   3  -6   5    5.62    0.55
   3  -6   5    7.12    0.78
  -4   6  -5  120.58    3.10
   4  -6   5  116.42    3.08
   4  -6   5  117.24    2.72
  -5   6  -5  125.73    3.35
   5  -6   5  120.23    3.36
   5  -6   5  123.78    2.96
   5  -6   5  120.83    2.87
  -6   6  -5    0.61    0.58
   6  -6   5   -0.06    0.41
   6  -6   5    0.08    0.59
   6  -6   5    0.35    0.43
   7  -6   5   35.72    1.71
   7  -6   5   36.97    1.53
   7  -6   5   40.02    2.06
   8  -6   5   26.46    2.13
   8  -6   5   30.39    1.50
   8  -6   5   28.00    1.83
   8   5  -5    0.98    0.65
   8   5  -5    0.48    1.05
  -8  -5   5   -0.58    0.79
   7   5  -5   15.36    1.13
   7   5  -5   10.92    1.70
  -7  -5   5   11.27    1.28
   6   5  -5   54.42    2.37
   6   5  -5   57.73    1.76
  -6  -5   5   55.04    2.28
  -6  -5   5   49.43    2.00
   5   5  -5    5.75    0.87
   5   5  -5    7.21    0.87
  -5  -5   5    6.94    0.79
  -5  -5   5    5.35    0.78
   4   5  -5   45.67    1.87
   4   5  -5   47.58    1.35
  -4  -5   5   47.35    1.77
  -4  -5   5   47.06    1.44
   3   5  -5  116.19    3.02
  -3  -5   5  114.41    2.66
  -3  -5   5  116.43    2.98
   2   5  -5   15.74    0.93
  -2  -5   5   16.70    0.68
  -2  -5   5   16.18    0.95
   1   5  -5   76.82    2.01
  -1  -5   5   79.51    1.84
  -1  -5   5   82.87    2.09
   0   5  -5  128.59    2.87
   0   5  -5  133.51    2.95
   0  -5   5  130.76    2.97
   0  -5   5  132.04    2.88
  -1   5  -5   35.47    1.09
  -1   5  -5   35.54    1.06
   1  -5   5   38.19    1.12
   1  -5   5   35.22    1.07
  -2   5  -5   62.83    1.71
  -2   5  -5   62.91    1.59
   2  -5   5   63.24    1.73
   2  -5   5   63.77    1.60
  -3   5  -5  211.57    4.86
   3  -5   5  218.64    4.82
   3  -5   5  218.46    4.60
  -4   5  -5   57.99    1.86
   4  -5   5   57.75    1.88
   4  -5   5   56.38    1.56
   4  -5   5   56.05    1.60
  -5   5  -5   90.87    2.67
   5  -5   5   92.53    2.39
   5  -5   5   95.36    3.72
   5  -5   5   83.18    2.46
  -6   5  -5   81.58    2.66
   6  -5   5   83.67    2.71
   6  -5   5   83.84    2.41
   6  -5   5   78.64    2.22
   7  -5   5   14.91    1.56
   7  -5   5   18.37    1.39
   7  -5   5   19.08    1.24
   8  -5   5    6.95    0.90
   8  -5   5    5.33    0.99
   8  -5   5    5.79    1.15
   8   4  -5   22.12    1.49
   8   4  -5   20.43    1.91
  -8  -4   5   16.51    1.64
   7   4  -5    7.66    1.08
  -7  -4   5    5.99    0.90
  -7  -4   5    8.61    1.23
   6   4  -5    6.98    0.93
   6   4  -5    8.12    0.93
  -6  -4   5    7.91    1.20
  -6  -4   5    7.45    0.97
   5   4  -5  135.32    3.26
   5   4  -5  133.29    3.61
  -5  -4   5  130.82    3.25
  -5  -4   5  135.79    3.58
   4   4  -5   32.26    1.15
   4   4  -5   32.75    1.48
  -4  -4   5   32.55    1.24
  -4  -4   5   32.26    1.41
   3   4  -5   52.77    1.70
   3   4  -5   52.50    1.41
  -3  -4   5   50.90    1.49
  -3  -4   5   54.45    1.70
   2   4  -5  167.14    3.81
  -2  -4   5  175.33    3.88
  -2  -4   5  166.99    3.67
   1   4  -5  207.68    4.52
  -1  -4   5  214.70    4.44
  -1  -4   5  213.45    4.56
   0   4  -5  180.34    3.86
   0  -4   5  177.49    3.87
   0  -4   5  181.86    3.84
  -1   4  -5  895.27   18.01
  -1   4  -5  919.21   17.95
   1  -4   5  914.18   17.95
   1  -4   5  907.60   18.01
  -2   4  -5   99.45    2.32
  -2   4  -5   98.74    2.43
   2  -4   5   99.50    2.44
   2  -4   5  102.18    2.33
  -3   4  -5    1.48    0.36
   3  -4   5    1.51    0.40
   3  -4   5    1.50    0.30
  -4   4  -5  143.82    3.47
   4  -4   5  139.17    3.46
   4  -4   5  137.37    3.24
   4  -4   5  137.20    3.20
  -5   4  -5   76.68    2.36
   5  -4   5   75.15    2.15
   5  -4   5   75.37    2.06
  -6   4  -5   15.44    1.27
   6  -4   5   14.48    1.03
   6  -4   5   14.80    1.13
   6  -4   5   16.16    1.35
   7  -4   5   19.81    1.64
   7  -4   5   20.14    1.32
   7  -4   5   21.27    1.51
   8  -4   5   18.15    1.70
   8  -4   5   15.08    1.89
   8  -4   5   21.35    1.81
   8   3  -5    1.61    0.85
   8   3  -5    1.71    0.72
  -8  -3   5    1.54    0.91
   7   3  -5   61.00    2.38
  -7  -3   5   62.72    2.44
  -7  -3   5   58.37    2.14
   6   3  -5   69.00    2.39
   6   3  -5   71.24    2.22
  -6  -3   5   68.20    2.18
  -6  -3   5   68.87    2.38
   5   3  -5    3.06    0.66
   5   3  -5    3.35    0.56
  -5  -3   5    2.62    0.58
  -5  -3   5    3.03    0.59
   4   3  -5  153.15    3.55
   4   3  -5  153.70    3.70
  -4  -3   5  159.11    3.62
  -4  -3   5  150.29    3.84
   3   3  -5  286.86    5.98
   3   3  -5  282.98    6.09
  -3  -3   5  288.99    6.15
  -3  -3   5  282.71    6.01
   2   3  -5   34.64    1.15
  -2  -3   5   37.13    1.10
  -2  -3   5   36.50    1.22
   1   3  -5   40.80    1.18
  -1  -3   5   40.15    1.20
  -1  -3   5   41.58    1.14
   0   3  -5  353.20    7.12
   0  -3   5  348.21    7.13
   0  -3   5  345.78    7.11
  -1   3  -5    2.70    0.42
  -1   3  -5    2.91    0.42
   1  -3   5    2.96    0.44
   1  -3   5    3.20    0.43
  -2   3  -5  126.97    2.98
   2  -3   5  127.85    2.88
   2  -3   5  130.12    3.00
  -3   3  -5   63.67    1.87
   3  -3   5   65.67    1.72
   3  -3   5   65.46    1.87
  -4   3  -5   34.50    1.35
   4  -3   5   34.58    1.39
   4  -3   5   35.25    1.26
  -5   3  -5  109.68    2.99
   5  -3   5  110.61    2.79
   5  -3   5  108.01    2.86
  -6   3  -5   49.28    1.93
   6  -3   5   45.86    1.98
   6  -3   5   50.19    2.09
   6  -3   5   48.23    1.73
   7  -3   5    0.03    0.63
   7  -3   5   -1.09    0.67
   7  -3   5   -0.94    0.64
   8  -3   5   21.70    2.06
   8  -3   5   24.66    1.91
   9   2  -5    3.93    0.97
   9   2  -5    3.13    1.00
   8   2  -5   53.13    2.23
   8   2  -5   50.93    2.23
  -8  -2   5   47.81    2.27
  -8  -2   5   49.16    2.27
   7   2  -5    3.96    0.77
   7   2  -5    3.42    0.75
  -7  -2   5    4.77    0.81
  -7  -2   5    4.84    0.85
   6   2  -5   64.66    2.22
   6   2  -5   64.21    2.19
  -6  -2   5   66.16    2.19
  -6  -2   5   65.50    2.23
   5   2  -5  145.29    3.64
   5   2  -5  151.49    3.71
  -5  -2   5  150.87    3.73
   4   2  -5  136.31    3.29
   4   2  -5  134.54    3.25
  -4  -2   5  135.67    3.30
  -4  -2   5  138.26    3.31
   3   2  -5  133.69    3.07
   3   2  -5  130.36    3.06
  -3  -2   5  130.22    3.09
  -3  -2   5  137.93    3.16
   2   2  -5  232.24    4.93
  -2  -2   5  231.78    4.97
  -2  -2   5  236.93    4.95
   1   2  -5   12.64    0.59
  -1  -2   5   12.92    0.61
  -1  -2   5   12.29    0.62
   0   2  -5    0.83    0.22
   0  -2   5    0.85    0.22
   0  -2   5    0.71    0.23
  -1   2  -5  255.17    5.43
  -1   2  -5  255.29    5.50
   1  -2   5  268.57    5.52
   1  -2   5  267.55    5.46
  -2   2  -5   80.16    2.11
   2  -2   5   84.20    2.02
   2  -2   5   80.16    2.08
  -3   2  -5    6.13    0.67
   3  -2   5    6.05    0.58
   3  -2   5    6.90    0.60
   3  -2   5    6.50    0.69
  -4   2  -5  102.50    2.67
   4  -2   5   98.23    2.55
   4  -2   5  100.50    2.69
   4  -2   5  100.67    2.61
  -5   2  -5   77.37    2.30
   5  -2   5   73.30    2.27
  -6   2  -5    1.12    0.57
   6  -2   5    0.35    0.61
   6  -2   5    0.22    0.54
   7  -2   5   15.22    1.56
   7  -2   5   10.87    1.48
   8  -2   5   26.35    2.02
   8  -2   5   30.04    2.18
   9   1  -5   13.25    1.74
   9   1  -5    8.92    1.09
   8   1  -5    0.05    0.62
   8   1  -5    0.25    0.70
  -8  -1   5   -1.51    0.82
  -8  -1   5   -0.86    0.71
   7   1  -5   44.01    2.04
   7   1  -5   47.41    2.00
  -7  -1   5   46.85    2.01
  -7  -1   5   45.95    1.96
   6   1  -5   23.90    1.47
   6   1  -5   25.29    1.28
  -6  -1   5   24.47    1.36
  -6  -1   5   24.73    1.47
   5   1  -5    3.01    0.59
   5   1  -5    4.09    0.56
  -5  -1   5    4.12    0.68
   4   1  -5   65.21    1.84
   4   1  -5   70.32    2.37
  -4  -1   5   67.46    2.03
  -4  -1   5   70.29    1.96
   3   1  -5  133.75    3.05
   3   1  -5  133.44    3.15
  -3  -1   5  139.49    3.13
  -3  -1   5  134.05    3.18
   2   1  -5    1.06    0.28
  -2  -1   5    0.75    0.30
  -2  -1   5    0.93    0.30
   1   1  -5   64.19    1.61
  -1  -1   5   65.10    1.63
  -1  -1   5   68.20    1.68
   0   1  -5  254.43    5.37
   0  -1   5  264.44    5.46
   0  -1   5  259.61    5.39
  -1   1  -5   22.08    0.84
   1  -1   5   22.12    0.82
   1  -1   5   20.95    0.84
  -2   1  -5  237.85    5.23
   2  -1   5  247.32    5.20
   2  -1   5  245.80    5.25
   3  -1   5  129.40    3.13
   3  -1   5  129.24    3.10
  -4   1  -5    0.52    0.39
   4  -1   5    0.96    0.43
   4  -1   5    0.41    0.39
  -5   1  -5   81.56    2.38
   5  -1   5   76.45    2.65
  -6   1  -5  110.07    3.14
   6  -1   5  111.81    3.22
   6  -1   5  110.06    3.29
   7  -1   5    3.75    0.88
   7  -1   5    3.57    0.90
   8  -1   5   15.64    1.94
   9   0  -5   14.87    1.50
   9   0  -5   17.44    1.87
  -9   0   5   14.08    1.95
   8   0  -5   94.34    3.17
   8   0  -5   90.46    2.74
  -8   0   5   90.09    2.89
  -8   0   5   89.55    3.09
   7   0  -5   13.77    1.43
   7   0  -5   14.47    1.11
  -7   0   5   14.47    1.23
  -7   0   5   12.44    1.40
   6   0  -5   30.66    1.65
   6   0  -5   30.94    1.30
  -6   0   5   33.47    1.45
  -6   0   5   31.77    1.65
   5   0  -5   66.99    2.23
   5   0  -5   68.74    1.93
  -5   0   5   74.07    2.30
  -5   0   5   75.08    2.08
   4   0  -5   66.98    1.77
   4   0  -5   65.45    2.01
  -4   0   5   68.15    1.89
  -4   0   5   68.14    2.07
   3   0  -5   93.45    2.40
   3   0  -5   94.09    2.22
  -3   0   5   96.55    2.44
  -3   0   5   93.92    2.27
   2   0  -5  267.80    5.51
  -2   0   5  262.62    5.52
  -2   0   5  269.73    5.66
   1   0  -5   49.51    1.28
  -1   0   5   47.92    1.28
  -1   0   5   47.20    1.35
   0   0  -5  139.36    3.09
   0   0   5  141.11    3.10
   0   0   5  141.45    3.17
  -1   0  -5  242.11    5.14
   1   0   5  241.10    5.15
   1   0   5  239.76    5.20
  -2   0  -5  115.10    2.81
   2   0   5  117.43    2.82
   2   0   5  121.54    2.85
   2   0   5  120.00    2.82
   3   0   5   30.92    1.22
   3   0   5   31.66    1.23
  -4   0  -5  130.56    3.18
   4   0   5  124.39    3.20
   4   0   5  124.44    3.25
  -5   0  -5   24.56    1.31
   5   0   5   22.53    1.78
   5   0   5   25.65    1.45
  -6   0  -5   10.14    1.27
   6   0   5   10.51    1.24
   6   0   5    8.65    1.04
   7   0   5   53.69    2.34
   7   0   5   55.83    2.53
   9  -1  -5   19.85    1.43
   9  -1  -5   16.55    1.94
  -9   1   5   17.66    1.61
   8  -1  -5    1.18    0.57
   8  -1  -5   -0.34    0.75
  -8   1   5   -0.13    0.64
  -8   1   5    1.13    0.91
   7  -1  -5   57.93    1.85
   7  -1  -5   60.38    2.40
  -7   1   5   60.51    2.37
  -7   1   5   57.01    2.03
   6  -1  -5   59.48    1.76
   6  -1  -5   58.71    2.23
  -6   1   5   60.63    2.24
   5  -1  -5    2.75    0.43
   5  -1  -5    2.02    0.57
  -5   1   5    2.86    0.66
  -5   1   5    3.08    0.49
   4  -1  -5  185.78    4.03
   4  -1  -5  182.46    4.36
  -4   1   5  192.81    4.15
   3  -1  -5  170.86    3.93
   3  -1  -5  172.41    3.68
  -3   1   5  171.82    3.72
  -3   1   5  171.01    3.96
   2  -1  -5   22.32    0.77
  -2   1   5   22.56    0.95
  -2   1   5   22.41    0.80
   1  -1  -5  442.70    8.79
  -1   1   5  429.82    8.88
  -1   1   5  434.62    8.79
   0   1   5  361.50    7.38
   0   1   5  358.39    7.45
   1   1   5    0.99    0.29
   1   1   5    1.05    0.30
  -2  -1  -5   51.99    1.53
   2   1   5   53.39    1.56
   2   1   5   52.45    1.59
   2   1   5   50.20    1.76
  -3  -1  -5  188.75    4.27
   3   1   5  186.03    4.34
   3   1   5  182.27    4.59
   3   1   5  186.35    4.25
  -4  -1  -5    2.36    0.53
   4   1   5    3.12    0.83
   4   1   5    2.85    0.53
   4   1   5    2.10    0.56
  -5  -1  -5   46.42    1.75
   5   1   5   47.10    1.83
   5   1   5   46.41    1.95
   5   1   5   44.18    2.06
  -6  -1  -5   41.23    1.89
   6   1   5   41.06    1.86
   6   1   5   39.46    2.14
   6   1   5   40.14    2.12
   7   1   5    3.55    0.96
   7   1   5    4.65    1.13
   9  -2  -5   20.35    1.40
   9  -2  -5   23.62    2.10
  -9   2   5   21.51    1.48
   8  -2  -5   25.99    1.31
   8  -2  -5   25.88    1.92
  -8   2   5   24.67    1.47
   7  -2  -5    5.03    0.93
   7  -2  -5    4.27    0.55
  -7   2   5    4.35    0.91
  -7   2   5    4.70    0.68
   6  -2  -5   68.00    3.46
   6  -2  -5   68.26    1.85
  -6   2   5   66.85    2.43
  -6   2   5   69.26    2.03
   5  -2  -5  196.71    4.74
   5  -2  -5  195.13    4.22
  -5   2   5  200.07    4.37
  -5   2   5  189.51    4.76
   4  -2  -5    3.56    0.53
   4  -2  -5    5.73    0.51
  -4   2   5    4.62    0.70
  -4   2   5    5.32    0.66
   3  -2  -5   67.02    1.62
   3  -2  -5   65.67    1.89
  -3   2   5   64.94    1.95
  -3   2   5   66.27    1.66
   2  -2  -5  107.44    2.36
  -2   2   5  100.98    2.35
  -2   2   5  101.87    2.56
  -1   2   5  162.42    3.64
  -1   2   5  163.19    3.54
   0   2   5   88.00    2.20
   0   2   5   88.45    2.16
   1   2   5  157.89    3.57
   1   2   5  153.20    3.81
   1   2   5  155.76    3.55
   1   2   5  153.89    3.53
  -2  -2  -5   22.91    0.96
   2   2   5   21.53    1.05
   2   2   5   22.51    0.99
  -3  -2  -5    7.97    0.76
   3   2   5    8.11    0.87
   3   2   5    9.36    0.78
  -4  -2  -5  104.04    2.75
   4   2   5   99.90    2.74
   4   2   5  104.27    3.00
  -5  -2  -5    8.00    1.08
   5   2   5    9.01    1.28
   5   2   5    9.40    1.05
  -6  -2  -5    0.06    0.75
   6   2   5    0.94    0.81
   6   2   5    1.28    1.03
   6   2   5    0.45    0.65
   7   2   5   24.62    1.85
   7   2   5   21.05    2.24
   9  -3  -5   15.33    2.00
  -9   3   5   12.90    1.27
   8  -3  -5    2.51    0.92
   8  -3  -5    2.32    0.52
  -8   3   5    2.24    0.59
   7  -3  -5   48.30    1.48
   7  -3  -5   46.53    2.15
  -7   3   5   47.18    1.66
  -7   3   5   47.31    2.25
   6  -3  -5   64.65    2.96
   6  -3  -5   67.32    1.72
  -6   3   5   63.48    1.88
  -6   3   5   61.60    2.34
   5  -3  -5   16.64    1.20
   5  -3  -5   15.90    0.72
  -5   3   5   16.85    1.37
  -5   3   5   18.05    0.90
   4  -3  -5  133.22    3.38
   4  -3  -5  130.67    2.92
  -4   3   5  137.16    3.53
  -4   3   5  136.94    3.04
   3  -3  -5   82.00    1.88
   3  -3  -5   80.58    2.20
  -3   3   5   80.81    1.91
  -3   3   5   74.94    2.52
  -2   3   5    2.76    0.44
  -2   3   5    2.05    0.40
  -1   3   5  126.95    2.99
  -1   3   5  127.50    2.88
   0   3   5  109.43    2.67
   0   3   5  112.41    2.93
   0   3   5  110.32    2.64
   0   3   5  109.46    2.65
   0   3   5  112.61    2.65
   1   3   5   22.11    1.01
   1   3   5   22.13    0.94
   1   3   5   21.88    1.00
   2   3   5   74.61    2.20
   2   3   5   77.11    2.06
  -3  -3  -5  133.72    3.21
   3   3   5  130.94    3.20
   3   3   5  128.11    3.44
  -4  -3  -5   -0.12    0.50
   4   3   5    0.57    0.46
   4   3   5   -0.28    0.54
  -5  -3  -5   67.04    2.25
   5   3   5   63.99    2.59
   5   3   5   67.85    2.21
  -6  -3  -5   35.61    1.95
   6   3   5   30.19    2.14
   6   3   5   33.08    1.82
   9  -4  -5   27.12    1.30
   9  -4  -5   25.99    2.22
   8  -4  -5   44.49    1.44
   8  -4  -5   41.21    2.24
  -8   4   5   43.93    2.24
   7  -4  -5    5.84    0.93
   7  -4  -5    7.67    0.68
  -7   4   5    6.37    0.80
  -7   4   5    8.02    1.13
   6  -4  -5   26.73    0.93
   6  -4  -5   28.35    1.57
  -6   4   5   28.29    1.73
  -6   4   5   28.69    1.12
   5  -4  -5  113.20    2.58
   5  -4  -5  118.51    3.23
  -5   4   5  118.86    2.74
  -5   4   5  119.14    3.40
   4  -4  -5    8.07    0.90
   4  -4  -5    7.88    0.49
  -4   4   5    8.57    0.62
  -4   4   5    7.14    1.06
   3  -4  -5  102.12    2.66
  -3   4   5  102.01    2.34
  -3   4   5  103.12    2.79
  -2   4   5  269.41    5.93
  -2   4   5  274.34    5.65
  -1   4   5   38.35    1.20
  -1   4   5   38.40    1.20
  -1   4   5   37.62    1.32
  -1   4   5   37.87    1.38
   0   4   5   48.29    1.47
   0   4   5   49.04    1.51
   0   4   5   47.69    1.48
   0   4   5   49.54    1.48
   1   4   5   78.13    2.15
   1   4   5   80.58    2.23
   2   4   5   10.98    0.78
   2   4   5   10.55    0.97
   3   4   5   39.22    1.43
   3   4   5   40.19    1.76
   4   4   5  111.04    3.37
   4   4   5  106.48    2.88
  -5  -4  -5    8.37    1.28
   5   4   5    6.77    1.04
   5   4   5    8.21    1.15
  -6  -4  -5    6.34    1.05
   6   4   5    5.86    0.96
   9  -5  -5    8.65    1.79
   8  -5  -5    6.34    1.09
   8  -5  -5    8.16    0.71
  -8   5   5    5.36    0.79
   7  -5  -5   62.40    2.43
   7  -5  -5   60.96    1.54
  -7   5   5   58.37    2.64
  -7   5   5   63.17    1.69
   6  -5  -5   52.47    1.35
   6  -5  -5   56.05    2.12
  -6   5   5   54.21    1.51
  -6   5   5   57.21    2.34
   5  -5  -5    3.36    0.41
   5  -5  -5    2.90    0.64
  -5   5   5    4.48    0.83
   4  -5  -5  104.41    2.85
  -4   5   5  107.59    2.42
  -4   5   5  105.62    3.05
   3  -5  -5   89.19    2.41
  -3   5   5   90.80    2.59
  -3   5   5   87.39    2.08
  -2   5   5    2.72    0.36
  -2   5   5    2.64    0.36
  -2   5   5    2.06    0.59
  -1   5   5  103.34    2.53
  -1   5   5  100.73    2.45
  -1   5   5   98.25    2.58
   0   5   5  128.23    3.10
   0   5   5  127.20    3.02
   0   5   5  126.11    3.02
   0   5   5  122.71    3.03
   1   5   5    3.46    0.46
   1   5   5    3.59    0.47
   1   5   5    3.05    0.54
   2   5   5  103.53    2.58
   2   5   5   97.65    3.08
   3   5   5   44.83    2.01
   3   5   5   46.97    1.88
   4   5   5   -0.52    0.49
   4   5   5   -1.47    0.69
   5   5   5   35.86    2.25
   5   5   5   35.91    1.73
   8  -6  -5   48.09    2.38
   6  -6  -5   38.21    1.78
  -6   6   5   37.32    2.03
   5  -6  -5   41.48    1.74
  -5   6   5   46.13    2.03
  -5   6   5   45.86    1.22
   4  -6  -5    0.88    0.45
  -4   6   5    1.01    0.46
  -4   6   5    1.00    0.24
  -4   6   5    0.79    0.61
   3  -6  -5  123.70    3.10
  -3   6   5  122.80    3.29
  -3   6   5  120.58    2.75
  -3   6   5  124.14    2.78
  -2   6   5   76.53    2.26
  -2   6   5   77.45    1.95
  -2   6   5   78.73    2.53
  -2   6   5   78.31    2.02
  -1   6   5    1.72    0.54
  -1   6   5    2.28    0.44
  -1   6   5    2.88    0.46
   0   6   5  105.74    2.81
   0   6   5  104.93    2.72
   0   6   5  110.22    2.68
   1   6   5  187.68    4.23
   2   6   5   16.04    0.90
   2   6   5   15.45    0.93
   2   6   5   15.01    1.29
   3   6   5   11.95    0.98
   3   6   5   14.17    1.50
   4   6   5   25.68    2.09
   4   6   5   31.95    2.09
   8  -7  -5   13.14    1.67
   7  -7  -5   57.06    2.33
   6  -7  -5   20.28    1.39
  -6   7   5   19.79    1.75
   5  -7  -5    1.22    0.56
  -5   7   5    1.93    0.77
   4  -7  -5  150.16    3.91
  -4   7   5  157.26    4.10
  -4   7   5  157.19    3.32
  -3   7   5  123.59    2.79
  -3   7   5  126.69    3.37
  -3   7   5  124.03    2.91
  -2   7   5   19.59    1.17
  -2   7   5   18.04    0.93
  -2   7   5   19.83    0.87
  -1   7   5   73.15    2.01
  -1   7   5   74.71    2.14
  -1   7   5   73.77    2.15
  -1   7   5   74.02    2.07
   0   7   5   41.35    1.65
   0   7   5   40.34    1.46
   0   7   5   42.16    1.41
   0   7   5   39.37    1.48
   1   7   5    0.40    0.57
   1   7   5    0.11    0.38
   1   7   5    0.50    0.41
   2   7   5   78.31    2.11
   2   7   5   75.93    2.69
   2   7   5   78.31    2.15
   3   7   5   22.68    1.20
   3   7   5   24.96    1.15
   3   7   5   21.20    1.82
   7  -8  -5    1.81    0.75
   6  -8  -5   56.52    2.19
   5  -8  -5   62.83    2.18
  -5   8   5   65.45    2.48
   4  -8  -5    7.34    0.94
  -4   8   5    8.24    1.19
  -4   8   5    8.02    0.60
  -3   8   5   28.31    0.96
  -3   8   5   26.93    1.50
  -3   8   5   27.35    1.11
  -2   8   5   70.42    2.06
  -2   8   5   69.53    2.24
  -2   8   5   70.22    2.06
  -1   8   5    3.23    0.60
  -1   8   5    2.71    0.50
  -1   8   5    2.82    0.50
  -1   8   5    2.92    0.61
   0   8   5   33.05    1.33
   0   8   5   31.76    1.24
   0   8   5   29.33    1.33
   0   8   5   29.29    1.54
   1   8   5   70.55    1.97
   1   8   5   67.88    2.23
   1   8   5   66.75    2.45
   1   8   5   68.77    1.98
   2   8   5    6.49    0.87
   2   8   5    4.67    0.95
   6  -9  -5   16.23    1.43
   5  -9  -5   16.52    1.31
  -5   9   5   15.37    1.61
  -4   9   5   50.20    2.09
  -3   9   5   17.73    1.01
  -3   9   5   20.10    0.82
  -3   9   5   20.58    1.40
  -2   9   5    3.37    0.48
  -2   9   5    2.74    0.60
  -2   9   5    2.72    0.59
  -2   9   5    4.45    0.75
  -1   9   5   86.72    2.65
  -1   9   5   91.77    2.57
  -1   9   5   89.14    2.42
  -1   9   5   88.58    2.42
   0   9   5   22.66    1.30
   0   9   5   22.81    1.54
   0   9   5   27.09    1.28
   0   9   5   21.37    1.12
   1   9   5    5.37    0.96
   1   9   5    5.78    0.92
   5 -10  -5   50.69    2.05
  -4  10   5    2.42    0.90
  -3  10   5   70.59    2.41
  -2  10   5   74.83    2.46
  -2  10   5   72.98    2.77
  -2  10   5   68.81    2.21
  -1  10   5    0.24    0.49
  -1  10   5    0.79    0.71
   2  13  -6   21.16    1.74
   1  13  -6   66.74    2.59
  -1 -13   6   63.46    2.69
   0  13  -6   18.77    1.32
   0 -13   6   13.95    1.64
  -1  13  -6   34.87    1.43
   1 -13   6   34.86    1.85
  -2  13  -6  135.34    3.18
   2 -13   6  133.98    3.22
   2 -13   6  136.03    3.45
  -3  13  -6   26.21    1.32
  -3  13  -6   27.19    1.20
   3 -13   6   26.60    1.48
  -4  13  -6    4.09    0.73
   4 -13   6    5.14    0.92
  -5  13  -6   51.66    2.15
   5 -13   6   58.25    2.46
   3  12  -6   46.99    2.30
   2  12  -6   73.88    2.60
  -2 -12   6   68.93    2.90
   1  12  -6    3.10    0.70
  -1 -12   6    1.16    0.87
   0 -12   6   56.76    2.23
  -1  12  -6   75.96    2.14
   1 -12   6   75.59    1.87
   1 -12   6   74.77    2.40
  -2  12  -6    3.54    0.44
  -2  12  -6    3.78    0.49
   2 -12   6    4.44    0.64
  -3  12  -6   41.37    1.46
  -3  12  -6   40.02    1.30
   3 -12   6   43.06    1.70
   3 -12   6   38.59    1.50
  -4  12  -6   39.07    1.62
   4 -12   6   39.75    1.82
   4 -12   6   37.89    1.33
  -5  12  -6    1.54    0.76
   5 -12   6    3.32    0.88
   6 -12   6   41.29    2.28
   4  11  -6   32.46    2.21
   3  11  -6    9.42    1.46
   2  11  -6   35.01    1.78
  -2 -11   6   35.76    1.98
   1  11  -6   62.49    2.14
  -1 -11   6   61.90    2.28
   0  11  -6   33.57    1.40
   0 -11   6   34.41    1.62
  -1  11  -6   10.86    0.83
   1 -11   6   11.35    0.80
   1 -11   6    9.91    1.06
  -2  11  -6   95.19    2.38
  -2  11  -6   97.63    2.40
   2 -11   6   96.97    2.55
   2 -11   6   96.96    2.55
  -3  11  -6   24.55    0.95
  -3  11  -6   25.45    1.18
   3 -11   6   25.13    1.34
   3 -11   6   24.35    1.15
  -4  11  -6   20.87    1.26
   4 -11   6   19.33    1.03
   4 -11   6   19.07    1.41
  -5  11  -6  117.06    3.36
   5 -11   6  119.91    2.75
   5 -11   6  114.52    2.66
   5 -11   6  115.52    3.42
  -6  11  -6   24.85    1.50
   6 -11   6   25.06    1.82
   5  10  -6   23.45    2.16
   4  10  -6    0.24    0.82
   3  10  -6   49.44    2.19
  -3 -10   6   51.07    2.27
   2  10  -6   37.36    1.76
  -2 -10   6   40.61    1.87
   1  10  -6    3.57    0.65
  -1 -10   6    4.17    0.75
   0  10  -6   50.52    1.67
   0 -10   6   50.14    1.34
   0 -10   6   52.44    1.81
  -1  10  -6   95.14    2.43
  -1  10  -6   95.29    2.26
   1 -10   6   96.38    2.36
  -2  10  -6    0.48    0.32
  -2  10  -6    0.46    0.33
   2 -10   6    0.51    0.44
   2 -10   6    0.79    0.45
  -3  10  -6   52.07    1.50
  -3  10  -6   50.41    1.66
   3 -10   6   48.36    1.56
   3 -10   6   49.71    1.78
  -4  10  -6   93.11    2.66
   4 -10   6   88.34    3.58
   4 -10   6   92.13    2.29
  -5  10  -6   -0.77    0.61
   5 -10   6    1.24    0.44
   5 -10   6    0.91    0.67
   5 -10   6    1.09    0.39
   6 -10   6   49.03    1.51
   6 -10   6   46.32    2.19
   6 -10   6   48.42    1.56
   7 -10   6   36.95    2.26
   6   9  -6    0.81    1.14
   5   9  -6   23.92    2.02
   4   9  -6   30.57    1.94
  -4  -9   6   32.66    1.93
   3   9  -6   10.26    1.31
  -3  -9   6    7.12    0.95
  -2  -9   6  136.50    3.63
   1   9  -6  310.56    6.81
  -1  -9   6  305.06    6.24
  -1  -9   6  319.23    6.86
  -1  -9   6  307.87    6.23
   0   9  -6   69.80    2.02
   0  -9   6   73.34    2.14
   0  -9   6   70.34    1.74
  -1   9  -6  134.46    3.12
  -1   9  -6  129.19    3.01
   1  -9   6  135.25    3.08
   1  -9   6  134.85    3.25
  -2   9  -6  275.94    5.83
  -2   9  -6  273.81    5.93
   2  -9   6  277.98    5.93
   2  -9   6  282.06    6.00
  -3   9  -6   44.88    1.56
  -3   9  -6   46.45    1.70
   3  -9   6   45.40    1.42
   3  -9   6   44.85    1.66
  -4   9  -6    7.66    0.99
   4  -9   6    8.99    0.74
   4  -9   6    9.35    1.40
  -5   9  -6  102.96    3.06
   5  -9   6  100.84    2.49
   5  -9   6  100.37    2.46
   5  -9   6  103.10    3.07
   6  -9   6   12.47    0.96
   6  -9   6    8.87    1.11
   6  -9   6   10.11    0.96
   7  -9   6   12.98    1.27
   7  -9   6   13.10    1.71
   6   8  -6   49.05    2.63
   5   8  -6   41.39    2.22
   4   8  -6   -0.53    0.63
  -4  -8   6    0.41    0.69
  -4  -8   6   -0.21    0.28
  -4  -8   6    0.45    0.23
   3   8  -6   95.68    2.96
  -3  -8   6  101.56    2.97
  -3  -8   6  100.62    2.20
   2   8  -6  108.69    3.00
  -2  -8   6  110.49    3.01
  -2  -8   6  110.74    2.42
  -2  -8   6  109.57    2.35
   1   8  -6    1.11    0.46
  -1  -8   6    1.99    0.52
  -1  -8   6    1.49    0.27
  -1  -8   6    1.89    0.28
   0   8  -6   14.06    0.88
   0  -8   6   16.26    1.03
   0  -8   6   15.42    0.70
  -1   8  -6   68.36    1.82
  -1   8  -6   72.62    1.90
   1  -8   6   74.15    1.99
   1  -8   6   71.85    1.88
  -2   8  -6   16.82    0.78
  -2   8  -6   16.13    0.84
   2  -8   6   17.99    0.96
   2  -8   6   17.51    0.90
  -3   8  -6  125.81    3.16
  -3   8  -6  128.55    2.90
   3  -8   6  127.72    3.19
   3  -8   6  122.35    2.91
  -4   8  -6   75.74    2.33
   4  -8   6   74.73    2.34
   4  -8   6   74.94    1.93
  -5   8  -6    0.39    0.52
  -5   8  -6    0.54    0.56
   5  -8   6    0.75    0.61
   5  -8   6    1.09    0.39
   5  -8   6    1.09    0.42
  -6   8  -6   45.30    2.16
   6  -8   6   44.41    1.58
   6  -8   6   44.67    2.09
   6  -8   6   46.39    1.52
   7  -8   6   43.60    1.65
   7  -8   6   41.15    2.25
   7  -8   6   40.78    1.79
   7   7  -6   27.25    1.18
   7   7  -6   29.08    2.34
   6   7  -6    2.78    0.96
  -6  -7   6    2.39    0.61
   5   7  -6   34.82    1.96
  -5  -7   6   32.22    1.18
  -5  -7   6   31.24    1.83
   4   7  -6  144.54    4.00
  -4  -7   6  144.46    3.33
  -4  -7   6  149.78    3.92
   3   7  -6    0.67    0.55
  -3  -7   6    1.34    0.27
  -3  -7   6    1.09    0.57
   2   7  -6  110.28    2.95
  -2  -7   6  112.44    2.56
  -2  -7   6  112.23    2.47
  -2  -7   6  115.46    2.99
   1   7  -6   97.43    2.53
  -1  -7   6   98.40    2.21
  -1  -7   6   96.42    2.23
   0   7  -6   13.10    0.81
   0  -7   6   15.12    0.92
   0  -7   6   14.22    0.68
  -1   7  -6   48.84    1.43
  -1   7  -6   50.34    1.42
   1  -7   6   49.40    1.50
   1  -7   6   49.37    1.44
  -2   7  -6  182.64    4.19
  -2   7  -6  189.10    4.07
   2  -7   6  186.88    4.09
   2  -7   6  189.42    4.22
  -3   7  -6   26.42    1.17
   3  -7   6   27.33    1.02
   3  -7   6   28.37    1.24
  -4   7  -6   31.75    1.42
   4  -7   6   30.11    1.10
   4  -7   6   31.24    1.45
  -5   7  -6   76.45    2.49
   5  -7   6   76.80    2.50
   5  -7   6   77.07    2.09
   5  -7   6   75.95    2.07
  -6   7  -6    9.59    1.34
   6  -7   6   11.56    0.98
   6  -7   6   10.84    0.97
   6  -7   6    9.62    1.31
   7  -7   6    3.44    0.93
   7  -7   6    3.38    0.71
   8  -7   6   30.58    1.92
   7   6  -6   14.94    1.04
   7   6  -6   12.79    1.83
  -7  -6   6   12.02    1.35
   6   6  -6   31.11    1.98
   6   6  -6   33.19    1.25
  -6  -6   6   35.83    2.23
  -6  -6   6   28.21    1.76
   5   6  -6   35.32    1.87
  -5  -6   6   37.31    1.37
  -5  -6   6   35.62    1.76
  -4  -6   6   14.58    1.24
  -4  -6   6   15.11    0.90
   3   6  -6  146.04    3.67
  -3  -6   6  143.31    3.65
  -3  -6   6  147.92    3.29
   2   6  -6  130.18    3.25
  -2  -6   6  130.67    2.93
  -2  -6   6  133.69    3.30
  -2  -6   6  132.55    2.90
   1   6  -6    4.91    0.68
  -1  -6   6    5.14    0.46
  -1  -6   6    6.39    0.78
   0   6  -6  263.65    5.67
   0  -6   6  265.68    5.58
   0  -6   6  273.53    5.72
  -1   6  -6   50.40    1.42
  -1   6  -6   48.19    1.42
   1  -6   6   50.19    1.45
   1  -6   6   50.50    1.46
  -2   6  -6   19.65    0.89
  -2   6  -6   19.10    0.81
   2  -6   6   17.43    0.82
   2  -6   6   19.04    0.93
  -3   6  -6  101.87    2.63
   3  -6   6   99.44    2.40
   3  -6   6   98.47    2.62
  -4   6  -6  153.00    3.77
  -4   6  -6  148.82    3.76
   4  -6   6  151.64    3.76
   4  -6   6  148.27    3.46
  -5   6  -6    3.87    0.69
   5  -6   6    2.06    0.66
   5  -6   6    2.90    0.49
   5  -6   6    2.99    0.49
  -6   6  -6   87.79    2.89
   6  -6   6   87.48    2.54
   6  -6   6   90.62    2.91
   6  -6   6   91.54    2.45
   7  -6   6   35.70    1.77
   7  -6   6   33.57    2.04
   7  -6   6   37.06    1.65
   8  -6   6   -0.18    1.16
   8  -6   6    1.75    0.82
   8  -6   6    0.18    0.85
   8   5  -6   19.39    2.07
   8   5  -6   19.50    1.36
  -8  -5   6   18.23    1.63
   7   5  -6   37.59    2.16
   7   5  -6   37.42    1.56
  -7  -5   6   34.71    1.75
   6   5  -6    0.19    0.70
   6   5  -6    0.68    0.42
  -6  -5   6    0.47    0.56
  -6  -5   6    1.14    0.72
   5   5  -6   30.86    1.66
   5   5  -6   28.66    1.14
  -5  -5   6   28.91    1.59
  -5  -5   6   30.36    1.30
   4   5  -6  137.71    3.58
  -4  -5   6  139.45    3.57
  -4  -5   6  135.34    3.25
   3   5  -6    1.16    0.47
  -3  -5   6    1.09    0.38
  -3  -5   6    2.12    0.53
   2   5  -6   61.36    1.80
  -2  -5   6   61.22    1.60
  -2  -5   6   61.56    1.58
  -2  -5   6   60.77    1.91
   1   5  -6  275.05    6.01
  -1  -5   6  290.34    6.08
  -1  -5   6  288.90    5.91
   0   5  -6   42.53    1.29
   0  -5   6   43.49    1.25
   0  -5   6   43.46    1.33
  -1   5  -6  254.74    5.41
  -1   5  -6  260.39    5.50
   1  -5   6  256.81    5.43
   1  -5   6  258.84    5.47
  -2   5  -6  200.81    4.38
  -2   5  -6  202.31    4.50
   2  -5   6  202.61    4.50
   2  -5   6  205.06    4.38
  -3   5  -6   59.93    1.81
   3  -5   6   58.66    1.83
   3  -5   6   59.56    1.65
  -4   5  -6   65.98    2.06
   4  -5   6   64.86    1.85
   4  -5   6   64.40    2.08
  -5   5  -6  141.86    3.67
   5  -5   6  138.81    3.68
   5  -5   6  134.68    3.32
   5  -5   6  139.97    3.41
  -6   5  -6    4.84    0.78
   6  -5   6    6.03    0.91
   6  -5   6    6.34    0.94
   7  -5   6   20.34    1.69
   7  -5   6   18.19    1.40
   7  -5   6   19.48    1.47
   8  -5   6   49.25    2.40
   8  -5   6   51.46    2.89
   8   4  -6    7.56    0.92
   8   4  -6    6.30    1.11
  -8  -4   6    6.90    1.11
   7   4  -6    5.71    0.99
  -7  -4   6    5.06    0.94
  -7  -4   6    5.44    0.90
   6   4  -6   75.35    2.25
   6   4  -6   74.84    2.57
  -6  -4   6   74.36    2.57
  -6  -4   6   75.04    2.33
   5   4  -6   79.83    2.17
   5   4  -6   72.71    2.72
  -5  -4   6   79.60    2.49
  -5  -4   6   77.09    2.48
   4   4  -6   14.76    1.08
   4   4  -6   15.16    0.84
  -4  -4   6   15.54    1.12
  -4  -4   6   13.95    0.98
   3   4  -6  105.60    2.70
  -3  -4   6  110.76    2.60
  -3  -4   6  101.04    3.00
   2   4  -6    1.08    0.36
  -2  -4   6    1.01    0.40
  -2  -4   6    0.56    0.28
   1   4  -6   27.79    1.01
  -1  -4   6   28.92    0.96
  -1  -4   6   28.38    1.06
   0   4  -6  329.42    6.97
   0  -4   6  337.33    6.99
   0  -4   6  346.82    7.00
  -1   4  -6  110.27    2.63
  -1   4  -6  110.57    2.57
   1  -4   6  110.65    2.63
   1  -4   6  110.04    2.57
  -2   4  -6    9.99    0.68
   2  -4   6    9.23    0.65
   2  -4   6   10.59    0.74
  -3   4  -6  157.70    3.75
  -3   4  -6  164.53    3.89
   3  -4   6  156.82    3.76
   3  -4   6  155.73    3.58
  -4   4  -6   68.80    2.08
   4  -4   6   67.24    2.10
   4  -4   6   65.01    1.89
   4  -4   6   65.00    1.87
  -5   4  -6    2.58    0.61
   5  -4   6    1.08    0.54
   5  -4   6    2.20    0.49
   5  -4   6    2.36    0.52
  -6   4  -6   31.16    1.68
   6  -4   6   31.25    1.54
   6  -4   6   34.38    1.78
   6  -4   6   32.55    1.45
   7  -4   6   38.77    1.93
   7  -4   6   37.73    2.10
   7  -4   6   38.99    1.86
   8  -4   6   -1.38    0.97
   8  -4   6    0.94    0.94
   8   3  -6   18.12    1.64
   8   3  -6   17.29    1.49
  -8  -3   6   10.98    1.74
   7   3  -6   46.96    1.91
   7   3  -6   44.46    2.00
  -7  -3   6   46.35    2.02
  -7  -3   6   47.71    2.14
   6   3  -6    0.75    0.50
   6   3  -6    1.01    0.61
  -6  -3   6    1.35    0.66
  -6  -3   6    1.52    0.62
   5   3  -6  133.77    3.50
   5   3  -6  140.56    3.45
  -5  -3   6  140.07    3.54
  -5  -3   6  140.30    3.60
   4   3  -6  156.62    3.68
   4   3  -6  159.63    3.77
  -4  -3   6  162.07    3.85
  -4  -3   6  156.77    3.76
   3   3  -6    8.54    0.77
  -3  -3   6   10.48    0.76
  -3  -3   6   12.23    0.92
   2   3  -6  154.78    3.51
  -2  -3   6  162.51    3.58
  -2  -3   6  150.63    3.47
   1   3  -6  478.26    9.76
  -1  -3   6  485.63    9.78
  -1  -3   6  480.35    9.77
   0   3  -6    3.36    0.46
   0  -3   6    2.90    0.37
   0  -3   6    3.07    0.47
  -1   3  -6  141.41    3.22
  -1   3  -6  137.96    3.14
   1  -3   6  137.95    3.14
   1  -3   6  141.05    3.22
   2  -3   6  155.48    3.49
   2  -3   6  154.54    3.59
  -3   3  -6   34.63    1.28
   3  -3   6   33.70    1.30
   3  -3   6   33.25    1.48
  -4   3  -6   50.77    1.75
   4  -3   6   50.66    1.61
   4  -3   6   50.30    1.78
   4  -3   6   51.04    1.65
  -5   3  -6   31.25    1.47
   5  -3   6   29.44    1.64
   5  -3   6   31.83    1.36
   5  -3   6   35.65    1.58
  -6   3  -6    1.36    0.65
   6  -3   6    0.31    0.64
   6  -3   6    0.86    0.54
   6  -3   6    1.20    0.57
   7  -3   6   41.87    2.10
   7  -3   6   42.34    2.20
   9   2  -6   24.88    1.91
   9   2  -6   26.44    1.97
   8   2  -6    4.30    0.86
   8   2  -6    3.86    0.88
  -8  -2   6    4.15    1.06
  -8  -2   6    3.47    1.00
   7   2  -6   35.14    1.79
   7   2  -6   31.87    1.64
  -7  -2   6   38.03    1.80
  -7  -2   6   35.68    1.85
   6   2  -6  118.29    3.30
   6   2  -6  117.67    3.22
  -6  -2   6  121.89    3.33
  -6  -2   6  122.50    3.33
   5   2  -6   22.82    1.22
   5   2  -6   22.50    1.18
  -5  -2   6   23.29    1.34
  -5  -2   6   24.83    1.30
   4   2  -6   15.96    0.94
   4   2  -6   13.62    0.92
  -4  -2   6   16.08    1.03
   3   2  -6  179.65    4.08
   3   2  -6  188.52    4.14
  -3  -2   6  184.66    4.16
  -3  -2   6  185.11    4.16
   2   2  -6  151.97    3.41
  -2  -2   6  155.67    3.45
  -2  -2   6  150.87    3.44
   1   2  -6   27.63    0.95
  -1  -2   6   27.89    0.99
  -1  -2   6   26.70    0.99
   0   2  -6  184.90    4.08
   0  -2   6  192.88    4.17
   0  -2   6  189.10    4.09
  -1   2  -6   32.86    1.08
   1  -2   6   32.20    1.09
   1  -2   6   34.67    1.16
   2  -2   6    0.08    0.28
   2  -2   6    0.61    0.31
  -3   2  -6  240.51    5.31
   3  -2   6  239.89    5.33
   3  -2   6  234.94    5.21
   3  -2   6  239.95    5.25
  -4   2  -6   84.06    2.41
   4  -2   6   85.11    2.38
   4  -2   6   83.75    2.45
   4  -2   6   85.39    2.33
  -5   2  -6    2.31    0.57
   5  -2   6    2.45    0.58
   5  -2   6    3.34    0.60
   5  -2   6    2.30    0.64
  -6   2  -6   59.76    2.26
   6  -2   6   63.41    2.31
   6  -2   6   64.75    2.38
   6  -2   6   62.91    2.21
   7  -2   6   54.19    2.41
   7  -2   6   54.13    2.42
   9   1  -6    0.15    0.73
   9   1  -6    0.81    0.88
   8   1  -6   21.80    1.88
   8   1  -6   18.66    1.40
  -8  -1   6   15.80    1.83
  -8  -1   6   18.40    1.60
   7   1  -6   43.24    2.04
   7   1  -6   44.69    1.90
  -7  -1   6   48.41    1.97
  -7  -1   6   48.73    2.11
   6   1  -6    0.68    0.47
   6   1  -6    0.43    0.56
  -6  -1   6    0.47    0.52
  -6  -1   6    2.04    0.67
   5   1  -6   63.59    1.90
   5   1  -6   61.86    2.08
  -5  -1   6   66.05    2.21
  -5  -1   6   67.80    2.05
   4   1  -6  100.60    2.50
   4   1  -6   99.44    2.66
  -4  -1   6  102.52    2.64
   3   1  -6    9.06    0.74
   3   1  -6    9.20    0.67
  -3  -1   6    9.90    0.74
  -3  -1   6    9.65    0.79
   2   1  -6  240.78    5.10
  -2  -1   6  241.57    5.13
  -2  -1   6  241.62    5.20
   1   1  -6  176.62    3.87
  -1  -1   6  177.71    3.88
  -1  -1   6  181.94    3.95
   0   1  -6    9.55    0.60
   0  -1   6   10.51    0.63
   0  -1   6   10.15    0.65
  -1   1  -6  103.33    2.55
   1  -1   6  108.07    2.59
   1  -1   6  103.22    2.50
   2  -1   6  147.17    3.47
  -3   1  -6    0.13    0.35
   3  -1   6    0.61    0.38
   3  -1   6    0.54    0.32
   3  -1   6    0.27    0.36
  -4   1  -6  142.56    3.51
   4  -1   6  141.74    3.54
   4  -1   6  138.00    3.58
   4  -1   6  135.96    3.46
  -5   1  -6   59.93    2.05
   5  -1   6   60.13    2.05
   5  -1   6   57.80    2.09
   5  -1   6   59.71    2.11
  -6   1  -6   15.46    1.43
   6  -1   6   16.86    1.46
   6  -1   6   17.94    1.46
   7  -1   6   16.37    1.80
   7  -1   6   15.07    1.71
   9   0  -6   29.13    1.72
   9   0  -6   32.97    2.25
   8   0  -6   10.26    1.16
   8   0  -6   12.64    1.58
  -8   0   6    8.92    1.35
  -8   0   6    9.10    1.00
   7   0  -6   28.33    1.75
   7   0  -6   25.56    1.33
  -7   0   6   28.09    1.55
  -7   0   6   28.78    1.80
   6   0  -6   90.11    2.47
  -6   0   6   90.57    2.89
  -6   0   6   97.15    2.67
   5   0  -6   31.25    1.19
   5   0  -6   29.77    1.45
  -5   0   6   32.11    1.56
   4   0  -6    1.46    0.36
   4   0  -6    0.89    0.42
  -4   0   6    1.55    0.54
  -4   0   6    0.96    0.41
   3   0  -6  136.38    3.05
   3   0  -6  133.24    3.23
  -3   0   6  136.29    3.11
  -3   0   6  132.45    3.26
   2   0  -6   30.92    1.01
  -2   0   6   30.35    1.13
  -2   0   6   30.78    1.04
   1   0  -6   21.59    0.83
  -1   0   6   21.35    0.84
  -1   0   6   21.76    0.91
   0   0   6  243.33    5.17
   0   0   6  242.75    5.26
   1   0   6   72.89    1.98
   1   0   6   74.16    1.95
  -2   0  -6   34.15    1.72
   2   0   6   30.47    1.17
   2   0   6   30.74    1.20
   2   0   6   29.88    1.16
  -3   0  -6  114.85    3.00
   3   0   6  107.79    2.86
   3   0   6  109.74    2.85
   3   0   6  110.42    2.86
  -4   0  -6   39.99    1.56
   4   0   6   40.45    1.58
   4   0   6   39.64    1.60
   4   0   6   40.38    1.61
  -5   0  -6   23.92    1.36
   5   0   6   21.98    1.41
   5   0   6   21.42    1.34
  -6   0  -6   47.31    2.06
   6   0   6   48.05    2.11
   6   0   6   47.28    2.20
   7   0   6   11.01    1.66
   7   0   6   10.41    1.33
   9  -1  -6    0.66    0.63
   9  -1  -6    1.82    0.99
  -9   1   6   -1.83    0.83
   8  -1  -6   44.25    2.30
   8  -1  -6   44.00    1.72
  -8   1   6   47.05    1.97
   7  -1  -6   28.15    1.29
   7  -1  -6   29.43    1.79
  -7   1   6   30.39    1.91
  -7   1   6   29.08    1.48
   6  -1  -6    5.26    0.81
   6  -1  -6    5.42    0.73
  -6   1   6    4.71    0.65
  -6   1   6    4.13    0.86
   5  -1  -6   81.93    2.57
   5  -1  -6   86.69    2.19
  -5   1   6   89.86    2.36
  -5   1   6   83.56    2.64
   4  -1  -6  108.36    2.51
   4  -1  -6  100.89    2.80
  -4   1   6  107.91    2.61
  -4   1   6  104.23    2.89
   3  -1  -6   23.97    1.09
   3  -1  -6   24.87    0.90
  -3   1   6   23.48    0.94
   2  -1  -6  467.64    9.42
   2  -1  -6  474.72    9.54
  -2   1   6  468.95    9.44
  -2   1   6  451.40    9.60
   1  -1  -6  193.35    4.21
  -1   1   6  194.90    4.22
  -1   1   6  196.82    4.32
   0   1   6    5.28    0.58
   0   1   6    5.70    0.58
   1   1   6  202.26    4.83
   1   1   6  213.20    4.64
  -2  -1  -6  127.92    3.10
   2   1   6  123.87    3.12
   2   1   6  127.85    3.12
   2   1   6  127.76    3.12
  -3  -1  -6    2.76    0.51
   3   1   6    2.29    0.50
   3   1   6    1.95    0.47
   3   1   6    2.01    0.49
  -4  -1  -6   59.13    1.97
   4   1   6   58.80    2.07
   4   1   6   53.48    2.13
  -5  -1  -6   69.46    2.33
   5   1   6   73.22    2.56
   5   1   6   69.95    2.32
  -6  -1  -6   -0.45    0.85
   6   1   6   -0.59    0.64
   6   1   6   -0.67    0.75
   9  -2  -6   27.16    1.50
   9  -2  -6   31.27    2.30
  -9   2   6   28.85    1.74
   8  -2  -6    1.12    0.84
   8  -2  -6    0.47    0.50
  -8   2   6    0.52    0.65
   7  -2  -6   31.42    1.83
   7  -2  -6   29.25    1.24
  -7   2   6   32.25    1.47
  -7   2   6   33.07    1.97
   6  -2  -6  115.50    2.77
   6  -2  -6  113.16    3.72
  -6   2   6  114.62    2.97
  -6   2   6  113.27    3.40
   5  -2  -6   42.17    1.77
   5  -2  -6   45.30    1.37
  -5   2   6   48.39    1.56
  -5   2   6   45.99    1.91
   4  -2  -6   65.43    2.08
   4  -2  -6   67.54    1.73
  -4   2   6   68.33    1.83
   3  -2  -6  212.39    4.85
   3  -2  -6  214.98    4.56
  -3   2   6  215.53    4.91
  -3   2   6  215.62    4.60
   2  -2  -6   39.59    1.17
  -2   2   6   37.01    1.18
  -2   2   6   39.29    1.40
  -1   2   6   27.08    0.99
  -1   2   6   26.04    1.07
   0   2   6  112.99    2.74
   0   2   6  112.65    2.72
   0   2   6  113.41    2.78
   1   2   6   57.89    1.73
   1   2   6   56.13    1.70
   1   2   6   57.29    1.71
   2   2   6   65.91    2.24
   2   2   6   61.57    1.95
   2   2   6   63.73    1.89
   2   2   6   64.79    1.99
  -3  -2  -6   96.91    2.55
   3   2   6   89.04    2.92
   3   2   6   90.11    2.50
   3   2   6   90.02    2.86
  -4  -2  -6   44.60    1.75
   4   2   6   45.65    2.15
   4   2   6   44.78    1.89
  -5  -2  -6    1.31    0.71
   5   2   6    1.09    0.97
   5   2   6   -0.18    0.54
   5   2   6    0.20    0.69
   6   2   6   21.04    1.64
   6   2   6   21.02    1.99
   9  -3  -6    1.36    0.63
   9  -3  -6    2.74    1.04
   8  -3  -6   30.75    2.04
   8  -3  -6   33.27    1.34
  -8   3   6   31.91    1.57
   7  -3  -6   14.84    1.47
   7  -3  -6   17.62    0.93
  -7   3   6   15.13    1.67
  -7   3   6   12.60    1.26
   6  -3  -6    7.47    0.67
   6  -3  -6    5.97    0.89
  -6   3   6    6.80    0.98
  -6   3   6    7.30    0.82
   5  -3  -6  135.06    3.10
  -5   3   6  134.69    3.73
  -5   3   6  139.57    3.24
   4  -3  -6   40.01    1.20
   4  -3  -6   40.54    1.58
  -4   3   6   42.60    1.75
  -4   3   6   41.74    1.31
   3  -3  -6    2.50    0.34
   3  -3  -6    1.71    0.44
  -3   3   6    2.16    0.54
  -3   3   6    2.66    0.39
  -2   3   6   79.17    2.26
  -2   3   6   83.79    2.05
  -1   3   6  142.80    3.27
   0   3   6    4.67    0.64
   0   3   6    5.21    0.65
   0   3   6    5.55    0.62
   1   3   6  116.29    2.89
   1   3   6  117.37    2.94
   1   3   6  113.30    3.24
   1   3   6  118.74    2.97
   2   3   6   82.57    2.23
   2   3   6   74.58    3.12
   2   3   6   77.88    2.32
   3   3   6    0.62    0.43
   3   3   6    0.50    0.50
  -4  -3  -6   48.11    1.86
   4   3   6   46.54    1.76
   4   3   6   48.86    2.11
  -5  -3  -6   52.58    2.17
   5   3   6   51.69    2.63
   5   3   6   50.16    1.96
   5   3   6   49.16    2.36
   6   3   6   -1.09    0.77
   6   3   6    0.68    2.22
   9  -4  -6   44.56    3.28
   9  -4  -6   43.88    1.63
   8  -4  -6    2.63    0.87
   8  -4  -6    3.67    0.54
  -8   4   6    2.11    0.63
   7  -4  -6   26.46    1.04
   7  -4  -6   31.03    1.79
  -7   4   6   24.11    1.22
  -7   4   6   25.70    2.62
   6  -4  -6   59.84    2.25
   6  -4  -6   59.96    1.59
  -6   4   6   60.86    2.47
  -6   4   6   60.93    1.76
   5  -4  -6   15.24    0.71
   5  -4  -6   14.54    1.20
  -5   4   6   13.86    0.86
  -5   4   6   14.85    1.41
   4  -4  -6   66.23    1.67
   4  -4  -6   64.19    2.09
  -4   4   6   67.43    1.76
  -4   4   6   65.80    2.36
  -3   4   6   98.97    2.37
  -3   4   6   99.48    2.78
  -2   4   6   55.25    1.55
  -2   4   6   57.16    1.83
  -1   4   6   21.53    1.07
  -1   4   6   23.60    0.97
  -1   4   6   23.31    1.06
  -1   4   6   21.63    1.12
   0   4   6   93.73    2.36
   0   4   6   82.88    2.60
   0   4   6   86.06    2.31
   0   4   6   88.15    2.35
   0   4   6   84.57    2.29
   1   4   6    6.64    0.72
   1   4   6    6.66    0.72
   1   4   6    7.36    0.84
   1   4   6    7.71    0.84
   2   4   6   27.09    1.21
   2   4   6   28.68    1.42
   2   4   6   26.45    1.35
   3   4   6  106.42    2.84
   3   4   6  106.80    3.19
   4   4   6   13.64    1.14
   4   4   6   11.48    1.51
   5   4   6   16.59    1.91
   5   4   6   12.90    1.33
   8  -5  -6   42.56    2.26
   8  -5  -6   39.99    1.29
   7  -5  -6   21.15    1.63
   7  -5  -6   19.67    0.83
  -7   5   6   19.39    1.01
   6  -5  -6    2.68    0.67
   6  -5  -6    2.17    0.34
  -6   5   6    1.92    0.82
  -6   5   6    1.29    0.41
   5  -5  -6  136.07    3.61
  -5   5   6  136.40    3.12
  -5   5   6  134.91    3.82
  -4   5   6  130.99    3.23
  -4   5   6  129.49    3.59
  -3   5   6   18.07    1.24
  -3   5   6   18.14    0.82
  -2   5   6  153.28    3.85
  -2   5   6  163.41    3.62
  -2   5   6  158.60    3.57
  -1   5   6  121.83    3.05
  -1   5   6  122.83    2.95
  -1   5   6  117.55    3.04
  -1   5   6  125.86    3.01
   0   5   6    8.06    0.77
   0   5   6    6.50    0.72
   0   5   6    6.29    0.77
   0   5   6    9.00    0.81
   0   5   6    7.39    1.03
   1   5   6  103.56    2.68
   1   5   6  104.79    2.84
   1   5   6  106.56    2.93
   1   5   6  106.11    2.72
   2   5   6   76.14    2.50
   2   5   6   76.63    2.19
   2   5   6   75.91    2.15
   2   5   6   75.70    2.40
   3   5   6    3.83    0.61
   3   5   6    1.67    0.76
   4   5   6   49.27    1.88
   4   5   6   52.14    2.53
   8  -6  -6    5.25    1.04
   7  -6  -6   24.84    1.67
   6  -6  -6   36.55    1.81
  -6   6   6   36.25    2.03
   5  -6  -6    6.80    0.99
  -5   6   6    5.14    0.64
  -5   6   6    6.56    0.95
   4  -6  -6   17.78    1.15
  -4   6   6   17.95    1.42
  -4   6   6   17.81    0.76
  -4   6   6   17.93    0.80
  -3   6   6   26.32    0.98
  -3   6   6   25.72    1.46
  -3   6   6   25.49    0.98
  -2   6   6    0.22    0.34
  -2   6   6   -0.47    0.47
  -1   6   6  100.11    2.72
  -1   6   6  101.30    2.58
  -1   6   6  101.68    2.66
  -1   6   6  102.69    2.99
  -1   6   6  100.54    2.68
   0   6   6  125.17    3.07
   0   6   6  118.60    3.09
   0   6   6  121.77    3.07
   0   6   6  121.83    3.25
   1   6   6    5.04    0.78
   1   6   6    8.67    0.94
   1   6   6    7.26    0.81
   1   6   6    6.82    1.04
   2   6   6   13.54    1.02
   2   6   6   13.60    0.97
   2   6   6   12.67    1.37
   2   6   6   14.25    1.27
   3   6   6   59.29    2.88
   3   6   6   61.38    2.62
   3   6   6   60.69    1.92
   4   6   6   12.72    1.26
   4   6   6   11.75    1.44
   7  -7  -6    9.47    1.42
   6  -7  -6   35.29    1.77
   5  -7  -6  104.13    3.03
  -5   7   6  105.58    2.33
  -5   7   6  102.42    3.29
  -4   7   6   33.93    1.75
  -4   7   6   34.46    1.10
  -4   7   6   33.71    1.09
  -3   7   6   15.29    0.79
  -3   7   6   14.48    0.84
  -3   7   6   14.10    1.32
  -2   7   6  100.55    2.57
  -2   7   6   95.21    2.45
  -2   7   6   97.34    2.81
  -1   7   6   59.38    1.95
  -1   7   6   61.28    1.92
  -1   7   6   58.67    2.00
  -1   7   6   63.12    2.32
  -1   7   6   61.08    1.85
   0   7   6    6.85    0.88
   0   7   6    7.40    0.92
   0   7   6    6.39    0.82
   0   7   6    7.32    1.03
   1   7   6   41.04    1.56
   1   7   6   40.81    1.52
   1   7   6   40.65    1.89
   1   7   6   39.97    1.69
   2   7   6   25.07    1.85
   2   7   6   29.15    1.50
   2   7   6   29.74    1.31
   3   7   6   -2.03    0.90
   7  -8  -6   22.64    1.73
   6  -8  -6   57.12    2.23
   5  -8  -6   12.18    1.17
  -5   8   6   10.17    1.49
  -4   8   6   36.51    1.10
  -4   8   6   31.24    1.25
  -4   8   6   38.43    1.90
  -3   8   6   58.70    1.81
  -3   8   6   65.48    2.30
  -3   8   6   61.96    1.69
  -2   8   6    8.45    1.11
  -2   8   6    6.05    0.86
  -2   8   6    7.01    0.80
  -2   8   6    7.15    0.98
  -1   8   6   24.56    1.21
  -1   8   6   24.07    1.24
  -1   8   6   24.84    1.59
  -1   8   6   24.70    1.42
   0   8   6   75.33    2.28
   0   8   6   71.31    2.26
   0   8   6   76.05    2.21
   0   8   6   75.47    2.55
   1   8   6    8.54    1.26
   1   8   6    6.91    0.96
   6  -9  -6    6.25    0.95
  -4   9   6   25.51    1.80
  -3   9   6    7.50    0.97
  -3   9   6   12.10    1.44
  -2   9   6   80.86    2.43
  -2   9   6   75.73    2.39
  -2   9   6   77.44    2.53
  -2   9   6   79.70    2.18
  -1   9   6   44.03    1.83
  -1   9   6   40.53    1.59
  -1   9   6   35.83    2.36
  -1   9   6   40.58    1.87
  -1   9   6   42.95    2.17
   0   9   6    5.59    1.01
   0   9   6    7.95    1.16
   0   9   6    6.00    0.94
  -1  14  -7    7.51    1.04
   2  13  -7   38.67    2.03
   1  13  -7   15.47    1.37
  -1 -13   7   11.34    1.27
   0 -13   7    6.09    1.09
  -1  13  -7   79.40    3.25
   1 -13   7   85.85    2.80
   1 -13   7   89.46    2.09
  -2  13  -7   23.14    1.12
   2 -13   7   20.81    1.61
   2 -13   7   23.42    2.18
  -3  13  -7    7.15    0.93
  -3  13  -7    6.55    0.73
   3 -13   7    6.43    0.90
  -4  13  -7   53.30    1.98
   4 -13   7   54.58    2.24
   3  12  -7   32.24    2.04
   2  12  -7    2.01    0.78
   1  12  -7   44.20    1.82
  -1 -12   7   40.99    2.19
   0  12  -7   84.29    2.49
   0 -12   7   84.07    2.74
  -1  12  -7    0.22    0.46
   1 -12   7    0.46    0.46
   1 -12   7   -1.04    0.69
  -2  12  -7   45.76    1.52
   2 -12   7   47.93    1.84
   2 -12   7   46.86    1.70
  -3  12  -7   43.41    1.39
  -3  12  -7   43.84    1.62
   3 -12   7   42.70    1.81
   4 -12   7    4.06    0.68
   4 -12   7    4.27    0.86
  -5  12  -7  101.29    4.09
   5 -12   7   77.25    2.92
   4  11  -7   13.42    1.79
   3  11  -7   17.65    1.64
   2  11  -7   84.26    2.75
  -2 -11   7   82.41    2.90
   1  11  -7   56.85    2.04
  -1 -11   7   56.87    2.21
   0  11  -7   21.82    1.18
   0 -11   7   20.88    0.88
   0 -11   7   20.63    1.43
  -1  11  -7   92.61    2.49
   1 -11   7   93.85    2.67
   1 -11   7   96.98    2.42
  -2  11  -7    1.50    0.42
  -2  11  -7    2.12    0.43
   2 -11   7    1.38    0.56
   2 -11   7    1.50    0.59
  -3  11  -7   12.04    0.97
  -3  11  -7   11.14    0.77
   3 -11   7   10.42    1.17
  -4  11  -7   99.71    2.85
   4 -11   7  102.33    2.99
   4 -11   7   94.59    2.56
  -5  11  -7   34.25    1.84
   5 -11   7   41.29    2.02
   5 -11   7   41.72    1.62
   5 -11   7   37.85    1.45
   6 -11   7   14.26    1.72
   5  10  -7    1.35    0.96
   4  10  -7   36.05    2.08
   3  10  -7   24.66    1.66
  -3 -10   7   25.07    1.81
   2  10  -7    0.45    0.58
  -2 -10   7    0.09    0.68
  -1 -10   7   55.22    2.06
  -1 -10   7   55.95    1.37
  -1 -10   7   54.82    1.38
   0  10  -7  115.43    2.99
   0 -10   7  116.57    3.13
   0 -10   7  119.49    2.71
  -1  10  -7    1.50    0.42
  -1  10  -7    2.08    0.36
   1 -10   7    2.13    0.47
   1 -10   7    1.62    0.58
  -2  10  -7  107.18    2.69
  -2  10  -7  105.57    2.63
   2 -10   7  110.47    2.79
   2 -10   7  106.05    2.81
  -3  10  -7  104.65    2.54
  -3  10  -7  107.13    2.78
   3 -10   7   94.94    3.31
   3 -10   7  106.20    2.87
  -4  10  -7    1.08    0.56
   4 -10   7    1.52    0.66
   4 -10   7    1.94    0.59
  -5  10  -7   50.36    2.15
   5 -10   7   53.60    2.19
   5 -10   7   52.92    1.63
   6 -10   7   51.35    2.36
   6 -10   7   50.68    1.72
   6 -10   7   52.96    1.71
   6   9  -7   13.84    2.06
   5   9  -7   42.30    2.34
   4   9  -7    0.39    0.72
  -4  -9   7   -0.78    0.77
   3   9  -7   85.59    2.79
  -3  -9   7   87.45    2.85
   2   9  -7  118.14    3.28
  -2  -9   7  122.65    3.33
  -2  -9   7  119.92    2.60
  -2  -9   7  119.54    2.65
   1   9  -7    3.31    0.58
  -1  -9   7    3.31    0.48
  -1  -9   7    3.14    0.36
  -1  -9   7    3.75    0.68
   0   9  -7   95.87    2.55
   0  -9   7   98.19    2.70
   0  -9   7   99.27    2.35
  -1   9  -7  164.09    3.78
  -1   9  -7  161.40    3.71
   1  -9   7  167.63    3.91
   1  -9   7  168.12    3.76
  -2   9  -7   72.02    1.93
  -2   9  -7   71.58    2.02
   2  -9   7   73.17    2.08
  -3   9  -7   42.41    1.33
  -3   9  -7   40.94    1.54
   3  -9   7   39.22    1.59
   3  -9   7   40.62    1.61
  -4   9  -7   80.73    2.49
   4  -9   7   82.97    2.55
  -5   9  -7   11.09    1.35
   5  -9   7   11.63    1.32
   5  -9   7   14.32    0.91
   5  -9   7   15.14    0.97
   6  -9   7    5.21    0.97
   6  -9   7    5.06    0.70
   6  -9   7    5.25    0.69
   7  -9   7   36.09    2.31
   6   8  -7   14.96    1.88
  -6  -8   7   16.28    1.70
   5   8  -7    2.48    0.88
   4   8  -7   75.74    2.70
  -4  -8   7   74.92    2.67
  -4  -8   7   76.71    1.96
  -4  -8   7   80.57    1.90
   3   8  -7  161.74    4.21
  -3  -8   7  159.46    3.79
  -3  -8   7  170.39    4.25
  -3  -8   7  167.05    3.53
   2   8  -7    7.78    1.04
  -2  -8   7    8.21    0.54
  -2  -8   7    8.04    1.07
  -2  -8   7    8.33    0.61
   1   8  -7  161.98    3.92
  -1  -8   7  169.66    4.05
  -1  -8   7  165.10    3.59
  -1  -8   7  164.88    3.59
   0   8  -7   38.10    1.37
   0  -8   7   38.70    1.49
   0  -8   7   39.01    1.22
  -1   8  -7    7.21    0.70
  -1   8  -7    7.30    0.61
   1  -8   7    6.57    0.69
  -2   8  -7   91.05    2.43
  -2   8  -7   96.87    2.35
   2  -8   7   88.11    2.59
   2  -8   7   93.88    2.47
  -3   8  -7  163.47    3.93
  -3   8  -7  162.07    3.66
   3  -8   7  159.31    3.91
  -4   8  -7    4.69    0.69
   4  -8   7    4.45    0.55
   4  -8   7    4.23    0.70
  -5   8  -7   59.24    2.25
  -5   8  -7   59.38    2.16
   5  -8   7   59.58    1.81
   5  -8   7   58.20    1.80
   5  -8   7   57.98    2.21
   6  -8   7   44.47    1.67
   6  -8   7   42.15    2.08
   6  -8   7   43.13    1.65
   7  -8   7    1.18    0.62
   7  -8   7    0.24    0.89
   7  -8   7    1.09    0.74
   7   7  -7    1.43    1.01
   6   7  -7   46.84    2.32
  -6  -7   7   36.98    2.40
   5   7  -7   55.19    2.32
  -5  -7   7   51.78    2.28
  -5  -7   7   55.99    1.74
   4   7  -7    8.36    1.18
  -4  -7   7    8.67    0.82
  -4  -7   7    6.83    0.87
  -3  -7   7   51.40    1.95
  -3  -7   7   52.32    1.44
  -3  -7   7   53.30    1.56
   2   7  -7  120.72    3.16
  -2  -7   7  124.01    2.83
  -2  -7   7  125.69    3.25
  -2  -7   7  123.67    2.80
   1   7  -7   28.81    1.22
  -1  -7   7   28.71    0.99
  -1  -7   7   29.79    1.00
  -1  -7   7   31.33    1.37
   0   7  -7   56.76    1.67
   0  -7   7   54.59    1.95
   0  -7   7   58.07    1.58
  -1   7  -7   97.63    2.50
  -1   7  -7  103.96    2.51
   1  -7   7  104.05    2.53
   1  -7   7  100.50    2.58
  -2   7  -7   42.81    1.44
  -2   7  -7   41.31    1.33
   2  -7   7   41.81    1.40
   2  -7   7   42.86    1.46
  -3   7  -7   40.40    1.51
   3  -7   7   39.28    1.52
  -4   7  -7   97.70    2.78
   4  -7   7   89.62    2.73
   4  -7   7   98.50    2.77
  -5   7  -7   16.46    1.34
   5  -7   7   17.30    1.37
   5  -7   7   15.74    0.99
   5  -7   7   16.33    1.05
   6  -7   7    1.09    1.00
   6  -7   7    2.30    0.64
   6  -7   7    0.92    0.70
   7  -7   7   53.91    2.15
   7  -7   7   53.91    2.02
   7  -7   7   56.06    2.56
   7   6  -7   27.79    1.42
   7   6  -7   27.30    2.02
  -7  -6   7   23.73    1.67
   6   6  -7   18.79    1.63
  -6  -6   7   18.96    1.32
   5   6  -7   11.90    1.33
  -5  -6   7   11.86    1.40
  -5  -6   7   12.89    1.08
   4   6  -7  114.49    3.19
  -4  -6   7  112.03    2.82
  -4  -6   7  112.94    3.19
   3   6  -7   32.38    1.48
  -3  -6   7   32.87    1.21
  -3  -6   7   35.38    1.54
   2   6  -7   21.51    1.12
  -2  -6   7   22.89    1.26
  -2  -6   7   22.61    0.90
  -2  -6   7   21.26    0.87
   1   6  -7   82.05    2.23
  -1  -6   7   85.64    2.09
  -1  -6   7   84.92    2.31
   0   6  -7  140.33    3.24
   0  -6   7  135.38    3.31
   0  -6   7  141.44    3.19
  -1   6  -7    9.52    0.67
  -1   6  -7    8.24    0.66
   1  -6   7    8.41    0.74
   1  -6   7    9.59    0.72
  -2   6  -7  150.18    3.58
  -2   6  -7  150.87    3.44
   2  -6   7  151.24    3.57
   2  -6   7  149.80    3.49
  -3   6  -7   90.86    2.51
   3  -6   7   90.09    2.51
   3  -6   7   91.28    2.33
  -4   6  -7    9.10    0.95
  -4   6  -7    7.24    0.93
   4  -6   7    8.02    0.79
   4  -6   7    6.89    0.98
  -5   6  -7   75.95    2.51
   5  -6   7   73.75    2.19
   5  -6   7   74.52    2.48
   5  -6   7   76.41    2.19
   6  -6   7   60.57    2.41
   6  -6   7   61.04    2.08
   6  -6   7   64.28    2.07
   7  -6   7    1.41    0.77
   7  -6   7   -0.72    0.65
   7  -6   7    0.68    0.87
   8   5  -7   22.61    2.05
   8   5  -7   25.03    1.46
  -8  -5   7   21.94    1.89
   7   5  -7    0.14    0.72
   7   5  -7   -0.40    0.59
  -7  -5   7    0.56    0.81
   6   5  -7   38.51    1.45
   6   5  -7   34.47    1.83
  -6  -5   7   32.42    1.85
  -6  -5   7   35.38    1.67
   5   5  -7   87.89    2.71
   5   5  -7   85.93    2.32
  -5  -5   7   82.68    2.49
  -5  -5   7   89.72    2.77
   4   5  -7   19.90    1.25
  -4  -5   7   20.89    1.13
  -4  -5   7   21.13    1.33
   3   5  -7   75.74    2.24
  -3  -5   7   80.51    2.36
  -3  -5   7   76.18    2.06
   2   5  -7  192.66    4.45
  -2  -5   7  201.46    4.54
  -2  -5   7  197.32    4.32
  -2  -5   7  200.35    4.33
   1   5  -7   13.82    0.84
  -1  -5   7   15.13    0.75
  -1  -5   7   13.30    1.08
   0   5  -7  168.78    3.81
   0  -5   7  169.55    3.80
   0  -5   7  170.63    3.83
  -1   5  -7  233.87    5.10
  -1   5  -7  234.47    5.17
   1  -5   7  237.99    5.17
   1  -5   7  242.23    5.13
  -2   5  -7   19.76    0.89
  -2   5  -7   20.07    0.97
   2  -5   7   20.55    1.01
   2  -5   7   16.89    1.14
  -3   5  -7   38.93    1.47
   3  -5   7   38.42    1.49
   3  -5   7   38.92    1.34
  -4   5  -7  164.19    4.09
   4  -5   7  164.40    3.84
   4  -5   7  165.92    4.11
  -5   5  -7    1.04    0.60
   5  -5   7    1.14    0.50
   5  -5   7    1.32    0.59
   6  -5   7   52.79    1.93
   6  -5   7   52.33    1.97
   6  -5   7   54.67    2.26
   7  -5   7   40.53    2.03
   7  -5   7   44.90    2.33
   7  -5   7   44.68    1.96
   8   4  -7   11.64    1.61
   8   4  -7    9.56    1.29
  -8  -4   7    7.81    1.21
   7   4  -7   36.65    1.63
   7   4  -7   36.50    1.89
  -7  -4   7   33.33    1.87
   6   4  -7   40.78    1.85
   6   4  -7   42.93    1.64
  -6  -4   7   43.42    1.84
  -6  -4   7   41.96    1.95
   5   4  -7    0.35    0.40
   5   4  -7   -0.29    0.47
  -5  -4   7    0.02    0.53
  -5  -4   7   -0.34    0.57
   4   4  -7   80.78    2.37
  -4  -4   7   81.28    2.31
  -4  -4   7   80.75    2.44
   3   4  -7   23.45    1.14
  -3  -4   7   26.38    1.29
  -3  -4   7   26.53    1.10
   2   4  -7   33.60    1.24
  -2  -4   7   34.03    1.18
   1   4  -7  229.91    4.97
  -1  -4   7  225.15    4.98
  -1  -4   7  231.89    4.96
   0   4  -7  172.84    3.84
   0  -4   7  172.98    3.85
   0  -4   7  170.79    3.87
  -1   4  -7   71.69    1.88
  -1   4  -7   69.49    1.93
   1  -4   7   72.14    1.91
   1  -4   7   69.50    1.94
  -2   4  -7  178.62    4.05
   2  -4   7  163.81    4.12
   2  -4   7  180.10    4.06
  -3   4  -7  114.45    2.96
   3  -4   7  115.58    2.82
   3  -4   7  111.06    2.95
  -4   4  -7    0.27    0.42
   4  -4   7    0.36    0.41
   4  -4   7    0.35    0.39
   4  -4   7    0.62    0.46
  -5   4  -7  108.61    3.11
   5  -4   7  107.74    2.94
   5  -4   7  104.73    2.85
   5  -4   7  109.76    3.12
   6  -4   7   51.03    1.98
   6  -4   7   48.15    2.14
   6  -4   7   46.82    1.91
   7  -4   7   -0.09    0.73
   7  -4   7   -1.32    0.82
   8   3  -7   21.80    1.69
   8   3  -7   25.58    1.63
  -8  -3   7   20.70    1.94
   7   3  -7    0.89    0.58
   7   3  -7    0.33    0.58
  -7  -3   7    0.53    0.75
  -7  -3   7   -0.57    0.73
   6   3  -7   88.88    2.76
   6   3  -7   93.59    2.72
  -6  -3   7   94.69    2.85
  -6  -3   7   96.10    2.90
   5   3  -7  159.88    3.96
   5   3  -7  162.17    3.94
  -5  -3   7  165.62    4.09
  -5  -3   7  163.84    4.04
   4   3  -7    6.08    0.82
   4   3  -7    7.69    0.80
  -4  -3   7    7.07    0.99
   3   3  -7  204.34    4.61
  -3  -3   7  209.01    4.64
  -3  -3   7  207.24    4.69
   2   3  -7  108.03    2.63
  -2  -3   7  108.03    2.68
  -2  -3   7  107.22    2.64
   1   3  -7   42.45    1.32
  -1  -3   7   41.63    1.34
   0   3  -7  120.72    2.80
   0  -3   7  116.65    2.81
   0  -3   7  119.04    2.86
  -1   3  -7  232.48    4.98
  -1   3  -7  225.87    5.09
   1  -3   7  229.21    5.01
   1  -3   7  234.16    5.08
  -2   3  -7    1.72    0.53
  -2   3  -7    1.41    0.35
   2  -3   7    1.52    0.38
   2  -3   7    2.16    0.41
  -3   3  -7    3.54    0.50
   3  -3   7    4.55    0.54
   3  -3   7    5.12    0.77
  -4   3  -7   23.50    1.27
   4  -3   7   25.20    1.20
   4  -3   7   23.63    1.30
   4  -3   7   23.46    1.19
  -5   3  -7    4.46    0.75
   5  -3   7    4.82    0.69
   5  -3   7    5.42    0.81
   5  -3   7    4.07    0.62
   6  -3   7    8.14    1.20
   6  -3   7    8.37    1.33
   6  -3   7    8.45    1.24
   7  -3   7   25.93    1.98
   7  -3   7   22.41    1.83
   9   2  -7    6.31    1.08
   8   2  -7    8.72    1.26
   8   2  -7    9.82    1.41
  -8  -2   7    6.23    1.19
   7   2  -7   44.49    1.97
   7   2  -7   44.88    1.82
  -7  -2   7   43.46    1.98
  -7  -2   7   45.69    2.16
   6   2  -7    3.05    0.70
   6   2  -7    4.79    0.94
  -6  -2   7    5.21    0.85
  -6  -2   7    3.16    0.71
   5   2  -7   20.25    1.15
   5   2  -7   22.23    1.23
  -5  -2   7   23.42    1.31
  -5  -2   7   22.04    1.40
   4   2  -7  143.65    3.53
   4   2  -7  140.28    3.43
  -4  -2   7  152.67    3.62
  -4  -2   7  145.49    3.60
   3   2  -7   72.00    1.94
  -3  -2   7   69.73    2.04
   2   2  -7   44.57    1.39
  -2  -2   7   47.23    1.48
  -2  -2   7   46.04    1.44
   1   2  -7  151.03    3.46
  -1  -2   7  153.76    3.53
  -1  -2   7  155.54    3.56
  -1  -2   7  153.56    3.48
   0   2  -7   96.45    2.35
   0  -2   7   95.14    2.36
   0  -2   7   95.39    2.43
   1  -2   7   22.07    1.00
  -2   2  -7  186.54    4.33
   2  -2   7  185.56    4.33
   2  -2   7  192.49    4.26
  -3   2  -7   87.67    2.45
   3  -2   7   86.96    2.38
   3  -2   7   88.48    2.49
  -4   2  -7   20.27    1.21
   4  -2   7   19.67    1.16
   4  -2   7   22.97    1.19
   4  -2   7   21.27    1.25
  -5   2  -7  166.06    4.21
   5  -2   7  166.26    4.24
   5  -2   7  165.72    4.19
   5  -2   7  161.23    4.10
   6  -2   7   41.26    2.00
   6  -2   7   41.24    1.93
   7  -2   7   -0.15    0.85
   7  -2   7    0.20    0.89
   9   1  -7   25.06    2.10
   9   1  -7   26.54    1.72
   8   1  -7   50.39    2.33
   8   1  -7   47.27    1.91
  -8  -1   7   42.36    2.15
   7   1  -7    0.68    0.67
   7   1  -7    0.35    0.52
  -7  -1   7    0.06    0.64
  -7  -1   7    0.71    0.81
   6   1  -7   37.35    1.80
   6   1  -7   40.82    1.55
  -6  -1   7   41.14    1.98
  -6  -1   7   42.05    1.72
   5   1  -7   48.33    1.61
   5   1  -7   48.04    1.82
  -5  -1   7   48.08    1.94
  -5  -1   7   49.42    1.79
   4   1  -7   12.24    0.84
   4   1  -7   14.16    0.99
  -4  -1   7   13.97    1.01
  -4  -1   7   13.28    1.06
   3   1  -7  130.05    2.93
  -3  -1   7  125.95    2.98
  -3  -1   7  111.89    3.29
   2   1  -7  229.49    4.92
  -2  -1   7  230.40    4.95
  -2  -1   7  225.51    5.03
   1   1  -7    2.74    0.37
  -1  -1   7    2.88    0.43
  -1  -1   7    3.06    0.41
  -1  -1   7    3.95    0.58
   0   1  -7   23.06    0.94
   0  -1   7   22.89    1.00
   1  -1   7  108.41    2.68
   1  -1   7  109.77    2.75
  -2   1  -7    0.58    0.35
   2  -1   7    0.67    0.37
   2  -1   7    0.87    0.40
  -3   1  -7  126.03    3.20
   3  -1   7  120.49    3.13
   3  -1   7  127.88    3.23
   3  -1   7  121.64    3.16
  -4   1  -7  122.45    3.27
   4  -1   7  122.12    3.26
   4  -1   7  127.07    3.32
   4  -1   7  125.09    3.32
  -5   1  -7    4.32    0.79
   5  -1   7    3.67    0.67
   5  -1   7    5.26    0.79
   5  -1   7    5.29    0.81
   6  -1   7   27.83    1.79
   6  -1   7   26.78    1.73
   7  -1   7   26.27    2.06
   7  -1   7   24.87    2.14
   9   0  -7    5.67    1.14
   9   0  -7    4.53    0.82
   8   0  -7    8.05    1.09
   8   0  -7    7.38    1.08
  -8   0   7    7.50    1.01
   7   0  -7   77.44    2.46
   7   0  -7   78.71    2.80
  -7   0   7   80.59    2.86
  -7   0   7   77.79    2.55
   6   0  -7   33.84    1.71
   6   0  -7   32.78    1.33
  -6   0   7   35.30    1.54
  -6   0   7   33.07    1.84
   5   0  -7   20.80    1.02
   5   0  -7   19.26    1.27
  -5   0   7   21.81    1.21
  -5   0   7   21.31    1.45
   4   0  -7  118.32    3.09
   4   0  -7  120.29    2.82
  -4   0   7  117.79    3.14
  -4   0   7  111.36    3.15
   3   0  -7   61.03    1.69
  -3   0   7   60.44    1.74
  -3   0   7   61.50    1.91
   2   0  -7   56.09    1.56
  -2   0   7   55.79    1.60
   1   0  -7  361.86    7.48
   1   0  -7  365.53    7.67
  -1   0   7  352.43    7.48
  -1   0   7  361.67    7.63
   0   0   7   54.26    1.67
   1   0   7   25.69    1.09
   1   0   7   25.97    1.12
  -2   0  -7  216.95    4.87
   2   0   7  209.05    4.83
   2   0   7  212.55    4.85
   2   0   7  215.90    4.89
  -3   0  -7   15.36    1.05
   3   0   7   15.68    1.04
   3   0   7   14.55    1.03
   3   0   7   15.51    1.05
  -4   0  -7   10.15    1.07
   4   0   7   13.26    1.09
   4   0   7   10.96    1.07
   4   0   7    9.65    1.08
  -5   0  -7   39.20    1.91
   5   0   7   38.81    1.86
   5   0   7   37.31    1.75
   6   0   7   24.44    1.69
   6   0   7   20.77    1.81
   9  -1  -7   23.93    1.51
   9  -1  -7   29.34    2.28
  -9   1   7   24.79    1.91
   8  -1  -7   32.73    2.07
   8  -1  -7   27.74    1.41
  -8   1   7   25.05    1.60
   7  -1  -7    3.08    0.81
   7  -1  -7    3.65    0.58
  -7   1   7    3.87    0.99
  -7   1   7    2.61    0.69
   6  -1  -7   71.66    2.53
   6  -1  -7   74.10    2.07
  -6   1   7   74.27    2.63
  -6   1   7   74.29    2.24
   5  -1  -7   55.20    2.82
   5  -1  -7   62.94    1.76
  -5   1   7   61.80    1.96
  -5   1   7   60.89    2.26
   4  -1  -7   28.32    1.07
   4  -1  -7   27.42    1.33
  -4   1   7   28.13    1.43
  -4   1   7   27.63    1.18
   3  -1  -7   99.59    2.40
  -3   1   7   98.90    2.45
  -3   1   7   97.61    2.69
   2  -1  -7  153.62    3.45
  -2   1   7  151.56    3.47
  -2   1   7  152.63    3.64
  -1   1   7   12.10    0.77
  -1   1   7   12.56    0.84
  -1   1   7   12.59    0.83
   0   1   7  179.40    4.07
   0   1   7  181.01    4.17
   1   1   7   56.33    1.75
   1   1   7   53.55    1.70
   2   1   7   10.54    0.87
   2   1   7   10.71    0.90
   2   1   7   10.67    0.89
  -3  -1  -7   83.40    2.44
   3   1   7   86.73    2.50
   3   1   7   76.07    2.66
   3   1   7   86.50    2.53
  -4  -1  -7   40.83    1.74
   4   1   7   38.89    1.66
   4   1   7   40.18    1.79
   4   1   7   39.27    1.75
  -5  -1  -7    0.65    0.75
   5   1   7    1.12    0.71
   5   1   7   -0.09    0.57
   6   1   7   18.26    1.65
   6   1   7   23.55    2.02
   9  -2  -7    1.21    0.65
   9  -2  -7    2.90    1.09
  -9   2   7    0.48    1.17
   8  -2  -7   32.07    1.68
   8  -2  -7   33.62    2.16
  -8   2   7   32.81    1.71
   7  -2  -7   29.69    1.24
   7  -2  -7   29.84    1.83
  -7   2   7   27.63    1.92
  -7   2   7   26.26    1.46
   6  -2  -7   11.33    0.84
   6  -2  -7   11.42    1.26
  -6   2   7   11.11    1.02
  -6   2   7   10.81    1.46
   5  -2  -7   71.73    1.79
   5  -2  -7   66.97    2.32
   5  -2  -7   67.97    1.87
  -5   2   7   71.27    2.09
  -5   2   7   67.75    2.43
   4  -2  -7  185.42    4.49
   4  -2  -7  186.55    4.10
  -4   2   7  188.88    4.59
  -4   2   7  187.77    4.20
   3  -2  -7    4.41    0.57
  -3   2   7    3.48    0.47
  -3   2   7    2.79    0.60
   2  -2  -7    7.27    0.62
  -2   2   7    6.78    0.68
  -2   2   7    8.22    0.84
  -1   2   7  208.80    4.64
  -1   2   7  210.80    4.69
  -1   2   7  194.15    4.74
   0   2   7    7.18    0.72
   0   2   7    7.12    0.75
   0   2   7    6.95    0.74
   1   2   7   31.83    1.30
   1   2   7   31.49    1.30
   1   2   7   31.58    1.49
   2   2   7  162.83    3.93
   2   2   7  156.40    3.87
   2   2   7  153.15    3.81
   3   2   7  126.95    3.38
   3   2   7  126.93    3.41
   3   2   7  118.32    3.51
  -4  -2  -7   11.98    1.26
   4   2   7    9.00    1.22
   4   2   7    9.92    1.05
  -5  -2  -7   31.15    1.90
   5   2   7   29.50    1.64
   5   2   7   31.52    1.99
   9  -3  -7   33.08    1.56
   8  -3  -7    7.82    1.18
   8  -3  -7   11.88    1.04
  -8   3   7    8.49    1.27
   7  -3  -7   -0.46    0.65
   7  -3  -7    0.63    0.41
  -7   3   7   -0.50    0.55
   6  -3  -7   41.20    1.34
   6  -3  -7   40.85    1.93
  -6   3   7   41.39    2.12
   5  -3  -7  120.78    2.81
   5  -3  -7  118.60    3.33
  -5   3   7  120.78    2.96
  -5   3   7  119.72    3.48
   4  -3  -7    6.77    0.63
   4  -3  -7    7.30    1.18
  -4   3   7    5.88    0.83
  -4   3   7    6.10    0.73
   3  -3  -7   54.61    1.53
  -3   3   7   52.30    1.90
  -3   3   7   53.55    1.57
  -2   3   7   71.51    2.16
  -2   3   7   76.55    2.22
  -1   3   7   19.66    1.06
  -1   3   7   18.24    0.95
  -1   3   7   19.28    1.03
   0   3   7  164.28    3.81
   0   3   7  160.52    3.85
   0   3   7  161.79    3.82
   0   3   7  160.29    3.82
   1   3   7   40.26    2.18
   1   3   7   46.73    1.60
   1   3   7   47.40    1.65
   2   3   7   -0.16    0.44
   2   3   7    0.31    0.45
   2   3   7    0.25    0.42
   3   3   7   52.77    2.06
   3   3   7   54.88    2.13
   3   3   7   60.22    2.12
   4   3   7   32.72    1.56
   4   3   7   34.49    1.93
   5   3   7    0.17    0.69
   5   3   7    0.98    0.92
   8  -4  -7   18.74    1.06
   8  -4  -7   19.92    1.86
  -8   4   7   18.29    1.52
   7  -4  -7   39.31    1.31
   7  -4  -7   38.93    2.04
   6  -4  -7    8.09    0.69
   6  -4  -7    8.38    1.18
  -6   4   7    8.14    0.90
  -6   4   7    5.99    1.00
   5  -4  -7   43.41    1.79
   5  -4  -7   41.33    1.29
  -5   4   7   43.44    1.99
  -5   4   7   42.56    1.44
   4  -4  -7  137.93    3.59
  -4   4   7  138.39    3.22
  -4   4   7  141.39    3.78
  -3   4   7   27.67    1.46
  -3   4   7   28.77    1.10
  -2   4   7   24.80    1.27
  -2   4   7   22.41    1.04
  -1   4   7  162.89    3.95
  -1   4   7  160.36    3.93
  -1   4   7  167.87    3.85
  -1   4   7  166.67    3.82
   0   4   7   22.05    1.12
   0   4   7   23.55    1.13
   0   4   7   19.55    1.08
   0   4   7   20.27    1.09
   1   4   7   53.50    1.78
   1   4   7   54.03    1.76
   1   4   7   55.57    1.89
   1   4   7   54.06    1.87
   2   4   7   62.15    2.15
   2   4   7   63.19    2.22
   2   4   7   63.60    2.58
   3   4   7   14.53    1.65
   3   4   7   15.67    1.44
   3   4   7   16.13    1.14
   4   4   7   19.82    1.87
   4   4   7   18.02    2.05
   4   4   7   21.85    1.39
   8  -5  -7   15.86    1.13
   8  -5  -7   20.13    1.85
   7  -5  -7   15.44    1.55
   7  -5  -7   13.14    0.81
  -7   5   7   11.40    0.96
   6  -5  -7  101.89    3.16
   6  -5  -7  104.11    2.57
  -6   5   7  115.15    4.20
  -6   5   7   97.77    2.80
   5  -5  -7   38.41    1.74
  -5   5   7   38.09    1.96
  -5   5   7   37.26    1.31
  -4   5   7   17.15    1.39
  -4   5   7   15.94    0.85
  -3   5   7  135.79    3.41
  -3   5   7  136.19    3.63
  -2   5   7   40.50    1.39
  -2   5   7   41.26    1.67
  -2   5   7   39.20    1.36
  -1   5   7   20.17    1.16
  -1   5   7   20.55    1.04
  -1   5   7   19.65    1.07
  -1   5   7   19.89    1.10
   0   5   7   80.08    2.42
   0   5   7   78.06    2.29
   0   5   7   79.92    2.29
   0   5   7   79.58    2.31
   1   5   7   52.43    2.28
   1   5   7   51.44    1.73
   1   5   7   48.88    1.84
   1   5   7   51.65    1.93
   1   5   7   51.00    1.80
   2   5   7    1.33    0.63
   2   5   7    0.74    0.62
   2   5   7    0.67    0.49
   2   5   7   -0.66    0.86
   2   5   7    1.42    0.51
   3   5   7   37.37    2.05
   3   5   7   34.75    2.29
   3   5   7   36.33    1.60
   4   5   7   19.74    2.15
   4   5   7   20.04    1.47
   7  -6  -7   53.25    2.37
   6  -6  -7    9.69    1.23
  -6   6   7    8.33    0.79
   5  -6  -7   13.31    1.16
  -5   6   7   12.10    0.83
  -5   6   7   14.18    1.54
  -4   6   7   25.33    1.03
  -4   6   7   25.17    1.01
  -4   6   7   26.79    1.65
  -3   6   7    1.82    0.41
  -3   6   7    2.20    0.50
  -3   6   7    1.65    0.61
  -2   6   7   71.95    2.34
  -2   6   7   71.96    2.06
  -2   6   7   69.12    2.01
  -1   6   7   75.60    2.28
  -1   6   7   73.06    2.24
  -1   6   7   71.05    2.11
   0   6   7   16.19    1.17
   0   6   7   16.42    1.11
   0   6   7   15.82    1.08
   1   6   7   27.32    1.49
   1   6   7   30.86    1.96
   1   6   7   28.52    1.55
   1   6   7   27.66    1.59
   1   6   7   33.31    1.38
   2   6   7   95.72    2.63
   2   6   7   86.67    3.46
   2   6   7   96.00    3.14
   2   6   7   96.40    3.05
   3   6   7    4.21    1.08
   3   6   7    3.73    1.39
   3   6   7    3.15    0.73
   7  -7  -7   17.92    1.65
   6  -7  -7   52.85    2.20
   5  -7  -7    8.02    1.13
  -5   7   7    7.16    0.65
  -5   7   7    6.48    0.72
  -4   7   7    1.18    0.40
  -4   7   7    1.88    0.41
  -4   7   7    1.63    0.74
  -3   7   7   76.52    2.12
  -3   7   7   77.48    2.05
  -3   7   7   73.07    2.54
  -2   7   7   63.82    2.11
  -2   7   7   62.24    1.89
  -2   7   7   64.86    2.01
  -2   7   7   61.96    2.20
  -1   7   7    7.33    0.96
  -1   7   7    9.79    1.06
  -1   7   7   10.09    0.91
  -1   7   7    6.38    0.97
   0   7   7   34.38    1.53
   0   7   7   35.52    1.70
   0   7   7   36.90    1.56
   0   7   7   38.24    1.61
   1   7   7   51.02    2.21
   1   7   7   50.33    1.81
   1   7   7   51.21    2.07
   1   7   7   45.65    2.44
   2   7   7   -0.24    0.90
   2   7   7    0.12    0.60
   2   7   7   -1.13    1.21
   6  -8  -7    0.68    0.74
  -4   8   7   67.70    1.92
  -4   8   7   70.10    3.03
  -3   8   7   14.41    1.08
  -3   8   7   16.58    0.98
  -3   8   7   19.44    1.52
  -2   8   7   60.38    2.35
  -2   8   7   59.75    2.12
  -2   8   7   62.61    2.28
  -2   8   7   64.43    1.95
  -1   8   7   57.83    1.98
  -1   8   7   52.35    2.08
  -1   8   7   54.88    1.87
  -1   8   7   53.12    2.07
   0   8   7    0.32    0.68
   0   8   7   -0.44    0.72
   0   8   7   -0.18    0.57
   0   8   7    1.26    1.03
   0   8   7    0.77    0.79
  -3   9   7   60.38    2.26
  -3   9   7   57.24    2.40
  -2   9   7   32.33    1.67
  -2   9   7   36.81    2.71
  -2   9   7   34.55    1.72
   1  13  -8   12.34    1.36
   0  13  -8   68.62    2.23
   0 -13   8   61.68    2.61
  -1  13  -8   25.40    1.32
   1 -13   8   23.75    1.19
   1 -13   8   20.16    1.72
  -2  13  -8   12.29    1.02
   2 -13   8   11.20    1.47
   2 -13   8   11.79    1.23
  -3  13  -8   59.66    2.09
  -3  13  -8   59.59    1.78
   3 -13   8   55.45    2.53
  -4  13  -8   30.63    1.64
   4 -13   8   32.36    1.92
   3  12  -8    0.95    0.85
   2  12  -8   49.56    2.16
   1  12  -8   56.55    2.13
  -1 -12   8   61.79    2.60
   0  12  -8   10.13    1.06
   0 -12   8   10.55    0.68
   0 -12   8    8.67    0.77
   0 -12   8   10.17    1.12
  -1  12  -8   41.35    2.02
   1 -12   8   44.08    1.56
   1 -12   8   41.97    1.93
  -2  12  -8   44.33    1.52
  -2  12  -8   43.73    1.56
   2 -12   8   46.09    1.75
   2 -12   8   45.95    1.93
  -3  12  -8    4.61    0.65
  -3  12  -8    5.38    0.79
   3 -12   8    3.87    0.83
   3 -12   8    2.98    0.79
  -4  12  -8   44.69    1.91
   4 -12   8   44.33    2.05
   4 -12   8   45.65    1.81
   5 -12   8   79.40    2.78
   5 -12   8   59.39    2.61
   4  11  -8   17.46    1.88
   3  11  -8   53.59    2.38
   2  11  -8   13.10    1.32
  -2 -11   8   12.54    1.80
   1  11  -8    8.21    1.03
  -1 -11   8    6.49    0.62
  -1 -11   8    8.02    0.99
   0  11  -8   55.92    1.88
   0 -11   8   54.01    1.60
   0 -11   8   55.00    2.10
  -1  11  -8   21.52    1.14
   1 -11   8   21.87    1.13
   1 -11   8   21.93    1.44
  -2  11  -8   20.64    1.08
  -2  11  -8   22.74    1.08
   2 -11   8   20.91    1.25
   2 -11   8   21.83    1.43
  -3  11  -8   98.72    2.75
  -3  11  -8   99.86    2.55
   3 -11   8   98.37    2.73
   3 -11   8  100.04    2.90
  -4  11  -8   31.67    1.59
   4 -11   8   28.13    1.43
   4 -11   8   31.42    1.68
   5 -11   8    4.83    0.74
   5 -11   8    2.41    0.89
   6 -11   8   60.83    2.74
   5  10  -8   35.28    2.36
   4  10  -8   59.33    2.57
   3  10  -8    1.52    0.73
  -3 -10   8    0.73    0.86
   2  10  -8  109.97    3.17
  -2 -10   8  108.33    3.28
  -2 -10   8  112.08    2.46
   1  10  -8  128.83    3.39
  -1 -10   8  130.01    2.91
  -1 -10   8  130.57    3.52
  -1 -10   8  126.54    2.90
   0  10  -8    1.57    0.49
   0 -10   8    0.80    0.65
   0 -10   8    1.67    0.43
  -1  10  -8   89.44    2.44
   1 -10   8   92.00    2.40
   1 -10   8   90.22    2.61
  -2  10  -8  132.46    3.26
  -2  10  -8  131.54    3.19
   2 -10   8  132.24    3.31
   2 -10   8  130.60    3.30
  -3  10  -8    4.79    0.67
  -3  10  -8    4.90    0.63
   3 -10   8    4.23    0.78
   3 -10   8    4.79    0.68
  -4  10  -8   88.33    2.73
   4 -10   8   90.36    2.78
   4 -10   8   89.93    2.48
   5 -10   8   44.59    2.08
   5 -10   8   47.05    1.73
   5 -10   8   45.96    1.62
   6 -10   8   -0.36    0.64
   6 -10   8   -0.96    0.85
   6   9  -8   27.87    3.43
   5   9  -8    1.12    0.86
  -5  -9   8   -0.06    0.50
  -5  -9   8    1.24    0.39
   4   9  -8   13.67    1.51
  -4  -9   8   14.14    0.89
  -4  -9   8   13.59    0.72
   3   9  -8   23.60    1.57
  -3  -9   8   26.18    0.91
  -3  -9   8   25.34    1.03
  -3  -9   8   23.75    1.68
   2   9  -8    0.93    0.56
  -2  -9   8    2.04    0.39
  -2  -9   8    0.92    0.65
  -2  -9   8    1.56    0.35
  -1  -9   8   69.46    1.80
  -1  -9   8   68.98    2.32
  -1  -9   8   70.64    1.83
   0   9  -8  177.57    4.19
   0  -9   8  185.35    4.04
   0  -9   8  176.96    4.32
  -1   9  -8    8.53    0.78
  -1   9  -8    8.41    0.89
   1  -9   8    9.21    1.01
   1  -9   8    9.39    0.81
  -2   9  -8   36.95    1.31
  -2   9  -8   34.76    1.37
   2  -9   8   33.80    1.40
   2  -9   8   35.92    1.43
  -3   9  -8  137.96    3.52
  -3   9  -8  140.08    3.29
   3  -9   8  134.34    3.32
  -4   9  -8   30.36    1.53
   4  -9   8   28.07    1.53
   4  -9   8   29.32    1.32
  -5   9  -8    8.51    1.20
  -5   9  -8    9.29    1.63
   5  -9   8   10.63    0.95
   5  -9   8   11.15    1.17
   5  -9   8    8.38    1.01
   6  -9   8   42.08    1.72
   6  -9   8   37.97    1.67
   6  -9   8   37.36    2.12
   6   8  -8   20.89    1.95
   5   8  -8  144.96    4.17
  -5  -8   8  138.92    3.40
   4   8  -8   81.89    2.80
  -4  -8   8   86.98    2.34
  -4  -8   8   80.86    2.84
  -4  -8   8   85.41    2.13
   3   8  -8    3.60    0.71
  -3  -8   8    2.50    0.47
  -3  -8   8    2.88    0.42
  -3  -8   8    2.32    0.70
   2   8  -8   92.69    3.07
  -2  -8   8  102.33    2.39
  -2  -8   8  101.75    2.91
  -2  -8   8   99.67    2.41
   1   8  -8   84.02    2.41
  -1  -8   8   86.15    2.56
  -1  -8   8   88.31    2.17
  -1  -8   8   84.83    2.15
   0   8  -8    1.36    0.40
   0  -8   8    1.04    0.51
   0  -8   8    1.22    0.36
  -1   8  -8  124.73    3.02
  -1   8  -8  118.16    2.99
   1  -8   8  125.85    3.03
   1  -8   8  125.14    3.09
  -2   8  -8   51.78    1.60
  -2   8  -8   52.19    1.71
   2  -8   8   51.64    1.67
   2  -8   8   50.69    1.72
  -3   8  -8    1.78    0.53
   3  -8   8    0.88    0.45
  -4   8  -8   54.85    2.00
   4  -8   8   53.70    1.76
   4  -8   8   52.35    2.00
  -5   8  -8   24.29    1.59
   5  -8   8   22.49    1.41
   5  -8   8   22.45    1.31
   5  -8   8   20.49    1.55
   6  -8   8   -0.09    0.57
   6  -8   8    1.81    0.67
   6  -8   8    0.29    0.75
   7  -8   8   32.06    1.70
   7  -8   8   26.00    1.76
   7  -8   8   31.99    2.82
   7   7  -8   15.25    1.95
   6   7  -8   25.97    1.86
  -6  -7   8   22.07    1.48
   5   7  -8    9.19    1.32
  -5  -7   8    7.32    1.04
   4   7  -8   15.35    1.34
  -4  -7   8   16.11    1.41
  -4  -7   8   15.25    1.06
   3   7  -8  123.55    3.33
  -3  -7   8  120.15    2.98
  -3  -7   8  127.67    3.42
  -3  -7   8  126.96    2.94
   2   7  -8    7.23    0.90
  -2  -7   8    7.26    0.64
  -2  -7   8    5.93    0.81
  -2  -7   8    6.76    0.67
   1   7  -8   48.94    1.64
  -1  -7   8   48.93    1.74
  -1  -7   8   47.76    1.46
  -1  -7   8   47.90    1.45
   0   7  -8  104.45    2.67
   0  -7   8  105.41    2.75
   0  -7   8  106.43    2.62
  -1   7  -8   44.59    1.50
  -1   7  -8   45.99    1.48
   1  -7   8   46.56    1.56
   1  -7   8   45.91    1.51
  -2   7  -8   25.98    1.19
  -2   7  -8   26.15    1.09
   2  -7   8   26.73    1.21
   2  -7   8   26.39    1.19
  -3   7  -8  170.07    4.14
   3  -7   8  166.79    3.91
  -4   7  -8   52.17    1.95
   4  -7   8   49.34    1.92
   4  -7   8   51.95    1.73
  -5   7  -8   33.65    1.79
   5  -7   8   36.02    1.51
   5  -7   8   32.94    1.73
   5  -7   8   34.26    1.47
   6  -7   8   50.89    2.29
   6  -7   8   52.85    1.96
   6  -7   8   52.60    1.99
   7  -7   8   12.85    1.56
   7  -7   8   10.72    1.16
   7   6  -8    4.87    1.01
  -7  -6   8    3.54    0.96
   6   6  -8    5.57    0.98
  -6  -6   8    3.97    0.85
   5   6  -8   59.90    2.27
  -5  -6   8   61.61    2.37
  -5  -6   8   62.11    2.08
   4   6  -8   59.16    2.11
  -4  -6   8   58.13    2.10
  -4  -6   8   59.40    2.16
   3   6  -8    3.39    0.70
  -3  -6   8    4.21    0.61
  -3  -6   8    4.72    0.75
  -3  -6   8    3.32    0.68
   2   6  -8  139.54    3.50
  -2  -6   8  142.89    3.33
  -2  -6   8  148.73    3.35
  -2  -6   8  143.03    3.60
   1   6  -8  145.57    3.51
  -1  -6   8  150.19    3.42
  -1  -6   8  148.49    3.59
   0   6  -8    1.05    0.38
   0  -6   8    0.97    0.35
   0  -6   8    1.43    0.44
  -1   6  -8  147.45    3.54
  -1   6  -8  149.49    3.49
   1  -6   8  147.71    3.53
   1  -6   8  153.84    3.53
  -2   6  -8   64.87    1.88
  -2   6  -8   68.87    2.05
   2  -6   8   68.16    2.02
   2  -6   8   67.51    1.95
  -3   6  -8    5.68    0.87
   3  -6   8    5.04    0.60
  -4   6  -8  101.42    2.94
   4  -6   8  103.73    2.86
   4  -6   8  101.35    2.94
  -5   6  -8   70.99    2.55
   5  -6   8   75.77    2.27
   5  -6   8   74.78    2.28
   5  -6   8   76.60    2.55
   6  -6   8    0.06    0.72
   6  -6   8    0.84    0.61
   6  -6   8    1.76    0.73
   7  -6   8   35.63    1.94
   7  -6   8   32.90    2.28
   8   5  -8    1.36    0.96
   8   5  -8    2.26    0.75
  -8  -5   8    0.14    1.03
   7   5  -8   24.52    1.77
   7   5  -8   27.60    1.43
  -7  -5   8   25.35    1.80
   6   5  -8   54.46    2.15
  -6  -5   8   49.66    2.04
  -6  -5   8   48.42    2.23
   5   5  -8   10.21    1.17
  -5  -5   8   10.71    1.16
  -5  -5   8    8.83    1.25
   4   5  -8   88.47    2.65
  -4  -5   8   92.64    2.76
  -4  -5   8   91.74    2.54
   3   5  -8   44.49    1.63
  -3  -5   8   48.06    1.58
  -3  -5   8   47.33    1.80
   2   5  -8   -0.14    0.35
  -2  -5   8    0.33    0.45
  -2  -5   8    0.43    0.31
  -2  -5   8    0.37    0.35
   1   5  -8  132.47    3.23
  -1  -5   8  135.74    3.21
  -1  -5   8  137.42    3.29
   0   5  -8  313.18    6.66
   0  -5   8  303.95    6.66
   0  -5   8  322.48    6.70
  -1   5  -8    1.94    0.42
  -1   5  -8    2.12    0.41
   1  -5   8    2.25    0.42
   1  -5   8    1.54    0.43
  -2   5  -8  101.32    2.72
  -2   5  -8  103.50    2.61
   2  -5   8  103.33    2.66
   2  -5   8  103.98    2.74
  -3   5  -8   52.98    1.83
  -3   5  -8   52.19    1.93
   3  -5   8   52.30    1.70
  -4   5  -8    3.08    0.63
   4  -5   8    4.09    0.61
   4  -5   8    2.61    0.61
  -5   5  -8   27.60    1.56
   5  -5   8   28.31    1.62
   5  -5   8   29.23    1.43
   5  -5   8   28.66    1.39
   6  -5   8   72.25    2.44
   6  -5   8   69.12    2.64
   6  -5   8   71.25    2.43
   7  -5   8    9.63    1.33
   7  -5   8    9.83    1.52
   8   4  -8   57.42    2.47
   8   4  -8   53.32    2.22
  -8  -4   8   52.99    2.75
   7   4  -8   12.29    1.35
   7   4  -8   16.24    1.26
  -7  -4   8   15.62    1.71
   6   4  -8    1.32    0.61
  -6  -4   8    0.14    0.72
  -6  -4   8   -0.28    0.65
   5   4  -8  125.85    3.33
  -5  -4   8  125.55    3.43
  -5  -4   8  121.59    3.32
   4   4  -8   84.41    2.45
  -4  -4   8   86.35    2.60
  -4  -4   8   87.52    2.48
   3   4  -8   45.47    1.58
  -3  -4   8   44.93    1.89
  -3  -4   8   47.13    1.71
   2   4  -8  109.74    2.79
  -2  -4   8  117.92    2.91
  -2  -4   8  107.43    2.83
  -2  -4   8  115.22    2.81
   1   4  -8   61.07    1.78
  -1  -4   8   61.31    1.79
  -1  -4   8   62.36    1.84
   0   4  -8   27.85    1.10
   0  -4   8   27.98    1.14
   0  -4   8   27.11    1.14
  -1   4  -8  141.68    3.38
  -1   4  -8  147.23    3.48
   1  -4   8  143.60    3.47
   1  -4   8  143.80    3.40
  -2   4  -8   95.94    2.59
   2  -4   8   95.94    2.49
   2  -4   8   93.23    2.58
   3  -4   8   15.40    1.01
  -4   4  -8  123.01    3.33
   4  -4   8  119.48    3.14
   4  -4   8  120.97    3.11
   4  -4   8  120.75    3.30
  -5   4  -8   32.74    1.72
   5  -4   8   35.50    1.62
   5  -4   8   36.90    1.77
   5  -4   8   34.17    1.57
   6  -4   8    1.24    0.79
   6  -4   8    1.15    0.64
   7  -4   8   21.30    1.89
   7  -4   8   22.85    2.07
   8   3  -8    2.09    0.78
   8   3  -8    1.97    0.79
   7   3  -8   21.27    1.47
   7   3  -8   21.78    1.44
  -7  -3   8   20.01    1.67
  -7  -3   8   21.83    1.87
   6   3  -8   22.82    1.35
   6   3  -8   22.08    1.35
  -6  -3   8   21.96    1.63
  -6  -3   8   22.72    1.51
   5   3  -8   -0.11    0.45
   5   3  -8    0.08    0.51
  -5  -3   8    0.11    0.58
  -5  -3   8    0.81    0.62
   4   3  -8  104.91    2.80
  -4  -3   8  105.59    2.89
  -4  -3   8  112.56    2.99
   3   3  -8   70.23    2.03
  -3  -3   8   74.94    2.16
  -3  -3   8   70.68    2.09
   2   3  -8    4.73    0.54
  -2  -3   8    3.60    0.60
  -2  -3   8    5.88    0.79
   1   3  -8  111.85    2.80
  -1  -3   8  117.13    2.85
  -1  -3   8  117.85    2.89
   0   3  -8  176.28    4.05
   0  -3   8  181.04    4.08
   0  -3   8  181.13    4.14
  -1   3  -8   72.39    2.00
   1  -3   8   72.41    2.10
   1  -3   8   73.17    2.03
  -2   3  -8    8.13    0.83
   2  -3   8   10.65    0.89
   2  -3   8    8.89    0.84
  -3   3  -8  174.98    4.28
   3  -3   8  175.28    4.14
   3  -3   8  178.26    4.48
  -4   3  -8   36.77    1.62
   4  -3   8   36.41    1.54
   4  -3   8   37.45    1.65
   4  -3   8   37.08    1.54
  -5   3  -8    3.34    0.73
   5  -3   8    3.79    0.76
   5  -3   8    3.55    0.76
   5  -3   8    4.61    0.71
   6  -3   8   34.74    1.84
   6  -3   8   31.55    1.91
   8   2  -8   21.77    1.55
   8   2  -8   24.02    1.76
   7   2  -8   14.07    1.22
   7   2  -8   15.27    1.36
  -7  -2   8   12.14    1.42
  -7  -2   8   14.47    1.73
   6   2  -8   32.39    1.47
   6   2  -8   31.32    1.60
  -6  -2   8   32.76    1.83
  -6  -2   8   35.48    1.69
   5   2  -8  137.49    3.41
   5   2  -8  134.99    3.55
  -5  -2   8  141.08    3.61
  -5  -2   8  134.43    3.66
   4   2  -8   25.73    1.17
  -4  -2   8   26.88    1.35
  -4  -2   8   25.63    1.36
   3   2  -8    0.53    0.35
  -3  -2   8    0.22    0.41
  -3  -2   8    0.40    0.43
   2   2  -8  199.75    4.48
  -2  -2   8  201.68    4.57
  -2  -2   8  202.88    4.52
   1   2  -8  179.43    4.09
  -1  -2   8  179.27    4.16
  -1  -2   8  187.14    4.23
  -1  -2   8  183.06    4.13
   0   2  -8   61.27    1.74
   0  -2   8   57.52    1.74
  -1   2  -8   76.47    2.36
   1  -2   8   80.52    2.18
   1  -2   8   78.76    2.23
  -2   2  -8   27.43    1.26
   2  -2   8   27.81    1.29
   2  -2   8   27.37    1.22
  -3   2  -8   64.09    2.09
   3  -2   8   63.91    2.09
   3  -2   8   64.25    2.02
  -4   2  -8  115.50    3.21
   4  -2   8  113.02    3.19
   4  -2   8  114.21    3.11
   4  -2   8  115.74    3.14
  -5   2  -8   40.32    2.09
   5  -2   8   39.00    1.87
   5  -2   8   41.01    1.84
   5  -2   8   41.86    1.91
   6  -2   8    0.96    0.74
   6  -2   8    1.53    0.79
   8   1  -8    1.05    0.63
   8   1  -8    1.15    0.82
  -8  -1   8    0.00    0.81
   7   1  -8   24.65    1.66
   7   1  -8   22.52    1.31
  -7  -1   8   24.09    1.92
  -7  -1   8   21.69    1.53
   6   1  -8   67.63    2.46
   6   1  -8   70.03    2.45
  -6  -1   8   73.28    2.61
  -6  -1   8   76.65    2.40
   5   1  -8    0.14    0.40
  -5  -1   8    1.67    0.68
  -5  -1   8    0.08    0.54
   4   1  -8   81.94    2.23
  -4  -1   8   82.65    2.50
  -4  -1   8   83.04    2.37
   3   1  -8  135.24    3.20
  -3  -1   8  132.39    3.37
  -3  -1   8  135.80    3.26
   2   1  -8   32.90    1.18
  -2  -1   8   31.74    1.30
  -2  -1   8   31.78    1.24
   1   1  -8  200.32    4.47
  -1  -1   8  202.67    4.57
  -1  -1   8  202.13    4.62
  -1  -1   8  200.48    4.49
   0   1  -8   61.29    1.99
   0   1  -8   60.80    1.77
   0  -1   8   62.08    1.88
   0  -1   8   59.47    1.78
   1  -1   8    0.21    0.38
   1  -1   8   -0.55    0.35
  -2   1  -8  114.05    2.99
   2  -1   8  111.17    2.99
   2  -1   8  112.59    2.93
  -3   1  -8  191.38    4.52
   3  -1   8  184.49    4.49
   3  -1   8  183.38    4.46
   3  -1   8  182.35    4.42
  -4   1  -8    1.14    0.58
   4  -1   8    1.63    0.57
   4  -1   8    1.21    0.54
   4  -1   8    0.99    0.59
   5  -1   8   20.53    1.47
   5  -1   8   19.26    1.46
   6  -1   8   33.39    1.98
   6  -1   8   32.05    2.04
   8   0  -8   44.11    1.76
   8   0  -8   41.94    2.32
  -8   0   8   41.30    2.09
   7   0  -8   17.96    1.16
   7   0  -8   18.77    1.60
  -7   0   8   18.65    1.85
  -7   0   8   16.95    1.35
   6   0  -8   27.63    1.61
   6   0  -8   28.98    1.28
  -6   0   8   29.18    1.78
  -6   0   8   29.14    1.52
   5   0  -8  155.47    3.67
   5   0  -8  149.45    4.00
  -5   0   8  160.59    3.87
  -5   0   8  157.48    4.12
   4   0  -8   16.28    0.92
  -4   0   8   16.35    1.26
  -4   0   8   17.99    1.07
   3   0  -8   51.76    1.56
  -3   0   8   50.12    1.78
  -3   0   8   51.40    1.63
   2   0  -8  183.37    4.09
  -2   0   8  180.19    4.12
  -2   0   8  181.64    4.26
   1   0  -8   30.87    1.16
  -1   0   8   31.34    1.29
  -1   0   8   30.35    1.20
  -1   0   8   33.25    1.31
   0   0   8   48.66    1.66
   0   0   8   49.18    1.59
   1   0   8   60.49    1.86
   1   0   8   60.36    1.93
   2   0   8   77.49    2.68
   2   0   8   83.26    2.39
   2   0   8   85.75    2.41
  -3   0  -8   12.59    1.12
   3   0   8   12.36    1.05
   3   0   8   13.09    1.10
   3   0   8   13.91    1.09
  -4   0  -8   64.90    2.31
   4   0   8   63.90    2.22
   4   0   8   63.33    2.27
   5   0   8   11.86    1.36
   5   0   8   12.83    1.42
   6   0   8    0.43    0.82
   6   0   8    1.51    0.97
   8  -1  -8    0.59    0.54
   8  -1  -8   -0.14    0.84
  -8   1   8   -1.58    0.73
   7  -1  -8   26.03    1.80
   7  -1  -8   28.73    1.53
  -7   1   8   27.08    1.55
   6  -1  -8   28.43    1.22
   6  -1  -8   25.14    1.59
  -6   1   8   25.89    1.40
  -6   1   8   27.71    1.78
   5  -1  -8    2.63    0.69
   5  -1  -8    3.14    0.49
  -5   1   8    2.21    0.71
  -5   1   8    2.96    0.59
   4  -1  -8   48.61    1.50
  -4   1   8   48.38    1.61
  -4   1   8   46.03    1.86
   3  -1  -8   45.87    1.46
   3  -1  -8   46.79    1.55
  -3   1   8   45.37    1.75
  -3   1   8   46.88    1.52
   2  -1  -8   -0.20    0.29
  -2   1   8    0.96    0.40
  -2   1   8    0.17    0.42
  -1   1   8  113.17    2.84
  -1   1   8  114.55    2.94
  -1   1   8  114.04    2.98
   0   1   8  133.94    3.31
   0   1   8  136.92    3.41
   1   1   8    0.14    0.39
   1   1   8    0.39    0.40
   2   1   8   40.05    1.60
   2   1   8   38.92    1.77
   2   1   8   40.27    1.59
   3   1   8   56.92    2.08
   3   1   8   59.27    2.04
   3   1   8   62.28    2.15
  -4  -1  -8    3.43    0.86
   4   1   8    4.05    0.73
   4   1   8    3.25    0.71
   5   1   8   28.86    1.71
   5   1   8   26.97    1.88
   8  -2  -8   29.69    2.14
   8  -2  -8   31.88    1.45
  -8   2   8   27.22    1.68
   7  -2  -8    0.45    0.48
   7  -2  -8    0.05    0.69
  -7   2   8    1.14    0.66
   6  -2  -8   41.07    1.44
   6  -2  -8   40.13    1.89
  -6   2   8   39.08    1.62
  -6   2   8   40.64    2.08
   5  -2  -8   94.73    2.42
   5  -2  -8   91.99    2.85
  -5   2   8   94.57    2.58
  -5   2   8   98.74    3.05
   4  -2  -8   45.56    1.45
  -4   2   8   45.78    1.89
  -4   2   8   46.06    1.55
   3  -2  -8   28.43    1.09
  -3   2   8   27.50    1.16
  -3   2   8   28.52    1.44
  -2   2   8  117.63    2.92
  -2   2   8  120.37    3.13
  -1   2   8   13.57    0.99
  -1   2   8   13.17    0.96
  -1   2   8   13.76    0.92
   0   2   8   42.79    1.59
   0   2   8   43.22    1.55
   0   2   8   39.62    1.50
   1   2   8  236.57    6.12
   1   2   8  268.90    5.85
   1   2   8  263.29    5.81
   2   2   8   42.03    1.73
   2   2   8   43.89    1.74
   2   2   8   45.08    1.80
   3   2   8   12.70    1.11
   3   2   8   15.26    1.47
   3   2   8   13.65    1.24
   4   2   8   56.38    2.32
   4   2   8   56.16    2.13
   5   2   8   13.58    1.49
   5   2   8   18.38    1.95
   8  -3  -8    0.08    0.88
   8  -3  -8    1.87    1.09
  -8   3   8   -0.93    0.73
   7  -3  -8   32.62    1.92
   7  -3  -8   33.27    1.30
  -7   3   8   27.65    1.47
   6  -3  -8   53.22    2.17
   6  -3  -8   54.45    1.62
  -6   3   8   48.05    2.33
  -6   3   8   54.26    1.86
   5  -3  -8    1.73    0.42
   5  -3  -8    2.23    0.58
  -5   3   8    2.26    0.82
  -5   3   8    1.33    0.47
   4  -3  -8   94.20    2.40
  -4   3   8   96.08    2.49
  -4   3   8   98.35    2.95
  -3   3   8  111.46    2.77
  -3   3   8  111.84    3.13
  -2   3   8    9.59    0.81
  -2   3   8   10.05    1.02
  -1   3   8   61.35    2.02
  -1   3   8   60.63    1.97
  -1   3   8   60.41    1.87
   0   3   8   84.37    2.36
   0   3   8   78.19    2.75
   0   3   8   84.81    2.40
   1   3   8    5.96    0.89
   1   3   8    6.24    0.88
   1   3   8    5.62    0.85
   1   3   8    4.47    0.66
   2   3   8   81.00    2.58
   2   3   8   83.03    2.47
   2   3   8   79.07    2.54
   3   3   8   18.14    1.49
   3   3   8   18.63    1.26
   4   3   8   -0.87    0.77
   8  -4  -8   33.51    1.37
   8  -4  -8   31.79    2.24
   7  -4  -8    5.71    0.82
   7  -4  -8    6.14    0.96
  -7   4   8    4.89    0.69
   6  -4  -8   51.92    1.56
   6  -4  -8   52.33    2.19
  -6   4   8   49.43    1.74
   5  -4  -8  101.09    2.50
   5  -4  -8  100.98    3.04
  -5   4   8  100.27    3.27
  -5   4   8  104.01    2.66
  -4   4   8   15.07    0.91
  -4   4   8   15.72    1.44
  -3   4   8   31.83    1.26
  -3   4   8   34.30    1.62
  -2   4   8  149.47    3.60
  -2   4   8  154.30    3.88
  -1   4   8    8.17    0.83
  -1   4   8    8.19    0.95
  -1   4   8    9.47    0.88
  -1   4   8    6.41    0.88
   0   4   8   13.82    1.05
   0   4   8   14.98    1.05
   0   4   8   15.04    1.06
   0   4   8   14.91    1.06
   1   4   8   71.68    2.29
   1   4   8   71.75    2.30
   1   4   8   71.71    2.20
   1   4   8   71.81    2.35
   2   4   8    3.05    0.63
   2   4   8    3.20    0.68
   2   4   8    4.47    0.65
   3   4   8   21.69    1.70
   3   4   8   22.52    1.39
   7  -5  -8   28.99    1.92
   7  -5  -8   31.42    1.21
   6  -5  -8    7.87    1.23
  -5   5   8    7.63    1.06
  -4   5   8   35.61    1.33
  -4   5   8   35.19    1.87
  -3   5   8   36.36    1.72
  -3   5   8   34.88    1.34
  -2   5   8   11.86    1.12
  -2   5   8   10.89    0.90
  -2   5   8   10.87    1.05
  -2   5   8   11.24    0.91
  -1   5   8   98.51    2.70
  -1   5   8   99.30    2.95
  -1   5   8   94.84    2.64
  -1   5   8   94.78    2.76
   0   5   8   36.37    1.56
   0   5   8   41.06    1.61
   0   5   8   38.82    1.63
   0   5   8   37.88    1.56
   1   5   8    1.32    0.58
   1   5   8    1.56    0.55
   1   5   8    1.23    0.54
   1   5   8    1.14    0.60
   2   5   8   46.68    1.85
   2   5   8   47.64    2.16
   2   5   8   47.18    1.83
   3   5   8   32.42    2.18
   3   5   8   32.18    1.57
   3   5   8   31.06    1.65
   7  -6  -8   15.53    1.71
   6  -6  -8   23.42    1.62
  -4   6   8    6.39    0.75
  -4   6   8    4.83    0.87
  -3   6   8   28.86    1.26
  -3   6   8   29.47    1.26
  -3   6   8   32.38    1.74
  -2   6   8   69.47    2.29
  -2   6   8   71.10    2.07
  -2   6   8   63.33    2.96
  -2   6   8   72.17    2.41
  -1   6   8    2.37    0.63
  -1   6   8    2.71    0.60
  -1   6   8    2.84    0.62
  -1   6   8    2.11    0.56
   0   6   8   29.95    1.53
   0   6   8   31.98    1.62
   0   6   8   34.27    1.53
   0   6   8   31.67    1.50
   1   6   8   55.50    2.03
   1   6   8   61.05    2.35
   1   6   8   56.54    2.03
   2   6   8    4.78    0.77
   2   6   8    4.60    1.03
  -5   7   8    8.66    0.81
  -4   7   8   62.89    1.88
  -4   7   8   63.01    1.85
  -3   7   8   38.80    1.54
  -3   7   8   33.29    1.88
  -3   7   8   38.56    1.45
  -2   7   8    1.78    0.62
  -2   7   8    0.93    0.80
  -2   7   8    3.16    0.55
  -2   7   8    1.75    0.75
  -1   7   8   83.93    2.52
  -1   7   8   81.99    2.67
  -1   7   8   85.21    2.65
  -1   7   8   85.82    2.62
   0   7   8   60.65    2.13
   0   7   8   58.27    2.34
   0   7   8   62.50    2.19
  -3   8   8   35.58    1.77
  -3   8   8   28.55    1.73
  -2   8   8   43.88    2.46
  -2   8   8   37.49    1.83
  -2   8   8   40.59    1.79
   1  13  -9   57.65    2.24
   0  13  -9   27.11    1.59
   0 -13   9   23.64    1.99
   1 -13   9    8.67    1.13
   1 -13   9    7.59    1.12
  -2  13  -9   74.92    2.24
   2 -13   9   68.53    2.50
   2 -13   9   74.86    2.43
  -3  13  -9   50.86    1.98
   3 -13   9   52.97    2.19
   3  12  -9   51.15    2.43
   2  12  -9   41.19    2.01
   1  12  -9    4.51    0.76
  -1 -12   9    2.58    1.02
   0  12  -9   17.85    1.24
   0 -12   9   15.32    1.72
   0 -12   9   16.67    1.08
   0 -12   9   20.20    1.01
  -1  12  -9   40.61    1.61
   1 -12   9   40.01    2.00
   1 -12   9   40.53    1.61
  -2  12  -9    0.93    0.50
  -2  12  -9    0.14    0.52
   2 -12   9   -1.21    0.79
   2 -12   9    0.14    0.72
  -3  12  -9   44.25    1.73
   3 -12   9   39.95    1.91
   3 -12   9   40.53    1.89
  -4  12  -9   63.03    2.58
   4 -12   9   53.04    2.31
   4  11  -9   61.63    2.78
   3  11  -9   16.74    1.62
   2  11  -9    4.77    0.80
  -2 -11   9    3.93    0.44
  -2 -11   9    5.82    0.73
  -2 -11   9    4.74    1.74
   1  11  -9   78.28    2.49
  -1 -11   9   76.00    2.73
  -1 -11   9   78.68    2.05
  -1 -11   9   81.00    2.04
   0  11  -9   60.37    2.02
   0 -11   9   57.55    2.27
   0 -11   9   62.06    1.82
  -1  11  -9   34.57    1.45
   1 -11   9   36.24    1.44
   1 -11   9   34.06    1.79
  -2  11  -9   96.09    2.57
  -2  11  -9   84.89    3.32
   2 -11   9   94.23    2.77
   2 -11   9   90.28    3.07
  -3  11  -9   31.83    1.55
  -3  11  -9   30.46    1.50
   3 -11   9   31.77    1.63
   3 -11   9   31.02    1.60
  -4  11  -9   12.44    1.32
   4 -11   9    8.54    0.95
   4 -11   9   10.09    1.37
   5 -11   9   70.93    2.74
   5  10  -9   41.68    2.53
   4  10  -9    2.00    0.89
  -4 -10   9    4.15    0.62
   3  10  -9   68.24    2.53
  -3 -10   9   71.24    1.94
  -3 -10   9   67.51    1.97
   2  10  -9   40.09    1.78
  -2 -10   9   38.10    1.26
  -2 -10   9   38.56    1.32
  -2 -10   9   36.81    1.97
   1  10  -9    4.05    0.65
  -1 -10   9    3.19    0.50
  -1 -10   9    3.61    0.49
  -1 -10   9    3.67    0.85
   0  10  -9  147.44    3.73
   0 -10   9  151.95    3.55
   0 -10   9  153.17    3.94
   1 -10   9   84.21    2.34
   1 -10   9   83.29    2.54
  -2  10  -9    1.84    0.51
  -2  10  -9    1.68    0.50
   2 -10   9    1.10    0.70
   2 -10   9    1.95    0.65
  -3  10  -9   47.10    1.83
  -3  10  -9   50.91    1.72
   3 -10   9   50.98    1.95
   3 -10   9   51.25    1.88
  -4  10  -9   54.35    2.13
   4 -10   9   57.01    1.99
   4 -10   9   51.41    2.33
   5 -10   9   -1.27    0.69
   5 -10   9    0.15    0.66
   5   9  -9    7.24    1.16
  -5  -9   9    6.60    0.85
   4   9  -9   51.49    2.26
  -4  -9   9   45.86    1.69
  -4  -9   9   48.15    1.49
   3   9  -9    5.95    0.84
  -3  -9   9    6.59    0.88
  -3  -9   9    6.15    0.71
  -3  -9   9    5.20    0.94
   2   9  -9   42.68    1.78
  -2  -9   9   44.06    1.38
  -2  -9   9   41.81    1.42
  -2  -9   9   44.05    1.99
   1   9  -9   97.75    2.71
  -1  -9   9   92.17    2.42
  -1  -9   9   95.50    2.89
  -1  -9   9   96.45    2.42
   0  -9   9    9.33    0.81
   0  -9   9    9.67    1.13
  -1   9  -9   25.99    1.20
   1  -9   9   26.06    1.39
   1  -9   9   24.84    1.22
  -2   9  -9  139.87    3.30
  -2   9  -9  131.17    3.37
   2  -9   9  121.52    3.68
   2  -9   9  135.84    3.37
  -3   9  -9   48.02    1.79
   3  -9   9   46.17    1.84
   3  -9   9   48.95    1.76
  -4   9  -9   17.62    1.44
   4  -9   9   20.27    1.32
   4  -9   9   18.85    1.40
  -5   9  -9   50.59    2.30
   5  -9   9   48.43    2.20
   5  -9   9   48.95    1.80
   5  -9   9   52.04    1.94
   6  -9   9    9.47    1.24
   6  -9   9   12.31    1.32
   6   8  -9   54.84    2.62
   5   8  -9   21.85    1.76
  -5  -8   9   24.14    1.47
  -5  -8   9   23.82    1.15
   4   8  -9    6.66    0.92
  -4  -8   9    7.82    0.80
  -4  -8   9    6.27    1.01
  -4  -8   9    8.15    1.20
   3   8  -9   35.63    1.66
  -3  -8   9   35.55    1.82
  -3  -8   9   34.86    1.37
  -3  -8   9   37.07    1.29
   2   8  -9  104.26    2.93
  -2  -8   9  106.57    3.09
  -2  -8   9  105.35    2.61
  -2  -8   9  105.13    2.64
   1   8  -9    2.70    0.61
  -1  -8   9    3.69    0.49
  -1  -8   9    3.24    0.69
   0   8  -9   84.18    2.35
   0  -8   9   81.42    2.43
   0  -8   9   83.08    2.25
  -1   8  -9   52.53    1.72
   1  -8   9   54.36    1.75
   1  -8   9   55.48    1.86
  -2   8  -9   15.05    0.95
  -2   8  -9   15.00    1.06
   2  -8   9   15.12    1.09
   2  -8   9   13.58    1.29
  -3   8  -9   59.88    2.08
   3  -8   9   61.07    2.09
   3  -8   9   63.01    1.99
  -4   8  -9   45.70    1.97
   4  -8   9   48.75    1.79
   4  -8   9   47.49    1.95
   5  -8   9    0.87    0.68
   5  -8   9    0.11    0.62
   5  -8   9    0.39    0.52
   6  -8   9   35.79    1.78
   6  -8   9   28.61    2.01
   6  -8   9   28.93    1.63
   6   7  -9    3.66    0.96
  -6  -7   9    4.88    0.97
   5   7  -9   53.25    2.25
  -5  -7   9   53.56    2.03
   4   7  -9   65.62    2.33
  -4  -7   9   65.57    2.44
  -4  -7   9   64.44    1.89
  -4  -7   9   63.54    2.07
   3   7  -9   25.41    1.37
  -3  -7   9   21.90    1.34
  -3  -7   9   22.37    1.55
  -3  -7   9   24.54    1.08
   2   7  -9   24.77    1.28
  -2  -7   9   25.90    1.09
  -2  -7   9   25.79    1.46
   1   7  -9  310.71    6.92
  -1  -7   9  326.87    6.78
  -1  -7   9  315.49    6.97
  -1  -7   9  315.30    6.76
   0   7  -9    6.87    0.81
   0  -7   9    8.17    0.75
   0  -7   9    6.25    0.73
  -1   7  -9   33.02    1.33
   1  -7   9   36.49    1.43
   1  -7   9   33.60    1.36
  -2   7  -9  150.48    3.58
  -2   7  -9  153.06    3.74
   2  -7   9  138.77    4.39
   2  -7   9  153.07    3.63
  -3   7  -9   26.52    1.38
   3  -7   9   26.52    1.32
   3  -7   9   25.02    1.37
  -4   7  -9   48.97    2.03
  -4   7  -9   52.88    2.13
   4  -7   9   50.19    2.00
   4  -7   9   51.98    1.83
   5  -7   9   62.76    2.13
   5  -7   9   67.59    2.21
   5  -7   9   65.07    2.46
   6  -7   9   19.01    1.46
   6  -7   9   20.22    1.54
   6  -7   9   17.41    1.76
   7   6  -9   -0.30    0.83
  -7  -6   9    0.33    0.89
   6   6  -9   30.32    1.85
  -6  -6   9   30.96    1.87
   5   6  -9   60.20    2.24
  -5  -6   9   55.08    2.08
  -5  -6   9   53.29    2.27
   4   6  -9   15.95    1.24
  -4  -6   9   16.91    1.19
  -4  -6   9   16.26    1.39
   3   6  -9  117.13    3.30
  -3  -6   9  118.51    2.95
  -3  -6   9  116.57    3.00
  -3  -6   9  119.47    3.30
   2   6  -9   67.48    2.43
  -2  -6   9   78.55    2.16
  -2  -6   9   79.22    2.13
  -2  -6   9   80.32    2.39
   1   6  -9    3.04    0.50
  -1  -6   9    3.90    0.61
  -1  -6   9    4.63    0.68
   0   6  -9  120.43    3.01
   0  -6   9  121.38    3.02
   0  -6   9  119.38    3.06
  -1   6  -9   58.58    1.80
   1  -6   9   57.25    1.85
   1  -6   9   57.96    1.85
  -2   6  -9    1.69    0.43
  -2   6  -9    3.46    0.57
   2  -6   9    2.78    0.55
  -3   6  -9  182.01    4.42
   3  -6   9  174.17    4.37
   3  -6   9  175.66    4.20
  -4   6  -9   25.89    1.50
   4  -6   9   29.11    1.40
   4  -6   9   25.60    1.50
   5  -6   9    1.28    0.68
   5  -6   9    0.93    0.54
   5  -6   9    0.98    0.69
   6  -6   9   27.60    1.65
   6  -6   9   29.40    1.97
   7   5  -9   26.86    1.87
  -7  -5   9   28.81    2.08
   6   5  -9    1.26    0.70
  -6  -5   9    2.61    0.87
   5   5  -9   29.96    1.54
  -5  -5   9   29.90    1.65
  -5  -5   9   30.01    1.72
   4   5  -9   81.20    2.48
  -4  -5   9   83.09    2.47
  -4  -5   9   85.41    2.68
   3   5  -9    1.35    0.66
  -3  -5   9    1.12    0.50
  -3  -5   9    0.96    0.55
  -3  -5   9    0.32    0.37
   2   5  -9   76.76    2.23
  -2  -5   9   79.49    2.36
  -2  -5   9   77.30    2.19
  -2  -5   9   81.05    2.21
   1   5  -9  124.54    3.13
  -1  -5   9  125.24    3.19
  -1  -5   9  129.10    3.14
   0   5  -9   12.72    0.88
   0  -5   9   13.46    0.91
   0  -5   9   14.12    0.99
  -1   5  -9   24.28    1.12
   1  -5   9   23.65    1.17
   1  -5   9   24.33    1.19
  -2   5  -9   81.60    2.42
   2  -5   9   81.75    2.31
  -3   5  -9    8.04    1.03
  -3   5  -9    9.62    1.02
   3  -5   9    8.42    0.98
   3  -5   9    9.53    0.96
  -4   5  -9   36.35    1.69
   4  -5   9   36.48    1.57
   4  -5   9   32.55    1.65
   5  -5   9   75.55    2.44
   5  -5   9   75.54    2.65
   5  -5   9   74.95    2.48
   6  -5   9   14.82    1.47
   6  -5   9   18.68    1.72
   8   4  -9   17.09    1.56
   8   4  -9   15.95    1.73
   7   4  -9   12.21    1.37
   7   4  -9   13.54    1.30
  -7  -4   9   11.66    1.36
   6   4  -9   73.18    2.43
  -6  -4   9   73.01    2.60
  -6  -4   9   68.70    2.57
   5   4  -9   26.11    1.36
  -5  -4   9   25.59    1.65
  -5  -4   9   25.34    1.56
   4   4  -9    0.93    0.48
  -4  -4   9    2.43    0.63
  -4  -4   9    1.47    0.64
   3   4  -9   78.89    2.30
  -3  -4   9   83.60    2.36
  -3  -4   9   80.34    2.43
   2   4  -9   45.05    1.55
  -2  -4   9   42.61    1.55
  -2  -4   9   45.86    1.65
  -2  -4   9   43.56    1.54
   1   4  -9   20.55    1.04
  -1  -4   9   21.82    1.07
  -1  -4   9   21.25    1.12
   0   4  -9  136.73    3.34
   0  -4   9  140.17    3.44
   0  -4   9  138.86    3.38
  -1   4  -9   36.15    1.36
   1  -4   9   36.92    1.45
   1  -4   9   37.63    1.43
  -2   4  -9   21.70    1.31
  -2   4  -9   21.47    1.19
   2  -4   9   19.34    1.25
   2  -4   9   21.27    1.15
  -3   4  -9   74.64    2.38
   3  -4   9   74.14    2.23
   3  -4   9   73.71    2.36
  -4   4  -9   50.30    2.01
   4  -4   9   50.99    1.85
   4  -4   9   51.67    1.91
   4  -4   9   49.89    1.99
   5  -4   9   -0.06    0.60
   5  -4   9   -0.45    0.53
   5  -4   9   -0.25    0.80
   6  -4   9   48.48    2.17
   6  -4   9   50.93    2.40
   8   3  -9    9.52    1.43
   8   3  -9   12.82    1.55
   7   3  -9   21.97    1.52
   7   3  -9   20.53    1.46
  -7  -3   9   23.13    2.02
   6   3  -9    0.54    0.55
   6   3  -9   -0.10    0.46
  -6  -3   9    0.08    0.68
  -6  -3   9    1.39    0.76
   5   3  -9   67.21    2.16
  -5  -3   9   68.52    2.39
  -5  -3   9   68.59    2.38
  -4  -3   9  102.13    2.88
  -4  -3   9  102.31    2.91
   3   3  -9    3.20    0.54
  -3  -3   9    4.22    0.63
  -3  -3   9    3.61    0.60
   2   3  -9  149.31    3.57
  -2  -3   9  152.61    3.65
  -2  -3   9  152.35    3.67
  -2  -3   9  144.51    3.60
   1   3  -9  206.80    4.70
  -1  -3   9  211.31    4.78
  -1  -3   9  211.36    4.82
  -1  -3   9  206.88    4.73
   0   3  -9   65.74    1.93
   0  -3   9   65.97    1.97
   0  -3   9   63.89    1.99
   1  -3   9  126.96    3.25
   1  -3   9  124.88    3.16
  -2   3  -9  351.63    7.65
   2  -3   9  344.84    7.65
   2  -3   9  349.35    7.53
  -3   3  -9   28.21    1.44
   3  -3   9   23.98    1.35
   3  -3   9   22.47    1.28
  -4   3  -9   10.68    1.26
   4  -3   9   12.68    1.21
   4  -3   9   12.04    1.09
   4  -3   9   12.94    1.25
   5  -3   9   40.54    1.84
   5  -3   9   39.72    1.97
   6  -3   9    0.56    0.84
   6  -3   9    5.87    0.99
   8   2  -9    3.77    0.74
   8   2  -9    5.08    0.97
   7   2  -9    3.52    0.69
   7   2  -9    3.02    0.80
  -7  -2   9    3.73    1.08
  -7  -2   9    2.00    0.78
   6   2  -9   89.17    2.77
   6   2  -9   80.95    2.51
  -6  -2   9   87.86    2.79
  -6  -2   9   87.83    2.97
   5   2  -9   16.62    1.10
  -5  -2   9   17.58    1.35
  -5  -2   9   19.10    1.47
   4   2  -9   19.98    1.10
  -4  -2   9   21.38    1.30
  -4  -2   9   20.83    1.32
   3   2  -9  148.71    3.57
  -3  -2   9  149.30    3.73
  -3  -2   9  148.27    3.80
   2   2  -9   52.98    1.66
  -2  -2   9   52.46    1.73
  -2  -2   9   52.21    1.77
  -2  -2   9   52.03    1.77
   1   2  -9    9.45    0.80
  -1  -2   9   10.14    0.89
  -1  -2   9   11.62    0.89
  -1  -2   9    9.88    0.90
   0   2  -9   26.03    1.15
   0  -2   9   26.27    1.20
   0  -2   9   27.39    1.27
   1  -2   9   30.47    1.30
   1  -2   9   26.22    1.42
   2  -2   9   32.74    1.41
   2  -2   9   33.15    1.99
  -3   2  -9  105.76    3.00
   3  -2   9  100.62    2.88
   3  -2   9  101.12    2.87
   3  -2   9  107.69    3.01
  -4   2  -9   20.75    1.46
   4  -2   9   20.97    1.43
   4  -2   9   22.30    1.42
   4  -2   9   22.15    1.35
   5  -2   9    2.21    0.72
   5  -2   9    2.27    0.77
   6  -2   9   42.72    2.30
   6  -2   9   44.04    2.32
   8   1  -9   25.37    1.93
   8   1  -9   25.60    1.53
   7   1  -9   53.12    2.32
   7   1  -9   55.29    1.96
  -7  -1   9   50.97    2.17
   6   1  -9    1.81    0.54
   6   1  -9    2.70    0.69
  -6  -1   9    0.71    0.62
  -6  -1   9    1.28    0.83
  -5  -1   9   72.87    2.37
  -5  -1   9   72.81    2.54
   4   1  -9   80.23    2.25
  -4  -1   9   79.47    2.36
  -4  -1   9   80.21    2.53
   3   1  -9   32.21    1.26
  -3  -1   9   30.83    1.34
  -3  -1   9   29.93    1.44
   2   1  -9  149.70    3.51
  -2  -1   9  148.33    3.67
  -2  -1   9  143.36    3.53
  -2  -1   9  145.77    3.68
   1   1  -9   93.72    2.45
  -1  -1   9   91.13    2.59
  -1  -1   9   93.21    2.56
  -1  -1   9   92.36    2.49
   0  -1   9    1.93    0.46
   0  -1   9    2.38    0.51
   1  -1   9   79.85    2.31
   2  -1   9   70.45    2.18
   2  -1   9   69.66    2.26
  -3   1  -9    4.00    0.72
   3  -1   9    3.12    0.67
   3  -1   9    3.17    0.60
   3  -1   9    3.18    0.64
  -4   1  -9   34.62    2.17
   4  -1   9   30.49    1.63
   4  -1   9   28.54    1.62
   5  -1   9   48.07    2.17
   5  -1   9   45.35    2.14
   8   0  -9    7.59    1.17
   8   0  -9    6.89    1.13
   7   0  -9   15.47    1.60
   7   0  -9   15.25    1.12
  -7   0   9   11.91    1.36
   6   0  -9   74.31    2.21
   6   0  -9   70.96    2.58
  -6   0   9   75.22    2.78
  -6   0   9   74.74    2.45
   5   0  -9    2.53    0.50
  -5   0   9    2.19    0.76
  -5   0   9    4.40    0.66
   4   0  -9   12.84    0.90
  -4   0   9   12.20    1.18
  -4   0   9   12.14    1.04
   3   0  -9  105.23    2.66
  -3   0   9  104.06    2.73
  -3   0   9  101.14    2.90
   2   0  -9   31.01    1.33
   2   0  -9   29.32    1.21
  -2   0   9   29.01    1.26
  -2   0   9   29.84    1.38
   1   0  -9   40.33    1.43
  -1   0   9   39.85    1.57
  -1   0   9   40.62    1.48
  -1   0   9   39.68    1.55
   0   0   9  125.05    3.17
   1   0   9   86.67    2.53
   1   0   9   84.34    2.45
   2   0   9   19.17    1.24
   2   0   9   19.60    1.19
   2   0   9   21.89    1.27
   3   0   9   55.53    2.05
   3   0   9   53.78    2.02
   3   0   9   50.88    1.99
   4   0   9   25.02    1.56
   4   0   9   23.23    1.53
   5   0   9    4.14    0.94
   5   0   9    4.84    0.92
   8  -1  -9   21.28    1.97
   8  -1  -9   23.38    1.38
   7  -1  -9   44.17    2.19
   7  -1  -9   41.70    1.64
  -7   1   9   38.92    1.82
   6  -1  -9    1.22    0.69
  -6   1   9    0.43    0.75
  -6   1   9   -0.62    0.60
   5  -1  -9   77.76    2.19
  -5   1   9   77.29    2.73
  -5   1   9   77.03    2.33
   4  -1  -9   59.35    1.85
   4  -1  -9   58.10    1.77
  -4   1   9   58.89    1.90
  -4   1   9   56.59    2.16
   3  -1  -9    0.30    0.35
  -3   1   9    0.54    0.44
  -3   1   9    0.53    0.54
   2  -1  -9  104.17    2.62
  -2   1   9   96.06    2.89
  -2   1   9   99.88    2.82
  -2   1   9  101.09    2.66
  -1   1   9   79.87    2.24
  -1   1   9   72.80    2.60
  -1   1   9   79.62    2.35
   0   1   9   15.10    1.03
   0   1   9   13.79    1.06
   0   1   9   14.09    1.03
   1   1   9   74.24    2.35
   1   1   9   77.65    2.33
   2   1   9  103.83    2.94
   2   1   9   98.55    2.91
   2   1   9  100.41    2.91
   3   1   9    0.14    0.54
   3   1   9    0.02    0.57
   4   1   9   22.48    1.56
   4   1   9   20.12    1.60
   8  -2  -9    2.38    1.01
   8  -2  -9    2.26    0.64
  -8   2   9   -0.24    0.82
   7  -2  -9   18.44    1.18
   7  -2  -9   18.15    1.67
  -7   2   9   17.63    1.37
   6  -2  -9   45.56    2.07
   6  -2  -9   47.81    1.67
  -6   2   9   46.39    1.85
   5  -2  -9   17.07    1.00
  -5   2   9   17.87    1.60
  -5   2   9   18.54    1.19
   4  -2  -9   21.67    1.06
  -4   2   9   21.95    1.49
  -4   2   9   20.77    1.15
   3  -2  -9   70.40    1.99
  -3   2   9   68.30    2.04
  -3   2   9   69.56    2.34
  -2   2   9    7.61    0.97
  -2   2   9    8.50    0.96
  -2   2   9    6.81    0.85
  -1   2   9   89.36    2.52
  -1   2   9   92.42    2.65
  -1   2   9   94.74    2.70
   0   2   9  112.20    3.25
   0   2   9  114.57    3.08
   0   2   9  115.36    3.04
   1   2   9   21.16    1.30
   1   2   9   20.61    1.27
   1   2   9   23.40    1.31
   2   2   9   22.21    1.35
   2   2   9   22.72    1.45
   2   2   9   23.87    1.68
   3   2   9   61.72    2.23
   3   2   9   61.33    2.37
   4   2   9   21.18    1.82
   4   2   9   23.38    1.62
   8  -3  -9   46.66    1.79
   8  -3  -9   51.22    3.80
   7  -3  -9   12.36    1.85
   7  -3  -9   11.57    1.62
  -7   3   9   12.31    1.31
   6  -3  -9    1.04    0.67
   6  -3  -9    1.51    0.49
  -6   3   9    0.65    0.61
   5  -3  -9   74.94    2.08
  -5   3   9   76.49    2.23
  -5   3   9   70.65    2.72
   4  -3  -9   87.87    2.33
  -4   3   9   87.39    2.41
  -4   3   9   86.09    2.84
  -3   3   9    1.26    0.63
  -3   3   9    2.39    0.50
  -2   3   9   81.56    2.51
  -2   3   9   82.42    2.32
  -2   3   9   78.29    2.49
  -1   3   9  115.85    3.04
  -1   3   9  117.14    3.19
  -1   3   9  114.82    3.13
   0   3   9    0.59    0.45
   0   3   9    0.78    0.53
   0   3   9    0.48    0.48
   0   3   9    0.22    0.50
   1   3   9   44.71    1.80
   1   3   9   45.18    1.75
   1   3   9   44.79    1.83
   1   3   9   43.67    1.82
   2   3   9   36.94    1.83
   2   3   9   36.81    1.70
   3   3   9   -0.31    0.74
   3   3   9    0.06    0.60
   7  -4  -9   23.67    1.26
   7  -4  -9   28.72    1.92
   6  -4  -9   50.13    1.62
   6  -4  -9   49.45    2.20
  -6   4   9   47.42    2.30
  -5   4   9    8.10    0.98
  -4   4   9   69.83    2.06
  -4   4   9   66.59    2.50
  -3   4   9   74.45    2.19
  -3   4   9   77.02    2.57
  -2   4   9   11.91    1.00
  -2   4   9   12.44    1.09
  -2   4   9   11.62    1.20
  -1   4   9    7.41    0.99
  -1   4   9    7.78    1.02
  -1   4   9    7.64    0.91
  -1   4   9    7.89    0.96
   0   4   9   71.83    2.34
   0   4   9   76.38    2.40
   0   4   9   74.22    2.36
   0   4   9   74.29    2.39
   1   4   9    3.93    0.70
   1   4   9    3.03    0.70
   1   4   9    3.88    0.67
   2   4   9   17.33    1.55
   2   4   9   17.78    1.36
   2   4   9   20.38    1.37
   7  -5  -9   22.88    1.87
  -6   5   9    0.52    0.83
  -5   5   9   34.72    1.65
  -4   5   9   35.02    1.56
  -3   5   9    5.46    0.85
  -2   5   9   70.90    2.16
  -2   5   9   63.88    2.35
  -2   5   9   67.76    2.34
  -2   5   9   70.61    2.14
  -1   5   9   57.02    2.07
  -1   5   9   55.44    1.97
  -1   5   9   57.30    2.01
  -1   5   9   53.34    2.05
   0   5   9    0.12    0.55
   0   5   9    1.03    0.62
   0   5   9    0.60    0.58
   0   5   9    0.02    0.60
   1   5   9   48.81    2.11
   1   5   9   44.60    1.88
   1   5   9   46.40    1.91
   2   5   9   25.74    1.92
  -4   6   9   13.67    1.11
  -4   6   9   15.08    1.08
  -3   6   9   56.40    1.89
  -3   6   9   54.84    1.85
  -2   6   9    1.83    0.65
  -2   6   9    1.77    0.57
  -2   6   9    2.44    0.92
  -2   6   9    1.43    0.56
  -1   6   9   21.94    1.45
  -1   6   9   20.82    1.38
  -1   6   9   21.27    1.40
  -1   6   9   21.32    1.49
   0   6   9   46.26    2.03
   0   6   9   43.67    1.92
   0   6   9   43.45    2.27
  -4   7   9   29.86    1.42
  -3   7   9    4.33    0.87
  -3   7   9    4.47    0.69
  -2   7   9   79.52    2.73
  -2   7   9   82.46    2.57
  -2   7   9   79.46    2.46
   0  13 -10   17.06    1.40
  -1  13 -10   86.96    2.85
   1 -13  10   84.40    3.06
   1 -13  10   91.16    2.63
  -2  13 -10   55.82    2.05
   2 -13  10   55.07    2.19
   2 -13  10   55.16    2.43
   2  12 -10    4.86    0.89
   1  12 -10   34.39    1.74
  -1 -12  10   33.28    1.31
   0  12 -10   47.93    1.90
   0 -12  10   46.85    1.67
   0 -12  10   47.14    1.62
   0 -12  10   41.99    2.24
  -1  12 -10   11.21    1.08
   1 -12  10    7.32    1.16
   1 -12  10    8.28    1.14
  -2  12 -10   32.75    1.47
   2 -12  10   31.20    1.67
   2 -12  10   29.12    1.92
  -3  12 -10   46.04    1.91
  -3  12 -10   48.45    1.75
   3 -12  10   45.26    2.02
   3 -12  10   46.19    2.07
   4 -12  10   -0.15    0.82
   4  11 -10   21.20    1.99
   3  11 -10   11.29    1.56
  -3 -11  10   12.70    1.21
   2  11 -10   71.65    2.59
  -2 -11  10   73.59    2.06
  -2 -11  10   76.77    2.01
   1  11 -10   16.64    1.29
  -1 -11  10   15.05    1.01
  -1 -11  10   11.60    1.66
   0  11 -10   18.90    1.25
   0 -11  10   15.58    1.73
   0 -11  10   19.03    1.14
  -1  11 -10   78.90    2.37
   1 -11  10   79.40    2.68
   1 -11  10   78.10    2.42
  -2  11 -10   28.87    1.35
   2 -11  10   27.26    1.50
   2 -11  10   25.94    1.66
  -3  11 -10   40.82    1.82
  -3  11 -10   41.17    1.61
   3 -11  10   41.53    1.86
   3 -11  10   39.09    1.88
   4 -11  10   45.58    1.95
   4 -11  10   42.95    2.09
   4  10 -10   32.63    2.08
  -4 -10  10   32.98    1.28
   3  10 -10   20.49    1.58
  -3 -10  10   20.85    1.06
  -3 -10  10   18.90    1.26
   2  10 -10    2.62    0.66
  -2 -10  10   -0.82    0.84
  -2 -10  10    2.52    0.50
   1  10 -10  125.57    3.33
  -1 -10  10  119.61    3.00
  -1 -10  10  124.75    3.01
  -1 -10  10  114.73    3.52
   0  10 -10   49.00    1.82
   0 -10  10   49.51    1.69
   0 -10  10   49.52    2.10
  -1  10 -10    1.40    0.49
   1 -10  10    1.16    0.65
   1 -10  10    1.86    0.70
  -2  10 -10   45.01    1.71
  -2  10 -10   43.51    1.65
   2 -10  10   44.62    1.78
   2 -10  10   43.49    1.87
  -3  10 -10   63.16    2.28
   3 -10  10   67.32    2.31
   3 -10  10   65.74    2.28
   4 -10  10    0.14    0.72
   4 -10  10    0.29    0.72
   5 -10  10   30.23    2.02
   5 -10  10   32.76    1.78
   5   9 -10   58.33    2.63
  -5  -9  10   56.51    1.83
   4   9 -10    4.68    0.89
  -4  -9  10    5.38    0.64
  -4  -9  10    7.20    0.85
   3   9 -10    5.31    0.83
  -3  -9  10    4.68    0.60
  -3  -9  10    5.40    0.73
   2   9 -10   75.51    2.45
  -2  -9  10   72.98    2.68
  -2  -9  10   74.31    2.16
  -2  -9  10   77.69    2.11
   1   9 -10   14.55    1.10
  -1  -9  10   11.36    0.99
  -1  -9  10   12.93    0.93
  -1  -9  10   12.21    1.40
   0   9 -10   77.20    2.33
   0  -9  10   80.56    2.26
   0  -9  10   75.27    2.47
  -1   9 -10   65.05    2.05
   1  -9  10   66.19    2.22
  -2   9 -10   41.29    1.63
  -2   9 -10   43.10    1.67
   2  -9  10   45.20    1.78
   2  -9  10   40.90    1.71
  -3   9 -10   21.09    1.43
   3  -9  10   22.61    1.41
   3  -9  10   22.44    1.43
   4  -9  10   73.55    2.41
   4  -9  10   68.10    2.51
   5  -9  10   10.43    1.26
   5  -9  10   11.81    1.19
   6   8 -10   19.69    2.01
   5   8 -10    7.67    1.02
  -5  -8  10    9.48    1.48
  -5  -8  10    9.36    1.04
   4   8 -10   83.50    2.77
  -4  -8  10   81.20    2.52
  -4  -8  10   82.62    2.31
   3   8 -10   40.08    1.81
  -3  -8  10   41.57    1.60
  -3  -8  10   43.32    2.07
  -3  -8  10   42.23    1.50
   2   8 -10    1.21    0.53
  -2  -8  10    0.64    0.52
  -2  -8  10    0.82    0.41
  -2  -8  10    1.71    0.74
   1   8 -10  105.97    2.91
  -1  -8  10  107.35    2.77
  -1  -8  10  105.43    2.77
  -1  -8  10  107.82    3.05
   0   8 -10  143.68    3.82
   0  -8  10  140.23    3.63
   0  -8  10  139.43    3.48
  -1   8 -10    2.48    0.52
   1  -8  10    2.49    0.95
   1  -8  10    1.79    0.61
  -2   8 -10   67.46    2.07
  -2   8 -10   63.09    2.16
   2  -8  10   68.54    2.17
   2  -8  10   70.00    2.22
  -3   8 -10   96.02    2.88
   3  -8  10   93.00    2.68
   3  -8  10   90.62    2.78
  -4   8 -10    1.22    1.00
   4  -8  10   -1.03    0.59
   4  -8  10    0.25    0.68
   5  -8  10   27.18    1.51
   5  -8  10   28.08    1.90
   5  -8  10   26.91    1.66
   6   7 -10   27.77    1.92
  -6  -7  10   26.07    1.87
   5   7 -10   49.76    2.17
  -5  -7  10   49.34    2.09
   4   7 -10   11.98    1.26
  -4  -7  10   12.96    1.01
  -4  -7  10   13.42    1.29
   3   7 -10   49.61    1.90
  -3  -7  10   50.02    1.81
  -3  -7  10   48.81    1.67
  -3  -7  10   51.39    2.17
   2   7 -10   96.80    2.77
  -2  -7  10  101.25    2.64
  -2  -7  10   99.99    2.93
  -2  -7  10   98.72    2.68
   1   7 -10   11.10    0.98
  -1  -7  10   11.12    1.17
  -1  -7  10   11.88    0.98
  -1  -7  10   11.94    0.92
   0   7 -10   36.45    1.47
   0  -7  10   38.80    1.61
   0  -7  10   38.70    1.48
  -1   7 -10   98.37    2.76
   1  -7  10  100.90    2.75
   1  -7  10   97.62    2.98
  -2   7 -10    3.79    0.62
  -2   7 -10    3.10    0.52
   2  -7  10    3.75    0.62
   2  -7  10    3.90    0.66
  -3   7 -10   33.68    1.66
   3  -7  10   34.84    1.65
   3  -7  10   33.95    1.59
   4  -7  10   89.72    2.74
   4  -7  10   90.74    2.90
   5  -7  10   16.31    1.30
   5  -7  10   13.58    1.56
   5  -7  10   19.72    2.42
   7   6 -10   37.90    2.21
  -7  -6  10   38.89    2.34
   6   6 -10    7.67    1.05
  -6  -6  10    7.37    1.13
   5   6 -10    7.89    0.93
  -5  -6  10    9.90    1.46
   4   6 -10   70.97    2.35
  -4  -6  10   69.66    2.16
  -4  -6  10   70.37    2.58
  -4  -6  10   71.23    2.32
   3   6 -10  120.07    3.21
  -3  -6  10  123.64    3.41
  -3  -6  10  116.58    3.07
  -3  -6  10  119.54    3.15
   2   6 -10   27.73    1.35
  -2  -6  10   27.60    1.31
  -2  -6  10   27.59    1.46
  -2  -6  10   26.21    1.22
   1   6 -10   91.66    2.54
  -1  -6  10   89.05    2.52
  -1  -6  10   91.21    2.62
  -1  -6  10   92.15    2.53
   0   6 -10   74.49    2.21
   0  -6  10   76.36    2.25
   0  -6  10   74.50    2.27
  -1   6 -10    2.43    0.50
   1  -6  10    2.24    0.55
   1  -6  10    2.58    0.55
  -2   6 -10   97.63    2.82
   2  -6  10   96.30    2.80
   2  -6  10   98.00    2.73
  -3   6 -10   31.03    1.73
  -3   6 -10   31.84    1.60
   3  -6  10   30.71    1.56
   3  -6  10   30.73    1.50
   4  -6  10    0.72    0.65
   4  -6  10    0.42    0.63
   5  -6  10   64.44    2.56
   5  -6  10   64.11    2.30
   6  -6  10   40.91    2.09
   7   5 -10    6.29    0.99
  -7  -5  10    4.99    1.15
   6   5 -10   24.02    1.54
  -6  -5  10   23.28    1.89
   5   5 -10   40.71    1.74
  -5  -5  10   37.93    1.95
  -5  -5  10   41.87    1.96
   4   5 -10   10.96    1.05
  -4  -5  10   12.96    1.23
  -4  -5  10   10.77    1.33
   3   5 -10   53.48    1.87
  -3  -5  10   58.45    2.06
  -3  -5  10   51.86    1.89
  -3  -5  10   53.18    1.81
   2   5 -10   96.03    2.62
  -2  -5  10   93.58    2.71
  -2  -5  10   96.06    2.63
  -2  -5  10   93.33    2.63
   1   5 -10    5.17    0.78
  -1  -5  10    5.89    0.71
  -1  -5  10    4.31    0.61
  -1  -5  10    5.98    0.82
   0   5 -10    8.26    0.87
   0  -5  10    9.04    0.98
   0  -5  10    8.42    0.91
  -1   5 -10  207.63    4.77
   1  -5  10  202.70    4.86
   1  -5  10  208.38    4.81
  -2   5 -10    1.69    0.50
   2  -5  10    0.52    0.49
   2  -5  10    0.99    0.51
  -3   5 -10   57.91    2.18
   3  -5  10   60.74    2.15
   3  -5  10   59.13    2.06
   4  -5  10   46.22    1.90
   4  -5  10   45.16    1.99
   5  -5  10   16.89    1.61
   5  -5  10   18.73    1.41
   7   4 -10   44.38    2.02
   6   4 -10   20.20    1.37
  -6  -4  10   18.97    1.83
   5   4 -10   11.23    1.09
  -5  -4  10    9.41    1.38
  -5  -4  10   12.19    1.40
   4   4 -10   75.68    2.32
  -4  -4  10   74.53    2.45
  -4  -4  10   78.19    2.52
   3   4 -10   54.41    1.85
  -3  -4  10   57.04    2.01
  -3  -4  10   58.21    1.99
  -3  -4  10   54.47    1.95
   2   4 -10   21.34    1.15
  -2  -4  10   22.12    1.24
  -2  -4  10   22.99    1.30
  -2  -4  10   19.56    1.14
   1   4 -10   48.50    2.33
  -1  -4  10   47.42    1.74
  -1  -4  10   49.96    1.76
  -1  -4  10   50.88    1.76
   0   4 -10   46.40    1.67
   0  -4  10   48.92    1.72
  -1   4 -10    0.10    0.36
   1  -4  10    0.25    0.45
   1  -4  10    0.26    0.46
  -2   4 -10  133.11    3.76
   2  -4  10  133.00    3.53
   2  -4  10  133.48    3.43
  -3   4 -10   46.31    1.92
   3  -4  10   47.09    1.83
   3  -4  10   45.88    1.90
   4  -4  10    0.92    0.53
   4  -4  10    0.48    0.62
   5  -4  10   35.78    2.02
   5  -4  10   35.29    1.84
   8   3 -10   24.39    1.74
   8   3 -10   24.08    1.90
   7   3 -10    1.21    0.62
   6   3 -10   24.41    1.38
  -6  -3  10   18.55    1.59
  -6  -3  10   23.59    1.90
   5   3 -10   42.43    1.67
  -5  -3  10   44.26    1.96
  -5  -3  10   43.32    1.99
   4   3 -10    0.82    0.45
  -4  -3  10    1.06    0.56
  -4  -3  10    0.74    0.61
   3   3 -10   97.35    2.65
  -3  -3  10   94.97    2.77
  -3  -3  10   98.09    2.75
   2   3 -10  160.74    4.33
  -2  -3  10  156.01    3.85
  -2  -3  10  154.20    3.88
  -1  -3  10   15.13    1.05
  -1  -3  10   14.19    1.04
   0   3 -10  178.67    4.26
   0  -3  10  179.30    4.39
   0  -3  10  180.66    4.27
  -1   3 -10  183.76    4.69
   1  -3  10  181.85    4.37
   1  -3  10  183.70    4.48
   2  -3  10   28.93    1.41
   2  -3  10   27.12    1.44
  -3   3 -10   31.29    1.66
   3  -3  10   31.28    1.56
   3  -3  10   34.04    1.66
   4  -3  10   75.55    2.53
   4  -3  10   75.40    2.63
   5  -3  10    0.59    0.80
   5  -3  10    1.39    0.78
   8   2 -10    5.06    1.05
   8   2 -10    5.57    0.88
   7   2 -10   30.20    1.58
   7   2 -10   30.67    1.91
   6   2 -10   17.20    1.20
  -6  -2  10   13.79    1.48
  -6  -2  10   22.23    1.82
   5   2 -10   27.25    1.35
  -5  -2  10   29.33    1.61
  -5  -2  10   29.98    1.76
   4   2 -10  104.90    2.85
  -4  -2  10  103.67    3.05
  -4  -2  10  105.38    2.95
   3   2 -10   83.30    2.40
  -3  -2  10   81.68    2.52
  -3  -2  10   82.42    2.43
  -2  -2  10    3.25    0.55
  -2  -2  10    5.01    0.68
  -2  -2  10    4.23    0.64
   1   2 -10   98.24    2.98
  -1  -2  10  104.87    2.80
  -1  -2  10  107.76    2.92
  -1  -2  10  101.92    2.83
   0   2 -10   60.81    1.94
   0   2 -10   63.77    2.22
   0  -2  10   62.11    2.64
   0  -2  10   63.37    2.01
   1  -2  10   12.81    1.10
   1  -2  10   13.18    1.03
   2  -2  10   70.27    2.36
   2  -2  10   70.01    2.25
   3  -2  10   25.66    1.65
   3  -2  10   23.02    1.38
   3  -2  10   23.60    1.50
   4  -2  10    4.00    0.84
   4  -2  10    5.01    0.81
   5  -2  10   53.41    2.44
   5  -2  10   56.51    2.41
   8   1 -10   32.34    2.19
   8   1 -10   30.89    1.69
   7   1 -10    3.58    0.67
   7   1 -10    1.99    0.87
  -7  -1  10    1.26    0.78
   6   1 -10   67.87    2.18
  -6  -1  10   67.79    2.46
  -6  -1  10   71.16    3.19
   5   1 -10   80.43    2.34
  -5  -1  10   77.02    2.49
  -5  -1  10   77.38    2.71
   4   1 -10    2.49    0.51
  -4  -1  10    3.07    0.72
  -4  -1  10    2.77    0.64
   3   1 -10   35.69    1.65
  -3  -1  10   39.49    1.69
  -3  -1  10   39.46    1.61
   2   1 -10   57.36    2.32
  -2  -1  10   65.18    2.04
  -2  -1  10   65.48    2.15
  -2  -1  10   65.91    2.15
   1   1 -10    0.97    0.65
   1   1 -10    1.17    0.42
  -1  -1  10    1.43    0.52
  -1  -1  10    0.57    0.46
  -1  -1  10    1.01    0.47
   0  -1  10   78.56    2.35
   0  -1  10   81.17    2.48
   1  -1  10   73.61    2.28
   1  -1  10   72.23    2.36
   2  -1  10    1.08    0.57
   2  -1  10    0.48    0.54
   3  -1  10   27.19    1.59
   3  -1  10   28.48    1.54
   4  -1  10   42.57    2.01
   4  -1  10   41.99    2.01
   5  -1  10    3.17    0.95
   8   0 -10   13.72    1.33
   8   0 -10   12.29    1.91
   7   0 -10   31.29    1.51
   7   0 -10   31.47    2.01
  -7   0  10   27.91    1.80
   6   0 -10   11.89    1.05
  -6   0  10   10.39    1.32
   5   0 -10   18.05    1.12
  -5   0  10   21.13    1.64
  -5   0  10   16.30    1.27
   4   0 -10   89.01    2.52
  -4   0  10   90.05    2.85
  -4   0  10   87.85    2.57
   3   0 -10   15.03    1.18
   3   0 -10   16.88    1.13
  -3   0  10   17.21    1.13
  -3   0  10   19.20    1.30
   2   0 -10   38.24    1.50
  -2   0  10   41.75    2.12
  -2   0  10   37.47    1.62
  -2   0  10   40.84    1.69
  -1   0  10  156.41    3.82
  -1   0  10  154.78    3.90
  -1   0  10  152.62    3.95
   0   0  10   27.68    1.42
   0   0  10   26.37    1.32
   0   0  10   25.66    1.37
   1   0  10    1.71    0.56
   1   0  10    2.20    0.61
   2   0  10   56.38    2.10
   2   0  10   59.23    2.18
   2   0  10   55.91    2.45
   3   0  10   27.37    1.60
   3   0  10   28.60    1.62
   4   0  10   12.28    1.49
   4   0  10   16.06    1.55
   8  -1 -10   26.48    1.56
  -8   1  10   18.70    2.91
   7  -1 -10    1.29    0.55
   7  -1 -10    0.90    0.86
  -7   1  10   -0.62    0.76
   6  -1 -10   29.73    1.36
  -6   1  10   27.53    1.59
   5  -1 -10   45.28    1.70
   5  -1 -10   44.40    1.61
  -5   1  10   43.23    2.15
  -5   1  10   45.28    1.78
   4  -1 -10    0.13    0.42
  -4   1  10    0.26    0.67
  -4   1  10   -0.23    0.51
   3  -1 -10   64.54    2.13
  -3   1  10   63.71    2.31
  -3   1  10   66.92    2.08
  -2   1  10   74.77    2.40
  -2   1  10   71.51    2.36
  -2   1  10   70.22    2.18
  -1   1  10    1.54    0.53
  -1   1  10    0.96    0.49
  -1   1  10    1.14    0.55
   0   1  10   97.86    2.81
   0   1  10   97.91    2.86
   0   1  10  103.71    2.95
   1   1  10   86.33    2.66
   1   1  10   79.84    2.54
   2   1  10    2.01    0.69
   2   1  10    2.35    0.67
   3   1  10   42.03    1.94
   3   1  10   41.43    2.03
   4   1  10   40.92    2.10
   7  -2 -10   47.60    1.75
   7  -2 -10   45.91    2.37
  -7   2  10   42.87    2.05
   6  -2 -10    6.59    0.97
  -6   2  10    5.38    0.81
   5  -2 -10    7.91    0.91
  -5   2  10    7.25    0.81
   4  -2 -10   63.28    1.98
  -4   2  10   65.64    2.07
  -4   2  10   60.63    2.44
  -3   2  10    5.72    0.71
  -3   2  10    8.28    1.22
  -2   2  10   15.15    1.20
  -2   2  10   16.00    1.12
  -2   2  10   16.26    1.28
  -1   2  10   71.62    2.39
  -1   2  10   72.06    2.24
  -1   2  10   70.32    2.35
   0   2  10   29.26    1.48
   0   2  10   30.29    1.52
   0   2  10   28.32    1.51
   1   2  10   35.52    1.72
   1   2  10   39.28    1.70
   1   2  10   35.43    1.71
   2   2  10   70.59    2.47
   2   2  10   69.07    2.53
   3   2  10   13.88    1.56
   3   2  10   11.93    1.42
   7  -3 -10    3.18    0.66
   7  -3 -10    1.97    0.98
  -7   3  10    0.11    0.88
   6  -3 -10   47.23    1.66
  -6   3  10   41.07    1.84
   5  -3 -10   41.53    1.52
  -5   3  10   38.40    1.63
  -4   3  10   -0.82    0.48
  -3   3  10  160.04    3.83
  -3   3  10  149.53    4.12
  -2   3  10   54.44    1.88
  -2   3  10   52.09    2.07
  -2   3  10   52.63    2.05
  -1   3  10    0.79    0.53
  -1   3  10    1.07    0.61
  -1   3  10    0.20    0.51
   0   3  10   39.92    1.74
   0   3  10   41.03    1.76
   0   3  10   39.35    1.97
   0   3  10   41.91    1.76
   1   3  10   46.01    2.01
   1   3  10   45.76    1.93
   2   3  10   -0.84    0.64
   2   3  10   -0.88    0.70
  -6   4  10   -1.29    0.70
  -5   4  10   26.49    1.40
  -4   4  10   79.18    2.35
  -3   4  10   23.46    1.26
  -2   4  10   32.79    1.66
  -2   4  10   31.07    1.49
  -1   4  10   34.36    1.56
  -1   4  10   33.39    1.58
  -1   4  10   31.40    1.69
   0   4  10   14.99    1.33
   0   4  10   15.33    1.34
   1   4  10   12.32    1.43
   1   4  10   14.83    1.36
  -5   5  10    8.65    1.04
  -4   5  10    2.60    0.61
  -3   5  10   38.51    1.95
  -3   5  10   42.98    1.70
  -3   5  10   44.27    1.68
  -2   5  10   46.48    1.81
  -2   5  10   42.91    1.98
  -2   5  10   41.43    1.75
  -1   5  10    2.00    0.70
  -1   5  10    1.20    0.72
   0   5  10   37.76    1.93
   0   5  10   39.22    1.91
  -4   6  10   34.51    1.52
  -3   6  10   15.25    1.24
  -3   6  10   17.51    1.27
  -3   6  10   12.70    1.51
  -2   6  10   18.03    1.58
  -2   6  10   18.18    1.41
   2  12 -11   46.96    2.25
   1  12 -11   60.97    2.31
  -1 -12  11   53.32    2.57
   0  12 -11   14.71    1.32
   0 -12  11   12.90    1.44
  -1  12 -11   23.78    1.41
   1 -12  11   19.31    1.44
  -2  12 -11   51.40    1.93
   2 -12  11   49.81    2.07
   2 -12  11   47.06    2.30
   3  11 -11   70.47    2.77
   2  11 -11    7.67    0.99
  -2 -11  11    6.79    0.73
  -2 -11  11    9.11    1.35
   1  11 -11   22.80    1.48
  -1 -11  11   18.50    1.23
  -1 -11  11   21.80    1.38
   0  11 -11   56.21    2.07
  -1  11 -11   27.63    1.43
   1 -11  11   26.54    1.46
   1 -11  11   23.17    1.81
  -2  11 -11   18.70    1.25
   2 -11  11   16.92    1.64
   2 -11  11   16.06    1.37
   3 -11  11   60.60    2.41
   3 -11  11   58.58    2.33
   4  10 -11   25.74    1.96
  -4 -10  11   25.89    1.84
   3  10 -11    2.07    0.75
  -3 -10  11    2.96    0.79
  -3 -10  11    2.57    0.57
   2  10 -11   48.16    2.02
  -2 -10  11   46.23    1.69
  -2 -10  11   49.28    1.85
   1  10 -11   59.44    2.15
  -1 -10  11   57.87    2.01
  -1 -10  11   57.87    1.93
  -1 -10  11   64.65    3.78
   0  10 -11    1.41    0.57
   0 -10  11    1.13    0.57
   0 -10  11    1.56    0.84
  -1  10 -11   74.98    2.34
   1 -10  11   70.19    2.55
   1 -10  11   74.38    2.34
  -2  10 -11   39.13    1.63
   2 -10  11   38.87    1.76
   2 -10  11   38.91    2.03
   3 -10  11    2.60    0.87
   3 -10  11    0.11    0.66
   4 -10  11   50.44    2.51
   4 -10  11   43.26    2.17
   5   9 -11    7.03    1.18
   4   9 -11   14.64    1.53
  -4  -9  11   14.21    1.58
  -4  -9  11   13.17    1.14
   3   9 -11   47.84    2.08
  -3  -9  11   51.12    1.77
  -3  -9  11   50.02    1.95
   2   9 -11    2.90    0.65
  -2  -9  11    2.81    0.57
  -2  -9  11    2.56    0.70
   1   9 -11   23.75    1.37
  -1  -9  11   22.86    1.67
  -1  -9  11   23.38    1.38
  -1  -9  11   21.81    1.44
   0   9 -11   93.82    2.73
   0  -9  11   94.54    2.92
   0  -9  11   94.83    2.68
  -1   9 -11   19.59    1.21
   1  -9  11   18.09    1.53
   1  -9  11   16.68    1.21
  -2   9 -11   16.38    1.14
   2  -9  11   16.20    1.28
   2  -9  11   18.75    1.51
   3  -9  11   51.14    2.16
   3  -9  11   50.71    2.10
   4  -9  11   29.09    1.85
   5   8 -11   45.02    2.22
  -5  -8  11   43.41    2.08
  -5  -8  11   43.20    1.75
   4   8 -11   46.48    2.06
  -4  -8  11   45.78    2.04
   3   8 -11    0.55    0.56
  -3  -8  11    0.42    0.67
  -3  -8  11   -0.82    0.51
   2   8 -11  103.97    3.04
  -2  -8  11  106.09    2.93
  -2  -8  11  105.37    3.23
  -2  -8  11  111.59    2.95
   1   8 -11   77.07    2.38
  -1  -8  11   79.41    2.32
  -1  -8  11   64.94    3.06
  -1  -8  11   75.44    2.54
   0   8 -11    0.30    0.45
   0  -8  11    0.87    0.66
   0  -8  11    0.60    0.50
  -1   8 -11  103.07    2.87
   1  -8  11  103.78    2.92
   1  -8  11  102.95    2.98
  -2   8 -11   75.85    2.33
   2  -8  11   78.50    2.48
   2  -8  11   74.37    2.48
   3  -8  11    0.81    0.63
   3  -8  11    1.20    0.72
   4  -8  11   48.30    2.19
   5  -8  11   48.97    2.44
   5  -8  11   48.52    2.07
   6   7 -11   43.29    2.25
  -6  -7  11   43.16    2.34
   5   7 -11   -0.43    0.60
  -5  -7  11    0.91    0.57
  -5  -7  11    0.87    0.86
   4   7 -11   29.98    1.61
  -4  -7  11   29.83    1.41
  -4  -7  11   29.27    1.71
   3   7 -11   72.02    2.36
  -3  -7  11   74.49    2.35
  -3  -7  11   66.06    2.45
  -3  -7  11   68.87    2.58
   2   7 -11   28.76    1.42
  -2  -7  11   27.79    1.45
  -2  -7  11   28.60    1.67
   1   7 -11   33.19    1.49
  -1  -7  11   33.58    1.67
  -1  -7  11   32.54    1.50
  -1  -7  11   33.85    1.48
   0   7 -11   85.07    2.52
   0  -7  11   87.75    2.56
   0  -7  11   87.74    2.66
  -1   7 -11   12.70    1.05
   1  -7  11   12.98    1.24
   1  -7  11   12.25    1.07
  -2   7 -11   55.53    1.94
   2  -7  11   60.38    2.13
   2  -7  11   56.39    2.09
   3  -7  11   66.65    2.41
   3  -7  11   66.19    2.35
   4  -7  11   19.17    1.60
   5  -7  11    4.05    0.84
   5  -7  11    5.38    1.07
   6   6 -11    4.38    0.85
  -6  -6  11    5.16    1.15
   5   6 -11   65.30    2.36
  -5  -6  11   63.70    2.52
   4   6 -11   25.43    1.45
  -4  -6  11   25.44    1.61
  -4  -6  11   26.09    1.35
   3   6 -11    3.65    0.64
  -3  -6  11    2.81    0.79
  -3  -6  11    3.77    0.73
  -3  -6  11    5.90    0.89
   2   6 -11  104.26    2.90
  -2  -6  11  105.33    2.91
  -2  -6  11  106.44    3.32
  -2  -6  11   98.96    3.00
   1   6 -11   46.80    1.74
  -1  -6  11   49.47    1.79
  -1  -6  11   46.03    1.87
  -1  -6  11   46.36    1.78
   0   6 -11    2.74    0.56
   0  -6  11    2.96    0.63
   0  -6  11    3.78    0.64
  -1   6 -11   55.48    1.91
   1  -6  11   56.39    2.01
   1  -6  11   57.03    2.03
   2  -6  11   52.74    2.03
   2  -6  11   54.28    2.02
   3  -6  11    5.22    0.79
   3  -6  11    4.86    0.78
   4  -6  11   60.26    2.40
   5  -6  11   36.61    2.20
   5  -6  11   38.97    1.97
   7   5 -11   21.58    1.76
   6   5 -11   30.02    1.70
  -6  -5  11   25.45    2.10
   5   5 -11    5.90    0.81
  -5  -5  11    5.06    1.02
   4   5 -11   44.40    1.79
  -4  -5  11   45.67    2.09
  -4  -5  11   46.48    1.82
  -4  -5  11   47.33    1.98
   3   5 -11   92.58    2.67
  -3  -5  11   91.46    2.84
  -3  -5  11   92.53    2.68
  -3  -5  11   92.06    2.75
   2   5 -11    2.50    0.55
  -2  -5  11    2.64    0.58
  -2  -5  11    2.49    0.64
  -2  -5  11    4.17    0.69
   1   5 -11   57.34    1.95
  -1  -5  11   60.75    2.05
  -1  -5  11   58.75    2.06
  -1  -5  11   61.85    2.06
   0   5 -11   56.70    1.90
   0  -5  11   54.10    1.95
   0  -5  11   52.38    1.93
  -1   5 -11   11.75    1.01
   1  -5  11   12.24    1.11
   1  -5  11   14.20    1.20
  -2   5 -11   23.36    1.61
   2  -5  11   23.54    1.44
   2  -5  11   26.18    1.47
   3  -5  11   79.10    2.66
   4  -5  11    5.68    0.94
   4  -5  11    4.09    0.76
   5  -5  11   18.67    1.92
   5  -5  11   16.33    1.55
   7   4 -11    9.30    1.43
   6   4 -11    4.33    0.75
  -6  -4  11    5.09    1.25
   5   4 -11   46.16    1.85
  -5  -4  11   47.98    2.22
  -5  -4  11   46.18    2.55
   4   4 -11   52.78    1.91
  -4  -4  11   51.66    2.11
  -4  -4  11   53.95    2.14
   3   4 -11    0.24    0.43
  -3  -4  11    0.42    0.48
  -3  -4  11   -0.08    0.58
  -3  -4  11    1.15    0.63
   2   4 -11   54.65    1.88
  -2  -4  11   55.65    1.99
  -2  -4  11   53.53    1.96
  -2  -4  11   56.65    2.01
   1   4 -11   87.69    2.53
  -1  -4  11   86.02    2.59
  -1  -4  11   90.96    2.61
  -1  -4  11   87.02    2.62
   0   4 -11    3.51    0.57
   0  -4  11    4.76    0.69
   0  -4  11    5.31    0.68
  -1   4 -11  141.96    3.96
   1  -4  11  136.64    3.62
   1  -4  11  140.53    3.72
   2  -4  11   78.56    2.53
   2  -4  11   73.92    2.41
   3  -4  11   -0.32    0.58
   4  -4  11   47.13    2.02
   4  -4  11   42.91    2.09
   5  -4  11   29.84    1.94
   7   3 -11   21.81    1.52
   6   3 -11   22.76    1.40
   5   3 -11   -0.01    0.46
  -5  -3  11    0.53    0.81
  -5  -3  11   -0.16    0.67
   4   3 -11   45.31    1.72
  -4  -3  11   46.63    1.97
  -4  -3  11   44.91    2.01
   3   3 -11   37.70    1.55
  -3  -3  11   38.71    1.71
  -3  -3  11   41.13    1.71
  -3  -3  11   37.88    1.75
   2   3 -11    8.21    0.92
  -2  -3  11    9.81    1.06
  -2  -3  11    8.94    1.11
  -2  -3  11    8.26    0.99
   1   3 -11   99.27    2.76
  -1  -3  11   99.90    2.91
  -1  -3  11  100.35    2.86
  -1  -3  11   99.34    2.81
   0   3 -11  151.83    3.81
   0  -3  11  154.94    3.89
   0  -3  11  153.04    3.97
   1  -3  11    4.65    0.73
   1  -3  11    5.24    0.73
   2  -3  11   56.35    2.14
   2  -3  11   53.33    2.06
   3  -3  11   55.37    2.23
   4  -3  11    7.49    1.00
   4  -3  11    7.72    1.04
   7   2 -11   13.30    1.28
   6   2 -11   13.66    1.22
   5   2 -11  114.05    3.08
  -5  -2  11  107.53    3.45
  -5  -2  11  113.95    3.32
   4   2 -11   83.25    2.50
  -4  -2  11   86.69    2.67
  -4  -2  11   87.59    2.84
   3   2 -11   20.51    1.18
  -3  -2  11   18.48    1.30
  -3  -2  11   22.07    1.35
  -3  -2  11   20.08    1.43
   2   2 -11  139.42    3.53
  -2  -2  11  133.85    3.68
  -2  -2  11  140.39    3.71
  -2  -2  11  143.57    3.61
   1   2 -11   35.97    1.49
  -1  -2  11   36.10    1.65
  -1  -2  11   36.08    1.58
  -1  -2  11   34.79    1.64
   0  -2  11    3.52    0.75
   0  -2  11    2.35    0.59
   1  -2  11   59.97    2.10
   1  -2  11   59.42    2.18
   2  -2  11   26.59    1.58
   3  -2  11   13.27    1.29
   3  -2  11   13.46    1.41
   4  -2  11   42.97    2.20
   4  -2  11   46.56    2.17
   7   1 -11   33.05    1.65
   6   1 -11   36.59    1.61
  -6  -1  11   32.85    1.87
   5   1 -11    0.37    0.50
  -5  -1  11    0.96    0.64
   4   1 -11   32.62    1.43
  -4  -1  11   30.73    1.78
  -4  -1  11   29.67    1.56
   3   1 -11   58.16    1.93
  -3  -1  11   56.14    2.12
  -3  -1  11   57.79    2.01
  -3  -1  11   56.83    2.20
   2   1 -11    2.71    0.80
   2   1 -11    1.91    0.52
  -2  -1  11    1.82    0.61
  -2  -1  11    1.89    0.56
  -2  -1  11    2.37    0.59
   1   1 -11   50.15    1.76
  -1  -1  11   47.03    1.91
  -1  -1  11   47.53    1.90
  -1  -1  11   50.06    1.87
   0  -1  11   68.16    2.36
   0  -1  11   72.53    2.30
   0  -1  11   72.83    2.43
   1  -1  11    2.35    0.66
   1  -1  11    1.80    0.64
   2  -1  11   20.53    1.52
   3  -1  11   57.36    2.33
   3  -1  11   59.09    2.34
   4  -1  11    8.47    1.79
   4  -1  11    7.68    1.11
   7   0 -11   17.23    1.36
   6   0 -11   17.89    1.23
  -6   0  11   11.46    1.49
   5   0 -11   33.33    1.48
  -5   0  11   29.84    1.65
   4   0 -11    7.35    0.95
   4   0 -11    7.37    1.05
  -4   0  11    5.31    0.99
  -4   0  11    5.97    0.78
   3   0 -11   14.46    1.07
  -3   0  11   17.15    1.21
  -3   0  11   16.94    1.40
  -3   0  11   14.91    1.28
   2   0 -11   78.46    2.36
  -2   0  11   79.79    2.60
  -2   0  11   83.12    2.48
  -2   0  11   80.02    2.60
  -1   0  11   60.30    2.18
  -1   0  11   60.15    2.21
  -1   0  11   60.90    2.08
   0   0  11    8.31    1.07
   0   0  11    9.82    1.15
   0   0  11    7.38    0.90
   1   0  11   66.08    2.42
   2   0  11   12.26    1.30
   2   0  11   12.29    1.37
   3   0  11    6.79    0.98
   3   0  11    4.82    0.90
   7  -1 -11   27.60    1.52
  -7   1  11   23.20    2.18
   6  -1 -11   31.78    1.48
  -6   1  11   27.27    1.76
   5  -1 -11    0.72    0.48
  -5   1  11    0.04    0.63
   4  -1 -11   69.36    2.17
  -4   1  11   70.20    2.28
   3  -1 -11   74.47    2.24
  -3   1  11   77.99    3.38
  -3   1  11   70.48    2.54
  -3   1  11   73.22    2.33
  -2   1  11    7.62    1.04
  -2   1  11    7.66    1.12
  -2   1  11    5.60    0.88
  -1   1  11   58.64    2.06
  -1   1  11   54.45    2.17
  -1   1  11   56.67    2.18
   0   1  11   90.42    2.87
   1   1  11    0.95    0.65
   1   1  11   -0.34    0.58
   2   1  11   52.35    2.26
   2   1  11   53.12    2.24
   3   1  11   34.89    2.00
   6  -2 -11    7.79    1.06
  -6   2  11    6.83    0.97
   5  -2 -11   48.41    1.78
  -5   2  11   49.78    1.97
   4  -2 -11   32.59    1.44
  -4   2  11   31.32    1.54
  -3   2  11   19.67    1.51
  -3   2  11   22.85    1.35
  -2   2  11   58.14    2.07
  -2   2  11   58.19    2.27
  -1   2  11    5.04    0.85
  -1   2  11    8.04    1.12
   0   2  11   18.66    1.35
   0   2  11   16.26    1.42
   1   2  11   76.11    2.66
   1   2  11   76.17    2.65
   2   2  11   10.13    1.45
   2   2  11    9.91    1.20
   6  -3 -11    5.80    0.75
  -6   3  11    5.76    0.91
  -5   3  11    8.86    1.28
  -4   3  11   54.99    2.00
  -3   3  11   51.40    1.88
  -3   3  11   41.00    2.05
  -2   3  11   -0.29    0.62
  -1   3  11   44.12    2.01
   0   3  11   41.57    1.94
   0   3  11   44.36    2.03
   1   3  11   -0.42    0.74
   1   3  11    1.16    0.76
  -5   4  11   49.52    1.99
  -4   4  11   10.47    1.26
  -3   4  11   12.96    1.49
  -3   4  11   15.63    1.30
  -2   4  11   45.40    1.88
  -2   4  11   46.82    2.15
  -1   4  11   15.63    1.35
  -1   4  11   10.90    1.41
   0   4  11   17.05    1.61
   0   4  11   13.86    1.57
   0  12 -12   32.26    1.79
   0 -12  12   33.31    1.69
   2  11 -12   15.40    1.55
   1  11 -12   56.54    2.27
  -1 -11  12   57.69    2.09
  -1 -11  12   54.56    2.02
   0  11 -12   12.71    1.30
   0 -11  12   10.61    1.25
  -1  11 -12    6.38    0.86
   1 -11  12    5.92    0.87
  -2  11 -12   55.67    2.08
   2 -11  12   53.23    2.23
   3  10 -12   36.15    2.01
  -3 -10  12   41.08    1.90
  -3 -10  12   38.10    1.70
   2  10 -12   30.23    1.74
  -2 -10  12   27.34    1.73
  -2 -10  12   32.27    1.70
   1  10 -12    0.20    0.59
  -1 -10  12    0.42    0.58
  -1 -10  12    0.02    0.69
   0  10 -12   43.68    1.86
   0 -10  12   43.89    1.78
  -1  10 -12   48.57    1.91
   1 -10  12   44.28    1.89
  -2  10 -12   -0.77    0.53
   2 -10  12    0.28    0.70
   3 -10  12   36.21    1.96
   4   9 -12   36.31    2.03
  -4  -9  12   34.99    1.87
  -4  -9  12   33.09    1.62
   3   9 -12   14.95    1.44
  -3  -9  12   16.09    1.53
  -3  -9  12   14.21    1.24
   2   9 -12    4.37    0.74
  -2  -9  12    3.20    0.66
  -2  -9  12    3.26    0.78
   1   9 -12   85.51    2.71
  -1  -9  12   87.38    2.58
  -1  -9  12   84.49    2.66
   0   9 -12   24.68    1.42
   0  -9  12   21.67    1.37
  -1   9 -12   18.59    1.30
   1  -9  12   17.09    1.29
  -2   9 -12   72.80    2.35
   2  -9  12   68.80    2.48
   3  -9  12   23.04    1.72
   5   8 -12   26.65    1.92
  -5  -8  12   24.98    1.51
  -5  -8  12   23.34    1.97
   4   8 -12   11.76    1.38
  -4  -8  12   12.04    1.63
  -4  -8  12   10.59    1.16
   3   8 -12   68.60    2.46
  -3  -8  12   71.83    2.47
  -3  -8  12   69.63    2.27
   2   8 -12   56.43    2.12
  -2  -8  12   56.66    2.13
  -2  -8  12   54.39    1.98
   1   8 -12    3.70    0.69
  -1  -8  12    3.24    0.65
  -1  -8  12    4.77    0.81
   0   8 -12  118.99    3.34
   0  -8  12  136.06    4.78
   0  -8  12  117.67    3.34
  -1   8 -12   60.84    2.11
   1  -8  12   57.52    2.16
  -2   8 -12    0.73    0.54
   2  -8  12    0.03    0.60
   3  -8  12   57.24    2.36
   4  -8  12   51.54    2.45
   5   7 -12   25.61    1.73
  -5  -7  12   22.87    1.45
  -5  -7  12   25.85    2.05
   4   7 -12   90.52    2.88
  -4  -7  12   87.92    2.94
  -4  -7  12   92.32    2.72
   3   7 -12    7.38    1.08
  -3  -7  12   10.11    1.38
  -3  -7  12    8.25    1.03
   2   7 -12   20.23    1.32
  -2  -7  12   18.65    1.25
  -2  -7  12   19.60    1.45
   1   7 -12   60.70    2.15
  -1  -7  12   63.37    2.25
  -1  -7  12   62.87    2.15
  -1  -7  12   64.51    2.42
   0   7 -12    9.12    1.06
   0  -7  12    9.14    1.28
   0  -7  12   10.32    1.10
  -1   7 -12   34.36    1.60
   1  -7  12   36.13    2.15
   1  -7  12   37.05    1.69
   2  -7  12   83.85    2.74
   3  -7  12   20.16    1.61
   4  -7  12    1.14    0.89
   6   6 -12   28.10    1.83
   5   6 -12    8.18    1.25
  -5  -6  12    3.87    1.05
  -5  -6  12    5.20    0.85
   4   6 -12    2.02    0.66
  -4  -6  12    1.10    0.56
  -4  -6  12    3.28    0.91
   3   6 -12   73.91    2.45
  -3  -6  12   78.72    2.45
  -3  -6  12   75.95    2.60
   2   6 -12   30.25    1.52
  -2  -6  12   33.29    1.72
  -2  -6  12   32.31    1.80
  -2  -6  12   32.10    1.54
   1   6 -12    0.72    0.50
  -1  -6  12    0.52    0.54
  -1  -6  12    0.53    0.62
  -1  -6  12    1.36    0.64
   0   6 -12   62.24    2.12
   0  -6  12   61.60    2.17
   0  -6  12   59.38    2.18
  -1   6 -12   40.83    1.71
   1  -6  12   39.29    1.82
   1  -6  12   45.09    2.39
   2  -6  12    2.39    0.71
   3  -6  12   35.40    1.89
   4  -6  12   25.82    1.88
   6   5 -12    0.25    0.64
   5   5 -12   12.67    1.26
  -5  -5  12   10.54    1.51
   4   5 -12   58.68    2.14
  -4  -5  12   61.75    2.48
  -4  -5  12   60.14    2.16
   3   5 -12   15.19    1.19
  -3  -5  12   14.94    1.46
  -3  -5  12   17.74    2.32
  -3  -5  12   14.48    1.19
   2   5 -12   39.65    1.69
  -2  -5  12   43.74    1.90
  -2  -5  12   39.67    1.83
  -2  -5  12   42.78    1.77
   1   5 -12   43.91    1.75
  -1  -5  12   41.99    1.83
  -1  -5  12   41.67    1.79
  -1  -5  12   42.30    1.86
   0   5 -12   33.42    1.54
   0  -5  12   32.11    1.62
   0  -5  12   33.54    1.68
   1  -5  12   28.09    1.57
   2  -5  12   75.82    2.63
   3  -5  12    6.83    0.98
   4  -5  12   21.56    1.67
   4  -5  12   21.64    1.86
   6   4 -12   51.27    2.14
   5   4 -12   28.04    1.54
   4   4 -12    1.06    0.52
  -4  -4  12    1.26    0.82
  -4  -4  12    1.04    0.62
   3   4 -12  150.36    3.82
  -3  -4  12  141.16    3.91
  -3  -4  12  147.25    3.91
  -3  -4  12  147.71    3.99
   2   4 -12   27.19    1.40
  -2  -4  12   27.09    1.49
  -2  -4  12   29.80    1.64
  -2  -4  12   25.17    1.55
   1   4 -12   21.50    1.29
  -1  -4  12   22.76    1.49
  -1  -4  12   22.69    1.44
  -1  -4  12   21.50    1.39
   0   4 -12  119.77    3.20
   0  -4  12  110.63    3.23
   0  -4  12  116.40    3.33
   1  -4  12  101.88    3.11
   2  -4  12    8.17    1.21
   3  -4  12   54.04    2.33
   4  -4  12   18.13    1.67
   4  -4  12   18.20    2.24
   6   3 -12    1.62    0.63
   5   3 -12   12.39    1.17
   4   3 -12   20.81    1.31
  -4  -3  12   17.69    2.24
  -4  -3  12   21.45    2.38
   3   3 -12    1.18    0.52
  -3  -3  12    1.18    0.69
  -3  -3  12    1.31    0.60
  -3  -3  12    2.17    0.70
   2   3 -12   59.24    2.06
  -2  -3  12   61.53    2.17
  -2  -3  12   61.31    2.22
  -2  -3  12   58.46    2.24
   1   3 -12   63.80    2.12
  -1  -3  12   60.45    2.27
  -1  -3  12   66.08    2.30
  -1  -3  12   62.64    2.22
   0   3 -12    0.60    0.80
   0  -3  12   -0.01    0.55
   0  -3  12    0.27    0.67
   1  -3  12   44.35    1.96
   2  -3  12   52.50    2.18
   3  -3  12   12.99    1.43
   3  -3  12   12.53    1.54
   6   2 -12   58.38    2.16
   5   2 -12   11.01    1.14
   4   2 -12   38.87    1.65
  -4  -2  12   38.26    1.90
   3   2 -12   78.54    2.41
  -3  -2  12   75.01    2.58
  -3  -2  12   74.02    2.46
  -3  -2  12   74.16    3.08
   2   2 -12   50.71    1.87
  -2  -2  12   50.53    2.05
  -2  -2  12   47.30    2.11
  -2  -2  12   51.46    1.97
   1   2 -12    1.61    0.56
  -1  -2  12    1.06    0.64
  -1  -2  12    1.40    0.60
  -1  -2  12    2.01    0.79
   0  -2  12   71.49    2.51
   1  -2  12    6.40    0.88
   2  -2  12    1.45    0.73
   3  -2  12   29.23    1.94
   3  -2  12   28.02    1.80
   6   1 -12   10.09    1.21
   5   1 -12   47.34    1.86
   4   1 -12   64.29    2.16
  -4  -1  12   62.87    2.29
   3   1 -12   -0.41    0.46
   3   1 -12   -0.59    0.76
  -3  -1  12    0.40    0.55
  -3  -1  12    0.35    0.59
   2   1 -12   15.80    1.16
  -2  -1  12   14.31    1.33
  -2  -1  12   16.01    1.28
  -1  -1  12   89.32    2.89
   0  -1  12    8.83    1.25
   1  -1  12   62.10    2.41
   2  -1  12   51.70    2.18
   2  -1  12   49.38    2.27
   3  -1  12    1.56    0.91
   6   0 -12   23.24    1.44
   5   0 -12   17.44    1.50
   5   0 -12   18.80    1.31
   4   0 -12   25.60    1.40
  -4   0  12   24.64    1.51
   3   0 -12   81.57    2.50
  -3   0  12   79.36    2.75
  -3   0  12   82.36    2.58
  -2   0  12   29.48    1.70
  -2   0  12   32.40    1.91
  -1   0  12    4.53    0.82
   0   0  12   77.13    2.70
   1   0  12   14.51    1.45
   2   0  12    8.47    1.09
   2   0  12    7.59    1.03
   5  -1 -12   24.97    1.43
   4  -1 -12   36.70    1.63
  -4   1  12   38.85    1.91
  -3   1  12    1.68    0.76
  -3   1  12    1.06    0.83
  -2   1  12   52.82    2.24
  -1   1  12   40.84    1.99
   0   1  12    2.77    0.81
   1   1  12   37.54    1.99
   1   1  12   35.90    1.99
   5  -2 -12   14.88    1.24
  -3   2  12   40.17    2.06
  -2   2  12    8.22    1.06
  -1   2  12   14.81    1.53
   0   2  12   49.03    2.17
   0   2  12   48.88    2.26
  -4   3  12   26.11    1.96
  -3   3  12   -0.05    0.74
  -2   3  12   37.21    2.07
  -1   3  12   52.42    2.23
  -1   3  12   54.99    2.41
   0  11 -13    6.22    0.90
   2  10 -13    0.94    0.75
  -2 -10  13    1.47    0.92
  -2 -10  13   -0.30    0.65
   1  10 -13   24.51    1.65
  -1 -10  13   25.14    1.54
  -1 -10  13   22.25    1.72
   0  10 -13   51.24    2.13
   0 -10  13   51.51    2.08
  -1  10 -13    1.50    0.69
   1 -10  13    1.62    0.74
  -2  10 -13   31.24    1.76
   2 -10  13   32.60    1.91
   3   9 -13   22.38    1.68
  -3  -9  13   20.85    1.50
  -3  -9  13   25.02    1.88
   2   9 -13   47.17    2.11
  -2  -9  13   46.50    2.15
  -2  -9  13   49.50    1.95
   1   9 -13   21.88    1.53
  -1  -9  13   21.41    1.47
  -1  -9  13   22.22    1.67
   0   9 -13   27.90    1.64
   0  -9  13   26.88    1.62
  -1   9 -13  105.38    3.12
   1  -9  13  101.99    3.14
   2  -9  13    8.01    1.05
   4   8 -13   47.95    2.22
  -4  -8  13   45.76    2.29
  -4  -8  13   45.88    1.97
   3   8 -13   26.04    1.67
  -3  -8  13   27.87    1.91
  -3  -8  13   25.75    1.54
   2   8 -13    5.60    0.85
  -2  -8  13    6.21    1.02
  -2  -8  13    5.60    0.83
   1   8 -13   41.79    1.86
  -1  -8  13   40.79    1.81
  -1  -8  13   39.33    2.07
   0   8 -13   51.55    2.06
   0  -8  13   52.89    2.10
  -1   8 -13    6.93    0.89
   1  -8  13    5.84    0.90
   2  -8  13   41.13    2.05
   3  -8  13   35.01    2.11
  -5  -7  13   35.95    1.83
   4   7 -13    9.99    1.35
  -4  -7  13    6.89    0.93
   3   7 -13   31.38    1.71
  -3  -7  13   31.69    1.98
  -3  -7  13   32.56    1.68
   2   7 -13   45.32    1.94
  -2  -7  13   47.45    1.98
  -2  -7  13   46.66    2.18
   1   7 -13    6.15    0.78
  -1  -7  13    5.24    0.83
  -1  -7  13    8.09    1.75
   0   7 -13   24.60    1.48
   0  -7  13   23.44    1.54
  -1   7 -13  105.16    3.07
   1  -7  13   98.76    3.12
   2  -7  13   26.00    1.75
   3  -7  13    3.78    0.99
   5   6 -13    2.23    0.77
  -5  -6  13    2.95    0.79
   4   6 -13   37.51    1.85
  -4  -6  13   38.91    1.83
   3   6 -13   44.17    1.92
  -3  -6  13   43.29    1.89
   2   6 -13    0.74    0.54
  -2  -6  13   -0.35    0.55
   1   6 -13   49.49    1.96
  -1  -6  13   46.01    1.99
   0   6 -13   56.12    2.09
   0  -6  13   54.72    2.16
  -1   6 -13   -0.11    0.53
   1  -6  13    0.11    0.65
   2  -6  13   23.25    1.73
   3  -6  13   16.04    1.80
   5   5 -13   35.80    1.84
  -5  -5  13   34.13    1.89
   4   5 -13    5.55    0.81
  -4  -5  13    5.04    0.83
   3   5 -13   20.67    1.39
  -3  -5  13   18.38    1.45
   2   5 -13  101.13    3.00
  -2  -5  13  102.34    3.11
   1   5 -13    8.62    1.11
  -1  -5  13    8.98    1.24
   0   5 -13   34.11    1.64
   0  -5  13   34.32    1.81
   1  -5  13   54.62    2.28
   2  -5  13    6.72    1.03
  -5  -4  13    6.70    0.98
   4   4 -13   58.64    2.17
  -4  -4  13   54.74    2.26
   3   4 -13    9.68    1.15
  -3  -4  13    9.48    1.24
   2   4 -13   14.22    1.25
  -2  -4  13   14.46    1.39
   1   4 -13  111.17    3.17
  -1  -4  13  110.56    3.34
   0   4 -13   25.72    1.48
   0  -4  13   27.98    1.69
   1  -4  13    2.30    0.73
   2  -4  13   36.65    2.02
   6   3 -13    4.23    0.85
   5   3 -13   54.27    2.16
   4   3 -13    0.63    0.57
  -4  -3  13    1.08    0.69
   3   3 -13   23.10    1.45
  -3  -3  13   23.18    1.59
   2   3 -13   37.47    1.72
  -2  -3  13   37.82    1.87
   1   3 -13    7.04    0.86
  -1  -3  13   10.79    1.30
   0  -3  13   65.33    2.50
   1  -3  13   59.25    2.47
   2  -3  13    4.41    0.96
   6   2 -13    2.75    0.78
   5   2 -13   12.75    1.29
   4   2 -13   84.28    2.67
  -4  -2  13   82.50    2.93
   3   2 -13   24.02    1.43
  -3  -2  13   23.00    1.62
   2   2 -13    0.60    1.11
   2   2 -13    0.73    0.56
  -2  -2  13    1.25    0.69
  -1  -2  13   49.49    2.18
   0  -2  13   31.84    1.85
   1  -2  13    0.08    0.76
   2  -2  13   36.65    2.23
   5   1 -13   42.72    1.88
   4   1 -13   -0.15    0.58
   4   1 -13   -0.88    1.05
  -4  -1  13   -0.60    0.69
   3   1 -13   48.56    1.92
  -3  -1  13   44.42    2.14
   2   1 -13   60.91    2.17
  -2  -1  13   59.70    2.44
  -1  -1  13   -0.27    0.65
   0  -1  13   40.25    2.11
   1  -1  13   35.27    2.09
   5   0 -13   18.73    1.44
   4   0 -13   49.12    1.97
  -4   0  13   48.04    2.33
   3   0 -13   15.81    1.29
  -3   0  13   16.23    1.57
  -2   0  13    4.67    0.94
  -1   0  13   69.44    2.69
   0   0  13   20.25    1.81
   4  -1 -13    0.68    0.63
  -4   1  13    0.51    0.97
  -3   1  13   25.26    1.89
  -2   1  13   30.65    2.02
  -1   1  13    0.54    0.81
   1   9 -14   15.94    1.54
  -1  -9  14   12.50    1.48
   0   9 -14   73.40    2.66
   0  -9  14   74.29    2.70
  -3  -8  14    1.27    0.77
   2   8 -14   28.77    1.76
  -2  -8  14   27.24    1.67
   1   8 -14   36.61    1.91
  -1  -8  14   31.19    1.83
   0   8 -14    2.47    0.78
   0  -8  14    1.45    0.77
  -1   8 -14   46.03    2.10
   1  -8  14   46.21    2.22
   3   7 -14   36.93    1.97
  -3  -7  14   36.31    1.91
   2   7 -14    9.04    1.30
  -2  -7  14    8.13    1.03
   1   7 -14   39.12    1.93
  -1  -7  14   36.31    1.93
   0   7 -14   70.72    2.54
   0  -7  14   68.50    2.60
   1  -7  14   13.42    1.61
   4   6 -14   23.21    1.96
  -4  -6  14   16.43    1.60
   3   6 -14    1.63    0.68
  -3  -6  14    0.42    0.73
   2   6 -14   52.43    2.20
  -2  -6  14   52.74    2.26
   1   6 -14   57.21    2.25
  -1  -6  14   58.76    2.37
   0   6 -14    1.41    0.68
   0  -6  14   -0.01    0.75
   1  -6  14   11.34    1.57
   4   5 -14   28.86    1.77
  -4  -5  14   27.90    1.85
   3   5 -14   55.20    2.22
  -3  -5  14   57.20    2.37
   2   5 -14   17.17    1.47
  -2  -5  14   14.78    1.53
   1   5 -14   41.29    1.92
  -1  -5  14   38.21    2.06
   0   5 -14   38.58    1.86
   0  -5  14   36.76    2.02
   1  -5  14    0.85    0.85
   4   4 -14   11.37    1.38
  -4  -4  14   12.68    1.56
   3   4 -14    9.21    1.31
  -3  -4  14    6.09    0.99
   2   4 -14   57.73    2.25
  -2  -4  14   55.87    2.41
   1   4 -14   23.38    1.57
  -1  -4  14   27.55    1.84
   0  -4  14    6.28    1.02
   1  -4  14   39.47    2.79
   4   3 -14   25.25    1.68
  -4  -3  14   23.81    1.86
   3   3 -14   46.25    2.03
  -3  -3  14   43.49    2.20
   2   3 -14    0.32    0.61
  -2  -3  14    0.51    0.81
  -1  -3  14   30.61    1.98
   0  -3  14   36.88    2.15
   4   2 -14   15.06    1.47
  -4  -2  14   17.05    2.05
   3   2 -14    2.57    0.77
  -3  -2  14    2.33    0.89
   2   2 -14   50.51    2.11
  -2  -2  14   47.80    2.34
  -1  -2  14   43.21    2.28
   3   1 -14   41.51    1.96
  -2  -1  14    1.42    1.08
   0   0   0    0.00    0.00
;
_shelx_hkl_checksum              19744
loop_
_space_group_symop_operation_xyz
'x, y, z'
'-x, -y, -z'
loop_
_atom_site_label
_atom_site_type_symbol
_atom_site_fract_x
_atom_site_fract_y
_atom_site_fract_z
_atom_site_U_iso_or_equiv
_atom_site_adp_type
_atom_site_occupancy
_atom_site_site_symmetry_order
_atom_site_calc_flag
_atom_site_refinement_flags_posn
_atom_site_refinement_flags_adp
_atom_site_refinement_flags_occupancy
_atom_site_disorder_assembly
_atom_site_disorder_group
Gd1 Gd 0.66302(3) 0.75685(2) 0.66520(2) 0.01500(7) Uani 1 1 d . . . . .
C1 C 0.4403(5) 0.5667(4) 0.3403(3) 0.0145(7) Uani 1 1 d . . . . .
C2 C 0.4033(5) 0.6268(3) 0.2436(3) 0.0121(7) Uani 1 1 d . . . . .
C3 C 0.4326(5) 0.7683(3) 0.2861(3) 0.0123(7) Uani 1 1 d . . . . .
H3A H 0.4862 0.8259 0.3732 0.015 Uiso 1 1 calc R U . . .
C4 C 0.3814(5) 0.8222(3) 0.1976(3) 0.0119(7) Uani 1 1 d . . . . .
C5 C 0.3859(5) 0.9706(3) 0.2443(3) 0.0116(7) Uani 1 1 d . . . . .
C6 C 0.3079(5) 0.7364(4) 0.0669(3) 0.0140(7) Uani 1 1 d . . . . .
H6A H 0.2755 0.7738 0.0082 0.017 Uiso 1 1 calc R U . . .
C7 C 0.2819(5) 0.5958(4) 0.0222(3) 0.0130(7) Uani 1 1 d . . . . .
C8 C 0.3298(5) 0.5415(3) 0.1123(3) 0.0138(7) Uani 1 1 d . . . . .
H8A H 0.3123 0.4475 0.0841 0.017 Uiso 1 1 calc R U . . .
C9 C 0.1947(5) 0.5075(4) -0.1153(3) 0.0153(7) Uani 1 1 d . . . . .
O1 O 0.4932(5) 0.6470(3) 0.4579(3) 0.0286(7) Uani 1 1 d . . . . .
O2 O 0.4117(4) 0.4397(3) 0.2985(3) 0.0225(6) Uani 1 1 d . . . . .
O3 O 0.4748(3) 1.0553(2) 0.3569(2) 0.0142(5) Uani 1 1 d . . . . .
O4 O 0.2882(4) 1.0085(2) 0.1689(2) 0.0168(5) Uani 1 1 d . . . . .
O5 O 0.4005(5) 0.7559(3) 0.7520(4) 0.0410(9) Uani 1 1 d D . . . .
H5A H 0.368(8) 0.826(3) 0.788(5) 0.061 Uiso 1 1 d D U . . .
H5B H 0.338(7) 0.688(3) 0.757(6) 0.061 Uiso 1 1 d D U . . .
O6 O 0.8722(4) 0.8982(3) 0.6018(3) 0.0314(7) Uani 1 1 d D . . . .
H6B H 0.834(6) 0.955(4) 0.580(5) 0.047 Uiso 1 1 d D U . . .
H6C H 0.979(3) 0.896(5) 0.593(5) 0.047 Uiso 1 1 d D U . . .
O7 O 0.8783(5) 0.6288(3) 0.5742(3) 0.0356(8) Uani 1 1 d D . . . .
H7A H 0.861(8) 0.594(5) 0.4951(11) 0.053 Uiso 1 1 d D U . . .
H7B H 0.923(8) 0.586(5) 0.612(4) 0.053 Uiso 1 1 d D U . . .
O8 O 0.9197(4) 0.7932(3) 0.8389(3) 0.0250(6) Uani 1 1 d D . . . .
H8B H 0.912(6) 0.792(5) 0.909(2) 0.038 Uiso 1 1 d D U . . .
H8C H 1.016(4) 0.847(4) 0.844(4) 0.038 Uiso 1 1 d D U . . .
O9 O 0.7063(6) 0.0243(4) 0.0931(4) 0.0469(9) Uani 1 1 d D . . . .
H9B H 0.754(9) -0.036(5) 0.098(6) 0.070 Uiso 1 1 d D U . . .
O10 O 0.0944(4) 0.1620(3) 0.9146(3) 0.0297(7) Uani 1 1 d D . . . .
H10A H -0.009(4) 0.104(4) 0.880(4) 0.045 Uiso 1 1 d D U . . .
H10B H 0.108(6) 0.219(4) 0.884(4) 0.045 Uiso 1 1 d D U . . .
O11 O 0.8275(4) 1.0890(3) 0.5046(3) 0.0238(6) Uani 1 1 d D . . . .
H11A H 0.873(5) 1.163(3) 0.569(3) 0.036 Uiso 1 1 d D U . . .
H11B H 0.727(4) 1.084(4) 0.460(4) 0.036 Uiso 1 1 d D U . . .
N1 N 0.1130(5) 0.3734(3) -0.1643(3) 0.0206(7) Uani 1 1 d . . . . .
N2 N 0.0440(5) 0.3357(4) -0.2915(3) 0.0285(8) Uani 1 1 d . . . . .
N3 N 0.0845(6) 0.4413(4) -0.3181(3) 0.0359(10) Uani 1 1 d . . . . .
N4 N 0.1808(6) 0.5517(4) -0.2094(3) 0.0321(9) Uani 1 1 d . . . . .
loop_
_atom_site_aniso_label
_atom_site_aniso_U_11
_atom_site_aniso_U_22
_atom_site_aniso_U_33
_atom_site_aniso_U_23
_atom_site_aniso_U_13
_atom_site_aniso_U_12
Gd1 0.02326(11) 0.00936(10) 0.01284(10) 0.00520(7) 0.00302(7) 0.00541(7)
C1 0.0219(19) 0.0095(17) 0.0126(18) 0.0061(14) 0.0019(14) 0.0040(14)
C2 0.0174(18) 0.0071(16) 0.0112(17) 0.0045(13) 0.0010(14) 0.0027(14)
C3 0.0189(18) 0.0061(16) 0.0094(16) 0.0024(13) 0.0007(14) 0.0016(14)
C4 0.0170(17) 0.0057(16) 0.0139(17) 0.0050(14) 0.0037(14) 0.0030(14)
C5 0.0161(17) 0.0071(16) 0.0145(18) 0.0065(14) 0.0065(14) 0.0031(14)
C6 0.0208(18) 0.0113(17) 0.0122(17) 0.0086(14) 0.0021(14) 0.0032(14)
C7 0.0175(18) 0.0101(17) 0.0098(17) 0.0035(14) 0.0034(14) 0.0012(14)
C8 0.0228(19) 0.0047(16) 0.0123(17) 0.0038(13) 0.0020(14) 0.0017(14)
C9 0.0231(19) 0.0112(18) 0.0107(17) 0.0049(14) 0.0043(15) 0.0018(15)
O1 0.056(2) 0.0128(13) 0.0096(13) 0.0038(11) -0.0054(13) 0.0058(13)
O2 0.0427(17) 0.0075(13) 0.0192(14) 0.0086(11) 0.0046(12) 0.0071(12)
O3 0.0193(13) 0.0058(11) 0.0132(12) 0.0021(10) -0.0022(10) 0.0025(10)
O4 0.0265(14) 0.0089(12) 0.0147(13) 0.0059(10) -0.0005(11) 0.0068(11)
O5 0.048(2) 0.0193(16) 0.079(3) 0.0296(17) 0.0467(19) 0.0166(15)
O6 0.0300(17) 0.0359(18) 0.054(2) 0.0352(16) 0.0269(16) 0.0184(14)
O7 0.063(2) 0.046(2) 0.0238(16) 0.0230(15) 0.0264(16) 0.0433(18)
O8 0.0224(15) 0.0328(17) 0.0206(15) 0.0142(13) -0.0008(12) 0.0077(13)
O9 0.075(3) 0.039(2) 0.049(2) 0.0246(17) 0.034(2) 0.037(2)
O10 0.0302(16) 0.0248(16) 0.0312(17) 0.0158(14) -0.0029(13) 0.0011(13)
O11 0.0184(14) 0.0209(15) 0.0253(16) 0.0051(12) 0.0005(11) 0.0032(12)
N1 0.0320(19) 0.0127(16) 0.0097(15) 0.0021(12) 0.0004(13) -0.0011(14)
N2 0.038(2) 0.0217(18) 0.0127(17) 0.0018(14) 0.0008(15) -0.0061(16)
N3 0.053(2) 0.028(2) 0.0118(17) 0.0079(15) -0.0040(16) -0.0124(18)
N4 0.055(2) 0.0196(18) 0.0115(17) 0.0083(14) -0.0013(16) -0.0092(17)
loop_
_atom_type_symbol
_atom_type_description
_atom_type_scat_dispersion_real
_atom_type_scat_dispersion_imag
_atom_type_scat_source
C C 0.0033 0.0016 'International Tables Vol C Tables 4.2.6.8 and 6.1.1.4'
Gd Gd -0.1653 3.9035 'International Tables Vol C Tables 4.2.6.8 and 6.1.1.4'
N N 0.0061 0.0033 'International Tables Vol C Tables 4.2.6.8 and 6.1.1.4'
O O 0.0106 0.0060 'International Tables Vol C Tables 4.2.6.8 and 6.1.1.4'
H H 0.0000 0.0000 'International Tables Vol C Tables 4.2.6.8 and 6.1.1.4'
loop_
_geom_angle_atom_site_label_1
_geom_angle_atom_site_label_2
_geom_angle_atom_site_label_3
_geom_angle
_geom_angle_site_symmetry_1
_geom_angle_site_symmetry_3
O1 Gd1 O2 91.84(10) . 2_666
O1 Gd1 O5 94.43(14) . .
O2 Gd1 O5 70.94(10) 2_666 .
O1 Gd1 O6 89.11(12) . .
O2 Gd1 O6 148.21(10) 2_666 .
O5 Gd1 O6 140.65(10) . .
O1 Gd1 O8 152.19(11) . .
O2 Gd1 O8 76.71(10) 2_666 .
O5 Gd1 O8 105.24(13) . .
O6 Gd1 O8 87.91(11) . .
O1 Gd1 O7 81.14(12) . .
O2 Gd1 O7 76.36(11) 2_666 .
O5 Gd1 O7 146.85(11) . .
O6 Gd1 O7 72.40(11) . .
O8 Gd1 O7 71.62(11) . .
O1 Gd1 O4 132.24(9) . 2_676
O2 Gd1 O4 124.24(9) 2_666 2_676
O5 Gd1 O4 73.09(11) . 2_676
O6 Gd1 O4 75.70(10) . 2_676
O8 Gd1 O4 73.40(9) . 2_676
O7 Gd1 O4 132.83(11) . 2_676
O1 Gd1 O3 80.36(9) . 2_676
O2 Gd1 O3 141.38(9) 2_666 2_676
O5 Gd1 O3 72.05(10) . 2_676
O6 Gd1 O3 69.97(9) . 2_676
O8 Gd1 O3 124.08(9) . 2_676
O7 Gd1 O3 138.03(9) . 2_676
O4 Gd1 O3 51.89(8) 2_676 2_676
O1 Gd1 C5 106.12(10) . 2_676
O2 Gd1 C5 139.67(10) 2_666 2_676
O5 Gd1 C5 71.89(10) . 2_676
O6 Gd1 C5 69.51(10) . 2_676
O8 Gd1 C5 98.67(10) . 2_676
O7 Gd1 C5 141.00(11) . 2_676
O4 Gd1 C5 26.15(9) 2_676 2_676
O3 Gd1 C5 25.80(9) 2_676 2_676
O2 C1 O1 124.4(3) . .
O2 C1 C2 117.9(3) . .
O1 C1 C2 117.7(3) . .
C8 C2 C3 119.9(3) . .
C8 C2 C1 120.1(3) . .
C3 C2 C1 119.8(3) . .
C4 C3 C2 119.5(3) . .
C4 C3 H3A 120.2 . .
C2 C3 H3A 120.2 . .
C3 C4 C6 120.1(3) . .
C3 C4 C5 120.0(3) . .
C6 C4 C5 119.5(3) . .
O3 C5 O4 120.1(3) . .
O3 C5 C4 121.5(3) . .
O4 C5 C4 118.3(3) . .
O3 C5 Gd1 61.44(17) . 2_676
O4 C5 Gd1 58.91(17) . 2_676
C4 C5 Gd1 171.4(2) . 2_676
C4 C6 C7 121.2(3) . .
C4 C6 H6A 119.4 . .
C7 C6 H6A 119.4 . .
C6 C7 C8 118.5(3) . .
C6 C7 C9 119.8(3) . .
C8 C7 C9 121.6(3) . .
C2 C8 C7 120.7(3) . .
C2 C8 H8A 119.7 . .
C7 C8 H8A 119.7 . .
N4 C9 N1 110.1(3) . .
N4 C9 C7 124.3(3) . .
N1 C9 C7 125.6(3) . .
C1 O1 Gd1 161.4(3) . .
C1 O2 Gd1 148.4(2) . 2_666
C5 O3 Gd1 92.76(19) . 2_676
C5 O4 Gd1 94.9(2) . 2_676
Gd1 O5 H5A 123(3) . .
Gd1 O5 H5B 124(3) . .
H5A O5 H5B 113(2) . .
Gd1 O6 H6B 118(3) . .
Gd1 O6 H6C 129(3) . .
H6B O6 H6C 113.2(19) . .
Gd1 O7 H7A 118(4) . .
Gd1 O7 H7B 118(4) . .
H7A O7 H7B 115(2) . .
Gd1 O8 H8B 126(3) . .
Gd1 O8 H8C 114(3) . .
H8B O8 H8C 113.3(19) . .
H10A O10 H10B 112.3(19) . .
H11A O11 H11B 113.8(19) . .
C9 N1 N2 105.7(3) . .
N3 N2 N1 109.2(3) . .
N2 N3 N4 109.7(3) . .
C9 N4 N3 105.4(3) . .
loop_
_geom_bond_atom_site_label_1
_geom_bond_atom_site_label_2
_geom_bond_distance
_geom_bond_site_symmetry_2
Gd1 O1 2.247(3) .
Gd1 O2 2.320(2) 2_666
Gd1 O5 2.346(3) .
Gd1 O6 2.383(3) .
Gd1 O8 2.390(3) .
Gd1 O7 2.438(3) .
Gd1 O4 2.476(2) 2_676
Gd1 O3 2.532(2) 2_676
Gd1 C5 2.880(3) 2_676
C1 O2 1.249(4) .
C1 O1 1.251(4) .
C1 C2 1.497(5) .
C2 C8 1.393(5) .
C2 C3 1.397(5) .
C3 C4 1.387(5) .
C3 H3A 0.9300 .
C4 C6 1.389(5) .
C4 C5 1.497(5) .
C5 O3 1.255(4) .
C5 O4 1.274(4) .
C5 Gd1 2.880(3) 2_676
C6 C7 1.389(5) .
C6 H6A 0.9300 .
C7 C8 1.399(5) .
C7 C9 1.466(5) .
C8 H8A 0.9300 .
C9 N4 1.333(5) .
C9 N1 1.334(5) .
O2 Gd1 2.320(2) 2_666
O3 Gd1 2.532(2) 2_676
O4 Gd1 2.476(2) 2_676
O5 H5A 0.825(10) .
O5 H5B 0.827(10) .
O6 H6B 0.826(10) .
O6 H6C 0.824(10) .
O7 H7A 0.820(10) .
O7 H7B 0.818(10) .
O8 H8B 0.826(10) .
O8 H8C 0.822(10) .
O9 H9B 0.821(10) .
O10 H10A 0.831(10) .
O10 H10B 0.828(10) .
O11 H11A 0.826(10) .
O11 H11B 0.820(10) .
N1 N2 1.340(5) .
N2 N3 1.294(5) .
N3 N4 1.341(5) .
loop_
_geom_hbond_atom_site_label_D
_geom_hbond_atom_site_label_H
_geom_hbond_atom_site_label_A
_geom_hbond_distance_DH
_geom_hbond_distance_HA
_geom_hbond_distance_DA
_geom_hbond_angle_DHA
_geom_hbond_site_symmetry_A
O5 H5A O9 0.825(10) 1.943(18) 2.750(5) 166(6) 2_666
O5 H5B N4 0.827(10) 1.918(15) 2.736(4) 170(5) 1_556
O6 H6B O11 0.826(10) 1.96(2) 2.745(4) 159(4) .
O6 H6C O11 0.824(10) 2.00(3) 2.735(4) 149(4) 2_776
O7 H7A N3 0.820(10) 2.04(2) 2.823(5) 158(6) 2_665
O7 H7B N3 0.818(10) 2.439(17) 3.242(5) 167(5) 1_656
O8 H8B O10 0.826(10) 1.900(17) 2.708(4) 165(5) 2_667
O8 H8C O9 0.822(10) 2.122(18) 2.917(5) 163(4) 2_766
O9 H9B O10 0.821(10) 1.92(2) 2.720(4) 166(7) 2_656
O10 H10A O4 0.831(10) 2.090(17) 2.902(4) 166(5) 2_566
O10 H10B N1 0.828(10) 1.946(16) 2.762(4) 169(5) 1_556
O11 H11A N2 0.826(10) 1.994(15) 2.800(4) 165(4) 1_666
O11 H11B O3 0.820(10) 1.961(12) 2.778(4) 174(5) .
loop_
_geom_torsion_atom_site_label_1
_geom_torsion_atom_site_label_2
_geom_torsion_atom_site_label_3
_geom_torsion_atom_site_label_4
_geom_torsion
_geom_torsion_site_symmetry_1
_geom_torsion_site_symmetry_2
_geom_torsion_site_symmetry_3
_geom_torsion_site_symmetry_4
O2 C1 C2 C8 3.3(5) . . . .
O1 C1 C2 C8 -174.8(4) . . . .
O2 C1 C2 C3 179.7(3) . . . .
O1 C1 C2 C3 1.6(5) . . . .
C8 C2 C3 C4 2.5(5) . . . .
C1 C2 C3 C4 -173.9(3) . . . .
C2 C3 C4 C6 -2.4(5) . . . .
C2 C3 C4 C5 171.1(3) . . . .
C3 C4 C5 O3 17.0(5) . . . .
C6 C4 C5 O3 -169.5(3) . . . .
C3 C4 C5 O4 -159.3(3) . . . .
C6 C4 C5 O4 14.3(5) . . . .
C3 C4 C6 C7 0.8(6) . . . .
C5 C4 C6 C7 -172.7(3) . . . .
C4 C6 C7 C8 0.6(5) . . . .
C4 C6 C7 C9 176.7(3) . . . .
C3 C2 C8 C7 -1.0(6) . . . .
C1 C2 C8 C7 175.4(3) . . . .
C6 C7 C8 C2 -0.5(5) . . . .
C9 C7 C8 C2 -176.5(3) . . . .
C6 C7 C9 N4 18.3(6) . . . .
C8 C7 C9 N4 -165.7(4) . . . .
C6 C7 C9 N1 -159.4(4) . . . .
C8 C7 C9 N1 16.5(6) . . . .
O2 C1 O1 Gd1 55.7(10) . . . .
C2 C1 O1 Gd1 -126.2(7) . . . .
O1 C1 O2 Gd1 24.9(8) . . . 2_666
C2 C1 O2 Gd1 -153.1(4) . . . 2_666
O4 C5 O3 Gd1 5.5(3) . . . 2_676
C4 C5 O3 Gd1 -170.7(3) . . . 2_676
O3 C5 O4 Gd1 -5.6(3) . . . 2_676
C4 C5 O4 Gd1 170.7(3) . . . 2_676
N4 C9 N1 N2 -1.3(5) . . . .
C7 C9 N1 N2 176.7(4) . . . .
C9 N1 N2 N3 0.9(5) . . . .
N1 N2 N3 N4 -0.1(5) . . . .
N1 C9 N4 N3 1.2(5) . . . .
C7 C9 N4 N3 -176.8(4) . . . .
N2 N3 N4 C9 -0.7(5) . . . .
