#------------------------------------------------------------------------------
#$Date: 2021-04-07 10:02:21 +0300 (Wed, 07 Apr 2021) $
#$Revision: 263938 $
#$URL: file:///home/coder/svn-repositories/cod/cif/1/56/15/1561520.cif $
#------------------------------------------------------------------------------
#
# This file is available in the Crystallography Open Database (COD),
# http://www.crystallography.net/
#
# All data on this site have been placed in the public domain by the
# contributors.
#
data_1561520
loop_
_publ_author_name
'Sun, Yayong'
'Zhao, Siwei'
'Ma, Haoran'
'Han, Yi'
'Liu, Kang'
'Wang, Lei'
_publ_section_title
;
 Positional isomerism-driven two 3D pillar-layered metal-organic
 frameworks: Syntheses, topological structures and photoluminescence
 properties
;
_journal_name_full               'Journal of Solid State Chemistry'
_journal_page_first              284
_journal_page_last               290
_journal_paper_doi               10.1016/j.jssc.2016.04.001
_journal_volume                  238
_journal_year                    2016
_chemical_formula_moiety         'C27 H26 N4 O9 Zn2'
_chemical_formula_sum            'C27 H26 N4 O9 Zn2'
_chemical_formula_weight         681.30
_space_group_crystal_system      triclinic
_space_group_IT_number           2
_space_group_name_Hall           '-P 1'
_space_group_name_H-M_alt        'P -1'
_atom_sites_solution_hydrogens   mixed
_atom_sites_solution_primary     iterative
_cell_angle_alpha                87.194(4)
_cell_angle_beta                 79.717(5)
_cell_angle_gamma                82.506(4)
_cell_formula_units_Z            2
_cell_length_a                   9.1060(5)
_cell_length_b                   11.6972(5)
_cell_length_c                   13.3469(7)
_cell_measurement_reflns_used    4258
_cell_measurement_temperature    293(2)
_cell_measurement_theta_max      28.3230
_cell_measurement_theta_min      2.5080
_cell_volume                     1386.38(12)
_computing_molecular_graphics
;
O. V. Dolomanov, L. J. Bourhis, R. J. Gildea, J. A. K. Howard and H. Puschmann,
OLEX2: a complete structure solution, refinement and analysis program.
J. Appl. Cryst. (2009). 42, 339-341.
;
_computing_publication_material
;
O. V. Dolomanov, L. J. Bourhis, R. J. Gildea, J. A. K. Howard and H. Puschmann,
OLEX2: a complete structure solution, refinement and analysis program.
J. Appl. Cryst. (2009). 42, 339-341.
;
_computing_structure_refinement
;
SHELX, G.M. Sheldrick, Acta Cryst.
(2008). A64, 112-122
;
_computing_structure_solution
'L.J. Bourhis, O.V. Dolomanov, R.J. Gildea, J.A.K. Howard, H. Puschmann, in preparation (2013)'
_diffrn_ambient_temperature      293(2)
_diffrn_measured_fraction_theta_full 0.999
_diffrn_measured_fraction_theta_max 0.999
_diffrn_measurement_device_type  'Xcalibur, Atlas, Gemini ultra'
_diffrn_measurement_method       '\w scans'
_diffrn_radiation_monochromator  graphite
_diffrn_radiation_type           MoK\a
_diffrn_radiation_wavelength     0.71073
_diffrn_reflns_av_R_equivalents  0.0265
_diffrn_reflns_av_unetI/netI     0.0422
_diffrn_reflns_Laue_measured_fraction_full 0.976
_diffrn_reflns_Laue_measured_fraction_max 0.999
_diffrn_reflns_limit_h_max       10
_diffrn_reflns_limit_h_min       -7
_diffrn_reflns_limit_k_max       13
_diffrn_reflns_limit_k_min       -13
_diffrn_reflns_limit_l_max       15
_diffrn_reflns_limit_l_min       -15
_diffrn_reflns_number            10147
_diffrn_reflns_point_group_measured_fraction_full 0.976
_diffrn_reflns_point_group_measured_fraction_max 0.999
_diffrn_reflns_theta_full        25.242
_diffrn_reflns_theta_max         25.000
_diffrn_reflns_theta_min         2.291
_exptl_absorpt_coefficient_mu    1.791
_exptl_absorpt_correction_T_max  0.0001
_exptl_absorpt_correction_T_min  0.0001
_exptl_absorpt_correction_type   empirical
_exptl_absorpt_process_details   SADABS
_exptl_crystal_colour            colorless
_exptl_crystal_density_diffrn    1.632
_exptl_crystal_density_method    'not measured'
_exptl_crystal_description       block
_exptl_crystal_F_000             696
_exptl_crystal_size_max          0.25
_exptl_crystal_size_mid          0.20
_exptl_crystal_size_min          0.18
_refine_diff_density_max         0.819
_refine_diff_density_min         -0.308
_refine_diff_density_rms         0.065
_refine_ls_extinction_coef       .
_refine_ls_extinction_method     none
_refine_ls_goodness_of_fit_ref   1.026
_refine_ls_hydrogen_treatment    mixed
_refine_ls_matrix_type           full
_refine_ls_number_parameters     397
_refine_ls_number_reflns         4882
_refine_ls_number_restraints     0
_refine_ls_restrained_S_all      1.026
_refine_ls_R_factor_all          0.0480
_refine_ls_R_factor_gt           0.0351
_refine_ls_shift/su_max          0.001
_refine_ls_shift/su_mean         0.000
_refine_ls_structure_factor_coef Fsqd
_refine_ls_weighting_details
;
 w=1/[\s^2^(Fo^2^)+(0.0300P)^2^+1.0830P]
 where P=(Fo^2^+2Fc^2^)/3
;
_refine_ls_weighting_scheme      calc
_refine_ls_wR_factor_gt          0.0745
_refine_ls_wR_factor_ref         0.0827
_reflns_Friedel_coverage         0.000
_reflns_Friedel_fraction_full    .
_reflns_Friedel_fraction_max     .
_reflns_number_gt                3975
_reflns_number_total             4882
_reflns_threshold_expression     'I > 2\s(I)'
_cod_data_source_file            JSSC-2016-238-284.cif
_cod_data_source_block           1
_cod_database_code               1561520
_shelx_space_group_comment
;
The symmetry employed for this shelxl refinement is uniquely defined
by the following loop, which should always be used as a source of
symmetry information in preference to the above space-group names.
They are only intended as comments.
;
_olex2_refinement_description
;
1. Fixed Uiso
 At 1.2 times of:
  All C(H) groups, All C(H,H) groups
 At 1.5 times of:
  All C(H,H,H) groups
2.a Secondary CH2 refined with riding coordinates:
 C15(H15A,H15B), C8(H8A,H8B), C23(H23A,H23B)
2.b Aromatic/amide H refined with riding coordinates:
 C3(H3), C7(H7), C12(H12), C16(H16), C24(H24), C18(H18), C25(H25), C20(H20),
 C13(H13), C22(H22)
2.c Idealised Me refined as rotating group:
 C19(H19A,H19B,H19C), C27(H27A,H27B,H27C)
;
_shelx_res_file
;
TITL P-1
CELL 0.71073 9.106 11.6972 13.3469 87.194 79.717 82.506
ZERR 2 0.0005 0.0005 0.0007 0.004 0.005 0.004
LATT 1

SFAC  C 2.310 20.844 1.02 10.208 1.589 0.569 0.865 51.651 0.216 0.003 0.002 =
 11.5 0.68 12.01
SFAC  H 0.493 10.511 0.323 26.126 0.14 3.142 0.041 57.8 0.003 0 0 0.624 0.35 =
 1.008
SFAC  N 12.213 0.006 3.132 9.893 2.013 28.998 1.166 0.583 -11.529 0.006 =
 0.003 19.6 0.68 14.01
SFAC  O 3.049 13.277 2.287 5.701 1.546 0.324 0.867 32.909 0.251 0.011 0.006 =
 32.5 0.68 16
SFAC  Zn 14.074 3.265 7.032 0.233 5.165 10.316 2.41 58.71 1.304 0.284 1.43 =
 5860 1.45 65.39
UNIT 54 52 8 18 4

L.S. 25
PLAN  5
BOND $H
fmap 2 53
acta
OMIT -3 50
OMIT 4 2 4
OMIT 3 3 2
OMIT 3 5 3
REM <HKL>C:/Users/Administrator/Desktop/tmp/1.hkl</HKL>

WGHT    0.030000    1.083000
FVAR       0.15759
ZN1   5    0.420968   -0.137922    0.809299    11.00000    0.03378    0.01990 =
         0.03881   -0.00180   -0.01000    0.00010
ZN2   5    0.125863    0.010306    0.748520    11.00000    0.02977    0.02586 =
         0.04066   -0.00478   -0.01126   -0.00249
O1    4    0.294576    0.102352    0.691108    11.00000    0.04019    0.03350 =
         0.05642    0.01103   -0.01995   -0.01552
O5    4    0.489677    0.772739    0.685791    11.00000    0.05616    0.03097 =
         0.05109   -0.01143   -0.00551   -0.01149
O2    4    0.489257    0.015980    0.756958    11.00000    0.03787    0.01836 =
         0.06293    0.00296   -0.01402   -0.00398
O9    4    0.209314   -0.091305    0.845913    11.00000    0.03801    0.04420 =
         0.03442    0.00184   -0.00446    0.00308
O7    4    0.967112    0.143851    0.772205    11.00000    0.04997    0.06065 =
         0.05585   -0.00738   -0.00742    0.01238
O4    4    0.355081    0.647083    0.775081    11.00000    0.07064    0.04782 =
         0.04212   -0.00564    0.00621   -0.01075
O8    4    0.932564    0.092640    0.934384    11.00000    0.08044    0.07827 =
         0.07385    0.02340   -0.01092    0.02959
N3    3    0.011125   -0.184006    0.529598    11.00000    0.06197    0.02730 =
         0.04589   -0.00399   -0.02376   -0.00747
N2    3    0.705198   -0.239969    1.019062    11.00000    0.03485    0.03858 =
         0.03705   -0.00800   -0.00850    0.00693
N1    3    0.561076   -0.167787    0.911146    11.00000    0.03422    0.02888 =
         0.04088   -0.00398   -0.00892    0.00288
N4    3    0.098434   -0.077279    0.629440    11.00000    0.03384    0.03162 =
         0.04452   -0.00241   -0.01092   -0.00678
O3    4    0.405470    0.501704    0.611799    11.00000    0.06664    0.01830 =
         0.04338    0.00384   -0.02658   -0.00681
O6    4    0.770932    0.346074    0.812050    11.00000    0.04011    0.02723 =
         0.07567   -0.00191   -0.02925   -0.00650
C3    1    0.421687    0.307505    0.662038    11.00000    0.03742    0.02351 =
         0.02631   -0.00389   -0.00863   -0.00415
AFIX  43
H3    2    0.342082    0.300918    0.628543    11.00000   -1.20000
AFIX   0
C7    1    0.604248    0.221609    0.762557    11.00000    0.02707    0.01931 =
         0.03698   -0.00054   -0.00521   -0.00040
AFIX  43
H7    2    0.647117    0.157637    0.796001    11.00000   -1.20000
AFIX   0
C4    1    0.477634    0.412879    0.661414    11.00000    0.04603    0.02064 =
         0.02673   -0.00176   -0.00656   -0.00328
C17   1    0.889160   -0.413220    1.040760    11.00000    0.02961    0.03659 =
         0.02833   -0.00355   -0.00831    0.00275
C6    1    0.657846    0.326985    0.761580    11.00000    0.02690    0.02458 =
         0.04037   -0.00434   -0.00759   -0.00317
C9    1    0.431090    0.678719    0.696602    11.00000    0.04247    0.02453 =
         0.04214   -0.00205   -0.01339    0.00098
C15   1    0.772092   -0.319916    1.090415    11.00000    0.04346    0.04824 =
         0.03645   -0.00846   -0.01377    0.01236
AFIX  23
H15A  2    0.692690   -0.356087    1.133578    11.00000   -1.20000
H15B  2    0.818059   -0.276435    1.133844    11.00000   -1.20000
AFIX   0
C14   1    0.604566   -0.261439    0.962378    11.00000    0.03134    0.03189 =
         0.03910   -0.00568   -0.00495    0.00205
C21   1   -0.037096   -0.381033    0.493576    11.00000    0.05956    0.03268 =
         0.05698   -0.00741   -0.02903   -0.00683
C12   1    0.641559   -0.082609    0.935852    11.00000    0.04695    0.02685 =
         0.04756   -0.00332   -0.01059   -0.00573
AFIX  43
H12   2    0.634438   -0.006968    0.910525    11.00000   -1.20000
AFIX   0
C19   1    0.554493   -0.375541    0.959504    11.00000    0.05323    0.03360 =
         0.06417   -0.00071   -0.01360   -0.00887
AFIX 137
H19A  2    0.635402   -0.427798    0.924574    11.00000   -1.50000
H19B  2    0.470522   -0.369194    0.924263    11.00000   -1.50000
H19C  2    0.524853   -0.404152    1.027800    11.00000   -1.50000
AFIX   0
C16   1    0.978141   -0.397028    0.947006    11.00000    0.04825    0.03348 =
         0.03583    0.00576   -0.00731    0.00741
AFIX  43
H16   2    0.964172   -0.327600    0.910871    11.00000   -1.20000
AFIX   0
C5    1    0.596560    0.422228    0.710517    11.00000    0.03879    0.01829 =
         0.04314   -0.00518   -0.00866   -0.00704
C1    1    0.418237    0.100953    0.720106    11.00000    0.02936    0.02294 =
         0.03210   -0.00502   -0.00266   -0.00449
C2    1    0.484259    0.213360    0.712190    11.00000    0.02729    0.01957 =
         0.03055   -0.00602   -0.00080   -0.00331
C26   1   -0.015658   -0.129378    0.617589    11.00000    0.04136    0.03325 =
         0.05072   -0.00246   -0.01336   -0.00546
C8    1    0.464536    0.609099    0.600758    11.00000    0.06748    0.01900 =
         0.03579    0.00078   -0.01274   -0.00902
AFIX  23
H8A   2    0.423498    0.654572    0.547148    11.00000   -1.20000
H8B   2    0.572707    0.594819    0.579400    11.00000   -1.20000
AFIX   0
C24   1    0.153607   -0.165357    0.482024    11.00000    0.07416    0.06070 =
         0.04624   -0.01691    0.00747   -0.01431
AFIX  43
H24   2    0.203129   -0.192953    0.419165    11.00000   -1.20000
AFIX   0
C18   1    0.912144   -0.516186    1.093161    11.00000    0.03880    0.04430 =
         0.02914    0.00287    0.00135    0.00098
AFIX  43
H18   2    0.853207   -0.527681    1.156420    11.00000   -1.20000
AFIX   0
C25   1    0.206661   -0.100872    0.542527    11.00000    0.04340    0.05733 =
         0.05433   -0.00591    0.00290   -0.01671
AFIX  43
H25   2    0.300946   -0.075361    0.529265    11.00000   -1.20000
AFIX   0
C11   1    0.909582    0.158674    0.862850    11.00000    0.02823    0.04251 =
         0.05703   -0.00717   -0.01579   -0.00529
C20   1   -0.021629   -0.445559    0.409944    11.00000    0.11341    0.04507 =
         0.05233   -0.00144   -0.03603   -0.00542
AFIX  43
H20   2   -0.035208   -0.410344    0.347705    11.00000   -1.20000
AFIX   0
C13   1    0.729906   -0.126149    1.001098    11.00000    0.04403    0.03728 =
         0.05379   -0.01326   -0.01298   -0.00767
AFIX  43
H13   2    0.795407   -0.087636    1.029127    11.00000   -1.20000
AFIX   0
C22   1   -0.014334   -0.436283    0.582794    11.00000    0.15271    0.04736 =
         0.05592   -0.02292   -0.05084    0.01179
AFIX  43
H22   2   -0.023307   -0.393012    0.640688    11.00000   -1.20000
AFIX   0
C10   1    0.803430    0.266798    0.890718    11.00000    0.03589    0.04017 =
         0.04980   -0.01344   -0.01872    0.00148
C23   1   -0.082990   -0.251701    0.485744    11.00000    0.09161    0.03582 =
         0.08863   -0.00897   -0.06193   -0.00733
AFIX  23
H23A  2   -0.079107   -0.229081    0.414514    11.00000   -1.20000
H23B  2   -0.186266   -0.234115    0.519986    11.00000   -1.20000
AFIX   0
C27   1   -0.156046   -0.126384    0.691861    11.00000    0.04715    0.09480 =
         0.09987   -0.03050    0.01269   -0.02367
AFIX 137
H27A  2   -0.230984   -0.069954    0.669962    11.00000   -1.50000
H27B  2   -0.138290   -0.106341    0.757189    11.00000   -1.50000
H27C  2   -0.190620   -0.200900    0.696976    11.00000   -1.50000
AFIX   0
H5    2    0.629527    0.487861    0.714533    11.00000    0.02329
H10A  2    0.706552    0.241287    0.930439    11.00000    0.04097
H10B  2    0.845392    0.306503    0.930652    11.00000    0.04312
H9    2    0.175572   -0.099286    0.894473    11.00000    0.07196
HKLF 4

REM  P-1
REM R1 =  0.0351 for    3975 Fo > 4sig(Fo)  and  0.0480 for all    4882 data
REM    397 parameters refined using      0 restraints

END

WGHT      0.0296      1.0833

REM Highest difference peak  0.819,  deepest hole -0.308,  1-sigma level  0.065
Q1    1   0.9861  0.0832  0.8570  11.00000  0.05    0.82
Q2    1   0.9480  0.2073  0.7166  11.00000  0.05    0.75
Q3    1   0.4259  0.0927  0.4717  11.00000  0.05    0.43
Q4    1   0.1655 -0.0430  0.7947  11.00000  0.05    0.36
Q5    1   0.9158  0.1807  0.8062  11.00000  0.05    0.36
;
_shelx_res_checksum              45918
_shelx_hkl_file
;
   0   0   2  200.69    2.90
   0   0  -2  200.14    2.80
   0   0   3    2.15    0.28
   0   0   3    2.39    0.26
   0   0  -3    2.43    0.27
   0   0  -4  161.79    2.89
   0   0   4  160.49    2.88
   0   0   4  156.99    3.02
   0   0  -5    2.65    0.35
   0   0   5    3.13    0.42
   0   0   5    2.80    0.36
   0   0   5    2.61    0.34
   0   0  -6   24.95    1.18
   0   0  -6   27.70    1.30
   0   0   6   24.57    1.16
   0   0   6   25.69    1.29
   0   0   6   24.54    1.17
   0   0   7   31.94    1.45
   0   0  -7   31.70    1.54
   0   0   7   31.59    1.57
   0   0   7   33.89    1.48
   0   0  -7   32.64    1.47
   0   0   8   -0.17    0.19
   0   0  -8    0.16    0.19
   0   0   8    0.44    0.25
   0   0  -8   -0.17    0.23
   0   0   8   -0.54    0.23
   0   0  -9    7.86    0.86
   0   0  -9    6.22    0.75
   0   0   9    5.99    0.72
   0   0   9    7.58    0.80
   0   0   9    6.85    0.85
   0   0  10    1.13    0.45
   0   0  10    0.46    0.25
   0   0  10    0.57    0.19
   0   0 -10    0.52    0.33
   0   0 -11   -0.17    0.22
   0   0  11   -0.07    0.36
   0   0  12    2.77    0.68
   0   0 -12    2.65    0.57
   0   0 -13    0.01    0.31
   0   0  13   -0.01    0.42
   0   0 -14    8.37    1.10
   0   0 -15    0.44    0.43
   0   0 -16    1.92    0.65
   0   0 -17    0.40    0.42
   0   0 -18    3.84    0.91
   0   1 -18    3.73    0.90
   0   1 -17    0.86    0.54
   0   1 -16   12.02    1.41
   0   1 -15    0.28    0.27
   0  -1  15   -0.12    0.57
   0   1 -14    3.86    0.75
   0  -1  14    4.66    0.92
   0  -1  13   -0.50    0.54
   0   1 -13   -0.48    0.25
   0   1 -12    5.90    0.81
   0  -1  12    5.34    0.89
   0  -1  11   25.01    1.80
   0  -1  11   25.72    1.59
   0   1 -11   22.35    1.51
   0  -1  10   32.91    1.94
   0  -1  10   32.73    1.71
   0   1 -10   32.91    1.73
   0  -1   9   23.86    1.56
   0  -1   9   23.77    1.45
   0   1  -9   22.64    1.33
   0  -1   9   22.81    1.34
   0   1  -9   25.54    1.58
   0  -1   8    9.59    0.81
   0   1  -8    9.05    0.78
   0  -1   8    9.02    0.88
   0  -1   8    9.51    0.92
   0   1  -8    9.90    0.92
   0   1  -7   26.79    1.26
   0  -1   7   25.19    1.23
   0  -1   7   24.25    1.39
   0  -1   7   26.57    1.37
   0   1  -6    8.10    0.63
   0  -1   6    7.58    0.71
   0  -1   6    8.07    0.74
   0  -1   6    8.20    0.64
   0  -1   5    9.61    0.74
   0   1  -5    9.86    0.62
   0  -1   5    9.26    0.69
   0  -1   5    9.55    0.62
   0  -1   4   41.62    1.17
   0  -1   4   39.16    1.33
   0   1  -4   38.78    1.15
   0  -1   4   39.29    1.37
   0  -1   3    5.98    0.36
   0   1  -3    6.19    0.37
   0  -1   3    6.00    0.46
   0  -1   3    6.56    0.47
   0  -1   2  311.48    3.77
   0  -1   2  303.88    4.18
   0   1  -2  313.46    3.78
   0  -1   2  309.53    4.22
   0  -1   1   17.69    0.56
   0  -1   1   18.86    0.56
   0  -1  -1   14.80    0.49
   0  -1  -2  285.21    3.92
   0  -1  -3  135.71    2.50
   0   1   4  305.98    4.79
   0  -1  -4  309.40    4.81
   0   1   5    4.79    0.50
   0   1   5    4.69    0.42
   0   1   5    4.52    0.50
   0  -1  -5    4.69    0.50
   0  -1  -5    4.59    0.49
   0   1   6   32.88    1.47
   0   1   6   35.36    1.33
   0  -1  -6   37.24    1.55
   0  -1  -6   38.33    1.54
   0   1   6   35.55    1.50
   0   1   7   33.35    1.45
   0   1   7   35.26    1.64
   0   1   7   39.23    1.68
   0  -1  -7   38.16    1.69
   0  -1  -7   35.64    1.61
   0   1   8    6.49    0.66
   0  -1  -8    7.15    0.77
   0  -1  -8    8.90    0.87
   0   1   8    8.45    0.84
   0   1   8    6.62    0.76
   0   1   9   18.90    1.30
   0  -1  -9   17.15    1.27
   0  -1  -9   18.91    1.36
   0   1   9   15.68    1.24
   0   1   9   18.51    1.19
   0   1  10    1.26    0.34
   0  -1 -10    1.73    0.43
   0  -1 -11    2.27    0.51
   0   1  11    3.17    0.57
   0  -1 -12    1.05    0.39
   0  -1 -13    0.61    0.36
   0  -1 -14    0.45    0.36
   0  -1 -15    7.12    1.12
   0  -1 -16    5.97    1.07
   0  -1 -17    0.41    0.48
   0   2 -17    1.15    0.52
   0   2 -16    4.75    0.89
   0  -2  16    4.59    1.03
   0  -2  15    0.19    0.37
   0   2 -15   -0.33    0.32
   0  -2  14    7.83    1.22
   0   2 -14    4.66    0.79
   0  -2  13    1.73    0.66
   0   2 -13    1.68    0.48
   0   2 -12   45.46    2.20
   0  -2  12   41.23    2.48
   0  -2  11    2.12    0.54
   0   2 -11    1.54    0.39
   0  -2  11    3.07    0.55
   0  -2  10   74.67    3.06
   0  -2  10   78.89    2.63
   0   2 -10   77.54    2.63
   0   2  -9   41.22    1.76
   0  -2   9   42.00    2.03
   0  -2   9   43.90    1.82
   0  -2   9   42.56    2.15
   0   2  -8    6.78    0.65
   0  -2   8    7.11    0.83
   0   2  -8    5.59    0.71
   0  -2   8    4.99    0.68
   0  -2   8    5.88    0.60
   0  -2   7   65.91    2.40
   0  -2   7   65.64    1.95
   0  -2   7   66.85    2.31
   0   2  -7   68.23    1.98
   0  -2   6   49.15    1.85
   0  -2   6   46.28    1.85
   0  -2   6   47.80    1.49
   0   2  -6   48.33    1.50
   0  -2   5   36.36    1.47
   0  -2   5   36.17    1.14
   0  -2   5   35.79    1.47
   0   2  -5   35.19    1.14
   0  -2   4   61.77    1.82
   0  -2   4   62.18    1.39
   0  -2   4   63.63    1.85
   0   2  -4   61.73    1.39
   0   2  -3   42.40    0.94
   0  -2   3   43.82    1.36
   0  -2   3   43.44    0.94
   0  -2   3   42.74    1.35
   0  -2   2   12.01    0.61
   0  -2   2   12.56    0.63
   0  -2   1   24.14    0.75
   0  -2   1   23.82    0.78
   0  -2   0    3.91    0.28
   0  -2   0    4.32    0.24
   0  -2   0    4.48    0.24
   0  -2  -1  138.78    2.22
   0  -2  -2  114.16    2.17
   0  -2  -3    0.15    0.14
   0  -2  -4   83.14    2.02
   0  -2  -4   76.71    2.07
   0  -2  -5  165.32    3.38
   0  -2  -5  167.36    3.50
   0   2   6  204.01    3.62
   0  -2  -6  212.77    4.32
   0  -2  -7   35.90    1.69
   0   2   7   40.47    1.79
   0   2   7   37.48    1.39
   0   2   8   77.31    2.24
   0   2   8   78.86    2.70
   0  -2  -8   75.88    2.64
   0  -2  -8   80.89    2.72
   0  -2  -9    0.33    0.22
   0  -2  -9    0.66    0.27
   0   2   9    0.81    0.27
   0   2   9    0.72    0.26
   0   2  10    0.77    0.25
   0  -2 -10    0.40    0.28
   0  -2 -11    1.43    0.54
   0   2  11    1.08    0.29
   0  -2 -12    0.79    0.36
   0  -2 -13    1.25    0.42
   0  -2 -14   -0.01    0.33
   0  -2 -15    2.36    0.63
   0  -2 -16    0.34    0.49
   0  -2 -17    0.78    0.55
   0  -3  16   -0.05    0.48
   0   3 -16   -0.47    0.34
   0   3 -15    1.07    0.45
   0  -3  15    2.07    0.70
   0  -3  14    1.02    0.54
   0   3 -14    0.63    0.39
   0  -3  13    0.21    0.42
   0   3 -13    0.05    0.22
   0  -3  12   20.19    1.77
   0  -3  12   22.16    1.46
   0   3 -12   20.40    1.42
   0  -3  11    1.39    0.48
   0  -3  11    2.93    0.52
   0   3 -11    2.87    0.48
   0  -3  10   86.48    3.34
   0   3 -10   83.14    2.64
   0  -3  10   89.23    2.72
   0  -3   9    0.47    0.30
   0   3  -9    0.24    0.21
   0  -3   9    0.42    0.21
   0  -3   8   42.37    2.01
   0  -3   8   41.22    1.55
   0  -3   8   40.47    2.02
   0   3  -8   42.82    2.02
   0   3  -8   40.09    1.55
   0   3  -7    0.29    0.15
   0  -3   7    0.22    0.13
   0  -3   7    0.46    0.23
   0  -3   7    0.16    0.13
   0   3  -6   13.01    0.71
   0  -3   6   16.52    1.11
   0  -3   6   16.46    1.10
   0  -3   6   14.43    0.74
   0  -3   5   36.27    1.06
   0  -3   5   38.01    1.58
   0   3  -5   36.47    1.07
   0  -3   5   33.96    1.50
   0  -3   4   -0.14    0.23
   0  -3   4    0.06    0.12
   0   3  -3  155.36    2.17
   0  -3   3  162.42    3.15
   0  -3   3  164.13    3.17
   0  -3   3  159.76    2.16
   0  -3   2    4.48    0.41
   0  -3   2    4.90    0.44
   0  -3   1   37.72    1.09
   0  -3   1   38.48    1.18
   0  -3   0   15.72    0.57
   0   3   0   16.81    0.60
   0  -3   0   16.70    0.73
   0  -3   0   16.07    0.57
   0   3   1    3.73    0.21
   0  -3  -1    3.85    0.32
   0  -3  -1    3.37    0.19
   0  -3  -2  156.46    2.84
   0  -3  -3    8.20    0.61
   0  -3  -4  327.58    5.38
   0   3   5    1.83    0.22
   0  -3  -5    1.91    0.39
   0   3   6  180.88    3.07
   0  -3  -6  177.47    4.03
   0  -3  -7   -0.10    0.21
   0   3   7    0.08    0.10
   0  -3  -7    0.29    0.25
   0  -3  -8   77.42    2.66
   0   3   8   75.30    2.72
   0  -3  -8   67.11    2.57
   0   3   8   68.26    1.99
   0  -3  -9    5.84    0.81
   0   3   9    7.02    0.65
   0  -3  -9    8.07    0.91
   0   3  10   34.48    1.57
   0  -3 -10   38.99    2.14
   0   3  11   16.67    1.15
   0  -3 -11   14.60    1.38
   0   3  12    7.24    0.79
   0  -3 -12    5.68    0.88
   0  -3 -13    1.21    0.53
   0  -3 -14    0.91    0.42
   0  -3 -15    1.79    0.61
   0  -3 -16   -0.34    0.38
   0   4 -15    0.00    0.23
   0  -4  15   -0.64    0.59
   0  -4  14    0.48    0.49
   0   4 -14    0.06    0.32
   0  -4  13    1.59    0.68
   0   4 -13    0.07    0.19
   0  -4  12    4.11    0.85
   0  -4  12    4.06    0.61
   0   4 -12    3.94    0.60
   0   4 -11    0.06    0.19
   0  -4  11   -0.08    0.17
   0   4 -10   13.56    0.97
   0  -4  10   13.33    0.95
   0  -4  10   13.70    1.36
   0  -4   9   14.74    0.93
   0   4  -9   13.70    0.91
   0  -4   9   15.40    1.36
   0   4  -8  154.18    3.18
   0  -4   8  159.37    4.33
   0  -4   8  154.39    3.16
   0  -4   7   24.43    1.51
   0  -4   7   24.55    1.52
   0  -4   7   24.92    1.01
   0   4  -7   24.62    1.02
   0  -4   6  120.84    3.29
   0  -4   6  113.68    2.19
   0  -4   6  116.71    3.25
   0   4  -5   58.67    1.31
   0  -4   5   56.02    2.06
   0  -4   5   59.73    2.14
   0  -4   5   62.40    1.32
   0  -4   4   29.59    0.74
   0  -4   4   29.15    1.37
   0  -4   4   28.88    1.36
   0  -4   3   49.36    1.66
   0  -4   3   47.94    1.67
   0  -4   3   47.52    0.87
   0  -4   2   29.86    1.22
   0  -4   2   30.21    1.16
   0  -4   1   53.50    1.13
   0  -4   1   55.88    1.62
   0  -4   1   54.06    1.45
   0  -4   0  128.80    2.24
   0  -4   0  124.82    2.57
   0  -4   0  128.62    2.23
   0  -4  -1    0.11    0.11
   0  -4  -1    0.10    0.05
   0   4   2    4.03    0.42
   0  -4  -2    4.65    0.45
   0   4   3   52.24    1.71
   0  -4  -3   49.72    1.65
   0  -4  -4   17.82    1.03
   0   4   5   24.07    0.67
   0  -4  -5   24.44    1.32
   0   4   6   88.06    1.72
   0  -4  -6   92.01    2.82
   0  -4  -7    9.83    0.90
   0   4   7    9.79    0.58
   0  -4  -7    9.96    0.96
   0   4   8   56.81    2.43
   0  -4  -8   53.89    2.37
   0   4   8   54.37    1.61
   0   4   9    0.69    0.22
   0  -4  -9    0.73    0.41
   0   4  10   37.44    1.53
   0  -4 -10   38.69    2.19
   0   4  11    4.80    0.58
   0  -4 -11    4.63    0.80
   0   4  12   25.08    1.40
   0  -4 -12   24.28    1.92
   0  -4 -13   12.64    1.43
   0  -4 -14   10.06    1.34
   0  -4 -15    5.20    1.02
   0  -4 -16    0.09    0.57
   0  -5  15    1.81    0.68
   0  -5  14   -0.20    0.42
   0  -5  13    3.96    0.90
   0   5 -13    3.59    0.60
   0  -5  12    0.46    0.45
   0   5 -12    0.02    0.21
   0  -5  11   10.75    1.30
   0  -5  11   11.68    0.91
   0   5 -11   10.14    0.86
   0   5 -10    6.91    0.66
   0  -5  10    6.74    0.64
   0  -5  10    8.46    1.06
   0  -5   9    5.41    0.52
   0   5  -9    4.21    0.48
   0  -5   9    4.29    0.76
   0   5  -8   28.59    1.13
   0  -5   8   29.65    1.13
   0  -5   8   29.72    1.82
   0  -5   7    0.01    0.27
   0  -5   7    0.01    0.10
   0   5  -7    0.03    0.10
   0  -5   6   83.16    2.82
   0  -5   6   84.92    2.84
   0  -5   6   84.33    1.66
   0  -5   5   23.00    0.66
   0  -5   5   21.98    1.31
   0  -5   5   22.83    1.35
   0  -5   4  190.16    2.52
   0  -5   4  200.94    4.19
   0  -5   4  203.30    4.25
   0  -5   3   24.15    1.26
   0  -5   3   24.00    0.59
   0  -5   3   23.33    1.19
   0  -5   2   25.96    0.71
   0  -5   2   25.02    1.14
   0  -5   2   25.63    1.23
   0  -5   1  132.79    2.69
   0  -5   1  134.51    2.24
   0  -5   1  132.24    2.97
   0  -5   0    2.50    0.29
   0  -5   0    1.98    0.26
   0  -5  -1   29.24    1.11
   0  -5  -1   28.71    0.85
   0  -5  -2    0.66    0.21
   0  -5  -2    0.57    0.10
   0  -5  -3    9.82    0.75
   0  -5  -4   67.44    2.21
   0  -5  -5    1.20    0.35
   0  -5  -6    9.19    0.90
   0   5   6    9.08    0.38
   0   5   6    8.23    0.36
   0   5   7    4.47    0.67
   0   5   7    3.92    0.32
   0  -5  -7    4.05    0.64
   0   5   8   31.50    1.05
   0  -5  -8   29.69    1.80
   0  -5  -9    5.04    0.79
   0   5   9    4.39    0.42
   0   5  10   34.81    1.35
   0  -5 -10   35.35    2.14
   0  -5 -11   -0.03    0.31
   0   5  11    0.70    0.22
   0  -5 -12   24.68    1.97
   0  -5 -13   -0.33    0.40
   0  -5 -14    7.76    1.22
   0  -5 -15    1.03    0.46
   0  -6  14    1.80    0.65
   0  -6  13    1.09    0.50
   0   6 -12    0.15    0.22
   0  -6  12    0.57    0.37
   0   6 -11    2.62    0.42
   0  -6  11    3.21    0.77
   0  -6  10    6.72    1.00
   0   6 -10    4.07    0.47
   0   6  -9    6.12    0.52
   0  -6   9    8.33    1.05
   0  -6   9    8.18    0.59
   0  -6   8   11.82    1.21
   0  -6   8   10.77    0.59
   0  -6   7   21.18    1.52
   0  -6   7   18.14    0.68
   0   6  -6   62.29    2.45
   0  -6   6   59.68    2.44
   0  -6   6   56.42    1.12
   0  -6   6   58.38    2.44
   0  -6   5   11.39    1.03
   0   6  -5    9.87    0.93
   0  -6   5   10.16    0.93
   0  -6   4  138.22    3.60
   0   6  -4  142.67    3.60
   0  -6   4  136.79    3.48
   0  -6   3    6.18    0.69
   0  -6   3    6.63    0.66
   0  -6   3    6.17    0.31
   0  -6   3    6.60    0.32
   0  -6   2  263.87    3.66
   0  -6   2  273.96    5.08
   0  -6   2  273.58    4.76
   0  -6   1   32.22    1.46
   0  -6   1   32.66    1.03
   0  -6   1   33.38    1.30
   0  -6   0   27.42    1.31
   0  -6   0   28.91    1.07
   0  -6   0   28.04    1.06
   0  -6  -1   41.55    1.44
   0  -6  -1   41.32    1.14
   0  -6  -1   39.61    1.59
   0  -6  -2   68.81    2.05
   0  -6  -2   68.29    1.33
   0  -6  -3  213.50    4.27
   0  -6  -4    1.17    0.36
   0  -6  -5   13.47    1.07
   0  -6  -6    7.89    0.85
   0   6   6    8.37    0.89
   0  -6  -7    4.42    0.68
   0  -6  -8   21.23    1.57
   0   6   8   19.97    0.62
   0   6   8   18.03    0.58
   0   6   9   -0.04    0.07
   0  -6  -9   -0.15    0.27
   0  -6 -10    6.55    0.99
   0   6  10    7.18    0.51
   0   6  10    5.95    0.31
   0  -6 -11    8.02    1.13
   0   6  11    6.77    0.42
   0  -6 -12   32.50    2.32
   0  -6 -13    0.99    0.55
   0  -6 -14    7.79    1.26
   0  -6 -15    1.86    0.61
   0  -7  14   -0.07    0.58
   0  -7  13   11.86    1.57
   0  -7  12    2.82    0.81
   0  -7  11    9.44    1.25
   0  -7  10   -0.15    0.38
   0  -7   9    0.88    0.42
   0  -7   8    0.75    0.38
   0  -7   7    0.25    0.29
   0  -7   6   19.90    1.46
   0  -7   5    9.90    0.96
   0  -7   5    8.12    0.92
   0  -7   4   70.90    2.51
   0   7  -4   73.36    2.62
   0  -7   4   65.01    2.51
   0   7  -3    4.82    0.63
   0  -7   3    3.44    0.25
   0  -7   3    3.73    0.26
   0  -7   3    3.61    0.57
   0  -7   3    4.71    0.61
   0  -7   2   74.43    1.59
   0  -7   2   73.63    2.28
   0  -7   2   75.89    2.54
   0  -7   1    6.00    0.46
   0  -7   1    6.17    0.70
   0  -7   1    6.19    0.57
   0  -7   0   67.33    1.83
   0  -7   0   65.79    1.82
   0  -7   0   64.66    2.24
   0  -7  -1   48.06    1.89
   0  -7  -1   48.68    1.37
   0  -7  -1   48.79    1.67
   0  -7  -2   50.23    1.82
   0  -7  -2   50.52    1.20
   0  -7  -3   30.81    0.72
   0  -7  -3   33.62    1.57
   0  -7  -3   33.44    0.81
   0  -7  -4    1.31    0.39
   0  -7  -5   28.20    1.61
   0  -7  -6    3.42    0.60
   0  -7  -7    5.31    0.76
   0  -7  -8    0.71    0.41
   0  -7  -9    2.86    0.62
   0  -7 -10    0.24    0.30
   0  -7 -11   -0.28    0.36
   0  -7 -12    1.59    0.61
   0  -7 -13    3.98    0.91
   0  -7 -14    6.34    1.14
   0  -8  13    2.67    0.81
   0  -8  12    3.47    0.90
   0  -8  11    7.68    1.18
   0  -8  10    0.34    0.42
   0  -8   9   29.01    2.09
   0  -8   8    7.45    1.03
   0  -8   7    1.91    0.54
   0  -8   6    2.95    0.65
   0  -8   5   16.84    1.35
   0  -8   4   11.50    1.02
   0  -8   4   11.77    1.11
   0  -8   3    2.67    0.24
   0  -8   3    2.89    0.25
   0  -8   3    3.53    0.58
   0  -8   3    2.95    0.48
   0  -8   2   14.05    1.00
   0  -8   2   12.25    1.05
   0  -8   2   14.81    0.69
   0  -8   1    3.83    0.57
   0  -8   1    4.35    0.43
   0  -8   1    4.04    0.49
   0  -8   0  120.10    3.37
   0  -8   0  117.70    2.71
   0  -8   0  119.25    2.71
   0  -8  -1   12.50    0.87
   0  -8  -1   12.41    0.70
   0  -8  -1   11.55    0.97
   0  -8  -2   62.60    1.49
   0  -8  -2   65.53    2.20
   0  -8  -2   63.05    2.34
   0  -8  -3   11.05    0.45
   0  -8  -3   11.71    0.52
   0  -8  -3   11.47    0.95
   0  -8  -4   74.93    2.67
   0  -8  -5   37.66    1.95
   0  -8  -6   13.94    1.25
   0  -8  -7   19.39    1.52
   0  -8  -8    0.89    0.44
   0  -8  -9   14.79    1.45
   0  -8 -10    4.66    0.88
   0  -8 -11    1.71    0.62
   0  -8 -12    0.46    0.52
   0  -8 -13   -0.06    0.42
   0  -9  12   11.03    1.51
   0  -9  11    4.65    1.00
   0  -9  10    3.31    0.84
   0  -9   9   12.90    1.45
   0  -9   8    0.35    0.45
   0  -9   7   40.01    2.38
   0  -9   6    0.35    0.31
   0  -9   5   12.27    1.22
   0  -9   4   26.91    1.75
   0  -9   3    1.30    0.43
   0  -9   3    1.26    0.34
   0  -9   3    1.40    0.19
   0  -9   3    1.22    0.18
   0  -9   2   45.59    1.91
   0  -9   2   45.47    2.19
   0  -9   2   44.86    1.33
   0  -9   1    4.22    0.67
   0  -9   1    4.90    0.58
   0  -9   1    5.14    0.50
   0  -9   0   36.59    1.47
   0  -9   0   35.69    1.43
   0  -9   0   34.78    1.85
   0  -9  -1    7.58    0.84
   0  -9  -1    7.73    0.59
   0  -9  -1    7.68    0.72
   0  -9  -2  104.92    2.15
   0  -9  -2  103.60    3.28
   0  -9  -2  104.79    3.00
   0  -9  -3    2.94    0.29
   0  -9  -3    2.41    0.23
   0  -9  -3    3.48    0.56
   0  -9  -4   39.20    1.97
   0  -9  -5   13.81    1.20
   0  -9  -6   36.03    2.07
   0  -9  -7    5.57    0.87
   0  -9  -8    1.37    0.50
   0  -9  -9   35.80    2.33
   0  -9 -10    0.84    0.48
   0  -9 -11    2.85    0.82
   0  -9 -12   -0.04    0.33
   0  -9 -13    0.96    0.40
   0 -10  11    0.32    0.39
   0 -10  10   14.73    1.67
   0 -10   9   18.40    1.79
   0 -10   8    7.20    1.11
   0 -10   7   26.59    2.01
   0 -10   6   12.83    1.36
   0 -10   5   74.24    3.20
   0 -10   4    4.36    0.78
   0 -10   3   32.17    0.94
   0 -10   3   33.26    2.02
   0 -10   3   33.98    0.98
   0 -10   2   -0.01    0.11
   0 -10   2   -0.07    0.30
   0 -10   2    0.10    0.19
   0 -10   1   23.56    1.31
   0 -10   1   22.51    1.59
   0 -10   1   23.18    1.11
   0 -10   0    4.91    0.55
   0 -10   0    5.42    0.58
   0 -10   0    5.65    0.78
   0 -10  -1    0.07    0.18
   0 -10  -1   -0.06    0.28
   0 -10  -1   -0.02    0.14
   0 -10  -2    4.29    0.41
   0 -10  -2    4.00    0.59
   0 -10  -2    5.09    0.75
   0 -10  -3   15.98    0.63
   0 -10  -3   17.24    0.75
   0 -10  -3   18.04    1.30
   0 -10  -3   16.68    1.34
   0 -10  -4   25.95    1.65
   0 -10  -5    0.88    0.35
   0 -10  -6   14.61    1.37
   0 -10  -7    7.07    1.00
   0 -10  -8   11.66    1.32
   0 -10  -9   10.20    1.30
   0 -10 -10   12.01    1.47
   0 -10 -11   10.23    1.43
   0 -10 -12    1.21    0.63
   0 -11  10    5.27    1.08
   0 -11   9    0.67    0.36
   0 -11   8   10.67    1.38
   0 -11   7    8.85    1.23
   0 -11   6    8.70    1.15
   0 -11   5   26.81    1.99
   0 -11   4    0.13    0.28
   0 -11   3   13.34    0.57
   0 -11   3   12.81    1.31
   0 -11   2    4.31    0.79
   0 -11   2    5.43    0.48
   0 -11   1   10.11    0.89
   0 -11   1   11.21    0.79
   0 -11   1    9.44    1.10
   0 -11   0    3.93    0.52
   0 -11   0    3.72    0.51
   0 -11   0    4.04    0.73
   0 -11  -1    3.47    0.63
   0 -11  -1    3.12    0.41
   0 -11  -1    4.34    0.60
   0 -11  -2    0.79    0.30
   0 -11  -2    1.19    0.21
   0 -11  -2    1.03    0.37
   0 -11  -3   11.89    0.65
   0 -11  -3   11.82    1.18
   0 -11  -3   12.70    1.15
   0 -11  -3   11.41    0.53
   0 -11  -4    9.51    1.09
   0 -11  -4    7.31    0.90
   0 -11  -5    2.18    0.56
   0 -11  -6   14.48    1.41
   0 -11  -7    0.04    0.34
   0 -11  -8   12.34    1.42
   0 -11  -9   -0.18    0.40
   0 -11 -10   14.93    1.70
   0 -11 -11    6.46    1.16
   0 -12   9    2.56    0.66
   0 -12   8    0.71    0.48
   0 -12   7   -0.17    0.40
   0 -12   6   11.20    1.39
   0 -12   5    8.01    1.17
   0 -12   4    2.09    0.63
   0 -12   3   17.72    1.62
   0 -12   2    1.65    0.51
   0 -12   1   27.55    1.29
   0 -12   1   27.06    1.95
   0 -12   0   10.46    0.88
   0 -12   0    9.42    1.14
   0 -12  -1   28.21    1.56
   0 -12  -1   23.26    1.78
   0 -12  -2    0.41    0.32
   0 -12  -2    0.22    0.37
   0 -12  -3    2.31    0.52
   0 -12  -3    3.85    0.73
   0 -12  -4   -0.01    0.23
   0 -12  -4   -0.10    0.29
   0 -12  -5    4.95    0.83
   0 -12  -5    4.40    0.81
   0 -12  -6    3.41    0.75
   0 -12  -7   -0.12    0.29
   0 -12  -8   10.21    1.34
   0 -12  -9    3.80    0.91
   0 -12 -10   20.76    2.00
   0 -13   7    2.05    0.68
   0 -13   6    7.63    1.21
   0 -13   5    0.73    0.48
   0 -13   4    8.96    1.24
   0 -13   3    8.86    1.22
   0 -13   2    9.95    1.27
   0 -13   1   15.79    1.59
   0 -13   0    6.65    1.03
   0 -13  -1   23.91    1.48
   0 -13  -1   24.62    1.94
   0 -13  -2    0.59    0.49
   0 -13  -2    0.28    0.26
   0 -13  -3   15.71    1.54
   0 -13  -3   15.34    1.34
   0 -13  -4    1.46    0.52
   0 -13  -4    0.71    0.32
   0 -13  -5    1.12    0.55
   0 -13  -5    0.51    0.24
   0 -13  -6    1.67    0.55
   0 -13  -6    1.18    0.43
   0 -13  -7    0.02    0.34
   0 -13  -8    1.02    0.54
   0 -13  -9    0.05    0.30
   0 -14   5    0.94    0.51
   0 -14   4    2.83    0.75
   0 -14   3    0.83    0.48
   0 -14   2   15.07    1.64
   0 -14   1    3.89    0.84
   0 -14   0   11.76    1.42
   0 -14  -1    9.12    1.23
   0 -14  -2   14.43    1.55
   0 -14  -3   13.62    1.50
   0 -14  -4    0.10    0.31
   0 -14  -4    0.80    0.39
   0 -14  -5   18.08    1.61
   0 -14  -5   17.82    1.76
   0 -14  -6    0.47    0.36
   0 -14  -6    0.14    0.32
   0 -14  -7    3.59    0.80
   0 -14  -7    3.80    0.84
   0 -14  -8   -1.50    0.60
   0 -14  -8    0.09    0.46
   0 -15   2    0.97    0.49
   0 -15   1    0.60    0.41
   0 -15   0    3.93    0.85
   0 -15  -1   10.61    1.42
   0 -15  -2    5.96    1.07
   0 -15  -3   13.06    1.56
   0 -15  -4    4.97    0.99
   0 -15  -5   16.05    1.73
   0 -15  -6    0.15    0.48
   1 -15  -1    1.07    0.56
   1 -14  -8    5.30    1.01
   1 -14  -7    0.26    0.45
   1 -14  -7   -0.20    0.37
   1 -14  -6   26.75    2.10
   1 -14  -6   28.36    2.29
   1 -14  -5   -0.50    0.36
   1 -14  -5    0.32    0.30
   1 -14  -4   12.23    1.46
   1 -14  -3   10.69    1.39
   1 -14  -2    6.52    1.12
   1 -14  -1    1.24    0.59
   1 -14   0    0.84    0.51
   1 -14   1   -0.09    0.34
   1 -14   2   -1.02    0.53
   1 -14   3    0.29    0.30
   1 -14   4    3.29    0.85
   1 -13  -9    0.85    0.42
   1 -13  -8    4.87    1.03
   1 -13  -7    7.90    1.18
   1 -13  -6   11.95    1.48
   1 -13  -6   10.38    1.28
   1 -13  -5    2.65    0.62
   1 -13  -5    1.93    0.68
   1 -13  -4   22.39    1.69
   1 -13  -4   25.77    2.06
   1 -13  -3    1.97    0.53
   1 -13  -3    2.10    0.60
   1 -13  -2   21.64    1.49
   1 -13  -2   21.70    1.87
   1 -13  -1    5.49    0.97
   1 -13   0    7.97    1.17
   1 -13   1    8.23    1.19
   1 -13   2    0.40    0.34
   1 -13   3    3.08    0.76
   1 -13   4   -0.19    0.34
   1 -13   5    1.02    0.50
   1 -13   6    0.34    0.44
   1 -13   7    4.41    1.03
   1 -12 -10    1.04    0.62
   1 -12  -9    0.12    0.35
   1 -12  -8    0.71    0.42
   1 -12  -7    1.06    0.46
   1 -12  -6    0.76    0.42
   1 -12  -5    5.75    0.88
   1 -12  -4   23.57    1.88
   1 -12  -4   23.80    1.71
   1 -12  -3    1.23    0.53
   1 -12  -3    1.35    0.43
   1 -12  -2   18.84    1.66
   1 -12  -2   16.28    1.27
   1 -12  -1    1.07    0.38
   1 -12  -1    1.32    0.36
   1 -12  -1    1.88    0.40
   1 -12   0   21.39    1.77
   1 -12   0   18.83    1.16
   1 -12   1    6.58    1.04
   1 -12   2   22.64    1.86
   1 -12   3    9.00    1.22
   1 -12   4    0.97    0.50
   1 -12   5    1.61    0.57
   1 -12   6    0.58    0.40
   1 -12   7    0.58    0.39
   1 -12   8   -0.57    0.57
   1 -12   9    1.52    0.65
   1 -11 -11    4.99    1.00
   1 -11 -10   -0.34    0.35
   1 -11  -9    2.69    0.72
   1 -11  -8    0.46    0.44
   1 -11  -7    0.69    0.43
   1 -11  -6    9.24    1.15
   1 -11  -5   -0.19    0.29
   1 -11  -4    3.33    0.65
   1 -11  -3   -0.17    0.28
   1 -11  -3    0.21    0.28
   1 -11  -2   54.41    1.77
   1 -11  -2   54.63    2.26
   1 -11  -2   52.18    2.64
   1 -11  -1    7.89    0.80
   1 -11  -1    8.92    0.66
   1 -11  -1    6.72    0.96
   1 -11  -1    7.49    0.73
   1 -11   0   77.17    3.26
   1 -11   0   78.73    2.39
   1 -11   0   78.26    2.31
   1 -11   1    0.44    0.35
   1 -11   1    0.75    0.31
   1 -11   1    0.42    0.18
   1 -11   2   57.43    2.30
   1 -11   2   56.92    1.49
   1 -11   2   58.06    2.86
   1 -11   3   16.32    1.51
   1 -11   4    9.98    1.22
   1 -11   5   10.22    1.26
   1 -11   6    0.50    0.44
   1 -11   7    2.55    0.72
   1 -11   8   -0.06    0.37
   1 -11   9    1.19    0.61
   1 -11  10    0.13    0.39
   1 -10 -12    5.62    1.12
   1 -10 -11   10.29    1.47
   1 -10 -10    4.42    0.91
   1 -10  -9    5.79    1.04
   1 -10  -8    0.95    0.39
   1 -10  -7    6.74    1.00
   1 -10  -6    1.40    0.50
   1 -10  -5    1.46    0.47
   1 -10  -4    0.34    0.26
   1 -10  -3    9.59    0.97
   1 -10  -2    1.38    0.38
   1 -10  -2    1.51    0.49
   1 -10  -2    1.51    0.28
   1 -10  -2    1.51    0.22
   1 -10  -1    6.93    0.72
   1 -10  -1    6.15    0.53
   1 -10  -1    6.16    0.86
   1 -10   0   11.28    0.83
   1 -10   0   11.58    1.16
   1 -10   0   11.51    0.82
   1 -10   1   16.17    0.89
   1 -10   1   15.58    1.05
   1 -10   2   10.02    0.91
   1 -10   2   12.49    0.65
   1 -10   2   11.60    1.19
   1 -10   3   -0.14    0.35
   1 -10   4   42.52    2.39
   1 -10   5    4.59    0.81
   1 -10   6    9.16    1.18
   1 -10   7   15.19    1.55
   1 -10   8    5.39    1.00
   1 -10   9    6.03    1.07
   1 -10  10   -0.25    0.50
   1 -10  11   -0.29    0.30
   1  -9 -12    8.83    1.33
   1  -9 -11    0.12    0.40
   1  -9 -10   13.14    1.54
   1  -9  -9    6.70    1.06
   1  -9  -8   11.65    1.30
   1  -9  -7   30.82    2.04
   1  -9  -6    0.61    0.38
   1  -9  -5    0.31    0.32
   1  -9  -4   13.88    1.18
   1  -9  -3    0.62    0.32
   1  -9  -2    3.24    0.38
   1  -9  -2    3.51    0.52
   1  -9  -2    3.83    0.32
   1  -9  -2    4.39    0.70
   1  -9  -1    7.74    0.72
   1  -9  -1    7.78    0.56
   1  -9  -1    7.74    0.90
   1  -9   0    0.51    0.37
   1  -9   0   -0.22    0.20
   1  -9   0    0.29    0.16
   1  -9   1   27.80    1.74
   1  -9   1   30.67    1.18
   1  -9   1   27.71    1.36
   1  -9   2    1.63    0.45
   1  -9   2    2.42    0.28
   1  -9   2    2.57    0.46
   1  -9   3   23.19    1.63
   1  -9   3   21.52    1.37
   1  -9   4   31.61    1.96
   1  -9   5   12.59    1.26
   1  -9   6   55.81    2.76
   1  -9   7    1.97    0.56
   1  -9   8   31.83    2.20
   1  -9   9   -0.32    0.57
   1  -9  10    2.81    0.81
   1  -9  11    2.33    0.71
   1  -9  12    0.52    0.61
   1  -8 -13    1.97    0.71
   1  -8 -12   13.23    1.58
   1  -8 -11   -0.09    0.45
   1  -8 -10   34.25    2.36
   1  -8  -9   -0.46    0.43
   1  -8  -8   30.81    2.06
   1  -8  -7    0.08    0.24
   1  -8  -6   23.85    1.65
   1  -8  -5   47.92    2.23
   1  -8  -4    8.33    0.88
   1  -8  -3   15.03    1.10
   1  -8  -2    0.31    0.18
   1  -8  -2    0.56    0.12
   1  -8  -1    1.22    0.36
   1  -8  -1    1.26    0.22
   1  -8  -1    1.41    0.33
   1  -8   0    0.13    0.18
   1  -8   0   -0.10    0.14
   1  -8   0    0.13    0.13
   1  -8   1    0.02    0.12
   1  -8   1    0.23    0.29
   1  -8   1    0.09    0.12
   1  -8   2   22.79    1.51
   1  -8   2   24.34    0.83
   1  -8   2   23.71    1.29
   1  -8   3    0.67    0.31
   1  -8   3    0.04    0.17
   1  -8   4   23.97    1.61
   1  -8   4   22.27    1.42
   1  -8   5    9.08    1.03
   1  -8   6   17.37    1.47
   1  -8   7    0.03    0.27
   1  -8   8   26.39    1.93
   1  -8   9    1.80    0.62
   1  -8  10   24.36    2.00
   1  -8  11    6.33    1.09
   1  -8  12    2.67    0.82
   1  -8  13    2.67    0.83
   1  -7 -14    0.94    0.50
   1  -7 -13    0.03    0.49
   1  -7 -12    0.40    0.36
   1  -7 -11    0.10    0.30
   1  -7 -10   12.49    1.39
   1  -7  -9    0.40    0.25
   1  -7  -8   40.64    2.29
   1  -7  -7   -0.04    0.26
   1  -7  -6  169.84    4.54
   1  -7  -5   28.49    1.64
  -1   7   5   27.85    1.64
  -1   7   4   27.29    1.54
   1  -7  -4   25.09    1.46
   1  -7  -3   31.73    1.55
  -1   7   2   35.85    1.57
   1  -7  -2   36.10    0.89
   1  -7  -2   37.41    1.58
   1  -7  -2   36.28    1.14
   1  -7  -1   32.60    1.35
   1  -7  -1   33.55    1.07
   1  -7   0    0.58    0.26
   1  -7   0    0.60    0.20
   1  -7   0    0.60    0.17
   1  -7   1    0.65    0.22
   1  -7   1    0.40    0.15
   1  -7   2    1.01    0.36
   1  -7   2    1.00    0.27
   1  -7   2    0.97    0.15
   1  -7   3    0.46    0.27
   1  -7   3    0.53    0.18
   1  -7   4    6.88    0.81
   1  -7   4    7.65    0.81
  -1   7  -4    6.44    0.78
   1  -7   5    1.45    0.40
   1  -7   5    2.46    0.54
   1  -7   6   19.99    1.49
   1  -7   7   19.52    1.54
   1  -7   8   18.51    1.54
   1  -7   9    0.45    0.34
   1  -7  10   24.03    1.93
   1  -7  11    6.95    1.08
   1  -7  12    7.95    1.24
   1  -7  13   11.30    1.51
   1  -7  14    6.56    1.27
   1  -6 -14    0.75    0.48
   1  -6 -13   -0.11    0.35
   1  -6 -12    0.19    0.42
   1  -6 -11   -0.68    0.46
  -1   6  10    1.17    0.18
   1  -6 -10    0.49    0.36
   1  -6  -9    5.12    0.84
  -1   6   9    4.40    0.27
  -1   6   9    4.49    0.27
   1  -6  -8   21.73    1.62
   1  -6  -7    6.68    0.86
   1  -6  -6   47.21    2.17
  -1   6   6   44.25    2.11
   1  -6  -5   42.92    1.96
  -1   6   5   44.20    2.01
   1  -6  -4   87.70    2.72
   1  -6  -3   14.75    1.00
   1  -6  -2  120.63    2.88
   1  -6  -2  118.96    1.80
  -1   6   2  123.85    2.95
   1  -6  -2  121.23    2.19
  -1   6   1   29.49    1.24
   1  -6  -1   28.34    0.90
   1  -6  -1   28.80    1.20
   1  -6   0    3.30    0.49
   1  -6   0    4.25    0.40
   1  -6   0    3.59    0.37
   1  -6   1   45.47    1.52
   1  -6   1   44.76    1.82
   1  -6   1   46.23    1.22
   1  -6   2    2.46    0.38
   1  -6   2    2.65    0.47
   1  -6   2    2.00    0.19
   1  -6   3   41.82    1.73
   1  -6   3   41.86    1.85
   1  -6   4    2.35    0.45
   1  -6   4    2.17    0.45
   1  -6   5    0.45    0.21
  -1   6  -5    0.80    0.31
   1  -6   5    0.50    0.23
   1  -6   6    3.84    0.63
   1  -6   6    3.46    0.61
   1  -6   7    1.38    0.39
   1  -6   8    0.48    0.32
  -1   6  -9    4.35    0.33
   1  -6   9    5.50    0.85
   1  -6  10   17.94    1.60
  -1   6 -10   15.15    0.73
   1  -6  11    1.44    0.60
  -1   6 -11    0.37    0.17
   1  -6  12    8.86    1.25
   1  -6  13    0.62    0.49
   1  -6  14    7.50    1.29
   1  -5 -15    4.92    1.01
   1  -5 -14    0.86    0.44
   1  -5 -13   10.85    1.45
   1  -5 -12    1.77    0.60
  -1   5  11    0.43    0.18
   1  -5 -11    0.09    0.34
  -1   5  10    3.17    0.38
   1  -5 -10    4.06    0.80
   1  -5  -9    2.95    0.65
  -1   5   9    3.30    0.35
   1  -5  -8    1.02    0.37
  -1   5   8    1.14    0.18
   1  -5  -7    0.45    0.35
  -1   5   7    0.58    0.10
  -1   5   6   15.80    0.51
   1  -5  -6   16.69    1.24
   1  -5  -5    6.53    0.75
  -1   5   5    5.67    0.68
   1  -5  -4  230.20    4.66
  -1   5   3    0.82    0.26
   1  -5  -3    0.57    0.26
   1  -5  -2  158.55    2.47
   1  -5  -2  155.45    3.23
  -1   5   2  160.92    3.27
   1  -5  -2  151.46    2.02
   1  -5  -1   65.32    1.35
  -1   5   1   64.00    1.76
   1  -5  -1   64.16    1.76
   1  -5   0  120.57    2.91
   1  -5   0  122.94    2.34
  -1   5   0  119.07    2.34
   1  -5   0  120.10    2.32
   1  -5   1   30.91    0.90
   1  -5   1   32.21    1.40
   1  -5   1   31.04    1.18
   1  -5   2    0.61    0.09
   1  -5   2    1.15    0.28
   1  -5   2    0.78    0.29
   1  -5   3  225.61    4.53
   1  -5   3  223.78    4.36
   1  -5   4   40.79    1.76
   1  -5   4   39.10    1.68
   1  -5   5  133.94    3.52
   1  -5   5  132.45    3.51
   1  -5   6   40.51    1.93
   1  -5   6   40.30    1.93
   1  -5   7   10.42    1.01
   1  -5   7    9.54    0.97
  -1   5  -7    8.28    0.40
   1  -5   8    2.75    0.58
  -1   5  -8    3.19    0.31
   1  -5   9    5.51    0.83
  -1   5  -9    4.94    0.44
  -1   5 -10    1.26    0.27
   1  -5  10    1.13    0.43
  -1   5 -11    0.12    0.16
   1  -5  11   -0.10    0.33
  -1   5 -12    4.12    0.55
   1  -5  12    4.38    0.91
   1  -5  13    4.22    0.90
  -1   5 -13    4.39    0.60
   1  -5  14   11.98    1.55
   1  -5  15   -0.13    0.48
   1  -4 -15    4.76    1.01
   1  -4 -14    2.24    0.67
   1  -4 -13   24.69    2.04
  -1   4  12    6.83    0.71
   1  -4 -12    5.97    0.99
  -1   4  11   28.43    1.38
   1  -4 -11   29.18    2.06
   1  -4 -10    2.87    0.65
  -1   4  10    2.51    0.38
   1  -4  -9    9.22    1.06
  -1   4   9    7.97    0.61
   1  -4  -8    3.67    0.65
  -1   4   8    3.06    0.35
  -1   4   7   13.86    1.14
  -1   4   7   11.64    0.60
   1  -4  -7   11.42    1.05
   1  -4  -7   14.34    1.14
  -1   4   6   18.44    0.64
   1  -4  -6   18.94    1.26
   1  -4  -5    0.07    0.19
  -1   4   5    0.08    0.05
  -1   4   4   18.60    0.57
   1  -4  -4   20.06    1.14
  -1   4   3   13.84    0.88
   1  -4  -3   12.80    0.84
   1  -4  -2   54.47    1.66
  -1   4   2   55.75    1.68
   1  -4  -1    0.14    0.11
  -1   4   1    0.19    0.13
   1  -4  -1    0.27    0.12
  -1   4   0   27.64    0.90
   1  -4   0   26.77    0.89
   1  -4   1   23.84    1.10
  -1   4  -1   24.24    0.69
   1  -4   1   23.60    0.69
   1  -4   2  114.39    2.71
   1  -4   3   48.60    1.73
   1  -4   4   15.29    1.00
   1  -4   5    1.00    0.34
   1  -4   6    0.97    0.29
  -1   4  -6    0.85    0.14
   1  -4   6    0.78    0.26
   1  -4   7   32.55    1.74
   1  -4   7   32.34    1.80
  -1   4  -7   34.92    1.76
  -1   4  -7   33.93    1.06
  -1   4  -8    2.33    0.32
   1  -4   8    4.26    0.67
  -1   4  -9    9.39    0.69
   1  -4   9    9.96    1.08
  -1   4 -10    4.94    0.55
   1  -4  10    5.53    0.88
   1  -4  11    5.13    0.89
  -1   4 -11    6.22    0.67
  -1   4 -12    7.47    0.79
   1  -4  12    5.94    0.97
  -1   4 -13    1.60    0.39
   1  -4  13    2.72    0.72
  -1   4 -14    3.29    0.58
   1  -4  14    3.76    0.90
   1  -4  15    1.73    0.72
   1  -3 -16    7.60    1.27
   1  -3 -15    0.07    0.35
   1  -3 -14   10.04    1.33
   1  -3 -13    6.88    1.09
   1  -3 -12   13.77    1.45
  -1   3  12   11.98    1.00
  -1   3  11   24.18    1.37
   1  -3 -11   23.84    1.79
   1  -3 -10    0.40    0.26
  -1   3  10    0.46    0.22
   1  -3  -9   47.73    2.32
  -1   3   9   48.89    1.73
   1  -3  -8    0.37    0.31
   1  -3  -8   -0.08    0.21
  -1   3   8    0.21    0.14
  -1   3   8    0.01    0.17
   1  -3  -7   35.52    1.76
  -1   3   7   32.57    1.17
   1  -3  -6   20.41    1.28
  -1   3   6   18.56    0.78
  -1   3   5   10.61    0.49
   1  -3  -5   11.63    0.90
   1  -3  -4   39.17    1.55
  -1   3   4   38.89    0.83
   1  -3  -3   40.05    1.45
   1  -3  -2    1.27    0.25
  -1   3   2    1.50    0.16
  -1   3   1    2.73    0.30
   1  -3  -1    2.83    0.24
   1  -3  -1    2.41    0.28
   1  -3   0    0.45    0.12
  -1   3   0    0.43    0.13
   1  -3   1   47.62    0.93
  -1   3  -1   48.46    0.93
   1  -3   1   47.82    1.43
   1  -3   2  363.44    5.41
   1  -3   3    0.20    0.15
  -1   3  -4  213.70    2.73
   1  -3   4  226.74    4.14
  -1   3  -5    0.27    0.10
   1  -3   5    0.50    0.26
  -1   3  -6  132.34    2.39
   1  -3   6  133.39    3.37
   1  -3   7   43.72    1.93
  -1   3  -7   42.35    1.88
  -1   3  -7   41.90    1.34
   1  -3   8    1.52    0.42
  -1   3  -8    0.99    0.34
   1  -3   8    1.69    0.44
  -1   3  -8    1.05    0.25
  -1   3  -9   11.25    0.81
   1  -3   9   11.84    1.13
   1  -3  10    6.51    0.91
  -1   3 -10    6.69    0.68
   1  -3  11    0.87    0.47
  -1   3 -11    0.37    0.20
  -1   3 -12    0.00    0.19
   1  -3  12    0.18    0.40
   1  -3  13    2.24    0.73
  -1   3 -13    2.94    0.57
   1  -3  14   -0.63    0.58
  -1   3 -14   -0.10    0.21
   1  -3  15    1.51    0.63
  -1   3 -15    0.85    0.37
   1  -3  16    5.73    1.13
   1  -2 -16    2.88    0.80
   1  -2 -15   -0.07    0.50
   1  -2 -14    6.89    1.13
   1  -2 -13    0.00    0.41
   1  -2 -12   21.72    1.76
  -1   2  11   -0.15    0.18
   1  -2 -11    0.29    0.27
  -1   2  10    2.59    0.46
   1  -2 -10    1.77    0.50
  -1   2   9   35.24    1.56
   1  -2  -9   34.33    1.90
  -1   2   8    4.77    0.53
   1  -2  -8    5.35    0.73
  -1   2   8    4.87    0.68
   1  -2  -8    4.45    0.65
   1  -2  -7  134.50    3.60
  -1   2   7  136.63    2.90
  -1   2   7  140.56    3.65
   1  -2  -6    3.25    0.50
  -1   2   6    3.85    0.38
   1  -2  -5   60.21    2.02
  -1   2   5   60.73    1.48
  -1   2   4   44.95    1.07
   1  -2  -4   41.45    1.54
   1  -2  -3  216.53    3.76
  -1   2   3  211.40    2.80
   1  -2  -3  209.27    2.84
   1  -2  -2    5.63    0.45
   1  -2  -2    5.58    0.23
  -1   2   2    5.51    0.23
   1  -2  -1    1.41    0.12
  -1   2   1    1.12    0.15
   1  -2  -1    1.73    0.23
  -1   2   0  111.86    1.80
   1  -2   0  108.72    1.79
   1  -2   1   76.46    1.18
  -1   2  -1   74.35    1.17
   1  -2   1   74.16    1.63
   1  -2   2  573.48    7.36
   1  -2   3  165.98    3.10
  -1   2  -3  171.59    2.26
   1  -2   4   83.99    2.16
  -1   2  -4   83.12    1.53
  -1   2  -5    9.79    0.54
   1  -2   5   11.40    0.81
  -1   2  -6  121.26    3.02
   1  -2   6  115.34    3.00
  -1   2  -6  116.87    2.39
  -1   2  -7   41.66    1.44
  -1   2  -7   42.82    1.82
   1  -2   7   38.83    1.77
  -1   2  -8   23.69    1.42
   1  -2   8   23.51    1.46
  -1   2  -8   24.69    1.18
  -1   2  -9  100.80    3.21
   1  -2   9   93.44    3.16
  -1   2  -9   92.91    2.63
   1  -2   9   91.38    3.17
   1  -2  10    0.49    0.32
  -1   2 -10    0.39    0.23
   1  -2  11    3.77    0.71
  -1   2 -11    3.23    0.55
  -1   2 -12    0.25    0.29
   1  -2  12   -0.09    0.32
   1  -2  13    4.16    0.84
  -1   2 -13    4.07    0.67
  -1   2 -14    2.20    0.56
   1  -2  14    2.00    0.70
  -1   2 -15    2.21    0.55
   1  -2  15    4.45    0.97
  -1   2 -16   -0.34    0.31
   1  -2  16    0.33    0.45
   1  -1 -17    0.55    0.49
   1  -1 -16    0.00    0.41
   1  -1 -15   -1.11    0.50
   1  -1 -14    0.90    0.50
   1  -1 -13    1.73    0.56
   1  -1 -12    0.62    0.41
   1  -1 -11    1.77    0.51
  -1   1  11    1.37    0.39
  -1   1  10   15.06    1.12
   1  -1 -10   14.87    1.28
  -1   1   9   35.64    1.87
  -1   1   9   35.00    1.63
   1  -1  -9   32.92    1.82
  -1   1   8   34.75    1.74
   1  -1  -8   29.83    1.64
  -1   1   8   31.58    1.46
   1  -1  -8   34.99    1.80
  -1   1   7   43.80    1.85
  -1   1   7   40.36    1.54
   1  -1  -7   42.43    1.84
   1  -1  -6    4.97    0.57
  -1   1   6    4.39    0.46
  -1   1   6    5.24    0.60
   1  -1  -5   40.54    1.58
  -1   1   5   40.98    1.29
   1  -1  -4    9.08    0.53
  -1   1   4    9.04    0.52
   1  -1  -4    8.88    0.67
   1  -1  -3 1000.00   11.40
  -1   1   3  999.24   11.35
   1  -1  -3  989.87   12.10
   1  -1  -2  239.39    3.13
  -1   1   2  240.88    3.11
   1  -1  -2  244.88    3.69
   1  -1  -1   61.65    1.03
   1  -1  -1   61.89    1.33
  -1   1   1   61.82    1.04
  -1   1   0    2.51    0.21
   1  -1   0    2.47    0.20
   1  -1   1    0.56    0.12
   1  -1   2   36.14    1.00
   1  -1   3   66.47    1.60
  -1   1  -3   65.90    1.30
  -1   1  -4    3.36    0.31
  -1   1  -4    3.40    0.38
   1  -1   4    3.44    0.39
   1  -1   5   19.63    1.01
  -1   1  -5   20.49    0.87
  -1   1  -5   21.10    1.03
  -1   1  -6   81.72    2.05
   1  -1   6   80.08    2.36
   1  -1   7    0.51    0.25
  -1   1  -7    0.23    0.15
  -1   1  -7    0.42    0.20
  -1   1  -8  135.75    3.19
  -1   1  -8  138.25    3.58
   1  -1   8  131.67    3.59
  -1   1  -9   46.60    2.09
  -1   1  -9   42.09    1.77
   1  -1   9   41.63    2.03
  -1   1 -10   38.89    1.82
   1  -1  10   39.61    2.11
  -1   1 -11   26.57    1.58
   1  -1  11   27.96    1.87
  -1   1 -12    7.04    0.87
   1  -1  12    7.61    1.02
  -1   1 -13    8.78    1.02
   1  -1  13   10.07    1.24
  -1   1 -14   -0.41    0.38
   1  -1  14    0.14    0.34
   1  -1  15    0.33    0.43
  -1   1 -15    0.50    0.38
   1  -1  16   -0.17    0.40
  -1   1 -16    0.25    0.37
  -1   1 -17    0.91    0.46
   1   0 -17    0.46    0.36
   1   0 -16   -0.47    0.42
   1   0 -15    0.42    0.44
   1   0 -14    0.22    0.29
   1   0 -13    0.16    0.28
   1   0 -12    0.09    0.29
   1   0 -11    0.75    0.38
  -1   0  10   23.95    1.48
  -1   0  10   19.93    1.55
   1   0 -10   22.13    1.51
  -1   0   9    7.12    0.80
  -1   0   9    6.66    0.84
   1   0  -9    7.23    0.84
  -1   0   9    6.54    0.74
   1   0  -8   58.62    2.25
  -1   0   8   62.76    2.17
  -1   0   8   61.16    2.30
  -1   0   8   58.99    2.40
   1   0  -7    0.36    0.25
  -1   0   7    0.29    0.24
  -1   0   7    0.39    0.19
  -1   0   7    0.80    0.29
  -1   0   6   59.16    1.98
  -1   0   6   60.58    1.87
   1   0  -6   63.21    2.06
  -1   0   6   60.56    2.12
  -1   0   5   30.55    1.19
  -1   0   5   30.06    1.27
  -1   0   5   29.89    1.34
   1   0  -5   30.32    1.29
   1   0  -4   17.01    0.83
  -1   0   4   17.70    0.82
  -1   0   4   18.32    0.90
   1   0  -4   17.10    0.88
  -1   0   4   19.30    0.98
   1   0  -3    6.10    0.47
  -1   0   3    6.32    0.42
  -1   0   3    5.51    0.46
   1   0  -2  345.63    4.71
  -1   0   2  347.48    4.45
   1   0  -2  343.30    4.49
   1   0  -1  331.99    4.27
  -1   0   1  328.02    4.07
   1   0   0   19.28    0.57
  -1   0  -1   29.49    0.75
  -1   0  -1   28.69    0.59
  -1   0  -2  152.83    2.23
   1   0   2  152.91    2.23
  -1   0  -3  157.28    2.56
   1   0   3  155.14    2.56
  -1   0  -3  157.18    2.56
   1   0   4    9.89    0.61
  -1   0  -4    8.75    0.55
  -1   0  -4    9.05    0.56
  -1   0  -5   14.60    0.80
  -1   0  -5   15.63    0.84
   1   0   5   15.67    0.87
   1   0   6   37.85    1.54
  -1   0  -6   39.66    1.52
  -1   0  -6   37.97    1.42
   1   0   7   -0.03    0.20
  -1   0  -7    0.54    0.21
  -1   0  -7    0.20    0.17
   1   0   7    0.17    0.15
  -1   0  -8  114.65    3.14
   1   0   8  109.05    3.15
   1   0   8  112.50    3.00
  -1   0  -8  102.39    2.86
   1   0   9    0.61    0.29
  -1   0  -9    1.27    0.39
  -1   0  -9    1.10    0.34
  -1   0 -10   49.49    2.14
   1   0  10   47.12    2.23
   1   0  10   48.28    2.29
  -1   0 -11    9.10    0.96
   1   0  11    8.32    1.03
   1   0  12   14.68    1.39
  -1   0 -12   14.75    1.29
  -1   0 -13   12.73    1.25
   1   0  13   12.92    1.38
   1   0  14    0.23    0.36
  -1   0 -14    0.01    0.31
   1   0  15    3.55    0.82
  -1   0 -15    2.86    0.65
  -1   0 -16    0.97    0.38
  -1   0 -17    0.56    0.42
  -1   0 -18   -1.05    0.62
   1   1 -17    3.31    0.90
   1   1 -16    0.39    0.39
   1   1 -15    5.85    1.01
   1   1 -14   -0.50    0.43
  -1  -1  13   -0.22    0.49
   1   1 -13    0.41    0.33
   1   1 -12    2.59    0.59
  -1  -1  12    3.24    0.74
  -1  -1  11    1.75    0.49
   1   1 -11    1.98    0.52
   1   1 -10    7.54    0.89
  -1  -1  10    9.04    0.93
  -1  -1  10    7.35    0.96
  -1  -1   9    3.46    0.56
   1   1  -9    3.46    0.60
  -1  -1   9    4.03    0.70
  -1  -1   9    3.62    0.57
   1   1  -8   26.14    1.54
  -1  -1   8   25.16    1.40
   1   1  -8   22.50    1.34
  -1  -1   8   26.04    1.44
  -1  -1   8   23.84    1.53
   1   1  -7   21.03    1.21
  -1  -1   7   22.23    1.24
  -1  -1   7   22.14    1.21
  -1  -1   7   20.65    1.32
   1   1  -6   42.69    1.61
  -1  -1   6   43.29    1.80
  -1  -1   6   42.44    1.64
  -1  -1   6   44.15    1.63
  -1  -1   5    0.18    0.18
  -1  -1   5   -0.08    0.16
   1   1  -5    0.56    0.20
  -1  -1   5    0.05    0.11
   1   1  -5    0.20    0.16
  -1  -1   4   71.57    1.80
   1   1  -4   72.69    1.91
  -1  -1   4   70.39    1.98
  -1  -1   4   67.46    1.83
   1   1  -4   71.48    1.83
  -1  -1   3    6.20    0.50
   1   1  -3    6.53    0.46
  -1  -1   3    6.83    0.49
  -1  -1   3    6.46    0.46
  -1  -1   2  672.79    8.08
   1   1  -2  658.81    8.02
  -1  -1   2  661.43    8.12
  -1  -1   2  665.01    7.98
  -1  -1   1  600.47    7.16
  -1  -1   1  604.26    7.06
   1   1  -1  604.44    7.15
  -1  -1   0   74.42    1.31
  -1  -1  -1   49.91    1.00
   1   1   2   13.01    0.44
  -1  -1  -2   14.65    0.46
   1   1   3  251.36    3.56
  -1  -1  -3  247.88    3.85
  -1  -1  -3  257.05    3.58
  -1  -1  -4   75.28    1.89
   1   1   4   74.22    1.77
  -1  -1  -4   80.34    1.80
  -1  -1  -5   48.21    1.60
   1   1   5   46.29    1.51
  -1  -1  -5   50.21    1.55
   1   1   6    0.54    0.24
  -1  -1  -6    1.04    0.27
  -1  -1  -6    0.52    0.22
  -1  -1  -7    4.84    0.55
   1   1   7    4.14    0.55
  -1  -1  -7    3.83    0.51
  -1  -1  -8   56.37    2.14
  -1  -1  -8   60.40    2.19
   1   1   8   58.63    2.20
  -1  -1  -9    2.23    0.45
   1   1   9    2.47    0.49
   1   1  10   29.23    1.76
  -1  -1 -10   36.22    1.90
   1   1  10   32.55    1.72
  -1  -1 -10   30.94    1.75
   1   1  11    1.01    0.41
  -1  -1 -11    0.37    0.27
   1   1  11    0.78    0.31
  -1  -1 -12    5.01    0.79
   1   1  12    2.91    0.63
  -1  -1 -13   16.16    1.46
  -1  -1 -14    6.93    1.04
  -1  -1 -15    4.57    0.89
  -1  -1 -16    2.18    0.71
  -1  -1 -17    8.03    1.24
  -1  -1 -18    0.29    0.31
   1   2 -17    2.10    0.60
   1   2 -16    0.42    0.27
  -1  -2  15    4.06    0.90
   1   2 -15    4.39    0.84
   1   2 -14    0.57    0.37
  -1  -2  14    0.74    0.54
  -1  -2  13   12.37    1.42
   1   2 -13   14.79    1.38
  -1  -2  12    0.39    0.43
   1   2 -12    0.53    0.39
  -1  -2  11   14.33    1.42
   1   2 -11   14.28    1.22
   1   2 -10    1.41    0.41
  -1  -2  10    1.03    0.50
  -1  -2  10    1.48    0.38
  -1  -2   9    0.49    0.25
  -1  -2   9    0.86    0.33
  -1  -2   9    0.59    0.25
   1   2  -9    1.00    0.39
   1   2  -8    2.34    0.49
  -1  -2   8    2.87    0.58
  -1  -2   8    1.92    0.42
   1   2  -8    1.75    0.41
  -1  -2   8    2.54    0.43
  -1  -2   7    0.17    0.25
   1   2  -7   -0.16    0.21
  -1  -2   7   -0.01    0.15
  -1  -2   7   -0.11    0.21
  -1  -2   6   18.88    1.12
  -1  -2   6   18.07    0.98
  -1  -2   6   18.31    1.19
   1   2  -6   17.80    0.98
  -1  -2   5    0.15    0.12
  -1  -2   5    0.19    0.14
  -1  -2   5   -0.03    0.18
   1   2  -5   -0.01    0.13
   1   2  -4   10.32    0.62
  -1  -2   4   10.07    0.71
  -1  -2   4   10.01    0.74
  -1  -2   4    9.15    0.58
   1   2  -3    7.80    0.48
  -1  -2   3    9.03    0.61
  -1  -2   3    8.08    0.49
  -1  -2   3    8.24    0.60
   1   2  -2  189.45    2.89
  -1  -2   2  182.94    3.11
  -1  -2   2  185.84    3.06
  -1  -2   2  189.89    2.87
  -1  -2   1  118.90    2.10
  -1  -2   1  116.05    2.00
  -1  -2   0  150.22    2.13
  -1  -2   0  151.62    2.32
  -1  -2  -1  432.06    5.23
   1   2   2  146.84    2.20
  -1  -2  -2  145.99    2.04
   1   2   3  100.65    1.65
  -1  -2  -3  100.14    2.24
  -1  -2  -4   42.02    1.47
  -1  -2  -4   44.96    1.30
  -1  -2  -5   29.90    1.31
  -1  -2  -5   29.42    1.18
  -1  -2  -6    8.30    0.67
  -1  -2  -6    8.25    0.73
  -1  -2  -7   18.56    1.17
  -1  -2  -7   17.16    1.07
  -1  -2  -8   27.58    1.47
  -1  -2  -8   25.56    1.48
  -1  -2  -9    0.92    0.34
  -1  -2  -9    1.36    0.36
  -1  -2 -10   15.12    1.27
  -1  -2 -10   16.86    1.30
  -1  -2 -11    7.95    0.96
   1   2  11    7.52    0.85
  -1  -2 -12   12.88    1.27
  -1  -2 -13   -0.20    0.33
  -1  -2 -14   16.15    1.56
  -1  -2 -15    7.04    1.11
  -1  -2 -16    2.11    0.64
  -1  -2 -17    0.25    0.43
   1   3 -16    1.88    0.63
   1   3 -15    0.73    0.36
  -1  -3  15    0.47    0.39
  -1  -3  14   -0.37    0.35
   1   3 -14    0.14    0.25
  -1  -3  13   13.04    1.52
   1   3 -13   12.55    1.22
   1   3 -12    1.66    0.44
  -1  -3  12    1.61    0.56
  -1  -3  11   51.33    2.23
  -1  -3  11   49.62    2.68
   1   3 -11   45.08    2.14
  -1  -3  10    0.82    0.40
  -1  -3  10    0.82    0.29
   1   3 -10    0.68    0.24
  -1  -3   9   40.03    2.18
  -1  -3   9   42.27    1.81
   1   3  -9   43.12    1.84
  -1  -3   8    0.11    0.19
  -1  -3   8    0.00    0.14
  -1  -3   8    0.65    0.40
   1   3  -8    0.39    0.21
   1   3  -8    0.39    0.21
  -1  -3   7   18.93    1.04
  -1  -3   7   17.45    1.26
   1   3  -7   18.21    1.04
  -1  -3   7   18.98    1.26
  -1  -3   6    1.55    0.28
  -1  -3   6    2.08    0.43
   1   3  -6    1.70    0.32
  -1  -3   6    0.93    0.26
   1   3  -5    8.77    0.61
  -1  -3   5    7.94    0.57
  -1  -3   5    8.05    0.74
  -1  -3   5    8.65    0.75
  -1  -3   4    4.29    0.49
  -1  -3   4    4.52    0.51
   1   3  -4    4.48    0.40
  -1  -3   4    4.34    0.38
   1   3  -3   12.21    0.60
  -1  -3   3   11.74    0.76
  -1  -3   3   10.84    0.72
  -1  -3   3   11.93    0.59
  -1  -3   2  109.80    2.00
  -1  -3   2  108.20    2.29
  -1  -3   2  114.62    2.39
  -1  -3   1    0.09    0.09
   1   3  -1    0.08    0.09
  -1  -3   1    0.08    0.10
  -1  -3   0   20.77    0.75
   1   3   0   21.95    0.78
   1   3   0   22.06    0.74
  -1  -3   0   22.04    0.75
   1   3   1   56.84    1.23
  -1  -3  -1   57.95    1.22
   1   3   2    1.80    0.18
  -1  -3  -2    1.71    0.19
   1   3   3  220.30    3.07
  -1  -3  -3  217.30    3.86
   1   3   4    0.76    0.12
  -1  -3  -4    0.74    0.23
  -1  -3  -5  289.11    5.19
   1   3   5  290.35    3.97
  -1  -3  -6   26.21    1.25
  -1  -3  -6   25.27    1.36
  -1  -3  -7   67.61    2.21
  -1  -3  -7   61.68    2.30
  -1  -3  -8   15.59    1.10
  -1  -3  -8   14.07    1.15
  -1  -3  -9    0.01    0.21
  -1  -3  -9    0.00    0.23
  -1  -3 -10    3.22    0.66
  -1  -3 -10    4.49    0.68
  -1  -3 -11    4.58    0.78
   1   3  11    3.19    0.53
   1   3  12    0.39    0.26
  -1  -3 -12    0.06    0.32
  -1  -3 -13    0.19    0.33
  -1  -3 -14    4.34    0.84
  -1  -3 -15   -0.29    0.39
  -1  -3 -16    4.48    0.98
  -1  -3 -17   -0.04    0.39
   1   4 -15    0.41    0.29
  -1  -4  15   -0.17    0.52
   1   4 -14    2.01    0.56
  -1  -4  14    2.69    0.74
   1   4 -13    6.66    0.89
  -1  -4  13    8.20    1.24
   1   4 -12    6.48    0.81
  -1  -4  12    6.43    1.05
  -1  -4  11   28.40    1.60
  -1  -4  11   31.82    2.17
   1   4 -11   29.75    1.67
   1   4 -10    1.06    0.34
  -1  -4  10    1.12    0.28
  -1  -4  10    1.07    0.40
  -1  -4   9   16.36    1.41
  -1  -4   9   14.58    1.01
   1   4  -9   14.39    1.02
   1   4  -8    6.08    0.64
  -1  -4   8    8.00    0.96
  -1  -4   8    6.15    0.61
  -1  -4   7   21.54    1.44
  -1  -4   7   21.81    1.08
   1   4  -7   21.43    1.10
   1   4  -7   21.60    1.40
  -1  -4   7   22.07    1.41
  -1  -4   6    4.35    0.64
   1   4  -6    3.44    0.41
  -1  -4   6    3.62    0.41
  -1  -4   6    3.65    0.56
   1   4  -5    9.73    0.61
  -1  -4   5   10.35    0.86
  -1  -4   5   10.88    0.65
  -1  -4   5   10.89    0.88
  -1  -4   4   19.16    1.11
  -1  -4   4   19.35    1.09
   1   4  -4   17.21    1.03
  -1  -4   4   18.27    0.78
  -1  -4   3   22.91    0.83
  -1  -4   3   23.24    1.15
  -1  -4   3   25.50    1.17
   1   4  -3   22.94    1.11
  -1  -4   2    9.99    0.53
   1   4  -2   10.68    0.69
  -1  -4   2    9.80    0.67
  -1  -4   2    9.12    0.66
  -1  -4   1   23.11    0.95
  -1  -4   1   21.90    0.93
   1   4  -1   21.91    0.92
   1   4  -1   20.89    0.94
  -1  -4   0   15.79    0.73
   1   4   0   15.56    0.74
  -1  -4   0   16.33    0.72
  -1  -4  -1   13.46    0.65
   1   4   1   12.24    0.57
  -1  -4  -1   11.52    0.55
  -1  -4  -2   70.40    1.42
   1   4   2   71.91    1.43
  -1  -4  -3  124.35    1.73
   1   4   3  127.19    2.03
  -1  -4  -3  125.80    2.86
  -1  -4  -4   66.19    2.08
   1   4   4   63.97    1.33
  -1  -4  -5  233.82    4.63
   1   4   5  227.57    3.41
  -1  -4  -6   15.22    1.09
  -1  -4  -6   14.54    0.94
   1   4   6   14.39    0.55
  -1  -4  -7   31.08    1.50
  -1  -4  -7   30.35    1.65
   1   4   7   30.93    0.98
  -1  -4  -8    0.06    0.23
  -1  -4  -8    0.51    0.28
  -1  -4  -9   33.21    1.76
  -1  -4  -9   30.99    1.84
  -1  -4 -10   -0.28    0.32
   1   4  10    0.15    0.14
  -1  -4 -11   -0.27    0.35
   1   4  11   -0.11    0.14
   1   4  12    0.00    0.21
  -1  -4 -12   -0.52    0.44
  -1  -4 -13    0.22    0.31
  -1  -4 -14    1.02    0.50
  -1  -4 -15    0.23    0.34
  -1  -4 -16    0.40    0.38
  -1  -5  15    1.44    0.73
  -1  -5  14   -0.75    0.53
   1   5 -14   -0.04    0.22
  -1  -5  13    2.95    0.85
   1   5 -13    1.63    0.45
  -1  -5  12    7.09    1.10
   1   5 -12    4.34    0.66
   1   5 -11   16.59    1.19
  -1  -5  11   16.73    1.17
  -1  -5  11   15.38    1.56
  -1  -5  10    8.95    0.80
  -1  -5  10    9.18    1.17
   1   5 -10    7.85    0.80
  -1  -5   9   51.99    1.86
  -1  -5   9   52.98    2.62
   1   5  -9   47.84    1.85
   1   5  -8    0.07    0.14
  -1  -5   8    0.05    0.13
  -1  -5   8   -0.02    0.28
   1   5  -7   53.97    1.71
  -1  -5   7   55.25    2.39
  -1  -5   7   51.28    1.64
  -1  -5   6    0.70    0.19
   1   5  -6    0.44    0.13
   1   5  -6    0.85    0.30
  -1  -5   6    0.56    0.29
  -1  -5   6    1.12    0.35
   1   5  -5  103.17    3.00
  -1  -5   5  110.22    3.13
  -1  -5   5  103.59    2.17
  -1  -5   5  106.32    3.05
  -1  -5   4   40.12    1.70
  -1  -5   4   39.55    1.17
  -1  -5   4   42.20    1.77
  -1  -5   3   10.41    0.80
  -1  -5   3    9.68    0.78
  -1  -5   3    9.29    0.53
   1   5  -3    9.91    0.77
  -1  -5   2   45.24    1.60
   1   5  -2   45.01    1.59
  -1  -5   2   46.45    1.64
   1   5  -2   47.04    1.67
   1   5  -1   30.16    1.20
   1   5  -1   30.14    1.21
  -1  -5   1   29.10    1.17
  -1  -5   1   29.10    1.20
   1   5   0   12.95    0.71
  -1  -5   0   12.37    0.69
  -1  -5   0   12.12    0.73
   1   5   1  137.19    2.55
  -1  -5  -1  138.57    2.49
  -1  -5  -1  144.50    2.79
  -1  -5  -2    8.69    0.67
  -1  -5  -2    8.47    0.46
   1   5   2    8.14    0.47
  -1  -5  -3    0.09    0.16
  -1  -5  -3    0.05    0.06
   1   5   3    0.11    0.10
   1   5   4   65.93    1.33
  -1  -5  -4   65.80    2.19
   1   5   5   14.58    0.58
  -1  -5  -5   16.01    1.11
  -1  -5  -6   14.03    1.10
   1   5   6   13.29    0.60
  -1  -5  -7   24.76    1.38
  -1  -5  -7   24.73    1.55
   1   5   7   23.54    0.90
  -1  -5  -8   17.13    1.34
   1   5   8   17.68    0.65
   1   5   9   40.42    1.19
  -1  -5  -9   39.30    2.15
   1   5  10    0.20    0.13
  -1  -5 -10    0.00    0.25
   1   5  10    0.49    0.23
  -1  -5 -11   14.57    1.42
   1   5  11   14.59    1.00
  -1  -5 -12    0.53    0.36
   1   5  12    0.96    0.27
  -1  -5 -13    0.56    0.51
  -1  -5 -14    0.19    0.49
  -1  -5 -15    1.05    0.62
  -1  -5 -16   -0.32    0.49
  -1  -6  14    0.45    0.46
  -1  -6  13    0.08    0.39
   1   6 -12    2.88    0.52
  -1  -6  12    3.03    0.74
  -1  -6  11    0.98    0.45
   1   6 -11    1.67    0.39
   1   6 -10    4.16    0.54
  -1  -6  10    4.74    0.56
  -1  -6  10    5.35    0.93
  -1  -6   9    0.21    0.14
   1   6  -9    0.31    0.13
  -1  -6   8   12.00    0.77
  -1  -6   8   12.58    1.26
  -1  -6   7  107.97    3.53
  -1  -6   7  101.02    2.32
   1   6  -6   -0.08    0.28
  -1  -6   6    0.30    0.24
  -1  -6   6    0.08    0.09
  -1  -6   5   90.41    2.92
  -1  -6   5   89.21    2.90
  -1  -6   5   87.12    1.91
   1   6  -5   86.63    2.83
  -1  -6   4    6.36    0.70
  -1  -6   4    6.69    0.46
  -1  -6   4    7.03    0.75
   1   6  -4    7.68    0.77
  -1  -6   3   51.52    1.94
  -1  -6   3   51.08    1.93
  -1  -6   3   51.48    1.37
   1   6  -2    8.50    0.78
   1   6  -2    7.61    0.69
  -1  -6   2    8.34    0.71
  -1  -6   2    7.45    0.69
  -1  -6   1   12.50    0.80
   1   6  -1   11.05    0.80
  -1  -6   1   11.18    0.80
   1   6  -1   12.16    0.82
   1   6   0    7.11    0.57
  -1  -6   0    6.94    0.55
  -1  -6   0    7.17    0.62
   1   6   1    1.54    0.26
  -1  -6  -1    1.41    0.23
  -1  -6  -1    1.16    0.25
  -1  -6  -2   47.04    1.70
  -1  -6  -2   43.93    1.21
   1   6   2   44.35    1.27
  -1  -6  -3   35.37    1.00
  -1  -6  -3   36.44    1.57
   1   6   3   35.15    1.01
   1   6   4  116.02    1.96
  -1  -6  -4  115.00    3.13
  -1  -6  -5    1.40    0.36
   1   6   5    1.15    0.16
  -1  -6  -6   11.10    1.01
   1   6   6   11.04    0.49
  -1  -6  -7   19.54    1.43
   1   6   7   20.69    0.75
  -1  -6  -8   13.96    1.11
   1   6   8   12.20    0.63
   1   6   9   17.42    0.87
   1   6   9   15.14    0.78
  -1  -6  -9   17.29    1.47
   1   6  10    1.43    0.27
  -1  -6 -10    1.99    0.55
  -1  -6 -11   20.68    1.75
   1   6  11   21.50    0.79
   1   6  11   23.91    1.17
  -1  -6 -12    0.20    0.30
  -1  -6 -13   13.35    1.55
  -1  -6 -14   -0.07    0.35
  -1  -6 -15    2.29    0.77
  -1  -7  14    0.95    0.59
  -1  -7  13    1.62    0.66
  -1  -7  12    2.29    0.71
  -1  -7  11    1.47    0.65
  -1  -7  10    0.79    0.52
  -1  -7   9    0.38    0.39
  -1  -7   9    0.62    0.20
  -1  -7   8   12.22    1.25
  -1  -7   8   11.20    0.69
  -1  -7   7   22.82    0.94
  -1  -7   7   23.44    1.66
  -1  -7   6   16.37    1.33
  -1  -7   6   17.72    0.78
   1   7  -5   19.97    1.38
  -1  -7   5   21.67    0.84
   1   7  -4   26.89    1.53
  -1  -7   4   26.30    1.54
  -1  -7   4   27.74    0.97
  -1  -7   4   28.30    1.56
  -1  -7   3  209.77    4.57
   1   7  -3  203.30    4.50
  -1  -7   3  205.11    4.46
  -1  -7   3  207.61    3.42
  -1  -7   2   -0.01    0.21
  -1  -7   2    0.06    0.19
   1   7  -1   53.54    1.92
  -1  -7   1   54.92    2.00
  -1  -7   1   55.25    1.84
  -1  -7   0    8.75    0.75
  -1  -7   0    8.14    0.64
  -1  -7   0    8.09    0.63
   1   7   0    8.53    0.68
  -1  -7  -1    7.13    0.54
   1   7   1    8.21    0.61
  -1  -7  -1    8.95    0.75
  -1  -7  -1    7.68    0.66
  -1  -7  -2   10.30    0.82
  -1  -7  -2   10.22    0.81
   1   7   2    9.96    0.61
  -1  -7  -2    9.91    0.58
  -1  -7  -3   -0.02    0.08
   1   7   3    0.03    0.08
  -1  -7  -3    0.00    0.17
  -1  -7  -4   28.15    1.54
   1   7   4   26.26    0.83
   1   7   5    0.56    0.12
  -1  -7  -5    0.62    0.28
  -1  -7  -6    7.96    0.91
   1   7   6    7.80    0.36
  -1  -7  -7    0.47    0.24
   1   7   7    1.09    0.14
  -1  -7  -8   27.88    1.84
   1   7   8   26.99    0.79
   1   7   8   26.10    0.82
   1   7   9    0.18    0.10
  -1  -7  -9    0.10    0.28
   1   7   9    0.13    0.09
   1   7  10    9.90    0.58
  -1  -7 -10    9.54    1.15
   1   7  10   10.94    0.62
  -1  -7 -11   59.09    3.05
   1   7  11   57.85    1.61
  -1  -7 -12    1.53    0.54
  -1  -7 -13   12.12    1.46
  -1  -7 -14    0.06    0.47
  -1  -8  13    1.62    0.72
  -1  -8  12    1.03    0.57
  -1  -8  11   -0.38    0.43
  -1  -8  10    2.36    0.72
  -1  -8   9    0.75    0.38
  -1  -8   8    0.55    0.39
  -1  -8   8    0.35    0.12
  -1  -8   7    9.14    1.09
  -1  -8   7    8.61    0.51
  -1  -8   6    4.85    0.37
  -1  -8   6    4.09    0.71
  -1  -8   5   95.17    1.93
  -1  -8   5   94.96    3.29
  -1  -8   4   39.38    1.94
  -1  -8   4   39.15    1.19
  -1  -8   4   39.43    1.99
  -1  -8   3   81.12    2.69
   1   8  -3   79.41    2.74
  -1  -8   3   78.26    2.76
  -1  -8   3   78.53    1.89
  -1  -8   2   14.10    1.10
  -1  -8   2   15.22    1.06
  -1  -8   1  106.95    2.55
  -1  -8   1  109.03    3.11
  -1  -8   1  110.81    2.84
  -1  -8   0   16.00    1.11
   1   8   0   15.90    0.99
  -1  -8   0   16.80    0.96
  -1  -8   0   16.01    0.95
  -1  -8  -1   74.30    2.00
   1   8   1   76.45    2.13
  -1  -8  -1   76.67    2.47
  -1  -8  -1   76.15    2.31
  -1  -8  -2   15.46    1.07
   1   8   2   13.26    0.77
  -1  -8  -2   15.54    0.78
  -1  -8  -2   13.87    1.01
  -1  -8  -3   12.16    0.98
  -1  -8  -3   11.29    0.60
   1   8   3   11.36    0.63
   1   8   4   21.60    0.77
  -1  -8  -4   21.96    1.40
  -1  -8  -5    7.35    0.85
   1   8   5    6.34    0.33
  -1  -8  -6    1.44    0.40
  -1  -8  -7    3.47    0.67
  -1  -8  -8    7.26    0.97
  -1  -8  -9    2.32    0.59
  -1  -8 -10    4.97    0.90
  -1  -8 -11    0.12    0.50
  -1  -8 -12    9.17    1.31
  -1  -8 -13    7.43    1.22
  -1  -8 -14   -0.49    0.58
  -1  -9  12    1.15    0.54
  -1  -9  11    0.76    0.53
  -1  -9  10    1.80    0.58
  -1  -9   9    0.71    0.42
  -1  -9   8    0.93    0.44
  -1  -9   7   15.64    1.47
  -1  -9   7   12.49    0.47
  -1  -9   6    2.51    0.23
  -1  -9   6    2.86    0.66
  -1  -9   5    3.14    0.61
  -1  -9   5    2.93    0.28
  -1  -9   4    1.45    0.23
  -1  -9   4    0.98    0.40
  -1  -9   3   12.60    0.72
  -1  -9   3   12.97    1.08
  -1  -9   3   14.27    0.77
  -1  -9   3   11.74    1.11
  -1  -9   2    3.99    0.62
  -1  -9   2    3.72    0.55
  -1  -9   2    3.67    0.42
  -1  -9   1   81.91    2.52
  -1  -9   1   77.86    2.19
  -1  -9   1   80.66    2.80
  -1  -9   0    0.60    0.23
  -1  -9   0    0.74    0.25
  -1  -9   0    0.53    0.27
  -1  -9  -1  131.76    2.94
  -1  -9  -1  133.19    3.61
  -1  -9  -1  135.88    3.36
  -1  -9  -2    1.15    0.35
  -1  -9  -2    1.21    0.26
  -1  -9  -2    1.36    0.38
  -1  -9  -3   52.89    2.18
  -1  -9  -3   51.26    1.42
  -1  -9  -3   48.29    2.07
  -1  -9  -4   32.92    1.79
  -1  -9  -5   50.67    2.35
  -1  -9  -6    6.81    0.90
  -1  -9  -7    0.09    0.28
  -1  -9  -8    8.96    1.12
  -1  -9  -9    0.63    0.36
  -1  -9 -10   -0.43    0.37
  -1  -9 -11    0.15    0.31
  -1  -9 -12    8.88    1.32
  -1  -9 -13   -0.01    0.39
  -1 -10  11    1.38    0.68
  -1 -10  10    0.29    0.45
  -1 -10   9    1.47    0.61
  -1 -10   8   10.32    1.29
  -1 -10   7    4.25    0.78
  -1 -10   6    2.91    0.64
  -1 -10   5    3.47    0.27
  -1 -10   5    4.01    0.75
  -1 -10   5    3.88    0.28
  -1 -10   4   11.73    1.20
  -1 -10   4   13.00    0.65
  -1 -10   4   12.96    0.65
  -1 -10   3    1.80    0.54
  -1 -10   3    1.36    0.24
  -1 -10   3    1.69    0.29
  -1 -10   2    6.04    0.82
  -1 -10   2    4.76    0.50
  -1 -10   2    5.55    0.69
  -1 -10   1    1.24    0.32
  -1 -10   1    1.33    0.35
  -1 -10   1    1.25    0.43
  -1 -10   0    1.50    0.37
  -1 -10   0    1.26    0.40
  -1 -10   0    1.41    0.30
  -1 -10  -1   71.83    2.16
  -1 -10  -1   72.65    2.73
  -1 -10  -1   77.45    2.54
  -1 -10  -2    6.15    0.55
  -1 -10  -2    5.76    0.74
  -1 -10  -2    6.82    0.78
  -1 -10  -3   61.90    2.49
  -1 -10  -3   60.49    2.45
  -1 -10  -3   62.39    1.66
  -1 -10  -4    2.59    0.54
  -1 -10  -4    1.67    0.46
  -1 -10  -5   13.07    1.24
  -1 -10  -6    0.18    0.28
  -1 -10  -7   12.38    1.32
  -1 -10  -8   14.69    1.50
  -1 -10  -9    0.12    0.36
  -1 -10 -10    0.91    0.55
  -1 -10 -11    0.70    0.45
  -1 -10 -12   -0.33    0.31
  -1 -11  10    0.17    0.56
  -1 -11   9   10.19    1.39
  -1 -11   8    3.89    0.86
  -1 -11   7    4.72    0.94
  -1 -11   6    8.38    1.15
  -1 -11   5    0.16    0.30
  -1 -11   4    0.98    0.46
  -1 -11   4    0.75    0.15
  -1 -11   3    2.22    0.32
  -1 -11   3    2.82    0.64
  -1 -11   2    3.25    0.67
  -1 -11   2    2.50    0.39
  -1 -11   1    1.88    0.38
  -1 -11   1    1.22    0.42
  -1 -11   1    2.09    0.42
  -1 -11   0   11.49    1.15
  -1 -11   0   11.87    0.93
  -1 -11   0   11.45    0.92
  -1 -11  -1    1.07    0.41
  -1 -11  -1    1.15    0.33
  -1 -11  -1    1.02    0.27
  -1 -11  -2   20.04    1.03
  -1 -11  -2   20.04    1.48
  -1 -11  -2   19.15    1.33
  -1 -11  -3   31.99    1.18
  -1 -11  -3   31.78    1.82
  -1 -11  -3   30.09    1.82
  -1 -11  -4    0.08    0.22
  -1 -11  -4    0.63    0.37
  -1 -11  -5   18.78    1.46
  -1 -11  -5   16.69    1.44
  -1 -11  -6    0.23    0.35
  -1 -11  -7   25.16    1.92
  -1 -11  -8    0.01    0.41
  -1 -11  -9   13.87    1.56
  -1 -11 -10    5.72    1.07
  -1 -11 -11    3.42    0.89
  -1 -12   9   11.20    1.53
  -1 -12   8   -0.11    0.54
  -1 -12   7   10.69    1.37
  -1 -12   6    2.42    0.69
  -1 -12   5    2.33    0.68
  -1 -12   4    9.03    1.17
  -1 -12   3    2.12    0.59
  -1 -12   2    7.44    0.65
  -1 -12   2    6.56    0.96
  -1 -12   1    4.11    0.53
  -1 -12   1    3.55    0.65
  -1 -12   0   -0.05    0.20
  -1 -12   0   -0.02    0.29
  -1 -12  -1    0.11    0.27
  -1 -12  -1   -0.09    0.27
  -1 -12  -2    1.04    0.39
  -1 -12  -2    0.93    0.40
  -1 -12  -3    4.94    0.75
  -1 -12  -3    3.52    0.68
  -1 -12  -4   10.73    1.15
  -1 -12  -4   12.26    1.23
  -1 -12  -5    7.25    0.95
  -1 -12  -5    8.47    1.08
  -1 -12  -6    1.17    0.46
  -1 -12  -6    0.43    0.38
  -1 -12  -7   18.53    1.69
  -1 -12  -8    0.99    0.59
  -1 -12  -9   23.88    2.09
  -1 -12 -10    0.69    0.53
  -1 -13   8   -0.14    0.56
  -1 -13   7   10.73    1.47
  -1 -13   6    1.01    0.50
  -1 -13   5    6.95    1.14
  -1 -13   4    6.23    1.03
  -1 -13   3    1.80    0.59
  -1 -13   2    5.42    0.93
  -1 -13   1    3.45    0.72
  -1 -13   0    4.88    0.65
  -1 -13   0    5.05    0.84
  -1 -13  -1    0.66    0.32
  -1 -13  -1    0.26    0.26
  -1 -13  -2   -0.05    0.21
  -1 -13  -2    0.05    0.26
  -1 -13  -3    0.34    0.35
  -1 -13  -3    0.04    0.23
  -1 -13  -4    3.00    0.62
  -1 -13  -4    2.20    0.59
  -1 -13  -5    0.44    0.41
  -1 -13  -5    0.53    0.37
  -1 -13  -6    3.58    0.76
  -1 -13  -6    4.31    0.83
  -1 -13  -7    4.36    0.85
  -1 -13  -7    4.06    0.84
  -1 -13  -8   11.55    1.44
  -1 -13  -9    2.86    0.79
  -1 -14   6    1.27    0.55
  -1 -14   5    5.14    1.05
  -1 -14   4    0.42    0.33
  -1 -14   3    8.70    1.25
  -1 -14   2    4.41    0.87
  -1 -14   1    4.99    0.94
  -1 -14   0   11.12    1.35
  -1 -14  -1    0.60    0.29
  -1 -14  -2    5.74    0.97
  -1 -14  -3    2.00    0.49
  -1 -14  -3    2.78    0.67
  -1 -14  -4    0.26    0.30
  -1 -14  -4    0.27    0.26
  -1 -14  -5   -0.19    0.38
  -1 -14  -5   -0.10    0.27
  -1 -14  -6    1.01    0.52
  -1 -14  -6    0.80    0.36
  -1 -14  -7    0.79    0.46
  -1 -14  -7   -0.39    0.37
  -1 -14  -8    1.53    0.62
  -1 -14  -8    2.98    0.76
  -1 -14  -9    3.94    0.87
  -1 -15   4    1.19    0.56
  -1 -15   3   10.29    1.37
  -1 -15   2    0.93    0.50
  -1 -15   1    1.86    0.62
  -1 -15   0    0.15    0.36
  -1 -15  -1    1.81    0.58
  -1 -15  -2    6.58    1.05
  -1 -15  -3    0.40    0.31
  -1 -15  -4    4.35    0.86
  -1 -15  -5    0.15    0.41
  -1 -15  -6    1.50    0.61
  -1 -15  -6    0.41    0.38
  -1 -15  -7   -0.14    0.34
  -1 -15  -7   -1.38    0.54
  -1 -16   0    1.40    0.53
  -1 -16  -1    4.63    0.96
  -1 -16  -2   -0.69    0.44
  -1 -16  -3    3.70    0.82
   2 -14  -7    2.15    0.66
   2 -14  -6   -0.38    0.38
   2 -14  -4    5.48    1.05
   2 -14  -3    0.87    0.46
   2 -14  -2    1.01    0.52
   2 -14  -1    0.55    0.36
   2 -14   0    1.57    0.55
   2 -14   1    2.36    0.75
   2 -14   2   20.17    1.99
   2 -14   3    0.07    0.44
   2 -13  -8    5.04    1.04
   2 -13  -7   14.57    1.59
   2 -13  -6    0.61    0.39
   2 -13  -5   13.03    1.38
   2 -13  -5   12.14    1.50
   2 -13  -4   -0.31    0.25
   2 -13  -4   -0.37    0.47
   2 -13  -3    3.41    0.85
   2 -13  -3    3.44    0.67
   2 -13  -2    0.20    0.42
   2 -13  -1    1.02    0.48
   2 -13   0    0.26    0.46
   2 -13   1   -0.25    0.29
   2 -13   1    0.32    0.28
   2 -13   2    4.82    0.99
   2 -13   3    1.87    0.62
   2 -13   4   12.28    1.53
   2 -13   5    1.26    0.51
   2 -13   6    5.98    1.17
   2 -12  -9   -0.13    0.35
   2 -12  -8   12.64    1.51
   2 -12  -7    3.11    0.70
   2 -12  -6    3.60    0.76
   2 -12  -5   15.70    1.47
   2 -12  -4    1.08    0.54
   2 -12  -4   -0.02    0.29
   2 -12  -3   23.42    1.93
   2 -12  -3   19.70    1.51
   2 -12  -2   -0.02    0.20
   2 -12  -2   -0.06    0.42
   2 -12  -1    8.72    0.83
   2 -12  -1    8.05    0.81
   2 -12  -1    7.08    1.07
   2 -12   0    4.76    0.90
   2 -12   0    5.49    0.71
   2 -12   0    4.67    0.59
   2 -12   1   -0.13    0.29
   2 -12   1    0.34    0.29
   2 -12   2    1.59    0.55
   2 -12   3    1.39    0.56
   2 -12   4    0.86    0.50
   2 -12   5    2.38    0.71
   2 -12   6    7.72    1.20
   2 -12   7   -0.38    0.58
   2 -12   8    6.63    1.17
   2 -11 -10    0.35    0.45
   2 -11  -9    0.10    0.39
   2 -11  -8    8.26    1.20
   2 -11  -7   -0.15    0.27
   2 -11  -6   27.05    1.97
   2 -11  -5    0.74    0.33
   2 -11  -4   10.73    1.12
   2 -11  -3    1.94    0.61
   2 -11  -3    2.02    0.51
   2 -11  -2    5.13    0.56
   2 -11  -2    3.09    0.68
   2 -11  -2    4.77    0.69
   2 -11  -1   10.56    0.94
   2 -11  -1    9.89    1.20
   2 -11  -1   11.23    0.91
   2 -11   0    2.18    0.48
   2 -11   0    2.64    0.65
   2 -11   0    2.57    0.43
   2 -11   1   16.93    1.14
   2 -11   1   18.03    0.98
   2 -11   1   17.18    1.57
   2 -11   2    6.16    0.96
   2 -11   2    7.53    0.49
   2 -11   2    5.02    0.66
   2 -11   3   -0.16    0.32
   2 -11   4   -0.58    0.50
   2 -11   5    0.66    0.39
   2 -11   6    0.54    0.43
   2 -11   7    0.93    0.53
   2 -11   8   17.46    1.81
   2 -11   9    0.38    0.35
   2 -11  10    8.05    1.31
   2 -10 -11   -0.23    0.52
   2 -10 -10    0.21    0.43
   2 -10  -9    0.60    0.34
   2 -10  -8    1.48    0.59
   2 -10  -7    2.51    0.62
   2 -10  -6   15.24    1.45
   2 -10  -5    2.09    0.54
   2 -10  -4   48.00    2.34
   2 -10  -3   22.61    1.50
   2 -10  -2   45.92    2.46
   2 -10  -2   48.34    2.09
   2 -10  -2   43.96    1.13
   2 -10  -2   45.28    1.63
   2 -10  -1   12.75    0.99
   2 -10  -1   12.14    1.25
   2 -10  -1   11.40    0.88
   2 -10  -1   11.20    0.70
   2 -10   0   52.73    1.83
   2 -10   0   52.39    2.62
   2 -10   0   53.41    1.92
   2 -10   0   51.75    2.07
   2 -10   1   51.74    1.66
   2 -10   1   48.33    2.52
   2 -10   1   45.36    1.85
   2 -10   2    2.61    0.44
   2 -10   2    2.16    0.55
   2 -10   2    2.59    0.30
   2 -10   3   13.60    1.38
   2 -10   4    3.58    0.72
   2 -10   5    0.27    0.35
   2 -10   6    0.26    0.32
   2 -10   7   -0.34    0.30
   2 -10   8    0.67    0.41
   2 -10   9    3.59    0.82
   2 -10  10    2.82    0.75
   2 -10  11   -0.64    0.61
   2  -9 -12   -0.83    0.62
   2  -9 -11    7.50    1.21
   2  -9 -10    0.95    0.54
   2  -9  -9    6.29    1.04
   2  -9  -8    3.53    0.76
   2  -9  -7   -0.37    0.24
   2  -9  -6    2.07    0.56
   2  -9  -5    1.49    0.47
   2  -9  -4   14.73    1.25
  -2   9   3   -0.15    0.26
   2  -9  -3    0.39    0.29
   2  -9  -2   74.76    2.06
   2  -9  -2   68.22    2.45
   2  -9  -2   68.85    1.48
   2  -9  -1   60.35    2.14
   2  -9  -1   58.12    1.65
   2  -9  -1   59.62    2.64
   2  -9  -1   60.44    2.01
   2  -9   0   19.13    1.08
   2  -9   0   20.04    1.05
   2  -9   0   20.83    1.53
   2  -9   0   20.03    1.22
   2  -9   1   14.83    0.99
   2  -9   1   13.94    0.82
   2  -9   1   13.54    1.27
   2  -9   2   32.19    1.05
   2  -9   2   30.34    1.56
   2  -9   3   24.87    1.49
   2  -9   3   23.70    1.72
   2  -9   4    2.24    0.57
   2  -9   5    4.25    0.77
   2  -9   6    2.80    0.70
   2  -9   7    6.80    1.01
   2  -9   8    0.76    0.50
   2  -9   9    0.03    0.38
   2  -9  10   -0.51    0.50
   2  -9  11   -0.94    0.54
   2  -9  12    3.25    0.83
   2  -8 -12   -0.63    0.57
   2  -8 -11   18.30    1.84
   2  -8 -10    0.80    0.51
   2  -8  -9   49.27    2.79
   2  -8  -8    8.45    1.12
   2  -8  -7    0.38    0.37
   2  -8  -6    3.60    0.70
   2  -8  -5    1.36    0.46
  -2   8   4    0.18    0.21
   2  -8  -4    0.11    0.22
   2  -8  -3    6.67    0.78
  -2   8   3    7.25    0.79
   2  -8  -2   25.06    0.81
   2  -8  -2   26.71    1.14
   2  -8  -2   26.58    1.42
   2  -8  -1    8.13    0.68
   2  -8  -1    6.44    0.66
   2  -8  -1    6.88    0.87
   2  -8  -1    7.44    0.54
   2  -8   0   49.92    1.65
   2  -8   0   50.73    1.73
   2  -8   0   51.49    2.31
   2  -8   0   50.01    1.87
   2  -8   1    1.96    0.36
   2  -8   1    2.34    0.51
   2  -8   1    2.21    0.31
   2  -8   2   15.32    1.28
   2  -8   2   16.30    1.09
   2  -8   2   16.77    0.72
   2  -8   3   12.91    1.04
   2  -8   3   10.61    1.09
   2  -8   4   11.90    1.05
   2  -8   4    9.88    1.05
   2  -8   5   59.07    2.69
   2  -8   6    8.49    1.09
   2  -8   7   29.91    2.00
   2  -8   8    1.02    0.48
   2  -8   9   -0.23    0.43
   2  -8  10   -0.29    0.44
   2  -8  11    0.14    0.36
   2  -8  12    0.58    0.46
   2  -8  13    1.15    0.71
   2  -7 -13    2.51    0.76
   2  -7 -12    3.00    0.82
   2  -7 -11    7.79    1.22
   2  -7 -10    2.04    0.65
   2  -7  -9   13.67    1.44
   2  -7  -8   -0.08    0.34
   2  -7  -7   23.13    1.70
   2  -7  -6    4.24    0.69
   2  -7  -5    2.24    0.52
   2  -7  -4    0.45    0.26
  -2   7   4    0.50    0.18
  -2   7   3    0.64    0.26
   2  -7  -3    0.83    0.33
   2  -7  -2   14.14    0.57
   2  -7  -2   14.90    0.80
   2  -7  -2   14.07    0.56
   2  -7  -2   12.12    0.92
   2  -7  -1    6.73    0.49
   2  -7  -1    6.31    0.62
   2  -7  -1    6.61    0.59
  -2   7   1    6.83    0.65
   2  -7   0   49.03    1.58
   2  -7   0   49.88    2.16
  -2   7   0   48.23    1.63
   2  -7   0   48.91    1.77
   2  -7   0   51.18    1.66
   2  -7   1    3.76    0.48
   2  -7   1    4.15    0.41
  -2   7  -1    3.04    0.36
   2  -7   1    3.50    0.57
   2  -7   2   72.26    1.57
   2  -7   2   71.54    2.66
   2  -7   2   70.87    2.27
   2  -7   3    8.89    0.83
   2  -7   3    8.30    0.91
   2  -7   4   37.55    1.97
   2  -7   4   34.64    1.79
   2  -7   5  108.88    3.38
   2  -7   5  101.75    3.45
   2  -7   6   41.18    2.18
   2  -7   7   25.70    1.79
   2  -7   8    0.20    0.33
   2  -7   9   19.14    1.64
   2  -7  10    3.86    0.79
   2  -7  11    5.31    0.99
   2  -7  12    1.00    0.57
   2  -7  13    0.11    0.40
   2  -7  14    0.79    0.49
   2  -6 -14    0.49    0.46
   2  -6 -13    0.73    0.48
   2  -6 -12    3.47    0.86
   2  -6 -11   11.49    1.40
   2  -6 -10   18.93    1.70
   2  -6  -9    5.10    0.88
  -2   6   9    2.73    0.19
   2  -6  -8   20.69    1.63
  -2   6   8   20.69    0.80
  -2   6   7   40.33    1.11
   2  -6  -7   44.18    2.29
   2  -6  -6    0.62    0.26
  -2   6   5   74.95    2.74
   2  -6  -5   74.53    2.72
   2  -6  -4    5.52    0.71
  -2   6   4    7.02    0.77
   2  -6  -3    5.72    0.67
   2  -6  -2    0.89    0.15
  -2   6   2    1.40    0.33
   2  -6  -2    0.95    0.29
  -2   6   1    7.08    0.62
   2  -6  -1    7.07    0.63
   2  -6  -1    6.84    0.55
   2  -6   0    4.84    0.53
   2  -6   0    4.70    0.64
   2  -6   0    4.73    0.48
  -2   6   0    4.99    0.48
   2  -6   1    1.65    0.38
  -2   6  -1    1.64    0.24
   2  -6   1    1.93    0.28
   2  -6   2    3.82    0.31
   2  -6   2    3.02    0.51
  -2   6  -2    3.69    0.30
   2  -6   3    2.21    0.46
   2  -6   4   61.03    2.39
  -2   6  -4   69.06    2.52
   2  -6   5    6.10    0.79
  -2   6  -5    6.43    0.79
   2  -6   6   48.23    2.25
   2  -6   7   20.04    1.51
   2  -6   8   20.10    1.56
   2  -6   9   38.92    2.26
   2  -6  10    1.07    0.45
  -2   6 -11   25.86    0.90
   2  -6  11   33.05    2.26
   2  -6  12    0.07    0.44
   2  -6  13   21.46    1.97
   2  -6  14    0.91    0.54
   2  -6  15    1.47    0.60
   2  -5 -14   -0.20    0.35
   2  -5 -13    0.24    0.43
   2  -5 -12    2.56    0.72
   2  -5 -11    0.08    0.36
   2  -5 -10   27.15    1.98
  -2   5  10   27.54    1.11
   2  -5  -9    8.78    1.12
  -2   5   9    8.08    0.53
   2  -5  -8   10.15    1.13
  -2   5   8    8.76    0.49
   2  -5  -7   58.65    2.57
  -2   5   7   56.39    1.21
  -2   5   6    2.98    0.56
  -2   5   6    2.62    0.29
   2  -5  -6    2.34    0.51
  -2   5   6    2.30    0.18
  -2   5   5  174.00    4.22
   2  -5  -5  168.58    4.15
   2  -5  -4    2.19    0.41
  -2   5   4    2.67    0.30
   2  -5  -3   98.26    2.76
   2  -5  -3   95.16    1.41
   2  -5  -2   41.31    1.61
  -2   5   2   43.05    1.64
   2  -5  -2   45.60    1.00
  -2   5   1   82.66    2.18
   2  -5  -1   85.45    2.02
   2  -5  -1   85.08    2.20
   2  -5   0   16.91    0.91
  -2   5   0   16.12    0.82
   2  -5   0   17.87    0.86
   2  -5   1    0.69    0.18
  -2   5  -1    0.57    0.14
   2  -5   1    0.73    0.23
  -2   5  -2    0.35    0.09
   2  -5   2    0.13    0.19
   2  -5   2    0.32    0.11
   2  -5   3   13.54    1.00
   2  -5   4   73.36    2.49
   2  -5   5    9.14    0.88
  -2   5  -6   17.01    1.24
   2  -5   6   17.67    1.29
   2  -5   7    0.28    0.24
  -2   5  -8   28.13    0.81
   2  -5   8   29.79    1.81
  -2   5  -9   15.50    0.71
   2  -5   9   15.92    1.41
   2  -5  10    3.14    0.67
  -2   5 -10    2.61    0.35
   2  -5  11   23.72    1.86
  -2   5 -11   21.04    1.05
  -2   5 -12    3.05    0.44
   2  -5  12    2.23    0.63
   2  -5  13    9.93    1.36
   2  -5  14   -0.04    0.42
   2  -5  15    1.71    0.55
   2  -4 -15    1.00    0.59
   2  -4 -14    0.84    0.48
   2  -4 -13    1.13    0.60
   2  -4 -12    0.80    0.56
   2  -4 -11   -0.13    0.33
  -2   4  11   -0.07    0.17
   2  -4 -10    0.48    0.33
  -2   4  10    1.01    0.24
   2  -4  -9    7.98    1.00
  -2   4   9    9.16    0.66
  -2   4   8   21.80    0.95
   2  -4  -8   24.34    1.67
   2  -4  -7   38.23    2.01
  -2   4   7   38.67    1.17
   2  -4  -6   16.67    1.24
  -2   4   6   16.84    0.67
  -2   4   5   97.44    2.97
   2  -4  -5   94.99    2.93
   2  -4  -5   97.66    1.77
  -2   4   5   93.24    1.67
   2  -4  -4   29.13    1.46
   2  -4  -4   30.40    0.77
  -2   4   4   29.16    1.00
  -2   4   3  186.63    3.86
   2  -4  -3  178.16    2.47
  -2   4   3  175.36    2.98
   2  -4  -3  180.59    3.81
  -2   4   2   42.23    1.54
   2  -4  -2   39.45    1.51
   2  -4  -2   40.32    0.94
   2  -4  -1  353.11    5.39
  -2   4   1  352.62    5.38
   2  -4  -1  351.90    5.08
  -2   4   0   43.59    1.32
   2  -4   0   43.51    1.32
   2  -4   0   41.50    1.37
   2  -4   1  139.26    2.41
  -2   4  -1  131.36    2.37
   2  -4   1  139.38    3.10
   2  -4   2    0.20    0.18
  -2   4  -2    0.16    0.06
   2  -4   2    0.20    0.08
   2  -4   3  222.53    4.27
  -2   4  -3  209.27    2.72
   2  -4   4    4.49    0.57
  -2   4  -5    2.66    0.18
   2  -4   5    2.54    0.47
  -2   4  -5    2.60    0.18
  -2   4  -5    2.57    0.43
  -2   4  -6    1.23    0.15
   2  -4   6    0.89    0.36
  -2   4  -6    1.26    0.38
  -2   4  -7    4.63    0.62
  -2   4  -7    4.18    0.34
   2  -4   7    3.78    0.60
  -2   4  -8   12.27    0.66
   2  -4   8   11.01    1.06
  -2   4  -9    5.97    0.52
   2  -4   9    8.13    0.97
   2  -4  10    2.42    0.61
  -2   4 -10    2.63    0.38
  -2   4 -11    4.10    0.52
   2  -4  11    4.40    0.83
  -2   4 -12   15.88    1.09
   2  -4  12   16.63    1.59
  -2   4 -13   20.53    1.32
   2  -4  13   22.05    1.91
   2  -4  14    2.02    0.69
  -2   4 -14    1.12    0.35
   2  -4  15    7.26    1.20
   2  -4  16    0.81    0.54
   2  -3 -15   10.24    1.46
   2  -3 -14    2.59    0.76
   2  -3 -13    9.27    1.30
   2  -3 -12    1.51    0.63
  -2   3  12    2.53    0.50
   2  -3 -11    2.38    0.68
  -2   3  11    2.12    0.41
   2  -3 -10    6.20    0.94
  -2   3  10    4.36    0.54
  -2   3   9    0.18    0.18
   2  -3  -9    0.26    0.32
  -2   3   8    1.80    0.32
   2  -3  -8    1.97    0.53
  -2   3   7   20.79    1.42
   2  -3  -7   20.17    1.41
   2  -3  -7   21.03    1.43
  -2   3   7   19.72    0.93
  -2   3   6   11.85    0.64
   2  -3  -6   11.76    1.02
   2  -3  -5    7.17    0.77
   2  -3  -5    6.11    0.45
  -2   3   5    6.03    0.42
   2  -3  -4  149.35    3.48
   2  -3  -4  145.06    2.40
  -2   3   4  143.26    2.34
   2  -3  -3  222.84    3.10
   2  -3  -3  222.53    4.24
  -2   3   3  221.21    3.11
  -2   3   2    8.49    0.65
   2  -3  -2    9.43    0.69
   2  -3  -2    8.88    0.42
  -2   3   2    9.24    0.55
   2  -3  -1   93.34    1.73
   2  -3  -1   97.96    2.20
  -2   3   1   91.39    2.00
  -2   3   1   95.45    2.18
  -2   3   0   44.69    1.28
   2  -3   0   44.25    1.33
   2  -3   0   44.57    1.29
  -2   3  -1  106.17    1.98
   2  -3   1  108.66    2.47
   2  -3   1  105.56    2.38
   2  -3   1  108.56    2.01
  -2   3  -2    1.14    0.16
   2  -3   2    1.28    0.26
  -2   3  -3    7.43    0.36
  -2   3  -3    7.69    0.63
   2  -3   3    6.47    0.59
  -2   3  -4    5.28    0.56
   2  -3   4    5.60    0.58
  -2   3  -5   27.20    1.33
   2  -3   5   26.76    1.34
  -2   3  -5   26.67    0.81
  -2   3  -6   81.74    1.75
  -2   3  -6   85.39    2.58
   2  -3   6   80.74    2.56
  -2   3  -7    0.41    0.14
   2  -3   7    0.65    0.31
  -2   3  -7    0.64    0.27
  -2   3  -8   20.57    1.35
  -2   3  -8   19.19    0.95
   2  -3   8   20.35    1.38
   2  -3   9    0.19    0.31
  -2   3  -9    0.24    0.17
  -2   3 -10   21.56    1.19
   2  -3  10   23.62    1.67
  -2   3 -11    1.58    0.35
   2  -3  11    1.14    0.39
   2  -3  12    4.47    0.86
  -2   3 -12    3.93    0.60
  -2   3 -13    0.25    0.27
   2  -3  13   -0.04    0.32
  -2   3 -14   10.93    1.07
   2  -3  14   12.08    1.49
   2  -3  15   11.87    1.54
  -2   3 -15   12.43    1.20
   2  -3  16   -0.21    0.38
   2  -2 -16   -0.33    0.39
   2  -2 -15    6.35    1.14
   2  -2 -14    0.92    0.50
   2  -2 -13   29.00    2.19
   2  -2 -12    1.99    0.65
  -2   2  11    9.84    0.91
   2  -2 -11   10.04    1.20
  -2   2  10    9.71    0.85
   2  -2 -10    9.18    1.10
  -2   2   9    0.37    0.21
   2  -2  -9    0.06    0.30
  -2   2   8    1.53    0.30
   2  -2  -8    0.69    0.31
  -2   2   7    3.66    0.59
  -2   2   7    2.88    0.38
   2  -2  -7    4.80    0.68
   2  -2  -7    3.28    0.58
  -2   2   6    0.41    0.14
   2  -2  -6    0.22    0.22
   2  -2  -6    0.30    0.13
   2  -2  -5   96.43    2.82
   2  -2  -5  100.20    2.18
  -2   2   5   99.63    2.11
   2  -2  -4    4.29    0.37
   2  -2  -4    4.67    0.56
  -2   2   4    4.72    0.37
   2  -2  -3   22.91    0.78
   2  -2  -3   23.33    1.15
  -2   2   3   22.69    0.77
   2  -2  -2    0.46    0.11
   2  -2  -2    0.29    0.14
  -2   2   2    0.36    0.10
  -2   2   1   21.25    0.84
   2  -2  -1   21.88    0.92
   2  -2  -1   23.27    0.75
  -2   2   0   18.93    0.78
  -2   2   0   17.23    0.77
   2  -2   0   18.78    0.78
   2  -2   0   18.39    0.78
   2  -2   1  188.66    2.95
  -2   2  -1  188.86    2.93
   2  -2   1  191.50    3.29
  -2   2  -2   39.83    1.02
   2  -2   2   41.73    1.32
   2  -2   3  163.03    3.13
  -2   2  -3  167.93    3.13
   2  -2   4    5.24    0.52
  -2   2  -4    6.90    0.58
   2  -2   5  128.03    2.96
  -2   2  -5  125.45    2.93
  -2   2  -5  128.55    2.36
  -2   2  -6    0.45    0.17
  -2   2  -6    0.40    0.19
  -2   2  -7    4.23    0.44
  -2   2  -7    5.08    0.60
   2  -2   7    4.79    0.63
   2  -2   8   16.13    1.18
  -2   2  -8   16.41    1.17
  -2   2  -9    7.33    0.83
   2  -2   9    6.36    0.80
  -2   2  -9    5.05    0.58
  -2   2 -10    0.42    0.23
   2  -2  10    0.26    0.25
  -2   2 -11    4.55    0.63
   2  -2  11    5.67    0.85
  -2   2 -12   22.91    1.47
   2  -2  12   23.94    1.81
  -2   2 -13    0.76    0.32
   2  -2  13    0.36    0.36
  -2   2 -14   12.19    1.18
   2  -2  14   11.80    1.43
  -2   2 -15    0.20    0.30
   2  -2  15   -0.13    0.39
  -2   2 -16    1.98    0.57
   2  -2  16    3.08    0.86
   2  -1 -16    2.85    0.86
   2  -1 -15    2.80    0.84
   2  -1 -14    3.57    0.83
   2  -1 -13   17.77    1.67
   2  -1 -12    0.08    0.31
   2  -1 -11   14.75    1.41
  -2   1  10    9.84    0.91
   2  -1 -10    8.80    1.05
  -2   1   9    8.34    0.79
   2  -1  -9    7.10    0.90
  -2   1   8    2.20    0.49
   2  -1  -8    1.74    0.44
  -2   1   8    2.38    0.42
   2  -1  -8    2.10    0.50
   2  -1  -7    0.26    0.14
  -2   1   7    0.45    0.21
  -2   1   7    0.06    0.21
   2  -1  -7    0.16    0.19
   2  -1  -6   22.78    1.33
  -2   1   6   23.24    1.34
   2  -1  -6   20.02    1.04
  -2   1   6   19.83    0.99
   2  -1  -5   12.13    0.91
   2  -1  -5   10.50    0.68
  -2   1   5   10.55    0.66
   2  -1  -4   53.09    1.49
  -2   1   4   51.37    1.42
   2  -1  -4   55.70    1.88
   2  -1  -3  208.16    3.85
  -2   1   3  205.58    3.25
   2  -1  -3  206.73    3.27
   2  -1  -2  285.78    4.53
  -2   1   2  279.49    3.93
   2  -1  -2  281.98    3.96
   2  -1  -1   60.93    1.33
  -2   1   1   59.00    1.33
   2  -1  -1   60.82    1.59
   2  -1   0    2.01    0.26
  -2   1   0    1.64    0.24
   2  -1   0    1.88    0.23
  -2   1  -1   89.32    1.95
   2  -1   2  483.19    6.12
  -2   1  -2  464.23    6.08
   2  -1   3  104.09    2.15
  -2   1  -3  104.90    2.13
   2  -1   4   64.51    1.75
  -2   1  -4   67.20    1.74
   2  -1   5  128.68    2.85
  -2   1  -5  134.74    2.87
  -2   1  -6    2.85    0.39
  -2   1  -6    3.32    0.45
   2  -1   6    2.76    0.43
  -2   1  -7  170.18    3.75
   2  -1   7  166.92    3.77
  -2   1  -7  163.57    3.39
  -2   1  -8   10.35    0.89
  -2   1  -8   10.25    0.79
   2  -1   8    9.70    0.91
  -2   1  -9   14.81    1.14
  -2   1  -9   14.32    1.01
   2  -1   9   14.13    1.17
  -2   1 -10    4.58    0.63
   2  -1  10    4.45    0.73
  -2   1 -11    0.68    0.33
   2  -1  11    0.25    0.30
  -2   1 -12    1.76    0.49
   2  -1  12    2.24    0.58
  -2   1 -13    6.43    0.87
   2  -1  13    6.89    1.00
  -2   1 -14   -0.46    0.37
   2  -1  14   -0.08    0.42
  -2   1 -15    5.26    0.89
   2  -1  15    6.94    1.16
  -2   1 -16    8.81    1.15
   2  -1  16    9.26    1.34
  -2   1 -17    2.98    0.70
   2  -1  17    2.04    0.79
   2   0 -17   -0.06    0.41
   2   0 -16   -0.27    0.47
   2   0 -15    1.88    0.71
   2   0 -14    5.24    0.98
   2   0 -13   11.68    1.33
   2   0 -12   -0.64    0.38
   2   0 -11   18.40    1.52
  -2   0  10    1.52    0.41
   2   0 -10    1.54    0.45
  -2   0   9  101.01    3.03
   2   0  -9   99.34    3.32
  -2   0   8   13.44    1.10
   2   0  -8   11.32    1.06
  -2   0   8   12.08    0.95
   2   0  -8   12.23    1.07
   2   0  -7   18.96    1.25
  -2   0   7   18.56    1.22
  -2   0   7   17.44    1.07
   2   0  -7   14.79    1.08
  -2   0   6    0.43    0.19
  -2   0   6   -0.04    0.14
   2   0  -6    0.21    0.28
   2   0  -6   -0.03    0.14
  -2   0   5   97.47    2.64
   2   0  -5   92.47    2.59
   2   0  -5   91.08    2.33
  -2   0   5   93.94    2.30
   2   0  -4   35.03    1.44
   2   0  -4   37.71    1.31
  -2   0   4   37.99    1.30
   2   0  -3    7.23    0.60
   2   0  -3    7.69    0.53
  -2   0   3    8.36    0.54
   2   0  -2   34.55    1.24
  -2   0   2   37.62    1.10
   2   0  -2   34.95    1.09
   2   0  -1   29.16    1.05
   2   0  -1   28.36    0.92
  -2   0   1   30.52    0.93
   2   0   0  380.11    5.22
  -2   0   0  380.28    5.03
  -2   0  -1  132.37    2.38
  -2   0  -2    2.17    0.21
   2   0   2    2.01    0.20
  -2   0  -2    1.97    0.27
   2   0   3    7.10    0.43
  -2   0  -3    6.63    0.41
   2   0   4   53.40    1.44
  -2   0  -4   55.98    1.45
   2   0   5  196.06    3.54
  -2   0  -5  197.23    3.51
  -2   0  -6   39.86    1.48
  -2   0  -6   38.99    1.46
   2   0   6   39.35    1.50
   2   0   7  207.15    4.26
  -2   0  -7  205.52    4.09
  -2   0  -8    2.75    0.45
   2   0   8    4.17    0.60
  -2   0  -8    3.02    0.48
  -2   0  -9   41.76    1.83
  -2   0  -9   45.03    1.96
   2   0   9   42.54    1.97
  -2   0 -10    3.00    0.53
   2   0  10    3.44    0.62
  -2   0 -10    3.83    0.61
  -2   0 -11   53.59    2.33
   2   0  11   51.21    2.45
   2   0  12    4.51    0.80
  -2   0 -12    3.84    0.66
  -2   0 -13    0.12    0.26
   2   0  13   -0.05    0.28
  -2   0 -14    1.53    0.48
   2   0  14    1.96    0.56
   2   0  15    0.48    0.46
  -2   0 -15   -0.06    0.30
  -2   0 -16    1.05    0.47
   2   0  16    1.06    0.53
  -2   0 -17    0.19    0.34
  -2   0 -18    0.84    0.50
   2   1 -17    1.30    0.64
   2   1 -16   -0.83    0.51
   2   1 -15    0.19    0.32
   2   1 -14    0.43    0.45
   2   1 -13    0.22    0.34
   2   1 -12    3.72    0.72
   2   1 -11   50.12    2.50
  -2  -1  10    7.12    0.96
   2   1 -10    6.48    0.87
  -2  -1   9   76.94    3.01
  -2  -1   9   79.34    2.82
  -2  -1   9   69.07    2.59
   2   1  -9   70.41    2.71
  -2  -1   8    3.52    0.56
  -2  -1   8    3.92    0.58
   2   1  -8    4.07    0.62
   2   1  -8    4.02    0.65
  -2  -1   8    3.37    0.63
  -2  -1   7   93.84    2.74
   2   1  -7   93.45    2.81
  -2  -1   7   93.76    2.81
  -2  -1   7   91.50    2.97
   2   1  -7   91.13    2.82
   2   1  -6    0.67    0.27
   2   1  -6    0.28    0.21
  -2  -1   6    0.36    0.16
  -2  -1   6    0.67    0.25
  -2  -1   6    0.26    0.25
  -2  -1   5   48.29    1.73
  -2  -1   5   44.57    1.60
   2   1  -5   45.42    1.70
  -2  -1   5   42.79    1.73
   2   1  -5   44.20    1.66
  -2  -1   4    3.19    0.39
   2   1  -4    2.92    0.41
  -2  -1   4    2.46    0.41
  -2  -1   4    2.59    0.37
   2   1  -4    2.81    0.41
   2   1  -3   46.68    1.52
   2   1  -3   45.57    1.47
  -2  -1   3   48.27    1.52
  -2  -1   3   46.78    1.44
  -2  -1   3   48.75    1.54
  -2  -1   2  104.28    2.15
  -2  -1   2  102.78    2.15
   2   1  -2  103.37    2.27
   2   1  -2  102.81    2.15
  -2  -1   1  114.99    2.19
   2   1  -1  115.87    2.33
   2   1  -1  115.06    2.04
   2   1   0   29.20    0.71
  -2  -1   0   27.99    0.92
  -2  -1  -1   40.53    1.14
  -2  -1  -2   79.08    1.20
  -2  -1  -2   83.66    1.75
   2   1   2   81.57    1.21
   2   1   3   82.22    1.50
  -2  -1  -3   84.66    1.50
   2   1   4   11.23    0.58
   2   1   4   10.16    0.64
  -2  -1  -4   11.85    0.58
  -2  -1  -5    2.10    0.30
   2   1   5    2.70    0.35
   2   1   6   16.02    0.91
  -2  -1  -6   17.33    1.02
  -2  -1  -6   18.24    0.94
   2   1   7  213.35    4.27
  -2  -1  -7  221.75    4.45
  -2  -1  -8    6.37    0.70
  -2  -1  -8    5.72    0.63
   2   1   8    5.42    0.65
  -2  -1  -9  128.11    3.55
   2   1   9  129.50    3.55
  -2  -1 -10    1.06    0.38
  -2  -1 -10    0.59    0.29
   2   1  10    1.14    0.43
  -2  -1 -11   30.41    1.79
   2   1  11   27.70    1.75
   2   1  12   14.78    1.35
  -2  -1 -12   18.47    1.47
  -2  -1 -13    0.49    0.33
   2   1  13    0.57    0.32
  -2  -1 -14    1.96    0.54
   2   1  14    2.27    0.65
  -2  -1 -15   -0.09    0.36
  -2  -1 -16   -1.20    0.53
  -2  -1 -17    1.40    0.54
  -2  -1 -18   -0.05    0.32
   2   2 -17   -0.08    0.46
   2   2 -16   -0.50    0.44
   2   2 -15    0.30    0.35
   2   2 -14    0.42    0.41
   2   2 -13    1.14    0.42
  -2  -2  13    3.44    0.83
   2   2 -12   -0.13    0.31
  -2  -2  12    0.09    0.41
   2   2 -11    0.84    0.38
  -2  -2  11    0.08    0.37
   2   2 -10    3.37    0.65
  -2  -2  10    3.58    0.71
  -2  -2   9   19.69    1.35
  -2  -2   9   20.28    1.53
   2   2  -9   17.29    1.28
  -2  -2   8   10.61    0.93
   2   2  -8   10.71    0.97
  -2  -2   8   10.42    0.96
  -2  -2   8   10.38    1.03
  -2  -2   7   36.44    1.65
   2   2  -7   29.83    1.52
   2   2  -7   34.34    1.71
  -2  -2   7   33.04    1.63
  -2  -2   7   33.84    1.78
   2   2  -7   35.19    1.78
   2   2  -6   22.16    1.33
  -2  -2   6   22.35    1.22
  -2  -2   6   23.54    1.37
   2   2  -6   22.09    1.23
  -2  -2   6   21.69    1.25
  -2  -2   5  112.91    2.75
  -2  -2   5  111.40    2.95
   2   2  -5  108.93    2.89
  -2  -2   5  109.32    2.81
   2   2  -5  111.43    2.78
  -2  -2   4    9.44    0.75
   2   2  -4    9.83    0.74
  -2  -2   4    8.81    0.70
   2   2  -4    9.31    0.70
  -2  -2   4    9.74    0.70
  -2  -2   3   73.27    1.92
   2   2  -3   70.34    1.90
  -2  -2   3   72.39    1.95
  -2  -2   3   72.30    1.95
   2   2  -3   75.21    1.96
  -2  -2   2    2.40    0.32
  -2  -2   2    3.06    0.36
   2   2  -2    2.50    0.30
  -2  -2   2    2.80    0.34
   2   2  -2    3.24    0.38
  -2  -2   1  109.75    2.27
  -2  -2   1  108.56    2.21
  -2  -2   1  105.83    1.95
  -2  -2   0   83.40    1.37
  -2  -2   0   83.68    1.80
   2   2   0   78.82    1.33
  -2  -2  -1  205.23    3.24
  -2  -2  -2  294.92    4.26
  -2  -2  -3    0.60    0.12
  -2  -2  -3    0.32    0.13
   2   2   3    0.26    0.15
  -2  -2  -4    6.51    0.42
   2   2   4    6.55    0.47
   2   2   5   37.44    1.22
   2   2   5   35.92    1.23
  -2  -2  -5   39.36    1.24
  -2  -2  -6  165.23    3.65
  -2  -2  -6  168.70    3.23
  -2  -2  -7   33.99    1.41
   2   2   7   30.81    1.37
  -2  -2  -7   31.66    1.56
   2   2   8   84.99    2.56
  -2  -2  -8   87.65    2.81
  -2  -2  -8   89.56    2.59
  -2  -2  -9   18.14    1.30
   2   2   9   15.96    1.15
  -2  -2  -9   18.84    1.23
  -2  -2 -10    1.68    0.44
   2   2  10    1.47    0.39
  -2  -2 -10    1.25    0.42
  -2  -2 -11   59.79    2.64
  -2  -2 -12    0.65    0.42
  -2  -2 -13   10.48    1.20
  -2  -2 -14    5.87    0.92
  -2  -2 -15    3.93    0.81
  -2  -2 -16    3.94    0.89
  -2  -2 -17    0.76    0.45
  -2  -2 -18    0.51    0.60
   2   3 -16   -0.48    0.39
  -2  -3  15    1.34    0.46
   2   3 -15    0.20    0.34
  -2  -3  14    5.93    1.12
   2   3 -14    4.78    0.86
   2   3 -13   -0.22    0.28
  -2  -3  13    0.03    0.47
   2   3 -12   -0.28    0.32
  -2  -3  12   -0.26    0.36
  -2  -3  11    1.76    0.61
   2   3 -11   -0.06    0.32
  -2  -3  10    7.85    0.88
   2   3 -10    8.02    0.90
  -2  -3  10    9.22    1.12
  -2  -3   9   13.44    1.09
  -2  -3   9   13.10    1.25
   2   3  -9   13.48    1.11
   2   3  -8    4.07    0.58
  -2  -3   8    3.70    0.55
  -2  -3   8    4.18    0.70
  -2  -3   7   10.08    0.84
  -2  -3   7   11.17    0.98
   2   3  -7    9.44    0.82
  -2  -3   7   10.06    0.99
   2   3  -7    8.92    0.93
   2   3  -7   10.10    0.96
   2   3  -6    0.27    0.19
  -2  -3   6    0.28    0.18
  -2  -3   6    0.19    0.28
   2   3  -6    0.08    0.13
   2   3  -6    0.08    0.18
  -2  -3   6    0.24    0.21
  -2  -3   5  127.07    2.91
   2   3  -5  123.73    2.91
  -2  -3   5  121.90    3.14
  -2  -3   5  123.23    3.22
   2   3  -4    5.05    0.54
   2   3  -4    4.74    0.49
  -2  -3   4    5.05    0.54
  -2  -3   4    4.08    0.46
  -2  -3   4    5.23    0.57
  -2  -3   3  191.94    3.68
   2   3  -3  188.97    3.50
   2   3  -3  181.55    3.50
  -2  -3   3  189.65    3.59
  -2  -3   3  190.26    3.47
  -2  -3   2   18.98    0.94
  -2  -3   2   19.58    0.90
  -2  -3   2   18.11    0.85
   2   3  -2   17.87    0.83
  -2  -3   1  282.94    4.42
   2   3  -1  276.50    4.00
  -2  -3   1  280.27    4.04
  -2  -3   0   93.74    2.04
  -2  -3   0   92.55    1.65
   2   3   0   91.50    1.63
  -2  -3  -1   92.46    1.94
  -2  -3  -1   89.58    1.43
   2   3   1   89.34    1.93
  -2  -3  -2  121.57    2.30
   2   3   2  116.50    2.28
  -2  -3  -3    0.17    0.09
   2   3   3    0.10    0.12
   2   3   4    1.91    0.29
  -2  -3  -4    2.76    0.29
  -2  -3  -5    5.77    0.47
   2   3   5    5.29    0.42
  -2  -3  -5    4.79    0.58
   2   3   6    0.30    0.16
  -2  -3  -6    0.49    0.20
  -2  -3  -6    0.34    0.27
   2   3   7    0.11    0.13
  -2  -3  -7   -0.16    0.25
  -2  -3  -7    0.47    0.21
  -2  -3  -8   29.17    1.43
  -2  -3  -8   25.18    1.53
  -2  -3  -9   35.35    1.70
  -2  -3  -9   36.58    1.92
  -2  -3 -10   29.69    1.65
  -2  -3 -10   25.85    1.71
  -2  -3 -11   23.09    1.69
  -2  -3 -12    4.89    0.85
  -2  -3 -13   35.05    2.27
  -2  -3 -14    2.10    0.65
  -2  -3 -15    5.94    1.06
  -2  -3 -16   -1.38    0.58
  -2  -3 -17    3.54    0.87
  -2  -4  15    1.84    0.69
   2   4 -15    1.92    0.58
   2   4 -14    4.23    0.79
  -2  -4  14    5.60    1.08
   2   4 -13    0.59    0.33
  -2  -4  13    1.10    0.58
   2   4 -12    1.54    0.46
  -2  -4  12    1.81    0.61
  -2  -4  11    1.91    0.61
   2   4 -11    1.75    0.48
  -2  -4  10    1.38    0.36
  -2  -4  10    1.22    0.48
   2   4 -10    1.13    0.35
  -2  -4   9    0.75    0.26
   2   4  -9    0.32    0.22
  -2  -4   9    0.55    0.35
  -2  -4   8   -0.10    0.18
   2   4  -8    0.11    0.22
  -2  -4   8    0.17    0.30
   2   4  -7    4.04    0.66
  -2  -4   7    3.78    0.52
   2   4  -7    3.67    0.62
   2   4  -7    3.25    0.50
  -2  -4   7    3.94    0.68
   2   4  -6    0.06    0.22
  -2  -4   6    0.09    0.19
   2   4  -6   -0.10    0.14
  -2  -4   6   -0.14    0.23
   2   4  -6    0.23    0.20
  -2  -4   6    0.19    0.23
  -2  -4   5   61.59    1.89
  -2  -4   5   58.31    2.17
   2   4  -5   57.71    1.87
  -2  -4   5   63.46    2.24
  -2  -4   4   24.77    1.10
  -2  -4   4   24.28    1.29
  -2  -4   4   24.37    1.27
   2   4  -4   23.39    1.22
  -2  -4   3  164.62    3.39
  -2  -4   3  167.52    3.55
   2   4  -3  162.87    3.34
  -2  -4   3  166.05    3.19
  -2  -4   2   68.17    1.83
  -2  -4   2   71.68    2.02
  -2  -4   2   67.33    1.84
   2   4  -2   64.27    1.78
  -2  -4   1  287.69    4.33
  -2  -4   1  279.91    4.61
   2   4  -1  286.10    4.31
  -2  -4   0    1.36    0.24
   2   4   0    1.03    0.22
  -2  -4   0    1.16    0.19
   2   4   0    1.30    0.19
  -2  -4  -1  155.97    2.84
  -2  -4  -1  154.13    2.46
   2   4   1  154.59    2.87
   2   4   2   10.34    0.61
  -2  -4  -2   11.83    0.64
   2   4   3   21.30    0.87
  -2  -4  -3   22.00    0.89
   2   4   4   79.82    1.86
  -2  -4  -4   82.89    1.68
  -2  -4  -5   44.89    1.41
   2   4   5   41.23    1.32
  -2  -4  -5   43.26    1.82
  -2  -4  -6   23.93    1.11
  -2  -4  -6   23.47    1.38
  -2  -4  -7   13.31    0.91
   2   4   7   12.80    0.68
  -2  -4  -7   12.75    1.07
  -2  -4  -8   23.36    1.52
   2   4   8   21.07    0.97
   2   4   9    0.06    0.14
  -2  -4  -9   -0.27    0.27
  -2  -4  -9    0.21    0.17
  -2  -4 -10    6.03    0.76
  -2  -4 -10    4.77    0.77
   2   4  10    4.94    0.55
  -2  -4 -11    5.19    0.85
  -2  -4 -12    0.46    0.36
  -2  -4 -13   14.12    1.48
  -2  -4 -14    4.00    0.87
  -2  -4 -15    6.86    1.13
  -2  -4 -16   -0.47    0.39
  -2  -4 -17    5.09    1.06
  -2  -5  14    1.73    0.72
   2   5 -14    1.57    0.50
  -2  -5  13    2.83    0.79
   2   5 -13    2.76    0.59
   2   5 -12    3.72    0.64
  -2  -5  12    4.80    0.98
   2   5 -11    0.57    0.28
  -2  -5  11    0.73    0.46
  -2  -5  10   20.59    1.33
   2   5 -10   19.10    1.31
  -2  -5  10   19.22    1.68
  -2  -5   9    0.86    0.31
   2   5  -9    0.68    0.29
  -2  -5   8   19.72    1.19
   2   5  -8   19.72    1.21
  -2  -5   8   19.75    1.53
  -2  -5   7    0.60    0.21
   2   5  -7    0.41    0.21
  -2  -5   7    0.44    0.28
  -2  -5   6    0.41    0.32
  -2  -5   6    0.09    0.16
   2   5  -6    0.26    0.23
   2   5  -6   -0.10    0.16
  -2  -5   6    0.03    0.14
   2   5  -6    0.22    0.27
  -2  -5   5    6.41    0.74
   2   5  -5    7.57    0.77
  -2  -5   5    6.20    0.72
  -2  -5   5    7.22    0.62
  -2  -5   4    8.00    0.62
  -2  -5   4    8.39    0.78
  -2  -5   4    6.96    0.71
   2   5  -3   39.62    1.56
  -2  -5   3   41.30    1.61
  -2  -5   3   40.40    1.67
  -2  -5   3   41.32    1.42
  -2  -5   2    9.08    0.66
  -2  -5   2    8.72    0.72
  -2  -5   2    9.43    0.70
   2   5  -2    8.72    0.66
   2   5  -1  170.33    3.18
   2   5  -1  166.78    3.48
  -2  -5   1  169.80    3.41
  -2  -5   1  167.36    3.20
   2   5   0  186.71    3.24
   2   5   0  185.97    3.53
  -2  -5   0  189.82    3.27
  -2  -5   0  185.52    3.48
  -2  -5  -1  362.41    5.14
   2   5   1  367.54    5.42
  -2  -5  -1  366.80    5.38
  -2  -5  -2    0.73    0.18
  -2  -5  -2    1.00    0.19
   2   5   2    0.87    0.21
   2   5   3   83.62    1.92
  -2  -5  -3   85.59    1.95
  -2  -5  -4    7.25    0.42
   2   5   4    7.53    0.52
   2   5   5   50.95    1.45
  -2  -5  -5   52.00    2.07
  -2  -5  -6   44.84    1.61
   2   5   6   39.73    1.31
  -2  -5  -6   41.42    1.94
  -2  -5  -7    3.96    0.61
   2   5   7    3.93    0.42
  -2  -5  -7    3.72    0.50
  -2  -5  -8   18.93    1.43
  -2  -5  -8   18.31    1.16
  -2  -5  -9   -0.54    0.26
  -2  -5  -9   -0.15    0.25
   2   5   9    0.05    0.10
   2   5  10    1.81    0.31
  -2  -5 -10    1.68    0.51
  -2  -5 -10    2.10    0.47
  -2  -5 -11   -0.11    0.30
   2   5  11   -0.02    0.13
  -2  -5 -12    0.41    0.36
  -2  -5 -13    4.14    0.81
  -2  -5 -14    4.68    0.95
  -2  -5 -15    7.43    1.18
  -2  -5 -16    0.35    0.39
  -2  -6  14    0.29    0.48
   2   6 -13    7.36    0.92
  -2  -6  13    6.03    1.12
  -2  -6  12    9.61    1.36
   2   6 -12    8.03    0.93
  -2  -6  11   21.07    1.88
   2   6 -11   16.74    1.29
   2   6 -10   10.79    0.96
  -2  -6  10   13.77    1.47
  -2  -6  10   15.17    1.11
  -2  -6   9    0.48    0.24
   2   6  -9    0.37    0.22
  -2  -6   9    0.35    0.43
  -2  -6   8    5.31    0.60
  -2  -6   8    6.90    0.95
  -2  -6   7   27.89    1.31
  -2  -6   7   29.33    1.81
   2   6  -6   45.52    2.10
  -2  -6   6   44.60    1.63
   2   6  -6   50.08    2.33
  -2  -6   6   46.22    2.16
   2   6  -5   -0.14    0.27
  -2  -6   5    0.20    0.16
  -2  -6   5    0.06    0.19
  -2  -6   5   -0.13    0.24
   2   6  -5    0.14    0.24
  -2  -6   4   14.64    0.86
  -2  -6   4   13.82    1.06
  -2  -6   4   14.37    1.06
   2   6  -4   15.07    1.17
  -2  -6   3    3.31    0.49
  -2  -6   3    3.81    0.53
  -2  -6   3    3.86    0.44
  -2  -6   2    9.50    0.80
  -2  -6   2   10.31    0.79
   2   6  -2   10.42    0.78
  -2  -6   1    0.35    0.14
   2   6  -1    0.12    0.13
  -2  -6   1    0.40    0.20
  -2  -6   0    1.21    0.26
  -2  -6   0    1.45    0.28
   2   6   0    1.32    0.31
   2   6   1   33.70    1.30
  -2  -6  -1   32.35    1.25
  -2  -6  -1   32.59    1.23
  -2  -6  -2    0.75    0.21
   2   6   2    0.47    0.17
  -2  -6  -2    1.01    0.22
   2   6   3  210.00    3.57
  -2  -6  -3  209.47    3.55
   2   6   4    0.13    0.09
  -2  -6  -4   -0.11    0.22
  -2  -6  -4    0.08    0.07
   2   6   5   81.97    1.91
  -2  -6  -5   86.90    2.84
  -2  -6  -6    5.49    0.73
   2   6   6    4.99    0.44
   2   6   7   59.44    1.68
  -2  -6  -7   66.38    2.22
  -2  -6  -7   66.46    2.67
  -2  -6  -8   33.52    1.95
  -2  -6  -8   34.58    1.66
   2   6   8   33.78    1.28
  -2  -6  -9    0.57    0.26
   2   6   9    0.27    0.17
  -2  -6  -9    0.36    0.34
  -2  -6 -10   12.09    1.10
  -2  -6 -10   10.45    1.19
  -2  -6 -11    0.45    0.38
  -2  -6 -12   -0.36    0.42
   2   6  12   -0.05    0.11
  -2  -6 -13    4.28    0.90
  -2  -6 -14   -0.55    0.42
  -2  -6 -15   -0.24    0.44
  -2  -7  13    4.22    0.96
  -2  -7  12    0.35    0.60
  -2  -7  11    2.32    0.73
  -2  -7  10    0.13    0.44
  -2  -7   9    6.11    0.64
  -2  -7   9    7.94    1.11
  -2  -7   8   38.05    1.58
  -2  -7   8   40.25    2.30
  -2  -7   7    4.14    0.50
  -2  -7   7    5.10    0.79
  -2  -7   6   10.97    0.77
  -2  -7   6   10.83    1.09
   2   7  -5    0.04    0.14
  -2  -7   5    0.10    0.12
   2   7  -5   -0.08    0.21
  -2  -7   5    0.18    0.25
   2   7  -4   55.75    2.36
  -2  -7   4   55.12    2.23
  -2  -7   4   56.59    1.77
   2   7  -4   56.00    2.22
  -2  -7   4   57.62    2.31
   2   7  -3    8.93    0.87
  -2  -7   3    7.24    0.77
  -2  -7   3    9.05    0.84
   2   7  -3   10.34    0.88
  -2  -7   3    8.62    0.66
  -2  -7   2   14.14    1.01
  -2  -7   2   13.91    0.98
  -2  -7   1    0.79    0.25
  -2  -7   1    1.10    0.29
  -2  -7   0    7.33    0.65
  -2  -7   0    7.46    0.66
   2   7   1    1.93    0.36
  -2  -7  -1    1.62    0.30
  -2  -7  -1    1.09    0.26
  -2  -7  -2   38.46    1.37
  -2  -7  -2   38.63    1.47
   2   7   2   39.61    1.43
  -2  -7  -3  136.33    2.74
  -2  -7  -3  134.57    3.00
   2   7   3  135.16    2.77
  -2  -7  -3  135.52    3.53
  -2  -7  -4    5.71    0.72
   2   7   4    4.83    0.43
  -2  -7  -4    5.44    0.46
   2   7   5  112.71    2.36
  -2  -7  -5  125.38    3.61
   2   7   6   15.85    0.77
  -2  -7  -6   14.51    1.23
  -2  -7  -7  108.67    3.63
   2   7   7  115.05    2.35
  -2  -7  -8    0.04    0.25
   2   7   8    0.35    0.13
  -2  -7  -8    0.36    0.23
  -2  -7  -9   17.64    1.54
   2   7   9   15.54    0.85
   2   7  10   25.00    1.13
  -2  -7 -10   25.20    1.90
  -2  -7 -11    2.44    0.70
   2   7  11    1.95    0.34
  -2  -7 -12    1.54    0.55
  -2  -7 -13   -0.26    0.46
  -2  -7 -14    0.31    0.43
  -2  -7 -15    0.57    0.49
  -2  -8  13    1.35    0.65
  -2  -8  12   -0.21    0.42
  -2  -8  11    2.24    0.70
  -2  -8  10    7.48    1.16
  -2  -8   9    8.64    1.19
  -2  -8   8    3.96    0.49
  -2  -8   8    5.14    0.89
  -2  -8   7    0.23    0.36
  -2  -8   7    0.63    0.22
  -2  -8   6    7.52    0.62
  -2  -8   6    8.32    0.99
  -2  -8   5    2.48    0.38
  -2  -8   5    3.62    0.63
   2   8  -4   42.71    2.13
  -2  -8   4   40.65    1.49
  -2  -8   4   40.54    2.00
   2   8  -4   41.01    1.98
   2   8  -3    3.88    0.64
  -2  -8   3    4.03    0.60
  -2  -8   3    3.52    0.59
   2   8  -3    4.32    0.61
  -2  -8   3    3.63    0.46
  -2  -8   2   18.86    1.23
   2   8  -2   17.12    1.16
   2   8  -2   17.03    1.23
  -2  -8   2   17.63    1.18
  -2  -8   1   -0.04    0.20
  -2  -8   1    0.20    0.16
  -2  -8   0   10.04    0.84
  -2  -8   0    9.34    0.77
  -2  -8  -1    0.87    0.26
  -2  -8  -1    1.47    0.29
  -2  -8  -2    6.66    0.67
  -2  -8  -2    7.47    0.61
   2   8   2    7.34    0.64
   2   8   3   54.83    1.70
  -2  -8  -3   53.97    1.91
  -2  -8  -3   55.42    2.22
  -2  -8  -3   51.27    1.60
  -2  -8  -4   18.77    0.90
   2   8   4   19.26    0.93
  -2  -8  -4   19.22    1.34
   2   8   5   16.49    0.80
  -2  -8  -5   16.14    1.30
  -2  -8  -6   17.08    1.38
   2   8   6   16.66    0.77
  -2  -8  -7   42.62    2.28
   2   8   7   41.55    1.26
   2   8   8    0.08    0.09
  -2  -8  -8    0.48    0.36
  -2  -8  -9   44.91    2.53
   2   8   9   42.14    1.29
  -2  -8 -10   13.41    1.45
   2   8  10   13.12    0.71
  -2  -8 -11   41.41    2.63
  -2  -8 -12    1.89    0.66
  -2  -8 -13   10.90    1.46
  -2  -8 -14    1.22    0.66
  -2  -9  12    1.04    0.58
  -2  -9  11    0.33    0.36
  -2  -9  10    0.13    0.47
  -2  -9   9   10.93    1.37
  -2  -9   8    1.24    0.57
  -2  -9   7   68.91    3.11
  -2  -9   6    0.09    0.13
  -2  -9   6    0.05    0.32
  -2  -9   5   51.37    1.66
  -2  -9   5   51.96    2.48
  -2  -9   4    0.11    0.11
  -2  -9   4   -0.19    0.30
   2   9  -3   36.00    2.04
  -2  -9   3   40.70    2.00
  -2  -9   3   40.03    1.55
   2   9  -2   24.39    1.54
  -2  -9   2   25.59    1.48
  -2  -9   2   25.98    1.54
   2   9  -1    0.40    0.24
  -2  -9   1    0.49    0.27
  -2  -9   1    0.32    0.18
  -2  -9   0   77.09    2.57
  -2  -9   0   75.35    2.41
  -2  -9  -1   -0.18    0.19
  -2  -9  -1   -0.06    0.19
  -2  -9  -1   -0.01    0.19
  -2  -9  -2    0.28    0.22
  -2  -9  -2    0.13    0.22
  -2  -9  -2   -0.05    0.15
  -2  -9  -3    1.99    0.47
  -2  -9  -3    2.36    0.35
  -2  -9  -3    2.09    0.38
   2   9   3    2.79    0.40
  -2  -9  -4    7.21    0.57
  -2  -9  -4    8.96    0.96
   2   9   4    8.12    0.63
  -2  -9  -4    7.28    0.75
  -2  -9  -5    2.60    0.55
   2   9   5    2.58    0.33
   2   9   6   12.65    0.67
  -2  -9  -6   10.74    1.12
   2   9   7   10.36    0.56
  -2  -9  -7   10.52    1.17
   2   9   8    0.29    0.10
  -2  -9  -8    0.12    0.30
  -2  -9  -9   30.60    2.14
   2   9   9   32.56    0.92
  -2  -9 -10    0.35    0.42
  -2  -9 -11   24.92    2.11
  -2  -9 -12   17.67    1.84
  -2  -9 -13    7.32    1.21
  -2 -10  11    0.73    0.39
  -2 -10  10    1.56    0.70
  -2 -10   9    2.39    0.72
  -2 -10   8    5.26    0.95
  -2 -10   7    5.60    0.96
  -2 -10   6   -0.07    0.35
  -2 -10   5   23.19    1.73
  -2 -10   4    0.00    0.15
  -2 -10   4    0.13    0.30
  -2 -10   3   40.07    2.13
  -2 -10   3   41.60    1.61
  -2 -10   2    4.35    0.70
  -2 -10   1   37.36    1.79
  -2 -10   1   35.04    1.87
   2  10  -1   36.24    1.88
  -2 -10   0   63.79    2.26
   2  10   0   57.02    2.30
  -2 -10   0   58.39    2.37
  -2 -10   0   59.25    2.22
  -2 -10  -1    2.92    0.50
  -2 -10  -1    2.89    0.45
  -2 -10  -1    3.29    0.56
  -2 -10  -2   56.02    2.27
  -2 -10  -2   55.22    1.89
  -2 -10  -2   56.70    2.34
   2  10   3   -0.15    0.14
  -2 -10  -3   -0.06    0.23
  -2 -10  -3   -0.05    0.15
  -2 -10  -4    9.33    1.02
  -2 -10  -4    9.65    0.92
   2  10   4    9.98    0.71
  -2 -10  -4   11.06    0.72
   2  10   5    4.45    0.42
  -2 -10  -5    5.34    0.79
  -2 -10  -5    4.83    0.69
  -2 -10  -6    2.62    0.58
   2  10   6    3.10    0.32
   2  10   7    0.96    0.16
  -2 -10  -7    0.63    0.40
  -2 -10  -8   -0.42    0.42
  -2 -10  -9   12.69    1.44
  -2 -10 -10    0.21    0.37
  -2 -10 -11    4.97    1.04
  -2 -10 -12    1.45    0.66
  -2 -11  10    3.35    0.88
  -2 -11   9    0.29    0.37
  -2 -11   8   -0.12    0.29
  -2 -11   7   -0.56    0.44
  -2 -11   6    3.22    0.72
  -2 -11   5    2.32    0.61
  -2 -11   4    7.46    1.00
  -2 -11   3    9.32    1.09
  -2 -11   3   10.11    0.80
  -2 -11   2    5.08    0.61
  -2 -11   2    5.42    0.81
  -2 -11   1   33.80    1.93
  -2 -11   1   34.70    1.65
  -2 -11   0   25.04    1.63
  -2 -11   0   26.48    1.48
  -2 -11   0   22.86    1.40
  -2 -11  -1   31.55    1.80
  -2 -11  -1   30.70    1.51
  -2 -11  -1   32.25    1.73
  -2 -11  -2   30.37    1.75
  -2 -11  -2   31.06    1.44
  -2 -11  -2   30.00    1.75
  -2 -11  -3    3.39    0.65
  -2 -11  -3    4.55    0.68
  -2 -11  -3    3.99    0.48
  -2 -11  -4    4.91    0.78
  -2 -11  -4    4.27    0.45
  -2 -11  -4    4.29    0.68
  -2 -11  -5    0.67    0.41
  -2 -11  -5    0.46    0.25
  -2 -11  -6    4.49    0.69
  -2 -11  -6    4.58    0.83
  -2 -11  -7    2.76    0.69
  -2 -11  -8    0.15    0.31
  -2 -11  -9    0.21    0.39
  -2 -11 -10    0.50    0.34
  -2 -11 -11    0.12    0.41
  -2 -12   9    1.55    0.71
  -2 -12   8    3.40    0.86
  -2 -12   7    0.09    0.40
  -2 -12   6    0.13    0.43
  -2 -12   5    2.42    0.71
  -2 -12   4    0.07    0.38
  -2 -12   3    3.39    0.68
  -2 -12   2    0.69    0.28
  -2 -12   2    0.85    0.41
  -2 -12   1   20.85    1.61
  -2 -12   1   23.92    1.40
  -2 -12   0   -0.02    0.30
  -2 -12   0    0.02    0.20
  -2 -12  -1   36.86    1.92
  -2 -12  -1   36.32    2.06
  -2 -12  -2    7.20    0.89
  -2 -12  -2    8.36    0.98
  -2 -12  -3    8.69    1.02
  -2 -12  -3    7.91    0.98
  -2 -12  -4    3.94    0.69
  -2 -12  -4    5.64    0.82
  -2 -12  -5    6.23    0.93
  -2 -12  -5    5.32    0.77
  -2 -12  -6   16.50    1.56
  -2 -12  -6   16.87    1.40
  -2 -12  -7   -0.29    0.41
  -2 -12  -7    0.20    0.25
  -2 -12  -8    4.06    0.88
  -2 -12  -9    0.69    0.51
  -2 -12 -10    0.12    0.36
  -2 -13   8    5.31    1.10
  -2 -13   7    0.07    0.37
  -2 -13   6    0.48    0.40
  -2 -13   5    0.79    0.39
  -2 -13   4   -0.16    0.34
  -2 -13   3   -0.14    0.43
  -2 -13   2    1.77    0.54
  -2 -13   1    0.19    0.31
  -2 -13   0    8.64    0.90
  -2 -13   0    9.06    1.10
  -2 -13  -1   13.55    1.18
  -2 -13  -1   16.17    1.45
  -2 -13  -2   -0.01    0.25
  -2 -13  -2   -0.30    0.27
  -2 -13  -3   15.93    1.39
  -2 -13  -3   15.65    1.39
  -2 -13  -4   10.52    1.21
  -2 -13  -4    9.83    1.10
  -2 -13  -5    5.74    0.88
  -2 -13  -5    5.82    0.93
  -2 -13  -6   19.30    1.74
  -2 -13  -6   19.30    1.58
  -2 -13  -7    8.95    1.11
  -2 -13  -7   10.68    1.37
  -2 -13  -8   17.04    1.52
  -2 -13  -8   16.40    1.75
  -2 -13  -9    1.40    0.53
  -2 -14   6   10.07    1.42
  -2 -14   5   -0.94    0.42
  -2 -14   4    4.43    0.90
  -2 -14   3    1.11    0.53
  -2 -14   2    0.20    0.36
  -2 -14   1   -0.01    0.23
  -2 -14   0    3.81    0.77
  -2 -14  -1    4.04    0.81
  -2 -14  -2    2.29    0.57
  -2 -14  -2    1.58    0.52
  -2 -14  -3    2.53    0.58
  -2 -14  -3    2.61    0.64
  -2 -14  -4    1.41    0.51
  -2 -14  -4    0.23    0.29
  -2 -14  -5    8.89    1.12
  -2 -14  -5   10.50    1.30
  -2 -14  -6    1.40    0.59
  -2 -14  -6    1.23    0.42
  -2 -14  -7    5.61    0.88
  -2 -14  -7    8.32    1.23
  -2 -14  -8    2.35    0.70
  -2 -15   4   17.17    1.79
  -2 -15   3    1.70    0.61
  -2 -15   2   10.23    1.35
  -2 -15   1    2.29    0.65
  -2 -15   0    0.91    0.51
  -2 -15  -1    0.41    0.30
  -2 -15  -2    0.49    0.25
  -2 -15  -3    1.16    0.49
  -2 -15  -4    0.15    0.28
  -2 -15  -5    4.32    0.85
  -2 -15  -5    5.24    0.91
  -2 -15  -6    1.70    0.58
  -2 -15  -7    8.53    1.29
  -2 -16   2    8.37    1.26
  -2 -16   1   -0.82    0.42
  -2 -16   0    4.17    0.87
  -2 -16  -1    1.32    0.41
   3 -14   5    3.58    0.84
   3 -13  -8    0.52    0.44
   3 -13  -7    1.18    0.53
   3 -13  -6    0.78    0.47
   3 -13  -5    0.63    0.43
   3 -13  -5    0.56    0.46
   3 -13  -4    1.31    0.58
   3 -13  -4    1.12    0.44
   3 -13  -3   -0.44    0.43
   3 -13  -2    0.51    0.28
   3 -13  -1    0.15    0.30
   3 -13   0    5.72    1.05
   3 -13   1   15.56    1.72
   3 -13   2    5.95    0.89
   3 -13   2    3.52    0.92
   3 -13   3   23.22    1.83
   3 -13   3   29.07    2.39
   3 -13   4    1.04    0.41
   3 -13   4    2.08    0.79
   3 -12  -9    8.73    1.40
   3 -12  -8    2.03    0.70
   3 -12  -7   10.42    1.34
   3 -12  -6   -0.18    0.36
   3 -12  -5    0.15    0.30
   3 -12  -4    0.26    0.37
   3 -12  -4    0.22    0.37
   3 -12  -3    0.45    0.42
   3 -12  -3    0.48    0.31
   3 -12  -2    0.26    0.26
   3 -12  -2    0.24    0.22
   3 -12  -1    0.24    0.26
   3 -12  -1   -0.74    0.57
   3 -12   0   12.16    1.48
   3 -12   0   13.65    1.15
   3 -12   1   15.98    1.67
   3 -12   1   13.04    1.19
   3 -12   2   14.29    1.57
   3 -12   2   14.14    1.31
   3 -12   3   20.26    1.91
   3 -12   3   21.47    1.72
   3 -12   4    0.06    0.42
   3 -12   5   31.38    2.41
   3 -12   6   -0.44    0.47
   3 -12   7   10.37    1.47
   3 -11  -9   13.66    1.63
   3 -11  -8    2.16    0.70
   3 -11  -7   33.54    2.37
   3 -11  -6   13.12    1.42
   3 -11  -5   21.72    1.75
   3 -11  -4    4.62    0.80
   3 -11  -3   19.05    1.50
   3 -11  -3   19.31    1.76
   3 -11  -2    1.50    0.56
   3 -11  -2    0.87    0.33
   3 -11  -1    0.96    0.32
   3 -11  -1    1.15    0.55
   3 -11  -1    2.27    0.47
   3 -11   0    0.13    0.18
   3 -11   0    0.56    0.27
   3 -11   0    0.60    0.44
   3 -11   1    1.86    0.57
   3 -11   1    0.85    0.28
   3 -11   1    1.21    0.31
   3 -11   2    4.61    0.75
   3 -11   2    6.05    1.01
   3 -11   3    4.60    0.75
   3 -11   3    5.94    0.99
   3 -11   4    4.06    0.82
   3 -11   5   10.57    1.36
   3 -11   6    1.00    0.53
   3 -11   7   27.20    2.23
   3 -11   8    1.43    0.68
   3 -11   9   15.04    1.76
   3 -10 -10    2.17    0.67
   3 -10  -9   14.89    1.67
   3 -10  -8   -0.02    0.43
   3 -10  -7   20.41    1.81
   3 -10  -6    1.15    0.52
   3 -10  -5   19.90    1.65
   3 -10  -4   29.27    1.89
   3 -10  -3    3.69    0.64
   3 -10  -2   32.75    1.80
   3 -10  -2   31.97    2.14
   3 -10  -2   34.13    1.01
   3 -10  -1    8.38    0.85
   3 -10  -1    8.47    0.63
   3 -10  -1    8.35    0.80
   3 -10  -1    9.20    1.16
   3 -10   0   24.29    1.33
   3 -10   0   21.74    1.73
   3 -10   0   23.42    1.21
   3 -10   0   27.04    1.52
   3 -10   1    0.25    0.23
   3 -10   1    0.22    0.12
   3 -10   1    0.03    0.28
   3 -10   1    0.28    0.15
   3 -10   2   -0.46    0.23
   3 -10   2    0.19    0.32
   3 -10   2    0.34    0.25
   3 -10   2    0.40    0.18
   3 -10   3    0.26    0.38
   3 -10   4    0.60    0.37
   3 -10   5   -0.27    0.45
   3 -10   6    1.99    0.62
   3 -10   7   31.25    2.29
   3 -10   8    5.73    1.05
   3 -10   9   12.64    1.53
   3 -10  10   -0.16    0.52
   3  -9 -11   -0.09    0.40
   3  -9 -10    0.50    0.46
   3  -9  -9    2.89    0.91
   3  -9  -8    2.78    0.71
   3  -9  -7   12.69    1.39
   3  -9  -6    2.80    0.68
   3  -9  -5   19.69    1.56
   3  -9  -4    2.34    0.59
   3  -9  -3   57.74    2.46
   3  -9  -2    8.70    0.52
   3  -9  -2    9.01    0.52
  -3   9   2   10.70    0.99
   3  -9  -2    9.81    0.94
   3  -9  -1   32.80    1.26
  -3   9   1   31.72    1.61
   3  -9  -1   32.63    2.03
   3  -9  -1   33.14    1.55
   3  -9  -1   32.96    1.63
   3  -9   0   18.11    1.11
   3  -9   0   18.94    1.53
   3  -9   0   20.19    1.27
   3  -9   0   16.92    1.02
   3  -9   1    3.52    0.58
   3  -9   1    3.65    0.70
   3  -9   1    3.56    0.51
   3  -9   1    3.36    0.45
   3  -9   2   27.20    1.07
   3  -9   2   25.37    1.47
   3  -9   2   27.79    1.90
   3  -9   2   25.72    1.61
   3  -9   3    3.07    0.67
   3  -9   3    3.29    0.58
   3  -9   4    3.77    0.74
   3  -9   5    0.43    0.38
   3  -9   6   13.01    1.39
   3  -9   7    1.38    0.49
   3  -9   8   10.80    1.33
   3  -9   9    3.72    0.85
   3  -9  10    0.29    0.41
   3  -9  11   14.04    1.64
   3  -9  12    0.03    0.53
   3  -8 -12    2.47    0.83
   3  -8 -11    0.45    0.57
   3  -8 -10    1.31    0.59
   3  -8  -9   -0.24    0.32
   3  -8  -8    6.55    1.02
   3  -8  -7    0.07    0.30
   3  -8  -6    0.18    0.25
   3  -8  -5   19.22    1.50
   3  -8  -4    2.50    0.55
   3  -8  -3   72.98    2.70
   3  -8  -3   70.51    1.20
  -3   8   2    4.74    0.64
   3  -8  -2    5.62    0.41
   3  -8  -2    5.42    0.42
   3  -8  -2    5.27    0.71
   3  -8  -1   54.51    1.95
   3  -8  -1   55.69    2.08
   3  -8   0    6.47    0.70
   3  -8   0    6.45    0.87
   3  -8   0    6.68    0.67
  -3   8   0    7.23    0.66
   3  -8   1   91.04    2.34
   3  -8   1   86.49    3.22
   3  -8   1   90.49    2.84
  -3   8  -1   86.29    2.28
  -3   8  -2   56.17    1.58
   3  -8   2   57.40    2.59
   3  -8   2   61.94    1.66
   3  -8   2   58.65    2.38
   3  -8   3    3.39    0.68
   3  -8   4   14.13    1.33
   3  -8   5    0.62    0.42
   3  -8   6   -0.33    0.27
   3  -8   7    9.43    1.15
   3  -8   8    1.03    0.38
   3  -8   9    2.50    0.73
   3  -8  10    5.61    1.01
   3  -8  11    6.58    1.13
   3  -8  12    0.46    0.49
   3  -8  13   11.81    1.55
   3  -7 -12    2.35    0.81
   3  -7 -11    3.05    0.83
   3  -7 -10    6.49    1.10
   3  -7  -9    0.37    0.33
   3  -7  -8    1.80    0.54
   3  -7  -7    1.09    0.47
   3  -7  -6    0.08    0.31
   3  -7  -5   -0.28    0.36
   3  -7  -4    1.10    0.37
   3  -7  -3   55.89    2.29
  -3   7   3   61.30    2.40
   3  -7  -3   59.42    1.21
   3  -7  -2   10.29    0.92
  -3   7   2   10.25    0.90
   3  -7  -2   10.20    0.55
   3  -7  -1   73.46    2.21
   3  -7  -1   71.57    2.32
  -3   7   0    5.73    0.58
   3  -7   0    5.38    0.76
   3  -7   0    5.23    0.58
   3  -7   0    6.38    0.67
  -3   7  -1   51.55    1.66
   3  -7   1   52.57    2.32
   3  -7   1   54.25    1.70
   3  -7   1   53.41    2.06
  -3   7  -2    9.07    0.59
   3  -7   2    9.71    0.61
   3  -7   2    9.53    0.99
   3  -7   2    8.27    0.85
   3  -7   3   25.79    1.65
  -3   7  -3   26.90    0.84
   3  -7   4   54.18    2.45
   3  -7   5   46.30    2.33
   3  -7   6    7.23    0.95
   3  -7   7    9.61    1.12
   3  -7   8   10.33    1.18
   3  -7   9    2.24    0.62
   3  -7  10    1.24    0.45
   3  -7  11    0.72    0.43
   3  -7  12    2.22    0.67
   3  -7  13    8.03    1.27
   3  -7  14    0.68    0.46
   3  -6 -13    2.71    0.84
   3  -6 -12    2.55    0.75
   3  -6 -11    6.48    1.12
   3  -6 -10   11.57    1.39
   3  -6  -9   -0.05    0.36
   3  -6  -8   15.83    1.50
  -3   6   8   14.70    0.84
   3  -6  -7    6.79    0.93
  -3   6   7    5.74    0.51
   3  -6  -6    7.76    0.97
  -3   6   6    7.62    0.59
   3  -6  -5    2.81    0.19
  -3   6   5    2.53    0.35
   3  -6  -5    3.35    0.62
  -3   6   4    1.67    0.39
   3  -6  -4    2.09    0.46
   3  -6  -4    1.26    0.15
   3  -6  -3   13.24    1.06
  -3   6   3   14.52    1.10
   3  -6  -3   13.71    0.57
   3  -6  -2   15.62    1.08
   3  -6  -2   16.51    0.71
  -3   6   1   78.75    2.38
   3  -6  -1   79.17    2.38
   3  -6  -1   79.11    2.25
   3  -6  -1   79.90    1.91
  -3   6   0   11.48    0.80
   3  -6   0   10.87    0.83
   3  -6   0   11.45    0.81
  -3   6  -1  167.03    3.26
   3  -6   1  166.83    4.16
   3  -6   1  173.74    3.31
   3  -6   1  169.95    3.81
   3  -6   2   -0.11    0.24
  -3   6  -2    0.18    0.08
   3  -6   2    0.06    0.11
   3  -6   2   -0.10    0.27
  -3   6  -3  179.14    2.82
   3  -6   3  185.36    4.49
  -3   6  -4   17.05    0.50
   3  -6   4   19.73    1.38
   3  -6   5   76.15    2.85
   3  -6   6   51.00    2.36
   3  -6   7    1.56    0.50
   3  -6   8    9.31    1.08
   3  -6   9   -0.11    0.36
   3  -6  10    5.33    0.90
   3  -6  11   -0.07    0.40
   3  -6  12    3.03    0.80
   3  -6  13    0.90    0.59
   3  -6  14    1.79    0.68
   3  -5 -14   -0.99    0.61
   3  -5 -13    6.77    1.17
   3  -5 -12   -0.01    0.38
   3  -5 -11   20.70    1.90
   3  -5 -10    2.81    0.72
   3  -5  -9    9.27    1.17
  -3   5   9    9.96    0.63
  -3   5   8   19.81    0.85
   3  -5  -8   18.75    1.59
   3  -5  -7    7.31    0.97
  -3   5   7    6.71    0.45
   3  -5  -6   38.95    2.08
   3  -5  -6   36.83    1.09
   3  -5  -5    5.30    0.37
  -3   5   5    3.95    0.63
  -3   5   5    4.71    0.47
   3  -5  -5    4.62    0.68
  -3   5   4   15.02    1.14
   3  -5  -4   13.50    1.09
   3  -5  -4   13.71    0.58
  -3   5   4   12.67    0.79
   3  -5  -3   29.17    0.91
  -3   5   3   27.85    1.20
   3  -5  -3   26.41    1.45
   3  -5  -2   -0.04    0.09
   3  -5  -2    0.15    0.20
   3  -5  -1    0.05    0.11
  -3   5   1    0.15    0.13
   3  -5  -1    0.37    0.22
   3  -5   0    2.21    0.36
  -3   5   0    2.12    0.35
   3  -5   0    2.12    0.36
  -3   5  -1   22.29    1.00
   3  -5   1   22.31    1.01
   3  -5   1   22.62    1.32
   3  -5   1   20.25    1.15
  -3   5  -2   20.21    0.86
   3  -5   2   22.24    0.91
   3  -5   2   22.14    1.31
   3  -5   2   19.19    1.19
   3  -5   3  189.03    4.27
  -3   5  -3  179.86    2.90
   3  -5   4    0.73    0.35
  -3   5  -4    0.67    0.12
  -3   5  -5  126.54    3.48
   3  -5   5  127.94    3.54
  -3   5  -6   17.49    0.50
  -3   5  -6   19.71    1.36
  -3   5  -6   16.85    0.50
   3  -5   6   19.93    1.39
  -3   5  -7   21.52    0.62
  -3   5  -7   18.68    0.59
  -3   5  -8   18.70    0.66
   3  -5   8   19.29    1.47
  -3   5  -9   14.73    0.67
   3  -5   9   14.19    1.32
  -3   5 -10   17.44    0.81
   3  -5  10   17.95    1.55
  -3   5 -11    7.78    0.60
   3  -5  11    8.20    1.10
  -3   5 -12    8.95    0.70
   3  -5  12    9.66    1.28
   3  -5  13   -0.07    0.41
   3  -5  14    0.00    0.39
   3  -5  15    0.60    0.62
   3  -4 -14    3.44    0.88
   3  -4 -13    8.05    1.26
   3  -4 -12    1.90    0.69
   3  -4 -11   20.60    1.85
  -3   4  10    0.09    0.14
   3  -4 -10   -0.28    0.41
   3  -4  -9   15.94    1.48
  -3   4   9   12.85    0.84
   3  -4  -8    4.06    0.73
  -3   4   8    3.62    0.41
   3  -4  -7  112.47    3.73
  -3   4   7  110.37    2.39
   3  -4  -7  113.95    2.54
   3  -4  -6  105.99    3.43
   3  -4  -6  100.24    2.21
  -3   4   6   99.45    2.14
   3  -4  -5    2.87    0.58
   3  -4  -5    2.28    0.29
  -3   4   5    2.54    0.49
  -3   4   5    2.78    0.31
  -3   4   4   85.69    2.77
   3  -4  -4   84.39    2.78
   3  -4  -4   83.47    1.79
  -3   4   4   83.00    2.16
   3  -4  -3   19.67    1.23
   3  -4  -3   20.27    0.79
  -3   4   3   20.46    1.00
  -3   4   2   11.42    0.75
  -3   4   2   12.03    0.89
   3  -4  -2   12.11    0.90
   3  -4  -2   12.17    0.62
   3  -4  -1    1.98    0.37
   3  -4  -1    1.72    0.26
  -3   4   1    2.08    0.34
   3  -4   0   11.61    0.77
  -3   4   0   12.15    0.77
   3  -4   0   11.72    0.79
   3  -4   1    9.22    0.75
  -3   4  -1    9.44    0.63
   3  -4   1    8.71    0.61
   3  -4   2    3.62    0.50
  -3   4  -2    3.81    0.37
   3  -4   2    4.06    0.55
  -3   4  -3   19.84    0.79
   3  -4   3   21.48    1.23
   3  -4   4   13.39    1.00
  -3   4  -4   12.34    0.58
  -3   4  -5  114.65    2.09
   3  -4   5  117.89    3.27
  -3   4  -6   13.72    1.07
   3  -4   6   13.01    1.06
  -3   4  -6   13.13    0.61
  -3   4  -7   78.32    1.74
  -3   4  -7   81.59    2.80
   3  -4   7   74.69    2.74
  -3   4  -8   12.52    0.68
   3  -4   8   14.61    1.22
  -3   4  -9   11.26    0.71
   3  -4   9   12.23    1.19
  -3   4 -10    6.80    0.59
   3  -4  10    6.85    0.93
  -3   4 -11    4.98    0.56
   3  -4  11    4.13    0.77
  -3   4 -12   15.84    1.05
   3  -4  12   15.86    1.55
  -3   4 -13    0.02    0.17
   3  -4  13    0.00    0.37
   3  -4  14    3.62    0.81
   3  -4  15    0.53    0.49
   3  -4  16    0.58    0.56
   3  -3 -15    0.52    0.41
   3  -3 -14    0.37    0.34
   3  -3 -13    0.14    0.35
   3  -3 -12    0.89    0.48
  -3   3  11    5.13    0.63
   3  -3 -11    6.41    1.01
   3  -3 -10   13.34    1.37
  -3   3  10   12.27    0.93
  -3   3   9   31.30    1.43
   3  -3  -9   35.39    2.17
   3  -3  -8    0.32    0.30
  -3   3   8    0.06    0.13
   3  -3  -7   41.39    2.14
   3  -3  -7   39.19    1.50
  -3   3   7   37.75    1.41
  -3   3   6   11.50    0.71
   3  -3  -6    9.65    1.00
   3  -3  -6   11.73    0.74
  -3   3   6   12.31    1.08
  -3   3   5   90.01    2.05
   3  -3  -5   92.43    2.97
   3  -3  -5   88.45    2.10
   3  -3  -4   49.12    2.01
   3  -3  -4   48.01    1.38
  -3   3   4   47.44    1.37
   3  -3  -3   33.53    1.57
   3  -3  -3   32.17    1.07
  -3   3   3   34.37    1.12
  -3   3   2   85.77    2.43
   3  -3  -2   85.15    2.43
   3  -3  -2   82.95    1.84
  -3   3   2   82.40    2.12
  -3   3   1    9.77    0.74
   3  -3  -1    9.48    0.73
   3  -3  -1    8.88    0.56
  -3   3   1    8.85    0.65
  -3   3   0   73.20    1.97
   3  -3   0   70.89    1.96
  -3   3   0   72.76    2.04
   3  -3   0   70.48    1.80
  -3   3  -1   12.75    0.72
   3  -3   1   12.07    0.72
   3  -3   1   12.34    0.81
   3  -3   2    4.14    0.51
   3  -3   2    4.41    0.50
  -3   3  -2    4.83    0.42
  -3   3  -3   45.82    1.30
   3  -3   3   45.96    1.69
   3  -3   3   47.00    1.81
  -3   3  -4   25.14    1.25
   3  -3   4   22.18    1.20
  -3   3  -4   23.97    0.90
  -3   3  -5    8.90    0.78
   3  -3   5   10.08    0.84
  -3   3  -6    4.77    0.60
   3  -3   6    4.54    0.59
  -3   3  -7    9.09    0.87
   3  -3   7   10.43    0.95
  -3   3  -7    8.45    0.60
  -3   3  -8    4.60    0.49
   3  -3   8    4.23    0.64
  -3   3  -8    3.19    0.56
  -3   3  -9   50.99    1.74
   3  -3   9   53.18    2.38
  -3   3 -10    5.92    0.62
   3  -3  10    5.43    0.80
  -3   3 -11   51.45    1.98
   3  -3  11   53.48    2.65
  -3   3 -12    9.06    0.87
   3  -3  12    8.89    1.14
  -3   3 -13    2.46    0.49
   3  -3  13    2.81    0.71
  -3   3 -14    6.29    0.79
   3  -3  14    8.15    1.20
  -3   3 -15    1.35    0.46
   3  -3  15    1.87    0.66
   3  -3  16    3.46    0.92
   3  -2 -15    0.95    0.59
   3  -2 -14    3.34    0.84
   3  -2 -13    0.02    0.38
   3  -2 -12    1.57    0.66
   3  -2 -11    0.27    0.37
  -3   2  11   -0.07    0.18
   3  -2 -10   11.21    1.26
  -3   2  10   12.09    1.00
   3  -2  -9   28.07    1.90
  -3   2   9   29.67    1.48
   3  -2  -8    5.41    0.65
  -3   2   8    6.52    0.64
   3  -2  -8    6.65    0.90
   3  -2  -7  166.20    4.45
   3  -2  -7  168.22    3.62
  -3   2   7  164.43    3.46
  -3   2   6   15.21    1.18
   3  -2  -6   13.59    1.14
   3  -2  -6   15.02    0.90
   3  -2  -6   16.19    1.23
  -3   2   6   13.67    0.83
  -3   2   5  307.16    4.86
   3  -2  -5  309.89    5.97
   3  -2  -5  311.51    4.97
   3  -2  -4   74.22    2.46
   3  -2  -4   71.76    1.85
  -3   2   4   72.60    1.84
   3  -2  -3   25.63    1.33
   3  -2  -3   23.06    0.95
  -3   2   3   24.39    0.97
   3  -2  -2   90.90    2.49
  -3   2   2   92.73    2.01
   3  -2  -2   89.08    1.98
  -3   2   1   34.08    1.36
   3  -2  -1   34.34    1.38
   3  -2  -1   34.93    1.15
  -3   2   1   33.36    1.27
   3  -2   0  222.19    3.71
   3  -2   0  233.54    4.01
  -3   2   0  229.92    3.96
  -3   2   0  222.63    3.97
  -3   2  -1   39.34    1.32
   3  -2   1   40.41    1.35
   3  -2   1   39.18    1.44
  -3   2  -1   41.57    1.49
  -3   2  -2   17.42    0.83
   3  -2   2   17.88    0.91
   3  -2   2   19.16    1.03
  -3   2  -3   28.19    1.05
   3  -2   3   29.00    1.20
  -3   2  -4  104.54    2.57
   3  -2   4  112.03    2.64
  -3   2  -5   26.69    1.25
   3  -2   5   28.99    1.33
  -3   2  -6    3.81    0.51
   3  -2   6    3.60    0.52
  -3   2  -7   16.73    1.11
  -3   2  -7   17.73    0.94
   3  -2   7   18.00    1.17
  -3   2  -8    1.20    0.29
  -3   2  -8    1.29    0.36
   3  -2   8    0.97    0.32
  -3   2  -9   34.52    1.52
  -3   2  -9   36.58    1.85
   3  -2   9   35.05    1.86
  -3   2 -10    2.03    0.41
   3  -2  10    2.60    0.57
  -3   2 -11    3.23    0.53
   3  -2  11    4.74    0.80
  -3   2 -12    1.63    0.43
   3  -2  12    1.47    0.51
  -3   2 -13   33.76    1.86
   3  -2  13   37.33    2.36
  -3   2 -14   11.52    1.15
   3  -2  14   12.00    1.40
  -3   2 -15    5.21    0.82
   3  -2  15    6.28    1.08
  -3   2 -16    4.33    0.76
   3  -2  16    5.12    1.04
   3  -2  17    0.17    0.61
   3  -1 -15    1.84    0.66
   3  -1 -14    7.22    1.18
   3  -1 -13   -0.04    0.34
   3  -1 -12   14.58    1.55
   3  -1 -11    0.77    0.40
  -3   1  10    4.05    0.61
   3  -1 -10    4.15    0.79
  -3   1   9    2.32    0.45
   3  -1  -9    2.89    0.66
   3  -1  -8    2.10    0.44
  -3   1   8    3.33    0.50
   3  -1  -8    1.97    0.48
  -3   1   7    3.69    0.50
   3  -1  -7    3.30    0.51
  -3   1   7    4.24    0.67
   3  -1  -7    3.49    0.61
   3  -1  -7    3.09    0.58
  -3   1   6    2.09    0.34
   3  -1  -6    2.13    0.39
  -3   1   6    2.13    0.47
   3  -1  -6    2.08    0.48
   3  -1  -5   81.02    2.67
   3  -1  -5   83.58    2.27
  -3   1   5   81.56    2.16
   3  -1  -4   12.80    0.96
   3  -1  -4   12.44    0.77
  -3   1   4   12.10    0.74
   3  -1  -3  170.68    3.19
   3  -1  -3  168.38    3.73
  -3   1   3  176.77    3.18
   3  -1  -2  145.54    3.24
   3  -1  -2  143.32    2.74
  -3   1   2  142.41    2.75
  -3   1   1    3.82    0.38
   3  -1  -1    3.67    0.46
   3  -1  -1    3.47    0.37
   3  -1   0  188.94    3.27
   3  -1   0  188.95    3.51
  -3   1   0  184.33    3.44
  -3   1  -1    4.13    0.42
  -3   1  -1    4.55    0.47
   3  -1   1    4.79    0.46
  -3   1  -2  287.25    4.55
   3  -1   2  288.55    4.35
  -3   1  -2  292.03    4.84
  -3   1  -3    7.82    0.54
   3  -1   3    7.08    0.53
  -3   1  -4  145.90    2.87
   3  -1   4  144.12    2.89
  -3   1  -5    0.92    0.23
   3  -1   5    0.71    0.25
  -3   1  -6   33.22    1.40
   3  -1   6   33.35    1.43
  -3   1  -7    6.96    0.64
  -3   1  -7    7.67    0.71
   3  -1   7    8.28    0.75
  -3   1  -8    7.80    0.78
   3  -1   8    8.30    0.82
  -3   1  -8    8.10    0.74
  -3   1  -9    2.12    0.40
  -3   1  -9    2.75    0.49
   3  -1   9    2.33    0.47
  -3   1 -10   14.58    1.08
   3  -1  10   16.25    1.30
  -3   1 -11    4.20    0.64
   3  -1  11    5.24    0.81
  -3   1 -12    6.10    0.78
   3  -1  12    5.38    0.89
  -3   1 -13    0.14    0.24
   3  -1  13    0.37    0.27
   3  -1  14    1.51    0.55
  -3   1 -14    1.98    0.49
  -3   1 -15    4.77    0.82
   3  -1  15    3.91    0.88
  -3   1 -16    8.23    1.11
   3  -1  16   11.33    1.45
   3  -1  17    1.57    0.68
  -3   1 -17    0.16    0.31
   3   0 -16    0.10    0.40
   3   0 -15    4.71    0.98
   3   0 -14   11.31    1.42
   3   0 -13    0.32    0.45
   3   0 -12   21.79    1.82
   3   0 -11    2.97    0.69
   3   0 -10   15.72    1.43
   3   0  -9    4.22    0.70
  -3   0   9    4.27    0.61
   3   0  -8   -0.08    0.23
  -3   0   8    0.25    0.21
   3   0  -8   -0.04    0.27
   3   0  -7    3.24    0.51
  -3   0   7    3.78    0.60
   3   0  -7    2.50    0.53
  -3   0   7    2.97    0.47
   3   0  -7    3.69    0.64
  -3   0   6   17.42    1.21
   3   0  -6   13.46    1.07
   3   0  -6   15.67    1.19
   3   0  -6   12.54    0.93
  -3   0   6   14.59    0.95
  -3   0   5   37.08    1.70
   3   0  -5   40.85    1.80
   3   0  -5   36.72    1.53
  -3   0   5   37.80    1.49
   3   0  -4   52.25    1.96
   3   0  -4   49.37    1.69
  -3   0   4   53.70    1.70
   3   0  -4   54.46    1.95
   3   0  -3   78.93    2.06
  -3   0   3   78.22    2.04
   3   0  -3   80.06    2.37
   3   0  -2  159.50    3.41
  -3   0   2  160.76    3.05
   3   0  -2  163.50    3.07
  -3   0   1  155.33    2.93
   3   0  -1  155.92    3.22
   3   0  -1  155.73    2.93
   3   0   0   33.61    1.19
  -3   0   0   35.01    1.20
  -3   0  -1  159.12    3.08
  -3   0  -2   23.40    1.06
   3   0   2   22.54    0.78
  -3   0  -3   85.68    1.76
   3   0   3   85.53    1.78
  -3   0  -3   88.47    2.27
   3   0   4  112.98    2.28
  -3   0  -4  113.64    2.25
   3   0   5    9.00    0.63
  -3   0  -5   10.46    0.66
   3   0   6   42.41    1.53
  -3   0  -6   45.04    1.54
  -3   0  -7    6.69    0.63
   3   0   7    6.21    0.64
  -3   0  -7    5.23    0.60
  -3   0  -8   11.76    0.90
   3   0   8   12.01    0.94
  -3   0  -8   12.29    0.94
  -3   0  -9    3.30    0.53
  -3   0  -9    2.75    0.51
   3   0   9    3.21    0.53
  -3   0 -10    1.09    0.37
  -3   0 -10    1.69    0.42
   3   0  10    0.91    0.32
  -3   0 -11    0.72    0.31
   3   0  11    0.97    0.46
  -3   0 -12    2.78    0.57
   3   0  12    2.76    0.61
  -3   0 -13   14.38    1.31
   3   0  13   14.23    1.40
  -3   0 -14    1.31    0.51
   3   0  14    1.33    0.57
  -3   0 -15   10.37    1.24
   3   0  15   10.74    1.33
   3   0  16    0.29    0.36
  -3   0 -16   -0.58    0.45
  -3   0 -17    4.23    0.89
   3   0  17    4.96    1.01
  -3   0 -18    1.32    0.52
   3   1 -16    0.17    0.36
   3   1 -15    5.08    1.00
   3   1 -14    0.58    0.47
   3   1 -13    0.85    0.46
   3   1 -12   16.16    1.56
   3   1 -11    3.33    0.75
   3   1 -10   26.35    1.82
   3   1  -9    1.01    0.48
   3   1  -9    1.06    0.41
  -3  -1   8   45.13    2.14
   3   1  -8   41.23    2.08
   3   1  -8   43.49    2.05
  -3  -1   8   46.35    2.01
   3   1  -7    2.40    0.48
   3   1  -7    1.89    0.44
  -3  -1   7    1.46    0.35
  -3  -1   7    1.53    0.35
   3   1  -7    2.20    0.50
  -3  -1   6   24.00    1.41
   3   1  -6   22.54    1.39
  -3  -1   6   21.49    1.24
   3   1  -6   21.16    1.25
   3   1  -6   22.01    1.37
  -3  -1   5    7.39    0.74
   3   1  -5    7.38    0.77
   3   1  -5    7.64    0.72
  -3  -1   5    7.14    0.67
  -3  -1   4    6.80    0.69
   3   1  -4    5.82    0.64
   3   1  -4    6.10    0.60
   3   1  -4    6.60    0.66
  -3  -1   4    6.51    0.60
  -3  -1   3  183.72    3.77
   3   1  -3  176.83    3.77
   3   1  -3  177.88    3.55
   3   1  -3  180.76    3.59
  -3  -1   3  185.08    3.52
  -3  -1   2    2.97    0.37
   3   1  -2    2.67    0.40
   3   1  -2    2.43    0.36
   3   1  -2    2.99    0.38
   3   1  -1    3.37    0.45
  -3  -1   1    2.95    0.35
   3   1  -1    2.97    0.32
  -3  -1   0   20.01    0.92
  -3  -1  -1  159.88    3.04
  -3  -1  -2    1.83    0.29
   3   1   2    1.86    0.17
  -3  -1  -3  216.20    2.97
   3   1   3  214.83    3.00
  -3  -1  -3  219.28    3.88
  -3  -1  -4   57.45    1.34
   3   1   4   57.44    1.36
   3   1   4   57.97    1.78
   3   1   5   64.18    1.65
  -3  -1  -5   68.34    1.65
   3   1   5   63.88    2.00
  -3  -1  -6   85.57    2.09
   3   1   6   81.37    2.10
   3   1   6   80.40    2.36
  -3  -1  -7    6.45    0.59
   3   1   7    6.42    0.62
   3   1   8   29.12    1.43
  -3  -1  -8   31.29    1.59
  -3  -1  -8   29.64    1.40
  -3  -1  -9    3.20    0.56
   3   1   9    2.62    0.48
   3   1  10   33.81    1.78
  -3  -1 -10   39.23    1.85
  -3  -1 -10   33.73    1.82
  -3  -1 -11    0.72    0.28
   3   1  11    0.52    0.33
  -3  -1 -12    0.10    0.25
   3   1  12    0.07    0.31
  -3  -1 -13    3.33    0.69
   3   1  13    3.55    0.70
  -3  -1 -14    0.14    0.30
   3   1  14    0.84    0.37
  -3  -1 -15    1.24    0.48
   3   1  15    1.31    0.53
  -3  -1 -16    1.14    0.53
  -3  -1 -17    8.39    1.23
  -3  -1 -18   -1.39    0.59
   3   2 -16    0.74    0.42
   3   2 -15    3.04    0.82
   3   2 -14    0.50    0.45
   3   2 -13   14.44    1.49
   3   2 -12    7.37    1.07
   3   2 -11    5.69    0.89
   3   2 -10   13.28    1.26
  -3  -2  10   12.12    1.31
   3   2  -9   10.48    1.14
   3   2  -9   12.36    1.17
  -3  -2   9    9.72    1.14
  -3  -2   8   59.41    2.42
   3   2  -8   55.51    2.41
   3   2  -8   56.38    2.46
  -3  -2   8   55.46    2.51
  -3  -2   7   -0.02    0.22
   3   2  -7    0.45    0.30
  -3  -2   7    0.08    0.19
   3   2  -7    0.03    0.22
   3   2  -7    0.34    0.20
  -3  -2   7   -0.31    0.33
  -3  -2   6   42.73    1.86
   3   2  -6   39.04    1.82
   3   2  -6   45.20    1.93
  -3  -2   6   41.48    1.81
  -3  -2   6   38.98    1.84
   3   2  -6   41.28    1.90
   3   2  -5    0.07    0.19
   3   2  -5    0.25    0.20
  -3  -2   5    0.14    0.20
  -3  -2   5    0.14    0.19
  -3  -2   5    0.00    0.18
  -3  -2   4   92.33    2.58
   3   2  -4   93.64    2.62
   3   2  -4   87.70    2.58
  -3  -2   4   87.79    2.49
   3   2  -4   88.72    2.51
  -3  -2   4   89.25    2.49
  -3  -2   3    0.45    0.18
  -3  -2   3    1.20    0.28
   3   2  -3    0.84    0.26
   3   2  -3    1.11    0.28
  -3  -2   3    0.31    0.16
  -3  -2   2    0.14    0.11
  -3  -2   2    0.16    0.13
   3   2  -2    0.00    0.15
   3   2  -2    0.23    0.14
  -3  -2   2    0.29    0.15
  -3  -2   1   46.49    1.53
   3   2  -1   47.34    1.29
   3   2   0   41.78    1.00
  -3  -2   0   42.66    1.42
  -3  -2  -1  194.85    3.50
  -3  -2  -2   64.42    1.79
  -3  -2  -3   27.17    0.57
  -3  -2  -3   28.57    1.14
   3   2   4   24.94    0.75
  -3  -2  -4   25.19    0.74
  -3  -2  -4   23.97    1.08
   3   2   4   23.90    1.12
  -3  -2  -5   94.62    1.90
   3   2   5   87.87    1.91
   3   2   5   93.99    2.33
  -3  -2  -6  274.32    4.31
   3   2   6  275.92    4.76
  -3  -2  -7   87.28    2.25
   3   2   7   80.22    2.23
   3   2   7   86.51    2.42
  -3  -2  -7   89.37    2.76
  -3  -2  -8  135.74    3.14
  -3  -2  -8  127.99    3.57
   3   2   8  123.89    3.09
   3   2   9    3.38    0.55
  -3  -2  -9    3.58    0.62
  -3  -2  -9    3.50    0.51
  -3  -2 -10   97.83    3.31
  -3  -2 -10  100.98    3.04
   3   2  10   93.56    3.00
  -3  -2 -11    4.64    0.72
  -3  -2 -11    5.55    0.73
   3   2  11    3.28    0.54
  -3  -2 -12    3.89    0.73
   3   2  12    4.97    0.78
  -3  -2 -13    4.89    0.85
  -3  -2 -14    5.58    0.93
  -3  -2 -15    0.24    0.35
  -3  -2 -16    3.79    0.80
  -3  -2 -17    1.04    0.56
  -3  -2 -18   -1.46    0.64
   3   3 -16    0.61    0.45
   3   3 -15   -0.02    0.32
   3   3 -14    0.28    0.43
   3   3 -13    0.37    0.28
  -3  -3  13    1.48    0.61
  -3  -3  12   -0.11    0.41
   3   3 -12   -0.36    0.39
   3   3 -11    6.27    0.89
  -3  -3  11    6.30    1.01
   3   3 -10    9.13    1.04
  -3  -3  10    9.41    1.16
   3   3  -9   13.96    1.37
   3   3  -9   14.00    1.24
  -3  -3   9   15.22    1.39
  -3  -3   8   32.68    1.74
   3   3  -8   32.95    1.90
   3   3  -8   29.88    1.70
  -3  -3   8   31.19    1.89
   3   3  -7    3.79    0.68
  -3  -3   7    3.93    0.57
   3   3  -7    3.81    0.61
   3   3  -7    2.36    0.48
  -3  -3   7    3.26    0.63
  -3  -3   6  150.77    3.68
   3   3  -6  145.65    3.71
   3   3  -6  141.63    3.83
  -3  -3   6  152.43    3.82
   3   3  -6  145.00    3.79
  -3  -3   6  151.11    3.92
  -3  -3   5    5.47    0.62
   3   3  -5    5.03    0.64
   3   3  -5    5.61    0.66
  -3  -3   5    5.54    0.65
  -3  -3   5    4.66    0.61
  -3  -3   4   50.57    1.87
   3   3  -4   52.73    1.92
  -3  -3   4   52.08    1.94
  -3  -3   4   50.88    1.87
   3   3  -4   49.86    1.83
  -3  -3   3    3.49    0.48
  -3  -3   3    3.44    0.46
   3   3  -3    3.50    0.42
  -3  -3   3    3.07    0.44
  -3  -3   2   20.07    0.94
   3   3  -2   19.24    0.90
  -3  -3   2   19.31    1.05
  -3  -3   2   21.12    1.10
  -3  -3   1   15.22    0.92
   3   3  -1   14.10    0.66
  -3  -3   1   15.28    0.71
  -3  -3   1   14.63    0.87
   3   3   0   10.96    0.48
  -3  -3   0   11.28    0.50
  -3  -3   0   10.66    0.71
  -3  -3  -1   28.08    1.15
  -3  -3  -2    0.17    0.12
   3   3   2    0.10    0.12
   3   3   3   47.24    1.53
  -3  -3  -3   44.93    1.44
  -3  -3  -4   18.59    0.59
   3   3   4   18.42    0.96
  -3  -3  -4   18.79    0.91
  -3  -3  -5    0.92    0.17
   3   3   5    1.34    0.30
  -3  -3  -6    0.11    0.10
   3   3   6    0.10    0.16
  -3  -3  -7   73.23    2.00
   3   3   7   69.83    2.06
  -3  -3  -7   67.58    2.50
  -3  -3  -8   36.41    1.88
  -3  -3  -8   37.51    1.53
   3   3   8   38.22    1.54
  -3  -3  -9   29.56    1.45
  -3  -3  -9   31.22    1.81
  -3  -3 -10   67.60    2.42
  -3  -3 -10   64.73    2.76
   3   3  11    1.31    0.34
  -3  -3 -11    1.56    0.49
  -3  -3 -11    1.04    0.32
  -3  -3 -12   29.50    1.98
   3   3  12   33.76    1.79
   3   3  13   -0.34    0.31
  -3  -3 -13   -0.25    0.30
  -3  -3 -14   11.40    1.33
   3   3  14   10.95    1.15
  -3  -3 -15    0.31    0.36
   3   3  15    0.42    0.25
  -3  -3 -16    0.35    0.39
   3   3  16    0.56    0.34
  -3  -3 -17   -0.18    0.41
   3   4 -15   -0.10    0.33
   3   4 -14    0.19    0.34
  -3  -4  14    1.03    0.58
  -3  -4  13   -0.35    0.66
   3   4 -13   -0.20    0.36
   3   4 -12    1.00    0.42
  -3  -4  12    0.87    0.55
   3   4 -11    3.84    0.71
  -3  -4  11    4.81    0.89
  -3  -4  10    2.81    0.72
   3   4 -10    1.90    0.51
  -3  -4   9   24.95    1.58
   3   4  -9   25.20    1.61
  -3  -4   9   24.93    1.84
   3   4  -8    7.69    1.03
  -3  -4   8    8.67    1.03
  -3  -4   8   10.15    0.95
   3   4  -8    8.82    0.91
   3   4  -7   17.42    1.36
  -3  -4   7   16.80    1.18
   3   4  -7   14.03    1.12
  -3  -4   7   15.70    1.29
   3   4  -6   89.29    2.92
  -3  -4   6   88.83    2.75
   3   4  -6   92.27    2.81
   3   4  -6   99.69    3.20
  -3  -4   6   91.62    3.01
  -3  -4   6   93.40    3.05
  -3  -4   5    8.28    0.76
   3   4  -5    8.27    0.77
   3   4  -5    9.06    0.90
  -3  -4   5    8.57    0.84
  -3  -4   5    8.62    0.85
  -3  -4   4  206.66    4.16
  -3  -4   4  200.77    4.36
  -3  -4   4  200.30    4.23
  -3  -4   3   -0.06    0.15
   3   4  -3    0.09    0.14
  -3  -4   3    0.25    0.23
  -3  -4   3    0.20    0.18
  -3  -4   2  342.25    5.66
   3   4  -2  326.87    5.15
  -3  -4   2  347.99    5.78
  -3  -4   2  337.09    5.26
  -3  -4   1    0.36    0.19
   3   4  -1    0.12    0.11
  -3  -4   1    0.33    0.18
  -3  -4   0  128.12    2.23
   3   4   0  124.70    2.19
  -3  -4   0  131.36    2.88
  -3  -4  -1    0.05    0.13
   3   4   1    0.26    0.15
  -3  -4  -1    0.16    0.08
  -3  -4  -2   62.69    1.09
   3   4   2   66.02    1.87
  -3  -4  -2   69.11    1.91
   3   4   3   98.56    2.34
  -3  -4  -3   91.92    1.46
  -3  -4  -3   94.95    2.33
  -3  -4  -4    9.80    0.46
   3   4   4   10.16    0.70
  -3  -4  -4    8.99    0.62
  -3  -4  -5   18.71    0.77
   3   4   5   18.92    0.99
  -3  -4  -5   18.54    0.92
  -3  -4  -6   26.05    1.04
   3   4   6   22.15    1.14
  -3  -4  -7   24.51    1.53
  -3  -4  -7   25.32    1.14
   3   4   8   16.86    0.97
  -3  -4  -8   20.57    1.13
  -3  -4  -8   17.09    1.33
  -3  -4  -9   44.07    1.80
  -3  -4  -9   41.08    2.16
   3   4   9   40.07    1.58
  -3  -4 -10    9.36    1.08
  -3  -4 -10    8.38    0.83
  -3  -4 -11    9.15    1.12
  -3  -4 -11   10.00    0.97
  -3  -4 -12   39.35    2.35
   3   4  12   38.07    1.80
   3   4  13    0.56    0.29
  -3  -4 -13    1.14    0.47
  -3  -4 -14    9.87    1.30
   3   4  14    9.79    0.99
   3   4  15   -0.07    0.29
  -3  -4 -15   -0.14    0.33
  -3  -4 -16    7.54    1.26
  -3  -4 -17    0.95    0.54
   3   5 -14    2.29    0.55
  -3  -5  14    0.23    0.41
   3   5 -13   -0.34    0.32
  -3  -5  13    1.93    0.72
  -3  -5  12    0.74    0.50
   3   5 -12    0.68    0.35
  -3  -5  11    1.58    0.66
   3   5 -11    1.74    0.53
   3   5 -10   -0.17    0.23
  -3  -5  10   -0.23    0.44
  -3  -5   9    6.00    0.78
   3   5  -9    4.28    0.68
  -3  -5   9    4.99    0.84
  -3  -5   8    0.60    0.39
   3   5  -8    0.34    0.23
  -3  -5   8    0.50    0.23
   3   5  -8    0.53    0.38
   3   5  -7    1.99    0.51
  -3  -5   7    2.22    0.43
   3   5  -7    1.73    0.42
  -3  -5   7    2.42    0.58
  -3  -5   6   14.01    1.02
   3   5  -6   13.33    1.21
  -3  -5   6   14.65    1.21
   3   5  -6   12.22    1.07
  -3  -5   5   36.70    1.78
  -3  -5   5   37.39    1.63
   3   5  -5   38.71    1.96
  -3  -5   5   39.37    1.89
   3   5  -5   33.96    1.69
  -3  -5   4   37.43    1.59
  -3  -5   4   36.71    1.66
  -3  -5   4   38.03    1.78
  -3  -5   3    1.65    0.38
  -3  -5   3    1.75    0.33
   3   5  -3    1.44    0.31
  -3  -5   3    0.96    0.31
  -3  -5   2  150.86    3.37
  -3  -5   2  146.07    3.45
  -3  -5   2  143.82    3.08
   3   5  -2  145.56    3.07
  -3  -5   1    0.44    0.22
   3   5  -1    0.17    0.11
  -3  -5   1    0.14    0.12
   3   5   0  212.05    4.12
   3   5   0  214.81    3.42
  -3  -5   0  212.45    3.45
  -3  -5   0  215.78    4.09
  -3  -5  -1   11.95    0.57
   3   5   1   12.89    0.84
  -3  -5  -1   11.02    0.76
  -3  -5  -2  109.39    2.58
  -3  -5  -2  109.01    1.92
   3   5   2  109.61    2.61
  -3  -5  -3    0.46    0.12
   3   5   3    0.26    0.16
  -3  -5  -3    0.48    0.20
   3   5   4   54.60    1.71
  -3  -5  -4   54.85    1.57
  -3  -5  -5    1.89    0.29
   3   5   5    1.67    0.31
  -3  -5  -5    1.89    0.26
   3   5   6    0.93    0.26
  -3  -5  -6    1.35    0.28
  -3  -5  -7    1.05    0.40
  -3  -5  -7    1.62    0.32
  -3  -5  -8    0.13    0.24
  -3  -5  -8   -0.03    0.19
  -3  -5  -9   18.64    1.18
  -3  -5  -9   17.36    1.43
  -3  -5 -10    0.73    0.36
  -3  -5 -10    1.56    0.40
   3   5  10    0.98    0.26
  -3  -5 -11    2.56    0.62
  -3  -5 -11    4.19    0.66
  -3  -5 -12   18.22    1.64
  -3  -5 -13    9.52    1.27
   3   5  13   10.05    0.86
  -3  -5 -14   10.24    1.34
  -3  -5 -15    3.75    0.86
  -3  -5 -16    3.71    0.96
   3   6 -13   -1.01    0.43
  -3  -6  13    0.27    0.48
  -3  -6  12    3.16    0.82
   3   6 -12    1.62    0.50
   3   6 -11    2.81    0.60
  -3  -6  11    1.80    0.63
   3   6 -10   -0.12    0.22
  -3  -6  10   -0.21    0.48
  -3  -6   9    5.27    0.70
  -3  -6   9    4.00    0.79
   3   6  -8    0.12    0.23
  -3  -6   8    0.20    0.22
  -3  -6   8   -0.11    0.40
   3   6  -7    0.25    0.32
  -3  -6   7    0.35    0.22
  -3  -6   7    0.06    0.32
   3   6  -6    0.08    0.27
  -3  -6   6    0.80    0.41
  -3  -6   6    0.70    0.24
   3   6  -5    4.65    0.69
  -3  -6   5    5.38    0.62
   3   6  -5    3.87    0.57
  -3  -6   5    4.58    0.69
  -3  -6   4   23.29    1.26
   3   6  -4   24.54    1.53
  -3  -6   4   24.52    1.48
  -3  -6   4   23.27    1.38
  -3  -6   3   15.10    0.98
   3   6  -3   15.00    1.15
  -3  -6   3   13.23    1.04
  -3  -6   3   14.19    1.00
  -3  -6   2   21.93    1.19
   3   6  -2   21.36    1.10
  -3  -6   2   21.99    1.29
  -3  -6   2   21.18    1.12
   3   6  -1   96.05    2.37
  -3  -6   1  100.02    2.44
   3   6   0  109.24    2.37
  -3  -6   0  109.05    2.41
  -3  -6   0  109.76    2.82
  -3  -6  -1    4.78    0.42
  -3  -6  -1    4.62    0.52
  -3  -6  -2   41.17    1.23
   3   6   2   44.39    1.61
  -3  -6  -2   42.17    1.56
  -3  -6  -3    6.93    0.47
   3   6   3    6.75    0.60
  -3  -6  -3    6.58    0.59
  -3  -6  -4   84.59    2.25
   3   6   4   84.84    2.25
   3   6   5    7.42    0.61
  -3  -6  -5    7.81    0.55
  -3  -6  -6   25.35    1.14
   3   6   6   25.70    1.18
  -3  -6  -6   24.96    1.61
  -3  -6  -7    8.90    0.72
   3   6   7    8.36    0.68
  -3  -6  -7    7.98    0.96
  -3  -6  -8   13.51    0.94
  -3  -6  -8   11.78    1.18
  -3  -6  -9    2.07    0.56
  -3  -6  -9    2.98    0.51
  -3  -6 -10    1.17    0.37
  -3  -6 -10    2.68    0.63
  -3  -6 -11    8.51    1.14
  -3  -6 -11    9.34    0.97
   3   6  11    6.99    0.74
   3   6  12    2.05    0.44
  -3  -6 -12    1.92    0.62
  -3  -6 -13   17.54    1.74
   3   6  13   13.46    1.17
  -3  -6 -14    1.82    0.76
  -3  -6 -15    7.34    1.24
  -3  -7  13    1.03    0.67
  -3  -7  12   17.89    1.87
  -3  -7  11    1.42    0.51
  -3  -7  10    2.57    0.68
  -3  -7   9   -0.41    0.24
  -3  -7   9    0.16    0.27
  -3  -7   8    3.25    0.53
  -3  -7   8    2.25    0.64
  -3  -7   7    0.14    0.21
   3   7  -7    0.36    0.35
  -3  -7   7    0.45    0.32
   3   7  -6    0.60    0.42
  -3  -7   6    1.39    0.36
  -3  -7   6    0.92    0.35
   3   7  -5    3.79    0.73
  -3  -7   5    6.73    0.68
   3   7  -5    5.90    0.74
  -3  -7   5    5.57    0.75
   3   7  -4    4.64    0.71
  -3  -7   4    4.23    0.53
   3   7  -4    5.17    0.67
  -3  -7   4    5.75    0.74
  -3  -7   3   11.22    0.86
   3   7  -3   10.69    1.01
  -3  -7   3   11.33    1.00
  -3  -7   3   10.52    0.89
  -3  -7   2    1.04    0.29
   3   7  -2    1.42    0.40
  -3  -7   2    1.46    0.32
  -3  -7   2    1.94    0.36
   3   7  -1   10.48    0.78
  -3  -7   1   12.08    0.84
  -3  -7   1   12.51    0.96
  -3  -7   0   21.92    1.23
  -3  -7   0   20.85    1.05
  -3  -7  -1    0.64    0.19
  -3  -7  -1    0.61    0.24
  -3  -7  -2  173.27    3.27
  -3  -7  -2  177.07    3.66
   3   7   3   11.55    0.82
  -3  -7  -3   10.96    0.79
  -3  -7  -3   12.65    0.73
  -3  -7  -4   59.87    1.72
   3   7   4   59.51    1.88
  -3  -7  -4   62.68    1.92
  -3  -7  -5    3.12    0.35
   3   7   5    3.23    0.42
   3   7   6   78.06    2.17
  -3  -7  -6   81.88    3.06
  -3  -7  -7   15.48    0.99
   3   7   7   14.07    0.88
  -3  -7  -7   14.67    1.32
  -3  -7  -8   19.74    1.20
  -3  -7  -8   16.80    1.45
  -3  -7  -9   10.28    1.18
  -3  -7  -9   10.81    0.95
  -3  -7 -10    7.27    1.03
  -3  -7 -10    8.41    0.89
  -3  -7 -11    9.22    1.20
  -3  -7 -12    0.48    0.49
   3   7  12    0.27    0.18
  -3  -7 -13    0.69    0.42
  -3  -7 -14    0.05    0.35
  -3  -7 -15   12.49    1.63
  -3  -8  12   11.50    1.56
  -3  -8  11   -0.18    0.38
  -3  -8  10   25.03    2.11
  -3  -8   9    5.06    0.92
  -3  -8   8    9.49    1.18
   3   8  -7    4.08    0.78
  -3  -8   7    4.20    0.56
  -3  -8   7    3.71    0.77
  -3  -8   6   14.83    1.03
   3   8  -6   15.56    1.45
  -3  -8   6   12.97    1.24
   3   8  -5    5.12    0.81
  -3  -8   5    6.10    0.66
  -3  -8   5    4.49    0.72
   3   8  -4    2.24    0.54
  -3  -8   4    3.36    0.58
   3   8  -4    3.63    0.57
  -3  -8   4    3.40    0.50
   3   8  -3    1.15    0.41
   3   8  -3    0.95    0.30
  -3  -8   3    1.48    0.33
  -3  -8   3    1.41    0.40
  -3  -8   2    6.02    0.72
   3   8  -2    5.06    0.70
  -3  -8   2    5.39    0.65
  -3  -8   1    5.09    0.60
  -3  -8   1    4.28    0.60
   3   8  -1    4.68    0.65
   3   8   0   12.30    1.00
  -3  -8   0   12.93    0.90
  -3  -8   0   13.93    1.02
  -3  -8  -1   16.15    0.97
  -3  -8  -1   18.36    1.11
  -3  -8  -2   38.44    1.49
  -3  -8  -2   38.37    1.59
  -3  -8  -3   46.02    1.62
  -3  -8  -3   45.81    1.70
  -3  -8  -4  103.61    2.64
  -3  -8  -4  106.28    2.61
   3   8   5   17.41    0.98
  -3  -8  -5   16.23    0.78
  -3  -8  -5   16.57    1.34
   3   8   6  102.29    2.51
  -3  -8  -6   95.93    3.45
   3   8   7    3.61    0.45
  -3  -8  -7    3.43    0.68
   3   8   8   24.03    1.17
  -3  -8  -8   28.46    1.49
  -3  -8  -8   27.17    1.92
  -3  -8  -9   38.30    2.37
  -3  -8  -9   39.94    1.89
  -3  -8 -10   -0.27    0.47
  -3  -8 -11   12.86    1.47
  -3  -8 -12    1.39    0.55
  -3  -8 -13   -0.01    0.34
  -3  -8 -14    2.09    0.75
  -3  -9  12    2.30    0.79
  -3  -9  11    0.90    0.55
  -3  -9  10    7.75    1.24
  -3  -9   9    2.03    0.66
  -3  -9   8   11.27    1.35
  -3  -9   7   11.63    1.28
  -3  -9   6   14.47    1.01
   3   9  -6   12.89    1.43
  -3  -9   6   14.31    1.35
  -3  -9   5   11.43    0.90
   3   9  -5   12.15    1.25
  -3  -9   5   13.04    1.22
  -3  -9   4   25.32    1.36
   3   9  -4   26.90    1.83
  -3  -9   4   25.20    1.63
   3   9  -3    4.85    0.77
  -3  -9   3    4.23    0.64
   3   9  -3    6.41    0.76
  -3  -9   3    5.00    0.61
   3   9  -2   -0.19    0.29
   3   9  -2    0.20    0.21
  -3  -9   2    0.20    0.22
   3   9  -1    5.33    0.73
  -3  -9   1    6.24    0.74
  -3  -9   1    5.60    0.67
   3   9   0   -0.12    0.24
  -3  -9   0   -0.23    0.18
  -3  -9   0   -0.04    0.15
   3   9   1   11.30    0.95
  -3  -9  -1   11.78    0.93
  -3  -9  -1   11.73    0.90
  -3  -9  -2   12.59    0.92
  -3  -9  -2   12.31    0.91
  -3  -9  -3   14.48    0.97
  -3  -9  -3   14.74    0.97
  -3  -9  -4   11.32    1.11
  -3  -9  -4   10.02    0.80
  -3  -9  -4   10.54    0.80
  -3  -9  -5   63.36    2.13
  -3  -9  -5   60.54    1.56
  -3  -9  -5   61.03    2.71
   3   9   6   14.05    0.88
  -3  -9  -6   14.69    1.35
  -3  -9  -7    2.26    0.60
   3   9   7    2.80    0.40
  -3  -9  -8   18.04    1.62
   3   9   8   20.60    1.03
  -3  -9  -8   19.87    1.30
   3   9   9    0.92    0.22
  -3  -9  -9    0.47    0.31
  -3  -9 -10   14.53    1.54
  -3  -9 -11    0.17    0.39
  -3  -9 -12   -0.41    0.44
  -3  -9 -13    1.74    0.68
  -3 -10  11    1.35    0.67
  -3 -10  10    3.04    0.80
  -3 -10   9    4.28    0.94
  -3 -10   8   16.43    1.64
  -3 -10   7    0.06    0.44
  -3 -10   6   25.81    1.88
   3  10  -5    1.39    0.53
  -3 -10   5    1.62    0.51
   3  10  -4   19.68    1.64
  -3 -10   4   19.54    1.20
  -3 -10   4   17.35    1.43
   3  10  -3    8.18    1.00
  -3 -10   3    8.70    0.81
   3  10  -2   19.26    1.49
  -3 -10   2   20.50    1.42
   3  10  -1   13.88    1.21
  -3 -10   1   13.37    1.11
   3  10   0    0.57    0.33
  -3 -10   0    0.44    0.21
  -3 -10   0    0.54    0.27
   3  10   1    1.72    0.41
  -3 -10  -1    2.44    0.44
  -3 -10  -1    2.34    0.45
  -3 -10  -2   -0.11    0.16
   3  10   2    0.11    0.20
  -3 -10  -2   -0.29    0.24
  -3 -10  -3    1.90    0.48
  -3 -10  -3    3.41    0.49
  -3 -10  -3    2.89    0.49
  -3 -10  -4    5.81    0.66
  -3 -10  -4    5.98    0.63
  -3 -10  -5    1.65    0.48
  -3 -10  -5    1.47    0.36
  -3 -10  -5    2.01    0.26
   3  10   6   11.80    0.82
  -3 -10  -6   11.47    0.96
  -3 -10  -6    9.16    1.13
  -3 -10  -7   10.49    1.23
   3  10   7    9.98    0.72
  -3 -10  -8   27.11    2.03
   3  10   8   26.86    1.14
  -3 -10  -9    6.12    0.99
  -3 -10 -10   40.18    2.66
  -3 -10 -11    1.75    0.69
  -3 -10 -12   15.45    1.77
  -3 -11  10    0.60    0.37
  -3 -11   9    1.81    0.70
  -3 -11   8    6.80    1.13
  -3 -11   7    2.03    0.62
  -3 -11   6   17.53    1.63
  -3 -11   5    2.89    0.72
  -3 -11   4   14.59    1.35
  -3 -11   3    0.02    0.33
   3  11  -3    0.23    0.34
   3  11  -2   23.01    1.73
  -3 -11   2   25.07    1.68
   3  11  -1    8.52    1.01
  -3 -11   1    7.90    0.90
   3  11   0    8.75    0.98
  -3 -11   0    7.59    0.87
   3  11   1   12.28    1.07
  -3 -11  -1   12.74    1.10
  -3 -11  -1   12.17    1.02
  -3 -11  -1   12.70    1.14
  -3 -11  -2    4.87    0.62
   3  11   2    4.00    0.60
  -3 -11  -2    4.15    0.68
  -3 -11  -2    4.51    0.65
   3  11   3    0.68    0.28
  -3 -11  -3    0.64    0.32
  -3 -11  -3    0.73    0.25
  -3 -11  -3    0.72    0.33
  -3 -11  -4    2.30    0.59
  -3 -11  -4    2.71    0.51
  -3 -11  -4    3.00    0.46
  -3 -11  -5    0.33    0.25
  -3 -11  -5    0.17    0.20
  -3 -11  -6    0.17    0.26
   3  11   6    0.06    0.16
  -3 -11  -6    0.60    0.41
  -3 -11  -7   11.17    1.32
  -3 -11  -7   11.22    1.04
  -3 -11  -8   19.02    1.76
  -3 -11  -9    6.71    1.11
  -3 -11 -10   17.38    1.80
  -3 -11 -11    2.66    0.74
  -3 -12   9   -0.04    0.51
  -3 -12   8    3.77    0.90
  -3 -12   7    1.76    0.60
  -3 -12   6    1.81    0.62
  -3 -12   5    1.96    0.58
  -3 -12   4   11.61    1.28
  -3 -12   3    1.42    0.47
  -3 -12   2   34.86    2.09
   3  12  -1    4.48    0.77
  -3 -12   1    3.25    0.65
  -3 -12   1    2.65    0.53
   3  12   0   41.52    2.19
  -3 -12   0   42.52    2.10
  -3 -12   0   40.43    2.14
   3  12   1   13.08    1.16
  -3 -12  -1   10.93    1.08
  -3 -12  -1   10.52    1.07
   3  12   2    3.95    0.61
  -3 -12  -2    4.09    0.69
  -3 -12  -2    3.30    0.60
   3  12   3   18.88    1.26
  -3 -12  -3   19.58    1.42
  -3 -12  -3   19.65    1.58
  -3 -12  -4   -0.16    0.26
  -3 -12  -4    0.10    0.24
  -3 -12  -5    9.55    1.19
  -3 -12  -5    8.53    0.93
  -3 -12  -6    0.99    0.50
  -3 -12  -6    1.20    0.42
  -3 -12  -7   -0.45    0.53
  -3 -12  -7    0.22    0.21
  -3 -12  -8    1.87    0.52
  -3 -12  -8    1.15    0.42
  -3 -12  -9    3.17    0.79
  -3 -12 -10   -0.17    0.52
  -3 -13   8    0.63    0.49
  -3 -13   7   -0.25    0.48
  -3 -13   6    0.67    0.44
  -3 -13   5   -1.26    0.52
  -3 -13   4    5.85    0.95
  -3 -13   3    5.16    0.90
  -3 -13   2   26.75    1.92
  -3 -13   1    0.58    0.35
  -3 -13   1    0.07    0.19
  -3 -13   0   32.53    2.01
  -3 -13   0   28.15    1.76
  -3 -13  -1   -0.32    0.27
  -3 -13  -1   -0.73    0.36
  -3 -13  -2    8.47    1.04
  -3 -13  -2    8.22    0.98
  -3 -13  -3    1.56    0.49
  -3 -13  -3    1.45    0.47
  -3 -13  -4   10.08    1.19
  -3 -13  -4   11.56    1.15
  -3 -13  -5   11.38    1.32
  -3 -13  -5   11.52    1.14
  -3 -13  -6    0.61    0.39
  -3 -13  -6   -0.14    0.29
  -3 -13  -7    0.36    0.42
  -3 -13  -7    0.38    0.25
  -3 -13  -8   -0.28    0.35
  -3 -13  -9    0.52    0.51
  -3 -14   6    1.59    0.66
  -3 -14   5    2.16    0.67
  -3 -14   4    0.28    0.33
  -3 -14   3    0.49    0.30
  -3 -14   2    2.03    0.58
  -3 -14   1    4.52    0.82
  -3 -14   0   15.49    1.47
  -3 -14  -1    2.10    0.53
  -3 -14  -1    2.99    0.67
  -3 -14  -2   14.60    1.39
  -3 -14  -2   16.89    1.49
  -3 -14  -3    1.69    0.59
  -3 -14  -3    3.11    0.65
  -3 -14  -4   20.41    1.76
  -3 -14  -4   20.00    1.60
  -3 -14  -5    1.77    0.63
  -3 -14  -6    8.48    1.18
  -3 -14  -7    4.57    0.92
  -3 -14  -8    1.61    0.64
  -3 -15   5   -1.09    0.56
  -3 -15   4    0.75    0.46
  -3 -15   3   -0.81    0.44
  -3 -15   2    0.10    0.36
  -3 -15   1    0.10    0.27
  -3 -15   0   -0.06    0.33
  -3 -15  -1    0.72    0.42
  -3 -15  -4    9.62    1.26
  -3 -15  -5    1.13    0.52
  -3 -15  -6    6.14    1.08
  -3 -15  -7    0.94    0.52
   4 -13  -7    2.96    0.79
   4 -13  -6   -0.10    0.35
   4 -13   3    0.83    0.44
   4 -13   4    1.25    0.49
   4 -13   5    0.08    0.38
   4 -13   6    0.50    0.48
   4 -13   7    0.37    0.39
   4 -12  -8    0.13    0.42
   4 -12  -7    0.14    0.29
   4 -12  -6    0.46    0.36
   4 -12  -5    3.75    0.78
   4 -12  -4    1.87    0.62
   4 -12  -4    0.38    0.36
   4 -12  -3    2.38    0.63
   4 -12  -3    1.38    0.50
   4 -12  -2   -0.23    0.45
   4 -12  -2    0.40    0.25
   4 -12  -1    6.77    1.12
   4 -12   0   16.20    1.74
   4 -12   1    3.16    0.64
   4 -12   1    3.87    0.89
   4 -12   2    4.64    0.81
   4 -12   2    5.00    0.97
   4 -12   3    1.83    0.52
   4 -12   3    4.26    0.95
   4 -12   4   19.30    1.72
   4 -12   4   18.23    1.90
   4 -12   5    1.35    0.59
   4 -12   5    0.18    0.47
   4 -12   6    1.85    0.70
   4 -12   6    1.67    0.67
   4 -12   7   -0.02    0.34
   4 -11  -9    0.18    0.50
   4 -11  -8   -0.02    0.39
   4 -11  -7    1.06    0.48
   4 -11  -6    2.79    0.77
   4 -11  -5    0.64    0.42
   4 -11  -4   -0.47    0.26
   4 -11  -3    0.78    0.38
   4 -11  -2   -0.13    0.39
   4 -11  -2   -0.17    0.33
   4 -11  -1   25.65    1.60
   4 -11  -1   27.67    2.16
   4 -11   0    0.69    0.34
   4 -11   0    1.39    0.41
   4 -11   0    1.78    0.46
   4 -11   1   20.26    1.85
   4 -11   1   19.82    1.50
   4 -11   2    2.55    0.62
   4 -11   2    2.39    0.67
   4 -11   3   14.36    1.58
   4 -11   3   12.89    1.32
   4 -11   4   15.06    1.64
   4 -11   4   14.50    1.45
   4 -11   5    3.31    0.76
   4 -11   5    1.68    0.68
   4 -11   6   19.99    1.92
   4 -11   6   20.53    1.85
   4 -11   7    0.33    0.41
   4 -11   8    4.24    0.92
   4 -10  -9    0.42    0.48
   4 -10  -8    8.92    1.34
   4 -10  -7    0.48    0.42
   4 -10  -6    2.58    0.68
   4 -10  -5    0.66    0.44
   4 -10  -4    0.31    0.26
   4 -10  -3    0.41    0.27
   4 -10  -2    0.23    0.38
   4 -10  -2   -0.19    0.29
   4 -10  -1   -0.07    0.14
   4 -10  -1   -0.30    0.20
   4 -10   0    1.53    0.52
   4 -10   0    2.57    0.48
   4 -10   0    3.15    0.55
   4 -10   1   13.06    0.95
   4 -10   1   12.33    1.37
   4 -10   1   14.17    1.22
   4 -10   2    1.13    0.41
   4 -10   2    0.98    0.44
   4 -10   2    0.84    0.24
   4 -10   3   18.40    1.69
   4 -10   3   20.29    1.59
   4 -10   4    4.63    0.82
   4 -10   4    3.78    0.81
   4 -10   5    6.12    1.03
   4 -10   5    5.55    0.92
   4 -10   6   25.29    2.06
   4 -10   7    3.25    0.85
   4 -10   8   17.85    1.80
   4 -10   9   -0.14    0.43
   4 -10  10    7.51    1.29
   4  -9 -10    8.18    1.30
   4  -9  -9    1.15    0.51
   4  -9  -8   12.94    1.52
   4  -9  -7    1.83    0.61
   4  -9  -6   24.23    1.91
   4  -9  -5    7.83    1.04
   4  -9  -4   15.10    1.37
   4  -9  -3    0.53    0.11
   4  -9  -3    0.58    0.31
   4  -9  -2   18.20    1.36
   4  -9  -2   16.46    0.84
   4  -9  -2   18.61    0.84
  -4   9   1    3.16    0.54
   4  -9  -1    3.14    0.41
   4  -9  -1    3.53    0.73
   4  -9  -1    2.91    0.51
  -4   9   0    3.55    0.54
   4  -9   0    3.90    0.74
   4  -9   0    3.59    0.56
   4  -9   0    3.34    0.58
   4  -9   1    0.65    0.29
   4  -9   1    0.67    0.41
   4  -9   1    0.94    0.33
   4  -9   2    3.02    0.58
  -4   9  -2    2.55    0.36
   4  -9   2    3.26    0.43
   4  -9   2    2.68    0.63
   4  -9   3    5.67    0.83
   4  -9   3    4.87    0.83
   4  -9   4    5.04    0.81
   4  -9   4    5.69    0.94
   4  -9   5    6.62    0.94
   4  -9   5    6.17    0.98
   4  -9   6   16.28    1.59
   4  -9   7   18.92    1.75
   4  -9   8    7.10    1.09
   4  -9   9    2.56    0.72
   4  -9  10   19.14    1.88
   4  -9  11    0.62    0.33
   4  -8 -11    0.65    0.51
   4  -8 -10    2.54    0.74
   4  -8  -9    7.19    1.19
   4  -8  -8    6.87    1.12
   4  -8  -7    1.18    0.43
   4  -8  -6   17.41    1.56
   4  -8  -5    1.49    0.54
   4  -8  -4   37.57    2.11
   4  -8  -4   35.58    0.74
   4  -8  -3    0.58    0.15
   4  -8  -3    0.46    0.32
  -4   8   2   12.66    1.10
   4  -8  -2   11.37    1.05
   4  -8  -2   10.32    0.64
  -4   8   1    2.37    0.43
   4  -8  -1    3.74    0.44
   4  -8  -1    2.51    0.49
   4  -8   0    3.98    0.74
   4  -8   0    4.94    0.62
   4  -8   0    4.93    0.68
   4  -8   1    0.37    0.30
   4  -8   1    0.11    0.30
  -4   8  -1   -0.13    0.18
   4  -8   1    0.05    0.15
   4  -8   2    1.93    0.47
  -4   8  -2    2.56    0.37
   4  -8   2    1.51    0.52
   4  -8   2    1.83    0.34
  -4   8  -3    5.65    0.46
   4  -8   3    4.27    0.71
   4  -8   3    3.69    0.72
   4  -8   4   13.46    1.27
  -4   8  -4   12.93    0.53
   4  -8   5   11.66    1.24
   4  -8   6    0.30    0.37
   4  -8   7   11.54    1.31
   4  -8   8    2.39    0.62
   4  -8   9    2.94    0.68
   4  -8  10   12.55    1.48
   4  -8  11    0.28    0.36
   4  -8  12    9.44    1.38
   4  -7 -11    0.49    0.45
   4  -7 -10   -0.01    0.32
   4  -7  -9    4.17    0.88
   4  -7  -8    0.53    0.34
   4  -7  -7    0.97    0.38
   4  -7  -6    8.70    1.09
   4  -7  -5    1.43    0.16
   4  -7  -5    1.62    0.48
   4  -7  -4   49.21    2.37
   4  -7  -4   49.42    1.22
   4  -7  -3    4.76    0.72
   4  -7  -3    4.77    0.40
   4  -7  -2   46.03    1.42
  -4   7   2   46.72    2.08
   4  -7  -2   45.68    2.08
   4  -7  -1    0.92    0.23
  -4   7   1    1.01    0.31
   4  -7  -1    0.57    0.28
   4  -7   0   64.34    2.24
   4  -7   0   65.88    2.35
  -4   7  -1   24.46    1.24
   4  -7   1   28.95    1.79
   4  -7   1   24.77    1.26
   4  -7   1   26.26    1.51
   4  -7   2    2.32    0.47
   4  -7   2    1.72    0.49
  -4   7  -2    2.64    0.37
   4  -7   2    1.91    0.32
  -4   7  -3   18.78    0.89
   4  -7   3   20.85    1.53
   4  -7   3   19.99    1.43
   4  -7   4    0.35    0.30
  -4   7  -4    0.34    0.12
   4  -7   4    0.02    0.25
   4  -7   5    8.13    1.02
   4  -7   6   25.55    1.80
   4  -7   7   14.33    1.39
   4  -7   8    0.88    0.46
   4  -7   9   14.32    1.47
   4  -7  10   -0.13    0.34
   4  -7  11    8.27    1.21
   4  -7  12    8.11    1.22
   4  -7  13    3.82    0.88
   4  -6 -12    0.21    0.41
   4  -6 -11   -1.13    0.52
   4  -6 -10   -0.09    0.36
   4  -6  -9   -0.13    0.36
   4  -6  -8    0.48    0.35
  -4   6   7    0.20    0.15
   4  -6  -7   -0.22    0.42
  -4   6   6    0.14    0.14
   4  -6  -6    0.10    0.09
   4  -6  -5   26.16    1.75
   4  -6  -5   28.13    0.97
  -4   6   5   26.45    1.32
   4  -6  -4    6.95    0.48
   4  -6  -4    6.74    0.87
  -4   6   4    6.44    0.63
  -4   6   3    6.51    0.77
   4  -6  -3    5.75    0.46
   4  -6  -3    4.79    0.68
  -4   6   2   25.48    1.49
   4  -6  -2   27.21    1.54
   4  -6  -2   23.24    1.01
   4  -6  -1   -0.04    0.23
   4  -6  -1    0.29    0.17
   4  -6   0   74.53    2.37
   4  -6   0   70.65    2.42
   4  -6   0   74.35    2.14
   4  -6   1   -0.07    0.26
  -4   6  -1   -0.11    0.17
   4  -6   1   -0.23    0.31
   4  -6   1    0.08    0.21
  -4   6  -2   98.18    2.43
   4  -6   2  102.35    2.51
   4  -6   2   93.62    3.18
   4  -6   2  100.87    3.08
  -4   6  -3   16.01    0.83
   4  -6   3   17.19    1.32
   4  -6   3   15.86    1.23
   4  -6   4    0.24    0.24
   4  -6   4    0.69    0.32
  -4   6  -4    0.67    0.16
  -4   6  -5    1.47    0.20
   4  -6   5    2.10    0.52
   4  -6   6    0.18    0.26
  -4   6  -6    0.49    0.10
   4  -6   7    1.64    0.47
   4  -6   8    0.44    0.32
   4  -6   9    0.11    0.32
   4  -6  10    1.73    0.58
   4  -6  11   14.97    1.54
   4  -6  12    3.28    0.77
   4  -6  13    4.97    0.96
   4  -6  14    3.27    0.89
   4  -5 -13    0.79    0.55
   4  -5 -12    2.50    0.79
   4  -5 -11    2.64    0.76
   4  -5 -10    1.73    0.62
   4  -5  -9    5.61    0.95
  -4   5   8   -0.04    0.13
   4  -5  -8   -0.27    0.40
   4  -5  -7    2.70    0.37
  -4   5   7    1.99    0.30
   4  -5  -7    1.34    0.47
   4  -5  -6    1.59    0.26
   4  -5  -6    2.17    0.56
  -4   5   6    2.25    0.39
   4  -5  -5   24.99    1.67
   4  -5  -5   25.14    1.02
  -4   5   5   24.32    1.26
  -4   5   4    0.11    0.15
   4  -5  -4   -0.15    0.26
   4  -5  -4   -0.03    0.11
  -4   5   3   85.13    2.86
   4  -5  -3   76.68    2.75
   4  -5  -3   81.71    1.96
  -4   5   3   73.28    2.32
   4  -5  -2    5.27    0.48
  -4   5   2    4.50    0.56
   4  -5  -2    6.37    0.74
  -4   5   2    4.63    0.62
   4  -5  -1   77.79    2.50
   4  -5  -1   75.55    2.03
   4  -5   0    4.91    0.51
   4  -5   0    4.89    0.60
  -4   5  -1   33.65    1.42
   4  -5   1   36.23    1.49
   4  -5   1   37.88    1.81
   4  -5   1   33.94    1.63
  -4   5  -2  116.10    2.69
   4  -5   2  124.73    3.44
   4  -5   2  116.83    3.31
   4  -5   3   -0.26    0.26
  -4   5  -3    0.24    0.13
   4  -5   3    0.14    0.23
  -4   5  -4   64.39    1.70
   4  -5   4   66.45    2.53
   4  -5   4   69.58    2.64
   4  -5   5    2.33    0.51
   4  -5   5    2.57    0.52
  -4   5  -5    3.17    0.33
  -4   5  -6    4.89    0.40
   4  -5   6    5.72    0.78
  -4   5  -7    5.11    0.40
   4  -5   7    6.52    0.85
  -4   5  -7    5.72    0.42
  -4   5  -8    0.55    0.15
   4  -5   8    0.74    0.38
  -4   5  -8    0.14    0.09
  -4   5  -9    0.91    0.19
   4  -5   9    0.24    0.29
  -4   5 -10    0.70    0.21
   4  -5  10    0.16    0.36
  -4   5 -11    6.65    0.56
   4  -5  11    6.11    0.92
   4  -5  12   -0.44    0.49
   4  -5  13    4.86    0.97
   4  -5  14    1.35    0.63
   4  -5  15    1.31    0.57
   4  -4 -13    1.14    0.60
   4  -4 -12   23.17    2.11
   4  -4 -11   -0.14    0.35
   4  -4 -10   11.92    1.43
   4  -4  -9    4.79    0.91
  -4   4   9    3.51    0.48
   4  -4  -8   17.19    1.55
   4  -4  -8   17.55    1.06
  -4   4   8   16.53    0.98
   4  -4  -7    0.23    0.32
   4  -4  -7    0.23    0.20
  -4   4   7    0.27    0.15
   4  -4  -6    3.48    0.43
   4  -4  -6    4.48    0.78
  -4   4   6    3.61    0.44
  -4   4   5    3.72    0.41
   4  -4  -5    3.78    0.42
   4  -4  -5    4.72    0.73
   4  -4  -4    0.56    0.33
   4  -4  -4    0.47    0.16
  -4   4   4    0.44    0.24
  -4   4   4    0.77    0.23
  -4   4   3    1.41    0.29
   4  -4  -3    1.94    0.30
  -4   4   3    1.68    0.41
   4  -4  -3    1.86    0.44
   4  -4  -2   13.66    1.05
   4  -4  -2   11.96    0.73
  -4   4   2   11.67    0.88
   4  -4  -1   15.03    1.04
   4  -4  -1   14.75    0.85
  -4   4   1   14.57    1.00
  -4   4   0   47.61    1.79
   4  -4   0   50.34    1.84
   4  -4   0   48.55    1.65
  -4   4  -1   44.09    1.64
   4  -4   1   46.63    1.69
   4  -4   1   43.80    1.79
  -4   4  -2   49.08    1.64
   4  -4   2   45.87    1.90
   4  -4   2   49.19    1.97
  -4   4  -3   24.05    1.07
   4  -4   3   26.77    1.44
   4  -4   3   25.22    1.44
   4  -4   4  106.43    3.04
   4  -4   4  102.11    3.14
  -4   4  -5   13.13    0.75
   4  -4   5   12.92    1.04
   4  -4   5   14.29    1.17
  -4   4  -6   62.56    2.39
  -4   4  -6   55.97    1.62
   4  -4   6   62.65    2.43
   4  -4   7   10.54    1.02
   4  -4   8   31.14    1.82
  -4   4  -8   31.38    1.23
  -4   4  -9    0.25    0.16
   4  -4   9   -0.50    0.44
  -4   4 -10    5.19    0.55
   4  -4  10    5.38    0.85
  -4   4 -11    0.03    0.15
   4  -4  11    0.11    0.40
  -4   4 -12   -0.08    0.16
   4  -4  12    0.41    0.44
  -4   4 -13    1.28    0.35
   4  -4  13    2.53    0.75
   4  -4  14    0.32    0.42
   4  -4  15    1.01    0.57
   4  -4  16   -0.52    0.47
   4  -3 -14    1.27    0.49
   4  -3 -13   -0.60    0.51
   4  -3 -12    8.89    1.31
   4  -3 -11    0.69    0.50
   4  -3 -10   24.15    1.97
  -4   3  10   23.69    1.36
   4  -3  -9    6.18    0.72
  -4   3   9    5.66    0.63
   4  -3  -9    4.57    0.90
   4  -3  -8  103.15    3.82
   4  -3  -8  107.24    2.95
  -4   3   8  103.29    2.77
   4  -3  -7    7.78    0.70
   4  -3  -7    7.76    1.01
  -4   3   7    7.14    0.65
   4  -3  -6    9.67    1.05
   4  -3  -6    9.96    0.76
  -4   3   6   10.29    0.76
   4  -3  -5    4.07    0.46
  -4   3   5    3.78    0.44
   4  -3  -5    4.01    0.65
  -4   3   4    2.75    0.38
  -4   3   4    2.91    0.52
   4  -3  -4    3.65    0.60
   4  -3  -4    3.24    0.40
  -4   3   3   37.04    1.77
   4  -3  -3   33.67    1.72
   4  -3  -3   34.88    1.30
  -4   3   3   32.53    1.28
   4  -3  -2    4.53    0.47
   4  -3  -2    5.62    0.67
  -4   3   2    4.95    0.57
  -4   3   1    0.39    0.19
   4  -3  -1    0.34    0.18
   4  -3  -1    0.09    0.22
  -4   3   0    0.49    0.16
   4  -3   0    0.33    0.18
   4  -3   0    0.56    0.22
  -4   3   0    0.41    0.21
  -4   3  -1   14.85    0.92
   4  -3   1   16.17    0.98
   4  -3   1   15.65    0.94
  -4   3  -1   15.07    1.04
  -4   3  -2   47.32    1.64
   4  -3   2   47.96    1.79
   4  -3   2   48.90    1.92
  -4   3  -3   59.14    1.80
   4  -3   3   63.31    2.12
   4  -3   3   65.59    2.29
  -4   3  -4  176.67    3.41
   4  -3   4  185.59    3.97
   4  -3   4  177.04    4.20
  -4   3  -5   22.33    1.28
  -4   3  -5   20.21    1.01
   4  -3   5   24.49    1.36
   4  -3   5   21.38    1.38
  -4   3  -6  138.03    3.52
   4  -3   6  132.84    3.52
   4  -3   6  136.05    3.86
  -4   3  -7    0.52    0.23
   4  -3   7    0.43    0.19
  -4   3  -8    9.84    0.95
   4  -3   8   10.76    1.03
  -4   3  -8    9.49    0.73
   4  -3   9    6.90    0.85
  -4   3  -9    6.44    0.63
  -4   3 -10   14.11    0.98
   4  -3  10   15.83    1.35
  -4   3 -11   12.21    0.95
   4  -3  11   12.72    1.27
  -4   3 -12    0.13    0.19
   4  -3  12    0.17    0.35
  -4   3 -13    9.40    0.94
   4  -3  13   10.18    1.26
  -4   3 -14    1.39    0.41
   4  -3  14    0.38    0.38
   4  -3  15   -0.52    0.60
   4  -3  16    0.31    0.36
   4  -2 -14   -0.37    0.59
   4  -2 -13    2.68    0.78
   4  -2 -12    1.13    0.55
   4  -2 -11    0.29    0.30
  -4   2  10    2.78    0.51
   4  -2 -10    2.31    0.60
   4  -2  -9    2.64    0.62
  -4   2   9    2.36    0.46
   4  -2  -9    2.06    0.46
   4  -2  -8   10.08    1.14
   4  -2  -8    9.69    0.88
  -4   2   8    9.76    0.84
  -4   2   7    1.39    0.31
   4  -2  -7    2.44    0.43
   4  -2  -7    2.59    0.60
   4  -2  -6  119.82    3.79
   4  -2  -6  122.21    3.06
  -4   2   6  124.01    2.99
  -4   2   5   93.55    3.11
   4  -2  -5   88.73    3.07
   4  -2  -5   87.57    2.41
  -4   2   5   87.31    2.37
  -4   2   4    3.24    0.42
   4  -2  -4    3.12    0.55
   4  -2  -4    3.77    0.47
   4  -2  -3   27.13    1.51
   4  -2  -3   26.38    1.16
  -4   2   3   27.29    1.19
   4  -2  -2    8.29    0.80
   4  -2  -2    7.84    0.61
  -4   2   2    8.92    0.67
  -4   2   1    3.32    0.48
   4  -2  -1    3.03    0.51
   4  -2  -1    3.41    0.41
  -4   2   1    2.44    0.40
  -4   2   0   15.84    1.00
   4  -2   0   16.54    1.02
   4  -2   0   16.96    0.93
  -4   2   0   15.77    0.99
   4  -2   1    1.10    0.27
  -4   2  -1    0.83    0.22
  -4   2  -1    1.11    0.28
  -4   2  -2    0.15    0.16
   4  -2   2    1.08    0.25
  -4   2  -2    1.01    0.25
   4  -2   2    1.07    0.29
  -4   2  -3   82.75    2.23
   4  -2   3   85.11    2.30
   4  -2   4   15.68    0.96
  -4   2  -5   31.54    1.43
   4  -2   5   31.88    1.44
  -4   2  -6   29.78    1.43
   4  -2   6   30.52    1.48
  -4   2  -7    9.13    0.83
   4  -2   7    9.20    0.86
   4  -2   7    9.50    0.97
  -4   2  -8   81.39    2.70
   4  -2   8   84.03    2.79
  -4   2  -9    7.02    0.81
   4  -2   9    8.28    0.90
  -4   2  -9    7.53    0.74
  -4   2 -10    5.45    0.66
   4  -2  10    6.86    0.89
  -4   2 -11    0.50    0.29
   4  -2  11    1.06    0.46
  -4   2 -12    0.99    0.31
   4  -2  12    1.03    0.45
  -4   2 -13    3.09    0.59
   4  -2  13    2.47    0.69
  -4   2 -14    0.34    0.32
   4  -2  14   -0.14    0.29
  -4   2 -15    1.41    0.45
   4  -2  15    3.14    0.83
   4  -2  16    0.09    0.36
   4  -2  17   -0.11    0.38
   4  -1 -14    0.02    0.40
   4  -1 -13    0.81    0.55
   4  -1 -12   -0.21    0.45
   4  -1 -11    3.18    0.75
   4  -1 -10    8.93    1.17
   4  -1  -9    7.37    0.88
  -4   1   9    7.00    0.79
   4  -1  -9    6.88    1.02
   4  -1  -8   11.61    1.21
   4  -1  -8   11.99    1.01
  -4   1   8   11.46    0.96
   4  -1  -7   19.29    1.51
   4  -1  -7   19.16    1.23
  -4   1   7   19.71    1.20
   4  -1  -6  117.55    3.72
   4  -1  -6  121.50    3.18
   4  -1  -6  126.29    3.73
  -4   1   6  124.46    3.11
  -4   1   5   15.29    1.20
   4  -1  -5   15.93    1.26
   4  -1  -5   16.05    1.02
   4  -1  -5   16.66    1.23
  -4   1   5   14.73    0.95
   4  -1  -4   45.37    2.02
   4  -1  -4   42.95    1.63
  -4   1   4   46.65    1.67
   4  -1  -3   42.72    1.89
   4  -1  -3   44.60    1.60
  -4   1   3   43.93    1.58
   4  -1  -2  211.69    4.43
   4  -1  -2  203.75    3.83
  -4   1   2  202.99    3.85
   4  -1  -1   38.61    1.65
  -4   1   1   37.79    1.43
   4  -1  -1   38.64    1.44
   4  -1   0    0.88    0.26
  -4   1   0    0.42    0.17
   4  -1   0    0.58    0.24
  -4   1   0    0.89    0.27
  -4   1  -1   52.71    1.82
   4  -1   1   53.03    1.77
  -4   1  -1   51.19    1.83
  -4   1  -2   58.31    1.90
   4  -1   2   58.57    1.68
  -4   1  -2   60.44    2.03
   4  -1   2   58.36    1.92
   4  -1   3    0.18    0.11
  -4   1  -3    0.28    0.14
   4  -1   4   15.59    0.88
  -4   1  -5    6.74    0.60
   4  -1   5    6.50    0.59
  -4   1  -6   17.09    1.00
   4  -1   6   16.23    1.00
  -4   1  -7    6.04    0.63
   4  -1   7    6.00    0.64
   4  -1   7    7.78    0.85
  -4   1  -8   19.95    1.23
   4  -1   8   18.77    1.22
   4  -1   8   20.63    1.42
  -4   1  -9   21.41    1.35
   4  -1   9   20.36    1.36
  -4   1  -9   19.89    1.24
  -4   1 -10   67.45    2.60
   4  -1  10   69.80    2.70
  -4   1 -10   65.06    2.42
  -4   1 -11    1.63    0.47
   4  -1  11    1.17    0.47
  -4   1 -12   61.42    2.56
   4  -1  12   58.95    2.77
   4  -1  13    3.00    0.71
  -4   1 -13    5.21    0.79
  -4   1 -14    2.31    0.53
   4  -1  14    2.38    0.63
  -4   1 -15    0.14    0.32
   4  -1  15    0.18    0.38
  -4   1 -16    0.46    0.34
   4  -1  16   -0.28    0.43
   4  -1  17    1.18    0.62
   4   0 -15    0.67    0.51
   4   0 -14   -0.35    0.38
   4   0 -13   -0.24    0.52
   4   0 -12   -0.19    0.38
   4   0 -11    0.80    0.47
   4   0 -10    0.01    0.26
   4   0 -10    0.33    0.36
   4   0  -9    0.78    0.42
   4   0  -9    1.53    0.48
  -4   0   8    4.56    0.64
   4   0  -8    5.07    0.74
   4   0  -8    4.62    0.78
   4   0  -7   18.33    1.44
   4   0  -7   20.45    1.33
  -4   0   7   20.71    1.28
  -4   0   6   58.33    2.44
   4   0  -6   57.79    2.48
  -4   0   6   58.12    2.12
   4   0  -6   57.04    2.16
   4   0  -6   62.93    2.52
  -4   0   5   13.04    1.09
   4   0  -5   13.32    1.14
   4   0  -5   13.69    1.09
   4   0  -5   12.39    0.94
  -4   0   5   13.91    0.97
   4   0  -4  119.52    3.41
   4   0  -4  122.12    3.05
  -4   0   4  127.31    3.03
   4   0  -3    2.55    0.46
  -4   0   3    2.62    0.41
   4   0  -3    3.20    0.45
   4   0  -3    3.14    0.46
   4   0  -2  115.74    3.11
   4   0  -2  113.95    2.73
  -4   0   2  113.42    2.73
   4   0  -1   27.34    1.39
  -4   0   1   28.48    1.26
   4   0  -1   29.73    1.27
   4   0   0   30.03    1.28
  -4   0   0   29.86    1.28
  -4   0  -1  124.93    2.98
   4   0   1  121.73    2.84
   4   0   2   32.53    1.08
  -4   0  -2   31.20    1.40
   4   0   3   28.00    1.01
  -4   0  -3   29.62    1.39
   4   0   4    0.04    0.11
  -4   0  -5    2.78    0.35
   4   0   5    2.63    0.35
  -4   0  -6    3.40    0.41
   4   0   6    2.83    0.39
   4   0   7    0.60    0.22
  -4   0  -7    0.20    0.16
   4   0   7    0.53    0.24
  -4   0  -8   24.29    1.29
   4   0   8   23.97    1.31
   4   0   8   22.73    1.46
  -4   0  -9   27.33    1.46
   4   0   9   26.08    1.49
   4   0   9   29.47    1.73
  -4   0  -9   28.63    1.58
   4   0  10   35.49    1.87
  -4   0 -10   35.85    1.79
  -4   0 -10   38.04    1.89
  -4   0 -11    0.02    0.21
   4   0  11   -0.25    0.26
  -4   0 -12    1.80    0.47
   4   0  12    3.03    0.66
  -4   0 -13    5.21    0.82
   4   0  13    6.49    0.95
  -4   0 -14   16.94    1.49
   4   0  14   16.06    1.54
  -4   0 -15    1.87    0.55
   4   0  15    2.96    0.72
  -4   0 -16    9.42    1.23
   4   0  16    8.97    1.26
  -4   0 -17    0.04    0.36
   4   0  17    0.19    0.34
   4   0  18   -0.06    0.29
   4   1 -15    2.37    0.70
   4   1 -14    2.00    0.70
   4   1 -13    2.38    0.67
   4   1 -12    1.93    0.63
   4   1 -11    4.55    0.86
   4   1 -10    2.33    0.57
   4   1 -10    1.73    0.58
   4   1  -9    8.93    1.03
   4   1  -9    8.20    1.04
   4   1  -8    0.90    0.35
   4   1  -8    1.84    0.53
  -4  -1   7    2.48    0.48
   4   1  -7    2.77    0.55
   4   1  -7    2.91    0.59
  -4  -1   6    2.83    0.49
   4   1  -6    2.59    0.49
  -4  -1   6    2.34    0.47
   4   1  -6    2.88    0.59
   4   1  -6    2.60    0.57
  -4  -1   5    3.46    0.52
   4   1  -5    4.79    0.62
   4   1  -5    3.66    0.60
  -4  -1   5    3.34    0.56
   4   1  -5    4.66    0.65
  -4  -1   4   48.83    2.04
   4   1  -4   48.58    2.05
   4   1  -4   44.73    1.80
  -4  -1   4   46.46    1.80
   4   1  -3   26.53    1.45
   4   1  -3   28.35    1.37
   4   1  -3   29.54    1.38
  -4  -1   3   28.55    1.35
   4   1  -2   97.71    2.83
   4   1  -2   96.89    2.58
   4   1  -2   98.59    2.45
  -4  -1   2   98.47    2.56
   4   1  -1   10.13    0.77
   4   1  -1   11.12    0.70
  -4  -1   1   10.88    0.77
  -4  -1   0  129.39    2.97
  -4  -1  -1    4.74    0.51
   4   1   2    0.74    0.13
  -4  -1  -2    0.41    0.18
   4   1   3   53.62    1.23
  -4  -1  -3   55.61    1.89
  -4  -1  -4    0.34    0.22
   4   1   4    0.11    0.11
  -4  -1  -5   60.49    1.54
   4   1   5   61.27    1.58
  -4  -1  -6    0.06    0.11
   4   1   6    0.02    0.15
  -4  -1  -7    0.15    0.16
   4   1   7    0.24    0.18
   4   1   8    0.49    0.27
   4   1   8    0.20    0.21
  -4  -1  -8    0.17    0.13
   4   1   9    2.48    0.50
  -4  -1  -9    1.00    0.36
  -4  -1  -9    1.77    0.38
   4   1   9    2.10    0.44
   4   1  10   -0.20    0.28
  -4  -1 -10    0.19    0.31
  -4  -1 -10    0.15    0.16
   4   1  10    0.11    0.27
   4   1  11    2.74    0.62
  -4  -1 -11    2.65    0.59
  -4  -1 -11    3.79    0.59
   4   1  11    2.13    0.50
   4   1  12    5.87    0.85
  -4  -1 -12    5.63    0.83
   4   1  12    6.94    0.88
  -4  -1 -13   15.78    1.42
   4   1  13   17.33    1.48
   4   1  13   17.48    1.53
  -4  -1 -14   16.14    1.51
   4   1  14   16.09    1.50
   4   1  14   14.38    1.42
   4   1  15    1.19    0.47
  -4  -1 -15    1.37    0.57
   4   1  15    1.71    0.58
  -4  -1 -16   13.35    1.49
   4   1  16   11.06    1.37
   4   1  16   13.99    1.49
   4   1  17   -0.20    0.45
  -4  -1 -17    0.24    0.37
   4   1  18    3.97    0.86
  -4  -1 -18    5.81    1.08
   4   2 -15   -0.18    0.40
   4   2 -14    5.81    1.04
   4   2 -13    3.39    0.79
   4   2 -12    3.79    0.80
   4   2 -11   10.03    1.22
   4   2 -10    0.47    0.35
   4   2 -10   -0.03    0.30
   4   2  -9    9.87    1.15
   4   2  -9    9.96    1.11
   4   2  -8    0.04    0.23
   4   2  -8    0.42    0.41
   4   2  -7    2.05    0.51
   4   2  -7    1.72    0.46
  -4  -2   6    4.49    0.62
   4   2  -6    4.84    0.67
  -4  -2   6    4.95    0.70
   4   2  -6    4.09    0.63
   4   2  -6    5.01    0.72
   4   2  -5    1.49    0.39
  -4  -2   5    1.88    0.40
   4   2  -5    2.68    0.51
  -4  -2   5    2.31    0.46
   4   2  -5    2.80    0.53
  -4  -2   4   38.61    1.80
   4   2  -4   38.45    1.82
   4   2  -4   39.10    1.75
  -4  -2   4   39.49    1.72
  -4  -2   3   27.19    1.45
   4   2  -3   25.02    1.41
   4   2  -3   24.40    1.31
   4   2  -3   24.31    1.22
  -4  -2   3   24.28    1.29
  -4  -2   2   77.25    2.46
  -4  -2   2   78.71    2.32
   4   2  -2   73.41    2.04
   4   2  -1   14.39    0.76
  -4  -2   1   15.16    0.95
  -4  -2   0  112.71    2.74
   4   2   0  103.56    2.02
  -4  -2  -1    1.20    0.29
   4   2   1    1.21    0.15
   4   2   2   56.97    0.98
  -4  -2  -2   61.46    1.96
   4   2   3    7.09    0.28
  -4  -2  -3    6.90    0.63
  -4  -2  -4    1.12    0.26
   4   2   4    1.36    0.15
  -4  -2  -5   22.20    0.77
   4   2   5   21.75    0.80
  -4  -2  -6    3.16    0.34
   4   2   6    2.27    0.31
   4   2   7   10.63    0.72
  -4  -2  -7   11.98    0.74
  -4  -2  -8    2.75    0.40
   4   2   8    2.04    0.36
  -4  -2  -9   25.64    1.31
   4   2   9   22.51    1.28
   4   2   9   23.79    1.44
  -4  -2  -9   24.04    1.58
   4   2  10    0.69    0.30
  -4  -2 -10    0.85    0.38
  -4  -2 -10    0.96    0.33
   4   2  10    0.81    0.34
  -4  -2 -11   16.34    1.20
   4   2  11   14.88    1.18
   4   2  11   15.83    1.26
  -4  -2 -11   15.22    1.33
   4   2  12   -0.02    0.21
  -4  -2 -12    0.25    0.27
   4   2  12   -0.06    0.35
   4   2  13    0.63    0.32
  -4  -2 -13    0.75    0.35
   4   2  13    0.33    0.32
   4   2  14    8.22    1.04
  -4  -2 -14    6.46    1.02
   4   2  15    4.50    0.83
  -4  -2 -15    5.25    0.95
   4   2  16    8.52    1.15
  -4  -2 -16    7.50    1.21
   4   2  17    2.06    0.60
  -4  -2 -17    2.27    0.69
  -4  -2 -18    2.72    0.82
   4   3 -16    1.40    0.61
   4   3 -15    0.88    0.49
   4   3 -14    4.47    0.92
   4   3 -13   -0.01    0.35
   4   3 -12    5.21    0.91
   4   3 -11    0.57    0.40
   4   3 -10    6.91    0.97
   4   3 -10    7.76    1.05
   4   3  -9   10.07    1.13
   4   3  -9    9.46    1.10
  -4  -3   9    9.73    1.16
   4   3  -8   -0.05    0.33
   4   3  -8    0.67    0.36
  -4  -3   8   -0.07    0.28
  -4  -3   7   23.77    1.54
   4   3  -7   21.16    1.50
   4   3  -7   21.46    1.55
  -4  -3   7   21.57    1.53
   4   3  -6    7.40    0.87
  -4  -3   6    6.73    0.79
   4   3  -6    7.59    0.87
   4   3  -6    5.87    0.74
  -4  -3   6    6.72    0.81
  -4  -3   5    9.38    0.90
   4   3  -5    8.93    0.91
   4   3  -5   10.00    0.95
  -4  -3   5    9.12    0.87
   4   3  -5    9.83    0.90
  -4  -3   5    9.71    0.89
  -4  -3   4    6.94    0.75
   4   3  -4    4.60    0.64
  -4  -3   4    5.90    0.68
   4   3  -4    5.71    0.70
  -4  -3   4    6.53    0.69
  -4  -3   3   12.77    0.99
   4   3  -3   11.58    0.82
  -4  -3   3   12.98    0.97
  -4  -3   3   12.66    0.88
  -4  -3   2   12.76    0.97
   4   3  -2   10.59    0.71
  -4  -3   2   12.34    0.91
  -4  -3   1    8.69    0.79
   4   3  -1    8.16    0.55
  -4  -3   1    8.50    0.72
   4   3   0   41.80    1.09
  -4  -3   0   44.87    1.69
   4   3   1   83.03    1.34
  -4  -3  -1   92.14    2.47
  -4  -3  -2   88.92    2.46
  -4  -3  -3   26.85    1.25
  -4  -3  -4  272.81    4.84
  -4  -3  -5   42.27    0.99
  -4  -3  -5   45.24    1.71
  -4  -3  -6   93.40    1.92
  -4  -3  -7    6.01    0.50
  -4  -3  -8   24.22    1.13
  -4  -3  -9   11.47    0.84
  -4  -3  -9    8.96    0.99
   4   3  10    4.39    0.61
  -4  -3 -10    4.22    0.71
  -4  -3 -10    4.88    0.60
   4   3  11    6.32    0.78
  -4  -3 -11    6.90    0.93
  -4  -3 -11    7.10    0.79
   4   3  12    1.39    0.42
  -4  -3 -12    1.79    0.58
   4   3  13    1.79    0.44
  -4  -3 -13    1.96    0.59
   4   3  14    0.48    0.32
  -4  -3 -14   -0.02    0.34
   4   3  15    5.82    0.87
  -4  -3 -15    6.35    1.08
   4   3  16    0.32    0.26
  -4  -3 -16   -0.28    0.52
  -4  -3 -17    1.81    0.69
   4   4 -15    1.24    0.57
   4   4 -14    0.62    0.43
   4   4 -13    0.28    0.33
   4   4 -12    5.95    0.95
  -4  -4  12    6.88    1.12
   4   4 -11    1.45    0.50
  -4  -4  11    1.56    0.61
   4   4 -10   14.31    1.50
   4   4 -10   12.54    1.30
  -4  -4  10   10.84    1.28
   4   4  -9    1.28    0.56
   4   4  -9    1.82    0.48
  -4  -4   9    1.95    0.58
   4   4  -8   14.05    1.31
   4   4  -8   12.26    1.18
  -4  -4   8   12.32    1.25
  -4  -4   7   19.98    1.41
   4   4  -7   19.70    1.43
   4   4  -7   19.74    1.49
  -4  -4   7   19.39    1.46
   4   4  -6   -0.03    0.29
  -4  -4   6    0.92    0.34
   4   4  -6    0.79    0.31
   4   4  -6    0.79    0.38
  -4  -4   6    1.31    0.39
   4   4  -5    5.48    0.75
  -4  -4   5    4.54    0.62
   4   4  -5    4.54    0.61
  -4  -4   5    4.29    0.63
  -4  -4   4    6.00    0.69
  -4  -4   4    7.42    0.78
  -4  -4   4    6.98    0.74
   4   4  -4    6.55    0.78
  -4  -4   3   10.98    0.92
   4   4  -3   11.26    0.82
  -4  -4   3   12.65    0.99
  -4  -4   3   12.05    0.87
  -4  -4   2   43.04    1.82
   4   4  -2   36.35    1.36
  -4  -4   2   40.56    1.75
  -4  -4   2   37.30    1.41
  -4  -4   1   25.50    1.37
  -4  -4   1   24.75    1.00
   4   4  -1   22.81    0.94
  -4  -4   1   23.35    1.26
   4   4   0   13.75    0.60
  -4  -4   0   13.72    0.95
  -4  -4   0   15.10    0.65
   4   4   1   30.05    0.71
  -4  -4  -1   31.31    1.42
  -4  -4  -2   39.87    1.60
  -4  -4  -3   11.85    0.87
  -4  -4  -4   44.48    1.64
  -4  -4  -5   14.86    0.51
  -4  -4  -5   15.87    0.97
  -4  -4  -6   63.50    1.46
  -4  -4  -7    8.77    0.59
  -4  -4  -8   58.09    1.78
   4   4   8   55.23    2.16
  -4  -4  -9    4.75    0.76
  -4  -4  -9    4.19    0.51
  -4  -4 -10    5.65    0.84
  -4  -4 -10    6.60    0.70
  -4  -4 -11   10.52    0.95
   4   4  11   10.31    0.93
  -4  -4 -11   11.23    1.25
   4   4  12    3.02    0.54
  -4  -4 -12    3.50    0.79
   4   4  13    5.64    0.76
  -4  -4 -13    6.44    1.04
   4   4  14    0.39    0.27
  -4  -4 -14    0.72    0.46
   4   4  15   -0.20    0.20
  -4  -4 -15    0.33    0.38
  -4  -4 -16    0.25    0.39
  -4  -4 -17    3.12    0.94
   4   5 -14    0.66    0.45
   4   5 -13    1.07    0.51
  -4  -5  13    1.83    0.68
   4   5 -12    2.34    0.65
  -4  -5  12    1.90    0.67
   4   5 -11    1.61    0.50
  -4  -5  11    0.99    0.47
   4   5 -10   21.54    1.85
   4   5 -10   19.80    1.59
  -4  -5  10   19.26    1.71
   4   5  -9    7.21    1.10
   4   5  -9    9.70    1.07
  -4  -5   9    8.46    1.11
   4   5  -8   41.56    2.39
   4   5  -8   39.50    2.12
  -4  -5   8   40.31    2.29
  -4  -5   7   15.25    1.22
   4   5  -7   12.80    1.29
  -4  -5   7   15.67    1.35
  -4  -5   6   28.96    1.63
   4   5  -6   29.42    1.86
  -4  -5   6   30.88    1.77
  -4  -5   5    9.77    0.91
   4   5  -5    9.42    1.00
   4   5  -5    8.70    0.86
  -4  -5   5    8.65    0.89
  -4  -5   4   21.97    1.35
   4   5  -4   21.54    1.44
  -4  -5   4   19.62    1.24
  -4  -5   3   57.05    2.17
   4   5  -3   58.41    2.33
   4   5  -3   51.38    1.85
  -4  -5   3   54.71    2.18
  -4  -5   3   53.64    1.93
  -4  -5   2    0.72    0.25
   4   5  -2    0.56    0.20
  -4  -5   2    0.60    0.24
  -4  -5   2    0.33    0.19
  -4  -5   1    0.99    0.24
   4   5  -1    1.04    0.21
  -4  -5   1    1.60    0.37
  -4  -5   1    1.51    0.29
   4   5   0    2.43    0.28
  -4  -5   0    3.09    0.47
  -4  -5   0    2.85    0.31
  -4  -5  -1   17.59    0.64
  -4  -5  -1   17.75    1.09
  -4  -5  -2    2.17    0.17
  -4  -5  -2    1.57    0.35
  -4  -5  -3   22.59    1.22
  -4  -5  -4   21.09    1.10
  -4  -5  -5   25.97    0.75
  -4  -5  -5   24.53    1.20
  -4  -5  -6   81.20    1.74
  -4  -5  -6   79.66    2.29
  -4  -5  -7    9.72    0.63
  -4  -5  -8   59.24    1.81
   4   5   8   57.06    2.14
  -4  -5  -8   56.36    2.60
   4   5   9    0.46    0.21
  -4  -5  -9   -0.06    0.22
  -4  -5  -9    0.41    0.19
   4   5  10   17.09    1.24
  -4  -5 -10   19.30    1.60
  -4  -5 -11   12.29    1.01
   4   5  11   11.14    1.04
  -4  -5 -11   10.72    1.24
  -4  -5 -12   12.89    1.42
   4   5  12   16.36    1.15
  -4  -5 -13    7.27    1.08
   4   5  13    9.03    0.89
  -4  -5 -14    1.33    0.58
   4   5  14    0.56    0.27
  -4  -5 -15    7.29    1.18
  -4  -5 -16   -0.17    0.32
   4   6 -13    0.32    0.32
  -4  -6  13    0.47    0.34
   4   6 -12    3.45    0.73
  -4  -6  12    2.51    0.82
  -4  -6  11    6.00    1.14
   4   6 -11    5.49    0.87
  -4  -6  10   11.01    1.37
  -4  -6   9    3.79    0.81
   4   6  -9    4.79    0.93
   4   6  -8   14.41    1.56
  -4  -6   8   16.79    1.49
   4   6  -7    0.29    0.33
  -4  -6   7    0.21    0.26
  -4  -6   7   -0.14    0.34
  -4  -6   6   33.15    1.76
   4   6  -6   33.49    2.07
  -4  -6   6   35.73    1.97
  -4  -6   5   12.45    1.03
   4   6  -5    9.94    1.04
   4   6  -5   10.20    0.95
  -4  -6   5    9.82    0.99
  -4  -6   4   11.40    0.98
   4   6  -4    8.90    0.96
   4   6  -4    9.56    0.86
  -4  -6   4   10.11    0.92
  -4  -6   3   36.94    1.76
   4   6  -3   37.91    1.95
  -4  -6   3   36.08    1.62
  -4  -6   2    9.93    0.90
   4   6  -2   10.14    0.96
   4   6  -2    8.63    0.71
  -4  -6   2   10.46    0.80
  -4  -6   2    8.92    0.86
   4   6  -1   76.83    2.61
   4   6  -1   75.33    2.01
  -4  -6   1   75.74    2.06
  -4  -6   1   79.07    2.60
   4   6   0    5.10    0.64
   4   6   0    4.34    0.40
  -4  -6   0    4.74    0.44
  -4  -6   0    4.90    0.61
  -4  -6  -1   16.69    0.72
  -4  -6  -1   14.68    1.02
  -4  -6  -2   11.26    0.52
  -4  -6  -2   10.09    0.83
  -4  -6  -3    1.07    0.28
  -4  -6  -3    0.33    0.09
  -4  -6  -4    0.64    0.12
  -4  -6  -4    0.38    0.20
  -4  -6  -5    4.58    0.36
  -4  -6  -5    4.69    0.52
  -4  -6  -6    5.98    0.46
  -4  -6  -6    5.77    0.57
  -4  -6  -7    9.26    0.64
  -4  -6  -8   39.76    1.49
  -4  -6  -8   36.29    2.15
  -4  -6  -9    0.71    0.40
   4   6   9    0.22    0.16
  -4  -6  -9    0.92    0.30
  -4  -6 -10   10.76    0.90
   4   6  10    9.47    0.89
  -4  -6 -10    9.61    1.16
  -4  -6 -11    2.22    0.64
   4   6  11    1.60    0.40
  -4  -6 -11    1.90    0.42
  -4  -6 -12   28.05    2.13
   4   6  12   23.90    1.57
   4   6  13    6.96    0.85
  -4  -6 -13    8.26    1.20
  -4  -6 -14    2.22    0.78
   4   6  14    1.79    0.50
  -4  -6 -15    4.69    0.98
  -4  -7  12    3.37    0.92
  -4  -7  11    0.36    0.41
  -4  -7  10    0.78    0.55
   4   7  -9    2.85    0.78
  -4  -7   9    3.23    0.76
   4   7  -8    1.93    0.59
  -4  -7   8    1.92    0.52
   4   7  -7    0.00    0.24
  -4  -7   7    0.38    0.26
  -4  -7   7    0.02    0.28
   4   7  -6    9.14    1.09
  -4  -7   6    8.65    0.87
  -4  -7   6    7.05    0.89
   4   7  -5    0.89    0.40
  -4  -7   5    1.06    0.34
  -4  -7   5    1.17    0.37
  -4  -7   4   67.42    2.46
   4   7  -4   68.46    2.81
   4   7  -4   61.33    2.35
  -4  -7   4   67.96    2.52
  -4  -7   3   18.44    1.24
   4   7  -3   18.25    1.38
  -4  -7   3   18.24    1.21
  -4  -7   2   52.14    2.14
   4   7  -2   54.07    2.32
  -4  -7   2   48.96    1.85
   4   7  -1   24.19    1.16
   4   7  -1   24.02    1.48
  -4  -7   1   25.03    1.20
  -4  -7   1   24.75    1.46
   4   7   0    0.12    0.11
   4   7   0    0.45    0.25
  -4  -7   0    0.25    0.22
  -4  -7   0    0.10    0.12
   4   7   1   40.65    1.80
  -4  -7  -1   37.72    1.28
  -4  -7  -1   40.99    1.79
  -4  -7  -2    8.16    0.53
  -4  -7  -2    8.36    0.78
  -4  -7  -3   27.56    0.95
  -4  -7  -3   27.22    1.40
  -4  -7  -4    0.01    0.08
  -4  -7  -4   -0.18    0.18
  -4  -7  -5    2.05    0.35
  -4  -7  -5    1.19    0.20
  -4  -7  -6   16.06    0.82
  -4  -7  -6   16.43    0.93
  -4  -7  -7   33.16    1.30
  -4  -7  -7   28.70    1.92
  -4  -7  -8   17.74    1.03
  -4  -7  -8   18.78    1.58
   4   7   9    3.26    0.53
  -4  -7  -9    1.83    0.51
  -4  -7  -9    3.38    0.47
  -4  -7 -10    4.01    0.78
   4   7  10    4.39    0.60
  -4  -7 -10    5.02    0.62
  -4  -7 -11   -0.17    0.36
   4   7  11    0.18    0.20
  -4  -7 -12    4.57    0.89
   4   7  12    3.75    0.61
  -4  -7 -13   -0.09    0.42
   4   7  13    0.05    0.21
  -4  -7 -14   11.27    1.52
  -4  -7 -15    0.76    0.48
  -4  -8  12    1.36    0.75
  -4  -8  11    1.14    0.64
  -4  -8  10    7.45    1.18
  -4  -8   9    0.28    0.39
  -4  -8   8    1.28    0.54
   4   8  -8    0.68    0.42
   4   8  -7   -0.26    0.33
  -4  -8   7    0.41    0.28
  -4  -8   7   -0.13    0.28
  -4  -8   6   17.28    1.25
   4   8  -6   15.63    1.49
  -4  -8   6   15.40    1.37
   4   8  -5    0.85    0.37
  -4  -8   5    1.64    0.43
  -4  -8   5    0.74    0.35
  -4  -8   4   30.21    1.64
   4   8  -4   30.20    1.91
   4   8  -4   30.11    1.67
  -4  -8   4   32.86    1.78
  -4  -8   3    7.48    0.80
   4   8  -3    7.47    0.93
   4   8  -3    8.03    0.81
  -4  -8   3    8.35    0.86
  -4  -8   2   25.27    1.50
   4   8  -2   25.92    1.65
  -4  -8   2   25.67    1.38
   4   8  -1   13.17    1.14
  -4  -8   1   12.08    0.88
   4   8   0   23.60    1.47
  -4  -8   0   22.68    1.14
  -4  -8   0   20.67    1.33
   4   8   1   16.42    1.18
  -4  -8  -1   16.04    0.90
  -4  -8  -1   17.79    1.19
   4   8   2   15.52    1.12
  -4  -8  -2   15.75    0.85
  -4  -8  -2   18.39    1.19
   4   8   3   24.47    1.37
  -4  -8  -3   22.61    1.00
  -4  -8  -3   24.94    1.38
  -4  -8  -4    0.19    0.17
  -4  -8  -4   -0.02    0.13
  -4  -8  -5   13.48    0.77
  -4  -8  -5   14.03    0.88
  -4  -8  -6    0.60    0.19
  -4  -8  -7    9.62    1.15
  -4  -8  -7   10.03    0.75
  -4  -8  -8    4.60    0.83
  -4  -8  -8    5.06    0.58
  -4  -8  -9    7.93    1.09
  -4  -8  -9    7.95    0.75
   4   8   9    8.04    0.77
  -4  -8 -10    7.98    1.15
   4   8  10    7.43    0.76
  -4  -8 -11   10.39    1.33
   4   8  11    9.31    0.86
   4   8  12    3.26    0.53
  -4  -8 -12    2.59    0.75
  -4  -8 -13   11.32    1.45
  -4  -8 -14   11.92    1.61
  -4  -9  11    6.15    1.13
  -4  -9  10   -0.02    0.49
  -4  -9   9    2.07    0.64
   4   9  -8   -0.08    0.43
  -4  -9   8    0.67    0.35
  -4  -9   7   -0.21    0.35
   4   9  -7    0.03    0.43
   4   9  -6    1.35    0.57
  -4  -9   6    1.87    0.55
   4   9  -5    1.96    0.50
  -4  -9   5    2.13    0.43
  -4  -9   5    2.23    0.55
   4   9  -4    0.48    0.30
  -4  -9   4    0.31    0.24
  -4  -9   4   -0.32    0.36
   4   9  -3    8.92    1.03
  -4  -9   3    9.51    0.93
   4   9  -3   10.60    0.98
  -4  -9   3   10.35    1.01
  -4  -9   2   11.09    1.02
   4   9  -2   11.31    1.13
   4   9  -2   10.75    0.92
  -4  -9   2   11.19    0.97
   4   9  -1   -0.09    0.23
  -4  -9   1    0.23    0.18
   4   9   0   20.36    1.43
  -4  -9   0   19.43    1.15
   4   9   1   -0.14    0.26
  -4  -9  -1    0.06    0.17
  -4  -9  -1    0.27    0.26
   4   9   2   35.52    1.76
  -4  -9  -2   34.34    1.42
  -4  -9  -2   35.82    1.73
   4   9   3   13.33    1.04
  -4  -9  -3   13.48    0.85
  -4  -9  -3   12.67    0.99
   4   9   4   60.86    2.22
  -4  -9  -4   60.76    1.86
  -4  -9  -4   61.54    2.24
  -4  -9  -5   16.65    0.94
   4   9   5   18.05    1.15
  -4  -9  -5   19.38    1.02
  -4  -9  -6    7.66    1.02
  -4  -9  -6    8.79    0.70
  -4  -9  -6    8.92    0.66
  -4  -9  -7   42.08    1.66
  -4  -9  -7   41.37    2.44
  -4  -9  -8    0.64    0.49
  -4  -9  -9    4.31    0.85
  -4  -9 -10    2.33    0.68
   4   9  10    3.52    0.53
  -4  -9 -11    0.34    0.36
  -4  -9 -12    3.73    0.86
  -4  -9 -13    3.40    0.84
  -4 -10  11    3.96    0.98
  -4 -10  10   -0.16    0.43
  -4 -10   9    8.25    1.23
  -4 -10   8   -0.34    0.29
   4  10  -7    7.92    1.17
  -4 -10   7    7.16    1.07
  -4 -10   6    1.44    0.53
   4  10  -6    0.00    0.27
   4  10  -5    0.49    0.35
  -4 -10   5    1.69    0.53
   4  10  -4    3.93    0.77
  -4 -10   4    4.39    0.66
  -4 -10   4    3.30    0.68
   4  10  -3   -0.30    0.31
  -4 -10   3    0.52    0.27
  -4 -10   3   -0.11    0.25
   4  10  -2   -0.07    0.28
  -4 -10   2   -0.24    0.31
  -4 -10   2    0.09    0.24
   4  10  -1    0.38    0.24
  -4 -10   1    0.04    0.26
   4  10   0   16.84    1.34
  -4 -10   0   14.98    1.08
   4  10   1    7.02    0.83
  -4 -10  -1    6.21    0.66
   4  10   2   36.80    1.88
  -4 -10  -2   39.51    1.66
   4  10   3    3.70    0.58
  -4 -10  -3    2.95    0.45
  -4 -10  -3    2.60    0.49
   4  10   4   31.22    1.61
  -4 -10  -4   30.70    1.42
  -4 -10  -4   29.39    1.54
   4  10   5   33.54    1.63
  -4 -10  -5   32.15    1.46
  -4 -10  -5   33.66    1.37
  -4 -10  -5   34.87    2.19
  -4 -10  -6    8.94    1.13
   4  10   6    9.39    0.83
  -4 -10  -6    9.48    0.79
  -4 -10  -7   14.15    0.99
  -4 -10  -7   13.34    1.43
  -4 -10  -8    2.09    0.67
  -4 -10  -9    7.99    1.20
  -4 -10 -10    0.54    0.43
  -4 -10 -11   -0.16    0.43
  -4 -10 -12    0.82    0.54
  -4 -11  10    1.44    0.70
  -4 -11   9    3.98    0.91
  -4 -11   8    0.67    0.39
  -4 -11   7    4.05    0.83
   4  11  -6    1.26    0.47
  -4 -11   6    1.26    0.55
  -4 -11   5    9.19    1.13
   4  11  -5    8.38    1.26
   4  11  -4    0.22    0.27
  -4 -11   4    0.35    0.37
   4  11  -3    3.52    0.77
  -4 -11   3    4.39    0.74
   4  11  -2    0.14    0.34
  -4 -11   2   -0.24    0.31
   4  11  -1    1.35    0.40
  -4 -11   1    1.84    0.45
   4  11   0    0.29    0.28
  -4 -11   0    0.16    0.25
   4  11   1    3.26    0.60
  -4 -11  -1    2.79    0.49
   4  11   2    2.75    0.56
  -4 -11  -2    2.46    0.46
   4  11   3    4.71    0.69
  -4 -11  -3    4.19    0.57
  -4 -11  -4    6.34    0.93
   4  11   4    5.93    0.72
  -4 -11  -4    5.52    0.65
  -4 -11  -4    6.07    0.71
  -4 -11  -5    2.11    0.57
  -4 -11  -5    1.57    0.37
   4  11   5    1.98    0.39
  -4 -11  -6    8.48    1.16
   4  11   6   11.34    0.93
  -4 -11  -6   10.36    0.89
  -4 -11  -7    6.46    1.04
  -4 -11  -7    8.53    0.81
  -4 -11  -8   19.77    1.29
  -4 -11  -8   19.23    1.81
  -4 -11  -9   17.68    1.79
  -4 -11 -10    2.54    0.72
  -4 -11 -11   10.22    1.43
  -4 -12   9    2.49    0.77
  -4 -12   8    3.28    0.85
  -4 -12   7    3.77    0.82
  -4 -12   6    1.50    0.57
  -4 -12   5   11.16    1.29
  -4 -12   4    0.67    0.46
   4  12  -4    0.29    0.44
   4  12  -3   10.59    1.33
  -4 -12   3   12.32    1.24
   4  12  -2    0.87    0.46
  -4 -12   2    0.44    0.27
   4  12  -1    1.89    0.57
  -4 -12   1    0.80    0.33
   4  12   0    1.08    0.42
  -4 -12   0    1.18    0.38
   4  12   1   -0.01    0.21
  -4 -12  -1    0.41    0.24
   4  12   2    0.14    0.23
  -4 -12  -2    0.34    0.28
  -4 -12  -2    0.19    0.35
   4  12   3    2.90    0.57
  -4 -12  -3    2.71    0.63
  -4 -12  -3    2.86    0.55
   4  12   4    1.42    0.38
  -4 -12  -4    1.04    0.37
   4  12   5    1.21    0.35
  -4 -12  -5    1.31    0.57
  -4 -12  -5    1.37    0.36
  -4 -12  -6   20.25    1.33
  -4 -12  -6   20.87    1.83
  -4 -12  -7    0.21    0.34
  -4 -12  -8   18.67    1.84
  -4 -12  -9    2.56    0.80
  -4 -12 -10    5.75    1.14
  -4 -13   8    0.88    0.49
  -4 -13   7    0.58    0.52
  -4 -13   6   -0.08    0.34
  -4 -13   5    5.14    0.93
  -4 -13   4    3.90    0.77
  -4 -13   3   10.79    1.23
  -4 -13   2    1.17    0.43
   4  13  -2    2.07    0.68
   4  13  -1   17.11    1.56
  -4 -13   1   18.25    1.49
   4  13   0   -0.03    0.29
  -4 -13   0   -0.33    0.24
  -4 -13   0   -0.21    0.24
   4  13   1    5.89    0.87
  -4 -13  -1    5.28    0.82
  -4 -13  -1    6.53    0.86
   4  13   2    2.53    0.57
  -4 -13  -2    2.65    0.60
  -4 -13  -2    1.90    0.44
   4  13   3    2.48    0.52
  -4 -13  -3    2.27    0.61
  -4 -13  -3    2.85    0.56
  -4 -13  -4    0.21    0.36
  -4 -13  -5   -0.39    0.40
  -4 -13  -6    1.72    0.58
  -4 -13  -7    1.26    0.48
  -4 -13  -8    5.01    1.00
  -4 -13  -9    0.43    0.51
  -4 -14   7   -0.08    0.32
  -4 -14   6    2.69    0.73
  -4 -14   5    0.12    0.37
  -4 -14   4    2.93    0.68
  -4 -14   3    1.14    0.41
  -4 -14   2    1.97    0.61
  -4 -14   1   11.85    1.26
  -4 -14   0    1.06    0.34
  -4 -14  -1    5.60    0.87
  -4 -14  -2    0.67    0.39
  -4 -14  -3    3.67    0.77
  -4 -14  -4   -0.40    0.34
  -4 -14  -5    0.57    0.46
  -4 -14  -6   -0.79    0.45
  -4 -14  -7   -0.23    0.36
  -4 -14  -8    0.17    0.35
  -4 -15  -4    1.08    0.41
  -4 -15  -5    4.85    0.96
  -4 -15  -6    0.18    0.35
   5 -13   4   -0.35    0.36
   5 -13   5    3.30    0.80
   5 -13   6    1.90    0.55
   5 -12  -7    3.41    0.87
   5 -12  -6    4.32    0.93
   5 -12  -5    1.19    0.54
   5 -12  -4    9.88    1.27
   5 -12  -1    0.61    0.37
   5 -12   0    4.52    1.04
   5 -12   1    1.83    0.70
   5 -12   2   -0.48    0.43
   5 -12   2   -0.05    0.34
   5 -12   3    0.68    0.42
   5 -12   3    0.40    0.42
   5 -12   4    0.34    0.30
   5 -12   5    0.98    0.37
   5 -12   6   -0.86    0.58
   5 -12   7   -0.06    0.38
   5 -11  -7    3.92    0.84
   5 -11  -6    8.68    1.27
   5 -11  -5    3.84    0.84
   5 -11  -4    3.52    0.74
   5 -11  -3    1.27    0.52
   5 -11  -2   28.31    1.89
   5 -11  -2   34.93    2.53
   5 -11  -1    6.72    1.08
   5 -11  -1    5.47    0.79
   5 -11   0    9.43    1.34
   5 -11   1    1.88    0.61
   5 -11   1    1.45    0.46
   5 -11   2    7.79    1.06
   5 -11   2    3.88    0.87
   5 -11   3    1.77    0.49
   5 -11   3    2.79    0.76
   5 -11   4    0.49    0.39
   5 -11   4   -0.28    0.44
   5 -11   5    1.13    0.47
   5 -11   5    0.88    0.42
   5 -11   6    1.36    0.49
   5 -11   6    1.92    0.72
   5 -11   7    0.59    0.41
   5 -11   7    0.44    0.40
   5 -11   8   -0.18    0.42
   5 -10  -8    0.85    0.56
   5 -10  -7    3.31    0.86
   5 -10  -6    0.22    0.42
   5 -10  -5    0.82    0.49
   5 -10  -4    5.44    0.93
   5 -10  -3    4.54    0.82
   5 -10  -2   23.82    1.71
   5 -10  -2   26.62    2.14
   5 -10  -1    4.96    0.93
   5 -10  -1    6.14    0.83
   5 -10   0   20.13    1.40
   5 -10   0   18.57    1.74
   5 -10   0   18.87    1.17
   5 -10   1    0.10    0.17
   5 -10   1    0.09    0.35
   5 -10   1   -0.15    0.19
   5 -10   1    0.53    0.36
   5 -10   2   17.46    1.72
   5 -10   2   16.26    1.44
   5 -10   3    2.82    0.66
   5 -10   3    4.75    0.93
   5 -10   4    9.46    1.17
   5 -10   4   10.01    1.31
   5 -10   5    9.43    1.19
   5 -10   5   10.32    1.34
   5 -10   6    2.10    0.67
   5 -10   6    1.55    0.60
   5 -10   7    1.05    0.52
   5 -10   7    0.49    0.36
   5 -10   8    0.34    0.46
   5 -10   8    0.85    0.48
   5 -10   9    0.25    0.40
   5 -10   9   -0.03    0.35
   5 -10  10   -0.42    0.55
   5  -9  -9    0.71    0.41
   5  -9  -8    0.36    0.42
   5  -9  -7   -0.41    0.36
   5  -9  -6    0.13    0.30
   5  -9  -5    0.18    0.30
   5  -9  -4    3.76    0.72
   5  -9  -3    1.81    0.49
   5  -9  -2    9.47    0.68
   5  -9  -2    8.03    0.96
   5  -9  -1    9.75    1.03
   5  -9  -1    7.87    1.11
   5  -9  -1    9.97    0.77
   5  -9   0   19.88    1.36
   5  -9   0   20.68    1.75
   5  -9   0   21.34    1.24
   5  -9   1    3.40    0.74
   5  -9   1    2.10    0.43
   5  -9   1    3.65    0.67
   5  -9   2   35.54    2.31
   5  -9   2   33.08    1.99
   5  -9   3    0.80    0.40
   5  -9   3    0.61    0.39
   5  -9   4   17.17    1.64
   5  -9   4   17.07    1.54
   5  -9   5    2.25    0.61
   5  -9   5    2.35    0.66
   5  -9   6    6.58    1.00
   5  -9   6    8.94    1.22
   5  -9   7    5.52    0.99
   5  -9   7    5.23    0.96
   5  -9   8    1.11    0.55
   5  -9   8    0.51    0.32
   5  -9   9    3.50    0.83
   5  -9   9    2.12    0.69
   5  -9  10    0.08    0.35
   5  -9  11    0.11    0.38
   5  -8 -10    2.54    0.73
   5  -8  -9    0.24    0.33
   5  -8  -8    5.84    1.04
   5  -8  -7   12.76    1.49
   5  -8  -6    0.59    0.42
   5  -8  -5    4.70    0.84
   5  -8  -4    1.11    0.48
   5  -8  -4    2.14    0.27
   5  -8  -3    0.57    0.16
   5  -8  -3    0.66    0.37
   5  -8  -2    0.69    0.37
   5  -8  -2    1.40    0.30
   5  -8  -1    1.30    0.32
   5  -8  -1    0.32    0.25
   5  -8   0    4.72    0.57
  -5   8   0    3.23    0.54
   5  -8   0    3.92    0.73
   5  -8   0    4.89    0.68
   5  -8   1    7.43    0.78
   5  -8   1    8.66    1.09
   5  -8   1    9.56    1.01
   5  -8   2   32.81    2.09
   5  -8   2   31.98    1.90
   5  -8   3    1.71    0.49
  -5   8  -3    1.51    0.30
   5  -8   3    1.01    0.40
  -5   8  -4   56.57    1.63
   5  -8   4   58.14    2.89
   5  -8   4   58.03    2.75
   5  -8   5   -0.14    0.29
   5  -8   5    0.34    0.37
   5  -8   6   36.73    2.35
   5  -8   6   38.57    2.39
   5  -8   7   -0.16    0.38
   5  -8   7    0.07    0.37
   5  -8   8   17.51    1.69
   5  -8   8   16.01    1.65
   5  -8   9   11.53    1.44
   5  -8   9   12.44    1.47
   5  -8  10    1.22    0.69
   5  -8  11    2.93    0.79
   5  -8  12   -0.37    0.56
   5  -7 -10   14.60    1.71
   5  -7  -9    1.99    0.64
   5  -7  -8   14.29    1.61
   5  -7  -7    7.54    1.11
   5  -7  -6    4.91    0.88
   5  -7  -5    9.13    1.14
   5  -7  -5    8.95    0.59
   5  -7  -4    1.69    0.50
   5  -7  -4    2.04    0.30
   5  -7  -3   -0.06    0.15
   5  -7  -3    0.08    0.29
   5  -7  -2    0.28    0.29
   5  -7  -2    0.15    0.15
  -5   7   1    1.14    0.37
   5  -7  -1    1.56    0.33
   5  -7  -1    0.66    0.31
  -5   7   0    0.97    0.32
   5  -7   0    1.19    0.32
   5  -7   0    0.98    0.35
   5  -7   1    2.63    0.45
   5  -7   1    3.10    0.66
   5  -7   1    1.98    0.42
   5  -7   1    2.24    0.52
   5  -7   2    1.91    0.50
   5  -7   2    1.67    0.51
  -5   7  -3    8.44    0.70
   5  -7   3    9.68    1.10
   5  -7   3   11.71    1.16
  -5   7  -4   55.95    1.71
   5  -7   4   58.78    2.76
   5  -7   4   57.84    2.67
   5  -7   5    0.14    0.26
   5  -7   5    0.23    0.31
  -5   7  -5   -0.07    0.11
  -5   7  -6    4.99    0.36
   5  -7   6    5.68    0.90
   5  -7   6    6.15    0.93
   5  -7   7    1.44    0.59
   5  -7   7    1.21    0.47
   5  -7   8   42.57    2.52
   5  -7   8   41.36    2.57
   5  -7   9    1.36    0.56
   5  -7  10   14.85    1.56
   5  -7  11    8.69    1.22
   5  -7  12    0.06    0.40
   5  -7  13    1.76    0.61
   5  -6 -11   -0.24    0.50
   5  -6 -10   11.68    1.56
   5  -6  -9   -0.14    0.45
   5  -6  -8   20.33    1.84
   5  -6  -7    8.35    0.64
   5  -6  -7    9.20    1.21
   5  -6  -6   43.88    2.53
   5  -6  -6   44.11    1.50
  -5   6   6   41.95    1.88
  -5   6   5    5.44    0.65
   5  -6  -5    5.32    0.51
   5  -6  -5    5.17    0.85
   5  -6  -4   21.76    1.63
   5  -6  -4   19.65    0.99
  -5   6   4   18.90    1.26
   5  -6  -3   10.98    1.15
   5  -6  -3   11.12    0.75
   5  -6  -2    3.58    0.62
   5  -6  -2    4.03    0.49
  -5   6   1   16.29    1.22
   5  -6  -1   16.75    1.25
   5  -6  -1   16.77    1.01
   5  -6   0    1.93    0.38
  -5   6   0    1.83    0.39
   5  -6   0    3.04    0.54
   5  -6   1   10.17    0.89
   5  -6   1   11.46    1.13
   5  -6   1   12.33    0.95
   5  -6   2    0.85    0.36
   5  -6   2    1.09    0.41
   5  -6   3    0.59    0.33
  -5   6  -3    0.94    0.27
   5  -6   3    0.70    0.34
   5  -6   4    0.94    0.41
   5  -6   4    0.37    0.27
  -5   6  -4    1.03    0.26
  -5   6  -5   16.14    0.86
   5  -6   5   15.98    1.40
   5  -6   5   15.57    1.38
  -5   6  -6   18.74    0.88
   5  -6   6   20.38    1.57
   5  -6   6   21.66    1.67
  -5   6  -7   19.69    0.84
   5  -6   7   20.44    1.62
  -5   6  -8   35.52    1.09
   5  -6   8   36.30    2.22
   5  -6   8   40.74    2.47
  -5   6  -8   38.73    1.13
   5  -6   9   -0.21    0.29
   5  -6   9   -0.26    0.35
   5  -6  10   27.94    2.05
   5  -6  11    1.43    0.57
   5  -6  12    7.27    1.12
   5  -6  13    2.04    0.65
   5  -6  14    1.29    0.69
   5  -5 -12    0.60    0.48
   5  -5 -11    0.40    0.47
   5  -5 -10    0.37    0.54
   5  -5  -9    2.52    0.68
   5  -5  -8   15.93    1.61
   5  -5  -8   13.98    0.96
   5  -5  -7    0.12    0.14
   5  -5  -7    0.02    0.32
  -5   5   7    0.14    0.18
   5  -5  -6   13.41    1.37
   5  -5  -6   12.57    0.85
  -5   5   6   12.03    1.00
  -5   5   5    1.50    0.34
   5  -5  -5    1.59    0.33
   5  -5  -4   17.52    1.44
   5  -5  -4   20.70    1.06
  -5   5   4   20.88    1.32
   5  -5  -3   23.27    1.58
   5  -5  -3   22.56    1.12
  -5   5   3   19.47    1.27
  -5   5   2   26.45    1.61
   5  -5  -2   26.49    1.64
   5  -5  -2   27.44    1.26
  -5   5   2   25.21    1.47
  -5   5   1   42.03    1.96
   5  -5  -1   39.41    1.90
   5  -5  -1   39.93    1.59
  -5   5   0   36.75    1.74
   5  -5   0   34.93    1.73
   5  -5   0   31.90    1.48
   5  -5   1   78.90    2.54
   5  -5   1   76.66    2.43
   5  -5   2    0.25    0.26
   5  -5   2    0.25    0.28
   5  -5   3    0.22    0.22
  -5   5  -3    0.46    0.21
   5  -5   3    0.31    0.29
   5  -5   4    0.63    0.31
  -5   5  -4    0.54    0.21
   5  -5   4    0.55    0.36
   5  -5   5    3.63    0.68
  -5   5  -5    2.99    0.40
   5  -5   5    2.94    0.56
  -5   5  -6    9.55    0.68
   5  -5   6   10.11    1.09
   5  -5   6   12.30    1.22
   5  -5   7    1.16    0.43
  -5   5  -7    0.77    0.24
   5  -5   7    0.13    0.25
  -5   5  -8   14.85    0.85
   5  -5   8   16.48    1.41
   5  -5   8   15.82    1.50
   5  -5   9    6.26    1.01
  -5   5  -9    6.85    0.57
   5  -5   9    8.75    1.07
  -5   5  -9    7.16    0.59
  -5   5 -10   27.44    1.18
   5  -5  10   30.81    2.07
   5  -5  11    0.09    0.32
   5  -5  12   14.26    1.51
   5  -5  13    0.41    0.38
   5  -5  14    5.08    1.05
   5  -5  15    4.69    1.03
   5  -4 -12    1.13    0.58
   5  -4 -11    2.41    0.78
   5  -4 -10    3.27    0.81
   5  -4  -9    0.95    0.47
   5  -4  -9    1.29    0.36
   5  -4  -8    0.58    0.27
   5  -4  -8   -0.14    0.31
  -5   4   8    0.58    0.25
  -5   4   7    1.51    0.33
   5  -4  -7    2.30    0.41
   5  -4  -7    1.19    0.55
   5  -4  -6    4.22    0.53
   5  -4  -6    3.66    0.73
  -5   4   6    3.94    0.50
   5  -4  -5    1.21    0.31
   5  -4  -5    1.87    0.47
  -5   4   5    1.23    0.29
  -5   4   5    0.96    0.31
   5  -4  -4   50.05    2.41
   5  -4  -4   50.13    1.76
  -5   4   4   48.01    2.03
  -5   4   3    0.83    0.25
   5  -4  -3    0.65    0.21
   5  -4  -3    0.54    0.30
  -5   4   2   30.07    1.69
   5  -4  -2   32.25    1.76
   5  -4  -2   29.93    1.34
  -5   4   2   29.14    1.56
  -5   4   1   10.67    0.96
   5  -4  -1   10.88    0.98
   5  -4  -1   11.06    0.81
  -5   4   1    9.90    0.91
   5  -4   0   85.92    2.76
   5  -4   0   91.56    2.57
  -5   4   0   91.54    2.92
   5  -4   1   30.77    1.54
   5  -4   1   29.89    1.47
   5  -4   2   23.99    1.42
   5  -4   2   23.52    1.47
  -5   4  -3   30.48    1.41
   5  -4   3   28.91    1.59
   5  -4   3   32.31    1.76
   5  -4   4    4.03    0.66
  -5   4  -4    3.40    0.47
   5  -4   4    2.71    0.50
   5  -4   5    0.43    0.34
   5  -4   5    0.21    0.20
  -5   4  -5    0.21    0.16
   5  -4   6   -0.26    0.22
   5  -4   6   -0.15    0.25
  -5   4  -6    0.13    0.11
   5  -4   7    0.07    0.30
   5  -4   7    0.01    0.27
  -5   4  -7    0.02    0.11
   5  -4   8    1.03    0.41
   5  -4   8    1.65    0.48
  -5   4  -8    1.36    0.31
   5  -4   9    6.40    0.98
   5  -4   9    5.80    0.88
  -5   4  -9    5.29    0.56
   5  -4  10    7.70    1.03
   5  -4  10    9.80    1.25
  -5   4 -10    9.28    0.77
  -5   4 -11    5.69    0.64
   5  -4  11    5.90    0.93
  -5   4 -12   27.58    1.45
   5  -4  12   26.23    1.98
   5  -4  13    0.28    0.31
   5  -4  14   10.36    1.38
   5  -4  15   -0.07    0.39
   5  -4  16    6.94    1.19
   5  -3 -13    0.28    0.55
   5  -3 -12    0.27    0.54
   5  -3 -11   -0.11    0.38
   5  -3 -10    0.39    0.31
   5  -3 -10   -0.24    0.35
   5  -3  -9    6.41    0.76
   5  -3  -9    6.29    1.01
  -5   3   9    5.94    0.69
  -5   3   8    1.86    0.42
   5  -3  -8    2.82    0.50
   5  -3  -8    1.80    0.59
   5  -3  -7    1.54    0.38
  -5   3   7    2.17    0.42
   5  -3  -7    1.18    0.49
   5  -3  -6   11.75    1.24
   5  -3  -6   11.12    0.89
  -5   3   6    9.05    0.80
   5  -3  -5    5.48    0.85
  -5   3   5    4.00    0.52
   5  -3  -5    4.48    0.55
   5  -3  -4   32.24    1.88
   5  -3  -4   30.07    1.38
  -5   3   4   27.51    1.35
   5  -3  -3    1.09    0.27
  -5   3   3    1.46    0.41
   5  -3  -3    1.58    0.44
  -5   3   3    1.61    0.38
  -5   3   2   42.10    1.99
   5  -3  -2   41.38    1.98
   5  -3  -2   40.02    1.58
  -5   3   2   42.84    1.87
  -5   3   1    0.40    0.25
  -5   3   1    0.43    0.19
   5  -3  -1    0.87    0.33
   5  -3  -1    0.26    0.19
   5  -3   0   94.06    2.89
   5  -3   0   90.73    2.57
  -5   3   0   95.15    2.92
  -5   3  -1    0.33    0.25
   5  -3   1    1.03    0.33
   5  -3   2   90.68    2.71
   5  -3   2   85.35    2.62
  -5   3  -3  110.52    2.90
   5  -3   3  107.50    3.03
   5  -3   3  109.49    3.27
   5  -3   4    3.73    0.62
   5  -3   4    3.66    0.53
  -5   3  -4    3.38    0.47
  -5   3  -5   93.01    2.58
   5  -3   5   92.35    2.88
   5  -3   5   97.38    3.27
  -5   3  -6   10.27    0.82
   5  -3   6    9.71    0.91
   5  -3   6   11.26    1.10
  -5   3  -7   14.50    1.13
   5  -3   7   15.63    1.20
   5  -3   7   16.14    1.36
   5  -3   8   11.25    1.07
   5  -3   8   12.59    1.27
   5  -3   9   -0.20    0.36
   5  -3   9   -0.06    0.33
  -5   3  -9   -0.03    0.19
   5  -3  10   10.04    1.11
   5  -3  10   11.08    1.26
  -5   3 -10    9.03    0.82
  -5   3 -11   12.80    1.01
   5  -3  11   10.75    1.17
   5  -3  11   13.19    1.42
  -5   3 -12   10.54    0.97
   5  -3  12   10.16    1.23
  -5   3 -13   -0.01    0.22
   5  -3  13   -0.02    0.37
   5  -3  14   12.57    1.45
   5  -3  15    1.28    0.54
   5  -3  16    4.04    0.92
   5  -2 -13    2.26    0.74
   5  -2 -12    3.49    0.84
   5  -2 -11    2.09    0.68
   5  -2 -10   14.94    1.60
   5  -2 -10   15.62    1.36
   5  -2  -9    6.16    0.77
   5  -2  -9    5.55    0.93
   5  -2  -8   -0.07    0.21
   5  -2  -8   -0.49    0.46
  -5   2   8   -0.78    0.28
   5  -2  -7    3.06    0.53
   5  -2  -7    2.59    0.66
  -5   2   7    3.06    0.51
   5  -2  -6    7.98    0.78
   5  -2  -6    8.83    1.07
  -5   2   6    8.44    0.78
   5  -2  -5    8.13    0.77
   5  -2  -5    7.09    0.91
  -5   2   5    7.75    0.76
   5  -2  -4   -0.35    0.31
  -5   2   4   -0.35    0.22
   5  -2  -4    0.01    0.18
   5  -2  -3    0.52    0.24
  -5   2   3    0.90    0.32
  -5   2   3    0.48    0.21
   5  -2  -3    0.71    0.28
  -5   2   2   11.57    1.01
   5  -2  -2   10.05    0.97
   5  -2  -2   10.16    0.80
  -5   2   2    9.25    0.78
  -5   2   1   30.73    1.62
   5  -2  -1   33.40    1.70
   5  -2  -1   32.31    1.44
  -5   2   1   33.71    1.64
   5  -2   0  137.66    3.60
   5  -2   0  138.19    3.29
  -5   2   0  141.35    3.61
  -5   2  -1    3.69    0.55
   5  -2   1    3.99    0.54
   5  -2   2  151.95    3.43
   5  -2   2  148.28    3.57
  -5   2  -2  156.00    3.90
   5  -2   3   67.01    2.16
   5  -2   3   70.02    2.50
  -5   2  -4  121.13    3.10
   5  -2   4  122.72    3.06
   5  -2   4  122.06    3.50
   5  -2   5   55.94    2.02
   5  -2   5   59.51    2.40
   5  -2   6   23.90    1.34
   5  -2   6   21.52    1.51
  -5   2  -7  125.40    3.32
   5  -2   7  120.52    3.33
   5  -2   7  121.93    3.79
   5  -2   8    1.10    0.41
  -5   2  -8    1.13    0.35
   5  -2   8    0.51    0.29
  -5   2  -9   59.10    2.39
   5  -2   9   57.70    2.45
   5  -2   9   62.63    2.83
   5  -2  10    2.60    0.64
  -5   2 -10    2.43    0.47
   5  -2  10    1.86    0.48
   5  -2  11    6.06    0.94
  -5   2 -11    6.45    0.79
   5  -2  11    6.72    0.92
   5  -2  12    0.83    0.45
  -5   2 -12    0.60    0.30
   5  -2  12    0.64    0.38
   5  -2  13    2.52    0.70
  -5   2 -13    2.41    0.50
   5  -2  13    3.26    0.76
   5  -2  14    4.58    0.94
  -5   2 -14    5.13    0.85
   5  -2  14    4.84    0.93
   5  -2  15   -0.05    0.35
  -5   2 -15   -0.11    0.23
   5  -2  15    0.19    0.38
   5  -2  16   -0.06    0.33
   5  -2  16   -0.33    0.37
   5  -2  17   -0.75    0.55
   5  -1 -13    1.91    0.72
   5  -1 -12    2.74    0.80
   5  -1 -11    4.55    0.93
   5  -1 -10    5.86    0.84
   5  -1 -10    5.04    0.97
   5  -1  -9   12.12    1.40
   5  -1  -9   13.99    1.23
   5  -1  -8   10.66    1.27
   5  -1  -8    8.62    0.92
   5  -1  -7   86.90    3.47
   5  -1  -7   89.00    2.96
  -5   1   7   83.30    2.76
   5  -1  -6    0.56    0.30
   5  -1  -6    0.30    0.46
  -5   1   6   -0.04    0.23
   5  -1  -5    1.05    0.32
   5  -1  -5    1.84    0.54
  -5   1   5    1.24    0.32
  -5   1   4    2.35    0.43
   5  -1  -4    2.61    0.55
   5  -1  -4    3.01    0.50
  -5   1   3   20.71    1.40
   5  -1  -3   19.39    1.38
   5  -1  -3   18.41    1.12
  -5   1   3   19.22    1.15
  -5   1   2    1.98    0.36
   5  -1  -2    1.67    0.35
  -5   1   2    1.66    0.41
   5  -1  -2    2.21    0.49
   5  -1  -1    0.09    0.17
  -5   1   1    0.14    0.22
  -5   1   1   -0.23    0.19
   5  -1  -1   -0.12    0.22
   5  -1   0   17.03    1.07
  -5   1   0   16.64    1.14
   5  -1   1    9.58    0.81
  -5   1  -1    9.14    0.85
   5  -1   2  154.64    3.22
   5  -1   2  153.48    3.62
  -5   1  -2  157.68    3.85
  -5   1  -3    0.32    0.25
   5  -1   3   -0.17    0.18
   5  -1   3   -0.31    0.24
   5  -1   4   54.76    1.82
   5  -1   5   13.03    0.88
  -5   1  -6   58.33    1.96
   5  -1   6   54.85    1.95
   5  -1   6   55.75    2.37
  -5   1  -7   95.07    2.73
   5  -1   7   96.83    2.77
   5  -1   7  100.67    3.33
   5  -1   8    0.60    0.34
  -5   1  -8    0.57    0.24
   5  -1   8    0.82    0.27
   5  -1   9    5.31    0.83
  -5   1  -9    4.78    0.62
   5  -1   9    4.37    0.64
   5  -1  10    0.20    0.23
  -5   1 -10   -0.02    0.23
  -5   1 -10    0.59    0.37
   5  -1  10    0.65    0.38
   5  -1  11   27.05    1.74
   5  -1  11   27.74    1.94
  -5   1 -11   24.46    1.56
   5  -1  12    0.16    0.29
  -5   1 -12    0.71    0.31
   5  -1  12    0.89    0.42
   5  -1  13    7.04    1.08
  -5   1 -13    7.01    0.91
   5  -1  13    7.45    1.02
   5  -1  14    0.44    0.37
  -5   1 -14    0.78    0.40
   5  -1  14   -0.21    0.44
   5  -1  15   -0.03    0.45
  -5   1 -15    1.16    0.44
   5  -1  15    0.71    0.53
   5  -1  16    4.71    0.97
  -5   1 -16    5.29    0.90
   5  -1  16    4.42    0.88
   5  -1  17    0.36    0.40
   5  -1  17    0.02    0.35
   5   0 -14    0.84    0.49
   5   0 -13   -0.05    0.40
   5   0 -12    4.19    0.98
   5   0 -11    1.03    0.50
   5   0 -11    0.50    0.43
   5   0 -10   11.93    1.22
   5   0 -10   11.84    1.40
   5   0  -9    3.63    0.68
   5   0  -9    4.46    0.84
   5   0  -8   16.52    1.51
   5   0  -8   14.19    1.23
   5   0  -7   35.04    2.15
   5   0  -7   35.52    1.87
   5   0  -6   16.83    1.43
  -5   0   6   15.23    1.13
   5   0  -6   16.90    1.23
   5   0  -5   60.59    2.66
   5   0  -5   65.38    2.38
   5   0  -5   66.36    2.59
  -5   0   5   65.86    2.33
   5   0  -4    4.94    0.65
  -5   0   4    5.37    0.75
  -5   0   4    5.65    0.64
   5   0  -4    4.74    0.61
   5   0  -4    4.90    0.74
   5   0  -3   73.75    2.75
   5   0  -3   74.91    2.42
  -5   0   3   75.86    2.44
   5   0  -2    6.84    0.78
   5   0  -2    6.96    0.71
  -5   0   2    6.65    0.68
  -5   0   1    0.57    0.22
   5   0  -1    0.59    0.24
   5   0   0   10.50    0.84
  -5   0   0   10.45    0.84
   5   0   1    1.26    0.32
  -5   0  -1    1.03    0.31
  -5   0  -2    0.71    0.25
   5   0   2    1.03    0.32
   5   0   3   36.63    1.27
  -5   0  -3   36.53    1.72
   5   0   4   41.65    1.40
  -5   0  -4   42.84    1.95
   5   0   5   -0.04    0.12
   5   0   6    5.26    0.70
  -5   0  -6    5.24    0.53
   5   0   6    5.55    0.55
   5   0   7   12.06    0.87
  -5   0  -7   11.70    0.84
   5   0   7   12.36    1.08
  -5   0  -8   51.07    1.90
   5   0   8   52.24    1.96
   5   0   8   52.54    2.35
   5   0   9   42.20    1.87
  -5   0  -9   44.22    1.86
   5   0   9   46.35    2.27
   5   0  10   11.01    1.01
  -5   0 -10   10.48    0.95
   5   0  10   10.99    1.13
  -5   0 -10   10.63    1.05
   5   0  11   31.39    1.82
   5   0  11   29.51    1.93
  -5   0 -11   27.91    1.75
   5   0  12    4.45    0.79
  -5   0 -12    4.03    0.72
   5   0  12    2.99    0.60
   5   0  13    2.39    0.64
  -5   0 -13    2.83    0.66
   5   0  13    2.31    0.63
   5   0  14    0.55    0.44
  -5   0 -14    1.06    0.50
   5   0  14   -0.47    0.40
   5   0  15    2.99    0.74
  -5   0 -15    3.32    0.77
   5   0  15    3.97    0.81
   5   0  16    0.07    0.31
  -5   0 -16    0.76    0.36
   5   0  16    0.83    0.50
   5   0  17    0.56    0.43
  -5   0 -17    0.36    0.36
   5   0  17   -0.60    0.45
   5   0  18   -0.01    0.43
   5   1 -14    0.17    0.49
   5   1 -13    0.63    0.50
   5   1 -12    1.80    0.62
   5   1 -11   -0.22    0.37
   5   1 -11   -0.04    0.25
   5   1 -10    3.13    0.71
   5   1 -10    3.25    0.81
   5   1  -9    1.51    0.51
   5   1  -9    1.23    0.47
   5   1  -8   24.81    1.85
   5   1  -8   26.01    1.73
   5   1  -7    4.48    0.71
   5   1  -7    3.74    0.74
   5   1  -6   33.22    1.98
   5   1  -6   32.77    1.79
   5   1  -5   49.31    2.34
   5   1  -5   48.97    2.12
   5   1  -5   49.62    2.19
  -5  -1   5   47.48    2.02
  -5  -1   4   13.28    1.14
   5   1  -4   15.36    1.25
   5   1  -4   14.76    1.11
   5   1  -4   13.93    1.09
  -5  -1   4   13.63    1.04
  -5  -1   3   54.78    2.28
   5   1  -3   50.55    2.25
   5   1  -3   50.99    2.03
  -5  -1   3   55.53    2.08
   5   1  -2    0.23    0.20
  -5  -1   2   -0.05    0.16
   5   1  -2    0.46    0.34
   5   1  -2    0.00    0.14
   5   1  -1   58.37    2.11
  -5  -1   1   58.91    2.11
   5   1   0    6.78    0.70
  -5  -1   0    7.78    0.74
  -5  -1  -1    2.27    0.41
  -5  -1  -2    0.14    0.15
   5   1   3   58.78    1.45
  -5  -1  -3   61.25    2.21
   5   1   4   21.55    0.86
  -5  -1  -4   24.92    1.40
   5   1   5    0.13    0.10
  -5  -1  -6   50.90    1.54
   5   1   6   51.20    1.58
   5   1   6   53.40    2.17
   5   1   7    0.40    0.26
  -5  -1  -7    0.24    0.16
   5   1   7   -0.09    0.15
  -5  -1  -8   98.06    2.57
   5   1   8   98.38    2.66
   5   1   8   94.92    3.15
  -5  -1  -9   15.69    1.04
   5   1   9   17.32    1.14
   5   1   9   15.23    1.27
  -5  -1 -10   13.12    1.02
   5   1  10   13.10    1.07
   5   1  10   13.11    1.21
  -5  -1 -10   14.32    1.26
  -5  -1 -11   15.90    1.19
   5   1  11   13.30    1.14
   5   1  11   16.17    1.38
  -5  -1 -11   13.01    1.22
   5   1  12    8.75    1.07
  -5  -1 -12    7.24    0.93
   5   1  12    7.57    0.92
  -5  -1 -13   18.03    1.54
   5   1  13   14.77    1.36
   5   1  13   15.43    1.44
   5   1  14    0.91    0.53
  -5  -1 -14    0.10    0.32
   5   1  14    0.35    0.30
   5   1  15    4.88    0.89
  -5  -1 -15    3.98    0.83
   5   1  15    4.22    0.81
   5   1  16    0.04    0.37
  -5  -1 -16   -0.39    0.42
   5   1  16   -0.53    0.52
   5   1  17    1.45    0.59
  -5  -1 -17    2.28    0.68
   5   1  17    1.64    0.59
  -5  -1 -18    0.42    0.44
   5   2 -14    2.64    0.79
   5   2 -13    1.26    0.55
   5   2 -12   -0.10    0.33
   5   2 -11    0.34    0.32
   5   2 -11    0.47    0.31
   5   2 -10    0.28    0.28
   5   2 -10    0.86    0.50
   5   2  -9    1.69    0.53
   5   2  -9    1.06    0.47
   5   2  -8   13.40    1.35
   5   2  -8   12.38    1.23
   5   2  -7    0.74    0.37
   5   2  -7    0.60    0.42
   5   2  -6    8.84    1.03
   5   2  -6   10.33    1.05
   5   2  -5   10.28    1.08
   5   2  -5   11.19    1.03
   5   2  -5   11.13    1.02
  -5  -2   4   30.96    1.74
   5   2  -4   25.63    1.63
   5   2  -4   28.85    1.59
  -5  -2   4   29.72    1.58
  -5  -2   3   37.76    1.89
   5   2  -3   34.16    1.84
   5   2  -3   36.78    1.75
  -5  -2   3   33.73    1.66
  -5  -2   2   18.08    1.18
  -5  -2   2   16.94    1.22
   5   2  -2   16.78    1.15
   5   2  -2   15.87    0.98
   5   2  -1  119.61    3.18
  -5  -2   1  119.14    3.16
  -5  -2   0    0.51    0.22
   5   2   0    0.79    0.19
   5   2   1  128.38    2.34
  -5  -2  -1  139.24    3.41
  -5  -2  -2    1.79    0.39
   5   2   2    1.63    0.19
   5   2   3   13.87    0.50
  -5  -2  -3   15.00    1.05
   5   2   4    6.31    0.35
  -5  -2  -4    5.18    0.64
  -5  -2  -5    0.17    0.14
   5   2   5    0.35    0.23
   5   2   5    0.39    0.10
  -5  -2  -6   38.42    1.16
   5   2   6   38.89    1.21
   5   2   6   39.32    1.85
  -5  -2  -7    4.83    0.45
   5   2   7    4.92    0.48
   5   2   7    6.07    0.73
  -5  -2  -8   19.72    1.02
   5   2   8   20.89    1.37
   5   2   9    1.49    0.42
  -5  -2  -9    1.56    0.33
   5   2   9    1.70    0.35
  -5  -2 -10   28.20    1.45
   5   2  10   26.74    1.46
   5   2  10   28.22    1.72
  -5  -2 -10   29.71    1.87
   5   2  11    2.28    0.56
  -5  -2 -11    3.87    0.73
  -5  -2 -11    3.21    0.54
   5   2  11    1.50    0.40
   5   2  12    9.75    0.99
   5   2  12   11.23    1.18
  -5  -2 -12   10.02    1.18
  -5  -2 -13   10.68    1.24
   5   2  13   11.26    1.15
   5   2  13   10.86    1.20
  -5  -2 -14   12.40    1.39
   5   2  14   10.90    1.19
   5   2  14   12.81    1.31
   5   2  15    8.80    1.15
  -5  -2 -15    8.88    1.20
   5   2  16    1.46    0.53
  -5  -2 -16    1.89    0.65
   5   2  17    3.96    0.82
  -5  -2 -17    3.67    0.82
   5   3 -14    0.68    0.47
   5   3 -13    1.36    0.60
   5   3 -12   -0.35    0.38
   5   3 -11    1.98    0.59
   5   3 -11    1.63    0.53
   5   3 -10   -0.06    0.41
   5   3 -10   -0.53    0.40
   5   3  -9    0.08    0.31
   5   3  -9    0.30    0.38
   5   3  -8    7.90    1.01
   5   3  -8    9.60    1.13
   5   3  -7    9.63    1.09
   5   3  -7    9.40    1.07
   5   3  -6   11.55    1.18
   5   3  -6   13.95    1.25
   5   3  -5    3.20    0.61
   5   3  -5    2.76    0.61
   5   3  -5    3.77    0.58
  -5  -3   4   67.92    2.64
   5   3  -4   68.29    2.62
  -5  -3   3   13.40    1.13
   5   3  -3   14.51    1.13
  -5  -3   3   13.17    1.05
  -5  -3   2   63.34    2.43
   5   3  -2   60.01    2.27
   5   3  -2   56.80    1.85
  -5  -3   2   61.38    2.27
  -5  -3   1  202.12    4.62
  -5  -3   1  210.00    4.43
   5   3   0   20.93    0.84
  -5  -3   0   23.07    1.32
   5   3   1   47.08    1.09
  -5  -3  -1   54.01    2.04
  -5  -3  -2   -0.12    0.20
  -5  -3  -3   67.11    2.31
  -5  -3  -4    0.10    0.21
   5   3   4    0.34    0.22
   5   3   5   39.34    1.81
  -5  -3  -5   39.99    1.76
   5   3   6    0.51    0.28
  -5  -3  -6    0.21    0.08
   5   3   7    2.26    0.50
  -5  -3  -7    2.93    0.31
   5   3   7    2.82    0.33
  -5  -3  -8    8.83    0.64
   5   3   8    8.18    0.63
  -5  -3  -9    2.62    0.39
   5   3   9    2.13    0.37
   5   3   9    2.73    0.52
  -5  -3 -10    2.91    0.68
  -5  -3 -10    3.62    0.50
   5   3  10    3.39    0.57
   5   3  11    2.32    0.49
  -5  -3 -11    2.80    0.66
  -5  -3 -11    2.09    0.41
  -5  -3 -12    7.60    1.06
  -5  -3 -12    8.78    0.89
   5   3  12    8.23    0.97
   5   3  13    3.15    0.64
  -5  -3 -13    2.47    0.61
  -5  -3 -14   20.26    1.81
   5   3  14   21.79    1.66
   5   3  15   10.01    1.16
  -5  -3 -15   11.01    1.38
   5   3  16    2.25    0.60
  -5  -3 -16    3.61    0.87
  -5  -3 -17    1.49    0.58
   5   4 -15   -0.53    0.49
   5   4 -14    1.21    0.65
   5   4 -13    3.62    0.84
   5   4 -12    0.28    0.31
   5   4 -11    6.94    1.17
   5   4 -11    9.52    1.30
   5   4 -10    0.76    0.48
   5   4 -10    0.69    0.35
   5   4  -9   -0.32    0.31
   5   4  -9    0.16    0.35
   5   4  -8    2.42    0.63
   5   4  -8    1.68    0.52
   5   4  -7    0.41    0.44
   5   4  -7   -0.24    0.40
   5   4  -6    1.88    0.59
   5   4  -6    2.49    0.57
   5   4  -5    0.31    0.26
   5   4  -5    0.19    0.22
  -5  -4   4   43.05    2.08
   5   4  -4   42.22    2.10
   5   4  -3    2.67    0.57
  -5  -4   3    2.95    0.56
  -5  -4   2   47.44    2.11
   5   4  -2   48.16    2.08
   5   4  -2   41.97    1.55
  -5  -4   2   48.79    2.06
  -5  -4   1   13.85    1.11
   5   4  -1   12.79    0.73
  -5  -4   1   15.67    1.13
  -5  -4   0   75.12    2.68
   5   4   0   71.32    1.62
  -5  -4   0   78.26    2.58
   5   4   1   34.35    0.81
  -5  -4  -1   35.48    1.67
   5   4   2   98.12    2.91
  -5  -4  -2  100.52    2.93
   5   4   3  212.51    4.54
  -5  -4  -3  218.21    4.64
   5   4   4   30.75    1.56
  -5  -4  -4   31.15    1.53
   5   4   5   40.16    1.83
  -5  -4  -5   42.08    1.81
  -5  -4  -6    5.10    0.63
  -5  -4  -6    4.84    0.26
   5   4   6    5.17    0.67
  -5  -4  -7   26.45    0.88
   5   4   7   26.03    1.51
  -5  -4  -8    0.23    0.13
   5   4   8   -0.08    0.24
   5   4   9    0.63    0.31
  -5  -4  -9    0.46    0.16
  -5  -4 -10    0.22    0.29
  -5  -4 -10   -0.06    0.12
   5   4  10    0.08    0.25
  -5  -4 -11    0.12    0.30
  -5  -4 -11   -0.22    0.19
   5   4  11    0.09    0.19
  -5  -4 -12    0.44    0.43
   5   4  12    0.40    0.28
  -5  -4 -13    0.61    0.44
   5   4  13    0.09    0.25
   5   4  14    2.10    0.55
  -5  -4 -14    0.76    0.51
   5   4  15    0.57    0.28
  -5  -4 -15    1.37    0.62
  -5  -4 -16    2.76    0.77
   5   5 -14    2.01    0.66
   5   5 -13    5.76    1.05
   5   5 -12    0.22    0.45
   5   5 -11   12.28    1.51
   5   5 -11   10.10    1.30
   5   5 -10    0.47    0.45
   5   5 -10    0.11    0.31
  -5  -5  10    0.03    0.40
   5   5  -9   15.10    1.54
   5   5  -9   11.84    1.30
  -5  -5   9   13.82    1.43
   5   5  -8    4.60    0.85
  -5  -5   8    4.01    0.76
   5   5  -7    7.95    1.06
  -5  -5   7    8.76    1.02
   5   5  -6    4.09    0.77
  -5  -5   6    3.34    0.58
   5   5  -5    1.90    0.52
   5   5  -5    2.32    0.46
  -5  -5   5    1.91    0.49
  -5  -5   4    8.51    0.93
   5   5  -4    9.49    1.03
   5   5  -4    8.05    0.81
  -5  -5   4    8.99    0.85
   5   5  -3    0.27    0.22
  -5  -5   3    0.18    0.19
  -5  -5   3   -0.11    0.24
  -5  -5   2   64.39    2.52
   5   5  -2   63.19    2.51
   5   5  -2   58.52    1.88
  -5  -5   2   65.48    2.00
   5   5  -1    4.70    0.45
  -5  -5   1    4.23    0.45
  -5  -5   1    5.96    0.73
   5   5  -1    5.41    0.69
  -5  -5   1    5.45    0.72
   5   5   0   61.56    1.50
   5   5   0   63.39    2.37
  -5  -5   0   66.14    2.39
   5   5   1    6.17    0.72
   5   5   1    6.28    0.33
  -5  -5  -1    6.11    0.71
   5   5   2   59.31    2.24
  -5  -5  -2   60.14    2.26
   5   5   3   52.65    2.08
  -5  -5  -3   54.13    2.13
   5   5   4   17.82    1.19
  -5  -5  -4   18.89    1.17
   5   5   5  164.14    3.95
  -5  -5  -5  162.88    3.80
  -5  -5  -6    2.35    0.44
   5   5   6    1.99    0.43
  -5  -5  -7    5.07    0.35
   5   5   7    5.59    0.71
  -5  -5  -8   -0.01    0.11
   5   5   8   -0.14    0.22
  -5  -5  -9   10.62    0.72
   5   5   9   10.36    1.00
  -5  -5 -10    1.91    0.54
   5   5  10    1.71    0.45
  -5  -5 -10    1.62    0.33
  -5  -5 -11    8.97    1.17
  -5  -5 -11    7.84    0.76
   5   5  11    7.72    0.93
  -5  -5 -12   -0.21    0.41
   5   5  12   -0.13    0.30
  -5  -5 -13    0.24    0.31
   5   5  13    0.59    0.35
   5   5  14    2.04    0.55
  -5  -5 -14    3.29    0.82
  -5  -5 -15    1.68    0.67
   5   5  15    0.95    0.37
  -5  -5 -16    1.71    0.70
   5   5  16    1.00    0.43
  -5  -6  12   -0.36    0.37
  -5  -6  11    3.39    0.84
  -5  -6  10    2.67    0.75
   5   6 -10    6.10    1.05
   5   6  -9    9.56    1.36
  -5  -6   9    9.53    1.22
   5   6  -8    0.10    0.29
  -5  -6   8    0.51    0.39
   5   6  -7   29.33    2.09
  -5  -6   7   27.33    1.86
   5   6  -6   -0.58    0.41
  -5  -6   6   -0.25    0.32
   5   6  -5   25.19    1.76
   5   6  -5   22.29    1.45
  -5  -6   5   24.88    1.57
   5   6  -4    0.22    0.25
   5   6  -4    0.28    0.17
  -5  -6   4    0.54    0.32
   5   6  -3    2.35    0.52
  -5  -6   3    2.05    0.48
  -5  -6   3    1.56    0.39
   5   6  -2    4.16    0.69
   5   6  -2    4.10    0.49
  -5  -6   2    5.27    0.71
  -5  -6   2    3.64    0.49
   5   6  -1    4.40    0.45
   5   6  -1    3.19    0.56
  -5  -6   1    4.45    0.66
  -5  -6   1    3.61    0.44
   5   6   0    2.50    0.30
   5   6   0    2.50    0.49
  -5  -6   0    2.47    0.32
  -5  -6   0    2.11    0.46
   5   6   1   16.13    1.20
  -5  -6  -1   17.84    0.68
  -5  -6  -1   17.04    1.21
   5   6   2   24.05    1.42
  -5  -6  -2   24.25    1.43
   5   6   3   41.64    1.88
  -5  -6  -3   43.79    1.92
   5   6   4   76.28    2.59
  -5  -6  -4   78.36    2.64
   5   6   5   22.98    1.37
  -5  -6  -5   23.61    1.31
   5   6   6   45.19    1.96
  -5  -6  -6   47.18    1.88
  -5  -6  -7   35.89    0.98
   5   6   7   35.36    1.76
   5   6   8    2.65    0.52
  -5  -6  -8    1.98    0.27
  -5  -6  -9   28.67    1.18
   5   6   9   29.96    1.68
  -5  -6  -9   28.24    2.01
  -5  -6 -10    2.47    0.67
  -5  -6 -10    3.88    0.49
   5   6  10    2.78    0.57
   5   6  11   22.48    1.55
  -5  -6 -11   26.57    2.05
  -5  -6 -12    0.02    0.27
   5   6  12    0.30    0.28
  -5  -6 -13   -0.20    0.42
   5   6  13    0.26    0.29
  -5  -6 -14    1.01    0.50
   5   6  14    0.19    0.20
  -5  -6 -15    0.49    0.47
   5   6  15    0.10    0.23
  -5  -7  12    3.70    0.89
  -5  -7  11   -0.14    0.46
   5   7 -10    5.09    1.00
  -5  -7  10    5.88    1.07
   5   7  -9    3.99    0.88
  -5  -7   9    3.84    0.81
   5   7  -8    3.17    0.76
  -5  -7   8    3.12    0.72
   5   7  -7   38.54    2.44
  -5  -7   7   34.17    2.12
   5   7  -6   -0.41    0.36
  -5  -7   6    0.02    0.27
   5   7  -5   15.83    1.46
  -5  -7   5   16.30    1.30
   5   7  -4    1.82    0.53
   5   7  -4    0.92    0.30
  -5  -7   4    1.35    0.38
  -5  -7   3    9.52    0.99
   5   7  -3    8.94    1.03
  -5  -7   3    8.09    0.84
  -5  -7   2    8.61    0.94
   5   7  -2    8.55    0.98
  -5  -7   2    5.56    0.63
   5   7  -1    1.16    0.40
   5   7  -1    1.05    0.25
  -5  -7   1    1.50    0.41
  -5  -7   1    1.66    0.34
   5   7   0    1.65    0.27
   5   7   0    1.52    0.42
  -5  -7   0    0.79    0.24
   5   7   1    0.42    0.23
  -5  -7  -1    0.40    0.15
   5   7   2    6.05    0.74
  -5  -7  -2    6.96    0.40
  -5  -7  -2    6.65    0.78
   5   7   3   15.94    1.17
  -5  -7  -3   16.66    1.20
   5   7   4   15.04    1.15
  -5  -7  -4   18.19    1.24
   5   7   5   24.37    1.44
  -5  -7  -5   23.59    1.31
  -5  -7  -6   75.15    1.36
  -5  -7  -6   80.43    1.40
   5   7   6   77.53    2.63
  -5  -7  -6   80.62    2.49
  -5  -7  -7   86.76    1.75
   5   7   7   84.43    2.78
  -5  -7  -7   80.68    2.53
  -5  -7  -8   21.64    0.92
   5   7   8   20.08    1.34
  -5  -7  -9   36.06    1.35
   5   7   9   32.97    1.76
  -5  -7  -9   35.69    2.31
   5   7  10   16.89    1.28
  -5  -7 -10   17.35    1.68
   5   7  11   20.00    1.44
  -5  -7 -11   23.51    1.98
  -5  -7 -12    0.84    0.51
   5   7  12   -0.19    0.21
  -5  -7 -13    8.05    1.25
   5   7  13    8.30    0.98
  -5  -7 -14    0.44    0.46
   5   7  14    0.28    0.29
  -5  -8  11    0.40    0.37
  -5  -8  10    2.38    0.75
  -5  -8   9    2.08    0.67
   5   8  -9    2.92    0.83
   5   8  -8    2.21    0.76
  -5  -8   8    3.86    0.82
   5   8  -7    8.60    1.28
  -5  -8   7   10.18    1.20
   5   8  -6    7.06    1.08
  -5  -8   6    7.57    0.99
   5   8  -5   60.39    2.96
  -5  -8   5   59.07    2.59
   5   8  -4   -0.09    0.32
   5   8  -4    0.37    0.20
  -5  -8   4    0.47    0.36
   5   8  -3   31.09    2.00
   5   8  -3   30.60    1.58
  -5  -8   3   33.32    1.70
   5   8  -2    4.86    0.78
  -5  -8   2    4.17    0.60
   5   8  -1   31.76    1.87
   5   8  -1   29.78    1.35
  -5  -8   1   31.74    1.43
   5   8   0    0.86    0.34
  -5  -8   0    1.54    0.32
   5   8   1   18.47    1.34
  -5  -8  -1   19.60    0.92
   5   8   2   13.51    1.11
  -5  -8  -2   12.59    0.65
  -5  -8  -3    0.33    0.11
   5   8   3   -0.19    0.25
  -5  -8  -4    4.41    0.62
  -5  -8  -4    4.66    0.32
   5   8   4    3.82    0.59
   5   8   5    1.98    0.42
  -5  -8  -5    1.91    0.20
  -5  -8  -5    1.92    0.21
  -5  -8  -6    1.51    0.33
   5   8   6    2.34    0.46
  -5  -8  -6    1.76    0.22
  -5  -8  -6    2.26    0.25
  -5  -8  -7    2.45    0.42
   5   8   7    2.88    0.51
  -5  -8  -7    1.91    0.25
  -5  -8  -7    2.98    0.32
   5   8   8    0.65    0.29
  -5  -8  -8   -0.13    0.35
   5   8   9   26.73    1.57
  -5  -8  -9   29.84    2.18
  -5  -8 -10    3.24    0.80
   5   8  10    2.46    0.50
   5   8  11   21.12    1.43
  -5  -8 -11   22.19    1.99
  -5  -8 -12    8.16    1.25
   5   8  12    8.32    0.91
  -5  -8 -13   13.27    1.62
  -5  -9  11    1.35    0.59
  -5  -9  10    0.84    0.52
   5   9  -9    1.36    0.68
  -5  -9   9    0.92    0.46
   5   9  -8    0.54    0.44
  -5  -9   8    0.65    0.56
   5   9  -7    3.63    0.84
  -5  -9   7    4.39    0.79
   5   9  -6   10.87    1.34
  -5  -9   6   12.89    1.31
   5   9  -5    8.29    1.13
  -5  -9   5    7.41    0.97
   5   9  -4   25.26    1.88
  -5  -9   4   22.59    1.56
   5   9  -3   44.44    2.45
   5   9  -3   40.98    1.91
  -5  -9   3   41.19    1.99
   5   9  -2    5.55    0.84
   5   9  -2    4.77    0.61
  -5  -9   2    4.91    0.65
   5   9  -1   22.42    1.64
  -5  -9   1   22.78    1.29
   5   9   0    0.36    0.28
  -5  -9   0    0.16    0.18
   5   9   1   19.18    1.43
  -5  -9  -1   20.33    1.04
   5   9   2    9.31    0.96
  -5  -9  -2    9.66    0.66
   5   9   3    0.90    0.34
  -5  -9  -3    0.98    0.22
  -5  -9  -4    2.62    0.31
   5   9   4    3.50    0.59
  -5  -9  -5    0.64    0.15
   5   9   5    1.23    0.39
  -5  -9  -5    0.82    0.28
   5   9   6    3.25    0.55
  -5  -9  -6    3.53    0.47
  -5  -9  -6    4.09    0.39
  -5  -9  -6    3.79    0.37
   5   9   7    1.57    0.38
  -5  -9  -7    2.36    0.39
  -5  -9  -7    1.74    0.27
  -5  -9  -8    8.11    1.19
  -5  -9  -8    7.64    0.61
   5   9   8    8.81    0.90
  -5  -9  -9    2.86    0.72
   5   9   9    3.18    0.56
  -5  -9 -10    8.54    1.26
   5   9  10    8.70    0.88
  -5  -9 -11    3.75    0.86
   5   9  11    4.34    0.63
  -5  -9 -12    3.52    0.95
  -5  -9 -13   13.78    1.70
  -5 -10  10    0.00    0.55
  -5 -10   9   -0.44    0.42
  -5 -10   8   -0.25    0.41
   5  10  -8    0.63    0.56
   5  10  -7    0.60    0.42
  -5 -10   7    0.18    0.36
   5  10  -6    5.39    1.04
  -5 -10   6    5.73    0.91
   5  10  -5   -0.48    0.42
  -5 -10   5   -0.11    0.27
   5  10  -4    4.34    0.87
  -5 -10   4    4.29    0.73
   5  10  -3   10.59    1.23
  -5 -10   3   12.42    1.13
   5  10  -2    6.96    1.00
   5  10  -2    9.69    0.90
  -5 -10   2    9.04    0.91
   5  10  -1    8.10    1.01
  -5 -10   1    9.17    0.87
   5  10   0    0.73    0.35
  -5 -10   0    0.09    0.17
   5  10   1   24.58    1.68
  -5 -10  -1   24.80    1.26
   5  10   2    0.60    0.34
  -5 -10  -2    0.06    0.15
  -5 -10  -3    8.08    0.64
   5  10   3    7.27    0.87
  -5 -10  -4    6.83    0.56
   5  10   4    5.32    0.73
   5  10   5   14.89    1.19
  -5 -10  -5   17.68    0.89
  -5 -10  -5   17.32    1.11
  -5 -10  -6    1.01    0.24
   5  10   6    0.61    0.24
  -5 -10  -7    3.09    0.72
  -5 -10  -7    3.06    0.40
   5  10   7    3.39    0.57
  -5 -10  -8    0.55    0.45
   5  10   8    0.07    0.19
   5  10   9    3.34    0.54
  -5 -10  -9    2.61    0.66
  -5 -10 -10    0.67    0.56
  -5 -10 -11    0.46    0.34
  -5 -10 -12    8.35    1.36
  -5 -11   9    0.56    0.53
  -5 -11   8    0.45    0.33
  -5 -11   7    0.57    0.38
   5  11  -7    0.33    0.36
   5  11  -6    0.24    0.26
  -5 -11   6   -0.26    0.41
   5  11  -5    0.31    0.39
  -5 -11   5    0.07    0.31
   5  11  -4    0.62    0.35
  -5 -11   4    1.39    0.47
   5  11  -3    7.33    1.10
  -5 -11   3    8.68    1.00
   5  11  -2    7.06    1.03
  -5 -11   2    7.84    0.91
   5  11  -1   22.30    1.75
  -5 -11   1   20.13    1.35
   5  11   0    4.18    0.75
  -5 -11   0    4.65    0.63
   5  11   1   35.48    2.10
  -5 -11  -1   37.88    1.69
   5  11   2    9.14    1.03
  -5 -11  -2   10.59    0.85
   5  11   3   33.04    1.92
  -5 -11  -3   36.04    1.51
   5  11   4    0.80    0.39
  -5 -11  -4    0.68    0.26
   5  11   5   21.17    1.45
  -5 -11  -6    3.54    0.76
   5  11   6    3.20    0.57
  -5 -11  -7   10.55    1.36
   5  11   7    9.81    0.94
  -5 -11  -8    2.24    0.66
  -5 -11  -9    1.88    0.66
  -5 -11 -10   -0.22    0.36
  -5 -11 -11   -0.06    0.38
  -5 -12   9    1.57    0.65
  -5 -12   8    1.25    0.57
  -5 -12   7    0.52    0.40
   5  12  -6    1.00    0.60
  -5 -12   6    1.35    0.51
   5  12  -5   -0.20    0.34
  -5 -12   5    0.76    0.45
   5  12  -4    0.29    0.47
  -5 -12   4    0.03    0.29
   5  12  -3    1.00    0.48
  -5 -12   3    0.22    0.31
   5  12  -2    1.57    0.66
  -5 -12   2    1.08    0.42
   5  12  -1    2.55    0.69
  -5 -12   1    3.42    0.62
   5  12   0    4.12    0.77
  -5 -12   0    4.34    0.64
   5  12   1    6.24    0.92
  -5 -12  -1    6.10    0.72
   5  12   2    9.95    1.12
  -5 -12  -2    9.74    0.88
   5  12   3   14.20    1.30
   5  12   4   -0.02    0.25
   5  12   5   25.88    1.65
  -5 -12  -5   23.31    1.98
  -5 -12  -6    0.18    0.43
   5  12   6    0.12    0.23
  -5 -12  -7   16.05    1.70
  -5 -12  -8    1.70    0.65
  -5 -12  -9    3.91    0.94
  -5 -12 -10    2.04    0.74
  -5 -13   7    1.67    0.61
  -5 -13   6    0.73    0.37
   5  13  -5    2.35    0.77
  -5 -13   5    2.31    0.68
  -5 -13   4    2.98    0.69
   5  13  -4    3.70    0.87
   5  13  -3    0.43    0.51
  -5 -13   3   -0.60    0.41
   5  13  -2   -0.21    0.31
  -5 -13   2   -0.04    0.20
   5  13  -1    0.27    0.38
   5  13   0    3.13    0.70
   5  13   1    0.53    0.39
   5  13   2    3.59    0.76
   5  13   3    3.51    0.67
  -5 -13  -3    4.86    0.94
  -5 -13  -4    4.00    0.80
  -5 -13  -5    8.44    1.25
  -5 -13  -6    1.82    0.65
  -5 -13  -7    5.01    0.99
  -5 -13  -8    0.14    0.29
   5  14  -3    2.69    0.73
   5  14  -2    2.94    0.78
   5  14  -1    0.49    0.27
   5  14   0    0.75    0.39
   5  14   1    0.45    0.44
  -5 -14  -1   -0.32    0.25
  -5 -14  -2    0.47    0.34
  -5 -14  -3    0.14    0.36
  -5 -14  -4   -0.02    0.43
  -5 -14  -5   -0.30    0.32
  -5 -14  -6    4.03    0.94
  -5 -14  -7    9.75    1.37
  -5 -15  -3    0.10    0.31
  -5 -15  -4    0.09    0.30
  -5 -15  -5    0.52    0.58
   6 -12   3    0.15    0.34
   6 -12   4    3.82    0.77
   6 -12   5    0.27    0.37
   6 -12   6    3.20    0.81
   6 -11  -6    0.50    0.35
   6 -11  -5    5.21    1.00
   6 -11  -4    0.32    0.34
   6 -11  -3    6.75    1.03
   6 -11  -2    0.29    0.39
   6 -11  -1    1.69    0.63
   6 -11   0    1.08    0.62
   6 -11   1    0.28    0.44
   6 -11   2    0.33    0.35
   6 -11   3    2.38    0.67
   6 -11   3    2.72    0.74
   6 -11   4    2.54    0.68
   6 -11   4    2.22    0.70
   6 -11   5    1.03    0.49
   6 -11   6   10.91    1.42
   6 -11   7    1.17    0.63
   6 -10  -7    2.07    0.65
   6 -10  -6    5.06    1.01
   6 -10  -5    4.80    0.97
   6 -10  -4    4.57    0.87
   6 -10  -3   26.75    2.01
   6 -10  -2    0.71    0.55
   6 -10  -2    0.04    0.28
   6 -10  -1   16.13    1.41
   6 -10  -1   15.26    1.66
   6 -10   0    0.16    0.37
   6 -10   0    0.23    0.23
   6 -10   1    2.63    0.75
   6 -10   2    0.32    0.44
   6 -10   2    0.28    0.25
   6 -10   3    0.43    0.44
   6 -10   3    0.00    0.28
   6 -10   4    1.81    0.59
   6 -10   4    0.98    0.48
   6 -10   5    0.76    0.47
   6 -10   5   -0.06    0.39
   6 -10   6    5.32    0.99
   6 -10   6    3.54    0.88
   6 -10   7    1.40    0.51
   6 -10   7   -0.80    0.44
   6 -10   8    8.83    1.33
   6 -10   8    6.58    1.16
   6  -9  -8    0.63    0.45
   6  -9  -7    1.20    0.54
   6  -9  -6    6.07    1.09
   6  -9  -5    5.30    0.93
   6  -9  -4    7.34    1.10
   6  -9  -3   10.21    1.24
   6  -9  -2    7.02    0.96
   6  -9  -1   21.62    1.63
   6  -9  -1   21.36    1.89
   6  -9  -1   20.97    1.22
   6  -9   0    0.05    0.19
   6  -9   0    0.57    0.45
   6  -9   0   -0.05    0.33
   6  -9   1   39.26    2.52
   6  -9   1   36.54    1.85
   6  -9   2    1.81    0.45
   6  -9   2    1.46    0.61
   6  -9   3   12.76    1.45
   6  -9   3   10.18    1.21
   6  -9   4    0.64    0.40
   6  -9   4    0.99    0.48
   6  -9   5    9.47    1.22
   6  -9   5    8.53    1.21
   6  -9   6    0.63    0.46
   6  -9   6   -0.23    0.45
   6  -9   7   -0.37    0.49
   6  -9   7   -0.85    0.45
   6  -9   8    0.12    0.41
   6  -9   8    0.43    0.48
   6  -9   9   -0.05    0.35
   6  -9   9    0.84    0.47
   6  -9  10    2.84    0.86
   6  -9  10    1.22    0.62
   6  -8  -9    1.04    0.55
   6  -8  -8    1.21    0.53
   6  -8  -7   -0.27    0.42
   6  -8  -6    3.97    0.86
   6  -8  -5    0.06    0.38
   6  -8  -4    7.94    1.11
   6  -8  -3    1.58    0.50
   6  -8  -2   12.29    1.24
   6  -8  -2   14.45    0.97
   6  -8  -1   16.56    1.41
   6  -8  -1   18.63    1.17
   6  -8   0    6.33    0.72
   6  -8   0    4.98    0.88
   6  -8   0    5.00    0.77
   6  -8   1   34.22    1.85
   6  -8   1   35.78    2.30
   6  -8   1   38.68    1.88
   6  -8   2    1.82    0.46
   6  -8   2    1.08    0.46
   6  -8   3   23.86    1.88
   6  -8   3   23.90    1.79
   6  -8   4    0.70    0.39
   6  -8   4   -0.03    0.27
   6  -8   5   19.52    1.74
   6  -8   5   20.05    1.72
   6  -8   6    1.60    0.61
   6  -8   6    1.44    0.50
   6  -8   7    4.84    0.90
   6  -8   7    4.48    0.89
   6  -8   8    1.03    0.48
   6  -8   8    1.48    0.57
   6  -8   9   -0.57    0.55
   6  -8   9   -0.20    0.34
   6  -8  10   -0.58    0.56
   6  -8  10    0.16    0.36
   6  -8  11    0.67    0.55
   6  -8  11   -0.26    0.42
   6  -7  -9    5.39    1.05
   6  -7  -8    3.62    0.91
   6  -7  -7    1.45    0.64
   6  -7  -6    0.45    0.43
   6  -7  -5    1.97    0.57
   6  -7  -4    0.99    0.43
   6  -7  -4    1.35    0.28
   6  -7  -3    0.06    0.15
   6  -7  -3    0.49    0.37
   6  -7  -2    9.85    1.12
   6  -7  -2    9.01    0.78
   6  -7  -1    8.17    0.98
   6  -7  -1    8.95    0.81
   6  -7   0    7.31    0.89
   6  -7   0    7.92    0.80
  -6   7  -1   22.41    1.44
   6  -7   1   23.56    1.52
   6  -7   1   24.20    1.79
   6  -7   1   25.16    1.49
  -6   7  -2   11.80    0.99
   6  -7   2   13.53    1.34
   6  -7   2   11.64    1.05
   6  -7   3   40.00    2.34
   6  -7   3   37.65    2.20
   6  -7   4   10.45    1.19
   6  -7   4   10.57    1.20
   6  -7   5   38.85    2.35
   6  -7   5   35.41    2.23
   6  -7   6    1.14    0.49
   6  -7   6    1.48    0.53
   6  -7   7   20.15    1.74
   6  -7   7   21.70    1.87
   6  -7   8    0.54    0.28
   6  -7   8    1.81    0.59
   6  -7   9    2.67    0.75
   6  -7   9    1.42    0.49
   6  -7  10    0.90    0.36
   6  -7  10    0.83    0.49
   6  -7  11   -0.39    0.52
   6  -7  11   -0.23    0.40
   6  -7  12    1.19    0.68
   6  -7  12    1.27    0.55
   6  -7  13    0.18    0.35
   6  -6 -10    1.62    0.59
   6  -6  -9    7.53    1.24
   6  -6  -8    3.83    0.88
   6  -6  -7   11.31    1.40
   6  -6  -6    8.84    0.75
   6  -6  -6    6.79    1.10
   6  -6  -5    0.03    0.15
   6  -6  -5   -0.17    0.40
   6  -6  -4    3.49    0.73
   6  -6  -4    2.85    0.45
   6  -6  -3    5.87    0.63
   6  -6  -3    5.78    0.88
   6  -6  -2   -0.11    0.22
   6  -6  -2   -0.06    0.30
   6  -6  -1    3.30    0.64
   6  -6  -1    4.20    0.57
   6  -6   0    8.99    0.98
   6  -6   0   10.84    0.93
   6  -6   1    4.15    0.60
  -6   6  -1    3.45    0.56
   6  -6   1    4.08    0.71
  -6   6  -2   26.76    1.51
   6  -6   2   28.77    1.86
   6  -6   2   29.44    1.66
   6  -6   3   32.21    1.97
   6  -6   3   31.97    1.97
   6  -6   4    2.40    0.63
   6  -6   4    1.33    0.46
   6  -6   5   17.17    1.47
   6  -6   5   15.89    1.48
   6  -6   6    9.16    1.17
  -6   6  -6    9.68    0.76
   6  -6   6   11.28    1.23
   6  -6   7   27.62    1.94
   6  -6   7   28.31    2.06
   6  -6   8   -0.13    0.41
   6  -6   8    0.38    0.30
   6  -6   9   19.96    1.74
   6  -6   9   21.83    1.90
   6  -6  10    2.61    0.70
   6  -6  10    2.13    0.69
   6  -6  11    3.34    0.86
   6  -6  11    2.12    0.71
   6  -6  12    0.76    0.51
   6  -6  12    0.23    0.34
   6  -6  13    0.85    0.56
   6  -6  14    0.53    0.51
   6  -5 -10    3.73    0.92
   6  -5  -9   14.59    1.71
   6  -5  -8    0.35    0.45
   6  -5  -7   24.00    2.02
   6  -5  -7   26.68    1.43
   6  -5  -6    1.23    0.35
   6  -5  -6    1.43    0.58
   6  -5  -5   10.74    1.27
   6  -5  -5    9.28    0.80
   6  -5  -4    2.41    0.63
   6  -5  -4    2.36    0.41
   6  -5  -3    0.56    0.24
   6  -5  -3   -0.06    0.32
   6  -5  -2    5.85    0.65
   6  -5  -2    4.45    0.75
   6  -5  -1    0.72    0.33
   6  -5  -1    0.74    0.27
  -6   5   0    9.97    0.99
   6  -5   0    9.48    0.99
   6  -5   0   10.05    0.88
   6  -5   1    2.65    0.50
  -6   5  -1    2.40    0.47
   6  -5   2    4.56    0.66
  -6   5  -2    5.17    0.67
   6  -5   2    3.77    0.67
   6  -5   3    2.12    0.51
   6  -5   3    2.23    0.55
   6  -5   4    8.49    1.02
   6  -5   4    9.78    1.03
   6  -5   5    3.84    0.73
   6  -5   5    4.02    0.67
   6  -5   6    7.63    1.01
   6  -5   6    8.03    0.99
  -6   5  -7   15.60    1.01
   6  -5   7   17.73    1.46
   6  -5   7   18.17    1.61
  -6   5  -8   18.25    1.07
   6  -5   8   22.58    1.71
   6  -5   8   20.15    1.74
   6  -5   9   40.91    2.37
   6  -5   9   37.99    2.47
   6  -5  10   -0.01    0.30
  -6   5 -10    0.21    0.14
   6  -5  10   -0.05    0.28
   6  -5  11   15.07    1.55
   6  -5  11   14.30    1.61
   6  -5  12   -0.39    0.48
   6  -5  12    0.01    0.36
   6  -5  13    3.07    0.84
   6  -5  13    0.97    0.43
   6  -5  14    1.29    0.64
   6  -5  15   -0.89    0.65
   6  -4 -11    2.25    0.78
   6  -4 -10   11.72    1.56
   6  -4  -9   12.92    1.12
   6  -4  -9   13.17    1.58
   6  -4  -8    2.49    0.48
   6  -4  -8    1.73    0.63
   6  -4  -7   11.51    1.00
   6  -4  -7    9.71    1.26
   6  -4  -6    0.09    0.21
  -6   4   6   -0.18    0.22
   6  -4  -6   -0.13    0.25
   6  -4  -5   25.10    1.88
   6  -4  -5   26.83    1.42
   6  -4  -4    1.39    0.47
   6  -4  -4    2.28    0.42
   6  -4  -3   19.58    1.54
   6  -4  -3   16.66    1.10
   6  -4  -2    7.63    0.75
   6  -4  -2    6.79    0.89
   6  -4  -1   27.42    1.72
   6  -4  -1   27.68    1.46
  -6   4   0   11.59    1.06
   6  -4   0    9.85    0.99
   6  -4   0   10.29    0.90
  -6   4  -1    0.56    0.31
   6  -4   1    0.59    0.24
  -6   4  -2    3.16    0.51
   6  -4   2    2.71    0.52
   6  -4   2    2.41    0.49
  -6   4  -3    6.28    0.71
   6  -4   3    5.43    0.75
   6  -4   3    6.56    0.80
   6  -4   4    0.30    0.25
   6  -4   4    0.54    0.31
   6  -4   5   11.54    1.08
   6  -4   5   11.37    1.18
   6  -4   6   30.45    1.80
   6  -4   6   28.93    1.92
   6  -4   7   14.49    1.28
   6  -4   7   14.48    1.39
   6  -4   8   27.52    1.80
   6  -4   8   29.22    2.06
   6  -4   9   47.67    2.45
   6  -4   9   44.67    2.61
   6  -4  10    0.78    0.53
  -6   4 -10    0.75    0.29
   6  -4  10    1.03    0.47
   6  -4  11   28.77    2.02
   6  -4  11   28.27    2.19
  -6   4 -11   25.82    1.43
   6  -4  12    0.11    0.35
   6  -4  12   -0.19    0.29
   6  -4  13   12.57    1.58
   6  -4  13   14.70    1.57
   6  -4  14    1.10    0.65
   6  -4  14    0.90    0.51
   6  -4  15    1.79    0.77
   6  -3 -11    0.00    0.42
   6  -3 -10    2.54    0.61
   6  -3 -10    2.24    0.71
   6  -3  -9    1.73    0.45
   6  -3  -9    1.33    0.50
   6  -3  -8    2.30    0.51
   6  -3  -8    1.84    0.60
   6  -3  -7   12.22    1.06
   6  -3  -7   11.11    1.34
  -6   3   7   11.52    1.00
  -6   3   6    0.56    0.24
   6  -3  -6    0.57    0.27
   6  -3  -6   -0.05    0.36
   6  -3  -5   20.47    1.68
   6  -3  -5   21.09    1.29
  -6   3   5   22.48    1.35
   6  -3  -4   11.52    1.22
   6  -3  -4   12.29    0.99
  -6   3   4   10.80    0.92
   6  -3  -3   55.54    2.60
   6  -3  -3   53.49    2.05
  -6   3   2    2.44    0.49
   6  -3  -2    2.39    0.44
   6  -3  -2    1.87    0.51
   6  -3  -1   60.11    2.55
   6  -3  -1   56.70    2.14
  -6   3   1   61.64    2.52
  -6   3   0    5.93    0.77
  -6   3   0    6.79    0.81
   6  -3   0    5.84    0.70
   6  -3   0    5.56    0.77
  -6   3  -1    6.65    0.77
   6  -3   1    7.24    0.78
   6  -3   2    1.25    0.36
   6  -3   2    0.72    0.28
  -6   3  -2    1.00    0.31
   6  -3   3    0.10    0.19
   6  -3   3    0.19    0.29
  -6   3  -3    0.10    0.18
   6  -3   4    6.49    0.74
   6  -3   4    5.96    0.85
   6  -3   5   15.36    1.17
   6  -3   5   14.20    1.27
   6  -3   6    3.27    0.71
   6  -3   6    3.47    0.58
   6  -3   7    0.04    0.27
   6  -3   7    0.14    0.28
   6  -3   8    5.47    0.90
   6  -3   8    5.41    0.76
   6  -3   9    8.67    0.99
   6  -3   9   10.92    1.25
   6  -3  10   16.21    1.40
   6  -3  10   17.59    1.63
  -6   3 -10   17.34    1.23
   6  -3  11   19.78    1.61
   6  -3  11   17.43    1.70
  -6   3 -11   19.14    1.32
   6  -3  12    0.65    0.41
  -6   3 -12    0.32    0.23
   6  -3  12    0.26    0.30
  -6   3 -13   23.44    1.54
   6  -3  13   22.65    1.90
   6  -3  13   21.38    1.98
   6  -3  14    0.82    0.52
   6  -3  14    0.54    0.54
   6  -3  15    9.51    1.41
   6  -3  15   10.39    1.38
   6  -3  16    0.16    0.37
   6  -2 -12    2.12    0.73
   6  -2 -11    1.28    0.43
   6  -2 -11    0.89    0.55
   6  -2 -10    5.09    0.83
   6  -2 -10    6.06    1.07
   6  -2  -9   -0.14    0.25
   6  -2  -9    0.01    0.42
   6  -2  -8    4.45    0.71
   6  -2  -8    5.34    1.01
   6  -2  -7    5.47    0.77
   6  -2  -7    5.16    0.90
   6  -2  -6   17.83    1.61
   6  -2  -6   18.28    1.29
  -6   2   6   17.09    1.23
   6  -2  -5   26.52    1.88
   6  -2  -5   24.38    1.44
  -6   2   5   22.12    1.38
   6  -2  -4   14.37    1.35
   6  -2  -4   13.61    1.06
  -6   2   4   13.94    1.07
   6  -2  -3   34.45    2.02
   6  -2  -3   33.95    1.66
  -6   2   3   34.03    1.68
   6  -2  -2    3.61    0.54
   6  -2  -2    3.27    0.63
  -6   2   2    4.28    0.66
  -6   2   1   73.67    2.77
   6  -2  -1   71.71    2.81
   6  -2  -1   74.19    2.48
  -6   2   1   72.75    2.71
  -6   2   0    3.32    0.60
  -6   2   0    3.95    0.60
   6  -2   0    3.88    0.57
  -6   2  -1   36.76    1.85
   6  -2   1   37.00    1.77
  -6   2  -1   38.80    1.96
  -6   2  -2   21.19    1.38
   6  -2   2   21.11    1.25
   6  -2   2   21.25    1.36
   6  -2   3   20.49    1.23
  -6   2  -3   20.85    1.33
   6  -2   3   20.16    1.35
  -6   2  -4   14.92    1.14
   6  -2   4   16.31    1.10
   6  -2   4   15.08    1.20
   6  -2   5    0.12    0.19
  -6   2  -5   -0.09    0.16
   6  -2   6    4.64    0.75
   6  -2   6    4.27    0.59
  -6   2  -6    4.32    0.62
   6  -2   7    1.17    0.40
   6  -2   7    1.45    0.38
   6  -2   8    0.28    0.35
   6  -2   8    0.16    0.25
  -6   2  -8    0.34    0.26
   6  -2   9    2.35    0.60
   6  -2   9    2.13    0.48
   6  -2  10    2.96    0.67
   6  -2  10    3.48    0.62
   6  -2  11    4.36    0.84
  -6   2 -11    3.51    0.61
   6  -2  11    4.44    0.76
   6  -2  12    7.47    1.11
   6  -2  12    8.32    1.06
  -6   2 -12    8.95    0.99
  -6   2 -13   19.34    1.48
   6  -2  13   20.92    1.74
   6  -2  13   22.98    2.00
   6  -2  14    2.65    0.77
  -6   2 -14    2.67    0.58
   6  -2  14    2.75    0.73
   6  -2  15    7.97    1.28
   6  -2  15    5.88    1.04
   6  -2  16    0.56    0.54
   6  -2  17    3.70    0.89
   6  -1 -12    2.69    0.83
   6  -1 -11    1.15    0.56
   6  -1 -11    0.62    0.41
   6  -1 -10    0.19    0.27
   6  -1 -10    1.24    0.61
   6  -1  -9   -0.08    0.29
   6  -1  -9   -0.03    0.41
   6  -1  -8   -0.30    0.25
   6  -1  -8    0.70    0.46
   6  -1  -7    3.55    0.65
   6  -1  -7    3.78    0.80
   6  -1  -6    2.85    0.52
   6  -1  -6    3.24    0.73
   6  -1  -5    0.23    0.22
   6  -1  -5    0.35    0.35
   6  -1  -4   18.30    1.51
   6  -1  -4   16.20    1.19
  -6   1   4   15.93    1.17
   6  -1  -3   14.45    1.30
   6  -1  -3   16.42    1.17
  -6   1   3   16.91    1.19
   6  -1  -2   20.49    1.51
   6  -1  -2   21.34    1.32
  -6   1   2   21.64    1.33
  -6   1   1   14.50    1.19
   6  -1  -1   14.62    1.08
  -6   1   1   15.57    1.21
  -6   1   1   16.46    1.17
  -6   1   0   24.12    1.52
   6  -1   0   23.27    1.37
  -6   1   0   24.22    1.51
  -6   1  -1  109.83    3.35
   6  -1   1  107.41    3.18
  -6   1  -1  118.07    3.49
  -6   1  -2    2.42    0.50
   6  -1   2    2.20    0.49
  -6   1  -2    3.23    0.57
  -6   1  -3  103.73    3.17
   6  -1   3  102.10    2.69
   6  -1   3  105.69    3.19
  -6   1  -3  103.60    3.35
   6  -1   4    0.51    0.24
   6  -1   4    0.52    0.18
  -6   1  -4    0.92    0.29
   6  -1   5   64.17    2.11
   6  -1   5   67.69    2.68
   6  -1   5   63.79    2.56
   6  -1   6   33.26    1.54
   6  -1   6   30.86    1.85
   6  -1   7   12.10    0.96
   6  -1   7   12.16    1.19
   6  -1   8    2.66    0.61
  -6   1  -8    2.79    0.48
   6  -1   8    2.52    0.45
   6  -1   9    3.74    0.71
  -6   1  -9    4.78    0.65
   6  -1   9    3.93    0.60
   6  -1  10    0.76    0.42
   6  -1  10    0.43    0.29
   6  -1  11   -0.44    0.46
  -6   1 -11   -0.14    0.26
   6  -1  11   -0.18    0.30
   6  -1  12    5.00    0.88
  -6   1 -12    5.26    0.80
   6  -1  12    5.50    0.86
   6  -1  13    1.02    0.38
  -6   1 -13    0.90    0.43
   6  -1  13    0.90    0.47
   6  -1  14    0.01    0.33
  -6   1 -14   -0.55    0.34
   6  -1  14   -0.47    0.34
   6  -1  15    4.63    1.01
  -6   1 -15    3.78    0.79
   6  -1  15    5.76    0.98
   6  -1  16    0.05    0.31
   6  -1  16    0.23    0.39
   6  -1  17    6.17    1.05
   6   0 -12   -0.21    0.37
   6   0 -11    8.08    1.21
   6   0 -11    9.33    1.36
   6   0 -10    1.11    0.46
   6   0 -10    1.73    0.59
   6   0  -9    6.28    0.89
   6   0  -9    6.18    1.04
   6   0  -8   10.30    1.30
   6   0  -8   10.98    1.15
   6   0  -7    1.81    0.50
   6   0  -7    0.74    0.39
   6   0  -6   -0.18    0.29
   6   0  -6   -0.14    0.37
   6   0  -5    1.51    0.41
   6   0  -5    1.68    0.53
   6   0  -4   15.51    1.36
   6   0  -4   15.07    1.17
   6   0  -4   13.85    1.18
  -6   0   4   15.99    1.20
   6   0  -3    6.73    0.78
   6   0  -3    7.14    0.80
   6   0  -3    6.44    0.86
  -6   0   3    6.56    0.77
  -6   0   2    0.82    0.28
   6   0  -2    0.38    0.27
   6   0  -2    0.33    0.27
  -6   0   1   25.70    1.61
   6   0  -1   23.40    1.41
  -6   0   1   25.83    1.48
  -6   0   0   28.48    1.67
   6   0   0   29.95    1.58
  -6   0   0   28.21    1.55
  -6   0  -1  200.66    4.75
   6   0   1  198.67    4.48
  -6   0  -1  196.03    4.70
  -6   0  -2    6.20    0.76
   6   0   2    6.07    0.74
  -6   0  -2    5.34    0.71
  -6   0  -3  107.07    3.27
   6   0   3   98.86    2.43
   6   0   3  104.89    3.18
  -6   0  -3  104.75    3.29
  -6   0  -4    1.11    0.32
   6   0   4    1.55    0.42
   6   0   4    1.24    0.26
   6   0   5   92.18    2.37
   6   0   5   93.44    3.14
   6   0   6   38.03    1.52
   6   0   6   38.11    2.01
   6   0   6   38.57    2.00
   6   0   7   22.80    1.21
   6   0   7   23.33    1.61
   6   0   8    7.12    0.93
  -6   0  -8    6.93    0.70
   6   0   8    6.40    0.68
   6   0   9    0.00    0.23
  -6   0  -9   -0.33    0.18
  -6   0 -10   18.19    1.25
   6   0  10   18.27    1.29
   6   0  10   15.39    1.43
   6   0  11    2.69    0.58
  -6   0 -11    3.68    0.71
   6   0  11    3.49    0.63
   6   0  12    0.08    0.29
  -6   0 -12    0.12    0.31
   6   0  12   -0.16    0.34
   6   0  13    0.10    0.32
  -6   0 -13    0.49    0.38
   6   0  13    0.55    0.38
   6   0  14    0.58    0.40
  -6   0 -14    1.11    0.42
   6   0  14    1.22    0.52
   6   0  15    2.41    0.74
  -6   0 -15    4.14    0.80
   6   0  15    2.71    0.69
   6   0  16    0.16    0.37
  -6   0 -16   -0.68    0.42
   6   0  17    0.48    0.41
   6   1 -13    3.43    0.94
   6   1 -12    0.68    0.51
   6   1 -11   11.27    1.35
   6   1 -11    7.39    1.21
   6   1 -10    0.37    0.42
   6   1 -10    0.27    0.38
   6   1  -9   16.30    1.66
   6   1  -9   17.84    1.57
   6   1  -8    2.44    0.59
   6   1  -8    2.65    0.67
   6   1  -7   10.24    1.11
   6   1  -7    9.44    1.21
   6   1  -6    5.97    0.81
   6   1  -6    5.72    0.91
   6   1  -5    2.64    0.54
   6   1  -5    1.81    0.50
   6   1  -4   27.53    1.83
   6   1  -4   25.59    1.57
   6   1  -4   24.27    1.53
   6   1  -3    1.93    0.49
   6   1  -3    1.87    0.44
   6   1  -3    2.13    0.47
   6   1  -2   11.02    0.99
  -6  -1   2   12.10    1.02
  -6  -1   1   13.26    1.16
   6   1  -1   11.47    0.99
   6   1  -1   11.20    0.85
  -6  -1   1   13.10    1.07
   6   1   0    6.51    0.75
  -6  -1   0    4.78    0.71
  -6  -1   0    4.80    0.64
  -6  -1  -1   16.17    1.24
   6   1   1   14.39    1.10
  -6  -1  -1   15.14    1.18
  -6  -1  -1   15.35    1.15
  -6  -1  -2    9.44    0.97
   6   1   2   10.87    0.96
  -6  -1  -2   10.51    0.98
   6   1   3   54.74    1.54
   6   1   3   57.63    2.30
  -6  -1  -3   56.88    2.33
  -6  -1  -4    0.55    0.26
   6   1   4    0.63    0.17
   6   1   4    0.26    0.25
   6   1   5   85.78    2.04
   6   1   5   82.93    2.92
  -6  -1  -5   88.13    3.06
   6   1   6    0.25    0.32
   6   1   6    0.07    0.11
   6   1   7   67.68    1.99
   6   1   7   66.19    2.72
  -6  -1  -8    9.12    0.73
   6   1   8    9.19    0.76
  -6  -1  -9   10.81    0.85
   6   1   9   10.66    0.89
   6   1   9   10.56    1.10
   6   1  10    5.12    0.81
  -6  -1 -10    3.29    0.51
   6   1  10    3.90    0.57
   6   1  11    4.78    0.84
  -6  -1 -11    5.16    0.68
   6   1  11    4.87    0.69
  -6  -1 -11    6.07    0.91
   6   1  12    5.86    0.90
  -6  -1 -12    5.21    0.86
   6   1  12    6.87    0.87
   6   1  13    0.51    0.36
  -6  -1 -13   -0.15    0.32
   6   1  13   -0.13    0.31
   6   1  14    0.94    0.45
  -6  -1 -14    1.42    0.50
   6   1  14    0.80    0.43
   6   1  15    0.50    0.36
  -6  -1 -15   -0.35    0.36
   6   1  15    0.86    0.44
   6   1  16    1.18    0.50
  -6  -1 -16    2.12    0.71
   6   1  16    2.58    0.63
   6   1  17    0.49    0.48
  -6  -1 -17   -0.09    0.34
   6   2 -13    1.57    0.72
   6   2 -12    1.40    0.60
   6   2 -12    0.16    0.35
   6   2 -11    8.37    1.18
   6   2 -11   11.74    1.49
   6   2 -10    0.01    0.28
   6   2 -10   -0.25    0.36
   6   2  -9   14.53    1.55
   6   2  -9   15.33    1.51
   6   2  -8    0.19    0.28
   6   2  -8    0.10    0.37
   6   2  -7   21.38    1.77
   6   2  -7   21.49    1.65
   6   2  -6   15.04    1.42
   6   2  -6   13.02    1.25
   6   2  -5   16.15    1.44
   6   2  -5   13.20    1.21
   6   2  -4   37.86    2.18
   6   2  -4   36.95    1.95
   6   2  -4   38.39    1.89
   6   2  -3    8.54    0.92
   6   2  -2   15.40    1.20
   6   2  -1    0.50    0.28
  -6  -2   1    0.36    0.17
   6   2  -1    0.83    0.25
  -6  -2   0    7.37    0.85
   6   2   0    6.09    0.74
   6   2   0    7.29    0.60
  -6  -2   0    6.75    0.77
  -6  -2  -1    0.11    0.15
   6   2   1   -0.21    0.26
  -6  -2  -1    0.26    0.24
   6   2   1    0.21    0.15
  -6  -2  -2   13.28    1.15
   6   2   2   11.07    0.99
  -6  -2  -2   14.25    1.13
  -6  -2  -3    0.65    0.30
   6   2   3    0.52    0.27
   6   2   3    0.20    0.09
   6   2   4   15.59    0.62
   6   2   4   13.89    1.12
  -6  -2  -4   16.10    1.23
   6   2   5   56.04    1.35
   6   2   5   56.35    2.36
  -6  -2  -5   59.88    2.43
   6   2   6   18.69    0.81
   6   2   6   18.54    1.36
   6   2   7   72.15    1.88
   6   2   7   71.75    2.82
   6   2   8    0.01    0.25
  -6  -2  -8    0.05    0.14
   6   2   8   -0.13    0.17
  -6  -2  -9   36.43    1.49
   6   2   9   35.84    1.54
   6   2   9   38.35    2.05
  -6  -2 -10    0.83    0.27
   6   2  10    0.67    0.21
   6   2  10    0.00    0.27
  -6  -2 -11   12.59    1.01
   6   2  11   12.82    1.04
   6   2  11   14.61    1.34
  -6  -2 -11   12.92    1.34
   6   2  12   32.81    1.79
   6   2  12   35.68    2.18
  -6  -2 -12   33.87    2.20
   6   2  13    0.92    0.39
  -6  -2 -13    0.12    0.28
   6   2  13    0.79    0.30
   6   2  14    0.26    0.33
  -6  -2 -14    0.12    0.36
   6   2  14    0.27    0.25
   6   2  15    0.90    0.42
  -6  -2 -15   -0.12    0.29
   6   2  15    0.46    0.40
   6   2  16   -0.17    0.28
  -6  -2 -16    0.36    0.38
   6   2  17    0.99    0.48
  -6  -2 -17    0.59    0.37
   6   3 -13   -0.98    0.63
   6   3 -12   -0.01    0.35
   6   3 -12    0.52    0.37
   6   3 -11    0.71    0.43
   6   3 -11    0.61    0.41
   6   3 -10   -0.05    0.30
   6   3 -10    0.41    0.35
   6   3  -9    9.29    1.20
   6   3  -9   10.02    1.31
   6   3  -8    0.40    0.31
   6   3  -8    0.31    0.39
   6   3  -7   14.14    1.42
   6   3  -7   15.68    1.44
   6   3  -6    6.81    0.95
   6   3  -6    4.88    0.82
   6   3  -5   52.11    2.48
   6   3  -5   48.09    2.21
   6   3  -4   24.76    1.64
   6   3  -4   22.59    1.40
   6   3  -3   21.62    1.49
   6   3  -2   29.39    1.71
   6   3  -2   25.45    1.29
   6   3  -1   41.81    1.98
   6   3  -1   37.78    1.45
  -6  -3   0   41.15    2.06
   6   3   0   38.00    1.89
   6   3   1    3.22    0.59
  -6  -3  -1    2.33    0.50
  -6  -3  -1    2.16    0.48
   6   3   1    2.39    0.27
   6   3   2   30.63    0.76
   6   3   2   33.25    1.72
  -6  -3  -2   33.40    1.75
   6   3   3    2.11    0.47
  -6  -3  -3    2.55    0.50
  -6  -3  -4    2.65    0.51
   6   3   4    2.36    0.50
   6   3   5    9.04    0.94
  -6  -3  -5    9.47    0.95
  -6  -3  -6    5.73    0.75
   6   3   6    6.19    0.33
   6   3   6    6.59    0.81
   6   3   7   25.28    0.89
   6   3   7   28.69    1.71
   6   3   8   16.84    0.84
   6   3   8   18.83    1.43
  -6  -3  -9   14.49    0.85
   6   3   9   12.79    0.83
   6   3   9   14.01    1.31
  -6  -3 -10    0.12    0.16
   6   3  10   -0.03    0.25
   6   3  10   -0.03    0.14
  -6  -3 -11   16.41    1.09
   6   3  11   16.59    1.40
  -6  -3 -11   16.41    1.53
  -6  -3 -12   -0.08    0.32
   6   3  12    0.28    0.26
  -6  -3 -13    3.53    0.81
   6   3  13    2.73    0.62
  -6  -3 -14    1.45    0.63
   6   3  14    1.35    0.50
   6   3  15    3.33    0.70
  -6  -3 -15    2.59    0.72
   6   3  16    0.95    0.34
  -6  -3 -16    1.05    0.51
  -6  -3 -17   -0.40    0.43
   6   4 -13   -2.45    0.77
   6   4 -12    1.98    0.65
   6   4 -11    0.07    0.33
   6   4 -11    0.94    0.45
   6   4 -10    0.32    0.38
   6   4 -10    0.16    0.36
   6   4  -9    0.08    0.30
   6   4  -9    0.05    0.33
   6   4  -8    6.59    0.98
   6   4  -8    5.16    0.90
   6   4  -7    0.15    0.27
   6   4  -6    1.48    0.51
   6   4  -5   35.69    2.12
   6   4  -5   32.86    1.78
   6   4  -4    2.52    0.58
   6   4  -4    1.27    0.34
   6   4  -3   52.83    2.41
   6   4  -2   10.11    1.03
   6   4  -2    6.82    0.64
   6   4  -1   39.64    1.99
   6   4  -1   34.89    1.32
   6   4   0   29.55    1.69
   6   4   0   26.78    0.99
   6   4   1    3.47    0.61
   6   4   1    3.99    0.28
   6   4   2   96.88    3.11
   6   4   3    2.50    0.49
  -6  -4  -4    3.08    0.55
   6   4   4    2.53    0.52
  -6  -4  -5    0.82    0.29
   6   4   5    1.06    0.36
   6   4   6   11.33    1.06
  -6  -4  -6   11.22    1.03
   6   4   7   19.89    1.43
   6   4   8    3.15    0.58
  -6  -4  -8    3.54    0.32
  -6  -4  -9    8.84    0.60
   6   4   9    8.64    0.98
  -6  -4 -10    3.36    0.43
   6   4  10    4.32    0.72
   6   4  11   24.16    1.75
  -6  -4 -11   26.69    2.01
   6   4  12    3.56    0.74
  -6  -4 -12    2.81    0.74
   6   4  13   28.25    2.00
  -6  -4 -13   28.78    2.22
   6   4  14   -0.12    0.32
  -6  -4 -14    0.24    0.49
  -6  -4 -15    3.32    0.85
   6   4  15    2.62    0.63
  -6  -4 -16    1.09    0.63
   6   5 -13   -0.02    0.31
   6   5 -12    1.70    0.60
   6   5 -11   -0.32    0.51
   6   5 -10   -0.60    0.61
   6   5  -9    0.03    0.31
   6   5  -8   -0.07    0.32
   6   5  -7   -0.68    0.44
   6   5  -6    1.89    0.57
   6   5  -5    7.13    1.00
   6   5  -4    3.67    0.73
   6   5  -4    2.96    0.51
   6   5  -3   29.52    1.84
   6   5  -2    0.51    0.27
   6   5  -2    0.14    0.12
   6   5  -1   30.27    1.79
   6   5  -1   27.09    1.15
   6   5   0   36.78    1.14
   6   5   0   38.22    1.97
   6   5   1   64.39    1.19
   6   5   1   64.98    2.57
   6   5   2   18.91    1.33
   6   5   3   37.66    1.90
   6   5   4   21.28    1.42
  -6  -5  -4   23.91    1.47
   6   5   5   24.24    1.54
  -6  -5  -5   24.50    1.49
   6   5   6    0.34    0.22
  -6  -5  -6    0.08    0.19
  -6  -5  -7    0.41    0.26
   6   5   7    0.52    0.35
   6   5   8   -0.09    0.25
  -6  -5  -8    0.11    0.06
  -6  -5  -9    2.41    0.29
   6   5   9    1.87    0.47
   6   5  10    4.23    0.73
   6   5  11   14.81    1.36
  -6  -5 -11   16.06    1.59
  -6  -5 -12    1.04    0.53
   6   5  12    0.44    0.28
   6   5  13   10.89    1.26
  -6  -5 -13   14.37    1.60
   6   5  14   -0.02    0.27
  -6  -5 -14    0.04    0.30
  -6  -5 -15    5.83    1.09
   6   5  15    5.62    0.96
   6   5  16   -0.18    0.31
   6   6 -11    0.70    0.56
   6   6 -10    5.01    1.02
   6   6  -9    0.96    0.50
   6   6  -8    2.49    0.68
   6   6  -7    0.45    0.40
   6   6  -6    1.09    0.36
  -6  -6   6    0.82    0.37
   6   6  -5    3.51    0.73
  -6  -6   5    2.99    0.60
   6   6  -4    2.98    0.66
   6   6  -4    2.47    0.48
  -6  -6   4    1.72    0.44
   6   6  -3   26.47    1.79
   6   6  -2    3.12    0.62
   6   6  -2    3.53    0.48
   6   6  -1   19.76    1.48
   6   6  -1   19.38    0.96
   6   6   0    0.03    0.08
   6   6   0    0.24    0.30
   6   6   1   35.70    1.94
   6   6   2   29.35    1.71
   6   6   3   55.85    2.40
   6   6   4  175.07    4.50
  -6  -6  -4  191.97    4.50
  -6  -6  -5    3.81    0.60
   6   6   5    2.57    0.53
   6   6   6   35.32    1.89
  -6  -6  -6   37.39    1.85
  -6  -6  -7   -0.16    0.17
   6   6   7   -0.15    0.29
   6   6   8   21.78    1.52
   6   6   9    0.95    0.32
   6   6  10    4.88    0.77
  -6  -6 -11    1.38    0.51
   6   6  11    1.84    0.50
  -6  -6 -12    1.93    0.63
   6   6  12    2.27    0.59
   6   6  13    3.55    0.70
  -6  -6 -13    5.02    1.02
   6   6  14    0.26    0.27
  -6  -6 -14    0.34    0.38
  -6  -6 -15    2.36    0.63
   6   6  15    3.14    0.72
   6   7 -10    2.43    0.85
  -6  -7  10    0.84    0.50
   6   7  -9    1.06    0.53
  -6  -7   9    2.47    0.71
   6   7  -8    9.07    1.26
  -6  -7   8    9.25    1.18
   6   7  -7    1.08    0.55
  -6  -7   7    0.52    0.38
   6   7  -6    7.61    1.08
  -6  -7   6    5.67    0.84
   6   7  -5   -0.26    0.37
  -6  -7   5    0.05    0.23
   6   7  -4    3.52    0.68
   6   7  -4    3.53    0.57
  -6  -7   4    3.68    0.61
   6   7  -3    0.17    0.28
   6   7  -3    0.27    0.20
  -6  -7   3    0.21    0.25
   6   7  -2    4.08    0.73
  -6  -7   2    2.85    0.48
   6   7  -1   -0.17    0.22
   6   7  -1    0.18    0.16
  -6  -7   1   -0.19    0.18
   6   7   0    3.59    0.37
   6   7   0    3.88    0.66
   6   7   1   33.68    1.90
   6   7   2    1.27    0.42
   6   7   3   19.26    1.40
   6   7   4    6.35    0.78
  -6  -7  -5    2.83    0.51
   6   7   5    3.11    0.59
   6   7   6   53.26    2.36
  -6  -7  -6   56.75    2.28
  -6  -7  -7    0.00    0.18
   6   7   7    0.15    0.25
   6   7   8   36.33    1.97
   6   7   9   18.48    1.42
  -6  -7 -10   12.29    1.45
   6   7  10   11.74    1.15
   6   7  11    0.28    0.20
  -6  -7 -11   -0.03    0.29
  -6  -7 -12   -0.60    0.48
   6   7  12   -0.26    0.33
  -6  -7 -13   -0.06    0.37
   6   7  13    0.19    0.30
  -6  -7 -14   -0.13    0.43
   6   7  14   -0.05    0.32
  -6  -8  11    1.63    0.67
  -6  -8  10   -0.67    0.51
   6   8  -9    6.77    1.18
  -6  -8   9    5.30    0.96
   6   8  -8    6.66    1.14
  -6  -8   8    7.23    1.07
   6   8  -7    5.86    1.05
  -6  -8   7    7.02    1.02
   6   8  -6   13.23    1.51
  -6  -8   6   11.71    1.23
   6   8  -5    1.29    0.51
  -6  -8   5    0.84    0.32
   6   8  -4    1.01    0.42
  -6  -8   4    0.64    0.33
   6   8  -3   10.85    1.22
   6   8  -3    8.64    0.82
  -6  -8   3    9.97    0.94
   6   8  -2    2.37    0.61
  -6  -8   2    2.27    0.45
   6   8  -1    0.23    0.26
   6   8  -1   -0.07    0.15
  -6  -8   1   -0.15    0.20
   6   8   0    4.73    0.75
  -6  -8   0    3.93    0.44
   6   8   1    2.81    0.59
  -6  -8  -1    2.46    0.29
   6   8   2    0.52    0.35
   6   8   3   30.38    1.80
   6   8   4    3.32    0.60
   6   8   5   46.45    2.23
  -6  -8  -5   51.20    2.18
  -6  -8  -6    4.87    0.65
   6   8   6    3.99    0.66
   6   8   7   23.52    1.56
  -6  -8  -7   23.00    1.42
   6   8   8    4.38    0.68
   6   8   9    4.40    0.70
   6   8  10   11.72    1.15
  -6  -8 -10   12.51    1.49
  -6  -8 -11   -0.18    0.38
   6   8  11    0.03    0.21
  -6  -8 -12    4.22    0.87
   6   8  12    2.86    0.60
   6   8  13    0.81    0.35
  -6  -8 -13   -0.13    0.45
  -6  -9  10   -0.64    0.61
  -6  -9   9    7.48    1.15
   6   9  -8    5.73    1.09
  -6  -9   8    3.26    0.78
   6   9  -7   10.25    1.38
  -6  -9   7    7.98    1.12
   6   9  -6   18.26    1.79
  -6  -9   6   15.64    1.45
   6   9  -5    3.02    0.75
  -6  -9   5    1.94    0.51
   6   9  -4    8.27    1.16
  -6  -9   4    8.73    0.95
   6   9  -3    1.14    0.53
  -6  -9   3    0.63    0.27
   6   9  -2   19.96    1.69
   6   9  -2   18.22    1.15
  -6  -9   2   17.59    1.20
   6   9  -1    1.88    0.50
  -6  -9   1    2.28    0.43
   6   9   0    3.91    0.72
  -6  -9   0    4.47    0.51
   6   9   1    0.08    0.25
  -6  -9  -1    0.22    0.13
   6   9   2    1.22    0.39
  -6  -9  -2    1.58    0.22
   6   9   3   16.58    1.35
   6   9   4    3.14    0.61
   6   9   5    0.83    0.34
  -6  -9  -5    2.59    0.51
  -6  -9  -6    2.10    0.42
   6   9   6    1.49    0.42
   6   9   7   14.04    1.21
   6   9   8    6.05    0.80
  -6  -9  -9   11.48    1.45
   6   9   9   13.18    1.20
  -6  -9 -10    2.38    0.73
   6   9  10    1.90    0.47
  -6  -9 -11    1.73    0.57
   6   9  11    0.74    0.27
  -6  -9 -12   11.72    1.58
  -6 -10  10    0.16    0.40
  -6 -10   9    2.41    0.74
  -6 -10   8   -0.10    0.43
   6  10  -7    6.35    1.12
  -6 -10   7    7.56    1.11
   6  10  -6    1.23    0.55
  -6 -10   6    0.09    0.37
   6  10  -5    9.58    1.33
  -6 -10   5    7.36    0.99
   6  10  -4   38.27    2.52
  -6 -10   4   33.19    1.96
   6  10  -3    3.68    0.82
  -6 -10   3    1.57    0.46
   6  10  -2   20.84    1.76
  -6 -10   2   19.24    1.32
   6  10  -1    3.80    0.76
  -6 -10   1    2.92    0.50
   6  10   0   15.51    1.45
  -6 -10   0   17.02    1.04
   6  10   1   -0.23    0.35
  -6 -10  -1   -0.17    0.17
   6  10   2   -0.22    0.28
  -6 -10  -2    0.01    0.11
   6  10   3    2.26    0.55
   6  10   4    0.33    0.21
   6  10   5    0.35    0.22
   6  10   6    4.19    0.68
   6  10   7    9.64    1.03
   6  10   8    0.22    0.21
  -6 -10  -8    0.69    0.56
   6  10   9    7.25    0.90
  -6 -10  -9    8.50    1.28
   6  10  10    2.65    0.55
  -6 -10 -10    1.84    0.55
  -6 -10 -11    6.75    1.22
  -6 -11   9    0.05    0.32
  -6 -11   8    0.91    0.55
  -6 -11   7    1.99    0.57
   6  11  -6    0.04    0.38
  -6 -11   6    0.28    0.34
   6  11  -5    3.19    0.87
  -6 -11   5    3.70    0.78
   6  11  -4    5.23    0.96
  -6 -11   4    4.70    0.79
   6  11  -3    5.20    0.96
  -6 -11   3    5.08    0.77
   6  11  -2   10.56    1.32
  -6 -11   2   11.33    1.06
   6  11  -1    0.84    0.45
  -6 -11   1    1.19    0.37
   6  11   0   16.40    1.53
   6  11   1    0.41    0.28
   6  11   2    6.16    0.89
   6  11   3    0.40    0.30
   6  11   4    1.84    0.52
   6  11   5    0.12    0.23
   6  11   6    1.40    0.42
   6  11   7    3.40    0.62
  -6 -11  -7    4.41    0.95
  -6 -11  -8   -0.57    0.55
   6  11   8    0.51    0.36
  -6 -11  -9    0.07    0.41
  -6 -11 -10    0.10    0.41
   6  12  -5    2.12    0.73
   6  12  -4    1.08    0.50
   6  12  -3   11.88    1.47
   6  12  -2    2.88    0.77
   6  12  -1   11.24    1.38
   6  12   0    8.94    1.18
   6  12   1    8.01    1.08
   6  12   2   15.19    1.45
   6  12   3    0.54    0.39
   6  12   4    8.87    1.06
   6  12   5    0.50    0.37
   6  12   6    3.57    0.67
  -6 -12  -6    3.00    0.81
  -6 -12  -7    4.39    0.99
  -6 -12  -8   -0.09    0.33
  -6 -12  -9    1.53    0.58
   6  13  -4    0.75    0.45
   6  13  -3   -0.09    0.27
   6  13  -2    0.32    0.28
   6  13  -1    4.56    0.92
   6  13   0    2.97    0.78
   6  13   1    5.00    0.93
   6  13   2    2.79    0.66
   6  13   3    2.59    0.63
   6  13   4   14.86    1.40
  -6 -13  -5    1.84    0.66
  -6 -13  -6    6.18    1.09
  -6 -13  -7   -0.39    0.47
   6  14  -2    0.32    0.38
   6  14  -1    4.66    0.95
   6  14   0   -0.15    0.31
   6  14   1    4.97    0.90
   6  14   2    2.01    0.63
  -6 -14  -3   11.94    1.48
  -6 -14  -4    3.34    0.84
  -6 -14  -5    6.36    1.14
  -6 -14  -6    3.40    0.93
  -6 -15  -3    2.63    0.79
  -6 -15  -4    1.17    0.57
   7 -11   5   11.97    1.51
   7 -11   6    0.87    0.54
   7 -10  -6    1.57    0.72
   7 -10  -5   -0.33    0.50
   7 -10  -4    4.50    0.90
   7 -10  -3    1.01    0.36
   7 -10  -2    0.99    0.44
   7 -10  -1    3.81    0.89
   7 -10  -1    3.20    0.76
   7 -10   0    1.69    0.63
   7 -10   1    1.23    0.55
   7 -10   2   -0.87    0.51
   7 -10   3   -0.73    0.36
   7 -10   3    0.11    0.40
   7 -10   4    3.96    0.74
   7 -10   4    4.92    1.01
   7 -10   4    3.79    0.81
   7 -10   5   10.44    1.44
   7 -10   5   10.44    1.38
   7 -10   6   -0.07    0.33
   7 -10   7    7.79    1.27
   7  -9  -6    1.30    0.64
   7  -9  -5    6.76    1.12
   7  -9  -4    2.69    0.70
   7  -9  -3    1.52    0.59
   7  -9  -2    2.80    0.67
   7  -9  -1    0.88    0.48
   7  -9  -1    0.33    0.33
   7  -9   0    0.36    0.33
   7  -9   0   -0.02    0.34
   7  -9   1    2.65    0.54
   7  -9   1    2.48    0.68
   7  -9   2    1.25    0.40
   7  -9   2    0.33    0.33
   7  -9   3   -1.33    0.45
   7  -9   3   -0.46    0.46
   7  -9   4    3.49    0.70
   7  -9   4    3.91    0.87
   7  -9   4    4.01    0.80
   7  -9   5    4.47    0.93
   7  -9   5    5.09    0.95
   7  -9   6    5.96    1.06
   7  -9   6    7.38    1.18
   7  -9   7   16.47    1.75
   7  -9   7   15.01    1.69
   7  -9   8    0.01    0.42
   7  -9   8   -0.24    0.41
   7  -8  -7    4.38    1.02
   7  -8  -6    0.43    0.43
   7  -8  -5   11.58    1.44
   7  -8  -4    1.27    0.59
   7  -8  -3   11.83    1.40
   7  -8  -2    9.40    1.20
   7  -8  -1    6.38    0.76
   7  -8  -1    3.61    0.71
   7  -8   0    6.82    0.81
   7  -8   0    5.84    0.97
   7  -8   0    5.63    0.85
   7  -8   1    0.03    0.32
   7  -8   1    1.53    0.40
   7  -8   2    1.17    0.42
   7  -8   2    1.25    0.53
   7  -8   3    0.95    0.41
   7  -8   3    0.62    0.35
   7  -8   4   -0.15    0.23
   7  -8   4    0.09    0.32
   7  -8   4   -0.32    0.34
   7  -8   5    0.21    0.31
   7  -8   5    0.55    0.44
   7  -8   6    1.99    0.65
   7  -8   6    1.49    0.55
   7  -8   7    4.74    0.99
   7  -8   7    3.31    0.76
   7  -8   8    1.68    0.64
   7  -8   8    2.18    0.73
   7  -8   9    5.86    1.13
   7  -8   9    7.28    1.21
   7  -8  10    0.76    0.60
   7  -7  -8    3.44    0.94
   7  -7  -7    0.43    0.52
   7  -7  -6    2.19    0.69
   7  -7  -5   10.83    1.39
   7  -7  -4    1.30    0.52
   7  -7  -3   16.38    1.61
   7  -7  -3   19.96    1.25
   7  -7  -2    1.87    0.42
   7  -7  -2    2.32    0.60
   7  -7  -1   15.15    1.41
   7  -7  -1   17.02    1.21
   7  -7   0   19.83    1.57
   7  -7   0   19.76    1.73
   7  -7   0   21.25    1.41
   7  -7   1    0.76    0.33
   7  -7   1    1.06    0.48
   7  -7   2   14.73    1.47
   7  -7   2   12.32    1.16
   7  -7   3    0.49    0.30
   7  -7   3    1.08    0.45
   7  -7   4    2.37    0.52
   7  -7   4    2.57    0.64
   7  -7   5    0.13    0.41
   7  -7   5    0.16    0.38
   7  -7   6    2.99    0.75
   7  -7   6    3.38    0.73
   7  -7   7    0.34    0.36
   7  -7   7   -0.05    0.44
   7  -7   8    1.02    0.53
   7  -7   8    1.66    0.58
   7  -7   9    4.08    0.92
   7  -7   9    3.25    0.77
   7  -7  10    0.68    0.47
   7  -7  10    1.68    0.59
   7  -7  11    9.94    1.39
   7  -7  12    1.95    0.68
   7  -6  -8   -0.12    0.39
   7  -6  -7    1.87    0.78
   7  -6  -6    2.76    0.79
   7  -6  -5    0.27    0.25
   7  -6  -5    0.22    0.44
   7  -6  -4    0.92    0.42
   7  -6  -4    0.71    0.33
   7  -6  -3   13.13    1.41
   7  -6  -3   12.11    0.99
   7  -6  -2    0.43    0.25
   7  -6  -2    0.96    0.41
   7  -6  -1   32.51    2.06
   7  -6  -1   31.96    1.70
   7  -6   0   10.20    1.13
   7  -6   0    9.63    0.99
   7  -6   1   27.58    1.92
   7  -6   1   27.52    1.66
   7  -6   2    5.00    0.74
   7  -6   2    3.40    0.70
  -7   6  -3   10.04    0.98
   7  -6   3    7.90    1.02
   7  -6   3    8.75    1.01
  -7   6  -4   14.56    1.14
   7  -6   4   13.71    1.36
   7  -6   4   11.81    1.30
   7  -6   4   14.18    1.31
   7  -6   5    4.71    0.81
   7  -6   5    5.19    0.92
   7  -6   6    5.95    0.99
   7  -6   6    5.88    0.93
   7  -6   7    0.06    0.44
   7  -6   7   -0.08    0.32
   7  -6   8    1.75    0.62
   7  -6   8    1.24    0.52
   7  -6   9    0.89    0.43
   7  -6   9   -0.55    0.43
   7  -6  10    0.41    0.44
   7  -6  10    0.02    0.37
   7  -6  11   -0.40    0.45
   7  -6  11    0.11    0.32
   7  -6  12    1.11    0.52
   7  -6  13    5.21    1.01
   7  -5  -9    1.22    0.59
   7  -5  -8   10.45    1.47
   7  -5  -7    0.51    0.48
   7  -5  -6    2.25    0.48
   7  -5  -6    2.10    0.72
   7  -5  -5    0.62    0.29
   7  -5  -5    0.61    0.38
   7  -5  -4   -0.64    0.44
   7  -5  -4    0.13    0.25
   7  -5  -3    2.04    0.42
   7  -5  -3    2.29    0.65
   7  -5  -2   18.43    1.58
   7  -5  -2   17.05    1.23
   7  -5  -1   15.76    1.41
   7  -5  -1   15.10    1.16
   7  -5   0    0.04    0.19
   7  -5   1   12.86    1.27
   7  -5   1   13.92    1.18
   7  -5   2    4.10    0.67
   7  -5   2    3.45    0.67
  -7   5  -3    9.31    0.95
   7  -5   3    9.22    1.05
   7  -5   3   10.94    1.10
  -7   5  -4    8.34    0.90
   7  -5   4    8.63    1.02
   7  -5   4    8.81    1.05
  -7   5  -5   10.00    0.92
   7  -5   5   12.80    1.26
   7  -5   5   11.58    1.30
  -7   5  -6   41.41    1.90
   7  -5   6   42.83    2.35
   7  -5   6   44.18    2.56
   7  -5   7    3.00    0.74
   7  -5   7    2.79    0.66
   7  -5   8    4.48    0.88
   7  -5   8    2.97    0.63
   7  -5   9   -0.05    0.33
   7  -5   9    0.33    0.29
   7  -5  10    3.36    0.75
   7  -5  10    2.86    0.70
   7  -5  11    0.67    0.47
   7  -5  11    0.57    0.40
   7  -5  12   -0.30    0.48
   7  -5  12   -0.47    0.40
   7  -5  13    1.09    0.55
   7  -5  14    0.66    0.45
   7  -4  -9    1.59    0.74
   7  -4  -8    7.26    0.87
   7  -4  -8    5.94    1.10
   7  -4  -7    1.28    0.39
   7  -4  -7    1.43    0.55
   7  -4  -6    9.62    0.96
   7  -4  -6    8.58    1.24
   7  -4  -5   -0.10    0.19
   7  -4  -5    0.80    0.34
   7  -4  -4    0.55    0.46
   7  -4  -4    0.20    0.24
   7  -4  -3   -0.11    0.23
   7  -4  -3    0.17    0.29
   7  -4  -2    0.79    0.33
   7  -4  -2    1.28    0.48
   7  -4  -1    1.16    0.35
   7  -4  -1    0.88    0.40
   7  -4   0   13.58    1.12
   7  -4   1   14.41    1.19
   7  -4   2    6.56    0.83
   7  -4   2    6.08    0.81
  -7   4  -3    6.86    0.84
   7  -4   3    7.37    0.90
   7  -4   3    5.96    0.82
   7  -4   4    4.63    0.73
  -7   4  -4    3.70    0.61
   7  -4   4    4.44    0.71
   7  -4   5    0.39    0.24
  -7   4  -5    0.64    0.25
   7  -4   5    0.25    0.32
   7  -4   5    0.23    0.27
  -7   4  -6    0.10    0.18
   7  -4   6    0.26    0.25
   7  -4   6   -0.12    0.28
   7  -4   7    8.78    1.15
   7  -4   7    8.86    1.03
  -7   4  -7    7.42    0.81
  -7   4  -8   17.02    1.23
   7  -4   8   17.47    1.45
   7  -4   8   15.25    1.55
   7  -4   9    2.80    0.70
   7  -4   9    2.13    0.58
   7  -4  10    9.88    1.31
   7  -4  10    7.45    1.02
   7  -4  11    0.25    0.43
   7  -4  11    0.13    0.30
   7  -4  12    0.97    0.45
   7  -4  12    1.03    0.46
   7  -4  13    0.13    0.37
   7  -4  13   -0.16    0.39
   7  -4  14    0.30    0.41
   7  -4  15    1.49    0.64
   7  -3 -10    2.73    0.86
   7  -3  -9    5.94    0.84
   7  -3  -9    8.56    1.33
   7  -3  -8    3.69    0.66
   7  -3  -8    4.39    0.90
   7  -3  -7    2.96    0.58
   7  -3  -7    4.78    1.00
   7  -3  -6   13.64    1.52
   7  -3  -6   18.34    1.36
   7  -3  -5    0.08    0.21
   7  -3  -5    0.43    0.39
   7  -3  -4    2.86    0.68
   7  -3  -4    2.68    0.51
   7  -3  -3    1.91    0.47
   7  -3  -3    1.73    0.58
   7  -3  -2    0.69    0.28
   7  -3  -2    0.95    0.38
   7  -3  -1   -0.04    0.22
   7  -3  -1   -0.04    0.31
   7  -3   0    0.69    0.30
   7  -3   1    6.74    0.83
   7  -3   2    1.90    0.43
   7  -3   2    2.24    0.48
   7  -3   3   33.94    1.79
   7  -3   3   30.87    1.82
  -7   3  -4   11.03    1.04
   7  -3   4   10.42    0.99
   7  -3   4   10.85    1.11
  -7   3  -5   60.70    2.47
   7  -3   5   60.87    2.47
   7  -3   5   63.01    2.77
  -7   3  -6   16.81    1.26
   7  -3   6   16.02    1.27
   7  -3   6   18.58    1.58
  -7   3  -7   29.11    1.68
   7  -3   7   31.62    1.82
   7  -3   7   31.44    2.11
   7  -3   8    2.10    0.59
   7  -3   8    1.93    0.50
  -7   3  -8    1.29    0.43
   7  -3   9   23.38    1.66
   7  -3   9   25.38    1.98
   7  -3  10   11.33    1.20
   7  -3  10   13.06    1.49
   7  -3  11    1.01    0.48
   7  -3  11    0.95    0.43
  -7   3 -11   -0.01    0.26
   7  -3  12    4.39    0.93
  -7   3 -12    4.19    0.68
   7  -3  12    3.73    0.78
   7  -3  13    1.13    0.53
   7  -3  13    1.27    0.51
   7  -3  14    1.27    0.53
   7  -3  14    1.48    0.62
   7  -3  15   -0.38    0.46
   7  -3  16    0.12    0.43
   7  -2 -10    0.13    0.26
   7  -2 -10    0.49    0.39
   7  -2  -9    8.47    1.04
   7  -2  -9    8.15    1.27
   7  -2  -8    5.95    0.85
   7  -2  -8    5.92    1.09
   7  -2  -7    3.20    0.62
   7  -2  -7    1.34    0.56
   7  -2  -6   13.33    1.20
   7  -2  -6   10.50    1.31
   7  -2  -5   12.78    1.43
   7  -2  -5   13.95    1.18
   7  -2  -4   12.30    1.38
   7  -2  -4   13.49    1.14
   7  -2  -3    0.57    0.27
   7  -2  -3   -0.06    0.36
   7  -2  -2   36.27    2.19
   7  -2  -2   37.10    1.88
   7  -2  -1    0.20    0.24
   7  -2   0    4.49    0.65
   7  -2   1    3.32    0.59
   7  -2   2    3.33    0.60
   7  -2   2    2.17    0.46
   7  -2   3    2.49    0.47
   7  -2   3    1.82    0.46
   7  -2   4   14.58    1.10
   7  -2   4   15.41    1.31
  -7   2  -5   14.59    1.22
   7  -2   5   14.97    1.11
   7  -2   5   15.01    1.32
   7  -2   6    0.68    0.26
  -7   2  -6    1.08    0.38
   7  -2   6    1.28    0.46
   7  -2   6    1.29    0.45
   7  -2   7   14.99    1.17
   7  -2   7   14.57    1.40
   7  -2   8    0.46    0.42
   7  -2   8    0.53    0.27
   7  -2   9   34.67    1.91
   7  -2   9   32.42    2.21
   7  -2  10    1.34    0.54
   7  -2  10    1.07    0.42
   7  -2  11    5.07    1.00
   7  -2  11    6.56    0.90
   7  -2  12    3.58    0.84
  -7   2 -12    4.00    0.67
   7  -2  12    5.09    0.85
   7  -2  13    1.29    0.55
  -7   2 -13    1.19    0.41
   7  -2  13    2.19    0.62
   7  -2  14   13.31    1.61
   7  -2  14   12.02    1.38
   7  -2  15   -0.49    0.40
   7  -2  16    2.26    0.68
   7  -1 -11    0.83    0.37
   7  -1 -11    0.96    0.65
   7  -1 -10    2.60    0.62
   7  -1 -10    1.84    0.64
   7  -1  -9    5.69    0.92
   7  -1  -9    6.67    1.18
   7  -1  -8    0.10    0.28
   7  -1  -8   -0.05    0.41
   7  -1  -7    7.25    0.97
   7  -1  -7    6.75    1.09
   7  -1  -6    0.82    0.40
   7  -1  -6    1.27    0.51
   7  -1  -5    7.42    0.92
   7  -1  -5    8.29    1.15
   7  -1  -4    9.14    0.97
   7  -1  -4    6.66    0.99
   7  -1  -3   25.82    1.89
   7  -1  -3   25.57    1.60
   7  -1  -2   89.79    3.04
   7  -1  -1    1.55    0.44
   7  -1   0   31.84    1.74
   7  -1   1    0.44    0.31
   7  -1   2    7.02    0.85
   7  -1   2    6.05    0.67
   7  -1   3    1.18    0.31
   7  -1   3    1.08    0.38
   7  -1   4    1.43    0.44
   7  -1   4    1.44    0.36
   7  -1   5    0.27    0.22
   7  -1   5   -0.07    0.31
   7  -1   6    1.57    0.35
   7  -1   6    2.49    0.58
   7  -1   7    4.07    0.58
   7  -1   7    2.58    0.63
   7  -1   7    3.06    0.61
   7  -1   8    1.61    0.41
   7  -1   8    0.86    0.38
   7  -1   9   12.33    1.07
   7  -1   9   14.80    1.45
   7  -1  10    0.33    0.41
   7  -1  10    0.69    0.36
   7  -1  11   34.00    1.98
   7  -1  11   36.76    2.43
   7  -1  12    1.87    0.64
  -7   1 -12    2.89    0.64
   7  -1  12    2.96    0.64
   7  -1  13    8.32    1.23
  -7   1 -13    8.40    1.06
   7  -1  13    6.87    0.99
   7  -1  14    4.98    0.98
  -7   1 -14    3.61    0.71
   7  -1  14    3.00    0.72
   7  -1  15    0.11    0.37
   7  -1  15    0.70    0.47
   7   0 -12   -0.13    0.39
   7   0 -11    0.57    0.39
   7   0 -11    0.22    0.51
   7   0 -10    0.10    0.29
   7   0 -10   -0.06    0.39
   7   0  -9    0.06    0.28
   7   0  -9   -0.25    0.49
   7   0  -8    0.48    0.36
   7   0  -8    1.58    0.61
   7   0  -7    3.10    0.66
   7   0  -7    3.33    0.82
   7   0  -6    4.95    0.80
   7   0  -6    5.27    0.95
   7   0  -5   17.84    1.63
   7   0  -5   17.26    1.39
   7   0  -4    8.12    0.93
   7   0  -4    8.37    1.08
   7   0  -3    0.67    0.34
   7   0  -3    0.60    0.32
   7   0  -2    4.97    0.72
   7   0  -1   10.01    1.01
   7   0   0   35.18    1.86
   7   0   1   12.59    1.12
   7   0   2   27.23    1.65
   7   0   3    3.18    0.60
   7   0   3    2.52    0.40
   7   0   4   18.76    1.05
   7   0   4   14.99    1.28
   7   0   5    0.22    0.32
   7   0   5    0.27    0.16
   7   0   6    4.98    0.77
   7   0   6    4.22    0.51
   7   0   7   13.31    0.95
   7   0   7   10.26    1.14
   7   0   8    0.43    0.32
   7   0   8   -0.14    0.20
   7   0   8    0.00    0.32
   7   0   9    5.82    0.70
   7   0   9    5.78    0.92
  -7   0 -10    7.30    0.79
   7   0  10    8.34    0.89
   7   0  10    7.62    1.06
   7   0  11    8.22    1.14
   7   0  11    8.15    0.93
   7   0  12    1.38    0.56
  -7   0 -12    0.81    0.42
   7   0  12    0.27    0.28
   7   0  13    9.48    1.25
  -7   0 -13    9.42    1.18
   7   0  13    8.49    1.04
   7   0  14    2.98    0.80
  -7   0 -14    3.75    0.76
   7   0  14    5.07    0.84
   7   0  15   11.59    1.48
  -7   0 -15    7.70    1.15
   7   0  15    9.02    1.18
   7   1 -12    4.21    0.87
   7   1 -11    0.94    0.56
   7   1 -11    0.44    0.37
   7   1 -10    2.61    0.71
   7   1 -10    1.29    0.61
   7   1  -9    0.35    0.27
   7   1  -9    0.03    0.36
   7   1  -8   -0.02    0.38
   7   1  -8    0.29    0.38
   7   1  -7    1.06    0.42
   7   1  -7    1.44    0.60
   7   1  -6    0.31    0.30
   7   1  -6   -0.24    0.35
   7   1  -5    0.78    0.39
   7   1  -5    0.72    0.35
   7   1  -4    1.04    0.41
   7   1  -4   -0.25    0.41
   7   1  -3   17.91    1.40
   7   1  -3   17.99    1.31
   7   1  -2    1.55    0.44
   7   1  -2    2.76    0.51
   7   1  -1   44.69    2.16
   7   1   0   14.97    1.23
   7   1   1   36.59    1.94
   7   1   2   37.02    1.95
   7   1   3    7.45    0.59
   7   1   3    7.83    0.93
   7   1   4   79.39    2.03
   7   1   4   76.18    2.94
   7   1   5    0.44    0.19
   7   1   5    0.99    0.37
   7   1   6   17.37    0.93
   7   1   6   17.48    1.41
   7   1   7    0.00    0.14
   7   1   7   -0.36    0.40
   7   1   8    6.39    0.63
   7   1   8    6.11    0.91
   7   1   9    8.80    1.10
   7   1   9    9.62    0.84
  -7  -1 -10   10.09    0.88
   7   1  10    9.26    0.87
   7   1  10   11.50    1.26
   7   1  11    1.09    0.35
   7   1  11    1.30    0.47
  -7  -1 -12    0.75    0.44
   7   1  12    0.34    0.31
   7   1  12    0.20    0.39
   7   1  13    5.67    0.96
  -7  -1 -13    5.96    0.97
   7   1  13    5.72    0.81
   7   1  14    0.57    0.44
  -7  -1 -14    0.01    0.32
   7   1  14    0.64    0.32
   7   1  15    4.12    0.88
  -7  -1 -15    3.48    0.78
   7   1  16    1.88    0.67
  -7  -1 -16   -0.08    0.27
   7   2 -12    2.32    0.69
   7   2 -11    0.07    0.33
   7   2 -11   -0.09    0.40
   7   2 -10    3.96    0.88
   7   2 -10    1.94    0.65
   7   2  -9   -0.11    0.33
   7   2  -9    0.22    0.32
   7   2  -8    2.35    0.66
   7   2  -8    2.52    0.73
   7   2  -7    0.82    0.36
   7   2  -7    1.16    0.54
   7   2  -6   -0.12    0.35
   7   2  -6    0.01    0.34
   7   2  -5    0.17    0.26
   7   2  -4    2.65    0.58
   7   2  -3    2.82    0.61
   7   2  -3    4.10    0.64
   7   2  -2    0.79    0.33
   7   2  -1    8.63    0.96
   7   2   0    0.97    0.38
   7   2   0    1.58    0.32
   7   2   1   37.86    1.40
   7   2   1   39.58    2.03
   7   2   2   21.48    0.91
   7   2   2   22.86    1.54
   7   2   3   10.65    0.60
   7   2   3   12.18    1.12
   7   2   4   57.91    1.42
   7   2   4   57.00    2.52
   7   2   5   14.02    0.66
   7   2   5   11.87    1.17
   7   2   6   51.23    1.41
   7   2   6   49.95    2.42
   7   2   7    3.51    0.68
   7   2   7    3.88    0.41
   7   2   8   10.50    0.72
   7   2   8   10.57    1.15
   7   2   9    0.15    0.30
   7   2   9    0.41    0.22
   7   2  10    0.67    0.44
   7   2  10    0.06    0.17
   7   2  11    2.51    0.64
   7   2  11    2.74    0.49
   7   2  12    0.07    0.38
   7   2  12    0.36    0.30
  -7  -2 -12    0.51    0.43
  -7  -2 -13    0.76    0.33
   7   2  13    1.09    0.37
   7   2  13    1.95    0.53
  -7  -2 -14    0.53    0.42
   7   2  14    0.27    0.38
  -7  -2 -15    3.17    0.76
   7   2  15    2.83    0.73
  -7  -2 -16   -0.91    0.47
   7   2  16   -0.51    0.40
  -7  -2 -17    0.86    0.51
   7   3 -12    0.08    0.43
   7   3 -12   -0.06    0.36
   7   3 -11    2.78    0.69
   7   3 -11    4.91    1.07
   7   3 -10    3.32    0.84
   7   3 -10    3.37    0.87
   7   3  -9    2.89    0.77
   7   3  -9    0.87    0.47
   7   3  -8    5.24    0.94
   7   3  -8    6.14    1.09
   7   3  -7    7.33    1.07
   7   3  -6    5.27    0.89
   7   3  -5    1.65    0.52
   7   3  -4    7.15    0.83
   7   3  -4    5.54    0.82
   7   3  -3    0.46    0.33
   7   3  -3    0.78    0.33
   7   3  -2    0.14    0.25
   7   3  -1    0.41    0.31
   7   3  -1    0.59    0.21
   7   3   0   15.57    1.29
   7   3   0   14.07    0.85
   7   3   1    2.98    0.58
   7   3   1    2.41    0.31
   7   3   2    0.95    0.40
   7   3   2    1.04    0.16
   7   3   2    0.73    0.14
   7   3   3   35.74    0.77
   7   3   3   38.45    2.03
   7   3   4    6.99    0.87
   7   3   5   25.60    1.69
   7   3   6   37.68    2.09
   7   3   7   16.84    0.60
   7   3   7   18.60    1.49
   7   3   8   17.47    0.76
   7   3   8   19.73    1.57
   7   3   9    1.73    0.51
   7   3   9    1.23    0.25
   7   3  10   47.65    1.68
   7   3  10   52.97    2.70
   7   3  11    0.07    0.36
   7   3  12    1.49    0.48
  -7  -3 -12    0.49    0.42
  -7  -3 -13   -0.43    0.47
   7   3  13   -0.21    0.33
  -7  -3 -14    0.63    0.36
   7   3  14    0.91    0.54
  -7  -3 -15   -0.42    0.36
   7   3  15    0.66    0.33
  -7  -3 -16    0.44    0.45
   7   3  16    0.48    0.37
   7   4 -12    1.36    0.56
   7   4 -11    1.63    0.71
   7   4 -11    1.39    0.56
   7   4 -10    5.23    1.02
   7   4  -9    1.68    0.62
   7   4  -8    7.79    1.15
   7   4  -7    4.50    0.87
   7   4  -6   26.98    1.99
   7   4  -5    0.20    0.33
   7   4  -4    5.25    0.84
   7   4  -4    5.04    0.68
   7   4  -3   -0.30    0.34
   7   4  -3   -0.09    0.14
   7   4  -2    4.67    0.76
   7   4  -1    1.51    0.30
   7   4  -1    1.54    0.47
   7   4   0    0.15    0.26
   7   4   0   -0.07    0.12
   7   4   1    2.69    0.59
   7   4   1    2.62    0.27
   7   4   2   -0.24    0.25
   7   4   3    3.03    0.58
   7   4   4    2.42    0.52
   7   4   5    5.85    0.80
   7   4   6    7.72    0.96
   7   4   7   32.69    1.97
   7   4   8   28.12    1.86
   7   4   9    1.49    0.51
   7   4  10   30.26    2.03
   7   4  11    0.31    0.47
   7   4  12   16.60    1.58
  -7  -4 -12   14.98    1.61
   7   4  13    0.95    0.49
  -7  -4 -13    0.88    0.57
  -7  -4 -14    1.62    0.59
   7   4  14    1.40    0.55
  -7  -4 -15   -0.11    0.40
   7   4  15    1.24    0.51
   7   4  16    0.26    0.34
   7   5 -10    0.97    0.61
   7   5  -9    2.49    0.71
   7   5  -8    0.77    0.46
   7   5  -7    4.01    0.87
   7   5  -6   14.04    1.49
   7   5  -5    4.24    0.80
   7   5  -4    8.76    1.10
   7   5  -4    9.17    0.91
   7   5  -3    6.17    0.93
   7   5  -3    4.96    0.62
   7   5  -2   -0.14    0.33
   7   5  -1    6.21    0.56
   7   5  -1    6.23    0.88
   7   5   0    6.14    0.46
   7   5   0    7.54    0.94
   7   5   1   61.96    1.18
   7   5   1   67.05    2.78
   7   5   2    6.37    0.89
   7   5   3    9.61    1.05
   7   5   4    0.27    0.26
   7   5   5   13.96    1.25
   7   5   6    0.21    0.24
   7   5   7    3.23    0.65
   7   5   8    3.16    0.66
   7   5   9   28.79    1.92
   7   5  10   32.14    2.09
   7   5  11    7.64    1.09
   7   5  12    9.12    1.16
  -7  -5 -12    9.42    1.31
  -7  -5 -13    2.49    0.73
   7   5  13    1.01    0.46
  -7  -5 -14    2.62    0.72
   7   5  14    3.19    0.79
  -7  -5 -15    1.00    0.47
   7   5  15    1.30    0.53
   7   5  16    3.75    0.86
   7   6 -10   -0.76    0.51
   7   6  -9    0.39    0.53
   7   6  -8   -1.35    0.55
   7   6  -7    3.17    0.82
   7   6  -6    2.36    0.59
   7   6  -5    5.46    0.97
   7   6  -4    2.67    0.61
   7   6  -4    4.23    0.61
   7   6  -3    3.60    0.71
   7   6  -3    3.60    0.53
   7   6  -2   21.37    1.67
   7   6  -1    0.46    0.17
   7   6  -1    0.66    0.36
   7   6   0   18.46    0.79
   7   6   0   17.69    1.46
   7   6   1    3.90    0.71
   7   6   2    0.63    0.37
   7   6   3    1.10    0.41
   7   6   4    9.30    1.06
   7   6   5    4.73    0.76
   7   6   6    1.65    0.47
   7   6   7    2.32    0.56
   7   6   8   -0.10    0.24
   7   6   9   11.39    1.20
   7   6  10    2.09    0.57
   7   6  11   12.41    1.31
  -7  -6 -12    4.55    0.95
   7   6  12    6.28    1.01
  -7  -6 -13    3.51    0.92
   7   6  13    2.15    0.64
  -7  -6 -14   10.28    1.49
   7   6  14    9.28    1.23
   7   6  15    0.54    0.36
   7   7  -9    0.69    0.48
   7   7  -8    0.93    0.58
   7   7  -7    1.04    0.57
   7   7  -6    1.19    0.47
   7   7  -5    6.80    1.06
   7   7  -4    4.29    0.81
   7   7  -3   13.37    1.40
   7   7  -3   11.84    0.95
   7   7  -2   18.22    1.59
   7   7  -1   12.78    1.31
   7   7  -1   11.59    0.75
   7   7   0   56.79    1.45
   7   7   0   55.91    2.69
   7   7   1   11.42    1.18
   7   7   2   54.62    2.60
   7   7   3    0.70    0.35
   7   7   4   18.30    1.47
   7   7   5    0.19    0.21
   7   7   6    0.87    0.34
   7   7   7    6.78    0.89
   7   7   8    0.06    0.30
   7   7   9   -0.07    0.32
   7   7  10   -0.62    0.36
   7   7  11    4.75    0.82
  -7  -7 -11    4.72    0.94
   7   7  12    4.57    0.84
  -7  -7 -12    3.11    0.81
  -7  -7 -13    4.82    1.06
   7   7  13    4.07    0.79
   7   7  14    5.49    0.88
   7   8  -8   -0.22    0.47
   7   8  -7   -0.17    0.35
   7   8  -6    0.36    0.35
   7   8  -5    5.09    0.93
   7   8  -4    1.56    0.58
   7   8  -3    0.48    0.36
   7   8  -2    1.61    0.49
   7   8  -1   32.78    2.14
   7   8   0   22.97    1.76
   7   8   1    5.92    0.88
   7   8   2   26.86    1.84
   7   8   3    0.74    0.29
   7   8   4   19.00    1.52
   7   8   5   14.94    1.35
   7   8   6    8.51    1.00
   7   8   7    2.72    0.63
   7   8   8    3.42    0.66
   7   8   9   -0.33    0.35
   7   8  10    0.30    0.25
  -7  -8 -11    1.08    0.56
   7   8  11   -0.02    0.32
  -7  -8 -12   -0.22    0.37
   7   8  12   -1.55    0.49
   7   8  13    0.91    0.43
  -7  -9   8    3.22    0.77
   7   9  -7    3.16    0.92
  -7  -9   7    3.77    0.83
   7   9  -6   -0.54    0.51
  -7  -9   6    0.19    0.29
   7   9  -5    1.12    0.64
  -7  -9   5    2.77    0.65
   7   9  -4   -0.04    0.33
  -7  -9   4    0.11    0.25
   7   9  -3    1.85    0.60
  -7  -9   3    1.22    0.40
   7   9  -2    0.36    0.28
  -7  -9   2    0.75    0.31
   7   9  -1    4.74    0.88
   7   9   0    1.81    0.62
   7   9   1   10.21    1.20
   7   9   2   19.39    1.59
   7   9   3   15.31    1.41
   7   9   4   23.03    1.72
   7   9   5    0.35    0.30
   7   9   6   15.18    1.36
   7   9   7   -0.09    0.27
   7   9   8    8.82    1.06
   7   9   9    1.47    0.44
   7   9  10   -0.56    0.34
  -7  -9 -10    0.05    0.47
  -7  -9 -11   -0.23    0.44
   7   9  11   -0.59    0.36
  -7 -10   9   -0.10    0.33
  -7 -10   8    4.85    0.97
  -7 -10   7   -0.75    0.42
   7  10  -6    0.65    0.58
  -7 -10   6    0.16    0.27
   7  10  -5    2.15    0.69
  -7 -10   5    0.80    0.35
   7  10  -4   -0.38    0.42
  -7 -10   4    0.26    0.23
   7  10  -3    0.61    0.44
   7  10  -2   -0.46    0.38
   7  10  -1    0.86    0.49
   7  10   0    0.19    0.31
   7  10   1    5.18    0.91
   7  10   2    3.42    0.75
   7  10   3    8.24    1.06
   7  10   4    9.89    1.15
   7  10   5    5.14    0.84
   7  10   6   18.61    1.54
   7  10   7    0.35    0.30
   7  10   8    9.42    1.10
   7  10   9    0.63    0.35
  -7 -10  -9    0.86    0.50
   7  10  10    3.83    0.73
  -7 -10 -10    3.36    0.88
   7  11  -5    1.55    0.56
   7  11  -4    2.68    0.77
   7  11  -3    0.59    0.47
   7  11  -2    2.94    0.70
   7  11  -1    3.34    0.78
   7  11   0   -0.08    0.38
   7  11   1    0.24    0.34
   7  11   2    0.06    0.32
   7  11   3    4.77    0.84
   7  11   4    0.07    0.34
   7  11   5    9.37    1.12
   7  11   6    6.48    0.93
   7  11   7    7.66    1.01
   7  11   8    4.84    0.78
  -7 -11  -9    0.39    0.42
   7  12  -3    3.03    0.81
   7  12  -2    2.50    0.77
   7  12  -1    3.42    0.83
   7  12   0    0.04    0.34
   7  12   1    1.96    0.58
   7  12   2   -0.09    0.35
   7  12   3    0.69    0.42
   7  12   4    1.12    0.47
   7  12   5    5.30    0.88
   7  12   6    3.55    0.71
   7  13  -2    6.66    1.16
   7  13  -1    0.58    0.39
   7  13   0    6.44    1.12
   7  13   1    2.20    0.65
   7  13   2    2.42    0.60
   7  13   3    2.75    0.70
   7  13   4    0.16    0.26
   7  14   0    2.72    0.75
   7  14   1    1.53    0.55
   7  14   2    6.26    1.04
   8 -10   6    4.96    0.93
   8  -9  -5    1.73    0.67
   8  -9  -4    0.24    0.38
   8  -9  -3   -0.16    0.35
   8  -9  -2    0.56    0.46
   8  -9  -1    3.31    0.79
   8  -9   0    0.64    0.40
   8  -9   1    1.90    0.57
   8  -9   2    0.47    0.47
   8  -9   3    7.28    1.01
   8  -9   3    8.40    1.29
   8  -9   4    5.89    1.11
   8  -9   4    7.76    1.06
   8  -9   5    4.95    0.89
   8  -9   5    4.79    0.99
   8  -9   6    8.16    1.28
   8  -9   6    6.96    1.05
   8  -9   6    9.91    1.37
   8  -8  -5    1.05    0.55
   8  -8  -4    1.47    0.54
   8  -8  -3    0.76    0.47
   8  -8  -2    0.92    0.42
   8  -8  -1   -1.48    0.59
   8  -8   0    0.76    0.44
   8  -8   1    2.28    0.58
   8  -8   1    1.78    0.56
   8  -8   2    0.21    0.36
   8  -8   2    0.03    0.36
   8  -8   3    7.75    1.04
   8  -8   3    8.42    1.24
   8  -8   4    0.96    0.51
   8  -8   4   -0.41    0.39
   8  -8   5   14.50    1.66
   8  -8   5   15.65    1.54
   8  -8   6   11.13    1.35
   8  -8   6   15.38    1.66
   8  -8   6   13.21    1.55
   8  -8   7    5.39    1.06
   8  -8   7    4.77    0.95
   8  -8   8   15.08    1.70
   8  -8   8   16.39    1.80
   8  -8   9    0.96    0.52
   8  -7  -6    4.89    1.06
   8  -7  -5    3.86    0.94
   8  -7  -4   15.21    1.68
   8  -7  -3    0.22    0.35
   8  -7  -2    3.29    0.81
   8  -7  -1   -0.21    0.30
   8  -7   0    0.12    0.25
   8  -7   0    0.18    0.26
   8  -7   1    0.17    0.30
   8  -7   1   -0.34    0.35
   8  -7   2   -0.10    0.25
   8  -7   2   -0.06    0.29
   8  -7   3    0.34    0.25
   8  -7   3    0.97    0.47
   8  -7   4    1.64    0.57
   8  -7   4    1.46    0.48
   8  -7   5    8.98    1.20
   8  -7   5    8.88    1.14
   8  -7   6    3.99    0.82
   8  -7   6    2.64    0.68
   8  -7   6    3.32    0.81
   8  -7   7    6.65    1.10
   8  -7   7    5.13    1.00
   8  -7   8    5.99    1.09
   8  -7   8    5.92    1.05
   8  -7   9    1.02    0.65
   8  -7   9    0.08    0.32
   8  -7  10    9.75    1.37
   8  -7  11   -0.06    0.38
   8  -6  -7    7.88    1.34
   8  -6  -6    4.90    1.04
   8  -6  -5    7.83    1.28
   8  -6  -4   18.18    1.83
   8  -6  -3    4.18    0.67
   8  -6  -3    3.69    0.85
   8  -6  -2   10.05    1.00
   8  -6  -2   10.26    1.31
   8  -6  -1    1.60    0.42
   8  -6   0    3.81    0.65
   8  -6   1    3.94    0.70
   8  -6   1    3.03    0.72
   8  -6   2    2.64    0.60
   8  -6   2    2.08    0.57
   8  -6   3    4.57    0.78
   8  -6   3    5.00    0.86
   8  -6   4    0.59    0.35
   8  -6   4    0.66    0.40
   8  -6   5    1.70    0.55
   8  -6   5    1.01    0.48
   8  -6   6    0.05    0.37
   8  -6   6   -0.30    0.30
   8  -6   6    0.34    0.31
   8  -6   7    8.09    1.12
   8  -6   7    8.97    1.32
   8  -6   8    2.73    0.77
   8  -6   8    2.52    0.65
   8  -6   9    4.08    0.98
   8  -6   9    3.08    0.78
   8  -6  10    1.88    0.65
   8  -6  10    3.23    0.81
   8  -6  11    3.81    0.83
   8  -6  12    3.48    0.84
   8  -5  -7    3.22    0.91
   8  -5  -6    0.89    0.55
   8  -5  -5    4.27    0.69
   8  -5  -5    4.55    0.97
   8  -5  -4   10.01    1.02
   8  -5  -4    8.48    1.23
   8  -5  -3   11.22    1.07
   8  -5  -3    9.57    1.30
   8  -5  -2   34.58    2.33
   8  -5  -2   32.06    1.83
   8  -5  -1    2.82    0.59
   8  -5   0   33.54    1.92
   8  -5   1    0.44    0.31
   8  -5   1    0.45    0.36
   8  -5   2    2.95    0.63
   8  -5   2    3.50    0.70
   8  -5   3    0.72    0.42
   8  -5   3    1.62    0.53
   8  -5   4    2.62    0.64
   8  -5   4    2.00    0.58
   8  -5   5    0.09    0.26
   8  -5   5    0.56    0.34
   8  -5   6    0.45    0.29
   8  -5   6    0.02    0.35
   8  -5   7    1.08    0.45
   8  -5   7    1.31    0.52
   8  -5   8    2.55    0.65
   8  -5   8    2.18    0.72
   8  -5   9    2.48    0.76
   8  -5   9    1.72    0.60
   8  -5  10    2.16    0.71
   8  -5  10    1.21    0.47
   8  -5  11    5.07    1.06
   8  -5  11    4.02    0.82
   8  -5  12    3.72    0.83
   8  -5  13    1.08    0.50
   8  -5  14    1.88    0.71
   8  -4  -8    1.12    0.66
   8  -4  -7    0.70    0.44
   8  -4  -6    1.00    0.38
   8  -4  -6    0.18    0.41
   8  -4  -5    1.18    0.39
   8  -4  -5    1.54    0.66
   8  -4  -4    4.28    0.89
   8  -4  -4    4.42    0.68
   8  -4  -3   13.80    1.52
   8  -4  -3   12.92    1.17
   8  -4  -2   20.20    1.78
   8  -4  -2   20.28    1.47
   8  -4  -1    0.72    0.37
   8  -4   0   54.83    2.47
   8  -4   1    3.95    0.71
   8  -4   2   72.50    2.96
   8  -4   2   72.71    2.98
   8  -4   3    1.11    0.33
   8  -4   3    1.46    0.46
   8  -4   4   38.48    2.14
   8  -4   4   46.26    2.45
   8  -4   5    1.01    0.37
   8  -4   5    0.43    0.39
   8  -4   6   -0.07    0.34
   8  -4   6   -0.11    0.30
   8  -4   7    4.82    0.77
   8  -4   7    3.77    0.83
   8  -4   7    3.18    0.71
   8  -4   8    0.30    0.27
   8  -4   8    0.01    0.33
   8  -4   9    0.80    0.55
   8  -4   9    0.24    0.32
   8  -4  10    0.63    0.45
   8  -4  10    0.53    0.37
   8  -4  11    1.14    0.61
   8  -4  11    0.85    0.49
   8  -4  12    0.22    0.44
   8  -4  12   -0.07    0.39
   8  -4  13    2.32    0.70
   8  -4  14    2.91    0.79
   8  -3  -8    3.02    0.65
   8  -3  -8    3.09    0.87
   8  -3  -7    1.48    0.47
   8  -3  -7    1.71    0.71
   8  -3  -6    1.63    0.50
   8  -3  -6    1.14    0.61
   8  -3  -5   -0.08    0.23
   8  -3  -5    0.33    0.35
   8  -3  -4    0.51    0.39
   8  -3  -4    0.21    0.23
   8  -3  -3    2.03    0.47
   8  -3  -3    2.97    0.80
   8  -3  -2    0.43    0.25
   8  -3  -1    4.44    0.72
   8  -3   0   18.58    1.45
   8  -3   1    5.54    0.79
   8  -3   2   39.54    2.09
   8  -3   2   43.61    2.28
   8  -3   3    6.31    0.90
   8  -3   3    4.61    0.71
   8  -3   4   24.63    1.61
   8  -3   4   27.87    1.88
   8  -3   5    0.85    0.40
   8  -3   5    0.91    0.36
   8  -3   6   27.88    1.73
   8  -3   6   28.85    2.00
   8  -3   7    6.26    0.98
   8  -3   7    6.10    0.85
   8  -3   8    3.61    0.67
   8  -3   8    3.35    0.79
   8  -3   9    0.30    0.32
   8  -3   9   -0.43    0.45
   8  -3  10    1.25    0.52
   8  -3  10   -0.28    0.36
   8  -3  11   -0.21    0.33
   8  -3  11   -0.13    0.33
   8  -3  12    0.87    0.56
   8  -3  12   -0.04    0.43
   8  -3  13    0.44    0.40
   8  -3  14    0.16    0.36
   8  -2  -9   -0.29    0.39
   8  -2  -9    0.55    0.62
   8  -2  -8    2.97    0.68
   8  -2  -8    1.07    0.40
   8  -2  -7    6.06    0.91
   8  -2  -7    4.62    1.00
   8  -2  -6    0.50    0.29
   8  -2  -6    0.78    0.41
   8  -2  -5    6.89    0.91
   8  -2  -5    7.84    1.21
   8  -2  -4    3.72    0.83
   8  -2  -4    2.89    0.61
   8  -2  -3    3.88    0.67
   8  -2  -3    3.02    0.75
   8  -2  -2    0.58    0.37
   8  -2  -1    2.29    0.53
   8  -2   0    5.28    0.80
   8  -2   1    5.83    0.82
   8  -2   2   16.05    1.23
   8  -2   2   15.16    1.33
   8  -2   3   26.94    1.58
   8  -2   3   27.20    1.82
   8  -2   4   21.12    1.41
   8  -2   4   20.00    1.59
   8  -2   5    2.95    0.66
   8  -2   5    1.52    0.40
   8  -2   6   17.13    1.27
   8  -2   6   16.38    1.51
   8  -2   7    3.23    0.62
   8  -2   7    3.18    0.74
   8  -2   8   34.94    1.92
   8  -2   8   40.53    2.48
   8  -2   9    0.79    0.38
   8  -2   9    1.26    0.50
   8  -2  10    7.86    0.96
   8  -2  10    8.66    1.25
   8  -2  11    0.34    0.38
   8  -2  11    0.06    0.24
   8  -2  12    0.25    0.32
  -8   2 -12   -0.41    0.40
   8  -2  13   -0.16    0.31
   8  -2  13    0.10    0.37
   8  -2  14    0.07    0.40
   8  -1 -10    5.09    0.96
   8  -1  -9    0.36    0.37
   8  -1  -9    0.40    0.57
   8  -1  -8   14.27    1.70
   8  -1  -8   13.93    1.42
   8  -1  -7    0.69    0.42
   8  -1  -7    1.33    0.55
   8  -1  -6    6.75    0.93
   8  -1  -6    5.70    1.05
   8  -1  -5    1.77    0.52
   8  -1  -5    1.95    0.60
   8  -1  -4   -0.09    0.28
   8  -1  -4    0.01    0.42
   8  -1  -3    4.50    0.75
   8  -1  -2    1.53    0.50
   8  -1  -1   -0.12    0.28
   8  -1   0    2.94    0.60
   8  -1   1    2.00    0.53
   8  -1   2    1.09    0.41
   8  -1   2    0.27    0.18
   8  -1   3   23.44    1.39
   8  -1   3   21.62    1.61
   8  -1   4   26.22    1.46
   8  -1   4   28.85    1.90
   8  -1   5    1.05    0.35
   8  -1   5    1.16    0.40
   8  -1   6   22.64    1.37
   8  -1   6   20.04    1.63
   8  -1   7   10.19    0.93
   8  -1   7   11.78    1.30
   8  -1   8   40.19    1.93
   8  -1   8   40.26    2.43
   8  -1   9    0.23    0.38
   8  -1   9    0.30    0.26
   8  -1  10   12.56    1.13
   8  -1  10   12.85    1.47
   8  -1  11    1.55    0.44
   8  -1  11    2.47    0.70
   8  -1  12    6.11    0.87
   8  -1  12    5.75    1.05
   8  -1  13    2.52    0.73
  -8   1 -13    1.36    0.55
   8  -1  13    2.44    0.61
   8  -1  14    4.53    0.98
  -8   1 -14    3.64    0.74
   8   0 -11    0.50    0.39
   8   0 -10    2.54    0.67
   8   0  -9    0.44    0.37
   8   0  -9    0.16    0.37
   8   0  -8    6.76    1.05
   8   0  -8    8.16    1.30
   8   0  -7    1.20    0.51
   8   0  -7    0.39    0.42
   8   0  -6   14.65    1.65
   8   0  -6   11.65    1.25
   8   0  -5    0.71    0.38
   8   0  -5    0.79    0.50
   8   0  -4   26.81    1.83
   8   0  -3    8.69    1.02
   8   0  -2   14.26    1.30
   8   0  -1    3.74    0.68
   8   0   0    1.92    0.53
   8   0   1   -0.02    0.22
   8   0   2    0.17    0.19
   8   0   2   -0.45    0.40
   8   0   3    0.77    0.36
   8   0   3    0.35    0.21
   8   0   4    1.41    0.47
   8   0   4    1.81    0.36
   8   0   5    3.22    0.45
   8   0   5    4.91    0.80
   8   0   6   12.73    0.93
   8   0   6   13.51    1.34
   8   0   7    7.32    0.73
   8   0   7    6.39    0.95
   8   0   8   24.27    1.37
   8   0   8   25.58    1.93
   8   0   9    5.26    0.67
   8   0   9    4.34    0.86
   8   0  10   25.10    1.52
   8   0  10   25.27    2.03
   8   0  11    0.22    0.27
   8   0  11    0.16    0.38
   8   0  11   -0.30    0.47
   8   0  12   12.13    1.17
   8   0  12   14.42    1.60
  -8   0 -13    2.00    0.58
   8   0  13    1.27    0.59
  -8   0 -14    5.67    0.99
   8   0  14    8.12    1.27
  -8   0 -15    1.18    0.55
   8   1 -11   -0.48    0.41
   8   1 -10    0.03    0.42
   8   1  -9    4.55    0.90
   8   1  -9    4.40    0.99
   8   1  -8    3.36    0.78
   8   1  -8    2.39    0.70
   8   1  -7    3.50    0.78
   8   1  -7    3.71    0.89
   8   1  -6   10.97    1.24
   8   1  -6   12.09    1.49
   8   1  -5    0.07    0.29
   8   1  -4   15.43    1.41
   8   1  -3    0.69    0.37
   8   1  -2   40.39    2.22
   8   1  -2   39.27    1.96
   8   1  -1   13.23    1.26
   8   1  -1   10.06    0.93
   8   1   0    1.52    0.47
   8   1   1    3.08    0.60
   8   1   2    0.04    0.13
   8   1   2   -0.03    0.29
   8   1   3    5.56    0.55
   8   1   3    6.11    0.87
   8   1   4   10.57    0.75
   8   1   4   11.24    1.18
   8   1   5   -0.09    0.30
   8   1   5    0.04    0.12
   8   1   6    7.91    0.65
   8   1   6    9.01    1.09
   8   1   7    0.91    0.40
   8   1   7    1.18    0.28
   8   1   8   11.51    0.85
   8   1   8   14.03    1.43
   8   1   9   16.47    1.08
   8   1   9   13.97    1.46
   8   1  10   12.32    0.99
   8   1  10   13.62    1.48
   8   1  11    1.92    0.63
   8   1  11    1.05    0.35
   8   1  12   20.28    1.87
  -8  -1 -13    0.87    0.57
   8   1  13   -0.50    0.44
   8   1  13   -0.23    0.46
  -8  -1 -14    8.38    1.21
   8   1  14    7.87    1.21
  -8  -1 -15    0.65    0.50
   8   1  15    0.35    0.33
  -8  -1 -16    1.72    0.65
   8   2 -11   -0.44    0.51
   8   2 -10   -0.15    0.35
   8   2 -10   -0.98    0.60
   8   2  -9    0.21    0.27
   8   2  -9   -0.45    0.52
   8   2  -8    0.80    0.50
   8   2  -8    0.28    0.43
   8   2  -7    5.84    0.99
   8   2  -6    6.55    0.99
   8   2  -5    4.64    0.80
   8   2  -4   27.63    1.93
   8   2  -3    2.45    0.60
   8   2  -2   28.22    1.87
   8   2  -2   28.46    1.61
   8   2  -1    0.15    0.25
   8   2   0   25.88    1.78
   8   2   1    6.20    0.88
   8   2   1    6.29    0.61
   8   2   2   14.63    0.82
   8   2   2   13.13    0.82
   8   2   2   14.85    1.32
   8   2   3   34.87    1.22
   8   2   3   34.80    2.06
   8   2   4    4.44    0.77
   8   2   4    4.43    0.39
   8   2   5   15.97    0.74
   8   2   5   16.00    1.43
   8   2   6    5.90    0.90
   8   2   6    5.85    0.45
   8   2   7   15.51    0.79
   8   2   7   16.30    1.52
   8   2   8    0.36    0.35
   8   2   8    0.47    0.20
   8   2   9    2.12    0.63
   8   2   9    1.21    0.29
   8   2  10    3.05    0.68
   8   2  10    2.42    0.40
   8   2  11    0.64    0.44
   8   2  12   10.20    1.34
   8   2  13    3.48    0.81
  -8  -2 -13    4.03    0.89
  -8  -2 -14   11.07    1.43
   8   2  14   10.66    1.42
  -8  -2 -15    0.37    0.36
  -8  -2 -16    5.11    1.04
   8   3 -10    0.61    0.45
   8   3  -9    0.29    0.46
   8   3  -8   -0.05    0.38
   8   3  -7    1.14    0.49
   8   3  -6    0.00    0.28
   8   3  -5    0.83    0.40
   8   3  -4    3.04    0.72
   8   3  -3    2.85    0.65
   8   3  -3    3.16    0.56
   8   3  -2   13.12    1.30
   8   3  -2   14.26    1.08
   8   3  -1    5.78    0.88
   8   3   0   18.00    1.50
   8   3   0   16.93    1.01
   8   3   1   16.30    0.88
   8   3   1   19.74    1.55
   8   3   2   30.12    1.01
   8   3   2   26.29    0.99
   8   3   2   31.20    1.94
   8   3   3   11.37    0.49
   8   3   3    8.59    0.45
   8   3   3   11.02    1.16
   8   3   4   16.47    1.44
   8   3   5   18.09    1.53
   8   3   6    9.51    1.12
   8   3   7    2.78    0.65
   8   3   8    1.55    0.54
   8   3   9    5.59    0.94
   8   3  10    0.94    0.49
   8   3  11    1.38    0.53
   8   3  12    4.48    0.91
  -8  -3 -13    2.03    0.67
   8   3  13    1.95    0.64
   8   3  14    6.54    1.11
  -8  -3 -14    4.24    0.94
  -8  -3 -15    0.46    0.43
   8   4 -10    0.59    0.62
   8   4  -9    3.71    0.88
   8   4  -8    0.26    0.47
   8   4  -7    3.05    0.79
   8   4  -6    0.13    0.42
   8   4  -5    0.48    0.40
   8   4  -4    2.60    0.67
   8   4  -3    4.19    0.79
   8   4  -3    2.16    0.45
   8   4  -2   -0.01    0.26
   8   4  -1    7.58    0.69
   8   4  -1    8.63    1.08
   8   4   0    6.11    0.90
   8   4   0    6.05    0.54
   8   4   1    1.45    0.46
   8   4   1    1.83    0.25
   8   4   2   40.09    2.26
   8   4   3   -0.09    0.30
   8   4   4   12.78    1.29
   8   4   5   -0.29    0.27
   8   4   6   21.85    1.69
   8   4   7    7.56    1.00
   8   4   8    2.65    0.68
   8   4   9    6.96    1.01
   8   4  10    0.39    0.38
   8   4  11    0.73    0.43
   8   4  12   -0.22    0.39
  -8  -4 -13    0.19    0.46
   8   4  13   -0.55    0.39
  -8  -4 -14   -0.65    0.46
   8   4  14   -0.27    0.38
   8   5  -9    3.00    0.82
   8   5  -8    2.83    0.76
   8   5  -7    7.90    1.23
   8   5  -6    0.59    0.43
   8   5  -5    4.81    0.92
   8   5  -4    8.36    1.16
   8   5  -3    0.55    0.38
   8   5  -2    9.82    1.19
   8   5  -1    2.39    0.38
   8   5  -1    2.70    0.70
   8   5   0   23.77    1.79
   8   5   0   20.75    0.91
   8   5   1   19.03    0.59
   8   5   1   20.69    1.67
   8   5   2   35.87    2.15
   8   5   3    2.18    0.64
   8   5   4   21.27    1.65
   8   5   5    2.27    0.57
   8   5   6   24.73    1.82
   8   5   7    5.90    0.89
   8   5   8   10.02    1.21
   8   5   9   18.49    1.64
   8   5  10    7.42    1.06
   8   5  11   14.32    1.51
   8   5  12    0.79    0.49
  -8  -5 -13    0.08    0.36
   8   5  13   -1.12    0.50
  -8  -5 -14    0.34    0.42
   8   5  14    0.34    0.30
   8   6  -8    3.00    0.85
   8   6  -7    5.29    1.01
   8   6  -6    7.77    1.27
   8   6  -5    5.03    0.93
   8   6  -4    3.59    0.82
   8   6  -3    5.36    0.94
   8   6  -2   -0.11    0.41
   8   6  -1   15.41    1.48
   8   6   0    2.45    0.65
   8   6   1    2.37    0.59
   8   6   2    6.17    0.92
   8   6   3    1.52    0.50
   8   6   4   14.78    1.40
   8   6   5    3.75    0.72
   8   6   6   11.93    1.26
   8   6   7    2.08    0.58
   8   6   8   42.23    2.45
   8   6   9   13.34    1.38
   8   6  10   12.85    1.38
   8   6  11    2.38    0.62
   8   6  12    1.38    0.59
  -8  -6 -12    1.27    0.53
  -8  -6 -13    3.33    0.86
   8   6  13    3.69    0.80
   8   6  14    2.51    0.67
   8   6  15   -0.37    0.38
   8   7  -7    3.69    0.89
   8   7  -6    3.28    0.84
   8   7  -5    3.05    0.82
   8   7  -4    7.04    1.11
   8   7  -3   13.85    1.54
   8   7  -2    1.16    0.54
   8   7  -1   18.56    1.67
   8   7   0    2.63    0.65
   8   7   1    5.01    0.85
   8   7   2    4.48    0.80
   8   7   3    0.42    0.34
   8   7   4    7.53    1.02
   8   7   5    2.81    0.66
   8   7   6   10.11    1.19
   8   7   7    0.94    0.41
   8   7   8   13.64    1.39
   8   7   9    1.34    0.49
   8   7  10    9.03    1.16
   8   7  11    2.41    0.64
   8   7  12    4.59    0.88
  -8  -7 -12    5.83    1.16
   8   7  13    3.47    0.81
   8   7  14    0.90    0.43
   8   8  -6    4.34    0.99
   8   8  -5   -0.50    0.42
   8   8  -4    7.87    1.20
   8   8  -3    6.02    1.04
   8   8  -2   17.24    1.71
   8   8  -1   12.36    1.41
   8   8   0    9.85    1.24
   8   8   1    7.09    1.04
   8   8   2    6.60    0.97
   8   8   3    3.36    0.75
   8   8   4    2.98    0.67
   8   8   5   -0.47    0.46
   8   8   6   -0.29    0.40
   8   8   7    0.58    0.41
   8   8   8    4.09    0.78
   8   8   9    0.21    0.25
   8   8  10   10.03    1.23
   8   8  11    0.24    0.31
   8   8  12   12.46    1.39
   8   8  13    0.94    0.40
   8   9  -5   -0.16    0.51
   8   9  -4    5.11    1.03
   8   9  -3    0.00    0.36
   8   9  -2   16.88    1.73
   8   9  -1    4.47    0.92
   8   9   0    8.18    1.18
   8   9   1    7.97    1.12
   8   9   2    8.17    1.12
   8   9   3   18.77    1.65
   8   9   4   -0.33    0.35
   8   9   5    8.72    1.15
   8   9   6    0.04    0.24
   8   9   7    0.31    0.34
   8   9   8    1.35    0.52
   8   9   9    0.70    0.46
   8   9  10    2.97    0.67
   8   9  11   -0.33    0.35
   8   9  12    8.85    1.17
   8  10  -4    0.80    0.53
   8  10  -3    0.05    0.34
   8  10  -2    5.06    1.00
   8  10  -1   -0.01    0.39
   8  10   0   14.22    1.57
   8  10   1    8.21    1.18
   8  10   2   14.65    1.53
   8  10   3   15.83    1.58
   8  10   4    5.06    0.88
   8  10   5    9.05    1.17
   8  10   6    2.72    0.66
   8  10   7    7.18    1.02
   8  10   8   -0.08    0.30
   8  10   9    0.72    0.36
   8  10  10    1.11    0.46
   8  11  -2    0.63    0.42
   8  11  -1    0.60    0.37
   8  11   0    0.40    0.33
   8  11   1    2.28    0.67
   8  11   2   11.25    1.41
   8  11   3    8.37    1.18
   8  11   4   13.72    1.47
   8  11   5   26.52    2.02
   8  11   6    7.60    1.08
   8  11   7    6.98    1.03
   8  11   8    0.95    0.44
   8  11   9    4.86    0.89
   8  12  -1    0.95    0.51
   8  12   0    0.26    0.42
   8  12   1    0.48    0.43
   8  12   2    0.23    0.29
   8  12   3   -0.43    0.35
   8  12   4    4.81    0.92
   8  12   5    1.78    0.55
   8  12   6    2.60    0.66
   8  12   7   11.35    1.30
   8  13   1    0.03    0.27
   8  13   2    0.55    0.39
   8  13   3   -1.01    0.50
   8  13   4    2.30    0.64
   8  13   5    0.64    0.40
   9  -9   5    7.71    1.19
   9  -9   6   -0.64    0.56
   9  -8  -3   -0.97    0.52
   9  -8   0    2.83    0.77
   9  -8   1    0.11    0.41
   9  -8   2   14.82    1.67
   9  -8   3    2.82    0.70
   9  -8   3    3.07    0.79
   9  -8   4    5.49    1.09
   9  -8   4    3.60    0.75
   9  -8   5    2.52    0.73
   9  -8   5    1.45    0.56
   9  -8   6    1.78    0.68
   9  -8   6    1.20    0.50
   9  -8   7    2.29    0.64
   9  -7  -4   -0.16    0.58
   9  -7  -3    0.37    0.50
   9  -7  -1    0.76    0.44
   9  -7   0    0.46    0.47
   9  -7   0    1.19    0.46
   9  -7   1    2.10    0.71
   9  -7   1    1.21    0.40
   9  -7   2    6.78    1.00
   9  -7   2    8.81    1.26
   9  -7   3    1.43    0.55
   9  -7   3    2.52    0.73
   9  -7   4   16.91    1.71
   9  -7   4   15.41    1.52
   9  -7   5    0.36    0.36
   9  -7   5    0.21    0.36
   9  -7   6   13.99    1.58
   9  -7   6   15.55    1.60
   9  -7   7    0.42    0.43
   9  -7   7    2.02    0.71
   9  -7   8    4.91    0.93
   9  -7   8    5.37    1.01
   9  -7   9    1.56    0.63
   9  -6  -5    8.70    1.38
   9  -6  -4    1.91    0.64
   9  -6  -3    2.97    0.79
   9  -6  -2    1.23    0.42
   9  -6  -1   -0.05    0.22
   9  -6   0    0.72    0.45
   9  -6   0    1.92    0.53
   9  -6   1   -0.47    0.49
   9  -6   1    0.15    0.27
   9  -6   2    3.48    0.74
   9  -6   2    3.12    0.79
   9  -6   3    2.92    0.67
   9  -6   3    3.43    0.79
   9  -6   4   17.49    1.67
   9  -6   4   18.16    1.65
   9  -6   5    0.20    0.35
   9  -6   5    0.40    0.39
   9  -6   6   10.58    1.30
   9  -6   6   11.88    1.40
   9  -6   7    3.16    0.79
   9  -6   7    0.55    0.35
   9  -6   8    7.15    1.17
   9  -6   8    6.56    1.06
   9  -6   9    9.53    1.37
   9  -6   9   12.32    1.46
   9  -6  10    2.98    0.78
   9  -6  11    3.60    0.84
   9  -5  -5    1.60    0.68
   9  -5  -4    2.72    0.80
   9  -5  -3   12.80    1.24
   9  -5  -3   10.96    1.47
   9  -5  -2    0.46    0.35
   9  -5  -1   14.06    1.31
   9  -5   0   -0.29    0.34
   9  -5   1   13.56    1.41
   9  -5   1   14.91    1.41
   9  -5   2    1.12    0.46
   9  -5   2    0.59    0.41
   9  -5   3    0.24    0.24
   9  -5   3    0.15    0.30
   9  -5   4    1.15    0.47
   9  -5   4    1.79    0.59
   9  -5   5    1.09    0.55
   9  -5   5    2.21    0.63
   9  -5   6   17.72    1.63
   9  -5   6   19.96    1.79
   9  -5   7    0.20    0.35
   9  -5   7    0.52    0.33
   9  -5   8    6.58    1.09
   9  -5   8    5.90    1.00
   9  -5   9    0.43    0.30
   9  -5   9    0.65    0.45
   9  -5  10    8.88    1.22
   9  -5  11    2.65    0.71
   9  -5  12   -0.16    0.33
   9  -4  -6    5.12    1.08
   9  -4  -5    1.65    0.51
   9  -4  -5    2.04    0.66
   9  -4  -4    5.08    0.81
   9  -4  -4    7.77    1.30
   9  -4  -3    5.30    0.82
   9  -4  -2    0.55    0.31
   9  -4  -1   16.32    1.45
   9  -4   0    0.95    0.46
   9  -4   1    6.04    0.92
   9  -4   1    5.86    0.89
   9  -4   2    0.77    0.42
   9  -4   2    0.75    0.41
   9  -4   3    3.04    0.69
   9  -4   3    3.55    0.70
   9  -4   4    0.57    0.38
   9  -4   4    0.05    0.33
   9  -4   5    2.03    0.59
   9  -4   5    1.62    0.52
   9  -4   6    0.35    0.35
   9  -4   6    1.22    0.48
   9  -4   7    1.01    0.45
   9  -4   7    1.94    0.59
   9  -4   8   10.93    1.25
   9  -4   8   11.73    1.42
   9  -4   9   -0.42    0.41
   9  -4   9    0.07    0.34
   9  -4  10    4.77    0.96
   9  -4  10    3.12    0.72
   9  -4  10    5.49    1.09
   9  -4  11   -0.04    0.32
   9  -4  12    6.31    1.03
   9  -3  -6    2.60    0.63
   9  -3  -6    2.86    0.86
   9  -3  -5   -0.05    0.27
   9  -3  -5    0.46    0.47
   9  -3  -4   11.38    1.21
   9  -3  -4   12.88    1.61
   9  -3  -3    3.54    0.69
   9  -3  -2    6.89    0.95
   9  -3  -1   12.08    1.24
   9  -3   0   21.61    1.65
   9  -3   1   24.11    1.70
   9  -3   1   24.14    1.79
   9  -3   2    0.38    0.30
   9  -3   2    0.85    0.32
   9  -3   3    1.92    0.58
   9  -3   3    1.64    0.48
   9  -3   4   -0.01    0.30
   9  -3   4    0.43    0.32
   9  -3   5    5.11    0.78
   9  -3   5    4.25    0.82
   9  -3   6    2.98    0.73
   9  -3   6    3.38    0.65
   9  -3   7    1.81    0.48
   9  -3   7    2.21    0.64
   9  -3   8   -0.17    0.38
   9  -3   8    0.27    0.28
   9  -3   9    2.58    0.72
   9  -3   9    2.52    0.59
   9  -3  10    6.42    0.94
   9  -3  10    7.16    1.15
   9  -3  11    0.18    0.34
   9  -3  11    0.49    0.44
   9  -2  -8    0.38    0.39
   9  -2  -7   -0.23    0.30
   9  -2  -7   -0.47    0.44
   9  -2  -6    0.86    0.44
   9  -2  -6    2.06    0.76
   9  -2  -5    1.47    0.47
   9  -2  -5    1.00    0.53
   9  -2  -4    5.37    0.87
   9  -2  -3    0.81    0.44
   9  -2  -2    8.65    1.07
   9  -2  -1    1.46    0.45
   9  -2   0   18.71    1.57
   9  -2   1   21.44    1.68
   9  -2   2    5.08    0.75
   9  -2   2    6.32    0.93
   9  -2   3   17.28    1.33
   9  -2   3   16.77    1.52
   9  -2   4    0.30    0.33
   9  -2   4    0.08    0.21
   9  -2   5   31.18    1.80
   9  -2   5   34.88    2.27
   9  -2   6    2.49    0.65
   9  -2   6    2.51    0.56
   9  -2   7    0.44    0.36
   9  -2   7    0.45    0.29
   9  -2   8   -0.05    0.20
   9  -2   8   -0.01    0.35
   9  -2   9   -0.19    0.44
   9  -2   9    0.42    0.28
   9  -2  10    2.09    0.64
   9  -2  10    2.26    0.55
   9  -2  11   -0.52    0.58
   9  -2  11    0.15    0.22
   9  -1  -9    3.46    0.81
   9  -1  -8    0.01    0.25
   9  -1  -7    2.72    0.68
   9  -1  -7    4.61    1.07
   9  -1  -6   -0.05    0.33
   9  -1  -6   -0.48    0.42
   9  -1  -5    0.80    0.44
   9  -1  -4    1.92    0.57
   9  -1  -3    0.71    0.42
   9  -1  -2    4.19    0.79
   9  -1  -1   -0.53    0.45
   9  -1   0   12.23    1.28
   9  -1   1    0.98    0.50
   9  -1   2   12.26    1.06
   9  -1   2   12.36    1.29
   9  -1   3   14.48    1.14
   9  -1   3   13.27    1.37
   9  -1   4    0.19    0.24
   9  -1   4    1.20    0.40
   9  -1   5   16.99    1.22
   9  -1   5   15.88    1.54
   9  -1   6    2.58    0.50
   9  -1   6    3.45    0.77
   9  -1   7    9.59    1.25
   9  -1   7   10.61    0.99
   9  -1   8   -0.30    0.38
   9  -1   8    0.22    0.23
   9  -1   9    0.94    0.34
   9  -1   9    1.27    0.50
   9  -1  10   -0.11    0.38
   9  -1  10   -0.37    0.36
   9  -1  11    0.65    0.32
  -9   1 -13   -0.24    0.36
   9   0 -10    2.19    0.67
   9   0  -9    4.46    0.90
   9   0  -8    0.06    0.26
   9   0  -7    3.45    0.75
   9   0  -7    2.96    0.89
   9   0  -6    0.28    0.31
   9   0  -5    1.63    0.56
   9   0  -4    2.69    0.65
   9   0  -3   -0.68    0.40
   9   0  -2   -0.03    0.28
   9   0  -1    0.76    0.41
   9   0   0    7.97    1.04
   9   0   1    0.06    0.32
   9   0   2    6.87    0.76
   9   0   2    7.44    1.01
   9   0   3    8.72    0.82
   9   0   3    8.64    1.09
   9   0   4    6.42    0.98
   9   0   4    5.25    0.64
   9   0   5   13.64    1.01
   9   0   5   10.30    1.23
   9   0   6   21.57    1.27
   9   0   6   19.88    1.74
   9   0   7   30.05    1.53
   9   0   7   29.36    2.14
   9   0   8    0.68    0.40
   9   0   8    0.39    0.25
   9   0   9    9.03    0.87
   9   0   9    8.08    1.20
   9   0  10    0.06    0.29
   9   0  11    1.57    0.60
   9   0  12   -0.04    0.33
  -9   0 -13   -0.35    0.48
  -9   0 -14    0.86    0.47
   9   1 -10    2.74    0.74
   9   1  -9    0.71    0.56
   9   1  -8    2.76    0.77
   9   1  -7    5.36    0.99
   9   1  -6    0.55    0.44
   9   1  -5    5.09    0.90
   9   1  -4   -0.25    0.30
   9   1  -3    2.47    0.64
   9   1  -2    0.46    0.34
   9   1  -1    0.40    0.36
   9   1   0    0.54    0.28
   9   1   0    0.45    0.26
   9   1   1    5.82    0.90
   9   1   2    0.65    0.41
   9   1   2    0.00    0.16
   9   1   3   -0.01    0.14
   9   1   3    0.26    0.40
   9   1   4   10.83    0.80
   9   1   4   10.92    1.23
   9   1   5    1.79    0.59
   9   1   5    2.25    0.37
   9   1   6    6.62    1.01
   9   1   6    7.10    0.65
   9   1   7   11.18    0.81
   9   1   7   11.40    1.34
   9   1   8    9.65    1.25
   9   1   9    9.56    1.25
   9   1  10    0.49    0.38
   9   1  11   10.38    1.38
   9   1  12    2.27    0.69
  -9  -1 -14    0.34    0.36
  -9  -1 -15    0.40    0.37
   9   2  -9    0.86    0.57
   9   2  -8    0.94    0.48
   9   2  -7    1.40    0.52
   9   2  -6    3.07    0.80
   9   2  -5   11.44    1.35
   9   2  -4    1.79    0.58
   9   2  -3   31.46    2.16
   9   2  -2    2.30    0.58
   9   2  -1    0.98    0.34
   9   2   0    1.65    0.55
   9   2   1    0.36    0.27
   9   2   2    0.63    0.35
   9   2   2    0.08    0.11
   9   2   3    0.00    0.13
   9   2   3    0.11    0.36
   9   2   4    9.41    0.63
   9   2   4    9.81    1.19
   9   2   5    2.55    0.63
   9   2   5    1.81    0.25
   9   2   6    8.37    1.14
   9   2   7    0.19    0.29
   9   2   8   12.74    1.42
   9   2   9    5.59    0.97
   9   2  10    1.83    0.60
   9   2  11   16.43    1.73
   9   2  12    0.90    0.60
  -9  -2 -14    2.26    0.75
  -9  -2 -15    1.94    0.75
   9   3  -9    0.92    0.48
   9   3  -8    2.36    0.70
   9   3  -7    4.03    0.94
   9   3  -6    7.62    1.18
   9   3  -5   10.25    1.32
   9   3  -4   11.92    1.41
   9   3  -3   17.74    1.66
   9   3  -2   10.46    1.28
   9   3  -1   14.56    1.46
   9   3   0   -0.07    0.34
   9   3   1    6.86    0.99
   9   3   2    1.12    0.43
   9   3   2    1.01    0.22
   9   3   3    3.11    0.29
   9   3   3    2.59    0.60
   9   3   4   -0.14    0.27
   9   3   5    1.92    0.57
   9   3   6    1.54    0.50
   9   3   7   -0.03    0.34
   9   3   8    3.43    0.71
   9   3   9    1.37    0.63
   9   3  10    3.25    0.79
   9   3  11    1.21    0.49
   9   3  12    4.84    0.98
   9   3  13    6.19    1.07
  -9  -3 -14    1.12    0.68
   9   4  -8   -0.50    0.31
   9   4  -7    1.24    0.54
   9   4  -6    1.10    0.54
   9   4  -5    8.77    1.27
   9   4  -4    5.90    1.01
   9   4  -3   16.52    1.62
   9   4  -2   11.53    1.35
   9   4  -1   40.02    2.49
   9   4   0   -0.26    0.39
   9   4   1   25.81    1.94
   9   4   2    1.01    0.47
   9   4   3   17.56    1.59
   9   4   4    0.33    0.40
   9   4   5    4.49    0.84
   9   4   6    1.33    0.50
   9   4   7    0.33    0.35
   9   4   8   -0.06    0.29
   9   4   9   -0.04    0.35
   9   4  10    2.46    0.65
   9   4  11    1.24    0.45
   9   4  12   10.88    1.45
   9   4  13    0.44    0.44
   9   5  -7    0.38    0.47
   9   5  -6    0.49    0.32
   9   5  -5   -0.48    0.41
   9   5  -4    0.99    0.47
   9   5  -3    0.56    0.40
   9   5  -2    0.53    0.46
   9   5  -1   13.99    1.50
   9   5   0    0.95    0.43
   9   5   1   45.43    2.62
   9   5   2    0.36    0.43
   9   5   3   10.32    1.24
   9   5   4    1.35    0.49
   9   5   5   17.85    1.63
   9   5   6    2.30    0.64
   9   5   7    0.39    0.39
   9   5   8    0.52    0.37
   9   5   9    0.53    0.35
   9   5  10    0.42    0.43
   9   5  11   -0.55    0.45
   9   5  12   -0.46    0.48
   9   5  13    0.16    0.28
   9   6  -6    2.08    0.75
   9   6  -5   -1.21    0.52
   9   6  -4    0.72    0.59
   9   6  -3    0.38    0.39
   9   6  -2    4.89    0.93
   9   6  -1    0.11    0.35
   9   6   0   15.53    1.56
   9   6   1    8.09    1.14
   9   6   2    5.32    0.92
   9   6   3   15.15    1.51
   9   6   4    0.74    0.47
   9   6   5   14.65    1.50
   9   6   6    0.62    0.40
   9   6   7    5.70    0.98
   9   6   8    2.04    0.66
   9   6   9    7.75    1.13
   9   6  10    1.16    0.51
   9   6  11   -0.34    0.34
   9   6  12    0.47    0.36
   9   6  13    0.17    0.40
   9   7  -5    0.38    0.42
   9   7  -4    1.06    0.56
   9   7  -3    0.71    0.50
   9   7  -2   -0.23    0.41
   9   7  -1    0.78    0.52
   9   7   0    1.39    0.52
   9   7   1    2.34    0.68
   9   7   2    1.27    0.52
   9   7   3    3.98    0.82
   9   7   4    4.01    0.81
   9   7   5    5.73    0.99
   9   7   6    1.37    0.51
   9   7   7   27.56    2.09
   9   7   8    1.58    0.50
   9   7   9   14.67    1.53
   9   7  10    0.14    0.29
   9   7  11    2.77    0.69
   9   7  12   -0.47    0.36
   9   8  -4    2.31    0.71
   9   8  -3    0.09    0.32
   9   8  -2    2.15    0.71
   9   8  -1    0.02    0.33
   9   8   0    3.17    0.79
   9   8   1   -0.12    0.29
   9   8   2   -0.13    0.35
   9   8   3    2.15    0.63
   9   8   4    3.63    0.78
   9   8   5    6.19    1.02
   9   8   6    7.57    1.13
   9   8   7   10.10    1.28
   9   8   8    1.35    0.58
   9   8   9   10.80    1.33
   9   8  10   -1.25    0.52
   9   8  11    7.79    1.16
   9   8  12   -0.19    0.33
   9   9  -3    3.85    0.88
   9   9  -2    3.31    0.83
   9   9  -1    3.56    0.86
   9   9   0    3.73    0.87
   9   9   1    0.34    0.42
   9   9   2   -0.08    0.46
   9   9   3    2.00    0.56
   9   9   4    1.00    0.45
   9   9   5    0.15    0.35
   9   9   6    3.00    0.75
   9   9   7    3.16    0.70
   9   9   8    2.13    0.61
   9   9   9    1.06    0.46
   9   9  10    4.37    0.88
   9   9  11    5.41    0.97
   9  10  -1    2.82    0.82
   9  10   0    2.08    0.69
   9  10   1    5.30    1.01
   9  10   2    7.93    1.21
   9  10   3   -0.41    0.39
   9  10   4    1.83    0.55
   9  10   5    1.28    0.59
   9  10   6    0.61    0.49
   9  10   7   -0.10    0.26
   9  10   8    0.17    0.39
   9  10   9    1.91    0.55
   9  10  10    8.77    1.20
   9  11   1    2.85    0.72
   9  11   2    0.19    0.40
   9  11   3    0.35    0.36
   9  11   4    5.12    0.96
   9  11   5   -0.20    0.41
   9  11   6    2.17    0.65
   9  11   7    0.99    0.49
   9  11   8    0.02    0.33
   9  12   4    1.08    0.52
   9  12   5   -0.54    0.38
   9  12   6    3.82    0.82
  10  -7   1   10.74    1.43
  10  -7   2    1.61    0.70
  10  -7   2    1.33    0.42
  10  -7   3    7.17    1.07
  10  -7   3    5.89    1.09
  10  -7   4    1.13    0.53
  10  -7   4    0.59    0.44
  10  -7   5    1.92    0.66
  10  -7   5    1.66    0.55
  10  -7   6    1.08    0.59
  10  -7   6    1.28    0.53
  10  -7   7   -0.42    0.54
  10  -6  -1    0.49    0.47
  10  -6   0    1.15    0.45
  10  -6   0   -0.53    0.45
  10  -6   1    2.79    0.80
  10  -6   1    1.52    0.53
  10  -6   2    4.43    0.90
  10  -6   2    3.76    0.76
  10  -6   3   11.39    1.35
  10  -6   3   11.07    1.37
  10  -6   4    0.12    0.44
  10  -6   4   -0.11    0.34
  10  -6   5    3.02    0.77
  10  -6   5    4.03    0.88
  10  -6   6    0.92    0.53
  10  -6   6    1.18    0.55
  10  -6   7    1.45    0.53
  10  -6   8    1.96    0.67
  10  -6   9    0.92    0.45
  10  -5  -2    3.06    0.69
  10  -5  -1    0.56    0.29
  10  -5   0    2.37    0.62
  10  -5   0    2.60    0.65
  10  -5   1   -1.37    0.52
  10  -5   1    0.97    0.47
  10  -5   2    6.96    1.06
  10  -5   2    7.95    1.13
  10  -5   3    3.43    0.76
  10  -5   3    4.21    0.84
  10  -5   4    5.08    0.94
  10  -5   4    6.16    1.02
  10  -5   5    8.69    1.25
  10  -5   5    9.07    1.19
  10  -5   6    0.64    0.43
  10  -5   6    0.43    0.42
  10  -5   7    6.39    1.14
  10  -5   7    7.00    1.06
  10  -5   8    0.78    0.36
  10  -5   9    4.81    0.96
  10  -4  -3    2.24    0.60
  10  -4  -2    1.15    0.49
  10  -4  -1   -0.64    0.45
  10  -4   0    2.91    0.70
  10  -4   1    1.57    0.63
  10  -4   1    0.67    0.45
  10  -4   2    1.04    0.42
  10  -4   2    2.28    0.63
  10  -4   3    0.07    0.39
  10  -4   3    0.49    0.31
  10  -4   4    8.22    1.19
  10  -4   4    7.55    1.04
  10  -4   5    3.24    0.80
  10  -4   5    3.54    0.72
  10  -4   6    1.04    0.43
  10  -4   6    1.48    0.57
  10  -4   7   16.78    1.54
  10  -4   7   16.15    1.72
  10  -4   8    3.83    0.93
  10  -4   8    3.06    0.71
  10  -4   9   13.69    1.43
  10  -3  -5    3.00    0.69
  10  -3  -4    0.61    0.42
  10  -3  -3    3.49    0.77
  10  -3  -2    3.57    0.75
  10  -3  -1    0.91    0.47
  10  -3   0    3.63    0.81
  10  -3   1    0.11    0.26
  10  -3   1    0.29    0.36
  10  -3   2    0.14    0.27
  10  -3   2    0.67    0.48
  10  -3   3    1.04    0.44
  10  -3   3    0.92    0.36
  10  -3   4    4.99    0.99
  10  -3   4    5.37    0.84
  10  -3   5   -0.15    0.39
  10  -3   5   -0.05    0.25
  10  -3   6   10.42    1.38
  10  -3   6    9.01    1.08
  10  -3   7    9.36    1.12
  10  -3   7    9.81    1.35
  10  -3   8    0.46    0.53
  10  -3   8    0.51    0.34
  10  -2  -6    2.54    0.63
  10  -2  -5    7.23    1.09
  10  -2  -4    0.70    0.48
  10  -2  -3    5.95    0.95
  10  -2  -2    0.19    0.29
  10  -2  -1   10.62    1.28
  10  -2   0    3.73    0.76
  10  -2   1   -0.19    0.38
  10  -2   1    0.50    0.33
  10  -2   2    0.31    0.28
  10  -2   2   -0.17    0.33
  10  -2   3    0.17    0.21
  10  -2   3    0.23    0.41
  10  -2   4    2.57    0.74
  10  -2   4    1.90    0.50
  10  -2   5   -0.25    0.32
  10  -2   5    0.56    0.31
  10  -2   6    1.37    0.55
  10  -2   6    0.88    0.38
  10  -2   7    0.10    0.22
  10  -2   7    0.64    0.39
  10  -2   8    8.18    1.31
  10  -2   9    3.95    0.95
  10  -1  -7   -0.39    0.41
  10  -1  -6    2.31    0.70
  10  -1  -5    2.73    0.67
  10  -1  -4    1.00    0.44
  10  -1  -3    5.76    0.99
  10  -1  -2    0.38    0.40
  10  -1  -1   13.43    1.43
  10  -1   0   -0.49    0.40
  10  -1   1    4.74    0.75
  10  -1   1    5.97    0.97
  10  -1   2    1.92    0.47
  10  -1   2    1.96    0.64
  10  -1   3    3.64    0.63
  10  -1   3    4.34    0.83
  10  -1   4   11.61    1.36
  10  -1   4   13.64    1.16
  10  -1   5   -0.35    0.32
  10  -1   5    0.46    0.29
  10  -1   6    0.15    0.33
  10  -1   6    0.56    0.29
  10  -1   7   -0.06    0.40
  10  -1   8    1.62    0.59
  10  -1   9    1.40    0.57
  10   0  -8    1.12    0.52
  10   0  -7    0.25    0.36
  10   0  -6   -0.35    0.35
  10   0  -5    0.25    0.34
  10   0  -4    0.53    0.42
  10   0  -3    3.00    0.71
  10   0  -2    2.79    0.70
  10   0  -1    7.21    1.06
  10   0   0    4.39    0.84
  10   0   1   11.67    1.37
  10   0   2    0.96    0.44
  10   0   2    0.55    0.31
  10   0   3    5.13    0.67
  10   0   3    5.65    0.96
  10   0   4    3.68    0.57
  10   0   4    5.52    0.96
  10   0   5    3.03    0.73
  10   0   6    0.94    0.38
  10   0   7    0.33    0.35
  10   0   8    0.45    0.48
  10   0   9    0.11    0.36
  10   0  10    0.80    0.54
  10   1  -8    0.29    0.39
  10   1  -7    0.59    0.38
  10   1  -6    2.55    0.69
  10   1  -5    0.18    0.33
  10   1  -4    0.71    0.40
  10   1  -3    0.53    0.41
  10   1  -2   10.03    1.29
  10   1  -1   11.55    1.36
  10   1   0    2.64    0.71
  10   1   1   12.46    1.40
  10   1   2    0.18    0.33
  10   1   2    0.62    0.21
  10   1   3   25.57    1.99
  10   1   4    0.13    0.35
  10   1   5   19.06    1.77
  10   1   6    8.18    1.19
  10   1   7    2.17    0.63
  10   1   8    1.88    0.63
  10   1   9    1.17    0.61
  10   1  10    0.38    0.42
  10   2  -7    0.57    0.48
  10   2  -6    4.15    0.91
  10   2  -5    0.37    0.39
  10   2  -4    1.48    0.56
  10   2  -3   -0.17    0.41
  10   2  -2   -0.27    0.40
  10   2  -1    0.37    0.45
  10   2   0    3.62    0.80
  10   2   1    3.45    0.77
  10   2   2    0.37    0.44
  10   2   3   14.68    1.53
  10   2   4    2.17    0.75
  10   2   5   18.46    1.72
  10   2   6   -1.71    0.59
  10   2   7   15.47    1.64
  10   2   8    1.08    0.58
  10   2   9    1.77    0.65
  10   2  10    1.73    0.72
  10   3  -6    4.16    0.93
  10   3  -5    3.59    0.87
  10   3  -4   13.61    1.59
  10   3  -3    0.14    0.31
  10   3  -2    2.29    0.63
  10   3  -1    0.29    0.34
  10   3   0    1.21    0.54
  10   3   1    1.26    0.56
  10   3   2    3.16    0.71
  10   3   3    3.29    0.76
  10   3   4   12.33    1.40
  10   3   5   11.64    1.40
  10   3   6    0.75    0.48
  10   3   7   12.12    1.43
  10   3   8   -0.11    0.34
  10   3   9   13.15    1.54
  10   3  10    1.19    0.57
  10   4  -5    3.61    0.93
  10   4  -4    1.04    0.56
  10   4  -3    2.08    0.62
  10   4  -2    6.95    1.08
  10   4  -1    1.20    0.49
  10   4   0    0.21    0.38
  10   4   1    1.02    0.47
  10   4   2   -0.41    0.50
  10   4   3    0.21    0.35
  10   4   4    2.02    0.53
  10   4   5    3.36    0.78
  10   4   6    2.01    0.58
  10   4   7   12.31    1.47
  10   4   8   -0.94    0.37
  10   4   9    4.95    0.98
  10   4  10    1.53    0.61
  10   5  -4    1.28    0.65
  10   5  -3   11.21    1.47
  10   5  -2    2.28    0.65
  10   5  -1    1.09    0.56
  10   5   0    6.87    1.11
  10   5   1    0.93    0.51
  10   5   2    3.25    0.78
  10   5   3    0.34    0.38
  10   5   4    0.71    0.29
  10   5   5    0.42    0.32
  10   5   6    0.60    0.37
  10   5   7    3.18    0.75
  10   5   8    1.00    0.60
  10   5   9    9.44    1.31
  10   5  10    2.01    0.67
  10   6  -3    3.80    0.87
  10   6  -2    0.73    0.48
  10   6  -1   10.16    1.37
  10   6   0   13.09    1.54
  10   6   1    4.29    0.93
  10   6   2    3.52    0.83
  10   6   3    3.41    0.81
  10   6   4    9.56    1.25
  10   6   5   -0.40    0.53
  10   6   6    1.11    0.44
  10   6   7    0.39    0.36
  10   6   8    0.06    0.35
  10   6   9    0.67    0.47
  10   6  10    1.01    0.46
  10   7  -2    0.52    0.48
  10   7  -1    5.41    1.03
  10   7   0    0.74    0.55
  10   7   1   10.14    1.36
  10   7   2    6.26    1.12
  10   7   3    8.13    1.22
  10   7   4    2.94    0.74
  10   7   5    0.44    0.35
  10   7   6    1.19    0.50
  10   7   7    0.13    0.41
  10   7   8   -0.70    0.45
  10   7   9    2.45    0.72
  10   8   0    0.41    0.51
  10   8   1    6.23    1.11
  10   8   2    0.78    0.48
  10   8   3    6.49    1.11
  10   8   4    4.47    0.93
  10   8   5    3.99    0.90
  10   8   6    0.00    0.43
  10   8   7    4.50    0.96
  10   8   8    1.70    0.62
  10   8   9    2.54    0.80
  10   9   2    0.74    0.37
  10   9   3    2.93    0.79
  10   9   4    0.41    0.50
  10   9   5    5.72    1.07
  10   9   6    2.14    0.69
  10   9   7    7.09    1.20
  11  -6   2    2.73    0.80
  11  -6   3    0.29    0.39
  11  -6   4    0.63    0.37
  11  -5  -1    3.40    0.86
  11  -5   0    1.22    0.49
  11  -5   0    1.39    0.59
  11  -5   1    6.80    1.06
  11  -5   1    8.00    1.15
  11  -5   2    4.38    0.91
  11  -5   2    3.21    0.80
  11  -5   3    1.84    0.57
  11  -5   3    2.39    0.75
  11  -5   4    1.40    0.55
  11  -5   4    1.94    0.64
  11  -4  -1    4.62    0.88
  11  -4   0    0.50    0.40
  11  -4   0    0.85    0.51
  11  -4   1    5.38    0.97
  11  -4   1    4.66    0.90
  11  -4   2    0.37    0.31
  11  -4   2   -0.09    0.28
  11  -4   3   11.85    1.35
  11  -4   3   14.72    1.63
  11  -4   4    1.71    0.61
  11  -4   5    1.39    0.68
  11  -3  -3    0.59    0.40
  11  -3  -2    1.36    0.54
  11  -3  -1    1.57    0.55
  11  -3   0   -0.46    0.46
  11  -3   0   -1.51    0.55
  11  -3   1    3.34    0.77
  11  -3   1    2.72    0.69
  11  -3   2   -0.07    0.37
  11  -3   2    0.43    0.36
  11  -3   3    6.02    1.08
  11  -3   4    0.87    0.45
  11  -3   5    9.55    1.38
  11  -2  -4    3.41    0.80
  11  -2  -3   -0.29    0.41
  11  -2  -2    3.05    0.73
  11  -2  -1    0.77    0.44
  11  -2   0    0.16    0.41
  11  -2   1    1.25    0.61
  11  -2   1    0.98    0.38
  11  -2   2    0.69    0.41
  11  -2   3    1.31    0.52
  11  -2   4    0.03    0.33
  11  -2   5    8.31    1.26
  11  -2   6    4.65    1.02
  11  -1  -5    0.63    0.44
  11  -1  -4    5.61    1.03
  11  -1  -3    0.62    0.49
  11  -1  -2    5.45    1.02
  11  -1  -1    0.00    0.37
  11  -1   0   -0.38    0.46
  11  -1   1    0.14    0.32
  11  -1   2    0.49    0.47
  11  -1   3    0.21    0.54
  11  -1   4    1.62    0.67
  11  -1   5    7.99    1.22
  11  -1   6    0.22    0.52
  11   0  -5    3.66    0.88
  11   0  -4    7.07    1.17
  11   0  -3    0.11    0.36
  11   0  -2   13.41    1.57
  11   0  -1   -0.19    0.43
  11   0   0    6.45    1.07
  11   0   1   -0.11    0.44
  11   0   2    5.58    1.04
  11   0   3    0.04    0.37
  11   0   4    2.29    0.68
  11   0   5   -0.05    0.38
  11   0   6   -0.45    0.58
  11   0   7    0.95    0.50
  11   1  -4    3.61    0.86
  11   1  -3    1.18    0.65
  11   1  -2    3.15    0.78
  11   1  -1    2.93    0.80
  11   1   0    6.62    1.10
  11   1   1    0.13    0.30
  11   1   2    9.36    1.27
  11   1   3    0.44    0.38
  11   1   4    6.23    1.07
  11   1   5    1.96    0.66
  11   1   6   -0.28    0.50
  11   1   7    0.63    0.48
  11   2  -3    2.21    0.71
  11   2  -2    0.64    0.41
  11   2  -1    5.58    1.02
  11   2   0    0.66    0.36
  11   2   1    8.56    1.26
  11   2   2   10.62    1.37
  11   2   3    0.55    0.41
  11   2   4    8.32    1.23
  11   2   5    0.56    0.42
  11   2   6    5.73    1.05
  11   2   7    0.84    0.49
  11   3  -2    0.47    0.47
  11   3  -1    2.60    0.71
  11   3   0    2.28    0.68
  11   3   1    1.44    0.54
  11   3   2    5.46    1.03
  11   3   3    4.95    0.99
  11   3   4   13.09    1.56
  11   3   5    0.03    0.43
  11   3   6   10.38    1.41
  11   3   7    0.27    0.35
  11   4  -1   -0.32    0.47
  11   4   0    0.97    0.63
  11   4   1    1.22    0.52
  11   4   2    1.69    0.69
  11   4   3   12.14    1.53
  11   4   4    8.20    1.23
  11   4   5    3.49    0.82
  11   4   6   13.30    1.61
  11   5   1   -0.01    0.39
  11   5   2   -1.13    0.55
  11   5   3    3.22    0.79
  11   5   4    0.76    0.46
  11   5   5    6.86    1.18
   0   0   0    0.00    0.00
;
_shelx_hkl_checksum              6888
loop_
_space_group_symop_operation_xyz
'x, y, z'
'-x, -y, -z'
loop_
_atom_site_label
_atom_site_type_symbol
_atom_site_fract_x
_atom_site_fract_y
_atom_site_fract_z
_atom_site_U_iso_or_equiv
_atom_site_adp_type
_atom_site_occupancy
_atom_site_site_symmetry_order
_atom_site_calc_flag
_atom_site_refinement_flags_posn
_atom_site_refinement_flags_adp
_atom_site_refinement_flags_occupancy
_atom_site_disorder_assembly
_atom_site_disorder_group
Zn1 Zn 0.42097(4) -0.13792(3) 0.80930(3) 0.03064(11) Uani 1 1 d . . . . .
Zn2 Zn 0.12586(4) 0.01031(3) 0.74852(3) 0.03141(11) Uani 1 1 d . . . . .
O1 O 0.2946(3) 0.10235(18) 0.69111(18) 0.0414(6) Uani 1 1 d . . . . .
O5 O 0.4897(3) 0.77274(18) 0.68579(18) 0.0457(6) Uani 1 1 d . . . . .
O2 O 0.4893(2) 0.01598(17) 0.75696(18) 0.0392(6) Uani 1 1 d . . . . .
O9 O 0.2093(3) -0.0913(2) 0.8459(2) 0.0399(6) Uani 1 1 d . . . . .
O7 O 0.9671(3) 0.1439(2) 0.7722(2) 0.0572(7) Uani 1 1 d . . . . .
O4 O 0.3551(3) 0.6471(2) 0.77508(19) 0.0551(7) Uani 1 1 d . . . . .
O8 O 0.9326(4) 0.0926(3) 0.9344(2) 0.0822(10) Uani 1 1 d . . . . .
N3 N 0.0111(4) -0.1840(2) 0.5296(2) 0.0430(7) Uani 1 1 d . . . . .
N2 N 0.7052(3) -0.2400(2) 1.0191(2) 0.0373(7) Uani 1 1 d . . . . .
N1 N 0.5611(3) -0.1678(2) 0.9111(2) 0.0349(6) Uani 1 1 d . . . . .
N4 N 0.0984(3) -0.0773(2) 0.6294(2) 0.0359(6) Uani 1 1 d . . . . .
O3 O 0.4055(3) 0.50170(16) 0.61180(17) 0.0407(6) Uani 1 1 d . . . . .
O6 O 0.7709(3) 0.34607(18) 0.8121(2) 0.0451(6) Uani 1 1 d . . . . .
C3 C 0.4217(3) 0.3075(2) 0.6620(2) 0.0286(7) Uani 1 1 d . . . . .
H3 H 0.3421 0.3009 0.6285 0.034 Uiso 1 1 calc R U . . .
C7 C 0.6042(3) 0.2216(2) 0.7626(2) 0.0281(7) Uani 1 1 d . . . . .
H7 H 0.6471 0.1576 0.7960 0.034 Uiso 1 1 calc R U . . .
C4 C 0.4776(4) 0.4129(2) 0.6614(2) 0.0311(7) Uani 1 1 d . . . . .
C17 C 0.8892(3) -0.4132(3) 1.0408(2) 0.0316(7) Uani 1 1 d . . . . .
C6 C 0.6578(3) 0.3270(2) 0.7616(2) 0.0303(7) Uani 1 1 d . . . . .
C9 C 0.4311(4) 0.6787(3) 0.6966(3) 0.0361(8) Uani 1 1 d . . . . .
C15 C 0.7721(4) -0.3199(3) 1.0904(3) 0.0432(9) Uani 1 1 d . . . . .
H15A H 0.6927 -0.3561 1.1336 0.052 Uiso 1 1 calc R U . . .
H15B H 0.8181 -0.2764 1.1338 0.052 Uiso 1 1 calc R U . . .
C14 C 0.6046(4) -0.2614(3) 0.9624(2) 0.0346(7) Uani 1 1 d . . . . .
C21 C -0.0371(4) -0.3810(3) 0.4936(3) 0.0471(9) Uani 1 1 d . . . . .
C12 C 0.6416(4) -0.0826(3) 0.9359(3) 0.0400(8) Uani 1 1 d . . . . .
H12 H 0.6344 -0.0070 0.9105 0.048 Uiso 1 1 calc R U . . .
C19 C 0.5545(4) -0.3755(3) 0.9595(3) 0.0496(9) Uani 1 1 d . . . . .
H19A H 0.6354 -0.4278 0.9246 0.074 Uiso 1 1 calc R U . . .
H19B H 0.4705 -0.3692 0.9243 0.074 Uiso 1 1 calc R U . . .
H19C H 0.5249 -0.4042 1.0278 0.074 Uiso 1 1 calc R U . . .
C16 C 0.9781(4) -0.3970(3) 0.9470(3) 0.0405(8) Uani 1 1 d . . . . .
H16 H 0.9642 -0.3276 0.9109 0.049 Uiso 1 1 calc R U . . .
C5 C 0.5966(4) 0.4222(3) 0.7105(3) 0.0328(7) Uani 1 1 d . . . . .
C1 C 0.4182(3) 0.1010(2) 0.7201(2) 0.0282(7) Uani 1 1 d . . . . .
C2 C 0.4843(3) 0.2134(2) 0.7122(2) 0.0261(7) Uani 1 1 d . . . . .
C26 C -0.0157(4) -0.1294(3) 0.6176(3) 0.0410(8) Uani 1 1 d . . . . .
C8 C 0.4645(4) 0.6091(2) 0.6008(2) 0.0400(8) Uani 1 1 d . . . . .
H8A H 0.4235 0.6546 0.5471 0.048 Uiso 1 1 calc R U . . .
H8B H 0.5727 0.5948 0.5794 0.048 Uiso 1 1 calc R U . . .
C24 C 0.1536(5) -0.1654(3) 0.4820(3) 0.0615(11) Uani 1 1 d . . . . .
H24 H 0.2031 -0.1930 0.4192 0.074 Uiso 1 1 calc R U . . .
C18 C 0.9121(4) -0.5162(3) 1.0932(3) 0.0390(8) Uani 1 1 d . . . . .
H18 H 0.8532 -0.5277 1.1564 0.047 Uiso 1 1 calc R U . . .
C25 C 0.2067(4) -0.1009(3) 0.5425(3) 0.0520(10) Uani 1 1 d . . . . .
H25 H 0.3009 -0.0754 0.5293 0.062 Uiso 1 1 calc R U . . .
C11 C 0.9096(4) 0.1587(3) 0.8629(3) 0.0413(8) Uani 1 1 d . . . . .
C20 C -0.0216(6) -0.4456(3) 0.4099(3) 0.0680(13) Uani 1 1 d . . . . .
H20 H -0.0352 -0.4103 0.3477 0.082 Uiso 1 1 calc R U . . .
C13 C 0.7299(4) -0.1261(3) 1.0011(3) 0.0438(9) Uani 1 1 d . . . . .
H13 H 0.7954 -0.0876 1.0291 0.053 Uiso 1 1 calc R U . . .
C22 C -0.0143(6) -0.4363(4) 0.5828(3) 0.0827(16) Uani 1 1 d . . . . .
H22 H -0.0233 -0.3930 0.6407 0.099 Uiso 1 1 calc R U . . .
C10 C 0.8034(4) 0.2668(3) 0.8907(3) 0.0407(9) Uani 1 1 d . . . . .
C23 C -0.0830(5) -0.2517(3) 0.4857(4) 0.0661(13) Uani 1 1 d . . . . .
H23A H -0.0791 -0.2291 0.4145 0.079 Uiso 1 1 calc R U . . .
H23B H -0.1863 -0.2341 0.5200 0.079 Uiso 1 1 calc R U . . .
C27 C -0.1560(5) -0.1264(4) 0.6919(4) 0.0815(15) Uani 1 1 d . . . . .
H27A H -0.2310 -0.0700 0.6700 0.122 Uiso 1 1 calc R U . . .
H27B H -0.1383 -0.1063 0.7572 0.122 Uiso 1 1 calc R U . . .
H27C H -0.1906 -0.2009 0.6970 0.122 Uiso 1 1 calc R U . . .
H5 H 0.630(3) 0.488(3) 0.715(2) 0.023(8) Uiso 1 1 d . . . . .
H10A H 0.707(4) 0.241(3) 0.930(2) 0.041(9) Uiso 1 1 d . . . . .
H10B H 0.845(4) 0.307(3) 0.931(3) 0.043(10) Uiso 1 1 d . . . . .
H9 H 0.176(5) -0.099(4) 0.894(3) 0.072(18) Uiso 1 1 d . . . . .
loop_
_atom_site_aniso_label
_atom_site_aniso_U_11
_atom_site_aniso_U_22
_atom_site_aniso_U_33
_atom_site_aniso_U_23
_atom_site_aniso_U_13
_atom_site_aniso_U_12
Zn1 0.0338(2) 0.01990(18) 0.0388(2) -0.00180(16) -0.01000(16) 0.00010(14)
Zn2 0.0298(2) 0.02586(19) 0.0407(2) -0.00478(16) -0.01126(16) -0.00249(15)
O1 0.0402(14) 0.0335(12) 0.0564(15) 0.0110(11) -0.0200(12) -0.0155(10)
O5 0.0562(16) 0.0310(12) 0.0511(15) -0.0114(11) -0.0055(12) -0.0115(11)
O2 0.0379(13) 0.0184(10) 0.0629(16) 0.0030(11) -0.0140(11) -0.0040(9)
O9 0.0380(14) 0.0442(15) 0.0344(15) 0.0018(12) -0.0045(12) 0.0031(11)
O7 0.0500(16) 0.0606(17) 0.0558(18) -0.0074(14) -0.0074(13) 0.0124(13)
O4 0.0706(19) 0.0478(15) 0.0421(15) -0.0056(12) 0.0062(13) -0.0107(13)
O8 0.080(2) 0.078(2) 0.074(2) 0.0234(18) -0.0109(17) 0.0296(17)
N3 0.062(2) 0.0273(14) 0.0459(18) -0.0040(13) -0.0238(16) -0.0075(13)
N2 0.0348(16) 0.0386(16) 0.0370(16) -0.0080(13) -0.0085(12) 0.0069(12)
N1 0.0342(15) 0.0289(14) 0.0409(16) -0.0040(12) -0.0089(12) 0.0029(11)
N4 0.0338(16) 0.0316(14) 0.0445(17) -0.0024(13) -0.0109(13) -0.0068(12)
O3 0.0666(16) 0.0183(11) 0.0434(14) 0.0038(10) -0.0266(12) -0.0068(10)
O6 0.0401(14) 0.0272(12) 0.0757(18) -0.0019(12) -0.0292(13) -0.0065(10)
C3 0.0374(18) 0.0235(15) 0.0263(16) -0.0039(13) -0.0086(13) -0.0042(13)
C7 0.0271(17) 0.0193(14) 0.0370(18) -0.0005(13) -0.0052(13) -0.0004(12)
C4 0.046(2) 0.0206(15) 0.0267(16) -0.0018(13) -0.0066(14) -0.0033(13)
C17 0.0296(17) 0.0366(18) 0.0283(17) -0.0036(14) -0.0083(14) 0.0028(14)
C6 0.0269(17) 0.0246(15) 0.0404(19) -0.0043(14) -0.0076(14) -0.0032(12)
C9 0.042(2) 0.0245(17) 0.042(2) -0.0020(15) -0.0134(16) 0.0010(14)
C15 0.043(2) 0.048(2) 0.036(2) -0.0085(17) -0.0138(16) 0.0124(16)
C14 0.0313(18) 0.0319(17) 0.0391(19) -0.0057(15) -0.0050(15) 0.0021(14)
C21 0.060(2) 0.0327(18) 0.057(2) -0.0074(18) -0.0290(19) -0.0068(17)
C12 0.047(2) 0.0269(17) 0.048(2) -0.0033(16) -0.0106(17) -0.0057(15)
C19 0.053(2) 0.0336(19) 0.064(3) -0.0007(18) -0.0136(19) -0.0089(17)
C16 0.048(2) 0.0335(18) 0.0358(19) 0.0058(15) -0.0073(16) 0.0074(15)
C5 0.0388(19) 0.0183(16) 0.043(2) -0.0052(14) -0.0087(15) -0.0070(14)
C1 0.0294(17) 0.0229(15) 0.0321(17) -0.0050(13) -0.0027(14) -0.0045(13)
C2 0.0273(16) 0.0196(14) 0.0305(17) -0.0060(13) -0.0008(13) -0.0033(12)
C26 0.041(2) 0.0332(18) 0.051(2) -0.0025(17) -0.0134(17) -0.0055(15)
C8 0.067(2) 0.0190(15) 0.0358(19) 0.0008(14) -0.0127(17) -0.0090(15)
C24 0.074(3) 0.061(3) 0.046(2) -0.017(2) 0.007(2) -0.014(2)
C18 0.039(2) 0.0443(19) 0.0291(18) 0.0029(16) 0.0013(14) 0.0010(15)
C25 0.043(2) 0.057(2) 0.054(2) -0.006(2) 0.0029(19) -0.0167(18)
C11 0.0282(19) 0.043(2) 0.057(2) -0.0072(19) -0.0158(17) -0.0053(15)
C20 0.113(4) 0.045(2) 0.052(3) -0.001(2) -0.036(3) -0.005(2)
C13 0.044(2) 0.0373(19) 0.054(2) -0.0133(17) -0.0130(18) -0.0077(16)
C22 0.153(5) 0.047(3) 0.056(3) -0.023(2) -0.051(3) 0.012(3)
C10 0.036(2) 0.040(2) 0.050(2) -0.0134(18) -0.0187(18) 0.0015(16)
C23 0.092(3) 0.036(2) 0.089(3) -0.009(2) -0.062(3) -0.007(2)
C27 0.047(3) 0.095(4) 0.100(4) -0.030(3) 0.013(3) -0.024(2)
loop_
_atom_type_symbol
_atom_type_description
_atom_type_scat_dispersion_real
_atom_type_scat_dispersion_imag
_atom_type_scat_source
C C 0.0030 0.0020 'International Tables Vol C Tables 4.2.6.8 and 6.1.1.4'
H H 0.0000 0.0000 'International Tables Vol C Tables 4.2.6.8 and 6.1.1.4'
N N 0.0060 0.0030 'International Tables Vol C Tables 4.2.6.8 and 6.1.1.4'
O O 0.0110 0.0060 'International Tables Vol C Tables 4.2.6.8 and 6.1.1.4'
Zn Zn 0.2840 1.4300 'International Tables Vol C Tables 4.2.6.8 and 6.1.1.4'
loop_
_geom_angle_atom_site_label_1
_geom_angle_atom_site_label_2
_geom_angle_atom_site_label_3
_geom_angle
_geom_angle_site_symmetry_1
_geom_angle_site_symmetry_3
O5 Zn1 Zn2 99.58(7) 1_545 .
O5 Zn1 O2 99.39(9) 1_545 .
O5 Zn1 N1 113.08(10) 1_545 .
O2 Zn1 Zn2 75.43(6) . .
O9 Zn1 Zn2 32.84(8) . .
O9 Zn1 O5 117.34(11) . 1_545
O9 Zn1 O2 99.58(10) . .
O9 Zn1 N1 123.63(11) . .
N1 Zn1 Zn2 147.18(7) . .
N1 Zn1 O2 95.48(10) . .
O1 Zn2 Zn1 75.34(6) . .
O9 Zn2 Zn1 32.95(8) . .
O9 Zn2 O1 103.17(10) . .
O9 Zn2 O7 128.92(12) . 1_455
O9 Zn2 N4 110.64(11) . .
O7 Zn2 Zn1 149.55(8) 1_455 .
O7 Zn2 O1 96.18(11) 1_455 .
O7 Zn2 N4 109.76(11) 1_455 .
N4 Zn2 Zn1 100.68(7) . .
N4 Zn2 O1 103.76(10) . .
C1 O1 Zn2 127.8(2) . .
C9 O5 Zn1 109.1(2) . 1_565
C1 O2 Zn1 129.5(2) . .
Zn1 O9 H9 119(4) . .
Zn2 O9 Zn1 114.21(14) . .
Zn2 O9 H9 125(4) . .
C11 O7 Zn2 114.6(2) . 1_655
C26 N3 C24 106.7(3) . .
C26 N3 C23 130.2(4) . .
C24 N3 C23 123.1(3) . .
C14 N2 C15 126.6(3) . .
C14 N2 C13 107.7(3) . .
C13 N2 C15 125.6(3) . .
C14 N1 Zn1 132.3(2) . .
C14 N1 C12 105.8(3) . .
C12 N1 Zn1 121.8(2) . .
C26 N4 Zn2 129.1(2) . .
C26 N4 C25 105.6(3) . .
C25 N4 Zn2 125.2(2) . .
C4 O3 C8 118.3(3) . .
C6 O6 C10 117.6(3) . .
C4 C3 H3 120.1 . .
C2 C3 H3 120.1 . .
C2 C3 C4 119.9(3) . .
C6 C7 H7 120.7 . .
C6 C7 C2 118.5(3) . .
C2 C7 H7 120.7 . .
O3 C4 C3 115.4(3) . .
O3 C4 C5 124.6(3) . .
C5 C4 C3 119.9(3) . .
C16 C17 C15 122.5(3) . .
C18 C17 C15 118.4(3) . .
C18 C17 C16 119.0(3) . .
O6 C6 C7 123.4(3) . .
O6 C6 C5 115.4(3) . .
C7 C6 C5 121.2(3) . .
O5 C9 C8 113.0(3) . .
O4 C9 O5 124.3(3) . .
O4 C9 C8 122.6(3) . .
N2 C15 C17 114.4(3) . .
N2 C15 H15A 108.7 . .
N2 C15 H15B 108.7 . .
C17 C15 H15A 108.7 . .
C17 C15 H15B 108.7 . .
H15A C15 H15B 107.6 . .
N2 C14 C19 123.0(3) . .
N1 C14 N2 110.5(3) . .
N1 C14 C19 126.5(3) . .
C20 C21 C22 117.9(3) . .
C20 C21 C23 119.5(3) . .
C22 C21 C23 122.5(3) . .
N1 C12 H12 125.2 . .
C13 C12 N1 109.6(3) . .
C13 C12 H12 125.2 . .
C14 C19 H19A 109.5 . .
C14 C19 H19B 109.5 . .
C14 C19 H19C 109.5 . .
H19A C19 H19B 109.5 . .
H19A C19 H19C 109.5 . .
H19B C19 H19C 109.5 . .
C17 C16 H16 119.9 . .
C17 C16 C18 120.2(3) . 2_747
C18 C16 H16 119.9 2_747 .
C4 C5 C6 119.6(3) . .
C4 C5 H5 121.6(19) . .
C6 C5 H5 118.6(19) . .
O1 C1 C2 116.8(3) . .
O2 C1 O1 125.8(3) . .
O2 C1 C2 117.3(3) . .
C3 C2 C7 120.8(3) . .
C3 C2 C1 120.6(3) . .
C7 C2 C1 118.4(3) . .
N3 C26 C27 124.6(3) . .
N4 C26 N3 111.5(3) . .
N4 C26 C27 123.8(3) . .
O3 C8 C9 114.2(3) . .
O3 C8 H8A 108.7 . .
O3 C8 H8B 108.7 . .
C9 C8 H8A 108.7 . .
C9 C8 H8B 108.7 . .
H8A C8 H8B 107.6 . .
N3 C24 H24 126.4 . .
C25 C24 N3 107.1(3) . .
C25 C24 H24 126.4 . .
C17 C18 C16 120.8(3) . 2_747
C17 C18 H18 119.6 . .
C16 C18 H18 119.6 2_747 .
N4 C25 H25 125.5 . .
C24 C25 N4 109.0(3) . .
C24 C25 H25 125.5 . .
O7 C11 C10 118.8(3) . .
O8 C11 O7 125.6(3) . .
O8 C11 C10 115.5(4) . .
C21 C20 H20 120.0 . .
C21 C20 C22 119.9(4) . 2_546
C22 C20 H20 120.0 2_546 .
N2 C13 H13 126.8 . .
C12 C13 N2 106.4(3) . .
C12 C13 H13 126.8 . .
C21 C22 C20 122.1(4) . 2_546
C21 C22 H22 118.9 . .
C20 C22 H22 118.9 2_546 .
O6 C10 C11 118.5(3) . .
O6 C10 H10A 110.0(18) . .
O6 C10 H10B 104(2) . .
C11 C10 H10A 106.8(18) . .
C11 C10 H10B 107(2) . .
H10A C10 H10B 110(3) . .
N3 C23 C21 113.6(3) . .
N3 C23 H23A 108.8 . .
N3 C23 H23B 108.8 . .
C21 C23 H23A 108.8 . .
C21 C23 H23B 108.8 . .
H23A C23 H23B 107.7 . .
C26 C27 H27A 109.5 . .
C26 C27 H27B 109.5 . .
C26 C27 H27C 109.5 . .
H27A C27 H27B 109.5 . .
H27A C27 H27C 109.5 . .
H27B C27 H27C 109.5 . .
loop_
_geom_bond_atom_site_label_1
_geom_bond_atom_site_label_2
_geom_bond_distance
_geom_bond_site_symmetry_2
Zn1 Zn2 3.2110(5) .
Zn1 O5 1.957(2) 1_545
Zn1 O2 2.032(2) .
Zn1 O9 1.915(3) .
Zn1 N1 2.013(3) .
Zn2 O1 2.009(2) .
Zn2 O9 1.909(3) .
Zn2 O7 1.981(2) 1_455
Zn2 N4 2.001(3) .
O1 C1 1.252(4) .
O5 Zn1 1.957(2) 1_565
O5 C9 1.275(4) .
O2 C1 1.243(3) .
O9 H9 0.67(4) .
O7 Zn2 1.981(2) 1_655
O7 C11 1.240(4) .
O4 C9 1.218(4) .
O8 C11 1.228(4) .
N3 C26 1.333(4) .
N3 C24 1.379(5) .
N3 C23 1.451(4) .
N2 C15 1.457(4) .
N2 C14 1.342(4) .
N2 C13 1.381(4) .
N1 C14 1.317(4) .
N1 C12 1.396(4) .
N4 C26 1.307(4) .
N4 C25 1.395(4) .
O3 C4 1.364(4) .
O3 C8 1.421(4) .
O6 C6 1.373(4) .
O6 C10 1.412(4) .
C3 H3 0.9300 .
C3 C4 1.393(4) .
C3 C2 1.373(4) .
C7 H7 0.9300 .
C7 C6 1.382(4) .
C7 C2 1.397(4) .
C4 C5 1.380(4) .
C17 C15 1.511(4) .
C17 C16 1.383(4) .
C17 C18 1.374(4) .
C6 C5 1.384(4) .
C9 C8 1.513(4) .
C15 H15A 0.9700 .
C15 H15B 0.9700 .
C14 C19 1.470(4) .
C21 C20 1.354(5) .
C21 C22 1.363(5) .
C21 C23 1.520(5) .
C12 H12 0.9300 .
C12 C13 1.328(5) .
C19 H19A 0.9600 .
C19 H19B 0.9600 .
C19 H19C 0.9600 .
C16 H16 0.9300 .
C16 C18 1.383(4) 2_747
C5 H5 0.87(3) .
C1 C2 1.507(4) .
C26 C27 1.469(5) .
C8 H8A 0.9700 .
C8 H8B 0.9700 .
C24 H24 0.9300 .
C24 C25 1.322(5) .
C18 C16 1.383(4) 2_747
C18 H18 0.9300 .
C25 H25 0.9300 .
C11 C10 1.507(5) .
C20 H20 0.9300 .
C20 C22 1.381(5) 2_546
C13 H13 0.9300 .
C22 C20 1.381(5) 2_546
C22 H22 0.9300 .
C10 H10A 1.02(3) .
C10 H10B 0.89(4) .
C23 H23A 0.9700 .
C23 H23B 0.9700 .
C27 H27A 0.9600 .
C27 H27B 0.9600 .
C27 H27C 0.9600 .
