#------------------------------------------------------------------------------
#$Date: 2021-03-29 11:48:39 +0300 (Mon, 29 Mar 2021) $
#$Revision: 263410 $
#$URL: file:///home/coder/svn-repositories/cod/cif/1/56/13/1561327.cif $
#------------------------------------------------------------------------------
#
# This file is available in the Crystallography Open Database (COD),
# http://www.crystallography.net/
#
# All data on this site have been placed in the public domain by the
# contributors.
#
data_1561327
loop_
_publ_author_name
'Du, Pei-Yao'
'Liao, Sheng-Yun'
'Gu, Wen'
'Liu, Xin'
_publ_section_title
;
 A multifunctional chemical sensor based on a three-dimensional lanthanide
 metal-organic framework
;
_journal_name_full               'Journal of Solid State Chemistry'
_journal_page_first              31
_journal_page_last               34
_journal_paper_doi               10.1016/j.jssc.2016.09.011
_journal_volume                  244
_journal_year                    2016
_chemical_formula_moiety         'C28 H24 N4 O16 Sm2, H2 O, C4 H9 N O'
_chemical_formula_sum            'C32 H35 N5 O18 Sm2'
_chemical_formula_weight         1078.37
_space_group_crystal_system      triclinic
_space_group_IT_number           2
_space_group_name_Hall           '-P 1'
_space_group_name_H-M_alt        'P -1'
_atom_sites_solution_hydrogens   mixed
_atom_sites_solution_primary     direct
_cell_angle_alpha                75.24(3)
_cell_angle_beta                 82.80(3)
_cell_angle_gamma                75.26(3)
_cell_formula_units_Z            2
_cell_length_a                   11.038(2)
_cell_length_b                   11.249(2)
_cell_length_c                   16.132(3)
_cell_measurement_reflns_used    6051
_cell_measurement_temperature    113.1500
_cell_measurement_theta_max      27.8824
_cell_measurement_theta_min      1.9119
_cell_volume                     1869.3(7)
_computing_cell_refinement       'CrystalClear (Rigaku Inc., 2008)'
_computing_data_collection       'CrystalClear (Rigaku Inc., 2008)'
_computing_data_reduction        'CrystalClear (Rigaku Inc., 2008)'
_computing_molecular_graphics    'Olex2 (Dolomanov et al., 2009)'
_computing_publication_material  'Olex2 (Dolomanov et al., 2009)'
_computing_structure_refinement  'XL (Sheldrick, 2008)'
_computing_structure_solution
;
????
;
_diffrn_ambient_temperature      113.1500
_diffrn_detector_area_resol_mean 28.5714
_diffrn_measured_fraction_theta_full 0.995
_diffrn_measured_fraction_theta_max 0.995
_diffrn_measurement_details
;
scan:
	Number of images: 180
	           Slice: -110.0000 - 70.0000
	     Image width: 1.0000
	        Exp time: 3.0000
	   Rotation axis: Omega
	           Omega: 0.0000
	             Chi: 45.0000
	             Phi: 0.0000
	             XTD: 45.0743
	          2theta: -19.9066
scan:
	Number of images: 150
	           Slice: -110.0000 - 40.0000
	     Image width: 1.0000
	        Exp time: 3.0000
	   Rotation axis: Omega
	           Omega: 0.0000
	             Chi: 45.0000
	             Phi: 90.0000
	             XTD: 45.0743
	          2theta: -19.9066
scan:
	Number of images: 100
	           Slice: -110.0000 - -10.0000
	     Image width: 1.0000
	        Exp time: 3.0000
	   Rotation axis: Omega
	           Omega: 0.0000
	             Chi: 45.0000
	             Phi: 180.0000
	             XTD: 45.0743
	          2theta: -19.9066
;
_diffrn_measurement_device
;
Saturn70 (4x4 bin mode)
;
_diffrn_measurement_device_details
;
AFC10: Fixed Chi 2 circle
;
_diffrn_measurement_device_type  'Bruker P4'
_diffrn_measurement_method       dtprofit.ref
_diffrn_orient_matrix_type       d*Trek
_diffrn_orient_matrix_UB_11      -0.0820
_diffrn_orient_matrix_UB_12      0.0283
_diffrn_orient_matrix_UB_13      0.0360
_diffrn_orient_matrix_UB_21      -0.0075
_diffrn_orient_matrix_UB_22      -0.0942
_diffrn_orient_matrix_UB_23      -0.0001
_diffrn_orient_matrix_UB_31      0.0327
_diffrn_orient_matrix_UB_32      0.0123
_diffrn_orient_matrix_UB_33      0.0539
_diffrn_radiation_detector       CCD
_diffrn_radiation_monochromator  Confocal
_diffrn_radiation_type           MoK\a
_diffrn_radiation_wavelength     0.71073
_diffrn_reflns_av_R_equivalents  0.0294
_diffrn_reflns_av_unetI/netI     0.0356
_diffrn_reflns_Laue_measured_fraction_full 0.995
_diffrn_reflns_Laue_measured_fraction_max 0.995
_diffrn_reflns_limit_h_max       13
_diffrn_reflns_limit_h_min       -11
_diffrn_reflns_limit_k_max       13
_diffrn_reflns_limit_k_min       -13
_diffrn_reflns_limit_l_max       19
_diffrn_reflns_limit_l_min       -18
_diffrn_reflns_number            15422
_diffrn_reflns_point_group_measured_fraction_full 0.995
_diffrn_reflns_point_group_measured_fraction_max 0.995
_diffrn_reflns_theta_full        25.007
_diffrn_reflns_theta_max         25.007
_diffrn_reflns_theta_min         1.912
_diffrn_source                   'Rotating Anode'
_diffrn_source_current           16.0000
_diffrn_source_power             0.8000
_diffrn_source_voltage           50.0000
_exptl_absorpt_coefficient_mu    3.196
_exptl_absorpt_correction_T_max  0.681
_exptl_absorpt_correction_T_min  0.550
_exptl_absorpt_correction_type   multi-scan
_exptl_crystal_colour            orange
_exptl_crystal_colour_primary    orange
_exptl_crystal_density_diffrn    1.916
_exptl_crystal_description       Block
_exptl_crystal_F_000             1060
_exptl_crystal_size_max          0.19
_exptl_crystal_size_mid          0.16
_exptl_crystal_size_min          0.12
_refine_diff_density_max         2.775
_refine_diff_density_min         -1.051
_refine_diff_density_rms         0.208
_refine_ls_extinction_coef       .
_refine_ls_extinction_method     none
_refine_ls_goodness_of_fit_ref   1.032
_refine_ls_hydrogen_treatment    constr
_refine_ls_matrix_type           full
_refine_ls_number_parameters     526
_refine_ls_number_reflns         6551
_refine_ls_number_restraints     0
_refine_ls_restrained_S_all      1.032
_refine_ls_R_factor_all          0.0523
_refine_ls_R_factor_gt           0.0463
_refine_ls_shift/su_max          0.000
_refine_ls_shift/su_mean         0.016
_refine_ls_structure_factor_coef Fsqd
_refine_ls_weighting_details
'w=1/[\s^2^(Fo^2^)+(0.1200P)^2^] where P=(Fo^2^+2Fc^2^)/3'
_refine_ls_weighting_scheme      calc
_refine_ls_wR_factor_gt          0.1489
_refine_ls_wR_factor_ref         0.1557
_reflns_Friedel_coverage         0.000
_reflns_Friedel_fraction_full    .
_reflns_Friedel_fraction_max     .
_reflns_number_gt                5486
_reflns_number_total             6551
_reflns_threshold_expression     'I > 2\s(I)'
_iucr_refine_instructions_details
;
TITL 1 in P-1 #2
 1.res created by SHELXL-2016/4 at 09:18:36 on 07-Sep-2016
CELL 0.71073 11.0377 11.2492 16.1321 75.238 82.801 75.258
ZERR 2 0.0022 0.0022 0.0032 0.03 0.03 0.03
LATT 1
SFAC C H N O Sm
UNIT 64 70 10 36 4

L.S. 20
PLAN  100
BOND
fmap 2
acta
OMIT -3 50.02
REM <olex2.extras>
REM <HklSrc "%.\\cylindrical.hkl">
REM </olex2.extras>

WGHT    0.120000
FVAR       0.18568
O12   4    0.758455    0.153271    0.217632    11.00000    0.04154    0.03738 =
         0.03789   -0.01432    0.00607   -0.01328
C24   1    0.716222    0.250040    0.246143    11.00000    0.03909    0.04007 =
         0.03416   -0.01247   -0.00088   -0.01271
C20   1    0.762221    0.365943    0.200031    11.00000    0.03640    0.03535 =
         0.03779   -0.01158    0.00291   -0.00976
N3    3    0.974998    0.455101    0.014586    11.00000    0.06324    0.03755 =
         0.05902   -0.01924    0.02768   -0.02416
O5    4    0.851571    0.932005    1.007618    11.00000    0.02834    0.04625 =
         0.03628   -0.01663    0.00350   -0.01145
C16   1    0.904915    0.925033    0.934829    11.00000    0.03803    0.03260 =
         0.03652   -0.01156    0.00153   -0.01049
O6    4    1.020723    0.924111    0.915403    11.00000    0.02928    0.04059 =
         0.03555   -0.01072   -0.00217   -0.01107
O3    4    0.424659    1.005291    0.758704    11.00000    0.02867    0.03693 =
         0.03672   -0.01055   -0.00403   -0.00730
O4    4    0.428966    0.981098    0.897757    11.00000    0.03585    0.05779 =
         0.03364   -0.01311    0.00181   -0.00992
C9    1    0.486408    0.977852    0.825926    11.00000    0.03478    0.03608 =
         0.03851   -0.00650   -0.00182   -0.00972
C10   1    0.625618    0.938885    0.816514    11.00000    0.02820    0.03697 =
         0.03999   -0.01144   -0.00236   -0.00542
C11   1    0.698262    0.940436    0.881158    11.00000    0.03582    0.03680 =
         0.03128   -0.00664   -0.00052   -0.00906
AFIX  43
H11   2    0.659862    0.957769    0.932836    11.00000   -1.20000
AFIX   0
C12   1    0.830069    0.915550    0.867452    11.00000    0.03303    0.03354 =
         0.03430   -0.00656   -0.00223   -0.00967
O7    4    1.387953    0.881375    0.459834    11.00000    0.03637    0.05010 =
         0.03389   -0.01750   -0.00128   -0.01185
O8    4    1.379379    0.814962    0.343492    11.00000    0.03462    0.05250 =
         0.03699   -0.01892    0.00102   -0.01087
C8    1    1.327258    0.843761    0.412059    11.00000    0.02594    0.03906 =
         0.03609   -0.01056    0.00225   -0.00339
C6    1    1.194845    0.837316    0.437906    11.00000    0.03431    0.03658 =
         0.04069   -0.01318    0.00075   -0.01227
C5    1    1.146666    0.836946    0.521029    11.00000    0.03552    0.03968 =
         0.03586   -0.01267   -0.00600   -0.00871
AFIX  43
H5    2    1.199051    0.835676    0.562286    11.00000   -1.20000
AFIX   0
C7    1    1.117214    0.839875    0.376584    11.00000    0.03246    0.04248 =
         0.03590   -0.01333    0.00165   -0.00704
AFIX  43
H7    2    1.150136    0.838526    0.320779    11.00000   -1.20000
AFIX   0
SM2   5    0.587540    0.839866    0.373400    11.00000    0.02849    0.03275 =
         0.03056   -0.01019    0.00001   -0.00890
SM1   5    0.792827    1.004948    0.134416    11.00000    0.02864    0.02947 =
         0.02942   -0.00803   -0.00114   -0.00787
C28   1    0.631755    1.318303   -0.190579    11.00000    0.08352    0.17733 =
         0.04464   -0.01473   -0.01782   -0.02312
AFIX 137
H28A  2    0.695925    1.363950   -0.212822    11.00000   -1.50000
H28B  2    0.551136    1.372396   -0.205199    11.00000   -1.50000
H28C  2    0.646197    1.246166   -0.215059    11.00000   -1.50000
AFIX   0
O1    4    0.935150    0.902835    0.250884    11.00000    0.03605    0.04091 =
         0.03264   -0.00805   -0.00016   -0.01190
O15   4    0.638336    0.804016    0.525953    11.00000    0.03329    0.03662 =
         0.03693   -0.01126   -0.00070   -0.00459
AFIX   7
H15A  2    0.683479    0.727615    0.543772    11.00000   -1.50000
H15B  2    0.569698    0.813603    0.559325    11.00000   -1.50000
AFIX   0
O16   4    0.579043    1.046483    0.401979    11.00000    0.04330    0.03823 =
         0.03232   -0.00853   -0.00009   -0.01666
AFIX   7
H16A  2    0.606884    1.095117    0.356962    11.00000   -1.50000
H16B  2    0.624637    1.037189    0.444157    11.00000   -1.50000
AFIX   0
O10   4    0.640867    0.712906    0.273523    11.00000    0.04140    0.03538 =
         0.03509   -0.01453    0.00694   -0.01313
O14   4    0.583139    0.623660    0.445225    11.00000    0.04664    0.04064 =
         0.04115   -0.01184   -0.00306   -0.01317
AFIX   7
H14A  2    0.657917    0.579719    0.456602    11.00000   -1.50000
H14B  2    0.552706    0.590217    0.412526    11.00000   -1.50000
AFIX   0
O9    4    0.775896    0.795123    0.174727    11.00000    0.04223    0.03481 =
         0.03514   -0.01190    0.00569   -0.01475
N1    3    0.978412    0.848137    0.630356    11.00000    0.03568    0.04548 =
         0.03215   -0.01119    0.00039   -0.00854
O11   4    0.641845    0.254463    0.310493    11.00000    0.05992    0.03638 =
         0.04229   -0.01613    0.01870   -0.01741
C18   1    0.766092    0.585460    0.184984    11.00000    0.03567    0.03504 =
         0.03464   -0.00982    0.00095   -0.00932
O2    4    0.797144    0.832702    0.353991    11.00000    0.03199    0.05474 =
         0.03419   -0.01277   -0.00073   -0.01167
N2    3    0.862047    0.859282    0.645433    11.00000    0.03449    0.04560 =
         0.03338   -0.01239   -0.00292   -0.00929
O13   4    0.717042    1.197803    0.029687    11.00000    0.04981    0.04006 =
         0.04134    0.00060   -0.01199   -0.00873
C17   1    0.724932    0.707373    0.212854    11.00000    0.03251    0.03242 =
         0.03766   -0.01014   -0.00317   -0.01023
C3    1    0.940243    0.843285    0.480823    11.00000    0.02768    0.03947 =
         0.03581   -0.00966   -0.00052   -0.00711
AFIX  43
H3    2    0.855477    0.845646    0.494916    11.00000   -1.20000
AFIX   0
C21   1    0.845240    0.361785    0.129499    11.00000    0.04783    0.03500 =
         0.04360   -0.01710    0.00692   -0.01120
AFIX  43
H21   2    0.872540    0.287639    0.110165    11.00000   -1.20000
AFIX   0
C19   1    0.721793    0.479641    0.228127    11.00000    0.03598    0.03483 =
         0.03866   -0.01128    0.00404   -0.00773
AFIX  43
H19   2    0.665241    0.483676    0.275743    11.00000   -1.20000
AFIX   0
C2    1    0.991049    0.844421    0.397071    11.00000    0.03388    0.03622 =
         0.03450   -0.00834   -0.00615   -0.00897
C14   1    0.814005    0.879560    0.728527    11.00000    0.03334    0.04437 =
         0.03266   -0.01254    0.00314   -0.01122
C1    1    0.900964    0.860560    0.327892    11.00000    0.02867    0.03008 =
         0.03899   -0.01070   -0.00302   -0.00441
C4    1    1.020946    0.838447    0.543848    11.00000    0.04126    0.03923 =
         0.02726   -0.00503    0.00109   -0.00847
C15   1    0.685345    0.905670    0.741556    11.00000    0.03636    0.04122 =
         0.03707   -0.00838   -0.00489   -0.00525
AFIX  43
H15   2    0.637308    0.901071    0.699549    11.00000   -1.20000
AFIX   0
C22   1    0.889125    0.470067    0.086356    11.00000    0.04802    0.04058 =
         0.04488   -0.01519    0.01980   -0.01996
C23   1    0.848652    0.580133    0.112487    11.00000    0.04756    0.04397 =
         0.04658   -0.01765    0.00975   -0.01854
AFIX  43
H23   2    0.875975    0.651694    0.082072    11.00000   -1.20000
AFIX   0
C13   1    0.887357    0.888004    0.791795    11.00000    0.03037    0.03273 =
         0.03872   -0.00565    0.00014   -0.00816
AFIX  43
H13   2    0.974086    0.874939    0.782166    11.00000   -1.20000
AFIX   0
N4    3    0.634824    1.276066   -0.096704    11.00000    0.18973    0.07174 =
         0.05604    0.00412   -0.04489   -0.04770
C26   1    0.851153    1.242684   -0.103488    11.00000    0.04468    0.06911 =
         0.06571   -0.00350    0.00102   -0.00165
AFIX 137
H26A  2    0.858427    1.202922   -0.150520    11.00000   -1.50000
H26B  2    0.918355    1.199362   -0.066550    11.00000   -1.50000
H26C  2    0.855673    1.329314   -0.125304    11.00000   -1.50000
AFIX   0
C25   1    0.721133    1.236847   -0.050965    11.00000    0.11275    0.04294 =
         0.08240   -0.01559   -0.04329   -0.00611
C27   1    0.503981    1.264498   -0.047853    11.00000    0.04055    0.11424 =
         0.08200    0.00493   -0.00565   -0.00283
AFIX 137
H27A  2    0.449195    1.347091   -0.053655    11.00000   -1.50000
H27B  2    0.515590    1.226234    0.011874    11.00000   -1.50000
H27C  2    0.467426    1.213119   -0.072011    11.00000   -1.50000
AFIX   6
O17   4    0.505870    0.558162    0.613378    11.00000    0.05235    0.04230 =
         0.04162   -0.01663    0.01084   -0.01659
H17A  2    0.481806    0.610277    0.645418    11.00000   -1.50000
H17B  2    0.584129    0.526283    0.617024    11.00000   -1.50000
AFIX   0

C30   1    0.924678    1.541212   -0.280313    11.00000    0.08796    0.06530 =
         0.06523    0.00208   -0.01549   -0.02537
AFIX 137
H30A  2    0.955469    1.607192   -0.268339    11.00000   -1.50000
H30B  2    0.960024    1.526409   -0.335276    11.00000   -1.50000
H30C  2    0.948378    1.465160   -0.236655    11.00000   -1.50000
AFIX   0
N5    3    0.717085    1.592300   -0.196862    11.00000    0.11258    0.14044 =
         0.11961   -0.03839   -0.02719   -0.01204
O18   4    0.741071    1.587217   -0.355982    11.00000    0.16683    0.07655 =
         0.14281    0.03596   -0.11505   -0.05417
C31   1    0.578653    1.622043   -0.183540    11.00000    0.09822    0.13179 =
         0.16238   -0.01316    0.00229   -0.03720
AFIX 137
H31A  2    0.555095    1.595993   -0.123537    11.00000   -1.50000
H31B  2    0.544780    1.578032   -0.215421    11.00000   -1.50000
H31C  2    0.546222    1.711412   -0.203013    11.00000   -1.50000
AFIX   0
C32   1    0.792459    1.571493   -0.118866    11.00000    0.26527    0.19241 =
         0.12570   -0.03955   -0.11374    0.01403
AFIX 137
H32A  2    0.777292    1.649059   -0.100533    11.00000   -1.50000
H32B  2    0.880317    1.544664   -0.134190    11.00000   -1.50000
H32C  2    0.767037    1.507707   -0.072961    11.00000   -1.50000
AFIX   0
C29   1    0.772739    1.583285   -0.281444    11.00000    0.18511    0.06180 =
         0.23943   -0.02755    0.11356   -0.03054
HKLF 4




REM  1 in P-1 #2
REM R1 =  0.0463 for    5486 Fo > 4sig(Fo)  and  0.0523 for all    6551 data
REM    526 parameters refined using      0 restraints

END  
     
WGHT      0.1125      0.0000 

REM Highest difference peak  2.775,  deepest hole -1.051,  1-sigma level  0.208
Q1    1   0.8971  0.5217  0.4869  11.00000  0.05    2.78
Q2    1   0.9499  1.5187 -0.4265  11.00000  0.05    2.63
Q3    1   1.0905  1.4857 -0.4306  11.00000  0.05    2.31
Q4    1   0.8755  1.5438 -0.3653  11.00000  0.05    2.22
Q5    1   0.7426  1.0206  0.0956  11.00000  0.05    1.53
Q6    1   0.8711  0.9680  0.1280  11.00000  0.05    1.40
Q7    1   0.5325  0.8560  0.3301  11.00000  0.05    1.32
Q8    1   0.6427  0.8340  0.4123  11.00000  0.05    1.31
Q9    1   0.8342  0.9908  0.1783  11.00000  0.05    1.27
Q10   1   0.6537  0.8358  0.3370  11.00000  0.05    1.20
Q11   1   0.8340  1.0560  0.1133  11.00000  0.05    1.16
Q12   1   0.7205  1.0134  0.1649  11.00000  0.05    1.15
Q13   1   0.7965  0.9236  0.1331  11.00000  0.05    1.12
Q14   1   0.5023  0.8698  0.3971  11.00000  0.05    1.10
Q15   1   0.5139  0.8329  0.4114  11.00000  0.05    1.10
Q16   1   0.6116  0.9152  0.3636  11.00000  0.05    1.09
Q17   1   0.5670  0.7816  0.3678  11.00000  0.05    1.08
Q18   1   0.6338  1.2383 -0.0269  11.00000  0.05    1.00
Q19   1   0.7289  1.2721 -0.1156  11.00000  0.05    0.87
Q20   1   0.7540  1.5594 -0.3955  11.00000  0.05    0.60
Q21   1   0.8255  0.3974  0.1056  11.00000  0.05    0.51
Q22   1   0.7607  1.5789 -0.2612  11.00000  0.05    0.51
Q23   1   0.5553  0.5929  0.5000  11.00000  0.05    0.50
Q24   1   0.6063  0.8606  0.5481  11.00000  0.05    0.50
Q25   1   0.6602  0.7140  0.2229  11.00000  0.05    0.48
Q26   1   0.9545  0.4418  0.0025  11.00000  0.05    0.47
Q27   1   0.9616  0.9145  0.9241  11.00000  0.05    0.47
Q28   1   0.9435  0.8553  0.3632  11.00000  0.05    0.46
Q29   1   0.7568  0.6129  0.1649  11.00000  0.05    0.46
Q30   1   0.9007  1.2027 -0.1312  11.00000  0.05    0.44
Q31   1   0.8577  0.8418  0.8457  11.00000  0.05    0.43
Q32   1   0.7721  1.1814  0.0366  11.00000  0.05    0.42
Q33   1   0.7223  0.1651  0.1837  11.00000  0.05    0.42
Q34   1   1.0028  0.4044  0.0191  11.00000  0.05    0.41
Q35   1   0.6598  1.3403 -0.2556  11.00000  0.05    0.40
Q36   1   1.0509  0.4585  0.0162  11.00000  0.05    0.40
Q37   1   0.8979  0.8897  1.0014  11.00000  0.05    0.40
Q38   1   0.4849  1.2791  0.0009  11.00000  0.05    0.40
Q39   1   0.5045  1.3211  0.0181  11.00000  0.05    0.39
Q40   1   0.4598  1.3016 -0.0595  11.00000  0.05    0.39
Q41   1   0.8565  1.2635 -0.1695  11.00000  0.05    0.39
Q42   1   0.8360  0.4755  0.0763  11.00000  0.05    0.38
Q43   1   0.8291  1.2665 -0.1451  11.00000  0.05    0.38
Q44   1   0.7582  0.4111  0.2262  11.00000  0.05    0.38
Q45   1   0.7010  1.6107 -0.3326  11.00000  0.05    0.38
Q46   1   1.0208  0.8485  0.8968  11.00000  0.05    0.37
Q47   1   0.7117  0.8736  0.2029  11.00000  0.05    0.37
Q48   1   0.8225  1.2471 -0.1071  11.00000  0.05    0.36
Q49   1   0.4621  1.0100  0.7932  11.00000  0.05    0.36
Q50   1   1.0526  0.9334  0.9389  11.00000  0.05    0.36
Q51   1   0.9779  1.4644 -0.2805  11.00000  0.05    0.36
Q52   1   1.3972  0.7264  0.3709  11.00000  0.05    0.35
Q53   1   0.8219  0.8768  0.3369  11.00000  0.05    0.35
Q54   1   0.9179  0.4416  0.0717  11.00000  0.05    0.35
Q55   1   0.8541  0.8058  0.3330  11.00000  0.05    0.35
Q56   1   1.3671  0.8469  0.3641  11.00000  0.05    0.34
Q57   1   0.9391  1.1472 -0.1515  11.00000  0.05    0.34
Q58   1   1.0763  0.8989  0.9258  11.00000  0.05    0.34
Q59   1   0.9181  0.8587  0.2839  11.00000  0.05    0.34
Q60   1   0.8162  0.3610  0.1804  11.00000  0.05    0.34
Q61   1   0.8819  0.8614  0.9090  11.00000  0.05    0.34
Q62   1   0.6661  1.3745 -0.1261  11.00000  0.05    0.34
Q63   1   0.6278  0.2349  0.3504  11.00000  0.05    0.33
Q64   1   0.8438  0.8841  0.9710  11.00000  0.05    0.33
Q65   1   0.6618  0.9344  0.8490  11.00000  0.05    0.33
Q66   1   0.8766  0.8415  0.7893  11.00000  0.05    0.33
Q67   1   0.9165  0.9388  1.0422  11.00000  0.05    0.33
Q68   1   0.8200  0.5528  0.0647  11.00000  0.05    0.33
Q69   1   0.9521  0.8813  1.0165  11.00000  0.05    0.32
Q70   1   0.7467  0.7775  0.2082  11.00000  0.05    0.32
Q71   1   0.9037  0.9731  1.0267  11.00000  0.05    0.32
Q72   1   0.5266  1.0193  0.3998  11.00000  0.05    0.32
Q73   1   0.8593  1.2527 -0.0346  11.00000  0.05    0.32
Q74   1   0.7387  0.2787  0.2556  11.00000  0.05    0.31
Q75   1   0.8491  0.3235  0.0852  11.00000  0.05    0.31
Q76   1   1.0004  0.4006  0.0546  11.00000  0.05    0.31
Q77   1   0.7129  0.6328  0.2833  11.00000  0.05    0.31
Q78   1   0.4356  0.9573  0.7592  11.00000  0.05    0.31
Q79   1   0.8555  0.8963  0.7475  11.00000  0.05    0.31
Q80   1   1.0440  0.8279  0.9190  11.00000  0.05    0.31
Q81   1   0.5376  0.7012  0.4705  11.00000  0.05    0.31
Q82   1   1.2457  0.8640  0.4253  11.00000  0.05    0.30
Q83   1   0.7836  0.9193  0.8647  11.00000  0.05    0.30
Q84   1   0.5863  1.3045 -0.1942  11.00000  0.05    0.30
Q85   1   0.8014  0.4630  0.2072  11.00000  0.05    0.30
Q86   1   1.0158  0.8952  0.9680  11.00000  0.05    0.30
Q87   1   0.4669  0.9863  0.7335  11.00000  0.05    0.30
Q88   1   0.7814  0.1800  0.2458  11.00000  0.05    0.29
Q89   1   1.1790  0.8026  0.4302  11.00000  0.05    0.29
Q90   1   0.8579  0.9435  0.8797  11.00000  0.05    0.29
Q91   1   1.0790  0.8597  0.3661  11.00000  0.05    0.29
Q92   1   0.4408  1.0005  0.8624  11.00000  0.05    0.29
Q93   1   0.7565  1.1473 -0.0309  11.00000  0.05    0.28
Q94   1   1.0029  0.6358  0.1018  11.00000  0.05    0.28
Q95   1   0.5367  1.6647 -0.0626  11.00000  0.05    0.28
Q96   1   0.8355  1.1800 -0.0119  11.00000  0.05    0.28
Q97   1   0.8249  0.1216  0.2726  11.00000  0.05    0.28
Q98   1   0.8210  0.1211  0.2004  11.00000  0.05    0.28
Q99   1   1.3898  0.9229  0.5025  11.00000  0.05    0.28
Q100  1   1.4529  0.8625  0.4771  11.00000  0.05    0.28

  REM The information below was added by Olex2.
  REM
  REM R1 = 0.0463 for 5486 Fo > 4sig(Fo) and 0.0523 for all 18930 data
  REM n/a parameters refined using n/a restraints
  REM Highest difference peak 2.78, deepest hole -1.05
  REM Mean Shift 0.016, Max Shift 2.777.
  
  REM +++ Tabular Listing of Refinement Information +++
  REM R1_all = 0.0523
  REM R1_gt = 0.0463
  REM wR_ref = 0.1557
  REM GOOF = 1.032
  REM Shift_max = 2.777
  REM Shift_mean = 0.016
  REM Reflections_all = 18930
  REM Reflections_gt = 5486
  REM Parameters = n/a
  REM Hole = -1.05
  REM Peak = 2.78
  REM Flack = n/a
  
  
;
_cod_data_source_file            JSSC-2016-244-31.cif
_cod_data_source_block           1
_cod_depositor_comments
;
The following automatic conversions were performed:

data item '_exptl_absorpt_correction_type' value 'Multi-scan' was
changed to 'multi-scan' in accordance with the built-in table derived
from the CIF Core dictionary named 'cif_core.dic' version 2.4.5 last
updated on 2014-11-21.

Automatic conversion script
Id: cif_fix_values 8369 2020-08-20 11:38:08Z andrius 
;
_cod_database_code               1561327
_shelx_space_group_comment
;
The symmetry employed for this shelxl refinement is uniquely defined
by the following loop, which should always be used as a source of
symmetry information in preference to the above space-group names.
They are only intended as comments.
;
_diffrn_number_total             8777
_olex2_refinement_description
;
1. Fixed Uiso
 At 1.2 times of:
  All C(H) groups
 At 1.5 times of:
  All C(H,H,H) groups, All O(H,H) groups
2.a Free rotating group:
 O17(H17A,H17B)
2.b Rotating group:
 O15(H15A,H15B), O16(H16A,H16B), O14(H14A,H14B)
2.c Aromatic/amide H refined with riding coordinates:
 C11(H11), C5(H5), C7(H7), C3(H3), C21(H21), C19(H19), C15(H15), C23(H23),
 C13(H13)
2.d Idealised Me refined as rotating group:
 C28(H28A,H28B,H28C), C26(H26A,H26B,H26C), C27(H27A,H27B,H27C), C30(H30A,H30B,
 H30C), C31(H31A,H31B,H31C), C32(H32A,H32B,H32C)
;
_shelx_shelxl_version_number     2016/4
loop_
_space_group_symop_operation_xyz
'x, y, z'
'-x, -y, -z'
loop_
_atom_site_label
_atom_site_type_symbol
_atom_site_fract_x
_atom_site_fract_y
_atom_site_fract_z
_atom_site_U_iso_or_equiv
_atom_site_adp_type
_atom_site_occupancy
_atom_site_site_symmetry_order
_atom_site_calc_flag
_atom_site_refinement_flags_posn
_atom_site_refinement_flags_adp
_atom_site_refinement_flags_occupancy
_atom_site_disorder_assembly
_atom_site_disorder_group
O12 O 0.7585(5) 0.1533(5) 0.2176(3) 0.0379(11) Uani 1 1 d . . . . .
C24 C 0.7162(7) 0.2500(7) 0.2461(5) 0.0365(16) Uani 1 1 d . . . . .
C20 C 0.7622(7) 0.3659(7) 0.2000(5) 0.0361(16) Uani 1 1 d . . . . .
N3 N 0.9750(7) 0.4551(7) 0.0146(5) 0.0523(18) Uani 1 1 d . . . . .
O5 O 0.8516(4) 0.9320(5) 1.0076(3) 0.0356(11) Uani 1 1 d . . . . .
C16 C 0.9049(7) 0.9250(7) 0.9348(5) 0.0350(16) Uani 1 1 d . . . . .
O6 O 1.0207(4) 0.9241(5) 0.9154(3) 0.0342(11) Uani 1 1 d . . . . .
O3 O 0.4247(4) 1.0053(5) 0.7587(3) 0.0336(11) Uani 1 1 d . . . . .
O4 O 0.4290(5) 0.9811(6) 0.8978(3) 0.0425(13) Uani 1 1 d . . . . .
C9 C 0.4864(7) 0.9779(7) 0.8259(5) 0.0366(16) Uani 1 1 d . . . . .
C10 C 0.6256(6) 0.9389(7) 0.8165(5) 0.0350(16) Uani 1 1 d . . . . .
C11 C 0.6983(7) 0.9404(7) 0.8812(5) 0.0349(15) Uani 1 1 d . . . . .
H11 H 0.659862 0.957769 0.932836 0.042 Uiso 1 1 calc R . . . .
C12 C 0.8301(6) 0.9156(7) 0.8675(4) 0.0335(15) Uani 1 1 d . . . . .
O7 O 1.3880(4) 0.8814(5) 0.4598(3) 0.0384(12) Uani 1 1 d . . . . .
O8 O 1.3794(5) 0.8150(5) 0.3435(3) 0.0399(12) Uani 1 1 d . . . . .
C8 C 1.3273(6) 0.8438(7) 0.4121(5) 0.0345(16) Uani 1 1 d . . . . .
C6 C 1.1948(7) 0.8373(7) 0.4379(5) 0.0359(15) Uani 1 1 d . . . . .
C5 C 1.1467(7) 0.8369(7) 0.5210(5) 0.0360(16) Uani 1 1 d . . . . .
H5 H 1.199051 0.835676 0.562286 0.043 Uiso 1 1 calc R . . . .
C7 C 1.1172(7) 0.8399(7) 0.3766(5) 0.0368(16) Uani 1 1 d . . . . .
H7 H 1.150136 0.838526 0.320779 0.044 Uiso 1 1 calc R . . . .
Sm2 Sm 0.58754(3) 0.83987(3) 0.37340(2) 0.02991(15) Uani 1 1 d . . . . .
Sm1 Sm 0.79283(3) 1.00495(3) 0.13442(2) 0.02881(15) Uani 1 1 d . . . . .
C28 C 0.6318(12) 1.3183(17) -0.1906(7) 0.104(5) Uani 1 1 d . . . . .
H28A H 0.695925 1.363950 -0.212822 0.156 Uiso 1 1 calc GR . . . .
H28B H 0.551136 1.372396 -0.205199 0.156 Uiso 1 1 calc GR . . . .
H28C H 0.646197 1.246166 -0.215059 0.156 Uiso 1 1 calc GR . . . .
O1 O 0.9352(5) 0.9028(5) 0.2509(3) 0.0363(11) Uani 1 1 d . . . . .
O15 O 0.6383(4) 0.8040(5) 0.5260(3) 0.0359(11) Uani 1 1 d . . . . .
H15A H 0.683479 0.727615 0.543772 0.054 Uiso 1 1 d GR . . . .
H15B H 0.569698 0.813603 0.559325 0.054 Uiso 1 1 d GR . . . .
O16 O 0.5790(5) 1.0465(5) 0.4020(3) 0.0368(11) Uani 1 1 d . . . . .
H16A H 0.606884 1.095117 0.356962 0.055 Uiso 1 1 d GR . . . .
H16B H 0.624637 1.037189 0.444157 0.055 Uiso 1 1 d GR . . . .
O10 O 0.6409(5) 0.7129(5) 0.2735(3) 0.0362(11) Uani 1 1 d . . . . .
O14 O 0.5831(5) 0.6237(5) 0.4452(3) 0.0418(12) Uani 1 1 d . . . . .
H14A H 0.657917 0.579719 0.456602 0.063 Uiso 1 1 d GR . . . .
H14B H 0.552706 0.590217 0.412526 0.063 Uiso 1 1 d GR . . . .
O9 O 0.7759(5) 0.7951(5) 0.1747(3) 0.0363(11) Uani 1 1 d . . . . .
N1 N 0.9784(6) 0.8481(6) 0.6304(4) 0.0378(14) Uani 1 1 d . . . . .
O11 O 0.6418(5) 0.2545(5) 0.3105(4) 0.0457(13) Uani 1 1 d . . . . .
C18 C 0.7661(7) 0.5855(7) 0.1850(5) 0.0349(15) Uani 1 1 d . . . . .
O2 O 0.7971(5) 0.8327(5) 0.3540(3) 0.0397(12) Uani 1 1 d . . . . .
N2 N 0.8620(5) 0.8593(6) 0.6454(4) 0.0372(14) Uani 1 1 d . . . . .
O13 O 0.7170(5) 1.1978(5) 0.0297(3) 0.0451(13) Uani 1 1 d . . . . .
C17 C 0.7249(6) 0.7074(7) 0.2129(5) 0.0332(15) Uani 1 1 d . . . . .
C3 C 0.9402(6) 0.8433(7) 0.4808(4) 0.0344(15) Uani 1 1 d . . . . .
H3 H 0.855477 0.845646 0.494916 0.041 Uiso 1 1 calc R . . . .
C21 C 0.8452(7) 0.3618(8) 0.1295(5) 0.0412(17) Uani 1 1 d . . . . .
H21 H 0.872540 0.287639 0.110165 0.049 Uiso 1 1 calc R . . . .
C19 C 0.7218(7) 0.4796(7) 0.2281(5) 0.0366(16) Uani 1 1 d . . . . .
H19 H 0.665241 0.483676 0.275743 0.044 Uiso 1 1 calc R . . . .
C2 C 0.9910(6) 0.8444(7) 0.3971(4) 0.0343(15) Uani 1 1 d . . . . .
C14 C 0.8140(7) 0.8796(7) 0.7285(5) 0.0362(16) Uani 1 1 d . . . . .
C1 C 0.9010(6) 0.8606(7) 0.3279(5) 0.0325(15) Uani 1 1 d . . . . .
C4 C 1.0209(7) 0.8384(7) 0.5438(4) 0.0369(16) Uani 1 1 d . . . . .
C15 C 0.6853(6) 0.9057(7) 0.7416(5) 0.0388(16) Uani 1 1 d . . . . .
H15 H 0.637308 0.901071 0.699549 0.047 Uiso 1 1 calc R . . . .
C22 C 0.8891(8) 0.4701(8) 0.0864(5) 0.0437(18) Uani 1 1 d . . . . .
C23 C 0.8487(7) 0.5801(8) 0.1125(5) 0.0444(18) Uani 1 1 d . . . . .
H23 H 0.875975 0.651694 0.082072 0.053 Uiso 1 1 calc R . . . .
C13 C 0.8874(6) 0.8880(7) 0.7918(5) 0.0345(15) Uani 1 1 d . . . . .
H13 H 0.974086 0.874939 0.782166 0.041 Uiso 1 1 calc R . . . .
N4 N 0.6348(15) 1.2761(11) -0.0967(7) 0.103(4) Uani 1 1 d . . . . .
C26 C 0.8512(8) 1.2427(11) -0.1035(7) 0.065(3) Uani 1 1 d . . . . .
H26A H 0.858427 1.202922 -0.150520 0.097 Uiso 1 1 calc GR . . . .
H26B H 0.918355 1.199362 -0.066550 0.097 Uiso 1 1 calc GR . . . .
H26C H 0.855673 1.329314 -0.125304 0.097 Uiso 1 1 calc GR . . . .
C25 C 0.7211(13) 1.2368(10) -0.0510(8) 0.078(3) Uani 1 1 d . . . . .
C27 C 0.5040(9) 1.2645(14) -0.0479(8) 0.087(4) Uani 1 1 d . . . . .
H27A H 0.449195 1.347091 -0.053655 0.130 Uiso 1 1 calc GR . . . .
H27B H 0.515590 1.226234 0.011874 0.130 Uiso 1 1 calc GR . . . .
H27C H 0.467426 1.213119 -0.072011 0.130 Uiso 1 1 calc GR . . . .
O17 O 0.5059(5) 0.5582(6) 0.6134(4) 0.0443(13) Uani 1 1 d . . . . .
H17A H 0.481806 0.610277 0.645418 0.066 Uiso 1 1 d G . . . .
H17B H 0.584129 0.526283 0.617024 0.066 Uiso 1 1 d G . . . .
C30 C 0.9247(11) 1.5412(11) -0.2803(7) 0.074(3) Uani 1 1 d . . . . .
H30A H 0.955469 1.607192 -0.268339 0.111 Uiso 1 1 calc GR . . . .
H30B H 0.960024 1.526409 -0.335276 0.111 Uiso 1 1 calc GR . . . .
H30C H 0.948378 1.465160 -0.236655 0.111 Uiso 1 1 calc GR . . . .
N5 N 0.7171(14) 1.5923(16) -0.1969(10) 0.124(5) Uani 1 1 d . . . . .
O18 O 0.7411(13) 1.5872(10) -0.3560(9) 0.126(5) Uani 1 1 d . . . . .
C31 C 0.5787(15) 1.6220(19) -0.1835(13) 0.134(6) Uani 1 1 d . . . . .
H31A H 0.555095 1.595993 -0.123537 0.201 Uiso 1 1 calc GR . . . .
H31B H 0.544780 1.578032 -0.215421 0.201 Uiso 1 1 calc GR . . . .
H31C H 0.546222 1.711412 -0.203013 0.201 Uiso 1 1 calc GR . . . .
C32 C 0.792(3) 1.571(2) -0.1189(13) 0.197(13) Uani 1 1 d . . . . .
H32A H 0.777292 1.649059 -0.100533 0.296 Uiso 1 1 calc GR . . . .
H32B H 0.880317 1.544664 -0.134190 0.296 Uiso 1 1 calc GR . . . .
H32C H 0.767037 1.507707 -0.072961 0.296 Uiso 1 1 calc GR . . . .
C29 C 0.773(2) 1.5833(17) -0.281(2) 0.175(11) Uani 1 1 d . . . . .
loop_
_atom_site_aniso_label
_atom_site_aniso_U_11
_atom_site_aniso_U_22
_atom_site_aniso_U_33
_atom_site_aniso_U_23
_atom_site_aniso_U_13
_atom_site_aniso_U_12
O12 0.042(3) 0.037(3) 0.038(3) -0.014(2) 0.006(2) -0.013(2)
C24 0.039(4) 0.040(4) 0.034(4) -0.012(3) -0.001(3) -0.013(3)
C20 0.036(4) 0.035(4) 0.038(4) -0.012(3) 0.003(3) -0.010(3)
N3 0.063(5) 0.038(4) 0.059(4) -0.019(3) 0.028(4) -0.024(3)
O5 0.028(2) 0.046(3) 0.036(3) -0.017(2) 0.003(2) -0.011(2)
C16 0.038(4) 0.033(4) 0.037(4) -0.012(3) 0.002(3) -0.010(3)
O6 0.029(3) 0.041(3) 0.036(3) -0.011(2) -0.002(2) -0.011(2)
O3 0.029(2) 0.037(3) 0.037(3) -0.011(2) -0.004(2) -0.007(2)
O4 0.036(3) 0.058(4) 0.034(3) -0.013(2) 0.002(2) -0.010(2)
C9 0.035(4) 0.036(4) 0.039(4) -0.006(3) -0.002(3) -0.010(3)
C10 0.028(3) 0.037(4) 0.040(4) -0.011(3) -0.002(3) -0.005(3)
C11 0.036(4) 0.037(4) 0.031(3) -0.007(3) -0.001(3) -0.009(3)
C12 0.033(4) 0.034(4) 0.034(4) -0.007(3) -0.002(3) -0.010(3)
O7 0.036(3) 0.050(3) 0.034(3) -0.018(2) -0.001(2) -0.012(2)
O8 0.035(3) 0.053(3) 0.037(3) -0.019(2) 0.001(2) -0.011(2)
C8 0.026(3) 0.039(4) 0.036(4) -0.011(3) 0.002(3) -0.003(3)
C6 0.034(4) 0.037(4) 0.041(4) -0.013(3) 0.001(3) -0.012(3)
C5 0.036(4) 0.040(4) 0.036(4) -0.013(3) -0.006(3) -0.009(3)
C7 0.032(4) 0.042(4) 0.036(4) -0.013(3) 0.002(3) -0.007(3)
Sm2 0.0285(2) 0.0328(2) 0.0306(2) -0.01019(15) 0.00001(14) -0.00890(15)
Sm1 0.0286(2) 0.0295(2) 0.0294(2) -0.00803(15) -0.00114(15) -0.00787(15)
C28 0.084(8) 0.177(16) 0.045(6) -0.015(8) -0.018(6) -0.023(9)
O1 0.036(3) 0.041(3) 0.033(3) -0.008(2) 0.000(2) -0.012(2)
O15 0.033(3) 0.037(3) 0.037(3) -0.011(2) -0.001(2) -0.005(2)
O16 0.043(3) 0.038(3) 0.032(3) -0.009(2) 0.000(2) -0.017(2)
O10 0.041(3) 0.035(3) 0.035(3) -0.015(2) 0.007(2) -0.013(2)
O14 0.047(3) 0.041(3) 0.041(3) -0.012(2) -0.003(2) -0.013(2)
O9 0.042(3) 0.035(3) 0.035(3) -0.012(2) 0.006(2) -0.015(2)
N1 0.036(3) 0.045(4) 0.032(3) -0.011(3) 0.000(3) -0.009(3)
O11 0.060(3) 0.036(3) 0.042(3) -0.016(2) 0.019(3) -0.017(3)
C18 0.036(4) 0.035(4) 0.035(4) -0.010(3) 0.001(3) -0.009(3)
O2 0.032(3) 0.055(3) 0.034(3) -0.013(2) -0.001(2) -0.012(2)
N2 0.034(3) 0.046(4) 0.033(3) -0.012(3) -0.003(2) -0.009(3)
O13 0.050(3) 0.040(3) 0.041(3) 0.001(2) -0.012(2) -0.009(2)
C17 0.033(4) 0.032(4) 0.038(4) -0.010(3) -0.003(3) -0.010(3)
C3 0.028(3) 0.039(4) 0.036(4) -0.010(3) -0.001(3) -0.007(3)
C21 0.048(4) 0.035(4) 0.044(4) -0.017(3) 0.007(3) -0.011(3)
C19 0.036(4) 0.035(4) 0.039(4) -0.011(3) 0.004(3) -0.008(3)
C2 0.034(4) 0.036(4) 0.034(4) -0.008(3) -0.006(3) -0.009(3)
C14 0.033(4) 0.044(4) 0.033(4) -0.013(3) 0.003(3) -0.011(3)
C1 0.029(4) 0.030(4) 0.039(4) -0.011(3) -0.003(3) -0.004(3)
C4 0.041(4) 0.039(4) 0.027(3) -0.005(3) 0.001(3) -0.008(3)
C15 0.036(4) 0.041(4) 0.037(4) -0.008(3) -0.005(3) -0.005(3)
C22 0.048(4) 0.041(4) 0.045(4) -0.015(4) 0.020(3) -0.020(4)
C23 0.048(4) 0.044(5) 0.047(4) -0.018(4) 0.010(3) -0.019(4)
C13 0.030(3) 0.033(4) 0.039(4) -0.006(3) 0.000(3) -0.008(3)
N4 0.190(13) 0.072(7) 0.056(6) 0.004(5) -0.045(7) -0.048(7)
C26 0.045(5) 0.069(7) 0.066(6) -0.004(5) 0.001(4) -0.002(5)
C25 0.113(9) 0.043(6) 0.082(8) -0.016(5) -0.043(7) -0.006(6)
C27 0.041(5) 0.114(11) 0.082(8) 0.005(7) -0.006(5) -0.003(6)
O17 0.052(3) 0.042(3) 0.042(3) -0.017(2) 0.011(3) -0.017(3)
C30 0.088(8) 0.065(7) 0.065(6) 0.002(5) -0.015(6) -0.025(6)
N5 0.113(10) 0.140(13) 0.120(11) -0.038(10) -0.027(8) -0.012(9)
O18 0.167(10) 0.077(6) 0.143(10) 0.036(6) -0.115(9) -0.054(6)
C31 0.098(11) 0.132(16) 0.162(18) -0.013(13) 0.002(11) -0.037(11)
C32 0.27(3) 0.19(3) 0.126(17) -0.040(17) -0.114(19) 0.01(2)
C29 0.19(2) 0.062(11) 0.24(3) -0.028(14) 0.11(2) -0.031(12)
loop_
_atom_type_symbol
_atom_type_description
_atom_type_scat_dispersion_real
_atom_type_scat_dispersion_imag
_atom_type_scat_source
C C 0.0033 0.0016 'International Tables Vol C Tables 4.2.6.8 and 6.1.1.4'
H H 0.0000 0.0000 'International Tables Vol C Tables 4.2.6.8 and 6.1.1.4'
N N 0.0061 0.0033 'International Tables Vol C Tables 4.2.6.8 and 6.1.1.4'
O O 0.0106 0.0060 'International Tables Vol C Tables 4.2.6.8 and 6.1.1.4'
Sm Sm -0.1638 3.4418 'International Tables Vol C Tables 4.2.6.8 and 6.1.1.4'
loop_
_geom_angle_atom_site_label_1
_geom_angle_atom_site_label_2
_geom_angle_atom_site_label_3
_geom_angle
_geom_angle_site_symmetry_1
_geom_angle_site_symmetry_3
C24 O12 Sm1 162.8(5) . 1_545
O12 C24 C20 116.8(6) . .
O11 C24 O12 124.0(7) . .
O11 C24 C20 119.2(7) . .
C21 C20 C24 119.7(7) . .
C21 C20 C19 119.1(7) . .
C19 C20 C24 121.2(6) . .
N3 N3 C22 113.7(8) 2_765 .
C16 O5 Sm1 158.5(5) . 1_556
O5 C16 O6 123.8(7) . .
O5 C16 C12 118.6(6) . .
O6 C16 C12 117.6(6) . .
C16 O6 Sm1 161.0(5) . 2_776
C9 O3 Sm2 135.6(5) . 2_676
C9 O3 Sm1 88.5(4) . 2_676
Sm2 O3 Sm1 118.63(18) 2_676 2_676
C9 O4 Sm1 101.6(5) . 2_676
O3 C9 C10 118.5(7) . .
O3 C9 Sm1 66.5(4) . 2_676
O4 C9 O3 119.9(7) . .
O4 C9 C10 121.6(7) . .
O4 C9 Sm1 54.5(4) . 2_676
C10 C9 Sm1 167.0(5) . 2_676
C11 C10 C9 120.4(6) . .
C15 C10 C9 120.3(6) . .
C15 C10 C11 119.2(6) . .
C10 C11 C12 119.6(6) . .
C11 C12 C16 118.7(6) . .
C13 C12 C16 120.8(6) . .
C13 C12 C11 120.5(6) . .
C8 O7 Sm2 93.9(4) . 1_655
C8 O8 Sm2 92.7(4) . 1_655
O7 C8 C6 119.2(6) . .
O7 C8 Sm2 59.3(3) . 1_655
O8 C8 O7 120.2(6) . .
O8 C8 C6 120.5(7) . .
O8 C8 Sm2 61.2(4) . 1_655
C6 C8 Sm2 175.5(5) . 1_655
C5 C6 C8 120.9(6) . .
C7 C6 C8 119.3(7) . .
C7 C6 C5 119.7(7) . .
C6 C5 C4 120.8(6) . .
C6 C7 C2 120.7(7) . .
O3 Sm2 O7 109.20(18) 2_676 1_455
O3 Sm2 O8 86.14(17) 2_676 1_455
O3 Sm2 C8 99.59(19) 2_676 1_455
O3 Sm2 O15 141.26(17) 2_676 .
O3 Sm2 O16 70.86(17) 2_676 .
O3 Sm2 O14 146.58(17) 2_676 .
O7 Sm2 O8 52.87(16) 1_455 1_455
O7 Sm2 C8 26.78(19) 1_455 1_455
O7 Sm2 O15 72.33(16) 1_455 .
O8 Sm2 C8 26.17(19) 1_455 1_455
O15 Sm2 O8 119.00(17) . 1_455
O15 Sm2 C8 95.40(19) . 1_455
O16 Sm2 O7 77.03(17) . 1_455
O16 Sm2 O8 113.52(17) . 1_455
O16 Sm2 C8 96.9(2) . 1_455
O16 Sm2 O15 72.02(17) . .
O10 Sm2 O3 78.54(18) . 2_676
O10 Sm2 O7 127.27(17) . 1_455
O10 Sm2 O8 76.82(17) . 1_455
O10 Sm2 C8 101.4(2) . 1_455
O10 Sm2 O15 132.84(17) . .
O10 Sm2 O16 146.49(17) . .
O10 Sm2 O14 70.41(18) . .
O14 Sm2 O7 81.41(18) . 1_455
O14 Sm2 O8 75.24(19) . 1_455
O14 Sm2 C8 75.4(2) . 1_455
O14 Sm2 O15 71.88(17) . .
O14 Sm2 O16 142.09(17) . .
O2 Sm2 O3 84.32(18) . 2_676
O2 Sm2 O7 149.40(17) . 1_455
O2 Sm2 O8 157.70(17) . 1_455
O2 Sm2 C8 175.45(19) . 1_455
O2 Sm2 O15 80.07(17) . .
O2 Sm2 O16 82.16(18) . .
O2 Sm2 O10 81.54(18) . .
O2 Sm2 O14 102.6(2) . .
O12 Sm1 O5 154.70(19) 1_565 1_554
O12 Sm1 O6 83.92(17) 1_565 2_776
O12 Sm1 O3 69.85(16) 1_565 2_676
O12 Sm1 O4 100.94(18) 1_565 2_676
O12 Sm1 C9 83.4(2) 1_565 2_676
O12 Sm1 O1 76.16(18) 1_565 .
O12 Sm1 O9 129.29(18) 1_565 .
O12 Sm1 O13 79.04(19) 1_565 .
O5 Sm1 O6 77.72(17) 1_554 2_776
O5 Sm1 O3 128.23(15) 1_554 2_676
O5 Sm1 O4 85.22(17) 1_554 2_676
O5 Sm1 C9 107.81(19) 1_554 2_676
O5 Sm1 O1 115.02(16) 1_554 .
O5 Sm1 O13 80.20(19) 1_554 .
O6 Sm1 O3 153.55(15) 2_776 2_676
O6 Sm1 O4 145.65(18) 2_776 2_676
O6 Sm1 C9 157.89(19) 2_776 2_676
O6 Sm1 O1 75.40(17) 2_776 .
O6 Sm1 O13 77.94(18) 2_776 .
O3 Sm1 C9 24.98(17) 2_676 2_676
O4 Sm1 O3 48.55(15) 2_676 2_676
O4 Sm1 C9 23.87(19) 2_676 2_676
O1 Sm1 O3 94.44(15) . 2_676
O1 Sm1 O4 138.92(18) . 2_676
O1 Sm1 C9 118.67(19) . 2_676
O9 Sm1 O5 75.97(18) . 1_554
O9 Sm1 O6 126.19(18) . 2_776
O9 Sm1 O3 72.09(16) . 2_676
O9 Sm1 O4 76.61(19) . 2_676
O9 Sm1 C9 75.6(2) . 2_676
O9 Sm1 O1 74.68(18) . .
O9 Sm1 O13 140.08(18) . .
O13 Sm1 O3 99.64(17) . 2_676
O13 Sm1 O4 69.84(19) . 2_676
O13 Sm1 C9 81.9(2) . 2_676
O13 Sm1 O1 145.12(18) . .
C1 O1 Sm1 125.0(4) . .
C17 O10 Sm2 132.2(5) . .
C17 O9 Sm1 154.5(5) . .
N2 N1 C4 113.4(6) . .
C19 C18 C17 121.7(6) . .
C19 C18 C23 119.8(7) . .
C23 C18 C17 118.5(7) . .
C1 O2 Sm2 162.5(5) . .
N1 N2 C14 115.3(6) . .
C25 O13 Sm1 138.0(6) . .
O10 C17 C18 117.0(6) . .
O9 C17 O10 125.3(7) . .
O9 C17 C18 117.8(6) . .
C2 C3 C4 118.3(6) . .
C20 C21 C22 119.9(7) . .
C18 C19 C20 120.3(7) . .
C7 C2 C3 120.6(6) . .
C7 C2 C1 121.4(6) . .
C3 C2 C1 117.9(6) . .
C15 C14 N2 115.3(6) . .
C15 C14 C13 119.6(6) . .
C13 C14 N2 124.8(6) . .
O1 C1 O2 125.7(6) . .
O1 C1 C2 117.9(6) . .
O2 C1 C2 116.3(6) . .
C5 C4 N1 116.1(6) . .
C5 C4 C3 119.8(6) . .
C3 C4 N1 123.7(6) . .
C14 C15 C10 121.2(7) . .
C21 C22 N3 115.2(7) . .
C23 C22 N3 123.7(7) . .
C23 C22 C21 121.1(7) . .
C22 C23 C18 119.8(8) . .
C12 C13 C14 119.8(6) . .
C28 N4 C27 114.6(11) . .
C25 N4 C28 131.3(15) . .
C25 N4 C27 113.6(11) . .
O13 C25 C26 120.2(9) . .
N4 C25 O13 127.9(14) . .
N4 C25 C26 111.9(12) . .
C31 N5 C32 117.4(17) . .
C29 N5 C31 118.5(18) . .
C29 N5 C32 124(2) . .
N5 C29 C30 110(3) . .
O18 C29 C30 109.0(15) . .
O18 C29 N5 140(3) . .
loop_
_geom_bond_atom_site_label_1
_geom_bond_atom_site_label_2
_geom_bond_distance
_geom_bond_site_symmetry_2
O12 C24 1.248(9) .
O12 Sm1 2.328(5) 1_545
C24 C20 1.503(11) .
C24 O11 1.243(9) .
C20 C21 1.371(10) .
C20 C19 1.412(10) .
N3 N3 1.234(14) 2_765
N3 C22 1.418(10) .
O5 C16 1.258(9) .
O5 Sm1 2.352(5) 1_556
C16 O6 1.275(9) .
C16 C12 1.485(10) .
O6 Sm1 2.369(5) 2_776
O3 C9 1.282(9) .
O3 Sm2 2.378(5) 2_676
O3 Sm1 2.784(5) 2_676
O4 C9 1.254(9) .
O4 Sm1 2.524(5) 2_676
C9 C10 1.486(10) .
C9 Sm1 3.035(8) 2_676
C10 C11 1.399(10) .
C10 C15 1.393(10) .
C11 C12 1.410(10) .
C12 C13 1.373(10) .
O7 C8 1.289(9) .
O7 Sm2 2.460(5) 1_655
O8 C8 1.260(9) .
O8 Sm2 2.503(5) 1_655
C8 C6 1.484(10) .
C8 Sm2 2.854(7) 1_655
C6 C5 1.379(10) .
C6 C7 1.378(10) .
C5 C4 1.387(10) .
C7 C2 1.381(10) .
Sm2 O3 2.378(5) 2_676
Sm2 O7 2.460(5) 1_455
Sm2 O8 2.503(5) 1_455
Sm2 C8 2.854(7) 1_455
Sm2 O15 2.502(5) .
Sm2 O16 2.459(5) .
Sm2 O10 2.343(5) .
Sm2 O14 2.423(6) .
Sm2 O2 2.279(5) .
Sm1 O12 2.328(5) 1_565
Sm1 O5 2.352(5) 1_554
Sm1 O6 2.369(5) 2_776
Sm1 O3 2.784(5) 2_676
Sm1 O4 2.524(5) 2_676
Sm1 C9 3.035(8) 2_676
Sm1 O1 2.457(5) .
Sm1 O9 2.333(5) .
Sm1 O13 2.413(5) .
C28 N4 1.469(14) .
O1 C1 1.259(9) .
O10 C17 1.264(9) .
O9 C17 1.247(9) .
N1 N2 1.257(9) .
N1 C4 1.438(9) .
C18 C17 1.495(10) .
C18 C19 1.389(11) .
C18 C23 1.394(10) .
O2 C1 1.258(9) .
N2 C14 1.430(9) .
O13 C25 1.262(13) .
C3 C2 1.395(10) .
C3 C4 1.416(10) .
C21 C22 1.409(11) .
C2 C1 1.533(9) .
C14 C15 1.375(10) .
C14 C13 1.415(10) .
C22 C23 1.359(11) .
N4 C25 1.201(15) .
N4 C27 1.575(18) .
C26 C25 1.580(17) .
C30 C29 1.62(3) .
N5 C31 1.48(2) .
N5 C32 1.53(2) .
N5 C29 1.44(3) .
O18 C29 1.28(3) .
loop_
_refln_index_h
_refln_index_k
_refln_index_l
_refln_F_squared_meas
_refln_F_squared_sigma
_refln_scale_group_code
0 0 -2 83.6386 3.73313 0
0 0 2 84.2791 2.5894 0
0 0 2 88.1769 3.76058 0
0 0 -2 80.4087 2.54365 0
0 0 2 84.4072 1.45482 0
0 0 -2 74.5711 1.43652 0
0 0 -3 64.6194 2.57706 0
0 0 3 70.5274 2.45435 0
0 0 3 73.3411 2.8225 0
0 0 -3 68.0906 2.42805 0
0 0 3 67.4156 1.41125 0
0 0 -3 71.3075 1.7531 0
0 0 -4 1906.79 22.4218 0
0 0 4 1934.97 22.5042 0
0 0 4 1819.79 22.4135 0
0 0 -4 1980.1 23.0485 0
0 0 4 1871.45 19.7582 0
0 0 -4 1841.5 19.8077 0
0 0 -5 88.8174 4.35648 0
0 0 5 90.3152 4.50093 0
0 0 5 89.4332 4.88868 0
0 0 -5 93.7289 4.21962 0
0 0 5 86.8254 3.27686 0
0 0 -5 91.5544 3.77865 0
0 0 -6 9.49043 4.01305 0
0 0 6 7.59096 2.94245 0
0 0 6 9.72527 5.42902 0
0 0 -6 7.66694 2.46585 0
0 0 6 6.32695 1.37452 0
0 0 -6 5.97469 2.2241 0
0 0 -7 27.0406 5.40936 0
0 0 7 24.5903 3.38085 0
0 0 7 31.1038 3.4739 0
0 0 7 26.4389 2.0099 0
0 0 -7 28.0083 2.69227 0
0 0 -8 1014.19 26.131 0
0 0 8 1050.09 26.7399 0
0 0 8 1031.39 24.7473 0
0 0 -9 0.45942 1.30911 0
0 0 9 1.34863 2.2576 0
0 0 9 0.40508 0.3952 0
0 0 -10 44.5077 6.45477 0
0 0 10 44.401 3.66748 0
0 0 10 46.268 2.60502 0
0 0 -11 16.7342 7.68473 0
0 0 11 22.7618 7.98936 0
0 0 11 17.7862 1.96992 0
0 0 -12 330.494 10.1239 0
0 0 12 309.839 9.69888 0
0 0 -13 14.115 7.71586 0
0 0 13 12.3884 4.69603 0
0 0 -14 23.8523 3.56102 0
0 0 14 20.1616 8.72805 0
0 0 -15 10.9926 2.22555 0
0 0 15 9.58652 3.90189 0
0 0 -16 111.98 5.30723 0
0 0 16 116.049 7.53573 0
0 0 -17 16.1184 5.88516 0
0 0 17 13.9042 2.3263 0
0 0 -18 34.3023 2.06153 0
0 0 18 32.546 8.20092 0
0 0 -19 0.7206 0.91808 0
0 0 19 0.67228 1.15968 0
0 0 -20 40.6462 4.90611 0
0 0 20 46.1553 6.33657 0
0 1 -20 9.42705 6.02595 0
0 -1 20 11.139 6.74906 0
0 1 -19 19.6709 1.77455 0
0 -1 19 20.495 4.82799 0
0 1 -18 2.30996 1.25059 0
0 -1 18 2.15172 1.5539 0
0 1 -17 12.9642 6.51992 0
0 -1 17 9.05702 6.20337 0
0 1 -16 66.9601 4.05076 0
0 -1 16 64.2681 7.67754 0
0 1 -15 81.08 6.25934 0
0 -1 15 92.6827 6.07059 0
0 1 -14 2.12319 1.86865 0
0 -1 14 0.72171 1.11999 0
0 1 -13 54.5737 3.16355 0
0 -1 13 64.359 5.83816 0
0 -1 13 69.4848 1.94929 0
0 1 -12 194.991 7.2635 0
0 -1 12 183.945 8.12137 0
0 -1 12 197.277 5.2819 0
0 1 -11 54.0339 6.78067 0
0 -1 11 56.4978 4.22274 0
0 -1 11 59.6276 2.19363 0
0 1 -10 2.19968 1.38972 0
0 -1 10 1.80749 1.47498 0
0 -1 10 0.6437 0.70339 0
0 1 -9 34.1103 2.46937 0
0 -1 9 34.1338 7.66211 0
0 -1 9 34.5195 2.22479 0
0 1 -8 582.781 15.7128 0
0 -1 8 579.281 16.0382 0
0 -1 8 553.234 13.7553 0
0 1 -7 188.31 7.16246 0
0 -1 7 184.926 7.94981 0
0 -1 7 194.192 6.88631 0
0 1 -6 105.798 4.2592 0
0 -1 6 106.886 4.10193 0
0 -1 6 111.132 4.6327 0
0 -1 6 108.898 3.35494 0
0 1 -5 94.5979 9.19923 0
0 -1 5 95.4158 4.48743 0
0 -1 5 93.0346 4.66114 0
0 -1 5 92.5279 4.13278 0
0 1 -4 870.43 12.0048 0
0 -1 4 947.223 12.5964 0
0 -1 4 908.574 12.6832 0
0 -1 4 887.901 10.7902 0
0 1 -3 898.77 12.0542 0
0 -1 3 853.58 11.4709 0
0 -1 3 841.382 11.0398 0
0 1 -2 425.955 14.1852 0
0 -1 2 429.417 14.123 0
0 -1 2 411.166 13.5993 0
0 1 -1 72.4236 2.56529 0
0 -1 1 72.0205 2.1805 0
0 1 1 379.728 12.2544 0
0 -1 -1 392.204 12.6251 0
0 1 1 372.358 11.8836 0
0 -1 -1 367.724 11.7353 0
0 1 2 588.774 8.29694 0
0 -1 -2 590.973 8.11519 0
0 1 2 585.621 7.95162 0
0 -1 -2 593.336 8.89672 0
0 1 3 127.904 6.54146 0
0 1 3 137.388 5.75333 0
0 1 3 136.25 5.60446 0
0 -1 -3 137.336 5.2717 0
0 -1 -4 1059.26 13.7853 0
0 1 4 983.981 12.7906 0
0 1 4 1094.39 14.092 0
0 -1 -4 1048.89 13.6278 0
0 -1 -4 1041.55 11.4643 0
0 -1 -5 303.947 10.9791 0
0 1 5 300.418 10.5408 0
0 1 5 301.933 10.8176 0
0 -1 -5 291.953 10.3794 0
0 -1 -5 277.022 8.99547 0
0 -1 -6 476.094 11.3839 0
0 1 6 490.969 11.4331 0
0 1 6 472.66 11.2645 0
0 -1 -6 470.28 11.0047 0
0 -1 -7 4.19411 4.61225 0
0 1 7 2.33147 1.92599 0
0 1 7 4.5489 3.41484 0
0 -1 -7 5.66394 2.35047 0
0 -1 -8 641.283 17.1121 0
0 1 8 648.643 17.3956 0
0 -1 -9 30.53 4.05243 0
0 1 9 31.3354 3.16596 0
0 -1 -9 31.2139 1.31198 0
0 -1 -10 503.545 19.1246 0
0 1 10 520.143 19.202 0
0 -1 -10 482.864 16.548 0
0 -1 -11 17.024 4.69755 0
0 1 11 19.5033 7.36765 0
0 -1 -12 29.9537 5.57886 0
0 1 12 34.0269 2.7534 0
0 -1 -13 0.60899 2.03342 0
0 1 13 0.94962 2.29835 0
0 -1 -14 142.057 7.23959 0
0 1 14 146.022 6.55821 0
0 -1 -15 0.65908 0.92564 0
0 1 15 0.80554 1.28886 0
0 -1 -16 29.5421 3.14554 0
0 1 16 32.4985 5.2804 0
0 -1 -17 -0.06724 1.16542 0
0 1 17 1.67094 1.6037 0
0 -1 -18 123.129 6.12415 0
0 1 18 121.611 5.99032 0
0 -1 -19 2.05271 1.02206 0
0 1 19 1.20672 0.9147 0
0 1 20 12.6848 1.48272 0
0 1 20 8.86042 5.37883 0
0 2 -19 86.5817 4.81118 0
0 -2 19 82.3291 4.6558 0
0 2 -18 0.93765 0.82124 0
0 -2 18 1.57051 1.06041 0
0 2 -17 10.0307 4.5559 0
0 -2 17 8.08371 3.02741 0
0 2 -16 9.80396 3.86328 0
0 -2 16 7.95929 3.33168 0
0 2 -15 186.219 9.27516 0
0 -2 15 177.422 11.0686 0
0 2 -14 2.96767 2.59275 0
0 -2 14 0.49605 1.89193 0
0 2 -13 3.93165 2.85516 0
0 -2 13 3.0222 1.45078 0
0 -2 13 3.79863 2.32929 0
0 2 -12 3.73113 3.5162 0
0 -2 12 1.50118 1.45081 0
0 -2 12 0.79593 0.53062 0
0 2 -11 264.202 8.71251 0
0 -2 11 262.717 8.58352 0
0 -2 11 262.389 7.04667 0
0 2 -10 33.4796 3.13252 0
0 -2 10 38.4512 4.64018 0
0 -2 10 31.9962 2.08565 0
0 2 -9 5.24406 4.87861 0
0 -2 9 7.52486 3.2891 0
0 -2 9 6.12908 1.77004 0
0 2 -8 107.762 5.5483 0
0 -2 8 103.196 7.45447 0
0 -2 8 105.126 5.53372 0
0 2 -7 849.991 21.9737 0
0 -2 7 825.924 21.4652 0
0 -2 7 814.039 20.2102 0
0 2 -6 394.678 13.4729 0
0 -2 6 402.645 13.6895 0
0 -2 6 396.628 12.9674 0
0 2 -5 92.2146 4.49535 0
0 -2 5 85.4583 6.40388 0
0 -2 5 88.7699 3.39147 0
0 2 -4 302.119 12.1208 0
0 -2 4 318.825 11.227 0
0 -2 4 317.677 11.1616 0
0 2 -3 1381.68 17.1952 0
0 -2 3 1469.56 17.6726 0
0 -2 3 1386.84 18.9014 0
0 2 -2 1108.11 14.3955 0
0 -2 2 1140.59 14.5033 0
0 -2 2 1194.7 15.3325 0
0 2 -1 254.832 9.29465 0
0 -2 1 252.334 8.9587 0
0 -2 1 271.44 9.3205 0
0 2 0 261.728 9.96062 0
0 -2 0 246.29 8.91444 0
0 2 0 268.603 9.29247 0
0 -2 0 255.556 8.80016 0
0 2 1 1724.17 19.8519 0
0 -2 -1 1803.99 20.4781 0
0 2 1 1742 18.8818 0
0 -2 -1 1728.17 18.6525 0
0 2 2 1743.94 19.9143 0
0 -2 -2 1758.8 19.7926 0
0 2 2 1796.66 19.6621 0
0 -2 -2 1694.66 18.5664 0
0 2 3 249.074 9.09419 0
0 -2 -3 245.164 8.74862 0
0 2 3 233.752 8.33564 0
0 -2 -3 234.005 8.65591 0
0 2 4 148.249 6.40034 0
0 -2 -4 149.579 5.9838 0
0 2 4 135.2 5.62333 0
0 -2 -4 144.388 5.73548 0
0 2 5 1033.79 13.6005 0
0 2 5 1070.53 14.1167 0
0 2 5 1082.03 13.967 0
0 -2 -5 1104.32 14.0643 0
0 2 6 333.407 9.90787 0
0 2 6 335.257 9.64641 0
0 2 6 326.444 9.18542 0
0 -2 -6 323.457 9.05469 0
0 2 7 249.568 7.46741 0
0 2 7 248.83 7.77985 0
0 2 7 246.837 7.74236 0
0 -2 -7 239.382 7.06748 0
0 -2 -7 245.468 6.14265 0
0 2 8 210.417 8.83512 0
0 2 8 216.303 8.28363 0
0 -2 -8 203.14 6.42656 0
0 2 9 375.362 14.9158 0
0 -2 -10 164.702 6.4943 0
0 2 10 159.822 6.49886 0
0 -2 -11 96.0297 5.36644 0
0 2 11 99.3603 5.57044 0
0 -2 -11 94.9806 3.88016 0
0 -2 -12 0.60372 1.40613 0
0 2 12 0.09553 1.33353 0
0 -2 -13 20.7788 2.53052 0
0 2 13 30.3767 7.44231 0
0 -2 -14 146.871 6.23039 0
0 2 14 189.299 5.09064 0
0 2 15 32.2893 2.95231 0
0 2 16 3.13165 2.75694 0
0 2 16 4.46636 2.18258 0
0 2 17 30.6611 5.08497 0
0 2 17 23.9248 8.46067 0
0 2 18 75.0985 6.67339 0
0 2 18 68.8245 3.67889 0
0 2 19 29.5337 3.78855 0
0 2 19 29.8275 3.30111 0
0 2 20 1.75724 1.56334 0
0 2 20 -0.14543 1.7229 0
0 3 -18 6.05985 3.54486 0
0 -3 18 4.99558 2.35515 0
0 3 -17 0.42899 0.9037 0
0 -3 17 0.2918 1.31745 0
0 3 -16 1.67623 0.91049 0
0 -3 16 0.86146 1.46145 0
0 3 -15 181.007 8.96958 0
0 -3 15 163.679 8.22736 0
0 3 -14 2.06796 2.17422 0
0 -3 14 1.53939 1.08166 0
0 3 -13 48.6647 2.77958 0
0 -3 13 51.1472 2.94429 0
0 -3 13 48.3676 2.60604 0
0 3 -12 11.8344 5.68025 0
0 -3 12 14.4249 2.85908 0
0 -3 12 12.283 1.71545 0
0 3 -11 252.635 8.46794 0
0 -3 11 253.51 8.68067 0
0 -3 11 244.668 7.63762 0
0 3 -10 8.5078 4.50391 0
0 -3 10 12.1357 3.81216 0
0 -3 10 8.95142 2.99258 0
0 3 -9 51.9515 7.67893 0
0 -3 9 46.0695 3.60615 0
0 -3 9 50.4493 3.0331 0
0 3 -8 6.71192 4.57692 0
0 -3 8 10.039 6.81867 0
0 -3 8 9.7632 3.91862 0
0 3 -7 482.162 15.6759 0
0 -3 7 498.101 17.1316 0
0 -3 7 491.389 16.0862 0
0 3 -6 2.79128 2.94216 0
0 -3 6 6.67644 2.08538 0
0 3 -5 631.484 16.9678 0
0 -3 5 543.668 17.4659 0
0 3 -4 4.77962 3.67215 0
0 -3 4 11.2043 3.56205 0
0 -3 4 12.111 4.28093 0
0 3 -3 929.545 20.008 0
0 -3 3 912.171 19.4629 0
0 -3 3 1015.34 21.2869 0
0 -3 3 939.189 20.3854 0
0 3 -2 29.6049 8.44898 0
0 -3 2 25.02 9.13263 0
0 -3 2 26.3353 2.20699 0
0 3 -1 4853.64 20.5353 0
0 -3 1 4842.33 22.9525 0
0 3 -1 4773.52 52.3641 0
0 -3 1 4852.63 17.9858 0
0 3 0 630.32 11.0013 0
0 -3 0 593.641 9.49136 0
0 3 0 632.014 10.2903 0
0 -3 0 667.351 9.35554 0
0 3 1 956.231 13.9943 0
0 -3 -1 1009.09 13.4538 0
0 3 1 974.896 13.2845 0
0 -3 -1 926.347 11.51 0
0 3 2 907.932 15.4816 0
0 -3 -2 892.354 11.8671 0
0 3 2 939.559 11.3953 0
0 -3 -2 919.895 11.1714 0
0 3 3 2297.55 26.3662 0
0 -3 -3 2283.12 25.8678 0
0 3 3 2446.59 26.5141 0
0 -3 -3 2323.53 25.4396 0
0 3 4 30.3553 2.51098 0
0 -3 -4 30.3702 2.22785 0
0 3 4 30.0647 2.29491 0
0 -3 -4 30.9067 5.87883 0
0 3 5 390.769 6.1223 0
0 -3 -5 377.346 8.00879 0
0 3 5 368.573 9.75501 0
0 -3 -5 367.289 9.71293 0
0 3 6 49.7137 3.31034 0
0 -3 -6 54.2012 7.49867 0
0 3 6 50.9038 3.44041 0
0 -3 -6 53.3622 2.74453 0
0 3 7 1563.46 38.4454 0
0 3 7 1656.44 40.245 0
0 -3 -7 1596.2 38.8149 0
0 3 8 39.7605 2.99476 0
0 3 8 33.159 5.50213 0
0 -3 -8 31.8051 2.56694 0
0 3 9 277.143 10.0245 0
0 3 9 266.151 9.55326 0
0 -3 -9 270.486 8.58615 0
0 3 10 2.23859 2.26539 0
0 3 10 -0.92046 2.10007 0
0 -3 -10 0.66577 0.44235 0
0 3 11 492.456 15.5494 0
0 3 11 469.604 14.6248 0
0 3 12 3.6379 1.54885 0
0 3 12 5.18674 2.86725 0
0 -3 -12 2.58015 1.13708 0
0 3 13 17.0565 9.34332 0
0 3 13 24.6283 6.61718 0
0 -3 -13 23.074 0.47561 0
0 3 14 69.2692 3.2129 0
0 3 14 65.1334 3.12092 0
0 3 15 135.145 5.87008 0
0 3 15 130.915 5.38902 0
0 3 16 3.31594 1.81666 0
0 3 16 5.04779 2.47875 0
0 3 17 8.21693 5.01149 0
0 3 17 12.6879 6.46897 0
0 3 18 16.735 2.24946 0
0 3 18 17.0326 6.02198 0
0 3 19 123.806 7.50006 0
0 3 19 112.062 5.01534 0
0 3 20 21.4853 5.41194 0
0 3 20 21.8915 2.02669 0
0 3 21 -0.32935 1.14704 0
0 3 21 0.02839 0.95966 0
0 4 -18 15.315 7.17447 0
0 -4 18 21.4618 3.47946 0
0 4 -17 28.1059 3.32442 0
0 -4 17 23.7786 3.1841 0
0 4 -16 2.67356 2.07771 0
0 -4 16 1.94259 1.51509 0
0 4 -15 2.06002 2.15496 0
0 -4 15 5.21177 2.30447 0
0 4 -14 24.6686 2.08765 0
0 -4 14 25.8644 2.64981 0
0 4 -13 30.9317 4.30083 0
0 -4 13 32.6361 2.57995 0
0 -4 13 37.4672 2.14075 0
0 4 -12 2.29381 2.00597 0
0 -4 12 1.65285 1.32347 0
0 4 -11 174.658 7.37855 0
0 -4 11 177.267 7.75082 0
0 -4 11 171.504 6.44947 0
0 4 -10 62.4171 3.94047 0
0 -4 10 69.5058 4.17813 0
0 -4 10 69.2613 3.24124 0
0 4 -9 50.1128 3.2372 0
0 -4 9 54.1086 3.84559 0
0 -4 9 47.653 3.22969 0
0 4 -8 12.0976 5.32244 0
0 -4 8 15.8168 5.98164 0
0 -4 8 14.2013 1.66428 0
0 4 -7 116.857 10.2897 0
0 -4 7 122.274 4.89922 0
0 4 -6 58.3203 3.60243 0
0 -4 6 58.2727 2.6637 0
0 4 -5 1036.17 32.0208 0
0 -4 5 1055.22 33.0536 0
0 4 -4 20.6588 3.23375 0
0 -4 4 23.2053 4.0281 0
0 4 -3 3.64559 2.66292 0
0 -4 3 3.56673 1.67418 0
0 -4 3 1.95927 2.40815 0
0 4 -2 59.6511 3.95651 0
0 -4 2 67.5447 4.00815 0
0 -4 2 71.6432 3.57571 0
0 4 -1 2011.84 41.1542 0
0 -4 1 1967.27 39.9966 0
0 4 -1 2028.45 40.7548 0
0 -4 1 1943.4 39.0014 0
0 4 0 3.39645 5.45809 0
0 -4 0 3.676 3.6131 0
0 4 0 9.4905 2.94219 0
0 -4 0 3.89264 2.30623 0
0 4 1 425.195 11.7828 0
0 -4 -1 417.69 10.2789 0
0 4 1 394.309 5.28488 0
0 -4 -1 397.082 4.95147 0
0 4 2 31.5729 3.67324 0
0 -4 -2 30.4263 2.74608 0
0 4 2 30.667 2.97964 0
0 -4 -2 30.2706 1.92509 0
0 4 3 1644.45 34.0458 0
0 -4 -3 1620.69 32.9144 0
0 4 3 1510.71 30.0964 0
0 -4 -3 1570.91 31.3805 0
0 4 4 3.50132 2.6511 0
0 -4 -4 3.91639 2.55737 0
0 4 4 7.04951 2.09544 0
0 -4 -4 2.50381 2.53729 0
0 4 5 6.09018 5.56889 0
0 -4 -5 7.55233 2.62551 0
0 4 5 10.0062 2.73359 0
0 -4 -5 7.62861 4.38645 0
0 4 6 67.7158 5.6802 0
0 4 6 69.4544 3.501 0
0 -4 -6 61.5891 3.25689 0
0 4 7 1054.69 27.6555 0
0 4 7 1083.27 26.7123 0
0 -4 -7 1059.29 26.1608 0
0 4 8 16.7592 4.97244 0
0 4 8 14.6738 8.07261 0
0 -4 -8 14.9681 4.96737 0
0 4 9 8.53552 3.91367 0
0 4 9 8.17211 2.5532 0
0 4 10 32.9419 2.80494 0
0 4 10 30.6138 2.38828 0
0 4 11 406.117 13.0472 0
0 4 11 388.894 12.3718 0
0 -4 -11 412.391 12.0202 0
0 4 12 2.10936 2.52389 0
0 4 12 3.80051 1.69849 0
0 -4 -12 2.75867 1.2326 0
0 4 13 14.8712 5.98826 0
0 4 13 11.2554 3.81132 0
0 4 14 -0.5211 1.57889 0
0 4 14 -0.12169 1.52272 0
0 -4 -14 0.04056 0.13417 0
0 4 15 177.733 6.84507 0
0 4 15 184.099 7.4899 0
0 4 16 0.48417 1.21179 0
0 4 16 0.75196 1.47957 0
0 4 17 9.32683 5.26951 0
0 4 17 9.84025 4.39042 0
0 4 18 1.90286 1.86094 0
0 4 18 1.25771 0.85245 0
0 4 19 105.726 4.83529 0
0 4 19 100.836 5.59693 0
0 4 20 2.35515 2.01494 0
0 4 21 24.3784 2.66712 0
0 4 21 20.286 4.94675 0
0 5 -17 14.437 2.0602 0
0 -5 17 10.3438 5.46596 0
0 5 -16 16.0931 1.72441 0
0 -5 16 12.4879 6.26585 0
0 5 -15 1.91748 1.82373 0
0 -5 15 0.28126 0.89735 0
0 5 -14 53.3854 2.95074 0
0 -5 14 53.66 3.11308 0
0 5 -13 9.10206 4.60744 0
0 -5 13 10.6045 4.93562 0
0 -5 13 11.3327 3.84594 0
0 5 -12 73.2958 3.30137 0
0 -5 12 70.3785 7.70226 0
0 -5 12 71.0802 3.57763 0
0 5 -11 1.93182 1.85195 0
0 -5 11 4.31628 2.09454 0
0 -5 11 6.10314 2.60042 0
0 5 -10 134.78 5.83473 0
0 -5 10 146.323 6.65564 0
0 -5 10 150.999 5.93893 0
0 5 -9 40.4223 3.40984 0
0 -5 9 45.0514 2.97852 0
0 -5 9 36.6117 2.91399 0
0 5 -8 135.002 5.31986 0
0 -5 8 156.44 6.23466 0
0 -5 8 129.569 4.64753 0
0 5 -7 6.38111 3.01363 0
0 -5 7 6.16245 1.5267 0
0 5 -6 306.622 10.5618 0
0 -5 6 298.667 5.43116 0
0 5 -5 133.542 6.01816 0
0 -5 5 136.41 5.98191 0
0 5 -4 439.103 14.7174 0
0 -5 4 434.989 14.5765 0
0 5 -3 51.0412 10.0951 0
0 -5 3 46.6057 3.33565 0
0 5 -2 306.164 11.1657 0
0 -5 2 329.364 11.8474 0
0 5 -1 446.821 15.7941 0
0 -5 1 552.661 6.58039 0
0 5 0 626.783 17.7647 0
0 5 0 587.69 15.7207 0
0 -5 0 641.919 16.4537 0
0 5 1 311.841 12.2788 0
0 5 1 324.539 12.042 0
0 -5 -1 311.186 10.2627 0
0 5 2 587.9 9.09018 0
0 5 2 578.432 6.15963 0
0 -5 -2 597.125 5.92202 0
0 5 3 1107.43 27.9337 0
0 5 3 1119.74 27.5245 0
0 -5 -3 1113.27 27.1334 0
0 5 4 847.372 21.8584 0
0 5 4 781.686 19.3997 0
0 -5 -4 811.675 20.1022 0
0 5 5 220.86 11.0393 0
0 5 5 204.907 7.00768 0
0 -5 -5 192.751 6.80554 0
0 5 6 10.2487 4.74652 0
0 5 6 11.116 3.91109 0
0 -5 -6 6.41739 2.46372 0
0 5 7 394.309 6.65992 0
0 5 7 382.918 12.5354 0
0 -5 -7 369.763 12.0958 0
0 5 8 150.291 6.45732 0
0 5 8 142 5.50552 0
0 5 9 44.4937 3.45675 0
0 5 9 44.99 3.06493 0
0 5 10 4.03307 2.73221 0
0 5 10 3.27866 2.32034 0
0 5 11 141.782 5.244 0
0 5 11 148.595 6.51699 0
0 5 12 86.3302 4.82691 0
0 5 12 75.0592 4.56031 0
0 5 13 19.5657 1.90258 0
0 5 13 23.3871 6.19884 0
0 5 14 20.733 1.8677 0
0 5 14 19.2904 5.61827 0
0 -5 -14 23.208 1.83733 0
0 5 15 76.118 8.41035 0
0 5 15 71.2869 4.74561 0
0 5 16 30.6962 3.14419 0
0 5 16 28.9641 3.77356 0
0 5 17 43.2544 2.73136 0
0 5 17 47.0208 2.49535 0
0 5 18 0.66084 1.71176 0
0 5 18 1.0624 0.81687 0
0 5 19 50.2709 3.79845 0
0 5 19 51.6 4.46838 0
0 5 20 6.7564 2.21541 0
0 5 20 4.16641 2.95254 0
0 6 -16 31.904 2.7988 0
0 -6 16 33.2067 3.71872 0
0 6 -15 1.18936 0.59468 0
0 -6 15 1.28117 1.4794 0
0 6 -14 13.1456 6.01131 0
0 -6 14 11.5213 5.88877 0
0 6 -13 9.37575 1.58915 0
0 -6 13 7.34002 2.36591 0
0 -6 13 7.11673 3.69614 0
0 6 -12 132.609 6.78014 0
0 -6 12 149.539 7.76616 0
0 -6 12 147.011 6.96311 0
0 6 -11 0.92947 0.9431 0
0 -6 11 2.10699 1.1339 0
0 -6 11 0.20988 1.12573 0
0 6 -10 32.7074 8.60398 0
0 -6 10 37.7718 5.93036 0
0 -6 10 30.5294 1.76978 0
0 6 -9 1.8045 1.15871 0
0 -6 9 1.1 1.8354 0
0 -6 9 0.68287 1.02894 0
0 6 -8 291.022 9.98195 0
0 -6 8 283.912 9.53721 0
0 -6 8 268.452 8.83551 0
0 6 -7 4.30724 3.50294 0
0 -6 7 3.9192 1.58743 0
0 6 -6 25.7525 3.9951 0
0 -6 6 27.3225 7.32057 0
0 6 -5 3.05577 2.91888 0
0 -6 5 8.42651 2.3351 0
0 6 -4 574.466 17.9374 0
0 -6 4 549.175 17.1744 0
0 6 -3 6.34582 3.29786 0
0 -6 3 3.52992 2.45443 0
0 6 -2 6.1995 4.29845 0
0 -6 2 6.33061 3.30578 0
0 6 -1 35.9719 12.9844 0
0 6 0 763.063 24.5519 0
0 6 0 756.159 23.6957 0
0 6 1 262 10.04 0
0 6 1 287.038 9.81903 0
0 -6 -1 264.991 8.99693 0
0 6 2 2.52051 2.58779 0
0 6 2 2.56191 1.3146 0
0 -6 -2 4.36819 1.3353 0
0 6 3 97.776 5.97852 0
0 6 3 104.146 4.98553 0
0 -6 -3 98.9028 4.67683 0
0 6 4 627.752 20.0965 0
0 6 4 688.143 21.1265 0
0 -6 -4 672.303 20.5762 0
0 6 5 106.043 10.1576 0
0 6 5 97.6042 4.61843 0
0 -6 -5 98.3535 4.75556 0
0 6 6 101.292 5.60693 0
0 6 6 110.709 5.16007 0
0 -6 -6 99.3019 5.93149 0
0 6 7 2.55222 1.76727 0
0 6 7 -0.45752 1.32321 0
0 6 8 486.951 18.0879 0
0 6 8 481.902 17.2954 0
0 6 9 29.7074 3.30217 0
0 6 9 29.5576 2.02743 0
0 6 10 63.4081 3.81012 0
0 6 10 60.9772 2.96428 0
0 6 11 51.0459 3.62025 0
0 6 11 54.5561 5.489 0
0 6 12 205.058 7.23738 0
0 6 12 200.988 6.87585 0
0 6 13 32.8093 2.62113 0
0 6 13 31.1893 2.18583 0
0 6 14 116.74 4.97277 0
0 6 14 117.986 6.10747 0
0 -6 -14 116.391 4.08729 0
0 6 15 1.21075 1.50452 0
0 6 15 0.69735 1.3041 0
0 6 16 39.6524 5.33084 0
0 6 16 39.3453 2.51826 0
0 6 17 37.4233 2.26706 0
0 6 17 38.8558 2.06618 0
0 6 18 22.9248 2.77367 0
0 6 18 23.658 3.9217 0
0 6 19 1.09038 0.79835 0
0 6 19 0.57986 0.55885 0
0 6 20 42.8013 3.42686 0
0 6 20 38.7473 3.0651 0
0 7 -15 4.94536 3.4503 0
0 -7 15 4.12016 2.20571 0
0 7 -14 1.06495 1.13112 0
0 -7 14 1.02979 1.68117 0
0 7 -13 18.7378 1.74029 0
0 -7 13 11.7833 5.85529 0
0 7 -12 90.231 4.95554 0
0 -7 12 94.1833 5.29932 0
0 -7 12 92.6936 4.57902 0
0 7 -11 7.43313 3.09423 0
0 -7 11 6.79337 2.7059 0
0 -7 11 7.39828 3.29089 0
0 7 -10 1.80531 2.24071 0
0 -7 10 -0.93982 1.75487 0
0 -7 10 1.34336 0.81239 0
0 7 -9 5.15386 2.18735 0
0 -7 9 8.31588 3.11952 0
0 -7 9 8.58505 3.48219 0
0 7 -8 225.611 9.26342 0
0 -7 8 202.237 8.6624 0
0 7 -7 23.3398 2.61224 0
0 -7 7 19.7685 6.17726 0
0 7 -6 33.4503 2.82453 0
0 -7 6 32.7625 2.41053 0
0 7 -5 49.8924 14.0928 0
0 -7 5 49.6307 7.28512 0
0 7 -4 365.889 12.9971 0
0 -7 4 385.644 11.5534 0
0 7 -3 -0.27974 2.52553 0
0 -7 3 1.1426 1.3593 0
0 7 -2 50.9261 5.07056 0
0 -7 2 56.9275 8.74488 0
0 7 -1 77.5588 4.74609 0
0 -7 1 87.2573 5.5336 0
0 7 0 651.109 23.9728 0
0 7 0 655.165 23.3724 0
0 7 1 2.47087 2.07079 0
0 7 1 1.2794 0.80897 0
0 7 2 404.261 15.819 0
0 7 2 430.967 15.8988 0
0 7 3 4.44788 3.88968 0
0 7 3 6.32627 1.67903 0
0 7 4 338.15 13.421 0
0 7 4 362.112 13.2895 0
0 7 5 61.3694 7.97368 0
0 7 5 69.3173 3.94171 0
0 7 6 242.721 10.9437 0
0 7 6 237.774 9.98537 0
0 7 7 9.10384 3.87501 0
0 7 7 9.30651 4.60461 0
0 7 8 352.767 11.0468 0
0 7 8 352.9 9.54605 0
0 7 9 1.20133 1.9517 0
0 7 9 0.83539 1.00173 0
0 7 10 181.157 11.5485 0
0 7 10 166.531 6.89907 0
0 7 11 3.29782 1.28945 0
0 7 11 2.75038 1.0586 0
0 7 12 151.806 7.02131 0
0 7 12 157.552 6.15456 0
0 7 13 2.2565 1.08241 0
0 7 13 4.14925 1.26577 0
0 7 14 96.8543 6.04361 0
0 7 14 97.5081 5.8117 0
0 -7 -14 93.0264 5.37583 0
0 7 15 1.00013 0.96086 0
0 7 15 1.13628 0.43985 0
0 7 16 27.2115 3.24397 0
0 7 16 23.9086 2.57356 0
0 7 17 1.41496 1.87661 0
0 7 17 -0.24237 1.21876 0
0 7 18 85.6427 3.9411 0
0 7 18 99.3756 4.30432 0
0 7 19 2.33759 1.7277 0
0 7 19 3.86947 1.63591 0
0 7 20 9.82564 4.95114 0
0 7 20 7.61641 4.04101 0
0 8 -14 1.2649 2.08584 0
0 -8 14 1.7146 1.87534 0
0 8 -13 2.66558 2.44836 0
0 -8 13 4.19632 2.33061 0
0 8 -12 16.5546 2.80726 0
0 -8 12 14.571 6.94052 0
0 -8 12 9.06429 4.32085 0
0 8 -11 107.749 4.52383 0
0 -8 11 98.6966 4.30722 0
0 -8 11 103.312 3.91503 0
0 8 -10 3.77836 2.73847 0
0 -8 10 3.13175 1.74683 0
0 -8 10 2.85187 0.94821 0
0 8 -9 1.97606 2.16778 0
0 -8 9 1.2884 1.2475 0
0 -8 9 1.15291 1.28584 0
0 8 -8 18.4042 7.84882 0
0 -8 8 22.1837 5.8304 0
0 8 -7 136.346 8.10693 0
0 -8 7 158.914 10.597 0
0 8 -6 57.8302 4.25963 0
0 -8 6 70.4323 3.72006 0
0 8 -5 12.8605 4.60958 0
0 -8 5 14.2487 5.00442 0
0 8 -4 41.459 3.04046 0
0 -8 4 45.4398 3.28619 0
0 8 -3 240.476 8.30727 0
0 -8 3 237.935 8.10207 0
0 8 -2 41.8643 3.21596 0
0 -8 2 40.7082 3.10567 0
0 8 -1 2.66873 2.6945 0
0 -8 1 0.06626 2.02087 0
0 8 0 55.865 14.2178 0
0 -8 0 49.456 8.30824 0
0 8 1 202.465 8.23364 0
0 8 1 206.62 6.55913 0
0 -8 -1 193.379 7.01827 0
0 8 2 328.167 10.9079 0
0 8 2 328.05 10.5256 0
0 8 3 23.6841 6.22792 0
0 8 3 17.1903 1.50909 0
0 8 4 8.61949 3.77394 0
0 8 4 7.84684 2.11216 0
0 8 5 136.695 6.40225 0
0 8 5 142.405 6.81123 0
0 8 6 158.373 6.15415 0
0 8 6 160.116 5.042 0
0 8 7 7.13028 5.2636 0
0 8 7 10.5489 1.72198 0
0 8 8 16.1912 4.80334 0
0 8 8 13.5804 2.92801 0
0 8 9 98.9466 5.2936 0
0 8 9 96.7228 3.72525 0
0 8 10 293.677 10.1889 0
0 8 10 273.769 8.20489 0
0 8 11 32.7789 8.5413 0
0 8 11 29.2381 3.86516 0
0 8 12 6.38302 3.37459 0
0 8 12 5.23179 1.54376 0
0 8 13 24.2411 1.99295 0
0 8 13 22.8299 1.56987 0
0 -8 -13 24.4582 4.07219 0
0 8 14 120.813 6.3785 0
0 8 14 117.254 5.68496 0
0 -8 -14 116.673 5.61928 0
0 8 15 10.0292 4.5461 0
0 8 15 9.12938 3.4827 0
0 8 16 4.68652 2.16301 0
0 8 16 3.90699 1.95232 0
0 8 17 6.65185 2.2409 0
0 8 17 4.0478 1.6076 0
0 8 18 119.686 6.03043 0
0 8 18 126.244 4.97176 0
0 8 19 0.91468 1.33956 0
0 8 19 0.70224 0.46226 0
0 9 -12 0.28848 0.85359 0
0 -9 12 1.13614 1.17764 0
0 -9 12 1.01561 0.5414 0
0 9 -11 77.8533 4.18943 0
0 -9 11 78.0245 4.07874 0
0 -9 11 75.3743 3.60258 0
0 9 -10 0.68344 0.8995 0
0 -9 10 2.16718 2.08341 0
0 -9 10 1.29193 0.92155 0
0 9 -9 9.098 4.57797 0
0 -9 9 6.91911 2.41068 0
0 -9 9 4.66606 3.2776 0
0 9 -8 1.80449 2.23366 0
0 -9 8 2.57749 2.1727 0
0 -9 8 0.27067 1.15097 0
0 9 -7 109.356 6.04567 0
0 -9 7 112.139 5.99181 0
0 9 -6 2.43905 1.67095 0
0 -9 6 2.11294 2.0833 0
0 9 -5 93.8372 9.17773 0
0 -9 5 94.6651 7.07544 0
0 9 -4 1.32998 1.17144 0
0 -9 4 1.16557 1.32998 0
0 9 -3 213.822 8.91947 0
0 -9 3 232.889 9.59881 0
0 9 -2 16.2376 6.41 0
0 -9 2 17.0037 5.76587 0
0 9 -1 263.33 9.71453 0
0 -9 1 256.466 8.98827 0
0 9 0 6.28668 5.46796 0
0 -9 0 16.6998 6.10913 0
0 9 1 110.596 5.51691 0
0 9 1 120.355 5.55372 0
0 -9 -1 114.805 7.47744 0
0 9 2 96.7823 13.7569 0
0 9 2 98.1624 5.89245 0
0 -9 -2 88.1229 3.74789 0
0 9 3 77.2823 10.1451 0
0 9 3 69.2837 2.68997 0
0 -9 -3 79.1775 4.07911 0
0 9 4 15.6342 4.98791 0
0 9 4 15.7256 4.95066 0
0 9 5 66.8823 5.02564 0
0 9 5 70.5434 2.74918 0
0 9 6 37.3795 4.16537 0
0 9 6 33.9694 2.23274 0
0 9 7 221.71 8.17422 0
0 9 7 219.649 6.85808 0
0 9 8 -0.52763 2.15763 0
0 9 8 0.78202 0.68466 0
0 9 9 49.8986 5.77183 0
0 9 9 47.7045 2.02654 0
0 9 10 102.789 7.6395 0
0 9 10 91.5854 3.45828 0
0 9 11 135.777 8.43092 0
0 9 11 137.054 7.61998 0
0 9 12 1.37653 1.93583 0
0 9 12 1.02629 0.87696 0
0 -9 -12 0.35024 0.73578 0
0 9 13 10.7626 3.19982 0
0 9 13 14.1563 2.02638 0
0 -9 -13 9.4599 3.94938 0
0 9 14 20.5173 2.57787 0
0 9 14 20.3821 3.50433 0
0 -9 -14 13.6635 5.07219 0
0 9 15 63.2118 8.21069 0
0 9 15 64.7091 5.07357 0
0 9 16 4.22968 2.89235 0
0 9 16 5.03162 2.18148 0
0 9 17 0.6782 1.20265 0
0 9 17 1.02362 1.50173 0
0 9 18 47.8525 2.62626 0
0 9 19 35.1179 4.75922 0
0 10 -11 18.1227 4.94672 0
0 -10 11 18.993 1.81876 0
0 10 -10 19.2194 3.36511 0
0 -10 10 14.1026 6.64995 0
0 -10 10 19.5405 1.62135 0
0 10 -9 48.3075 5.37476 0
0 -10 9 50.7966 6.84502 0
0 -10 9 58.5676 4.24412 0
0 10 -8 1.24086 1.67218 0
0 -10 8 1.13248 1.89779 0
0 -10 8 2.99709 1.6014 0
0 10 -7 22.2475 10.202 0
0 -10 7 20.628 4.16072 0
0 10 -6 12.5586 2.04247 0
0 -10 6 13.6944 6.30584 0
0 10 -5 128.604 7.05347 0
0 -10 5 133.981 6.84232 0
0 10 -4 0.44189 1.62375 0
0 -10 4 -0.12289 1.53485 0
0 10 -3 59.8898 5.48298 0
0 -10 3 52.6171 4.89998 0
0 10 -2 57.9022 8.83325 0
0 -10 2 61.7039 4.58892 0
0 10 -1 228.346 10.3803 0
0 -10 1 225.157 10.0202 0
0 10 0 2.32248 2.3606 0
0 -10 0 1.18177 1.99698 0
0 10 1 42.726 4.48104 0
0 -10 -1 39.9785 5.56934 0
0 10 2 3.9265 3.63531 0
0 10 2 5.60456 1.83116 0
0 -10 -2 6.9194 4.0826 0
0 10 3 293.596 12.0065 0
0 10 3 323.137 11.6838 0
0 -10 -3 304.752 11.922 0
0 10 4 3.57541 2.88203 0
0 10 4 5.6887 2.22483 0
0 -10 -4 6.78905 3.11718 0
0 10 5 6.39216 2.68339 0
0 10 5 5.6636 2.09274 0
0 -10 -5 6.56906 2.98621 0
0 10 6 1.33837 1.30276 0
0 10 6 1.55204 0.7597 0
0 -10 -6 0.54307 1.47191 0
0 10 7 279.526 11.1956 0
0 10 7 286.3 10.6984 0
0 -10 -7 267.79 10.5755 0
0 10 8 5.81288 2.80889 0
0 10 8 6.13996 1.6641 0
0 -10 -8 4.8345 2.21211 0
0 10 9 -0.09477 2.14632 0
0 10 9 1.86757 0.53797 0
0 -10 -9 1.03971 0.74703 0
0 10 10 7.32015 4.384 0
0 10 10 7.87557 2.51015 0
0 -10 -10 6.7189 3.73961 0
0 10 11 146.962 7.7224 0
0 10 11 146.775 6.74021 0
0 -10 -11 135.537 6.85973 0
0 10 12 0.47692 1.17607 0
0 10 12 0.18478 0.29714 0
0 -10 -12 1.21353 1.57559 0
0 10 13 1.38653 2.09776 0
0 10 13 0.20834 0.7232 0
0 -10 -13 0.86928 1.01775 0
0 10 14 0.42896 1.28687 0
0 10 14 0.68817 0.82809 0
0 -10 -14 0.04129 0.83039 0
0 10 15 89.1396 3.98152 0
0 10 16 5.62202 2.97735 0
0 10 17 1.95039 1.63196 0
0 10 18 0.43726 0.82341 0
0 11 -9 24.1581 4.88027 0
0 -11 9 29.7145 4.46465 0
0 -11 9 23.2215 4.57191 0
0 11 -8 32.5097 2.49243 0
0 -11 8 34.0192 2.47241 0
0 -11 8 36.1693 2.38833 0
0 11 -7 1.04727 1.09535 0
0 -11 7 0.87795 0.95739 0
0 11 -6 24.9507 6.59396 0
0 -11 6 20.1305 1.9285 0
0 11 -5 67.3317 10.1982 0
0 -11 5 62.6797 5.07201 0
0 11 -4 13.7764 5.14427 0
0 -11 4 14.767 5.76569 0
0 11 -3 2.35598 1.8544 0
0 -11 3 2.39215 1.84716 0
0 11 -2 20.5736 7.945 0
0 -11 2 24.3165 5.51509 0
0 11 -1 98.3249 8.79837 0
0 -11 1 89.6131 4.72505 0
0 11 0 74.385 4.70205 0
0 -11 0 80.6215 6.46793 0
0 11 1 0.77755 1.60535 0
0 -11 -1 0.71672 0.82515 0
0 11 2 10.336 3.43374 0
0 -11 -2 13.8821 5.12518 0
0 11 3 144.649 7.87828 0
0 11 3 147.074 8.83477 0
0 -11 -3 159.484 8.34709 0
0 11 4 26.2444 2.9895 0
0 11 4 28.554 3.11901 0
0 -11 -4 26.2229 2.23673 0
0 11 5 10.0779 3.87799 0
0 11 5 11.9296 3.57162 0
0 -11 -5 11.0293 6.00914 0
0 11 6 19.8085 5.80755 0
0 11 6 15.4575 1.62697 0
0 -11 -6 12.153 6.09513 0
0 11 7 119.295 6.54161 0
0 11 7 136.563 6.36573 0
0 -11 -7 134.048 7.03774 0
0 11 8 32.1485 9.94691 0
0 11 8 31.8059 1.73852 0
0 -11 -8 30.5928 5.73326 0
0 11 9 24.329 10.188 0
0 11 9 28.7046 1.56506 0
0 -11 -9 15.0241 6.95976 0
0 11 10 1.16321 1.58686 0
0 11 10 0.79833 0.77139 0
0 -11 -10 0.49712 0.60977 0
0 11 11 86.5249 4.88455 0
0 -11 -11 86.772 4.57808 0
0 11 12 18.7091 7.57972 0
0 -11 -12 19.1436 5.03246 0
0 11 13 29.1821 3.63028 0
0 -11 -13 37.8793 2.25144 0
0 11 14 -0.13674 1.76479 0
0 -11 -14 0.52773 0.86317 0
0 11 15 32.6619 4.87779 0
0 11 16 9.38867 5.11379 0
0 12 -7 0.6428 1.29316 0
0 -12 7 0.59364 0.53882 0
0 -12 7 0.72977 0.66927 0
0 12 -6 0.92236 1.47578 0
0 -12 6 0.91255 1.38747 0
0 12 -5 12.0621 5.86325 0
0 -12 5 8.14509 5.27957 0
0 12 -4 79.7148 4.14925 0
0 -12 4 98.7617 4.91264 0
0 12 -3 4.97755 5.70845 0
0 -12 3 3.75864 3.38126 0
0 12 -2 2.02019 1.4573 0
0 -12 2 1.41057 1.24816 0
0 12 -1 7.70878 5.08156 0
0 -12 1 7.25157 3.93969 0
0 12 0 129.351 6.59482 0
0 -12 0 118.927 6.15671 0
0 12 1 8.72287 5.78308 0
0 -12 -1 9.24775 4.43911 0
0 12 2 1.53065 1.33545 0
0 -12 -2 1.52589 2.01865 0
0 12 3 18.2394 7.89703 0
0 -12 -3 17.6784 6.14933 0
0 12 4 116.495 6.57691 0
0 12 4 115.418 5.57691 0
0 -12 -4 110.786 7.02883 0
0 12 5 14.2103 7.48667 0
0 12 5 12.1874 4.11047 0
0 -12 -5 12.9481 4.97911 0
0 12 6 1.0159 1.50478 0
0 12 6 1.20668 0.97536 0
0 -12 -6 1.86964 2.51114 0
0 12 7 3.92926 2.8909 0
0 -12 -7 4.01186 2.07201 0
0 12 8 72.5654 6.74762 0
0 -12 -8 64.9478 3.32613 0
0 12 9 24.2633 8.43494 0
0 -12 -9 30.4713 2.06477 0
0 12 10 15.8941 5.44109 0
0 -12 -10 8.01634 3.05139 0
0 12 11 33.0115 4.29115 0
0 -12 -11 33.1642 3.32907 0
0 12 12 38.2304 9.73699 0
0 -12 -12 37.8917 3.00788 0
0 12 13 29.2479 2.61124 0
0 -12 -13 34.6568 5.57474 0
0 12 14 4.98219 2.08185 0
0 12 15 2.05 1.41557 0
0 13 -4 70.8367 4.24804 0
0 -13 4 66.4883 4.08713 0
0 13 -3 3.39853 2.04185 0
0 -13 3 3.96885 2.00097 0
0 13 -2 18.1089 1.84662 0
0 -13 2 8.13113 5.48797 0
0 13 -1 -0.42669 1.61286 0
0 -13 1 0.73089 0.90238 0
0 13 0 111.208 7.50448 0
0 -13 0 102.168 6.91969 0
0 13 1 1.69325 1.85814 0
0 -13 -1 1.40999 2.05896 0
0 13 2 14.5165 6.94592 0
0 -13 -2 18.7264 1.87392 0
0 13 3 0.70077 1.56542 0
0 -13 -3 2.93463 1.77889 0
0 13 4 79.0169 4.55867 0
0 -13 -4 76.9432 4.3184 0
0 13 5 2.20523 2.27231 0
0 -13 -5 1.52353 1.96068 0
0 13 6 39.7138 8.16858 0
0 -13 -6 50.0414 4.16725 0
0 13 7 0.51495 1.50853 0
0 -13 -7 2.18587 1.53417 0
0 13 8 66.728 4.96408 0
0 -13 -8 66.5254 5.41997 0
0 13 9 0.27624 1.0551 0
0 -13 -9 0.69578 1.18387 0
0 13 10 49.2812 3.34027 0
0 -13 -10 49.1182 3.01846 0
0 13 11 1.70423 1.64251 0
0 -13 -11 1.38768 1.28017 0
0 13 12 17.8593 7.08704 0
0 -13 -12 25.0084 2.29378 0
0 13 13 7.15876 3.30013 0
0 -13 -13 4.18506 4.02468 0
0 14 1 20.7757 2.29344 0
0 -14 -1 19.0708 9.4851 0
0 14 2 58.6699 3.68127 0
0 -14 -2 69.2087 4.18248 0
0 -14 -3 3.94723 2.22238 0
0 14 4 19.9006 5.37528 0
0 -14 -4 16.9096 2.98324 0
0 14 5 3.24715 2.93567 0
0 -14 -5 2.54632 1.9039 0
0 14 6 66.5173 9.08166 0
0 -14 -6 70.6629 4.19228 0
0 14 7 1.02483 2.03614 0
0 -14 -7 0.42267 1.16186 0
0 14 8 8.228 4.92839 0
0 -14 -8 8.1783 4.75634 0
0 14 9 1.55333 1.49293 0
0 -14 -9 3.45205 2.62726 0
1 -14 -5 48.5732 3.76968 0
1 -14 -4 1.15 1.00459 0
-1 13 11 16.3245 7.39599 0
1 -13 -11 13.4718 3.79064 0
-1 13 10 2.22178 2.66969 0
1 -13 -10 0.44199 1.0438 0
-1 13 9 50.9761 3.42697 0
1 -13 -9 54.4755 4.21332 0
-1 13 8 3.24842 2.88681 0
1 -13 -8 5.08103 2.87251 0
-1 13 7 15.3926 8.32601 0
1 -13 -7 12.245 6.90939 0
-1 13 6 0.2607 1.65802 0
1 -13 -6 0.49219 1.44738 0
-1 13 5 30.2946 5.64409 0
1 -13 -5 29.3329 2.25219 0
-1 13 4 9.93653 3.84674 0
1 -13 -4 9.64095 2.98096 0
-1 13 3 33.8109 8.86275 0
1 -13 -3 33.0233 2.34418 0
-1 13 2 0.84211 1.50792 0
1 -13 -2 2.54915 1.89579 0
-1 13 1 23.3956 4.81041 0
1 -13 -1 22.3453 3.42575 0
-1 13 0 3.84074 2.25391 0
1 -13 0 2.04974 3.03419 0
-1 13 -1 36.2837 3.18627 0
1 -13 1 44.308 3.74411 0
-1 13 -2 1.44989 2.51108 0
1 -13 2 4.85307 1.9455 0
-1 13 -3 9.71883 6.63924 0
1 -13 3 8.4627 5.36414 0
-1 12 14 1.66348 2.76096 0
-1 12 13 5.37589 1.99511 0
1 -12 -13 2.55891 1.72116 0
-1 12 12 66.9289 6.8091 0
1 -12 -12 57.4961 4.17319 0
-1 12 11 21.3725 3.92409 0
1 -12 -11 20.564 1.65069 0
-1 12 10 15.0995 5.45725 0
1 -12 -10 10.8018 5.44641 0
-1 12 9 16.0973 1.99473 0
1 -12 -9 13.0709 5.76944 0
-1 12 8 46.7181 6.76799 0
1 -12 -8 52.5128 2.95367 0
-1 12 7 20.2205 9.50706 0
1 -12 -7 14.3143 6.54596 0
-1 12 6 3.91952 3.30551 0
1 -12 -6 5.60228 3.17624 0
-1 12 5 4.75232 2.88716 0
1 -12 -5 6.25745 2.94523 0
-1 12 4 60.2558 3.98012 0
1 -12 -4 52.6819 7.28525 0
-1 12 3 48.6584 3.82532 0
1 -12 -3 49.4713 3.07047 0
-1 12 2 15.8401 7.50805 0
1 -12 -2 13.292 7.65115 0
-1 12 1 6.26154 4.07765 0
1 -12 -1 2.74813 2.19074 0
-1 12 0 18.9253 6.76194 0
1 -12 0 17.5243 6.87682 0
-1 12 -1 23.244 2.48111 0
1 -12 1 27.3652 7.5562 0
-1 12 -2 25.1317 8.99757 0
1 -12 2 28.1518 2.15786 0
-1 12 -3 4.96908 4.14195 0
1 -12 3 5.31723 3.05952 0
-1 12 -4 13.4851 6.76716 0
1 -12 4 10.58 6.58891 0
-1 12 -5 50.3302 3.89705 0
1 -12 5 48.594 3.74029 0
1 -12 5 40.2562 6.9369 0
-1 12 -6 39.1229 4.86136 0
1 -12 6 39.4317 3.0779 0
1 -12 6 37.608 4.35126 0
-1 11 16 68.9296 4.56419 0
-1 11 15 0.43321 1.11284 0
-1 11 14 48.8166 2.88228 0
-1 11 13 1.91893 2.27213 0
1 -11 -13 1.21898 0.78178 0
-1 11 12 49.5932 6.14202 0
1 -11 -12 45.5446 5.81876 0
-1 11 11 2.94907 1.75288 0
1 -11 -11 3.47355 1.72757 0
-1 11 10 85.209 9.05723 0
1 -11 -10 80.8307 3.01908 0
-1 11 9 1.43383 1.16894 0
1 -11 -9 1.05472 0.66102 0
-1 11 8 77.225 4.28241 0
1 -11 -8 72.2765 5.19207 0
-1 11 7 4.79754 4.29121 0
1 -11 -7 7.64063 2.52409 0
-1 11 6 90.7481 5.58142 0
1 -11 -6 89.9779 6.35932 0
-1 11 5 1.69978 2.58853 0
-1 11 5 0.19174 0.34203 0
1 -11 -5 1.47953 0.86025 0
-1 11 4 56.3151 3.46342 0
1 -11 -4 60.8662 3.45822 0
1 -11 -3 10.2073 5.37146 0
-1 11 2 123.804 8.30186 0
1 -11 -2 122.339 8.63786 0
-1 11 1 1.96874 1.16846 0
1 -11 -1 1.6159 1.43948 0
-1 11 0 9.35749 5.87329 0
1 -11 0 9.9919 4.14126 0
-1 11 -1 16.6472 4.52892 0
1 -11 1 11.2372 4.18833 0
-1 11 -2 87.1132 4.47594 0
1 -11 2 86.0985 8.26494 0
-1 11 -3 8.94547 6.33902 0
1 -11 3 8.65456 3.37361 0
-1 11 -4 9.25679 4.1832 0
1 -11 4 7.21187 4.05796 0
-1 11 -5 4.10434 1.91654 0
1 -11 5 4.79465 2.27823 0
-1 11 -6 92.7123 4.66517 0
1 -11 6 97.4455 4.68431 0
1 -11 6 97.05 4.58437 0
-1 11 -7 0.9173 1.97556 0
1 -11 7 4.25553 3.22587 0
1 -11 7 4.04102 3.38726 0
-1 11 -8 1.29935 1.00734 0
1 -11 8 1.38362 0.65261 0
1 -11 8 0.62322 0.74277 0
-1 10 17 5.40071 3.41464 0
-1 10 16 1.11545 0.91633 0
-1 10 15 26.7151 5.2663 0
-1 10 14 56.7704 2.68182 0
-1 10 13 5.4976 3.14911 0
1 -10 -13 4.38369 2.51094 0
-1 10 12 2.58412 1.78232 0
1 -10 -12 2.38126 1.35244 0
-1 10 11 7.78233 4.75921 0
1 -10 -11 9.32776 4.23487 0
-1 10 10 105.78 4.04217 0
1 -10 -10 94.2826 5.02736 0
-1 10 9 19.5314 6.58205 0
-1 10 9 20.9756 2.28707 0
1 -10 -9 20.3743 6.12839 0
-1 10 8 25.2252 2.73317 0
-1 10 8 30.6501 1.44388 0
1 -10 -8 26.1749 2.05954 0
-1 10 7 19.2855 6.26271 0
-1 10 7 17.2705 1.53176 0
1 -10 -7 17.0444 1.96134 0
-1 10 6 112.027 7.58682 0
-1 10 6 116.799 6.51903 0
1 -10 -6 110.314 6.86153 0
-1 10 5 28.6785 8.98111 0
-1 10 5 23.1038 3.22913 0
1 -10 -5 27.824 8.42015 0
-1 10 4 0.97307 2.09224 0
-1 10 4 0.61949 0.38572 0
1 -10 -4 0.63995 0.80651 0
-1 10 3 5.18221 3.89251 0
1 -10 -3 12.6865 3.73459 0
-1 10 2 299.673 11.9744 0
1 -10 -2 288.902 12.7349 0
-1 10 1 1.45354 1.6616 0
1 -10 -1 0.62129 1.20213 0
-1 10 0 1.9752 1.47998 0
1 -10 0 0.62045 1.99797 0
-1 10 -1 3.16401 1.52352 0
1 -10 1 1.99979 1.90231 0
-1 10 -2 114.201 5.72864 0
1 -10 2 103.97 5.9158 0
-1 10 -3 1.73331 1.52553 0
1 -10 3 1.40454 1.76487 0
-1 10 -4 34.2133 5.08256 0
1 -10 4 26.503 2.24395 0
-1 10 -5 0.27666 1.398 0
1 -10 5 1.42248 0.8104 0
-1 10 -6 96.2088 5.66585 0
1 -10 6 96.5619 5.00205 0
1 -10 6 96.6678 5.20919 0
-1 10 -7 1.02834 1.36057 0
1 -10 7 0.67125 1.33119 0
1 -10 7 0.13334 1.39221 0
-1 10 -8 16.9342 6.70216 0
1 -10 8 24.2712 1.99786 0
1 -10 8 19.7424 6.31212 0
-1 10 -9 1.38459 1.66771 0
1 -10 9 0.10746 1.39492 0
1 -10 9 1.09114 1.31846 0
-1 10 -10 72.8843 4.27306 0
1 -10 10 75.9286 4.5645 0
1 -10 10 69.1173 3.86151 0
-1 9 18 14.2337 7.42154 0
-1 9 17 101.882 6.83812 0
-1 9 16 -0.36091 1.43068 0
-1 9 15 21.9949 3.52472 0
-1 9 14 42.5294 2.81338 0
1 -9 -14 42.4532 1.97484 0
-1 9 13 43.4745 4.41495 0
-1 9 13 40.1496 1.52998 0
1 -9 -13 39.0371 5.26744 0
-1 9 12 5.7922 3.23682 0
-1 9 12 5.57204 2.06003 0
1 -9 -12 5.07145 3.63782 0
-1 9 11 36.6849 3.73211 0
-1 9 11 38.078 1.48078 0
1 -9 -11 41.2205 6.12604 0
-1 9 10 98.6449 6.44474 0
-1 9 10 96.7712 6.39039 0
1 -9 -10 101.176 6.21018 0
-1 9 9 193.411 8.6759 0
-1 9 9 179.264 5.9846 0
1 -9 -9 166.979 6.34757 0
-1 9 8 0.44588 1.94733 0
-1 9 8 2.43264 0.8129 0
1 -9 -8 2.40535 2.06259 0
-1 9 7 3.40383 2.95309 0
-1 9 7 4.93633 1.98013 0
1 -9 -7 8.46139 3.29192 0
-1 9 6 118.082 5.65394 0
-1 9 6 119.469 4.66085 0
1 -9 -6 126.16 6.10131 0
-1 9 5 151.241 11.6932 0
-1 9 5 154.557 5.36165 0
1 -9 -5 159.812 6.71818 0
-1 9 4 27.1099 10.3618 0
-1 9 4 23.0433 2.92799 0
1 -9 -4 24.4096 2.28383 0
-1 9 3 19.5363 6.28361 0
-1 9 3 17.9499 4.03457 0
1 -9 -3 20.6135 5.68299 0
-1 9 2 114.742 9.00079 0
1 -9 -2 110.603 5.64908 0
-1 9 1 98.0367 5.70903 0
1 -9 -1 95.1548 5.09976 0
-1 9 0 3.52413 2.27322 0
1 -9 0 3.96226 2.26052 0
-1 9 -1 4.3804 1.86354 0
1 -9 1 4.42085 2.07509 0
-1 9 -2 90.8587 10.4382 0
1 -9 2 103.896 5.17657 0
-1 9 -3 164.671 6.80912 0
1 -9 3 150.312 6.89774 0
-1 9 -4 77.2846 5.23099 0
1 -9 4 73.3886 4.86717 0
-1 9 -5 0.86242 2.3593 0
1 -9 5 2.406 1.50237 0
-1 9 -6 35.4946 3.54158 0
1 -9 6 38.7316 2.44419 0
-1 9 -7 21.7928 2.17878 0
1 -9 7 20.18 6.9821 0
1 -9 7 23.6009 2.11116 0
-1 9 -8 46.8691 3.15961 0
1 -9 8 54.7968 5.64147 0
1 -9 8 53.0762 6.93014 0
-1 9 -9 4.06296 1.86437 0
1 -9 9 3.54685 2.36456 0
1 -9 9 4.06069 3.05802 0
-1 9 -10 15.6665 2.39057 0
1 -9 10 12.0611 6.24494 0
1 -9 10 16.3053 2.9579 0
-1 9 -11 7.08344 2.7907 0
1 -9 11 5.72503 4.27838 0
1 -9 11 4.36046 1.91245 0
-1 9 -12 28.6921 2.96546 0
1 -9 12 20.6999 9.02668 0
1 -9 12 29.6877 2.76712 0
-1 8 19 2.59713 1.72566 0
-1 8 18 0.87873 1.53167 0
-1 8 17 152.25 4.06006 0
-1 8 17 150.802 5.58743 0
-1 8 16 -1.32577 1.46245 0
-1 8 16 0.12073 0.754 0
-1 8 15 1.84308 1.21268 0
-1 8 14 0.86239 0.98958 0
-1 8 14 0.95142 1.13204 0
1 -8 -14 0.63343 1.14985 0
-1 8 13 158.397 8.02568 0
-1 8 13 155.635 7.31294 0
1 -8 -13 151.151 7.18653 0
-1 8 12 3.20374 1.74388 0
-1 8 12 1.99382 0.70437 0
1 -8 -12 1.62743 0.8549 0
-1 8 11 3.39379 1.83336 0
-1 8 11 0.47169 0.53102 0
1 -8 -11 0.41236 0.40049 0
-1 8 10 4.89744 2.79633 0
-1 8 10 4.95924 2.11656 0
1 -8 -10 2.49043 1.99296 0
-1 8 9 452.074 14.0939 0
-1 8 9 433.305 12.5369 0
1 -8 -9 437.568 13.502 0
-1 8 8 35.1108 2.86489 0
-1 8 8 33.4025 1.66143 0
1 -8 -8 29.5582 2.10939 0
-1 8 7 1.14213 2.52306 0
-1 8 7 4.77617 1.94162 0
1 -8 -7 4.76233 2.41923 0
-1 8 6 53.0573 6.77964 0
-1 8 6 48.4413 2.34543 0
1 -8 -6 42.453 3.20447 0
-1 8 5 357.216 11.1674 0
-1 8 5 328.137 8.86247 0
1 -8 -5 352.755 11.0981 0
-1 8 4 55.585 13.5777 0
-1 8 4 47.1035 2.27777 0
1 -8 -4 44.5702 10.0852 0
-1 8 3 1.84294 1.66386 0
-1 8 3 1.26096 0.6454 0
1 -8 -3 1.03339 2.43611 0
-1 8 2 18.4671 6.21906 0
-1 8 2 18.0461 2.34007 0
1 -8 -2 15.4787 7.23632 0
-1 8 1 397.029 12.2864 0
1 -8 -1 389.625 12.5078 0
-1 8 0 37.9975 10.1866 0
1 -8 0 36.2133 4.76872 0
-1 8 -1 56.3537 7.48859 0
1 -8 1 47.673 3.42063 0
-1 8 -2 1.98203 2.09519 0
1 -8 2 1.93403 4.67733 0
-1 8 -3 133.088 6.37818 0
1 -8 3 118.952 5.46843 0
-1 8 -4 91.021 6.43583 0
1 -8 4 95.7739 4.75927 0
-1 8 -5 29.9919 2.46521 0
1 -8 5 38.0352 2.44994 0
-1 8 -6 3.2618 2.27328 0
1 -8 6 0.74798 0.58959 0
-1 8 -7 120.322 8.42957 0
1 -8 7 147.357 6.98874 0
1 -8 7 123.251 7.5315 0
-1 8 -8 38.7001 4.40123 0
1 -8 8 35.1754 2.35421 0
1 -8 8 33.756 2.27741 0
-1 8 -9 64.6573 4.06722 0
1 -8 9 60.2069 3.31088 0
1 -8 9 58.5139 5.23429 0
-1 8 -10 2.54928 2.16073 0
1 -8 10 2.60851 2.1323 0
1 -8 10 0.25588 0.50464 0
-1 8 -11 12.7408 5.70397 0
1 -8 11 13.3691 5.53343 0
1 -8 11 15.8149 3.17061 0
-1 8 -12 53.1519 7.43338 0
1 -8 12 46.2809 4.17186 0
1 -8 12 52.7912 3.75595 0
-1 8 -13 50.6702 3.0577 0
1 -8 13 47.9767 5.32296 0
1 -8 14 0.3476 1.70398 0
-1 7 19 2.36204 1.12326 0
-1 7 19 0.6632 1.30052 0
-1 7 18 2.23672 2.61622 0
-1 7 18 2.48053 2.19643 0
-1 7 17 75.8384 3.24192 0
-1 7 17 78.7043 4.54094 0
-1 7 16 20.7396 1.89693 0
-1 7 16 20.374 1.86826 0
-1 7 15 15.3409 1.93857 0
-1 7 15 17.9223 3.25975 0
-1 7 14 1.83688 1.57447 0
-1 7 14 2.76479 1.68538 0
1 -7 -14 1.37428 0.90356 0
-1 7 13 129.718 7.79547 0
-1 7 13 146.588 8.4175 0
1 -7 -13 140.825 8.02297 0
-1 7 12 19.3172 8.84238 0
-1 7 12 21.2701 1.95288 0
1 -7 -12 15.4931 4.02064 0
-1 7 11 55.6686 3.40867 0
-1 7 11 57.1327 2.01465 0
1 -7 -11 51.7635 3.45323 0
-1 7 10 -0.01678 2.1684 0
-1 7 10 1.07077 0.74182 0
1 -7 -10 1.83273 1.67497 0
-1 7 9 264.474 8.57468 0
-1 7 9 263.862 8.47206 0
1 -7 -9 255.156 7.98015 0
-1 7 8 14.2034 4.77416 0
-1 7 8 14.1141 3.07734 0
1 -7 -8 12.0042 4.2346 0
-1 7 7 159.399 6.16025 0
-1 7 7 159.836 4.73506 0
1 -7 -7 152.702 4.85577 0
1 -7 -7 155.537 5.84873 0
-1 7 6 63.6899 4.45013 0
-1 7 6 61.2878 2.6918 0
1 -7 -6 53.3331 4.19664 0
1 -7 -6 51.6794 6.01129 0
-1 7 5 209.279 9.32967 0
-1 7 5 211.953 8.44368 0
1 -7 -5 211.306 8.5261 0
1 -7 -5 223.896 10.0879 0
-1 7 4 0.24748 1.60654 0
-1 7 4 0.46141 1.03607 0
1 -7 -4 0.74664 0.71308 0
1 -7 -4 1.84144 1.95888 0
-1 7 3 107.465 6.34767 0
-1 7 3 109.885 6.09766 0
1 -7 -3 101.609 4.71202 0
1 -7 -3 101.224 6.57649 0
-1 7 2 3.79061 3.67176 0
-1 7 2 0.64097 1.32438 0
1 -7 -2 0.31411 0.67917 0
1 -7 -2 2.53839 2.84826 0
-1 7 1 397.944 13.6133 0
-1 7 1 398.281 12.7237 0
1 -7 -1 389.841 14.174 0
-1 7 0 35.6034 8.96421 0
1 -7 0 23.3327 2.92853 0
-1 7 -1 196.754 9.69134 0
1 -7 1 200.953 10.7036 0
-1 7 -2 13.0497 6.46744 0
1 -7 2 17.1106 6.7168 0
-1 7 -3 29.6501 11.389 0
1 -7 3 35.2972 5.49919 0
-1 7 -4 7.2006 3.47204 0
1 -7 4 3.28778 2.10996 0
-1 7 -5 262.094 9.44181 0
1 -7 5 264.851 8.79018 0
-1 7 -6 6.13229 3.3035 0
1 -7 6 4.30496 1.58997 0
-1 7 -7 43.8267 7.64283 0
1 -7 7 54.7186 3.29842 0
1 -7 7 53.4165 5.91802 0
-1 7 -8 -0.45505 0.89249 0
1 -7 8 1.04222 1.35928 0
1 -7 8 0.88955 0.61359 0
-1 7 -9 170.321 7.98872 0
1 -7 9 177.45 8.33835 0
1 -7 9 170.466 7.62244 0
-1 7 -10 -0.38565 1.71977 0
1 -7 10 0.34135 0.96411 0
1 -7 10 0.24233 0.69051 0
-1 7 -11 4.32429 3.766 0
1 -7 11 5.16907 1.97605 0
1 -7 11 5.40169 2.23561 0
-1 7 -12 11.9206 6.58847 0
1 -7 12 11.4272 6.6461 0
1 -7 12 17.8082 1.91107 0
-1 7 -13 86.3485 4.35429 0
1 -7 13 82.9534 4.49784 0
1 -7 13 79.8911 3.57783 0
-1 7 -14 0.81278 1.2008 0
1 -7 14 1.05785 1.66233 0
-1 7 -15 1.68978 1.74931 0
1 -7 15 0.64519 1.19053 0
-1 6 20 76.8516 4.3864 0
-1 6 20 65.0262 4.55963 0
-1 6 19 18.9663 4.56652 0
-1 6 19 21.2454 1.91572 0
-1 6 18 0.40135 0.96279 0
-1 6 18 -0.07237 1.00885 0
-1 6 17 6.89768 4.32155 0
-1 6 17 4.84425 1.96243 0
-1 6 16 103.38 3.79606 0
-1 6 16 100.626 3.74376 0
-1 6 15 34.3459 2.30057 0
-1 6 15 31.824 1.82073 0
-1 6 14 1.43976 1.99396 0
-1 6 14 1.45119 0.79701 0
1 -6 -14 1.85969 0.74559 0
-1 6 13 126.321 5.46949 0
-1 6 13 117.068 4.50553 0
1 -6 -13 126.218 5.14011 0
-1 6 12 201.739 7.1557 0
-1 6 12 204.581 6.65535 0
1 -6 -12 216.746 6.89911 0
-1 6 11 69.5458 3.75082 0
-1 6 11 83.8618 3.97649 0
1 -6 -11 73.5633 3.30975 0
-1 6 10 42.5746 10.4483 0
-1 6 10 44.1194 4.55035 0
1 -6 -10 39.6384 4.57591 0
-1 6 9 81.6272 4.08019 0
-1 6 9 81.4791 3.25012 0
1 -6 -9 83.2718 4.79725 0
-1 6 8 210.271 9.31105 0
-1 6 8 214.502 8.6884 0
1 -6 -8 208.431 8.56551 0
1 -6 -8 214.158 10.6956 0
-1 6 7 361.595 14.9968 0
-1 6 7 342.932 12.3251 0
1 -6 -7 328.089 11.9005 0
1 -6 -7 329.457 12.5395 0
-1 6 6 122.596 5.59228 0
-1 6 6 117.384 2.38646 0
1 -6 -6 116.556 2.79838 0
1 -6 -6 111.828 5.68182 0
-1 6 5 67.8809 8.73724 0
-1 6 5 58.6185 3.12775 0
1 -6 -5 58.0841 3.18816 0
1 -6 -5 61.3698 8.1656 0
-1 6 4 110.293 6.71068 0
-1 6 4 108.686 4.89788 0
1 -6 -4 102.167 4.63481 0
1 -6 -4 105.529 5.66796 0
-1 6 3 522.017 17.5756 0
-1 6 3 508.163 15.783 0
1 -6 -3 518.963 15.895 0
1 -6 -3 523.069 17.371 0
-1 6 2 33.7063 9.86084 0
-1 6 2 35.6775 2.15752 0
1 -6 -2 27.6996 3.1284 0
1 -6 -2 30.372 4.87403 0
-1 6 1 159.239 8.42157 0
-1 6 1 153.154 7.773 0
1 -6 -1 139.217 6.10527 0
1 -6 -1 151.13 7.68035 0
-1 6 0 126.934 8.03759 0
1 -6 0 125.213 5.64117 0
1 -6 0 133.974 7.43849 0
-1 6 -1 207.167 8.26842 0
1 -6 1 199.85 7.84428 0
-1 6 -2 238.586 14.3873 0
1 -6 2 240.963 9.58857 0
-1 6 -3 7.20708 3.62076 0
1 -6 3 9.12294 3.26773 0
-1 6 -4 37.7853 3.63581 0
1 -6 4 43.6503 3.6317 0
-1 6 -5 295.678 9.22844 0
1 -6 5 297.085 9.34208 0
-1 6 -6 10.3249 5.2414 0
1 -6 6 13.513 5.96131 0
-1 6 -7 2.51373 2.54124 0
1 -6 7 -1.47179 1.95321 0
1 -6 7 1.31361 1.58527 0
-1 6 -8 51.6336 3.38613 0
1 -6 8 59.1831 6.04988 0
1 -6 8 44.3486 2.825 0
-1 6 -9 224.108 10.4713 0
1 -6 9 234.351 10.198 0
1 -6 9 226.476 10.3833 0
-1 6 -10 36.6636 7.46091 0
1 -6 10 38.6036 8.42082 0
1 -6 10 33.6948 1.99168 0
-1 6 -11 6.52224 5.58359 0
1 -6 11 6.73142 4.78977 0
1 -6 11 6.93524 3.10289 0
-1 6 -12 2.8537 1.80392 0
1 -6 12 1.55588 2.06699 0
1 -6 12 1.37799 1.12494 0
-1 6 -13 88.9109 4.95579 0
1 -6 13 79.4358 3.5127 0
1 -6 13 84.5112 4.24715 0
-1 6 -14 12.371 6.52612 0
1 -6 14 12.2585 6.85242 0
-1 6 -15 4.73947 2.82303 0
1 -6 15 6.97807 2.60413 0
-1 6 -16 2.07864 2.12896 0
1 -6 16 1.75542 2.00122 0
-1 5 20 60.7201 6.00977 0
-1 5 20 64.7548 3.60469 0
-1 5 19 0.70816 1.04018 0
-1 5 19 0.65983 0.58418 0
-1 5 18 17.6985 8.65378 0
-1 5 18 23.4474 2.60153 0
-1 5 17 1.85138 1.44797 0
-1 5 17 0.77561 1.27027 0
-1 5 16 101.868 6.1608 0
-1 5 16 97.2767 4.504 0
-1 5 15 11.6959 4.61125 0
-1 5 15 13.6951 5.27396 0
-1 5 14 129.722 5.36051 0
-1 5 14 123.052 4.84195 0
-1 5 13 5.42802 3.24607 0
-1 5 13 5.01121 2.26088 0
1 -5 -13 3.9976 1.97038 0
-1 5 12 44.1945 4.61906 0
-1 5 12 42.4967 3.14489 0
1 -5 -12 44.6588 4.819 0
-1 5 11 10.0913 4.0716 0
-1 5 11 8.59277 4.0314 0
1 -5 -11 7.9495 2.6608 0
-1 5 10 153.513 7.35996 0
-1 5 10 158.685 3.71946 0
1 -5 -10 184.038 7.88905 0
-1 5 9 -1.46998 2.13586 0
-1 5 9 0.64495 1.14331 0
1 -5 -9 0.25547 0.86691 0
-1 5 8 295.204 11.5034 0
-1 5 8 296.934 11.0263 0
1 -5 -8 286.759 10.5715 0
1 -5 -8 298.45 11.2448 0
-1 5 7 143.156 7.15185 0
-1 5 7 149.04 6.55348 0
1 -5 -7 137.713 6.15458 0
1 -5 -7 145.544 6.97139 0
-1 5 6 595.597 22.6216 0
-1 5 6 611.961 18.984 0
1 -5 -6 604.812 18.8379 0
1 -5 -6 634.558 20.0924 0
-1 5 5 2.04185 3.18211 0
-1 5 5 1.75546 1.07661 0
1 -5 -5 0.16441 0.84856 0
1 -5 -5 1.04479 1.46907 0
-1 5 4 123.428 6.13548 0
-1 5 4 123.549 5.23531 0
1 -5 -4 125.272 5.47278 0
1 -5 -4 122.196 5.6992 0
-1 5 3 403.492 14.0999 0
-1 5 3 424.018 13.3676 0
1 -5 -3 394.819 12.397 0
1 -5 -3 406.58 15.184 0
-1 5 2 1254.17 31.7772 0
-1 5 2 1245.04 30.4141 0
1 -5 -2 1098.29 26.6813 0
1 -5 -2 1150.27 30.1323 0
-1 5 1 37.8951 5.32254 0
-1 5 1 35.564 2.04978 0
1 -5 -1 37.9583 2.18184 0
1 -5 -1 35.7822 4.05937 0
-1 5 0 202.195 9.31854 0
1 -5 0 214.072 7.36447 0
1 -5 0 188.799 7.91793 0
-1 5 -1 153.643 6.87423 0
1 -5 1 150.822 6.15668 0
1 -5 1 157.51 7.13715 0
-1 5 -2 888.363 27.8513 0
1 -5 2 911.65 27.9248 0
1 -5 2 878.185 27.9143 0
-1 5 -3 110.266 6.29609 0
1 -5 3 116.657 6.59945 0
-1 5 -4 48.624 3.68917 0
1 -5 4 49.5042 3.41295 0
-1 5 -5 56.8358 7.44834 0
1 -5 5 62.8253 7.73836 0
-1 5 -6 229.977 10.1937 0
1 -5 6 232.599 10.2597 0
1 -5 6 217.131 10.6769 0
-1 5 -7 127.099 5.2371 0
1 -5 7 127.242 5.72978 0
1 -5 7 121.086 4.59701 0
-1 5 -8 -0.07901 2.61442 0
1 -5 8 0.60692 1.42572 0
1 -5 8 0.99118 1.23179 0
-1 5 -9 58.5085 4.87238 0
1 -5 9 57.2687 4.60243 0
1 -5 9 62.521 3.18271 0
-1 5 -10 156.33 9.52261 0
1 -5 10 159.533 7.02845 0
1 -5 10 148.863 6.69568 0
-1 5 -11 47.9459 4.35021 0
1 -5 11 48.8814 2.66626 0
1 -5 11 54.2344 6.08679 0
-1 5 -12 9.6669 2.43717 0
1 -5 12 7.04708 3.84113 0
1 -5 12 6.64361 3.07236 0
-1 5 -13 42.5638 2.88186 0
1 -5 13 47.6305 2.91227 0
1 -5 13 42.6323 2.41802 0
-1 5 -14 52.2599 3.16311 0
1 -5 14 46.5909 2.81323 0
-1 5 -15 50.6744 4.55826 0
1 -5 15 55.7286 3.12371 0
-1 5 -16 3.39023 2.38908 0
1 -5 16 3.73773 2.83587 0
-1 5 -17 21.0334 5.83994 0
1 -5 17 23.5918 2.56803 0
-1 4 20 19.3643 2.3855 0
-1 4 20 21.9028 3.02958 0
-1 4 19 12.5709 6.63208 0
-1 4 19 12.6797 1.35884 0
-1 4 18 79.243 3.62863 0
-1 4 18 61.3305 2.92529 0
-1 4 17 8.31302 5.65472 0
-1 4 17 9.60665 5.45871 0
-1 4 16 34.468 2.79863 0
-1 4 16 39.2072 2.84087 0
-1 4 15 14.6986 4.53516 0
-1 4 15 12.1899 5.03749 0
-1 4 14 303.127 9.90258 0
-1 4 14 318.302 10.0214 0
-1 4 13 9.66009 3.96748 0
-1 4 13 13.3199 4.8906 0
1 -4 -13 10.5341 0.74963 0
1 -4 -13 10.4097 0.75618 0
-1 4 12 46.2538 5.61501 0
-1 4 12 45.5373 5.8172 0
1 -4 -12 47.4243 1.90478 0
-1 4 11 14.6733 4.05273 0
-1 4 11 14.6771 6.33987 0
1 -4 -11 12.3784 1.27493 0
-1 4 10 408.036 13.182 0
-1 4 10 404.544 13.1695 0
1 -4 -10 428.255 12.6049 0
-1 4 9 1.60062 1.11328 0
-1 4 9 1.7124 1.4352 0
1 -4 -9 0.93444 0.38004 0
-1 4 8 54.3146 3.0199 0
-1 4 8 53.3951 5.81234 0
1 -4 -8 53.279 2.26492 0
1 -4 -8 52.9886 2.14877 0
-1 4 7 43.3024 5.65634 0
-1 4 7 42.7054 5.18498 0
1 -4 -7 35.6664 3.85993 0
1 -4 -7 35.8025 2.23635 0
-1 4 6 807.291 22.6053 0
-1 4 6 834.885 21.01 0
1 -4 -6 763.039 18.9467 0
1 -4 -6 787.792 20.0178 0
-1 4 5 16.6584 5.51072 0
-1 4 5 11.7426 3.20307 0
1 -4 -5 13.3772 4.32084 0
1 -4 -5 10.3904 6.94699 0
-1 4 4 66.2345 6.55323 0
-1 4 4 65.8866 2.33411 0
1 -4 -4 58.5996 2.27086 0
1 -4 -4 64.9757 5.56645 0
-1 4 3 28.7944 4.82858 0
1 -4 -3 21.4531 1.80416 0
-1 4 3 26.5834 3.57551 0
1 -4 -3 23.1785 1.45645 0
1 -4 -3 21.0922 3.73297 0
-1 4 2 667.963 15.2808 0
1 -4 -2 680.358 15.0197 0
-1 4 2 607.67 12.7362 0
1 -4 -2 645.35 13.3054 0
1 -4 -2 662.285 16.0844 0
-1 4 1 11.9716 3.85162 0
1 -4 -1 9.9685 4.30198 0
-1 4 1 15.1443 1.86195 0
1 -4 -1 13.6655 2.23165 0
1 -4 -1 11.9447 8.20737 0
-1 4 0 36.3288 14.0869 0
1 -4 0 28.5256 6.30362 0
1 -4 0 30.8015 3.47031 0
1 -4 0 33.814 3.94142 0
-1 4 -1 121.064 6.39856 0
1 -4 1 120.632 11.4697 0
1 -4 1 121.534 4.00796 0
1 -4 1 124.627 5.73486 0
-1 4 -2 1190.85 25.4418 0
1 -4 2 1293.22 26.3106 0
1 -4 2 1365.81 30.9873 0
-1 4 -3 6.53811 4.42267 0
1 -4 3 10.3157 4.289 0
1 -4 3 8.81046 3.6904 0
-1 4 -4 0.61795 1.19796 0
1 -4 4 2.13573 1.64787 0
-1 4 -5 15.0799 5.02832 0
1 -4 5 16.5754 7.1912 0
-1 4 -6 596.409 21.689 0
1 -4 6 647.979 23.4729 0
1 -4 6 513.999 19.6225 0
-1 4 -7 36.6316 2.50102 0
1 -4 7 49.0724 4.79613 0
1 -4 7 45.1171 5.07498 0
-1 4 -8 43.1944 6.02712 0
1 -4 8 46.4921 4.31423 0
1 -4 8 46.5721 3.0816 0
-1 4 -9 9.90425 5.88652 0
1 -4 9 15.6175 7.22822 0
1 -4 9 16.3216 2.00518 0
-1 4 -10 147.183 5.91936 0
1 -4 10 158.781 8.98928 0
1 -4 10 159.11 6.17377 0
-1 4 -11 27.706 4.01459 0
1 -4 11 34.2482 3.38898 0
1 -4 11 29.215 2.51816 0
-1 4 -12 102.288 4.73967 0
1 -4 12 104.364 5.17189 0
1 -4 12 97.0368 3.81349 0
-1 4 -13 1.27431 1.72005 0
1 -4 13 1.51769 1.52863 0
1 -4 13 3.31431 1.30166 0
-1 4 -14 39.6416 3.53169 0
1 -4 14 47.7918 4.67176 0
-1 4 -15 21.2596 2.2598 0
1 -4 15 16.8319 7.37087 0
-1 4 -16 52.9973 2.85597 0
1 -4 16 44.9138 2.58292 0
-1 4 -17 0.79617 1.06703 0
1 -4 17 0.92134 1.23529 0
-1 4 -18 26.6441 4.86875 0
1 -4 18 28.4292 2.74083 0
-1 3 20 0.47929 0.56117 0
-1 3 20 0.58913 1.20022 0
-1 3 19 48.5551 3.65623 0
-1 3 19 47.808 3.62403 0
-1 3 18 43.7816 2.70442 0
-1 3 18 46.5206 2.88625 0
-1 3 17 58.4571 3.78093 0
-1 3 17 60.532 3.2263 0
-1 3 16 1.90037 1.85219 0
-1 3 16 2.12521 1.94052 0
-1 3 15 47.4136 11.6976 0
-1 3 15 40.6621 2.45138 0
-1 3 14 104.291 5.18493 0
-1 3 14 96.7493 4.63915 0
-1 3 13 185.556 7.52057 0
-1 3 13 174.147 6.69204 0
-1 3 12 15.7122 7.92384 0
-1 3 12 14.1963 4.86269 0
-1 3 11 38.3948 3.75384 0
-1 3 11 39.9796 3.22158 0
1 -3 -11 37.1382 1.81689 0
1 -3 -11 36.6099 1.80088 0
-1 3 10 347.313 14.3448 0
-1 3 10 321.937 12.3227 0
1 -3 -10 351.832 12.2277 0
-1 3 9 146.246 7.40405 0
-1 3 9 156.178 7.17768 0
1 -3 -9 169.237 5.95153 0
-1 3 8 174.953 7.37014 0
-1 3 8 159.286 7.38566 0
1 -3 -8 159.742 7.18381 0
1 -3 -8 170.388 5.97788 0
-1 3 7 28.2618 9.86325 0
-1 3 7 23.2507 3.30856 0
1 -3 -7 22.6038 2.4346 0
1 -3 -7 24.6411 2.37785 0
-1 3 6 1384.4 28.8816 0
-1 3 6 1415.19 28.5292 0
1 -3 -6 1435.08 29.3143 0
1 -3 -6 1350.65 27.5587 0
-1 3 5 63.4041 9.45833 0
1 -3 -5 62.0054 3.75669 0
-1 3 5 59.0746 2.15144 0
1 -3 -5 62.7181 2.60437 0
1 -3 -5 59.7274 2.65766 0
-1 3 4 349.882 9.87327 0
1 -3 -4 344.524 9.56893 0
-1 3 4 362.459 9.05934 0
1 -3 -4 344.078 8.74085 0
1 -3 -4 345.267 9.44861 0
-1 3 3 42.9323 12.6428 0
1 -3 -3 33.5908 5.81807 0
-1 3 3 39.0462 3.30875 0
1 -3 -3 31.3184 1.68768 0
1 -3 -3 35.656 7.55757 0
-1 3 2 609.007 9.49065 0
1 -3 -2 554.255 9.54393 0
-1 3 2 592.751 8.00655 0
1 -3 -2 552.261 6.9867 0
1 -3 -2 592.614 9.40693 0
-1 3 1 61.3771 15.9613 0
1 -3 -1 49.2754 7.83455 0
-1 3 1 53.135 3.15227 0
1 -3 -1 46.177 1.66071 0
1 -3 -1 54.2652 3.3983 0
-1 3 0 294.295 11.2765 0
1 -3 0 296.98 11.0247 0
1 -3 0 300.093 10.1473 0
1 -3 0 293.242 10.6966 0
-1 3 -1 147.345 7.25233 0
1 -3 1 152.775 11.3359 0
1 -3 1 162.162 6.02501 0
1 -3 1 145.381 6.39692 0
-1 3 -2 386.916 13.7082 0
1 -3 2 386.952 13.587 0
1 -3 2 387.9 13.7011 0
-1 3 -3 723.692 16.0743 0
1 -3 3 820.433 17.8088 0
1 -3 3 688.498 15.4289 0
-1 3 -4 537.091 12.651 0
1 -3 4 540.91 12.4322 0
1 -3 4 536.279 12.5072 0
-1 3 -5 2.2522 3.75176 0
1 -3 5 1.28697 1.49381 0
1 -3 5 0.59178 2.189 0
-1 3 -6 494.165 16.0225 0
1 -3 6 523.987 17.0973 0
1 -3 6 475.941 15.7027 0
-1 3 -7 33.7717 6.20413 0
1 -3 7 32.3293 3.00415 0
1 -3 7 32.7973 2.28297 0
-1 3 -8 305.551 11.8844 0
1 -3 8 290.65 11.8276 0
1 -3 8 295.673 11.9631 0
-1 3 -9 10.043 3.67773 0
1 -3 9 8.52345 6.42189 0
1 -3 9 9.65506 3.30592 0
-1 3 -10 68.4463 3.77497 0
1 -3 10 74.105 6.634 0
1 -3 10 66.874 3.45606 0
-1 3 -11 3.79751 2.08031 0
1 -3 11 4.55769 2.7285 0
1 -3 11 2.54525 1.21154 0
-1 3 -12 172.584 8.84414 0
1 -3 12 188.741 7.32469 0
1 -3 12 181.181 6.69498 0
-1 3 -13 44.382 2.47297 0
1 -3 13 37.2846 4.35255 0
1 -3 13 45.2589 2.43205 0
-1 3 -14 26.1977 5.99191 0
1 -3 14 26.6686 2.73885 0
1 -3 14 28.5089 1.58864 0
-1 3 -15 0.6956 1.9617 0
1 -3 15 1.55635 1.93668 0
-1 3 -16 178.202 8.30454 0
1 -3 16 176.278 8.4347 0
-1 3 -17 2.47914 0.87627 0
1 -3 17 1.47491 1.32308 0
-1 3 -18 2.0591 2.44429 0
1 -3 18 1.67995 1.34113 0
-1 2 20 0.65876 1.02694 0
-1 2 20 0.61298 1.13043 0
-1 2 19 17.6786 7.1537 0
-1 2 19 16.6506 2.60232 0
-1 2 18 12.6946 5.68854 0
-1 2 18 14.8905 5.28616 0
-1 2 17 120.253 7.72393 0
-1 2 17 117.709 8.23671 0
-1 2 16 12.3894 5.72252 0
-1 2 16 16.7544 4.365 0
-1 2 15 0.60483 1.16313 0
-1 2 15 0.53795 1.36086 0
-1 2 14 25.9684 2.2626 0
-1 2 14 25.2287 7.69594 0
-1 2 13 313.853 13.0953 0
-1 2 13 300.947 12.6513 0
-1 2 12 1.58725 1.91437 0
-1 2 12 1.98871 1.94039 0
-1 2 11 3.35304 3.64567 0
-1 2 11 3.40181 2.80842 0
-1 2 10 26.5324 10.0591 0
-1 2 10 30.8055 2.57892 0
-1 2 9 510.791 16.6032 0
-1 2 9 573.29 18.3386 0
-1 2 8 424.123 14.43 0
-1 2 8 399.003 13.3329 0
1 -2 -8 420.243 13.7599 0
1 -2 -8 404.008 12.2142 0
-1 2 7 78.8788 4.95611 0
-1 2 7 86.726 5.30328 0
1 -2 -7 76.4426 5.35116 0
1 -2 -7 82.9251 3.23823 0
-1 2 6 160.374 5.42391 0
-1 2 6 156.734 9.24829 0
-1 2 6 159.183 5.25935 0
1 -2 -6 167.569 6.75356 0
1 -2 -6 166.548 4.46288 0
-1 2 5 629.579 9.63839 0
-1 2 5 639.726 9.93892 0
-1 2 5 598.918 8.69387 0
1 -2 -5 602.918 8.55076 0
1 -2 -5 608.564 8.04988 0
-1 2 4 51.1467 2.8517 0
1 -2 -4 55.8459 4.38488 0
-1 2 4 50.5641 2.46074 0
1 -2 -4 50.6484 2.2231 0
1 -2 -4 51.1237 2.71372 0
-1 2 3 289.735 10.3811 0
1 -2 -3 280.161 11.0113 0
-1 2 3 284.936 9.57326 0
1 -2 -3 272.382 9.15317 0
1 -2 -3 282.141 9.96104 0
-1 2 2 257.431 9.3771 0
1 -2 -2 243.729 8.91703 0
-1 2 2 245.411 8.17255 0
1 -2 -2 234.57 7.85468 0
1 -2 -2 246.189 9.07596 0
-1 2 1 96.7082 4.81799 0
1 -2 -1 91.6013 3.22049 0
-1 2 1 88.4063 1.70796 0
1 -2 -1 92.4595 3.43292 0
1 -2 -1 86.129 2.96557 0
-1 2 1 83.7922 3.13552 0
-1 2 0 728.479 10.4696 0
1 -2 0 661.402 9.61271 0
1 -2 0 758.114 8.9679 0
1 -2 0 745.948 10.9023 0
-1 2 0 736.819 10.4102 0
-1 2 -1 495.569 9.00733 0
1 -2 1 520.793 9.10722 0
1 -2 1 534.071 11.9543 0
-1 2 -1 508.215 8.19151 0
-1 2 -2 73.7655 8.26206 0
1 -2 2 73.2767 3.38977 0
1 -2 2 67.4187 3.21347 0
-1 2 -2 73.9579 2.97306 0
-1 2 -3 2202.32 25.0859 0
1 -2 3 2102.18 24.1155 0
1 -2 3 2308.1 26.6249 0
1 -2 3 2081.93 24.2292 0
-1 2 -3 2331.04 26.6476 0
-1 2 -4 196.54 6.26646 0
1 -2 4 207.365 6.4076 0
1 -2 4 214.598 6.6193 0
1 -2 4 202.503 6.12532 0
-1 2 -4 198 5.9983 0
-1 2 -5 532.452 12.3898 0
1 -2 5 510.185 11.7098 0
1 -2 5 539.466 12.8043 0
1 -2 5 531.377 12.0336 0
-1 2 -5 546.493 12.3315 0
-1 2 -6 6.80296 3.4691 0
1 -2 6 9.64292 3.08103 0
1 -2 6 8.64335 3.31034 0
-1 2 -6 5.80339 2.64004 0
-1 2 -7 331.205 11.4543 0
1 -2 7 350.968 12.2183 0
1 -2 7 356.952 12.1918 0
-1 2 -7 349.09 11.4437 0
-1 2 -8 158.002 6.41584 0
1 -2 8 154.526 6.45415 0
1 -2 8 165.548 7.42131 0
-1 2 -8 170.896 6.12378 0
-1 2 -9 72.1456 4.46585 0
1 -2 9 71.5972 4.71395 0
1 -2 9 74.335 4.03058 0
-1 2 -10 -1.46758 1.67207 0
1 -2 10 2.12117 1.73222 0
1 -2 10 0.34484 0.80596 0
-1 2 -11 95.5555 4.67033 0
1 -2 11 103.321 5.68261 0
1 -2 11 85.1623 4.76535 0
-1 2 -12 171.738 6.80387 0
1 -2 12 171.201 7.23766 0
1 -2 12 175.266 6.03973 0
-1 2 -13 82.9603 5.05281 0
1 -2 13 78.5756 3.56868 0
1 -2 13 86.7937 2.31856 0
-1 2 -14 23.5732 4.40147 0
1 -2 14 22.944 8.26569 0
1 -2 14 23.0732 1.12335 0
-1 2 -15 1.14755 1.82708 0
1 -2 15 0.45479 1.98837 0
-1 2 -16 95.9621 4.08558 0
1 -2 16 95.9866 5.05077 0
-1 2 -17 16.0309 1.54156 0
1 -2 17 12.7707 7.96436 0
-1 2 -18 5.80156 3.56336 0
1 -2 18 6.03616 4.90755 0
-1 2 -19 2.2146 0.81156 0
1 -2 19 2.15368 1.70958 0
-1 1 20 4.26221 1.68245 0
-1 1 20 1.65294 1.87923 0
-1 1 19 1.12262 1.40645 0
-1 1 19 0.25841 1.16075 0
1 -1 -18 4.99316 2.06967 0
-1 1 18 2.52049 2.40209 0
1 -1 -17 120.475 8.69737 0
-1 1 17 123.294 6.5261 0
1 -1 -16 5.02993 1.38775 0
-1 1 16 5.70519 4.49291 0
1 -1 -15 33.7366 2.546 0
-1 1 15 31.0259 2.231 0
1 -1 -14 0.67014 1.19136 0
-1 1 14 1.42715 1.18516 0
1 -1 -13 298.491 10.1105 0
-1 1 13 308.079 10.3701 0
1 -1 -12 0.7264 1.35643 0
-1 1 12 -0.01112 2.17548 0
1 -1 -11 21.9529 6.27458 0
-1 1 11 23.0623 7.44091 0
1 -1 -10 4.58418 2.48957 0
-1 1 10 2.72921 1.70409 0
1 -1 -9 723.696 22.9062 0
-1 1 9 838.429 26.0515 0
1 -1 -8 3.27287 2.08324 0
-1 1 8 2.09968 2.47247 0
1 -1 -7 206.337 8.07009 0
-1 1 7 219.953 8.2535 0
1 -1 -6 1.70652 2.05866 0
-1 1 6 1.51013 1.6862 0
-1 1 6 -0.98193 2.32276 0
1 -1 -6 0.73814 2.0248 0
1 -1 -5 731.952 10.8482 0
-1 1 5 807.11 11.2857 0
-1 1 5 798.924 11.0187 0
1 -1 -5 899.005 11.8492 0
1 -1 -5 824.647 8.76455 0
-1 1 4 51.8223 3.33641 0
-1 1 4 58.5111 8.80907 0
-1 1 4 53.2225 4.05649 0
1 -1 -4 55.8708 3.87247 0
1 -1 -4 50.3901 2.04025 0
-1 1 3 791.453 10.6709 0
-1 1 3 905.889 11.9517 0
-1 1 3 845.197 10.7218 0
1 -1 -3 852.849 10.3061 0
1 -1 -3 833.78 9.66997 0
-1 1 2 34.7862 7.46867 0
1 -1 -2 33.1108 4.14436 0
-1 1 2 33.0491 2.96278 0
1 -1 -2 34.3718 2.65416 0
1 -1 -2 36.6115 2.75997 0
-1 1 2 35.0419 2.64534 0
-1 1 1 1297.27 15.2081 0
1 -1 -1 1338.06 15.3793 0
1 -1 -1 1323.45 17.3163 0
-1 1 1 1358.94 15.6946 0
-1 1 0 44.5013 10.9217 0
1 -1 0 35.1269 7.53754 0
1 -1 0 31.4441 2.22597 0
1 -1 0 31.1726 2.3617 0
-1 1 0 34.8464 6.65077 0
-1 1 -1 725.873 9.87139 0
1 -1 1 735.289 9.54085 0
1 -1 1 742.4 9.30858 0
1 -1 1 768.065 11.9171 0
-1 1 -1 759.57 10.0054 0
-1 1 -2 154.89 5.97297 0
1 -1 2 161.4 5.92962 0
1 -1 2 155.67 6.51912 0
-1 1 -2 161.816 7.29066 0
1 -1 2 153.373 5.81692 0
-1 1 -2 160.23 6.24171 0
-1 1 -3 704.431 9.99802 0
1 -1 3 714.751 9.65925 0
1 -1 3 705.968 11.1548 0
-1 1 -3 751.199 10.816 0
1 -1 3 710.265 10.4112 0
-1 1 -3 646.178 8.87428 0
-1 1 -4 4.84098 3.38174 0
1 -1 4 7.64365 4.20015 0
1 -1 4 11.2493 4.53214 0
-1 1 -4 8.86354 3.28136 0
1 -1 4 11.867 5.0726 0
-1 1 -4 8.84038 5.02628 0
-1 1 -5 822.502 11.5399 0
1 -1 5 786.185 16.9513 0
1 -1 5 754.214 18.1088 0
1 -1 5 781.981 10.8227 0
-1 1 -5 766.223 16.5039 0
-1 1 -6 147.494 5.034 0
1 -1 6 154.269 5.05333 0
1 -1 6 158.001 5.71723 0
1 -1 6 161.101 4.82774 0
-1 1 -6 163.144 4.84708 0
-1 1 -7 227.116 12.4546 0
1 -1 7 225.041 8.78026 0
1 -1 7 238.927 8.03843 0
-1 1 -7 232.268 7.80081 0
-1 1 -8 69.3887 2.93316 0
1 -1 8 68.4853 3.53017 0
1 -1 8 70.1933 2.21674 0
-1 1 -8 68.3244 2.07138 0
-1 1 -9 369.897 14.6329 0
1 -1 9 391.352 14.9642 0
1 -1 9 385.655 13.9564 0
-1 1 -9 392.313 13.9797 0
-1 1 -10 47.153 3.65912 0
1 -1 10 50.7061 4.0704 0
1 -1 10 46.6739 4.75304 0
-1 1 -10 44.4055 2.74752 0
-1 1 -11 73.2226 4.07399 0
1 -1 11 77.4058 3.99602 0
1 -1 11 72.3727 3.06816 0
-1 1 -12 25.9714 2.24348 0
1 -1 12 24.7914 7.22861 0
1 -1 12 28.3668 1.40262 0
-1 1 -13 257.39 8.86617 0
1 -1 13 245.432 8.66584 0
1 -1 13 264.631 7.76436 0
-1 1 -14 56.5567 4.24422 0
1 -1 14 55.9196 4.20235 0
1 -1 14 55.9137 2.13557 0
-1 1 -15 6.2292 2.84835 0
1 -1 15 6.68128 2.24373 0
-1 1 -16 45.0238 2.45125 0
1 -1 16 40.9307 3.03087 0
-1 1 -17 62.4414 3.14711 0
1 -1 17 62.8927 4.25522 0
-1 1 -18 6.69813 2.99723 0
1 -1 18 6.70693 2.10444 0
-1 1 -19 0.6247 0.81047 0
1 -1 19 1.35147 0.91255 0
-1 1 -20 13.8096 4.34732 0
1 -1 20 15.9262 2.06916 0
1 0 -20 37.1265 3.17659 0
-1 0 20 46.0731 3.73466 0
1 0 -19 15.5587 1.52471 0
-1 0 19 10.3053 5.79141 0
1 0 -18 1.09335 0.9279 0
-1 0 18 1.39744 1.64562 0
1 0 -17 44.1489 6.4256 0
-1 0 17 39.6943 2.67132 0
1 0 -16 67.5437 3.76763 0
-1 0 16 69.2373 4.08029 0
1 0 -15 66.3264 4.48715 0
-1 0 15 68.818 4.47297 0
1 0 -14 7.37794 3.50909 0
-1 0 14 8.28951 3.11581 0
1 0 -13 38.5419 2.65875 0
-1 0 13 36.9711 7.18589 0
1 0 -12 182.468 7.7388 0
-1 0 12 183.731 8.46476 0
1 0 -11 229.711 10.1379 0
-1 0 11 219.101 9.7058 0
1 0 -10 49.9715 4.00696 0
-1 0 10 53.1152 6.98057 0
1 0 -9 61.6435 3.59116 0
-1 0 9 63.7287 3.33534 0
1 0 -8 73.3061 8.89425 0
-1 0 8 71.5801 4.45521 0
1 0 -7 452.309 15.3925 0
-1 0 7 478.597 15.8874 0
1 0 -6 11.1258 6.34226 0
-1 0 6 14.6597 6.40944 0
-1 0 6 18.3818 6.03321 0
1 0 -5 1.47966 2.10112 0
-1 0 5 -0.58447 2.04193 0
-1 0 5 -0.8582 2.32306 0
1 0 -4 366.847 12.779 0
-1 0 4 432.179 14.7227 0
-1 0 4 378.26 13.0681 0
1 0 -3 456.376 15.3895 0
-1 0 3 431.377 14.5331 0
-1 0 3 447.409 14.0963 0
1 0 -2 114.746 5.0863 0
-1 0 2 114.191 4.79975 0
1 0 -2 116.77 4.78184 0
-1 0 2 111.988 3.87741 0
1 0 -1 91.7895 2.52159 0
-1 0 1 96.9892 2.27311 0
-1 0 1 90.4735 1.61971 0
1 0 -1 105.934 3.89282 0
1 0 -1 94.5228 2.00623 0
-1 0 1 95.5627 1.71174 0
-1 0 0 110.076 3.62581 0
1 0 0 117.672 3.90472 0
1 0 0 17.8873 0.80883 0
-1 0 0 109.248 3.63511 0
1 0 0 106.571 3.87683 0
-1 0 0 111.991 3.9512 0
-1 0 -1 2674.72 27.9658 0
1 0 1 2659.97 28.7968 0
-1 0 -2 582.215 7.59798 0
1 0 2 581.602 7.38167 0
1 0 2 586.901 8.94994 0
-1 0 -2 567.325 7.94048 0
-1 0 -2 531.012 7.21944 0
1 0 2 523.927 5.3267 0
-1 0 -3 30.4411 2.63765 0
1 0 3 30.3027 2.83655 0
1 0 3 30.9945 6.51197 0
-1 0 -3 33.0528 2.37821 0
1 0 3 29.5417 1.72961 0
-1 0 -3 32.0496 2.92303 0
-1 0 -4 8.62363 3.61557 0
1 0 4 11.1399 5.49665 0
1 0 4 14.9835 4.55204 0
-1 0 -4 12.0112 3.42828 0
1 0 4 13.0617 2.2638 0
-1 0 -4 10.2523 3.61557 0
-1 0 -5 1294.86 17.5886 0
1 0 5 1353.13 16.5504 0
1 0 5 1389.23 17.8218 0
-1 0 -5 1329.97 16.6783 0
1 0 5 1395.58 16.0915 0
-1 0 -5 1398.33 16.4752 0
-1 0 -6 -0.17121 1.89019 0
1 0 6 0.03424 1.21903 0
1 0 6 -2.15043 2.93801 0
-1 0 -6 1.99291 1.5957 0
1 0 6 0.42461 0.97249 0
-1 0 -6 0.52049 0.76018 0
-1 0 -7 6.27434 3.46383 0
1 0 7 6.56402 2.46536 0
1 0 7 11.5194 4.90607 0
1 0 7 6.35447 1.87367 0
-1 0 -7 6.60717 1.04161 0
-1 0 -8 12.1283 3.05273 0
1 0 8 9.67616 5.84648 0
1 0 8 11.7701 4.43583 0
-1 0 -8 8.98737 2.8213 0
-1 0 -9 663.474 21.0376 0
1 0 9 690.931 23.6341 0
1 0 9 657.444 19.8503 0
-1 0 -9 688.838 20.7519 0
-1 0 -10 40.8973 2.45091 0
1 0 10 36.2175 4.17809 0
1 0 10 40.8396 2.10014 0
-1 0 -10 37.514 1.33646 0
-1 0 -11 7.43542 2.89945 0
1 0 11 7.65064 2.37154 0
1 0 11 7.48821 2.5096 0
-1 0 -11 7.31765 2.3959 0
-1 0 -12 -1.97118 1.79736 0
1 0 12 -0.08876 2.65535 0
1 0 12 0.80622 0.72116 0
-1 0 -12 0.01849 0.56953 0
-1 0 -13 184.356 6.98803 0
1 0 13 177.603 7.32432 0
1 0 13 185.681 5.81439 0
-1 0 -14 39.6195 6.03106 0
1 0 14 34.6059 2.6815 0
1 0 14 35.0884 1.68561 0
-1 0 -15 47.2202 2.41416 0
1 0 15 46.3876 2.72818 0
-1 0 -16 -0.12174 1.30474 0
1 0 16 2.04841 2.06694 0
-1 0 -17 105.934 5.64576 0
1 0 17 99.3966 4.62259 0
-1 0 -18 1.74042 1.46395 0
1 0 18 0.63 1.02431 0
-1 0 -19 12.5512 5.46337 0
1 0 19 12.0624 6.78866 0
-1 0 -20 2.10605 1.42687 0
1 0 20 2.04146 2.4388 0
-1 -1 19 4.22889 2.50459 0
1 1 -18 23.1465 4.66982 0
-1 -1 18 24.0203 1.97427 0
1 1 -17 10.5829 3.40049 0
-1 -1 17 10.4893 3.53389 0
1 1 -16 61.4886 3.04131 0
-1 -1 16 63.271 5.7565 0
1 1 -15 23.2542 5.82865 0
-1 -1 15 19.4654 6.87193 0
1 1 -14 74.6555 5.89815 0
-1 -1 14 69.1163 4.13582 0
1 1 -13 3.16664 1.75782 0
-1 -1 13 2.94571 1.75142 0
1 1 -12 170.076 7.60652 0
-1 -1 12 176.937 8.12086 0
-1 -1 12 136.928 4.69197 0
1 1 -11 183.702 8.21216 0
-1 -1 11 183.969 6.9342 0
-1 -1 11 181.343 4.62537 0
1 1 -10 258.519 11.1594 0
-1 -1 10 256.865 11.2184 0
-1 -1 10 264.515 10.0233 0
1 1 -9 5.97758 4.6765 0
-1 -1 9 5.08859 2.81979 0
-1 -1 9 5.88961 1.92616 0
1 1 -8 470.311 15.6129 0
-1 -1 8 458.215 15.1901 0
-1 -1 8 442.767 13.4319 0
1 1 -7 167.573 7.19173 0
-1 -1 7 168.022 6.9149 0
-1 -1 7 167.994 5.76146 0
1 1 -6 232.59 7.56305 0
-1 -1 6 240.256 7.20934 0
-1 -1 6 232.699 7.26079 0
-1 -1 6 234.435 5.90381 0
1 1 -5 32.8742 6.31184 0
-1 -1 5 33.8835 4.47089 0
-1 -1 5 34.0541 1.35051 0
1 1 -4 191.121 7.58373 0
-1 -1 4 194.409 8.28162 0
1 1 -3 136.249 5.87971 0
-1 -1 3 133.401 5.57989 0
1 1 -2 203.504 7.50896 0
-1 -1 2 203.785 7.3162 0
-1 -1 2 233.47 8.32381 0
1 1 -1 320.514 11.1053 0
-1 -1 1 314.562 10.6614 0
1 1 -1 324.083 11.4133 0
-1 -1 1 333.739 11.5129 0
1 1 0 216.124 7.25324 0
-1 -1 0 229.821 7.5754 0
1 1 0 246.417 8.3762 0
-1 -1 0 225.522 7.5754 0
1 1 1 558.112 6.50058 0
-1 -1 -1 538.711 6.1236 0
1 1 1 537.231 9.24976 0
-1 -1 -1 525.581 16.8721 0
1 1 2 1049.58 11.9989 0
-1 -1 -2 1072.62 12.0982 0
1 1 2 1028.54 12.8024 0
-1 -1 -2 1064.23 12.8024 0
-1 -1 -2 1057.31 12.4864 0
-1 -1 -3 243.157 9.95145 0
1 1 3 220.387 7.66837 0
1 1 3 245.327 8.91448 0
-1 -1 -3 238.312 8.66177 0
1 1 3 211.098 7.53766 0
-1 -1 -3 233.223 8.01693 0
-1 -1 -4 132.292 5.51802 0
1 1 4 128.253 5.12151 0
1 1 4 123.825 5.82366 0
-1 -1 -4 124.395 5.56758 0
1 1 4 132.275 6.03017 0
-1 -1 -4 127.294 5.26194 0
-1 -1 -5 838.981 11.6509 0
1 1 5 853.802 11.5281 0
1 1 5 876.451 12.3954 0
-1 -1 -5 834.299 11.6893 0
1 1 5 840.209 10.3461 0
-1 -1 -5 801.327 9.84725 0
-1 -1 -6 531.443 12.2683 0
1 1 6 560.368 12.6054 0
1 1 6 561.499 13.1461 0
-1 -1 -6 547.995 13.2234 0
1 1 6 498.598 10.5759 0
-1 -1 -6 520.768 11.0675 0
-1 -1 -7 56.2041 3.15347 0
1 1 7 50.3286 2.67125 0
1 1 7 51.5278 3.21692 0
-1 -1 -7 48.7297 2.38572 0
1 1 7 56.883 1.89716 0
-1 -1 -7 53.2981 3.63569 0
-1 -1 -8 4.04821 2.41642 0
1 1 8 1.37025 1.66022 0
1 1 8 1.88196 1.21674 0
-1 -1 -8 3.33182 1.1144 0
-1 -1 -9 395.88 6.44133 0
1 1 9 408.391 7.07682 0
1 1 9 395.666 3.81294 0
-1 -1 -9 402.453 4.99241 0
-1 -1 -10 266.046 9.46998 0
1 1 10 251.032 9.33286 0
-1 -1 -10 249.533 7.95259 0
-1 -1 -11 219.282 9.50975 0
1 1 11 236.766 10.8041 0
-1 -1 -11 225.063 8.70652 0
-1 -1 -12 35.2049 6.95943 0
1 1 12 38.9209 9.20809 0
-1 -1 -12 31.184 1.55501 0
-1 -1 -13 2.21273 1.38296 0
1 1 13 3.97946 2.02949 0
-1 -1 -14 44.8745 7.3988 0
1 1 14 41.1798 2.91199 0
-1 -1 -15 91.9134 4.1466 0
1 1 15 96.2982 4.01426 0
-1 -1 -16 1.04299 0.96422 0
1 1 16 1.26571 1.55634 0
-1 -1 -17 17.8334 1.58163 0
1 1 17 16.1441 7.66539 0
-1 -1 -18 9.00938 4.16388 0
1 1 18 7.56732 4.07578 0
-1 -1 -19 59.4572 4.16926 0
1 1 19 62.5712 4.82097 0
-1 -1 -20 0.87118 1.03139 0
1 1 20 1.54408 1.41791 0
1 2 -19 3.68865 2.8505 0
-1 -2 19 2.89348 2.92865 0
1 2 -18 61.9654 4.39458 0
-1 -2 18 60.6813 4.52278 0
1 2 -17 3.16077 1.2991 0
-1 -2 17 3.66459 1.86167 0
1 2 -16 34.3913 2.51715 0
-1 -2 16 28.8803 4.49925 0
1 2 -15 0.92667 1.0741 0
-1 -2 15 4.23321 2.94851 0
1 2 -14 222.118 9.75161 0
-1 -2 14 207.214 9.32514 0
1 2 -13 7.34973 3.98968 0
-1 -2 13 7.11631 2.96385 0
1 2 -12 19.9273 4.81612 0
-1 -2 12 18.6583 8.92946 0
-1 -2 12 17.8456 1.02917 0
1 2 -11 1.20512 1.14304 0
-1 -2 11 1.65065 1.61778 0
-1 -2 11 0.02556 0.67925 0
1 2 -10 496.226 17.7242 0
-1 -2 10 530.045 16.8093 0
-1 -2 10 505.483 14.6224 0
1 2 -9 2.96797 3.83654 0
-1 -2 9 8.18374 2.84139 0
-1 -2 9 6.38986 2.12123 0
1 2 -8 124.779 10.1551 0
-1 -2 8 123.098 6.43299 0
-1 -2 8 123.546 6.16334 0
1 2 -7 44.7491 3.64119 0
-1 -2 7 47.6085 4.27304 0
-1 -2 7 48.4546 2.5167 0
1 2 -6 1010.78 25.7391 0
-1 -2 6 1012.59 24.756 0
1 2 -5 115.925 5.2852 0
-1 -2 5 110.021 4.32965 0
1 2 -4 145.808 6.02758 0
-1 -2 4 160.026 6.39529 0
1 2 -3 10.149 6.32273 0
-1 -2 3 12.7854 4.28514 0
-1 -2 3 12.5288 4.3007 0
1 2 -2 988.195 13.1719 0
-1 -2 2 993.345 12.784 0
-1 -2 2 997.628 12.9573 0
1 2 -1 69.9202 3.46165 0
-1 -2 1 64.3283 2.45666 0
1 2 -1 71.1056 6.69138 0
-1 -2 1 69.7484 3.53896 0
1 2 0 168.283 7.03336 0
-1 -2 0 166.693 6.69969 0
1 2 0 172.761 6.47139 0
-1 -2 0 164.682 6.07626 0
1 2 1 4.99371 3.91733 0
-1 -2 -1 4.24377 2.78801 0
1 2 1 5.06429 2.16159 0
-1 -2 -1 3.62617 2.29393 0
1 2 2 3142.2 33.3222 0
-1 -2 -2 3222.72 34.3505 0
1 2 3 26.6555 3.46834 0
-1 -2 -3 28.4996 2.27557 0
1 2 3 27.8228 2.24173 0
-1 -2 -3 27.2392 2.51243 0
1 2 4 19.236 5.96895 0
-1 -2 -4 18.4304 5.46147 0
1 2 4 12.0265 5.92062 0
-1 -2 -4 14.427 4.9701 0
1 2 5 8.19001 4.84469 0
1 2 5 12.4395 5.3947 0
1 2 5 7.42149 3.6467 0
-1 -2 -5 10.0586 3.24737 0
-1 -2 -5 9.60649 4.15905 0
1 2 6 1509.88 30.8509 0
1 2 6 1441.22 29.5325 0
1 2 6 1404.1 28.9982 0
-1 -2 -6 1416.88 29.1509 0
-1 -2 -6 1436.19 28.9635 0
1 2 7 98.4147 6.28971 0
1 2 7 96.951 4.11954 0
1 2 7 96.1688 4.73147 0
-1 -2 -7 88.1694 3.81041 0
-1 -2 -7 95.9669 3.65901 0
-1 -2 -8 23.9377 6.42356 0
1 2 8 19.39 2.46142 0
-1 -2 -8 18.8159 1.6201 0
-1 -2 -9 41.8555 2.64979 0
1 2 9 38.9505 2.67532 0
-1 -2 -9 41.6411 1.38361 0
-1 -2 -10 526.301 19.688 0
1 2 10 556.895 20.3693 0
-1 -2 -10 510.489 17.7409 0
-1 -2 -11 106.717 5.67788 0
1 2 11 108.664 5.79538 0
-1 -2 -11 117.334 5.01483 0
-1 -2 -12 88.2543 3.9921 0
1 2 12 103.775 4.62852 0
-1 -2 -12 90.5802 3.13968 0
-1 -2 -13 3.43858 1.34112 0
1 2 13 5.22791 2.97987 0
-1 -2 -14 80.3416 4.14813 0
1 2 14 92.3112 4.59727 0
-1 -2 -15 65.8332 8.50727 0
1 2 15 59.0928 3.75986 0
-1 -2 -16 17.8584 1.68715 0
1 2 16 19.7357 1.92423 0
1 2 17 1.07189 1.01347 0
1 2 17 0.72898 1.30557 0
1 2 18 48.6207 3.18242 0
1 2 18 48.1432 8.57819 0
1 2 19 41.8491 2.701 0
1 2 19 29.7242 5.02742 0
1 2 20 49.521 4.53944 0
1 2 20 47.2248 2.99579 0
1 2 21 2.90504 2.87663 0
1 2 21 2.92019 1.43358 0
1 3 -18 42.085 2.75063 0
-1 -3 18 42.6428 2.79493 0
1 3 -17 18.7012 2.95362 0
-1 -3 17 14.3759 6.13911 0
1 3 -16 3.16288 1.5919 0
-1 -3 16 2.16823 1.78246 0
1 3 -15 3.92636 2.62926 0
-1 -3 15 5.91458 2.23863 0
1 3 -14 220.537 10.6532 0
-1 -3 14 210.39 11.6646 0
1 3 -13 61.3826 3.77139 0
-1 -3 13 62.7979 3.43147 0
1 3 -12 20.4025 2.97936 0
-1 -3 12 26.2291 8.14212 0
-1 -3 12 20.9279 1.2899 0
1 3 -11 2.00856 3.01626 0
-1 -3 11 1.84802 1.71821 0
-1 -3 11 1.75237 0.9018 0
1 3 -10 260.715 8.36175 0
-1 -3 10 265.192 8.61253 0
-1 -3 10 259.532 7.05172 0
1 3 -9 114.27 6.04684 0
-1 -3 9 132.977 7.11585 0
-1 -3 9 115.918 5.47561 0
1 3 -8 0.11084 1.32564 0
-1 -3 8 -0.96209 2.15916 0
-1 -3 8 -0.86898 1.02859 0
1 3 -7 7.53582 2.06541 0
-1 -3 7 9.1141 2.52818 0
1 3 -6 659.4 17.4844 0
-1 -3 6 637.855 16.8659 0
1 3 -5 176.68 7.34907 0
1 3 -4 110.8 5.0947 0
-1 -3 4 111.286 4.23262 0
-1 -3 4 122.999 4.47893 0
1 3 -3 4.82705 3.67809 0
-1 -3 3 2.56415 2.24889 0
-1 -3 3 3.13163 1.24705 0
1 3 -2 289.37 10.4847 0
-1 -3 2 298.131 12.022 0
1 3 -2 311.966 11.119 0
-1 -3 2 309.123 10.8056 0
1 3 -1 444.14 15.6153 0
-1 -3 1 454.094 6.23986 0
1 3 -1 454.298 6.52917 0
-1 -3 1 441.075 15.0132 0
1 3 0 739.511 12.4156 0
-1 -3 0 660.863 11.1032 0
1 3 0 686.451 10.1692 0
-1 -3 0 598.583 10.7167 0
1 3 1 5.19518 3.80274 0
-1 -3 -1 5.78147 3.47703 0
1 3 1 5.09747 3.14317 0
-1 -3 -1 4.55189 3.19202 0
1 3 2 708.865 10.7554 0
-1 -3 -2 734.759 10.2702 0
1 3 2 724.747 9.79312 0
-1 -3 -2 723.081 10.2217 0
1 3 3 19.4972 9.89058 0
-1 -3 -3 15.8375 1.75096 0
1 3 3 17.5175 7.05118 0
-1 -3 -3 14.5835 1.71153 0
1 3 4 835.249 11.3978 0
-1 -3 -4 815.885 11.035 0
1 3 4 812.672 11.035 0
-1 -3 -4 827.993 11.2693 0
1 3 5 1.93029 2.34342 0
-1 -3 -5 -0.44874 1.98015 0
1 3 5 -0.17807 2.05138 0
-1 -3 -5 1.01144 2.42889 0
1 3 6 509.629 11.683 0
1 3 6 515.506 11.9871 0
-1 -3 -6 483.843 11.3458 0
1 3 7 146.389 7.93337 0
1 3 7 147.37 6.42427 0
1 3 7 143.401 7.25458 0
-1 -3 -7 139.995 6.0667 0
1 3 8 567.184 15.0126 0
1 3 8 559.556 15.0456 0
-1 -3 -8 656.477 16.5491 0
1 3 9 1.29174 1.99995 0
1 3 9 0.81295 2.14458 0
-1 -3 -9 0.49874 0.24438 0
1 3 10 190.5 8.8766 0
1 3 10 178.407 6.96897 0
-1 -3 -10 180.572 5.92227 0
1 3 11 10.3969 3.72476 0
1 3 11 11.4196 5.80747 0
-1 -3 -11 11.2865 1.74598 0
1 3 12 326.29 9.53933 0
1 3 12 323.786 9.74995 0
-1 -3 -12 315.882 8.17985 0
1 3 13 19.7001 3.09843 0
1 3 13 17.2821 6.76908 0
-1 -3 -13 19.4873 1.14097 0
1 3 14 69.5398 5.89195 0
1 3 14 59.2016 3.01329 0
1 3 15 1.61391 1.41441 0
1 3 15 0.64616 1.2417 0
1 3 16 108.382 7.4192 0
1 3 16 110.948 6.91869 0
1 3 17 2.31401 1.94152 0
1 3 17 1.46443 1.6966 0
1 3 18 7.6547 3.79779 0
1 3 18 6.01356 2.15429 0
1 3 19 4.77768 2.94638 0
1 3 19 2.54971 2.14643 0
1 3 20 105.74 6.95989 0
1 3 20 93.5108 6.26943 0
1 3 21 2.93547 4.83074 0
1 4 -18 13.7074 1.49894 0
-1 -4 18 7.35653 6.01305 0
1 4 -17 60.1452 5.67019 0
-1 -4 17 63.4114 4.65346 0
1 4 -16 2.72504 1.64651 0
-1 -4 16 6.42914 3.45658 0
1 4 -15 2.84424 2.59321 0
-1 -4 15 3.23974 2.09825 0
1 4 -14 6.57969 5.55193 0
-1 -4 14 11.5782 5.12604 0
1 4 -13 102.585 4.88933 0
-1 -4 13 99.6067 4.90036 0
1 4 -12 32.5555 3.6107 0
-1 -4 12 44.1673 10.1918 0
-1 -4 12 35.1791 1.41701 0
1 4 -11 23.7263 2.13352 0
-1 -4 11 21.6309 2.26707 0
-1 -4 11 20.4831 2.69632 0
1 4 -10 61.0416 5.04891 0
-1 -4 10 64.4167 4.73207 0
-1 -4 10 56.8399 2.72077 0
1 4 -9 329.938 9.68791 0
-1 -4 9 368.644 11.1009 0
-1 -4 9 363.406 9.81192 0
1 4 -8 8.58056 2.79907 0
-1 -4 8 7.61086 2.78277 0
1 4 -7 19.0399 2.11945 0
-1 -4 7 23.8196 2.22498 0
1 4 -6 205.997 8.06761 0
-1 -4 6 191.785 7.12495 0
1 4 -5 366.689 12.6147 0
-1 -4 5 351.913 11.9099 0
1 4 -4 519.044 17.1008 0
1 4 -3 25.2459 9.45496 0
1 4 -2 6.65087 3.42343 0
-1 -4 2 2.44344 2.37811 0
1 4 -2 7.0494 2.35198 0
-1 -4 2 6.23927 1.55492 0
1 4 -1 1556.49 32.2843 0
-1 -4 1 1641.37 33.7331 0
1 4 -1 1539.58 32.5178 0
-1 -4 1 1700.66 34.9553 0
1 4 0 56.2623 6.03596 0
-1 -4 0 57.4553 8.94033 0
1 4 0 60.949 3.21681 0
-1 -4 0 58.8968 2.91857 0
1 4 1 80.2152 4.76569 0
-1 -4 -1 84.2588 5.33613 0
1 4 1 95.9131 6.59976 0
-1 -4 -1 79.9408 3.6898 0
1 4 2 53.737 16.207 0
-1 -4 -2 45.316 5.05837 0
1 4 2 44.212 2.47506 0
-1 -4 -2 49.0395 4.58933 0
1 4 3 19.7871 8.58242 0
-1 -4 -3 22.4943 3.56479 0
1 4 3 17.7106 2.03398 0
-1 -4 -3 23.7912 5.47829 0
1 4 4 1265.89 26.9783 0
-1 -4 -4 1228.34 25.2947 0
1 4 4 1316.31 26.7593 0
-1 -4 -4 1202.16 24.9183 0
1 4 5 107.714 4.48157 0
-1 -4 -5 102.913 4.0848 0
1 4 5 100.266 4.11732 0
-1 -4 -5 101.58 4.07179 0
1 4 6 0.92636 1.38344 0
-1 -4 -6 -0.38395 1.55409 0
1 4 6 -0.70086 2.00508 0
-1 -4 -6 0.35348 1.72473 0
1 4 7 193.956 7.37148 0
1 4 7 192.161 7.34326 0
-1 -4 -7 178.061 6.73368 0
1 4 8 494.764 15.9079 0
1 4 8 417.284 8.72421 0
1 4 9 80.1231 4.66783 0
1 4 9 80.3465 6.28873 0
1 4 10 13.4074 5.01685 0
1 4 10 16.0032 5.75539 0
-1 -4 -10 10.0031 3.64901 0
1 4 11 67.8911 4.63198 0
1 4 11 73.2971 4.51445 0
-1 -4 -11 75.4165 3.54591 0
1 4 12 239.887 7.51305 0
1 4 12 246.356 13.6713 0
-1 -4 -12 251.282 6.6173 0
1 4 13 25.6375 2.23798 0
1 4 13 19.1734 5.04059 0
-1 -4 -13 23.1737 1.52621 0
1 4 14 1.42582 1.6819 0
1 4 14 3.40491 2.90856 0
1 4 15 18.2712 1.89378 0
1 4 15 19.6192 6.73444 0
1 4 16 158.142 7.79514 0
1 4 16 164.312 8.26109 0
1 4 17 22.5401 2.89802 0
1 4 17 19.9489 5.15964 0
1 4 18 -0.5747 1.19179 0
1 4 18 1.89132 1.41084 0
1 4 19 0.41779 1.10383 0
1 4 19 1.47324 1.27095 0
1 4 20 52.4181 2.90256 0
1 4 20 49.624 3.01514 0
1 4 21 3.73459 2.58329 0
1 4 21 6.40953 2.96515 0
1 5 -17 72.1032 4.09828 0
-1 -5 17 70.9356 4.20531 0
1 5 -16 0.89631 0.72955 0
-1 -5 16 1.81763 2.22409 0
1 5 -15 25.8187 5.71468 0
-1 -5 15 24.2159 3.09173 0
1 5 -14 0.44424 1.45215 0
-1 -5 14 1.42588 1.02463 0
1 5 -13 125.421 6.51886 0
-1 -5 13 128.329 6.96286 0
1 5 -12 5.63937 2.00615 0
-1 -5 12 7.20279 2.25519 0
-1 -5 12 4.56296 1.71561 0
1 5 -11 76.0592 4.03088 0
-1 -5 11 82.2923 4.70665 0
-1 -5 11 79.0587 3.27509 0
1 5 -10 0.38313 1.75732 0
-1 -5 10 2.71673 3.28983 0
-1 -5 10 0.75042 0.61111 0
1 5 -9 283.874 9.66468 0
-1 -5 9 295.1 10.0535 0
-1 -5 9 289.893 9.07812 0
1 5 -8 -0.15886 1.862 0
-1 -5 8 2.09105 1.45561 0
1 5 -7 119.308 6.07893 0
-1 -5 7 123.693 6.54654 0
1 5 -6 7.62972 3.49713 0
-1 -5 6 8.64048 2.97683 0
1 5 -5 272.445 5.70788 0
-1 -5 5 269.616 9.55738 0
1 5 -4 -0.09838 1.65778 0
1 5 -3 335.753 11.8473 0
1 5 -2 7.14686 4.20864 0
1 5 -1 755.093 19.9314 0
1 5 -1 819.344 21.1661 0
1 5 0 12.991 6.35536 0
1 5 0 11.0899 4.40549 0
-1 -5 0 12.9179 4.08254 0
1 5 1 830.624 18.8922 0
-1 -5 -1 917.272 19.9871 0
1 5 1 850.573 18.9233 0
-1 -5 -1 836.614 17.8036 0
1 5 2 4.20068 2.71919 0
-1 -5 -2 1.30021 0.75637 0
1 5 2 1.5565 1.55025 0
-1 -5 -2 0.55634 1.24395 0
1 5 3 754.046 16.9011 0
-1 -5 -3 778.86 16.9073 0
1 5 3 716.349 15.2938 0
-1 -5 -3 794.66 16.9196 0
1 5 4 724.754 18.7004 0
1 5 4 681.864 17.2258 0
-1 -5 -4 732.061 18.5138 0
1 5 5 1179.83 29.235 0
1 5 5 1124.28 28.103 0
-1 -5 -5 1204.63 29.5064 0
1 5 6 13.6459 3.74797 0
1 5 6 19.4785 7.51782 0
-1 -5 -6 17.547 4.83132 0
1 5 7 92.8788 4.79302 0
1 5 7 96.4556 5.14197 0
1 5 8 161.919 6.59536 0
1 5 8 162.646 6.50927 0
1 5 9 332.393 12.6913 0
1 5 9 333.858 12.5978 0
1 5 10 37.8278 3.18589 0
1 5 10 43.9006 3.18589 0
1 5 11 57.8647 7.99674 0
1 5 11 54.6567 3.42551 0
-1 -5 -11 53.2391 2.27979 0
1 5 12 65.1327 4.02562 0
1 5 12 63.5976 3.8467 0
-1 -5 -12 57.8294 2.49767 0
1 5 13 190.139 6.90344 0
1 5 13 182.617 8.73685 0
-1 -5 -13 180.74 6.16875 0
1 5 14 23.5867 3.37482 0
1 5 14 22.5758 2.0742 0
1 5 15 59.5643 7.03378 0
1 5 15 56.4353 3.80635 0
1 5 16 27.2406 2.20761 0
1 5 16 22.7448 1.87458 0
1 5 17 86.7322 4.42651 0
1 5 17 77.8916 6.10484 0
1 5 18 10.4908 5.11639 0
1 5 18 11.9623 4.65612 0
1 5 19 0.68323 0.74633 0
1 5 19 0.53744 0.6136 0
1 5 20 8.263 1.44613 0
1 5 20 9.15542 2.54746 0
1 5 21 49.64 3.86163 0
1 5 21 40.2921 4.50808 0
1 6 -16 19.1591 2.04012 0
-1 -6 16 24.5616 2.76384 0
1 6 -15 26.1765 2.76192 0
-1 -6 15 29.2354 3.9683 0
1 6 -14 6.14597 2.73576 0
1 6 -13 21.2415 7.77228 0
-1 -6 13 18.3013 7.15755 0
1 6 -12 1.12253 1.28325 0
-1 -6 12 1.91084 0.93119 0
-1 -6 12 1.38275 1.56133 0
1 6 -11 165.674 8.1592 0
-1 -6 11 185.38 9.49853 0
-1 -6 11 169.944 9.21094 0
1 6 -10 2.01207 1.53175 0
-1 -6 10 1.52882 1.12172 0
-1 -6 10 1.57568 1.66354 0
1 6 -9 103.218 5.14769 0
-1 -6 9 95.6549 6.87601 0
1 6 -8 11.8732 5.9698 0
-1 -6 8 10.7941 4.80108 0
1 6 -7 243.883 8.0012 0
-1 -6 7 253.352 9.56511 0
1 6 -6 8.61761 4.44471 0
-1 -6 6 8.43002 4.22267 0
1 6 -5 44.8106 3.47076 0
-1 -6 5 47.7728 4.21537 0
1 6 -4 15.1795 7.62626 0
1 6 -3 330.559 12.8512 0
1 6 -2 100.869 6.1942 0
1 6 -1 423.736 14.6625 0
1 6 -1 469.131 16.9333 0
1 6 0 2.29258 2.7418 0
1 6 0 2.57657 1.6678 0
1 6 1 774.915 20.597 0
1 6 1 718.793 21.1037 0
1 6 2 90.3448 6.19872 0
1 6 2 90.7122 4.56916 0
1 6 3 113.627 6.11036 0
1 6 3 124.248 5.44262 0
-1 -6 -3 112.7 5.00806 0
1 6 4 4.33969 2.5601 0
1 6 4 2.74223 1.92008 0
-1 -6 -4 2.12301 1.13436 0
1 6 5 589.111 21.4859 0
1 6 5 558.567 17.3633 0
1 6 6 4.44451 3.849 0
1 6 6 10.1236 4.13949 0
1 6 7 3.27645 1.71887 0
1 6 7 6.55751 1.64514 0
1 6 8 -1.15697 2.46674 0
1 6 8 0.52391 1.34907 0
1 6 9 408.234 13.2003 0
1 6 9 421.893 13.0143 0
1 6 10 17.3039 6.95751 0
1 6 10 14.4193 3.56084 0
1 6 11 2.59731 2.32448 0
1 6 11 4.32157 2.95016 0
1 6 12 15.1194 7.45301 0
1 6 12 15.797 4.44809 0
1 6 13 370.959 11.4699 0
1 6 13 375.225 11.4382 0
1 6 14 3.76703 2.87962 0
1 6 14 4.49065 1.34898 0
1 6 15 70.008 4.64557 0
1 6 15 68.4669 4.25401 0
1 6 16 0.51035 0.78115 0
1 6 16 0.26559 0.85145 0
1 6 17 43.9038 6.75929 0
1 6 17 43.43 2.37134 0
1 6 18 4.8363 2.96183 0
1 6 18 5.50965 3.89907 0
1 6 19 15.0343 1.42239 0
1 6 19 16.3245 1.9342 0
1 6 20 0.30904 0.80548 0
1 6 20 0.42667 1.09657 0
1 7 -15 24.3735 4.20904 0
-1 -7 15 24.8431 2.56635 0
1 7 -14 36.605 2.48381 0
-1 -7 14 28.9252 10.1429 0
1 7 -13 2.1709 1.59553 0
-1 -7 13 1.40743 1.35432 0
1 7 -12 57.2341 3.12519 0
-1 -7 12 49.4199 4.47262 0
-1 -7 12 55.4234 2.70662 0
1 7 -11 66.6574 3.70361 0
-1 -7 11 70.1956 4.24737 0
-1 -7 11 66.9356 4.86631 0
1 7 -10 56.9828 4.63686 0
-1 -7 10 61.8631 7.8155 0
-1 -7 10 48.9773 6.02818 0
1 7 -9 3.94541 1.93268 0
-1 -7 9 1.57531 1.05783 0
1 7 -8 31.8455 2.46658 0
-1 -7 8 38.4371 3.53403 0
1 7 -7 121.68 5.90163 0
-1 -7 7 122.7 5.40425 0
1 7 -6 161.107 6.67279 0
-1 -7 6 151.283 6.02682 0
1 7 -5 0.59611 1.41127 0
-1 -7 5 0.38424 1.33945 0
1 7 -4 79.168 4.12647 0
-1 -7 4 89.2977 4.96013 0
1 7 -3 272.885 12.0177 0
1 7 -2 234.949 10.5641 0
1 7 -1 -0.09884 3.23167 0
1 7 -1 1.05717 0.91105 0
1 7 0 9.76634 6.2973 0
1 7 0 20.6419 5.99238 0
1 7 1 192.973 8.51949 0
1 7 1 200.866 7.38356 0
1 7 2 255.617 10.6974 0
1 7 2 243.038 8.45224 0
1 7 3 37.9708 3.72013 0
1 7 3 43.5578 2.10367 0
1 7 4 -0.43707 3.53713 0
1 7 4 1.33825 0.86513 0
1 7 5 178.339 7.64038 0
1 7 5 173.167 6.20946 0
1 7 6 96.5026 6.03303 0
1 7 6 102.793 2.83831 0
1 7 7 115.99 6.90204 0
1 7 7 107.967 5.14644 0
1 7 8 14.7925 6.80054 0
1 7 8 16.6995 3.17838 0
1 7 9 258.001 8.46901 0
1 7 9 258.829 7.49211 0
1 7 10 34.2669 2.76803 0
1 7 10 35.2708 2.11187 0
1 7 11 80.2139 3.83274 0
1 7 11 73.6763 3.06281 0
1 7 12 15.759 7.65346 0
1 7 12 19.4488 4.68949 0
1 7 13 190.855 8.02495 0
1 7 13 179.069 6.44104 0
1 7 14 42.7123 7.00693 0
1 7 14 43.0291 2.92265 0
1 7 15 112.605 5.16589 0
1 7 15 106.964 4.74385 0
1 7 16 1.53853 1.17078 0
1 7 16 1.22582 0.80554 0
1 7 17 18.078 1.70215 0
1 7 17 13.6289 5.86712 0
1 7 18 4.78596 2.30681 0
1 7 18 6.16916 2.23168 0
1 7 19 58.5798 5.1688 0
1 7 19 56.2037 3.91444 0
1 7 20 0.9066 1.39687 0
1 7 20 1.58753 1.37547 0
1 8 -14 54.1051 6.18679 0
-1 -8 14 58.4387 3.76403 0
1 8 -13 0.6559 1.92888 0
-1 -8 13 0.76828 0.90519 0
1 8 -12 19.2965 5.80807 0
-1 -8 12 15.452 7.14389 0
-1 -8 12 19.5463 1.96788 0
1 8 -11 10.9533 3.91076 0
-1 -8 11 6.54857 3.75451 0
-1 -8 11 5.71679 2.32072 0
1 8 -10 121.417 6.56091 0
-1 -8 10 115.255 6.57552 0
-1 -8 10 111.772 5.68694 0
1 8 -9 3.08145 1.81839 0
-1 -8 9 1.46969 1.04092 0
1 8 -8 -0.03015 1.76269 0
-1 -8 8 0.83063 1.1733 0
1 8 -7 21.5512 3.76733 0
-1 -8 7 20.4956 1.70531 0
1 8 -6 244.915 10.1213 0
-1 -8 6 250.2 9.87559 0
1 8 -5 0.96015 1.73272 0
-1 -8 5 1.58329 2.11742 0
1 8 -4 2.09948 2.37608 0
-1 -8 4 0.99975 1.7329 0
1 8 -3 59.6046 5.51688 0
-1 -8 3 62.255 3.97202 0
1 8 -2 370.328 11.5512 0
1 8 -1 -0.81057 2.95951 0
1 8 -1 0.18096 0.70123 0
1 8 0 1.38591 2.54665 0
1 8 0 1.23062 1.06758 0
1 8 1 22.1748 10.703 0
1 8 1 24.6633 1.75148 0
1 8 2 388.741 13.5396 0
1 8 2 386.318 12.0681 0
1 8 3 56.3429 5.89961 0
1 8 3 59.5212 3.79547 0
1 8 4 45.8245 5.17805 0
1 8 4 44.165 2.99593 0
1 8 5 33.9427 4.22412 0
1 8 5 35.9681 2.70312 0
1 8 6 378.475 11.9864 0
1 8 6 378.248 10.2015 0
1 8 7 109.602 5.65279 0
1 8 7 116.935 5.71614 0
1 8 8 32.0217 8.56757 0
1 8 8 23.2497 1.8541 0
1 8 9 0.69036 2.44889 0
1 8 9 1.19182 1.35324 0
1 8 10 269.01 9.00898 0
1 8 10 268.341 8.96306 0
1 8 11 179.595 12.2667 0
1 8 11 157.474 6.23502 0
1 8 12 60.8299 6.69947 0
1 8 12 58.3538 2.84048 0
1 8 13 7.58562 3.26278 0
1 8 13 9.38941 2.55324 0
1 8 14 78.3595 4.20929 0
1 8 14 90.2594 4.2281 0
1 8 15 95.4815 5.60346 0
1 8 15 89.1289 4.17602 0
1 8 16 16.6662 5.94438 0
1 8 16 19.9856 2.57248 0
1 8 17 1.23957 0.80685 0
1 8 17 3.3874 1.71962 0
1 8 18 36.5202 2.30777 0
1 8 18 37.3518 1.87387 0
1 8 19 35.8786 2.31372 0
1 8 19 34.6857 1.91542 0
1 8 20 34.8195 4.13224 0
1 9 -12 1.7495 1.60005 0
-1 -9 12 0.42442 0.64759 0
1 9 -11 2.24743 1.83631 0
-1 -9 11 4.92916 2.40344 0
-1 -9 11 2.68806 2.26219 0
1 9 -10 72.0903 3.79704 0
-1 -9 10 71.3246 4.00402 0
-1 -9 10 74.4384 3.21835 0
1 9 -9 0.92324 2.16283 0
-1 -9 9 1.12008 1.27708 0
1 9 -8 6.62376 3.0687 0
-1 -9 8 7.08789 4.53269 0
1 9 -7 1.30564 1.805 0
-1 -9 7 1.54491 1.89603 0
1 9 -6 120.394 5.70113 0
-1 -9 6 122.119 5.59439 0
1 9 -5 28.8765 5.01775 0
-1 -9 5 31.4256 3.33942 0
1 9 -4 46.5773 11.0701 0
-1 -9 4 45.8593 2.6573 0
1 9 -3 18.8415 4.97177 0
-1 -9 3 15.489 7.24792 0
1 9 -2 409.064 7.52793 0
-1 -9 2 400.016 12.6878 0
1 9 -1 9.17815 4.4512 0
1 9 0 251.852 9.11645 0
1 9 0 273.016 8.8506 0
1 9 1 8.75656 5.13115 0
1 9 1 10.6396 2.99774 0
1 9 2 141.494 7.29206 0
1 9 2 140.601 7.22608 0
1 9 3 2.53718 1.68215 0
1 9 3 5.37798 1.67866 0
1 9 4 101.654 11.7946 0
1 9 4 88.693 4.20541 0
1 9 5 7.25613 3.0817 0
1 9 5 14.2641 1.34092 0
1 9 6 186.773 7.83334 0
1 9 6 206.48 6.76562 0
1 9 7 16.8112 4.55144 0
1 9 7 15.2907 3.8558 0
1 9 8 194.026 11.421 0
1 9 8 173.561 6.0165 0
1 9 9 5.58767 2.62692 0
1 9 9 10.3923 3.21345 0
1 9 10 148.667 6.11433 0
1 9 10 143.744 5.43596 0
1 9 11 27.5211 8.286 0
1 9 11 35.4258 2.47969 0
1 9 12 147.563 6.78141 0
1 9 12 153.523 6.63109 0
1 9 13 1.02176 0.87618 0
1 9 13 0.43147 0.71206 0
1 9 14 32.2805 2.11869 0
1 9 14 33.0496 1.80704 0
1 9 15 8.98537 2.9506 0
1 9 15 10.271 4.13847 0
1 9 16 97.437 4.9851 0
1 9 16 94.5606 3.34982 0
1 9 17 1.34553 1.23806 0
1 9 17 0.67062 0.65342 0
1 9 18 8.92338 4.53583 0
1 9 18 14.7613 1.5783 0
1 9 19 2.78495 2.36817 0
1 10 -11 1.1933 1.39571 0
-1 -10 11 0.46845 1.13739 0
-1 -10 11 0.16193 0.59954 0
1 10 -10 11.2684 7.86939 0
-1 -10 10 12.563 5.68187 0
-1 -10 10 16.3415 1.65383 0
1 10 -9 31.4386 4.85642 0
-1 -10 9 44.389 3.32731 0
1 10 -8 13.5108 8.49518 0
-1 -10 8 13.1749 5.12085 0
1 10 -7 3.75207 3.27194 0
-1 -10 7 6.1504 3.04475 0
1 10 -6 21.787 2.19633 0
-1 -10 6 20.619 6.90484 0
1 10 -5 58.678 3.46909 0
-1 -10 5 64.2076 5.35063 0
1 10 -4 92.1898 8.77821 0
-1 -10 4 92.0514 5.37985 0
1 10 -3 27.0855 2.64438 0
-1 -10 3 26.1644 2.21564 0
1 10 -2 63.0543 4.93354 0
-1 -10 2 61.3345 5.94658 0
1 10 -1 64.3506 4.36742 0
-1 -10 1 63.184 3.9043 0
1 10 0 68.4919 4.35676 0
-1 -10 0 66.9799 3.79199 0
1 10 1 27.7007 10.775 0
1 10 1 25.9196 1.79028 0
1 10 2 81.4045 4.38582 0
1 10 2 82.4043 3.27863 0
1 10 3 108.245 5.74858 0
1 10 3 116.125 5.00225 0
1 10 4 181.808 5.44981 0
1 10 4 188.378 6.30414 0
1 10 5 9.38389 4.27322 0
1 10 5 7.46969 2.30073 0
1 10 6 23.4239 5.85522 0
1 10 6 22.9018 1.77265 0
1 10 7 14.7053 5.0612 0
1 10 7 15.9489 3.89231 0
1 10 8 222.246 17.0243 0
1 10 8 238.209 8.93887 0
1 10 9 0.59571 0.95943 0
1 10 9 -0.10597 0.93366 0
1 10 10 1.29847 1.45351 0
1 10 10 0.3876 0.48174 0
1 10 11 -1.90349 1.96747 0
1 10 11 0.39456 0.94641 0
1 10 12 113.23 6.12407 0
1 10 12 105.88 5.16694 0
1 10 13 1.29425 1.92422 0
1 10 13 2.12277 0.97559 0
1 10 14 1.00356 1.46079 0
1 10 14 0.73625 0.41268 0
1 10 15 1.25533 1.44587 0
1 10 15 3.02848 1.02668 0
1 10 16 106.537 5.59823 0
1 10 16 117.454 4.62955 0
1 10 17 0.9184 1.15816 0
1 10 17 0.27837 0.84932 0
1 10 18 -0.09651 1.28556 0
1 11 -9 45.9212 3.85198 0
-1 -11 9 56.1369 4.51919 0
-1 -11 9 56.3988 4.13128 0
1 11 -8 9.83403 6.09121 0
-1 -11 8 8.42337 5.22655 0
1 11 -7 19.4049 7.78953 0
-1 -11 7 25.7578 3.12557 0
1 11 -6 0.93972 1.9104 0
-1 -11 6 0.87781 0.85128 0
1 11 -5 51.3329 3.08153 0
-1 -11 5 56.0022 4.39858 0
1 11 -4 50.7276 3.43985 0
-1 -11 4 42.9089 3.05711 0
1 11 -3 47.0453 2.59997 0
-1 -11 3 51.7365 5.81922 0
1 11 -2 -0.48127 1.55272 0
-1 -11 2 0.51166 1.2437 0
1 11 -1 18.7024 2.23472 0
-1 -11 1 18.3798 7.47941 0
1 11 0 24.4396 4.66972 0
-1 -11 0 24.3517 8.96694 0
1 11 1 144.764 7.86891 0
-1 -11 -1 146.026 10.3285 0
1 11 2 9.64383 5.44609 0
1 11 2 10.6068 2.85337 0
-1 -11 -2 10.552 6.00853 0
1 11 3 55.1366 5.60018 0
1 11 3 54.4538 3.06821 0
1 11 4 81.8966 12.344 0
1 11 4 82.5502 4.74707 0
1 11 5 76.7586 4.44589 0
1 11 5 88.9041 4.05125 0
1 11 6 13.762 5.7132 0
1 11 6 10.7126 2.92087 0
1 11 7 11.2723 3.5642 0
1 11 7 11.3181 4.46739 0
1 11 8 75.6868 4.19968 0
1 11 8 94.0829 4.16266 0
1 11 9 101.709 8.04687 0
1 11 9 105.467 5.17778 0
1 11 10 11.1817 5.00564 0
1 11 10 14.4217 4.18434 0
1 11 11 3.73447 1.5824 0
1 11 11 4.82511 1.54589 0
1 11 12 52.0623 3.41701 0
1 11 12 56.39 2.4545 0
1 11 13 56.6128 6.28401 0
1 11 13 56.8853 2.06818 0
1 11 14 18.5907 1.85229 0
1 11 14 21.7683 2.83858 0
-1 -11 -14 22.0832 1.55488 0
1 11 15 -0.1257 1.43923 0
1 11 15 0.19064 0.67667 0
-1 -11 -15 0.35405 0.75209 0
1 11 16 32.8946 2.61619 0
1 11 17 49.9695 6.2603 0
1 12 -7 57.367 4.47424 0
-1 -12 7 64.6482 3.86796 0
1 12 -6 3.16048 1.64704 0
1 12 -5 6.91619 3.04122 0
-1 -12 5 5.85487 5.18456 0
1 12 -4 2.14393 2.37525 0
-1 -12 4 2.50161 1.51639 0
1 12 -3 103.071 4.32572 0
-1 -12 3 102.254 4.36326 0
1 12 -2 4.41774 2.03773 0
-1 -12 2 4.00974 2.75627 0
1 12 -1 8.24359 2.67516 0
-1 -12 1 5.89557 2.6566 0
1 12 0 8.12402 2.73168 0
-1 -12 0 6.54751 4.5236 0
1 12 1 104.875 5.74086 0
-1 -12 -1 108.585 6.09695 0
1 12 2 1.41752 1.54174 0
-1 -12 -2 1.81696 1.44918 0
1 12 3 1.96867 1.409 0
1 12 3 0.93033 0.81251 0
-1 -12 -3 1.05552 1.03343 0
1 12 4 6.58271 4.31213 0
1 12 4 10.1413 2.85915 0
-1 -12 -4 7.02352 2.48483 0
1 12 5 143.417 7.64069 0
1 12 5 158.01 7.3628 0
-1 -12 -5 154.294 8.02186 0
1 12 6 4.15302 2.9626 0
1 12 6 4.80567 2.25617 0
-1 -12 -6 5.39233 2.7035 0
1 12 7 -0.77645 2.57364 0
1 12 7 1.21426 1.08122 0
1 12 8 0.47192 2.21661 0
1 12 8 -0.19306 0.70788 0
1 12 9 148.292 7.62668 0
1 12 9 146.666 8.04545 0
1 12 10 15.3022 6.03896 0
1 12 10 16.9841 2.35471 0
1 12 11 0.59584 1.55766 0
1 12 11 0.28341 0.37491 0
-1 -12 -11 0.79892 0.88148 0
1 12 12 10.2359 4.25015 0
-1 -12 -12 8.48729 3.55156 0
1 12 13 76.4562 6.76748 0
-1 -12 -13 71.5809 3.6103 0
1 12 14 11.8598 6.67555 0
-1 -12 -14 12.8695 3.74349 0
1 12 15 6.87123 4.07365 0
1 13 -4 1.1559 1.389 0
-1 -13 4 1.80127 1.71651 0
1 13 -3 34.0368 3.32555 0
-1 -13 3 27.1021 2.57001 0
1 13 -2 6.16909 3.55893 0
-1 -13 2 2.7995 2.7486 0
1 13 -1 -1.01501 1.43601 0
-1 -13 1 -0.26261 1.23801 0
1 13 0 2.34762 1.87767 0
-1 -13 0 0.48058 1.50979 0
1 13 1 80.8777 4.97852 0
-1 -13 -1 84.1204 4.65858 0
1 13 2 23.6178 2.16637 0
-1 -13 -2 28.1847 4.25615 0
1 13 3 14.5849 5.96935 0
-1 -13 -3 18.7879 3.79507 0
1 13 4 1.64051 1.77334 0
1 13 4 1.27078 0.77265 0
-1 -13 -4 1.47668 1.5918 0
1 13 5 71.4843 4.09854 0
1 13 5 69.1859 3.5472 0
-1 -13 -5 67.6802 3.29699 0
1 13 6 10.8872 3.45036 0
1 13 6 9.10683 4.01071 0
-1 -13 -6 8.90607 3.91805 0
1 13 7 16.128 9.25195 0
-1 -13 -7 18.8981 2.25113 0
1 13 8 3.04925 2.40651 0
-1 -13 -8 2.93672 2.37405 0
1 13 9 81.929 4.73368 0
-1 -13 -9 73.5285 3.71156 0
1 13 10 2.71184 1.91436 0
-1 -13 -10 3.65963 2.71602 0
1 13 11 23.3767 5.62387 0
-1 -13 -11 27.0015 2.18876 0
1 13 12 0.64584 0.72732 0
-1 -13 -12 0.3875 1.16848 0
1 13 13 23.2846 4.11666 0
-1 -13 -13 21.6762 2.94461 0
1 14 0 2.96509 3.3183 0
-1 -14 0 2.04864 2.03146 0
1 14 1 10.5087 7.29214 0
-1 -14 -1 16.8974 1.85163 0
1 14 2 54.5449 4.41572 0
-1 -14 -2 63.4333 3.99181 0
1 14 3 41.2814 3.72964 0
-1 -14 -3 42.3721 3.54157 0
1 14 4 9.57053 5.94726 0
-1 -14 -4 6.90829 5.01209 0
1 14 5 10.0144 4.81391 0
-1 -14 -5 12.0248 6.38202 0
1 14 6 13.206 6.63379 0
-1 -14 -6 18.637 1.85675 0
1 14 7 27.9132 4.39102 0
-1 -14 -7 25.3323 2.40103 0
1 14 8 0.91021 1.47786 0
-1 -14 -8 0.45021 1.64229 0
1 14 9 4.88867 3.26942 0
-1 -14 -9 5.61135 4.23363 0
1 14 10 26.6111 5.91886 0
-1 -14 -10 26.7081 2.94707 0
-2 13 10 4.60018 2.09393 0
2 -13 -10 3.01358 2.45875 0
-2 13 9 6.55289 3.87832 0
2 -13 -9 7.58247 3.10227 0
-2 13 8 17.003 9.13915 0
2 -13 -8 17.1091 7.41193 0
-2 13 7 61.7258 10.1849 0
2 -13 -7 54.116 4.18174 0
-2 13 6 10.188 6.19178 0
2 -13 -6 8.49164 5.44788 0
-2 13 5 1.61159 1.93391 0
2 -13 -5 1.08581 0.99919 0
-2 13 4 20.2099 10.1705 0
2 -13 -4 29.7271 2.13733 0
-2 13 3 31.1288 2.7767 0
2 -13 -3 32.114 2.64601 0
-2 13 2 22.532 2.22524 0
2 -13 -2 21.0798 1.97155 0
-2 13 1 -0.20169 1.58582 0
2 -13 -1 0.40535 0.61693 0
-2 13 0 7.00072 3.60472 0
2 -13 0 5.09303 4.0241 0
-2 13 -1 28.3157 2.63152 0
2 -13 1 33.3563 3.55025 0
-2 12 13 0.85106 1.18957 0
2 -12 -13 0.17595 0.6426 0
-2 12 12 0.99385 1.24626 0
2 -12 -12 0.14395 0.93469 0
-2 12 11 97.05 6.80928 0
2 -12 -11 78.0096 7.48271 0
-2 12 10 0.57217 2.21587 0
2 -12 -10 1.22549 1.31288 0
-2 12 9 5.09096 5.44199 0
2 -12 -9 3.44858 2.00192 0
-2 12 8 1.80567 2.2392 0
2 -12 -8 3.44442 2.51449 0
-2 12 7 102.702 4.63612 0
2 -12 -7 110.304 4.17009 0
-2 12 6 1.92036 2.83502 0
2 -12 -6 1.64951 0.82586 0
-2 12 5 13.9856 5.31188 0
2 -12 -5 6.52481 7.40045 0
-2 12 4 2.57696 1.79111 0
2 -12 -4 4.74644 3.00011 0
-2 12 3 77.4592 6.20067 0
2 -12 -3 73.1473 3.48927 0
-2 12 2 10.8463 3.68805 0
2 -12 -2 9.05007 3.46575 0
-2 12 1 14.143 8.1497 0
2 -12 -1 22.4403 3.56604 0
-2 12 0 1.68045 2.5109 0
2 -12 0 1.71089 1.78698 0
-2 12 -1 24.0099 8.77899 0
2 -12 1 35.1032 3.33482 0
-2 12 -2 4.70703 2.44649 0
2 -12 2 5.51765 2.86851 0
-2 12 -3 11.5261 4.66259 0
2 -12 3 10.9106 6.42533 0
-2 12 -4 -0.45785 1.35571 0
2 -12 4 -0.22397 1.26454 0
-2 12 -5 20.5033 2.32878 0
2 -12 5 16.0592 6.55367 0
-2 11 15 85.6094 4.88107 0
-2 11 14 13.2751 1.70224 0
-2 11 13 16.7768 1.73046 0
2 -11 -13 12.8584 5.99866 0
-2 11 12 1.0253 1.16044 0
2 -11 -12 0.6006 0.87087 0
-2 11 11 71.6585 6.22569 0
2 -11 -11 73.9846 3.36847 0
-2 11 10 15.374 11.3281 0
2 -11 -10 14.9464 4.27561 0
-2 11 9 49.1359 6.59557 0
2 -11 -9 52.1843 5.00844 0
-2 11 8 2.07826 2.12588 0
2 -11 -8 0.51659 1.67118 0
-2 11 7 54.2202 3.24401 0
2 -11 -7 68.175 3.60014 0
-2 11 6 16.1938 5.81456 0
2 -11 -6 11.3639 5.04599 0
-2 11 5 138.061 7.69084 0
2 -11 -5 147.246 7.66359 0
-2 11 4 3.96688 3.17549 0
2 -11 -4 2.33433 1.73458 0
-2 11 3 42.397 4.19691 0
2 -11 -3 41.6929 3.0575 0
-2 11 2 1.13614 1.67326 0
2 -11 -2 2.05445 0.94554 0
-2 11 1 103.314 5.99133 0
2 -11 -1 98.3764 4.43956 0
-2 11 0 1.34401 1.30533 0
2 -11 0 -0.17404 1.65583 0
-2 11 -1 15.3144 5.66901 0
2 -11 1 16.3945 4.17816 0
-2 11 -2 0.6783 0.9919 0
2 -11 2 1.194 1.25207 0
-2 11 -3 60.5482 3.09516 0
2 -11 3 61.2438 7.79907 0
-2 11 -4 -0.20279 1.4063 0
2 -11 4 0.8861 0.74503 0
2 -11 4 0.54444 0.7318 0
-2 11 -5 2.57208 2.13877 0
2 -11 5 4.3736 1.86769 0
2 -11 5 1.85488 1.06725 0
-2 11 -6 0.77423 1.58759 0
2 -11 6 0.64656 0.94308 0
2 -11 6 1.06045 1.12016 0
-2 11 -7 94.0205 5.3543 0
2 -11 7 93.1641 4.87656 0
2 -11 7 86.6858 4.86467 0
-2 11 -8 0.68029 1.57018 0
2 -11 8 0.15435 0.73745 0
2 -11 8 -0.09337 0.89752 0
-2 10 16 1.32298 1.14462 0
-2 10 15 0.57042 0.88845 0
-2 10 14 69.2929 4.93079 0
-2 10 13 24.0042 3.17003 0
2 -10 -13 13.6899 6.2507 0
-2 10 12 9.31855 5.7006 0
2 -10 -12 9.91922 3.33269 0
-2 10 11 9.29259 4.12229 0
2 -10 -11 7.73982 2.83633 0
-2 10 10 66.8613 8.25669 0
2 -10 -10 61.612 4.12586 0
-2 10 9 42.1777 2.8467 0
2 -10 -9 43.6843 3.42065 0
-2 10 8 32.0889 3.31074 0
2 -10 -8 32.01 3.6055 0
-2 10 7 7.52014 4.05345 0
2 -10 -7 3.27021 2.32548 0
-2 10 6 107.039 6.62147 0
2 -10 -6 105.785 5.51469 0
-2 10 5 101.305 6.96286 0
2 -10 -5 99.8657 6.51069 0
-2 10 4 50.3888 3.0145 0
2 -10 -4 62.092 5.85299 0
-2 10 3 1.52213 1.77116 0
2 -10 -3 2.74488 1.8495 0
-2 10 2 29.5885 9.9678 0
2 -10 -2 28.4376 2.52748 0
-2 10 1 153.122 10.5239 0
2 -10 -1 150.851 8.0261 0
-2 10 0 28.6378 2.44449 0
2 -10 0 22.808 3.77687 0
-2 10 -1 1.09551 1.25544 0
2 -10 1 1.28743 0.84496 0
-2 10 -2 24.8342 8.73672 0
2 -10 2 25.6145 7.6339 0
-2 10 -3 79.3038 4.83831 0
2 -10 3 81.5713 4.68917 0
-2 10 -4 19.1396 7.10543 0
2 -10 4 20.6307 2.55864 0
2 -10 4 15.7289 6.84344 0
-2 10 -5 9.8273 4.50566 0
2 -10 5 10.3737 4.72562 0
2 -10 5 10.7237 4.12487 0
-2 10 -6 2.56517 1.72608 0
2 -10 6 0.68861 1.32021 0
2 -10 6 1.36581 1.46386 0
-2 10 -7 71.9685 3.37826 0
2 -10 7 74.9318 3.49899 0
2 -10 7 73.0045 4.26288 0
-2 10 -8 7.69115 6.70926 0
2 -10 8 6.12475 3.58696 0
2 -10 8 8.13269 4.04322 0
-2 10 -9 10.1959 5.76506 0
2 -10 9 19.0273 2.54595 0
2 -10 9 14.2348 2.8333 0
-2 10 -10 0.85198 0.69847 0
2 -10 10 1.01317 0.72917 0
2 -10 10 1.47562 1.28181 0
-2 9 17 0.8959 0.86228 0
-2 9 16 89.7328 6.59766 0
-2 9 15 0.47539 1.20491 0
-2 9 14 72.9127 3.65928 0
-2 9 13 9.81953 3.7546 0
2 -9 -13 8.15215 2.82854 0
-2 9 12 87.7372 5.00904 0
2 -9 -12 95.7913 4.39702 0
-2 9 11 0.91369 1.24095 0
2 -9 -11 1.76979 0.71996 0
-2 9 10 91.6559 9.73277 0
2 -9 -10 85.3028 4.15639 0
-2 9 9 14.4262 4.1141 0
-2 9 9 16.4507 2.23377 0
2 -9 -9 15.8117 6.01422 0
-2 9 8 241.196 9.79002 0
-2 9 8 244.32 8.59356 0
2 -9 -8 240.922 9.56005 0
-2 9 7 -0.38973 2.11525 0
-2 9 7 0.60988 0.45518 0
2 -9 -7 0.72591 1.28224 0
-2 9 6 31.7816 9.03459 0
-2 9 6 20.9716 3.18725 0
2 -9 -6 21.929 6.74413 0
-2 9 5 34.0818 9.36373 0
-2 9 5 25.4983 2.08595 0
2 -9 -5 24.033 9.79382 0
-2 9 4 213.359 8.11458 0
-2 9 4 202.232 6.08128 0
2 -9 -4 213.868 7.71164 0
-2 9 3 17.0192 5.27806 0
2 -9 -3 11.7567 4.93282 0
-2 9 2 17.249 6.48311 0
2 -9 -2 13.3759 5.43104 0
-2 9 1 49.8967 13.2302 0
2 -9 -1 51.3533 12.8022 0
-2 9 0 138.294 6.24203 0
2 -9 0 137.543 6.3606 0
-2 9 -1 -0.63949 2.36373 0
2 -9 1 0.89349 0.90545 0
-2 9 -2 36.9048 2.64525 0
2 -9 2 36.9516 2.5721 0
-2 9 -3 56.3059 4.00353 0
2 -9 3 65.3616 4.58483 0
-2 9 -4 195.021 9.95175 0
2 -9 4 181.729 9.50914 0
-2 9 -5 13.0992 5.03145 0
2 -9 5 12.6579 5.40934 0
2 -9 5 11.8889 6.26553 0
-2 9 -6 -1.6313 1.94287 0
2 -9 6 0.72193 1.60597 0
2 -9 6 0.76752 1.2716 0
-2 9 -7 35.3328 12.8157 0
2 -9 7 37.2716 2.69498 0
2 -9 7 33.1371 2.8719 0
-2 9 -8 31.897 3.53716 0
2 -9 8 30.6114 2.15658 0
2 -9 8 33.127 2.25155 0
-2 9 -9 50.0236 3.21376 0
2 -9 9 42.7971 3.1695 0
2 -9 9 44.5655 2.45459 0
-2 9 -10 2.72634 1.67078 0
2 -9 10 1.57386 1.60547 0
2 -9 10 1.1293 0.85751 0
-2 9 -11 7.08319 2.64919 0
2 -9 11 3.49357 2.72323 0
2 -9 11 4.6741 3.95578 0
-2 9 -12 40.9538 3.45288 0
2 -9 12 38.8597 3.75313 0
2 -9 12 34.2419 2.77637 0
-2 8 18 4.24661 2.73924 0
-2 8 17 31.4311 2.2198 0
-2 8 16 129.592 5.66698 0
-2 8 15 3.92223 2.15584 0
-2 8 14 6.46391 3.32967 0
-2 8 13 8.70314 4.15073 0
-2 8 13 11.1261 2.23243 0
2 -8 -13 10.2635 4.32582 0
-2 8 12 220.359 10.7658 0
-2 8 12 218.651 9.73258 0
2 -8 -12 230.184 10.5298 0
-2 8 11 17.2992 6.55596 0
-2 8 11 14.121 3.38345 0
2 -8 -11 11.8549 4.35544 0
-2 8 10 2.44416 1.18208 0
-2 8 10 2.32862 0.70807 0
2 -8 -10 1.38058 0.73177 0
-2 8 9 14.4653 4.72762 0
-2 8 9 16.6971 1.5595 0
2 -8 -9 14.0048 1.72834 0
-2 8 8 391.928 14.8962 0
-2 8 8 380.345 10.8116 0
2 -8 -8 362.498 11.3389 0
-2 8 7 0.2785 1.64151 0
-2 8 7 0.84533 0.91741 0
2 -8 -7 0.29488 0.40301 0
2 -8 -7 1.35973 1.4482 0
-2 8 6 20.161 6.04392 0
-2 8 6 15.7054 1.58502 0
2 -8 -6 8.92454 3.57386 0
2 -8 -6 18.1082 5.74778 0
-2 8 5 8.83304 4.45776 0
-2 8 5 6.68493 2.55711 0
2 -8 -5 4.24123 1.81473 0
2 -8 -5 6.54057 3.61914 0
-2 8 4 232.183 7.95425 0
-2 8 4 259.788 7.04759 0
2 -8 -4 252.458 6.88369 0
2 -8 -4 254.512 10.3569 0
-2 8 3 -0.04215 3.64598 0
2 -8 -3 0.4496 0.52336 0
2 -8 -3 0.90272 1.44013 0
-2 8 2 7.27539 4.34347 0
2 -8 -2 2.90384 1.54848 0
2 -8 -2 6.35895 2.19456 0
-2 8 1 1.67561 2.81127 0
2 -8 -1 5.86987 3.11782 0
-2 8 0 283.163 20.0833 0
2 -8 0 270.433 8.83899 0
-2 8 -1 -0.19475 3.49208 0
2 -8 1 2.27321 1.7494 0
-2 8 -2 50.9996 12.1854 0
2 -8 2 44.1406 8.43404 0
-2 8 -3 -0.81066 2.8405 0
2 -8 3 1.60233 1.064 0
-2 8 -4 112.392 5.7836 0
2 -8 4 106.183 5.2542 0
-2 8 -5 4.49439 3.10946 0
2 -8 5 3.86836 1.22547 0
2 -8 5 2.49819 0.87112 0
-2 8 -6 32.4648 8.59581 0
2 -8 6 25.0978 3.27202 0
2 -8 6 28.5089 3.05067 0
-2 8 -7 3.85987 2.24304 0
2 -8 7 2.69651 0.87184 0
2 -8 7 2.58315 2.45358 0
-2 8 -8 66.2496 4.24118 0
2 -8 8 69.0044 3.70303 0
2 -8 8 75.0856 4.80497 0
-2 8 -9 13.931 6.5157 0
2 -8 9 17.4538 1.71402 0
2 -8 9 14.32 1.67755 0
-2 8 -10 49.0527 3.11467 0
2 -8 10 49.8256 3.01547 0
2 -8 10 49.731 8.0497 0
-2 8 -11 2.0227 1.56469 0
2 -8 11 0.50184 1.41786 0
2 -8 11 0.16217 0.50622 0
-2 8 -12 55.872 5.05479 0
2 -8 12 50.1004 2.94794 0
2 -8 12 51.2813 2.92101 0
-2 8 -13 15.9563 2.29262 0
2 -8 13 20.6296 2.24367 0
2 -8 13 20.1382 1.84623 0
-2 7 19 27.2574 2.53782 0
-2 7 18 -1.17738 1.33122 0
-2 7 17 36.0548 2.0561 0
-2 7 16 74.6586 5.0146 0
-2 7 16 72.8963 2.97555 0
-2 7 15 72.3545 6.01121 0
-2 7 15 56.1054 2.02655 0
-2 7 14 2.16625 1.2297 0
-2 7 14 1.38017 0.78348 0
-2 7 13 36.391 3.03763 0
-2 7 13 39.1367 2.20593 0
2 -7 -13 41.8356 3.42869 0
-2 7 12 115.96 5.06464 0
-2 7 12 121.685 4.56982 0
2 -7 -12 125.408 4.73573 0
-2 7 11 114.815 5.2366 0
-2 7 11 126.906 5.0721 0
2 -7 -11 130.379 5.27925 0
-2 7 10 41.6605 9.86183 0
-2 7 10 37.9591 1.43073 0
2 -7 -10 41.9639 5.71654 0
-2 7 9 9.80162 3.03391 0
-2 7 9 6.90835 1.87192 0
2 -7 -9 6.02095 1.73462 0
2 -7 -9 6.30558 2.22018 0
-2 7 8 113.425 5.70632 0
-2 7 8 118.087 4.53912 0
2 -7 -8 117.586 4.67231 0
2 -7 -8 122.749 5.72384 0
-2 7 7 140.961 11.8348 0
-2 7 7 128.022 4.85379 0
2 -7 -7 124.47 4.86841 0
2 -7 -7 128.362 5.92104 0
-2 7 6 197.461 7.22746 0
-2 7 6 185.473 5.21499 0
2 -7 -6 181.285 5.21878 0
2 -7 -6 173.925 8.42888 0
-2 7 5 4.35885 2.87208 0
-2 7 5 2.29454 1.09264 0
2 -7 -5 1.92383 1.32287 0
2 -7 -5 0.89753 1.20581 0
-2 7 4 179.557 9.03214 0
-2 7 4 169.562 7.25037 0
2 -7 -4 163.799 2.74027 0
2 -7 -4 160.057 5.19815 0
-2 7 3 83.8559 7.1231 0
-2 7 3 89.8674 4.47852 0
2 -7 -3 76.9776 3.66789 0
2 -7 -3 79.6302 4.85574 0
-2 7 2 56.646 6.62331 0
2 -7 -2 59.9275 3.29758 0
2 -7 -2 62.5052 4.0898 0
-2 7 1 4.13362 4.29369 0
2 -7 -1 0.5082 0.78031 0
2 -7 -1 -0.52821 2.41295 0
-2 7 0 174.055 9.22468 0
2 -7 0 162.836 5.15823 0
-2 7 -1 73.3118 6.91665 0
2 -7 1 63.9481 3.70535 0
-2 7 -2 146.592 6.27491 0
2 -7 2 139.849 5.75543 0
-2 7 -3 31.649 9.87616 0
2 -7 3 26.9213 2.69284 0
-2 7 -4 43.6032 5.24519 0
2 -7 4 48.4802 6.80774 0
-2 7 -5 63.8989 10.2753 0
2 -7 5 72.0291 3.48533 0
2 -7 5 60.177 3.46234 0
-2 7 -6 154.501 9.72915 0
2 -7 6 147.46 6.41197 0
2 -7 6 148.543 6.53413 0
-2 7 -7 -1.27954 2.04785 0
2 -7 7 -0.22721 1.5486 0
2 -7 7 1.04037 1.15098 0
-2 7 -8 22.1749 7.63501 0
2 -7 8 24.3539 2.00786 0
2 -7 8 27.1489 1.93656 0
-2 7 -9 23.0166 7.00203 0
2 -7 9 20.1298 1.99981 0
2 -7 9 17.4957 6.19834 0
-2 7 -10 123.176 6.60849 0
2 -7 10 111.435 8.44671 0
2 -7 10 119.966 6.2059 0
-2 7 -11 0.37952 0.68266 0
2 -7 11 -0.30552 1.34383 0
2 -7 11 0.64447 1.03831 0
-2 7 -12 11.3576 5.32833 0
2 -7 12 9.99625 6.18933 0
2 -7 12 9.7145 4.64989 0
-2 7 -13 -0.18929 1.10385 0
2 -7 13 2.0418 1.57814 0
2 -7 13 0.37858 0.35732 0
-2 7 -14 90.6623 6.19358 0
2 -7 14 88.4811 6.07551 0
-2 6 19 90.6411 6.16586 0
-2 6 18 1.64014 1.47655 0
-2 6 18 0.92417 1.24498 0
-2 6 17 1.45988 0.94011 0
-2 6 17 1.50508 0.85649 0
-2 6 16 0 1.34377 0
-2 6 16 -0.01923 0.76444 0
-2 6 15 216.479 10.1474 0
-2 6 15 203.025 9.18854 0
-2 6 14 15.761 6.50708 0
-2 6 14 9.34982 3.4562 0
-2 6 13 -0.27693 2.13672 0
-2 6 13 0.73459 0.88326 0
2 -6 -13 0.55677 0.78414 0
-2 6 12 64.2375 3.03068 0
-2 6 12 67.9874 3.12904 0
2 -6 -12 73.1113 4.03271 0
-2 6 11 411.947 13.1218 0
-2 6 11 393.205 11.4751 0
2 -6 -11 414.987 12.2529 0
-2 6 10 2.73587 2.6737 0
-2 6 10 1.95864 2.50443 0
2 -6 -10 3.66856 1.12613 0
-2 6 9 20.3221 5.14102 0
-2 6 9 23.835 4.03361 0
2 -6 -9 21.7118 2.33583 0
2 -6 -9 19.4347 2.17815 0
-2 6 8 1.6424 1.3939 0
-2 6 8 1.2813 1.08717 0
2 -6 -8 0.40381 0.86585 0
2 -6 -8 0.2019 1.65793 0
-2 6 7 389.902 12.7488 0
-2 6 7 379.741 11.1749 0
2 -6 -7 372.359 11.8645 0
2 -6 -7 358.356 13.418 0
-2 6 6 141.604 7.36625 0
-2 6 6 137.923 5.8686 0
2 -6 -6 128.436 5.88543 0
2 -6 -6 137.742 6.76888 0
-2 6 5 92.0532 5.51277 0
-2 6 5 86.3928 4.57442 0
2 -6 -5 80.5846 4.05312 0
2 -6 -5 84.5074 6.6075 0
-2 6 4 9.93168 4.96361 0
-2 6 4 8.07812 3.20808 0
2 -6 -4 5.8993 2.05406 0
2 -6 -4 11.9234 4.33536 0
-2 6 3 540.721 20.151 0
-2 6 3 519.601 18.135 0
2 -6 -3 542.52 18.8735 0
2 -6 -3 535.856 19.8973 0
-2 6 2 140.728 6.43508 0
2 -6 -2 139.638 4.7522 0
2 -6 -2 147.92 6.87746 0
-2 6 1 53.8528 4.53431 0
2 -6 -1 64.1164 3.51659 0
2 -6 -1 62.4762 9.17311 0
-2 6 0 28.6476 12.2046 0
2 -6 0 27.9621 2.98841 0
2 -6 0 26.609 6.58616 0
-2 6 -1 163.469 10.1046 0
2 -6 1 146.898 5.22743 0
2 -6 1 141.088 6.08991 0
-2 6 -2 147.53 8.00926 0
2 -6 2 152.112 7.8946 0
-2 6 -3 151.341 7.83632 0
2 -6 3 147.714 7.38139 0
-2 6 -4 0.46904 2.71573 0
2 -6 4 0.41386 2.04172 0
-2 6 -5 106.586 5.3254 0
2 -6 5 103.303 6.64091 0
2 -6 5 101.089 4.46081 0
-2 6 -6 192.519 7.20005 0
2 -6 6 195.817 6.79965 0
2 -6 6 209.83 7.46346 0
-2 6 -7 28.1574 2.38174 0
2 -6 7 26.8475 3.73801 0
2 -6 7 26.7846 3.79093 0
-2 6 -8 0.93644 1.57947 0
2 -6 8 2.19127 1.773 0
2 -6 8 2.64077 0.8865 0
-2 6 -9 89.6773 5.33688 0
2 -6 9 86.2269 5.01164 0
2 -6 9 84.0537 3.84965 0
-2 6 -10 85.276 5.14635 0
2 -6 10 80.3026 5.14914 0
2 -6 10 94.4669 5.8409 0
-2 6 -11 34.179 2.51147 0
2 -6 11 35.7323 2.86391 0
2 -6 11 31.5291 3.45392 0
-2 6 -12 7.4373 3.27584 0
2 -6 12 6.08195 2.57125 0
2 -6 12 7.23425 3.337 0
-2 6 -13 17.5805 1.5765 0
2 -6 13 13.8047 5.91763 0
2 -6 13 9.82442 4.22622 0
-2 6 -14 116.363 5.05962 0
2 -6 14 112.56 5.33867 0
-2 6 -15 9.02677 5.20276 0
2 -6 15 13.2522 2.47567 0
-2 6 -16 2.92253 1.94772 0
2 -6 16 1.93058 0.91008 0
-2 5 20 1.21931 2.16916 0
-2 5 19 56.6044 4.20207 0
-2 5 19 51.3595 2.58165 0
-2 5 18 26.8664 2.62047 0
-2 5 18 25.3116 1.7579 0
-2 5 17 15.1289 1.67505 0
-2 5 17 10.8087 3.59902 0
-2 5 16 2.37566 0.99753 0
-2 5 15 242.029 11.4646 0
-2 5 15 236.754 10.8483 0
-2 5 14 0.41278 1.45333 0
-2 5 14 0.76536 1.11508 0
-2 5 13 159.625 6.58964 0
-2 5 13 160.002 5.78454 0
2 -5 -13 156.775 4.93084 0
-2 5 12 1.64118 2.92629 0
-2 5 12 1.07146 0.86106 0
2 -5 -12 0.64094 0.40787 0
-2 5 11 57.5677 4.67046 0
-2 5 11 52.925 2.69063 0
2 -5 -11 61.2777 2.70103 0
-2 5 10 39.0075 3.89888 0
-2 5 10 39.2234 2.1375 0
2 -5 -10 40.7763 2.0593 0
-2 5 9 127.703 11.7115 0
-2 5 9 123.174 5.788 0
2 -5 -9 121.126 5.65247 0
2 -5 -9 116.812 5.46113 0
-2 5 8 8.59101 3.07242 0
-2 5 8 6.61558 2.56806 0
2 -5 -8 5.46815 1.48788 0
2 -5 -8 6.31717 2.32008 0
-2 5 7 212.497 8.16562 0
-2 5 7 214.529 8.281 0
2 -5 -7 207.562 6.90083 0
2 -5 -7 208.853 7.56651 0
-2 5 6 59.8277 4.74563 0
-2 5 6 64.8538 3.3196 0
2 -5 -6 64.0122 3.50662 0
2 -5 -6 67.7807 4.28743 0
-2 5 5 494.552 16.2779 0
-2 5 5 505.027 15.2006 0
2 -5 -5 521.643 15.9939 0
2 -5 -5 537.01 17.2769 0
-2 5 4 11.8238 4.25983 0
-2 5 4 10.6648 2.97375 0
2 -5 -4 7.41149 1.86558 0
2 -5 -4 9.6329 4.57499 0
-2 5 3 223.048 8.80693 0
-2 5 3 223.085 7.63824 0
2 -5 -3 216.86 7.19476 0
2 -5 -3 202.231 7.92519 0
-2 5 2 9.62744 7.04743 0
-2 5 2 7.74002 2.48484 0
2 -5 -2 6.93641 2.8655 0
2 -5 -2 8.7551 4.04976 0
-2 5 1 755.175 23.8797 0
2 -5 -1 870.398 21.1154 0
2 -5 -1 875.546 24.5615 0
-2 5 0 -1.66822 3.56582 0
2 -5 0 0.93837 1.28766 0
2 -5 0 -0.03128 1.80897 0
-2 5 -1 121.061 6.55411 0
2 -5 1 113.781 5.11231 0
2 -5 1 108.653 5.87382 0
-2 5 -2 40.9923 4.88877 0
2 -5 2 42.8696 1.83329 0
2 -5 2 43.3927 5.93985 0
-2 5 -3 439.678 16.5042 0
2 -5 3 465.892 18.9773 0
-2 5 -4 0.52696 2.62153 0
2 -5 4 0.80151 1.45247 0
2 -5 4 1.31519 1.49675 0
-2 5 -5 24.2954 8.1488 0
2 -5 5 20.416 2.44506 0
2 -5 5 19.3676 3.28804 0
-2 5 -6 33.4952 2.97956 0
2 -5 6 38.3286 3.07106 0
2 -5 6 36.9362 3.21825 0
-2 5 -7 154.071 6.06363 0
2 -5 7 142.928 5.33213 0
2 -5 7 153.793 6.44237 0
-2 5 -8 26.3568 2.79023 0
2 -5 8 31.18 2.43756 0
2 -5 8 26.2254 1.94313 0
-2 5 -9 16.9365 1.85636 0
2 -5 9 23.8906 7.57074 0
2 -5 9 20.6492 5.72729 0
-2 5 -10 14.7994 1.69725 0
2 -5 10 15.2873 4.7038 0
2 -5 10 17.6241 4.07945 0
-2 5 -11 201.727 8.90633 0
2 -5 11 194.476 8.67195 0
2 -5 11 195.339 8.32611 0
-2 5 -12 32.9311 2.09644 0
2 -5 12 31.5317 2.46624 0
2 -5 12 32.3937 1.99268 0
-2 5 -13 6.8767 2.89506 0
2 -5 13 4.29174 2.40139 0
2 -5 13 6.13495 1.77871 0
-2 5 -14 34.1052 2.16493 0
2 -5 14 31.0979 8.2142 0
2 -5 14 33.3441 1.59179 0
-2 5 -15 48.9489 3.7028 0
2 -5 15 43.4883 3.67231 0
-2 5 -16 21.0356 3.98933 0
2 -5 16 22.8226 2.01095 0
-2 5 -17 0.90356 0.90737 0
2 -5 17 -0.44987 1.37631 0
-2 4 20 2.18942 1.84648 0
-2 4 20 0.83314 0.95133 0
-2 4 19 16.0264 1.73645 0
-2 4 19 13.6654 3.35464 0
-2 4 18 81.7408 5.40183 0
-2 4 18 90.229 3.54197 0
-2 4 17 45.0808 5.59115 0
-2 4 17 38.0949 1.97698 0
-2 4 16 5.55033 2.80962 0
-2 4 16 4.77711 1.81183 0
-2 4 15 54.6707 4.12759 0
-2 4 15 51.0903 5.70879 0
-2 4 14 101.484 10.0974 0
-2 4 14 99.2347 4.22765 0
-2 4 13 269.774 10.973 0
-2 4 13 265.376 8.5318 0
-2 4 12 24.7893 2.84611 0
-2 4 12 27.2293 4.19302 0
2 -4 -12 25.8248 0.83928 0
-2 4 11 30.0481 2.33647 0
-2 4 11 35.1642 5.50791 0
2 -4 -11 34.9737 2.74297 0
-2 4 10 250.658 10.6947 0
-2 4 10 257.13 10.5678 0
2 -4 -10 265.92 10.3297 0
-2 4 9 218.419 9.70161 0
-2 4 9 203.861 8.50529 0
2 -4 -9 211.728 8.64056 0
2 -4 -9 220.503 8.76315 0
-2 4 8 27.0676 8.95912 0
-2 4 8 20.971 6.03767 0
2 -4 -8 21.8497 3.70504 0
2 -4 -8 23.0636 2.49569 0
-2 4 7 26.4625 11.282 0
-2 4 7 24.664 4.42338 0
2 -4 -7 22.9724 1.32215 0
2 -4 -7 22.0537 2.69777 0
-2 4 6 338.191 11.7566 0
-2 4 6 371.209 11.7514 0
2 -4 -6 353.052 11.2158 0
2 -4 -6 362.312 12.1466 0
-2 4 5 770.607 20.0885 0
-2 4 5 825.457 19.945 0
2 -4 -5 754.013 18.3331 0
2 -4 -5 848.273 21.5514 0
-2 4 4 93.9517 8.56214 0
-2 4 4 86.8214 3.39123 0
2 -4 -4 84.0852 4.0347 0
2 -4 -4 86.8909 4.55063 0
-2 4 3 20.7119 8.01927 0
-2 4 3 12.2001 0.83496 0
2 -4 -3 13.3114 2.49288 0
2 -4 -3 18.1229 6.55357 0
-2 4 2 167.218 7.36553 0
-2 4 2 175.203 5.74033 0
2 -4 -2 173.4 5.57475 0
2 -4 -2 166.5 7.24288 0
-2 4 1 367.22 10.0785 0
2 -4 -1 380.762 9.34492 0
2 -4 -1 389.306 8.30933 0
2 -4 -1 369.087 9.57916 0
-2 4 0 44.3172 13.8312 0
2 -4 0 34.4988 2.64671 0
2 -4 0 34.5658 1.83562 0
2 -4 0 30.8519 3.01872 0
-2 4 -1 20.3657 9.35704 0
2 -4 1 19.225 2.80414 0
2 -4 1 16.1298 3.38042 0
-2 4 -2 3.38873 2.80683 0
2 -4 2 2.60716 1.23797 0
2 -4 2 1.11817 2.74408 0
-2 4 -3 703.93 18.6747 0
2 -4 3 819.111 20.7791 0
2 -4 3 704.553 18.6476 0
-2 4 -4 73.4064 4.88157 0
2 -4 4 68.3623 3.32719 0
2 -4 4 69.8455 3.57609 0
-2 4 -5 -1.72084 2.3703 0
2 -4 5 1.03819 2.86332 0
2 -4 5 1.4127 1.53121 0
-2 4 -6 55.6459 6.67027 0
2 -4 6 53.6272 4.32905 0
2 -4 6 53.7244 4.08609 0
-2 4 -7 372.389 12.199 0
2 -4 7 368.594 14.8255 0
2 -4 7 351.699 11.72 0
-2 4 -8 23.8264 8.34733 0
2 -4 8 21.7926 2.94839 0
2 -4 8 22.468 1.68259 0
-2 4 -9 19.8869 3.06773 0
2 -4 9 20.7766 5.54825 0
2 -4 9 20.2356 5.86143 0
-2 4 -10 1.3244 1.64727 0
2 -4 10 3.10016 2.01955 0
2 -4 10 2.38195 1.49243 0
-2 4 -11 235.492 7.94462 0
2 -4 11 248.329 8.50354 0
2 -4 11 232.593 7.88627 0
-2 4 -12 0.8688 0.79953 0
2 -4 12 1.66544 1.1026 0
2 -4 12 1.15744 1.51246 0
-2 4 -13 45.3611 4.69779 0
2 -4 13 45.76 3.55747 0
2 -4 13 41.5333 3.27373 0
-2 4 -14 0.76838 1.15382 0
2 -4 14 1.30551 1.33535 0
2 -4 14 0.5222 0.80568 0
-2 4 -15 29.2805 5.97808 0
2 -4 15 38.9503 5.01575 0
-2 4 -16 1.52389 1.39582 0
2 -4 16 0.89219 1.17874 0
-2 4 -17 17.692 2.42478 0
2 -4 17 16.9147 1.88234 0
-2 4 -18 1.19215 0.75503 0
2 -4 18 0.52606 1.31704 0
-2 3 20 30.8132 2.80156 0
-2 3 20 31.0764 2.69238 0
-2 3 19 0.26773 0.74253 0
-2 3 19 1.33865 0.88685 0
-2 3 18 93.8982 4.61853 0
-2 3 18 90.612 3.62484 0
-2 3 17 10.9422 4.48368 0
-2 3 17 10.8051 2.64835 0
-2 3 16 121.343 8.61257 0
-2 3 16 133.597 6.80349 0
-2 3 15 0.30834 1.34268 0
-2 3 15 0.65873 0.96707 0
-2 3 14 158.975 7.87758 0
-2 3 14 161.002 8.58936 0
-2 3 13 53.753 3.70632 0
-2 3 13 46.6597 2.76442 0
-2 3 12 168.54 7.18234 0
-2 3 12 180.996 7.43061 0
-2 3 11 6.95865 2.10972 0
-2 3 11 8.67543 3.40303 0
-2 3 10 100.342 5.42535 0
-2 3 10 103.757 5.25234 0
2 -3 -10 107.045 4.54379 0
-2 3 9 52.2151 9.07084 0
-2 3 9 41.9882 6.04278 0
2 -3 -9 50.3343 2.58786 0
-2 3 8 534.447 17.3066 0
-2 3 8 527.87 16.5237 0
2 -3 -8 555.915 17.2003 0
2 -3 -8 549.062 16.6397 0
-2 3 7 48.2556 13.7655 0
-2 3 7 35.6999 2.3565 0
2 -3 -7 41.0809 3.7767 0
2 -3 -7 43.3479 4.69195 0
-2 3 6 651.204 17.2954 0
-2 3 6 652.606 16.4916 0
2 -3 -6 668.705 16.5657 0
2 -3 -6 674.97 16.9875 0
-2 3 5 560.774 18.0934 0
-2 3 5 560.787 17.2668 0
2 -3 -5 551.125 16.9729 0
2 -3 -5 556.58 17.5914 0
-2 3 4 634.203 14.2718 0
2 -3 -4 710.154 15.5645 0
-2 3 4 650.781 13.148 0
2 -3 -4 658.582 13.3689 0
2 -3 -4 680.604 15.1813 0
-2 3 3 225.999 7.11065 0
2 -3 -3 229.286 6.79145 0
-2 3 3 222.766 5.33808 0
2 -3 -3 234.407 7.00878 0
-2 3 2 17.6834 6.07146 0
2 -3 -2 11.8984 2.99032 0
-2 3 2 11.9822 0.78251 0
2 -3 -2 17.0686 7.71334 0
-2 3 2 17.7672 6.86795 0
-2 3 1 130.676 4.84088 0
2 -3 -1 138.859 4.97516 0
2 -3 -1 125.234 3.39922 0
2 -3 -1 132.273 7.67475 0
-2 3 1 128.612 4.77022 0
-2 3 0 251.655 8.08004 0
2 -3 0 265.981 7.71468 0
2 -3 0 240.413 6.16191 0
2 -3 0 248.366 7.67253 0
-2 3 0 273.836 8.27678 0
-2 3 -1 76.4394 11.8803 0
2 -3 1 72.0581 4.31264 0
2 -3 1 79.0627 3.04219 0
2 -3 1 81.4937 6.48269 0
-2 3 -1 76.0617 7.85614 0
-2 3 -2 4.85942 4.67455 0
2 -3 2 2.85887 2.75984 0
2 -3 2 1.61761 1.02999 0
2 -3 2 0.37634 1.62421 0
-2 3 -2 1.04319 1.00358 0
-2 3 -3 427.227 10.6596 0
2 -3 3 431.735 10.8722 0
2 -3 3 420.544 9.89685 0
2 -3 3 413.723 10.247 0
-2 3 -3 434.523 10.4283 0
-2 3 -4 871.167 22.2591 0
2 -3 4 835.26 21.2309 0
2 -3 4 875.8 22.5629 0
-2 3 -5 273.64 9.79776 0
2 -3 5 275.926 10.7273 0
2 -3 5 284.275 10.5273 0
-2 3 -6 23.1573 2.06229 0
2 -3 6 20.3546 2.36045 0
2 -3 6 25.1898 3.50838 0
-2 3 -7 200.841 7.54935 0
2 -3 7 204.449 7.96038 0
2 -3 7 189.542 7.16572 0
-2 3 -8 45.8553 3.27417 0
2 -3 8 48.1 4.37541 0
2 -3 8 39.6614 2.81427 0
-2 3 -9 87.9428 4.05007 0
2 -3 9 87.6639 5.20892 0
2 -3 9 87.0118 4.0815 0
-2 3 -10 0.48186 2.12521 0
2 -3 10 -0.02517 2.36255 0
2 -3 10 1.59301 0.89539 0
-2 3 -11 106.502 6.16457 0
2 -3 11 103.484 5.01306 0
2 -3 11 103.18 4.12957 0
-2 3 -12 112.039 5.13458 0
2 -3 12 118.725 5.65663 0
2 -3 12 107.077 4.45897 0
-2 3 -13 155.436 7.22236 0
2 -3 13 148.533 8.82222 0
2 -3 13 156.006 6.81377 0
-2 3 -14 3.07025 2.52532 0
2 -3 14 1.50987 2.75924 0
2 -3 14 3.28557 1.71721 0
-2 3 -15 38.6695 6.95981 0
2 -3 15 35.8313 2.65581 0
-2 3 -16 34.6189 2.06434 0
2 -3 16 35.2107 2.8075 0
-2 3 -17 119.069 5.23202 0
2 -3 17 119.501 6.53628 0
-2 3 -18 4.27773 3.2766 0
2 -3 18 5.72757 3.85893 0
-2 2 20 87.7724 5.98386 0
-2 2 20 82.8689 4.62708 0
-2 2 19 0.60846 1.36956 0
-2 2 19 1.08101 1.65392 0
-2 2 18 19.941 3.61502 0
-2 2 18 14.8979 6.07368 0
-2 2 17 1.35547 2.01632 0
-2 2 17 0.31113 1.08534 0
-2 2 16 218.547 10.8882 0
-2 2 16 218.316 10.1824 0
-2 2 15 0.80187 1.52467 0
-2 2 15 0.21176 1.07857 0
-2 2 14 36.0371 2.47112 0
-2 2 14 35.5738 3.84901 0
-2 2 13 -0.25151 1.21511 0
-2 2 13 1.02565 1.13998 0
-2 2 12 341.612 10.1799 0
-2 2 12 343.594 10.1337 0
-2 2 11 17.7103 4.98812 0
-2 2 11 16.8549 5.32014 0
-2 2 10 2.67185 2.23287 0
-2 2 10 1.35492 0.98348 0
-2 2 9 46.8341 3.96689 0
-2 2 9 44.2478 2.56789 0
-2 2 8 766.139 24.1419 0
-2 2 8 755.297 23.2468 0
2 -2 -8 740.025 21.8916 0
-2 2 7 5.49213 3.12723 0
-2 2 7 6.52712 2.14232 0
2 -2 -7 4.90786 1.1741 0
-2 2 6 7.03192 3.35753 0
-2 2 6 6.30069 2.05961 0
2 -2 -6 5.84977 2.02914 0
-2 2 5 166.698 6.23837 0
-2 2 5 161.913 5.46518 0
-2 2 5 166.189 4.87703 0
2 -2 -5 176.386 5.04224 0
-2 2 4 1035.5 21.856 0
2 -2 -4 1074.86 22.4926 0
-2 2 4 1051.01 21.3255 0
2 -2 -4 1169.75 24.7772 0
-2 2 4 1079.27 22.0045 0
-2 2 3 12.6578 4.65907 0
2 -2 -3 11.7707 4.67398 0
-2 2 3 7.69306 2.27363 0
2 -2 -3 8.70688 4.81562 0
-2 2 3 10.7718 3.49617 0
-2 2 2 68.1448 7.99568 0
2 -2 -2 58.1946 2.6575 0
2 -2 -2 65.719 2.70385 0
-2 2 2 70.0916 4.72788 0
-2 2 1 7.85036 4.1297 0
2 -2 -1 5.522 2.74527 0
2 -2 -1 7.3312 3.80719 0
-2 2 1 7.33906 2.21037 0
-2 2 0 62.4235 3.97276 0
2 -2 0 58.5058 3.46142 0
2 -2 0 59.5678 2.76913 0
2 -2 0 64.3587 3.18608 0
-2 2 0 57.2235 3.25688 0
-2 2 -1 47.1766 8.66256 0
2 -2 1 51.504 8.3921 0
2 -2 1 46.4579 2.17144 0
2 -2 1 42.1537 2.86691 0
-2 2 -1 56.8515 7.34888 0
-2 2 -2 120.254 5.27286 0
2 -2 2 118.031 5.97392 0
2 -2 2 114.839 4.92233 0
2 -2 2 125.072 6.95838 0
-2 2 -2 127.981 5.75017 0
-2 2 -3 251.6 10.6945 0
2 -2 3 253.632 9.03122 0
2 -2 3 233.941 6.90082 0
2 -2 3 245.704 7.53074 0
-2 2 -3 233.517 7.02114 0
-2 2 -4 1167.44 24.2462 0
2 -2 4 1179.79 24.4446 0
2 -2 4 1189.78 24.7554 0
2 -2 4 1141.12 25.5028 0
-2 2 -4 1209.16 25.4829 0
-2 2 -5 63.871 5.16604 0
2 -2 5 63.4867 3.58634 0
2 -2 5 63.8222 4.80618 0
2 -2 5 59.3271 3.58024 0
-2 2 -5 69.0614 3.69003 0
-2 2 -6 209.777 7.74805 0
2 -2 6 229.734 8.60028 0
2 -2 6 214.311 8.00985 0
-2 2 -6 219.608 10.5443 0
-2 2 -7 0.94663 2.78421 0
2 -2 7 1.09344 1.53891 0
2 -2 7 0.27336 1.35667 0
-2 2 -7 1.37692 1.75152 0
-2 2 -8 406.731 15.1876 0
2 -2 8 401.936 15.1462 0
2 -2 8 403.194 14.7546 0
-2 2 -9 66.8292 5.96093 0
2 -2 9 57.5266 4.15702 0
2 -2 9 68.0163 5.15825 0
-2 2 -10 62.7224 4.80946 0
2 -2 10 77.0257 4.62569 0
2 -2 10 66.0304 4.25813 0
-2 2 -11 0.39192 1.48929 0
2 -2 11 1.64249 1.87408 0
2 -2 11 1.25414 1.26839 0
-2 2 -12 285.539 9.47764 0
2 -2 12 278.34 10.5402 0
2 -2 12 290.547 8.85648 0
-2 2 -13 107.908 4.7702 0
2 -2 13 117.306 5.98245 0
2 -2 13 117.006 4.77929 0
-2 2 -14 28.1722 2.09405 0
2 -2 14 27.1548 2.58012 0
2 -2 14 28.3163 1.49494 0
-2 2 -15 0.41963 1.88184 0
2 -2 15 0.60469 1.60295 0
-2 2 -16 47.8512 5.37312 0
2 -2 16 48.6743 3.57242 0
-2 2 -17 48.5177 2.59981 0
2 -2 17 44.1068 2.74137 0
-2 2 -18 31.1919 2.1428 0
2 -2 18 29.6623 8.6821 0
-2 2 -19 0.52208 0.75585 0
2 -2 19 1.32274 1.18638 0
-2 1 20 52.8114 5.51818 0
-2 1 20 56.3834 3.47755 0
-2 1 19 21.3925 2.26734 0
-2 1 19 21.4423 2.12019 0
-2 1 18 11.0943 4.41722 0
-2 1 18 10.2051 3.18254 0
-2 1 17 38.0547 2.4142 0
2 -1 -16 102.456 6.99813 0
-2 1 16 113.707 6.1389 0
2 -1 -15 56.4828 3.7393 0
-2 1 15 66.6219 4.28152 0
2 -1 -14 0.64927 0.45902 0
-2 1 14 0.53452 1.08413 0
2 -1 -13 24.6557 7.28122 0
-2 1 13 18.4412 6.24058 0
2 -1 -12 257.17 8.39892 0
-2 1 12 262.529 8.34903 0
2 -1 -11 132.863 8.02319 0
-2 1 11 129.897 5.28864 0
2 -1 -10 18.0198 5.37746 0
-2 1 10 16.1494 5.65377 0
2 -1 -9 33.9266 3.03423 0
-2 1 9 35.6138 2.84314 0
2 -1 -8 642.005 20.5664 0
-2 1 8 644.31 20.3137 0
2 -1 -7 923.486 23.6202 0
-2 1 7 895.274 22.7568 0
2 -1 -6 470.092 11.4093 0
-2 1 6 469.852 11.1885 0
-2 1 6 477.254 11.5545 0
2 -1 -6 450.309 9.04921 0
-2 1 5 -1.00005 1.87595 0
-2 1 5 -0.83452 2.28287 0
-2 1 5 0.10345 0.75176 0
2 -1 -5 3.26223 2.40702 0
-2 1 5 0.39312 0.42071 0
-2 1 4 792.469 11.1713 0
-2 1 4 755.014 10.9779 0
-2 1 4 731.355 9.46807 0
2 -1 -4 744.17 9.63914 0
-2 1 4 764.578 9.25982 0
-2 1 3 367.683 12.6093 0
-2 1 3 364.557 12.5067 0
-2 1 3 361.556 11.875 0
2 -1 -3 355.011 11.8987 0
-2 1 3 364.099 12.0487 0
-2 1 2 873.211 11.4776 0
2 -1 -2 916.345 11.8648 0
-2 1 2 882.077 10.1181 0
2 -1 -2 864.807 13.7187 0
-2 1 2 868.251 11.0079 0
-2 1 1 81.9855 3.12277 0
2 -1 -1 80.4325 2.65858 0
2 -1 -1 81.9686 1.09719 0
-2 1 1 80.1202 1.05499 0
2 -1 -1 80.6435 3.79797 0
-2 1 1 91.5226 7.84069 0
-2 1 0 247.645 8.91512 0
2 -1 0 235.648 8.10851 0
2 -1 0 215.338 7.1236 0
-2 1 0 225.408 7.42077 0
2 -1 0 222.318 8.13398 0
-2 1 0 223.319 8.20191 0
-2 1 -1 128.058 6.18754 0
2 -1 1 117.538 5.07933 0
2 -1 1 118.554 4.89462 0
-2 1 -1 122.382 4.98697 0
2 -1 1 124.918 6.12877 0
-2 1 -1 123.742 5.44034 0
-2 1 -2 92.8965 4.59553 0
2 -1 2 100.678 9.04439 0
2 -1 2 88.2195 7.17033 0
-2 1 -2 88.2113 3.02295 0
2 -1 2 90.0854 4.26146 0
-2 1 -2 94.5506 4.24516 0
-2 1 -3 31.8813 4.89287 0
2 -1 3 30.5144 3.79003 0
2 -1 3 29.7688 6.69468 0
-2 1 -3 28.798 4.45018 0
2 -1 3 33.7918 8.58193 0
-2 1 -3 26.9108 1.97268 0
-2 1 -4 166.657 6.51517 0
2 -1 4 171.811 6.50789 0
2 -1 4 174.17 8.30593 0
-2 1 -4 161.416 6.41326 0
2 -1 4 170.53 7.2868 0
-2 1 -4 171.87 6.7554 0
-2 1 -5 19.9539 5.82688 0
2 -1 5 17.0035 8.57566 0
2 -1 5 18.9726 7.86326 0
-2 1 -5 14.8797 1.88853 0
2 -1 5 19.6313 2.66141 0
-2 1 -5 17.8167 6.70058 0
-2 1 -6 848.381 21.5467 0
2 -1 6 882.496 22.1595 0
2 -1 6 839.899 21.8347 0
2 -1 6 827.533 20.8113 0
-2 1 -6 896.027 22.3495 0
-2 1 -7 18.4196 7.45318 0
2 -1 7 18.8629 10.5342 0
2 -1 7 16.53 1.80095 0
-2 1 -7 13.1608 1.36318 0
-2 1 -8 234.155 9.15013 0
2 -1 8 244.975 9.25507 0
2 -1 8 244.175 8.65539 0
-2 1 -8 257.918 8.75534 0
-2 1 -9 1.23556 1.06357 0
2 -1 9 -0.15388 1.67909 0
2 -1 9 1.03189 0.91875 0
-2 1 -9 0.53405 1.05452 0
-2 1 -10 285.335 12.4369 0
2 -1 10 276.346 11.9147 0
2 -1 10 300.097 9.47374 0
-2 1 -10 296.007 4.16082 0
-2 1 -11 3.5371 2.7718 0
2 -1 11 3.1297 1.50393 0
2 -1 11 4.86969 1.88848 0
-2 1 -11 2.57001 1.90371 0
-2 1 -12 145.088 9.84394 0
2 -1 12 143.46 7.02693 0
2 -1 12 141.703 5.61323 0
-2 1 -13 4.08902 2.28476 0
2 -1 13 -0.88145 2.10974 0
2 -1 13 0.71279 0.58551 0
-2 1 -14 245.005 9.63807 0
2 -1 14 227.985 12.4171 0
2 -1 14 245.649 8.79252 0
-2 1 -15 0.29853 1.17219 0
2 -1 15 -0.12598 1.88427 0
-2 1 -16 14.376 7.34842 0
2 -1 16 17.0411 5.25429 0
-2 1 -17 6.4345 2.22913 0
2 -1 17 4.29435 2.86836 0
-2 1 -18 97.1854 4.57238 0
2 -1 18 94.538 6.06959 0
-2 1 -19 1.17347 1.13091 0
2 -1 19 0.44993 1.24643 0
2 -1 20 3.21951 1.89583 0
2 0 -20 12.2588 1.50627 0
-2 0 20 8.26741 4.55106 0
2 0 -19 73.7608 5.10592 0
-2 0 19 76.0265 5.30559 0
2 0 -18 12.8341 3.50639 0
-2 0 18 14.403 1.77952 0
2 0 -17 -0.3393 1.20169 0
-2 0 17 1.55749 1.7884 0
2 0 -16 11.9805 3.57531 0
-2 0 16 12.0899 5.48893 0
2 0 -15 176.32 8.74998 0
-2 0 15 178.068 8.99028 0
2 0 -14 36.2138 4.62056 0
-2 0 14 36.7947 2.24027 0
2 0 -13 0.94803 1.17298 0
-2 0 13 1.39151 1.51042 0
2 0 -12 59.0556 3.78174 0
-2 0 12 57.0594 3.38884 0
2 0 -11 346.301 10.3449 0
-2 0 11 358.779 10.4145 0
2 0 -10 58.6494 3.83291 0
-2 0 10 63.8356 4.43811 0
2 0 -9 106.455 9.88479 0
-2 0 9 101.112 5.79994 0
2 0 -8 0.30167 2.38268 0
-2 0 8 0.95614 1.62595 0
2 0 -7 1044.38 26.4758 0
-2 0 7 939.253 23.6529 0
2 0 -6 211.979 6.94474 0
-2 0 6 222.712 6.90055 0
-2 0 6 222.743 7.03313 0
-2 0 6 228.015 5.3222 0
2 0 -5 88.4729 6.80187 0
-2 0 5 88.5007 3.95619 0
-2 0 5 87.7511 2.51947 0
2 0 -4 170.215 6.72605 0
-2 0 4 177.604 6.93695 0
2 0 -4 176.293 6.22894 0
-2 0 4 175.849 5.95026 0
2 0 -3 876.097 12.0394 0
-2 0 3 864.588 11.7094 0
-2 0 3 880.289 10.9851 0
2 0 -3 855.229 10.2528 0
-2 0 3 862.609 10.1723 0
2 0 -2 367.547 12.6114 0
-2 0 2 407.688 13.6673 0
-2 0 2 386.79 12.7466 0
2 0 -2 377.785 12.5945 0
-2 0 2 402.586 13.2281 0
-2 0 1 486.518 15.81 0
-2 0 1 522.226 7.24407 0
2 0 -1 423.435 13.8185 0
-2 0 1 515.695 6.56576 0
2 0 -1 511.651 7.58323 0
-2 0 1 529.974 7.99196 0
-2 0 0 236.334 8.67684 0
2 0 0 219.359 7.31283 0
2 0 0 220.406 7.40963 0
-2 0 0 234.891 7.85843 0
2 0 0 229.839 8.27204 0
-2 0 0 237.627 8.38644 0
-2 0 -1 1408.18 15.1516 0
2 0 1 1520.17 16.2633 0
2 0 1 1473.01 16.5434 0
-2 0 -1 1417.76 15.9219 0
2 0 1 1527.81 17.9964 0
-2 0 -1 1477.06 17.3749 0
2 0 2 3346.08 35.8059 0
-2 0 -2 3435.88 36.7986 0
2 0 2 3332.49 36.054 0
-2 0 -2 3351.84 36.9013 0
-2 0 -3 906.846 11.1321 0
2 0 3 850.166 10.8774 0
2 0 3 925.281 12.7013 0
-2 0 -3 838.549 11.395 0
2 0 3 836.093 11.584 0
-2 0 -3 873.375 11.5511 0
-2 0 -4 42.3724 2.97133 0
2 0 4 42.3956 5.4397 0
2 0 4 37.7219 2.84752 0
-2 0 -4 44.4229 5.11471 0
2 0 4 42.5194 7.75331 0
-2 0 -4 44.1908 2.24397 0
-2 0 -5 163.154 6.41057 0
2 0 5 165.664 6.27432 0
2 0 5 163.57 6.91251 0
-2 0 -5 161.734 6.44642 0
2 0 5 164.201 6.43925 0
-2 0 -5 167.973 6.60417 0
-2 0 -6 1361.52 28.0956 0
2 0 6 1400.95 28.4691 0
2 0 6 1285.62 27.958 0
-2 0 -6 1419.2 29.334 0
2 0 6 1392.87 28.2594 0
-2 0 -6 1330.39 26.9883 0
-2 0 -7 3.26373 2.83133 0
2 0 7 4.98148 2.37524 0
2 0 7 5.24211 2.83725 0
2 0 7 2.73064 1.2202 0
-2 0 -7 5.39019 1.78883 0
-2 0 -8 38.3506 3.27441 0
2 0 8 41.0819 4.67469 0
2 0 8 41.5291 2.46513 0
-2 0 -8 42.3065 2.31072 0
-2 0 -9 133.401 6.60061 0
2 0 9 123.73 6.27489 0
2 0 9 132.362 6.59103 0
-2 0 -9 128.53 6.2222 0
-2 0 -10 385.931 14.4738 0
2 0 10 389.78 15.03 0
2 0 10 377.77 13.8611 0
-2 0 -10 375.472 13.4266 0
-2 0 -11 113.778 8.62452 0
2 0 11 110.499 6.28146 0
2 0 11 113.242 5.75767 0
-2 0 -11 104.794 5.30985 0
-2 0 -12 0.72714 1.94509 0
2 0 12 1.10889 1.07253 0
2 0 12 0.77804 1.07616 0
-2 0 -12 0.11634 0.88711 0
-2 0 -13 190.071 6.96703 0
2 0 13 185.841 7.83294 0
2 0 13 190.23 6.55565 0
-2 0 -13 187.105 6.36986 0
-2 0 -14 349.605 13.4174 0
2 0 14 357.968 12.1317 0
2 0 14 364.99 10.3561 0
-2 0 -15 22.933 2.34976 0
2 0 15 19.8903 8.41238 0
-2 0 -16 8.76222 4.87956 0
2 0 16 10.31 3.22156 0
-2 0 -17 2.03875 1.42785 0
2 0 17 1.1321 1.76239 0
-2 0 -18 116.839 5.11804 0
2 0 18 123.817 7.24681 0
-2 0 -19 1.96531 1.3577 0
2 0 19 1.82702 1.14818 0
-2 0 -20 9.35469 1.17859 0
2 0 20 6.17737 3.25719 0
2 1 -19 67.3658 3.81057 0
-2 -1 19 74.647 5.55385 0
2 1 -18 1.43594 0.94802 0
-2 -1 18 1.97736 1.26902 0
2 1 -17 26.6853 1.98359 0
-2 -1 17 29.3056 2.34674 0
2 1 -16 0.28244 1.69217 0
-2 -1 16 -0.03716 1.03314 0
2 1 -15 156.422 7.97174 0
-2 -1 15 150.926 10.3023 0
2 1 -14 -0.22126 1.4586 0
-2 -1 14 1.60417 1.19657 0
2 1 -13 72.0769 3.12467 0
-2 -1 13 77.6163 3.11216 0
2 1 -12 0.45578 1.56462 0
-2 -1 12 0.95578 1.56122 0
2 1 -11 331.105 10.1424 0
-2 -1 11 314.561 9.64541 0
2 1 -10 6.56399 3.09807 0
-2 -1 10 11.5667 3.22477 0
2 1 -9 556.686 20.4476 0
-2 -1 9 542.128 19.7115 0
-2 -1 9 564.958 19.2475 0
-2 -1 9 539.433 18.3864 0
2 1 -8 3.22669 2.77772 0
-2 -1 8 1.99818 2.12153 0
-2 -1 8 2.1758 0.58219 0
-2 -1 8 1.25318 0.79927 0
2 1 -7 835.254 21.6961 0
-2 -1 7 874.902 22.3988 0
-2 -1 7 781.267 18.748 0
2 1 -6 19.6783 3.3682 0
2 1 -5 132.504 5.1235 0
-2 -1 5 131.03 4.78013 0
2 1 -4 2.08495 1.84269 0
-2 -1 4 0.80021 1.01311 0
-2 -1 4 1.85003 1.27006 0
2 1 -3 364.97 12.7622 0
-2 -1 3 372.676 12.7386 0
-2 -1 3 374.403 12.8017 0
-2 -1 3 369.292 12.1628 0
2 1 -2 31.6968 4.38404 0
-2 -1 2 29.4631 2.60042 0
2 1 -2 32.1302 2.35871 0
-2 -1 2 32.1969 2.29204 0
-2 -1 2 29.4464 1.90864 0
2 1 -1 1119.29 13.752 0
-2 -1 1 1147.15 13.3117 0
2 1 -1 1020.04 13.0096 0
-2 -1 1 1097.53 13.3635 0
-2 -1 1 1150.74 13.8383 0
2 1 0 2.66253 1.5817 0
-2 -1 0 1.30051 1.239 0
2 1 0 4.10363 1.75744 0
-2 -1 0 4.34968 2.57466 0
2 1 0 4.31453 2.28468 0
-2 -1 0 2.04742 2.42527 0
2 1 1 503.951 16.5199 0
-2 -1 -1 448.632 14.744 0
2 1 1 480.16 16.0364 0
-2 -1 -1 499.168 16.4408 0
2 1 2 2.72365 1.34021 0
2 1 2 9.76191 0.82142 0
2 1 2 12.4769 7.75592 0
-2 -1 -2 10.4969 1.75524 0
2 1 2 12.3818 6.78751 0
-2 -1 -2 12.6671 1.66878 0
-2 -1 -3 17.6689 6.11809 0
2 1 3 15.2618 1.57131 0
2 1 3 19.5745 6.86195 0
-2 -1 -3 21.522 8.07387 0
2 1 3 14.7269 3.10919 0
-2 -1 -3 18.6134 6.61957 0
-2 -1 -4 26.4476 5.28951 0
2 1 4 26.2813 2.32802 0
2 1 4 29.0686 9.35167 0
-2 -1 -4 29.2428 8.45688 0
2 1 4 26.305 3.53954 0
-2 -1 -4 25.6161 6.24764 0
-2 -1 -5 423.485 14.2381 0
2 1 5 421.574 14.0684 0
2 1 5 434.735 8.2109 0
-2 -1 -5 447.335 7.81253 0
2 1 5 379.531 13.4783 0
-2 -1 -5 429.055 5.34852 0
-2 -1 -6 922.268 19.4536 0
2 1 6 844.163 17.7811 0
2 1 6 890.64 21.5594 0
-2 -1 -6 884.594 19.0473 0
2 1 6 884.404 19.3994 0
-2 -1 -6 911.313 18.878 0
-2 -1 -7 666.349 17.2488 0
2 1 7 634.05 16.3093 0
2 1 7 645.262 17.4883 0
2 1 7 622.376 15.8304 0
-2 -1 -7 674.835 16.9111 0
-2 -1 -8 51.2735 3.16107 0
2 1 8 52.5777 4.24424 0
2 1 8 52.4561 4.94056 0
2 1 8 50.5772 4.05081 0
-2 -1 -8 48.3777 2.42607 0
-2 -1 -9 0.88392 1.30106 0
2 1 9 0.87399 2.13532 0
2 1 9 1.47486 1.24147 0
-2 -1 -9 0.40224 0.68032 0
-2 -1 -10 203.48 7.63402 0
2 1 10 211.046 8.32966 0
2 1 10 218.119 7.44553 0
-2 -1 -10 220.179 8.76948 0
-2 -1 -11 384.801 12.3428 0
2 1 11 407.515 13.4806 0
2 1 11 400.04 12.1539 0
-2 -1 -11 396.519 12.2237 0
-2 -1 -12 79.0417 5.32008 0
2 1 12 80.3314 4.21471 0
2 1 12 80.3953 3.49283 0
-2 -1 -12 84.0911 2.95894 0
-2 -1 -13 19.3108 2.20606 0
2 1 13 27.7383 8.63272 0
2 1 13 23.4151 3.04403 0
-2 -1 -13 20.7815 1.00556 0
-2 -1 -14 127.634 7.17526 0
2 1 14 119.493 5.77038 0
-2 -1 -15 148.974 11.5061 0
2 1 15 139.415 5.98106 0
-2 -1 -16 64.4134 3.93745 0
2 1 16 61.1506 3.93745 0
-2 -1 -17 0.62238 0.72196 0
2 1 17 0.56761 1.541 0
-2 -1 -18 26.7353 3.6155 0
2 1 18 26.6545 2.44958 0
-2 -1 -19 53.1731 5.19649 0
2 1 19 55.7574 4.85679 0
-2 -1 -20 34.7076 2.15637 0
2 1 20 42.5305 5.37097 0
2 2 -19 12.9396 4.30485 0
-2 -2 19 13.6484 1.52548 0
2 2 -18 35.1475 2.25376 0
-2 -2 18 43.492 4.36266 0
2 2 -17 77.1464 3.71476 0
-2 -2 17 66.2648 3.22733 0
2 2 -16 6.14907 2.73133 0
-2 -2 16 4.93409 3.38905 0
2 2 -15 64.238 3.09083 0
-2 -2 15 60.4882 3.19937 0
2 2 -14 79.7246 4.96806 0
-2 -2 14 77.6824 5.12796 0
2 2 -13 141.999 7.67319 0
-2 -2 13 142.756 6.97947 0
2 2 -12 14.2819 6.09847 0
-2 -2 12 13.3893 5.77921 0
-2 -2 12 13.6759 0.57336 0
2 2 -11 24.2099 3.27353 0
-2 -2 11 21.2281 2.83587 0
-2 -2 11 23.4022 0.87887 0
2 2 -10 96.4035 4.6149 0
-2 -2 10 85.6341 4.19963 0
-2 -2 10 87.8005 2.80498 0
2 2 -9 628.329 19.2681 0
-2 -2 9 623.561 19.0771 0
-2 -2 9 604.713 17.2853 0
2 2 -8 112.116 3.69158 0
-2 -2 8 109.798 5.31159 0
2 2 -7 37.0276 3.33805 0
2 2 -6 108.604 5.27855 0
2 2 -5 826.643 18.7191 0
-2 -2 5 908.192 19.4633 0
-2 -2 5 882.964 18.8263 0
2 2 -4 3.10314 1.57226 0
-2 -2 4 5.18569 4.68229 0
-2 -2 4 4.05476 2.86868 0
2 2 -3 111.463 4.93258 0
-2 -2 3 112.088 4.8061 0
-2 -2 3 118.449 4.9549 0
2 2 -2 -1.55662 2.51271 0
-2 -2 2 1.10623 2.32307 0
2 2 -2 1.92799 2.54432 0
-2 -2 2 1.99911 1.39068 0
2 2 -1 1415.73 17.0355 0
-2 -2 1 1361.98 15.9796 0
2 2 -1 1307.85 16.5653 0
-2 -2 1 1315.26 16.4003 0
2 2 0 23.3654 5.19042 0
-2 -2 0 19.7388 2.97562 0
2 2 0 15.9601 2.13027 0
-2 -2 0 26.7298 5.79907 0
2 2 1 27.4721 6.63618 0
-2 -2 -1 20.1468 3.36063 0
2 2 1 27.1318 2.05041 0
-2 -2 -1 25.0218 1.89727 0
2 2 2 1.29613 1.35504 0
-2 -2 -2 0.50499 0.90897 0
2 2 2 1.23721 1.46446 0
-2 -2 -2 1.21196 1.43079 0
2 2 3 453.33 15.6191 0
-2 -2 -3 484.405 8.24683 0
2 2 3 489.538 9.77523 0
-2 -2 -3 418.708 14.1561 0
-2 -2 -3 473.862 16.1095 0
2 2 4 130.201 4.93337 0
2 2 4 138.431 5.42437 0
2 2 4 132.102 5.82964 0
-2 -2 -4 125.509 5.10483 0
-2 -2 -4 133.271 5.48672 0
2 2 5 1.86344 1.35922 0
2 2 5 2.18498 1.87806 0
2 2 5 1.93652 1.63691 0
-2 -2 -5 1.61499 1.51268 0
-2 -2 -5 1.1473 1.3373 0
2 2 6 63.2611 2.97612 0
2 2 6 65.893 3.18532 0
2 2 6 63.3488 3.70496 0
-2 -2 -6 62.2218 3.74546 0
-2 -2 -6 61.8101 2.32826 0
-2 -2 -7 1182.07 24.4643 0
2 2 7 1227.21 25.9845 0
2 2 7 1207.73 25.6275 0
-2 -2 -7 1210.1 24.8336 0
-2 -2 -8 42.9464 2.84936 0
2 2 8 51.6113 3.30571 0
2 2 8 49.8973 3.81214 0
-2 -2 -8 42.401 2.51546 0
-2 -2 -9 22.5744 2.03215 0
2 2 9 27.1605 3.25645 0
-2 -2 -9 27.2308 2.92529 0
-2 -2 -10 52.5621 3.69734 0
2 2 10 53.2299 4.18789 0
-2 -2 -10 46.5256 2.58904 0
-2 -2 -11 664.882 20.01 0
2 2 11 656.469 20.1513 0
-2 -2 -11 651.015 18.8004 0
-2 -2 -12 6.16664 2.77384 0
2 2 12 2.31536 3.3928 0
-2 -2 -12 3.76341 1.48244 0
-2 -2 -13 30.4525 2.32539 0
2 2 13 33.8206 4.40398 0
-2 -2 -13 31.2867 2.97886 0
-2 -2 -14 15.7785 5.04146 0
2 2 14 15.7466 5.78811 0
-2 -2 -15 337.752 12.5255 0
2 2 15 328.717 13.9241 0
-2 -2 -16 23.4532 3.06759 0
2 2 16 24.656 2.55403 0
-2 -2 -17 45.2419 2.35783 0
2 2 17 46.9514 2.87447 0
2 2 18 0.7487 1.56547 0
2 2 18 1.45047 1.33781 0
2 2 19 103.408 4.09449 0
2 2 19 101.844 4.27165 0
2 2 20 12.7996 2.82562 0
2 2 20 9.20813 5.64514 0
2 2 21 24.4943 2.566 0
2 2 21 17.4889 3.19236 0
2 3 -18 50.9506 3.84525 0
-2 -3 18 42.0851 5.16743 0
2 3 -17 23.3169 3.39909 0
-2 -3 17 23.644 7.07182 0
2 3 -16 40.056 4.95082 0
-2 -3 16 41.2369 4.41882 0
2 3 -15 7.56464 2.86203 0
-2 -3 15 6.27179 3.12603 0
2 3 -14 68.0936 4.16464 0
-2 -3 14 56.0505 4.11395 0
2 3 -13 154.478 7.35911 0
-2 -3 13 148.816 9.8719 0
2 3 -12 104.584 5.14468 0
-2 -3 12 92.5114 7.37033 0
-2 -3 12 91.3537 1.73656 0
2 3 -11 3.64515 2.12411 0
-2 -3 11 6.31536 1.69526 0
-2 -3 11 4.46933 1.81253 0
2 3 -10 29.2896 2.41609 0
-2 -3 10 26.2439 2.81877 0
-2 -3 10 27.4666 3.73396 0
2 3 -9 170.272 7.92623 0
-2 -3 9 188.579 8.66719 0
-2 -3 9 181.414 7.38954 0
2 3 -8 515.709 19.0002 0
-2 -3 8 506.324 18.0431 0
2 3 -7 19.24 5.47684 0
2 3 -6 96.5481 7.73198 0
2 3 -5 828.649 21.3306 0
2 3 -4 467.216 11.1215 0
-2 -3 4 489.753 11.3345 0
2 3 -3 5.30941 2.70888 0
-2 -3 3 2.75629 1.73368 0
-2 -3 3 3.9956 1.65242 0
2 3 -2 26.7284 5.81053 0
-2 -3 2 26.7212 9.18858 0
2 3 -2 30.8211 11.5417 0
-2 -3 2 20.8457 1.94887 0
2 3 -1 527.66 8.42699 0
-2 -3 1 522.08 8.26799 0
2 3 -1 510.109 8.54814 0
-2 -3 1 573.058 9.21442 0
2 3 0 781.676 11.3203 0
-2 -3 0 795.174 11.0314 0
2 3 0 818.018 11.6638 0
-2 -3 0 761.401 10.6254 0
2 3 1 661.916 10.7947 0
-2 -3 -1 637.195 9.39494 0
2 3 1 784.375 10.8659 0
-2 -3 -1 655.519 9.39494 0
2 3 2 -0.33044 3.04475 0
-2 -3 -2 4.28783 2.04557 0
2 3 2 4.13834 2.80872 0
-2 -3 -2 5.84561 3.27291 0
2 3 3 162.257 6.24274 0
-2 -3 -3 162.073 5.89677 0
2 3 3 162.265 6.18892 0
-2 -3 -3 161.227 8.9182 0
2 3 4 312.615 10.7047 0
-2 -3 -4 311.346 11.7605 0
2 3 4 322.375 11.3618 0
-2 -3 -4 291.45 10.6235 0
2 3 5 720.134 15.3333 0
-2 -3 -5 691.35 14.7545 0
2 3 5 754.161 16.5884 0
-2 -3 -5 729.247 15.9538 0
2 3 6 25.4788 1.73881 0
2 3 6 27.5485 1.88155 0
2 3 6 30.8963 4.48977 0
-2 -3 -6 29.3976 3.51006 0
-2 -3 -6 30.1307 2.13459 0
2 3 7 745.539 18.9198 0
2 3 7 743.661 18.8661 0
2 3 7 775.401 20.16 0
-2 -3 -7 759.51 18.9794 0
2 3 8 348.81 11.6598 0
2 3 8 351.554 12.5345 0
2 3 8 365.811 12.6921 0
-2 -3 -8 357.9 11.5239 0
2 3 9 383.253 6.06959 0
2 3 9 366.663 12.835 0
-2 -3 -9 366.273 11.9813 0
2 3 10 1.81183 1.72192 0
2 3 10 0.66539 1.57805 0
-2 -3 -10 0.79577 0.47207 0
2 3 11 173.67 8.37753 0
2 3 11 154.513 7.47197 0
-2 -3 -11 155.013 6.78555 0
2 3 12 178.23 8.30263 0
2 3 12 195.251 7.71203 0
-2 -3 -12 177.746 5.83356 0
2 3 13 492.974 14.2927 0
2 3 13 471.196 13.5209 0
-2 -3 -13 463.054 12.0676 0
2 3 14 13.4702 6.89182 0
2 3 14 11.948 3.92082 0
2 3 15 223.416 9.09588 0
2 3 15 219.137 8.88774 0
2 3 16 4.1959 3.24015 0
2 3 16 7.92222 4.98315 0
2 3 17 155.464 8.06057 0
2 3 17 148.834 7.41542 0
2 3 18 0.94824 0.94351 0
2 3 18 0.9506 0.84183 0
2 3 19 11.7719 2.38964 0
2 3 19 15.2703 1.61147 0
2 3 20 1.81039 2.09743 0
2 3 20 1.8186 1.61972 0
2 3 21 89.2056 6.64652 0
2 3 21 74.8789 4.29282 0
2 4 -18 14.4378 2.09375 0
-2 -4 18 8.06341 3.81891 0
2 4 -17 0.97117 1.33765 0
2 4 -16 112.343 4.46898 0
-2 -4 16 116.541 4.42523 0
2 4 -15 1.87328 1.62507 0
2 4 -14 5.41562 2.43325 0
-2 -4 14 11.4484 3.69774 0
2 4 -13 0.22041 1.08302 0
-2 -4 13 0.91159 1.0286 0
2 4 -12 143.974 6.10677 0
-2 -4 12 144.308 8.15897 0
-2 -4 12 143.129 4.7875 0
2 4 -11 1.15777 1.7194 0
-2 -4 11 0.32317 1.57821 0
-2 -4 11 0.30435 0.55222 0
2 4 -10 15.0148 4.08601 0
-2 -4 10 19.8027 7.50401 0
-2 -4 10 14.7232 2.14303 0
2 4 -9 20.8656 6.67331 0
-2 -4 9 22.7971 1.44028 0
2 4 -8 533.103 16.5842 0
-2 -4 8 526.163 16.4838 0
2 4 -7 10.9405 6.07084 0
2 4 -6 2.18509 1.93657 0
2 4 -5 119.994 6.00045 0
2 4 -4 743.671 19.3393 0
2 4 -3 135.932 6.42306 0
2 4 -2 231.294 7.21518 0
-2 -4 2 206.999 6.53836 0
2 4 -2 210.843 6.85761 0
-2 -4 2 218.326 7.1641 0
2 4 -1 0.4097 1.90747 0
-2 -4 1 -0.02015 2.68657 0
2 4 -1 3.06269 1.42388 0
-2 -4 1 2.40448 1.3903 0
2 4 0 930.289 19.9606 0
-2 -4 0 934.455 20.2736 0
2 4 0 859.21 20.8021 0
-2 -4 0 870.915 20.0649 0
2 4 1 78.7284 4.79481 0
-2 -4 -1 73.8557 10.397 0
2 4 1 72.2763 3.58371 0
-2 -4 -1 73.6503 3.34291 0
2 4 2 52.8155 3.71481 0
-2 -4 -2 53.8931 3.28945 0
2 4 2 53.9073 2.61596 0
-2 -4 -2 52.2484 2.57343 0
2 4 3 330.011 9.22102 0
-2 -4 -3 324.166 8.67697 0
2 4 3 330.129 9.01875 0
-2 -4 -3 328.351 8.91412 0
2 4 4 427.964 9.88626 0
-2 -4 -4 391.705 8.98874 0
2 4 4 438.046 10.3519 0
-2 -4 -4 396.503 9.92 0
2 4 5 587.781 12.9875 0
-2 -4 -5 604.245 13.6237 0
2 4 5 611.802 13.6366 0
-2 -4 -5 584.272 13.0646 0
2 4 6 32.0738 2.67281 0
-2 -4 -6 27.9891 1.9488 0
2 4 6 28.9243 3.01672 0
-2 -4 -6 25.7507 4.13291 0
2 4 7 12.3689 5.6665 0
-2 -4 -7 13.3768 4.97219 0
2 4 7 15.7901 7.07193 0
2 4 8 271.074 10.1673 0
2 4 8 280.158 9.94563 0
-2 -4 -8 281.535 9.39911 0
2 4 9 316.535 10.9969 0
2 4 9 319.881 11.1626 0
-2 -4 -9 311.379 11.0632 0
2 4 10 38.9325 2.76813 0
2 4 10 43.2656 3.2956 0
-2 -4 -10 40.4757 2.354 0
2 4 11 0.67593 0.95925 0
2 4 11 0.41284 1.25471 0
-2 -4 -11 0.64759 0.43713 0
2 4 12 258.374 7.79923 0
2 4 12 268.176 8.43331 0
-2 -4 -12 255.845 7.63138 0
2 4 13 610.286 7.55684 0
2 4 13 605.115 16.5135 0
-2 -4 -13 609.828 4.92495 0
2 4 14 25.0749 2.13545 0
2 4 14 27.2103 2.09116 0
2 4 15 6.05609 3.03838 0
2 4 15 5.54822 1.86023 0
2 4 16 68.9798 4.1182 0
2 4 16 67.9448 9.02984 0
2 4 17 137.237 6.80826 0
2 4 17 141.846 7.27569 0
2 4 18 34.0879 2.21871 0
2 4 18 37.5104 2.40046 0
2 4 19 0.80878 1.41702 0
2 4 19 1.24292 1.19665 0
2 4 20 5.7978 3.57514 0
2 4 20 5.72391 4.01433 0
2 4 21 73.6591 4.18694 0
2 4 21 70.2322 4.37073 0
2 5 -17 1.63861 1.95128 0
-2 -5 17 1.70809 1.37805 0
2 5 -16 65.9941 6.10204 0
-2 -5 16 73.1645 9.94138 0
2 5 -15 18.3787 6.48932 0
-2 -5 15 12.1506 6.89227 0
2 5 -14 21.3713 2.04765 0
-2 -5 14 27.7533 5.62452 0
2 5 -13 1.26336 1.14643 0
-2 -5 13 0.23386 1.24302 0
2 5 -12 157.702 8.05317 0
-2 -5 12 170.571 11.069 0
-2 -5 12 161.688 7.43137 0
2 5 -11 30.272 4.83223 0
-2 -5 11 33.1584 4.59121 0
-2 -5 11 28.5231 2.49548 0
2 5 -10 41.965 3.14824 0
-2 -5 10 40.9867 1.9943 0
2 5 -9 -0.24621 0.99494 0
-2 -5 9 -0.70489 1.07589 0
2 5 -8 201.553 7.05533 0
-2 -5 8 203.889 6.50784 0
2 5 -7 72.8519 4.50993 0
-2 -5 7 65.0713 3.79325 0
2 5 -6 141.999 6.9135 0
2 5 -5 9.65237 3.75244 0
2 5 -4 410.092 13.7539 0
2 5 -3 55.3681 3.65413 0
2 5 -2 379.674 13.0153 0
2 5 -2 413.168 14.1643 0
2 5 -1 2.95629 2.66008 0
2 5 -1 5.54667 3.02599 0
2 5 0 978.622 25.0136 0
-2 -5 0 1008.31 25.5439 0
2 5 0 932.264 23.9048 0
2 5 1 35.5801 8.18046 0
-2 -5 -1 34.8963 9.45558 0
2 5 1 32.7896 2.35311 0
-2 -5 -1 31.2373 1.93424 0
2 5 2 181.721 6.67646 0
-2 -5 -2 161.314 5.6474 0
2 5 2 183.097 5.96976 0
-2 -5 -2 170.606 5.59161 0
2 5 3 26.9612 3.11303 0
-2 -5 -3 31.1058 2.41306 0
2 5 3 30.8724 2.38236 0
-2 -5 -3 29.8102 2.46832 0
2 5 4 561.98 17.9574 0
-2 -5 -4 552.573 17.7658 0
2 5 4 510.149 16.3587 0
-2 -5 -4 572.626 6.95783 0
2 5 5 135.394 6.07711 0
-2 -5 -5 124.115 5.37502 0
2 5 5 126.474 5.68578 0
2 5 6 812.769 20.6894 0
2 5 6 776.053 20.2799 0
2 5 7 -0.36925 1.90779 0
2 5 7 -0.28719 2.03087 0
2 5 8 147.554 7.02 0
2 5 8 150.21 7.11092 0
2 5 9 98.2406 5.59694 0
2 5 9 94.3325 5.6014 0
2 5 10 355.379 11.3112 0
2 5 10 381.463 12.2975 0
2 5 11 7.27259 3.06563 0
2 5 11 4.43679 2.14243 0
2 5 12 67.2551 4.93319 0
2 5 12 63.6324 3.8812 0
2 5 13 96.5712 7.09696 0
2 5 13 91.1712 4.20438 0
2 5 14 303.239 10.2361 0
2 5 14 313.129 9.9547 0
2 5 15 17.4428 6.17626 0
2 5 15 13.9844 4.79408 0
2 5 16 63.4809 4.94933 0
2 5 16 71.3998 3.3526 0
2 5 17 17.3463 5.38221 0
2 5 17 22.1024 3.68164 0
2 5 18 132.185 6.39369 0
2 5 18 133.64 8.77469 0
2 5 19 4.16494 2.19173 0
2 5 20 3.38609 1.94975 0
2 5 20 1.7888 2.12497 0
2 5 21 21.3468 3.20268 0
2 5 21 25.4253 2.5134 0
2 6 -16 16.1951 4.91238 0
-2 -6 16 11.8834 5.61609 0
2 6 -15 81.223 5.81886 0
-2 -6 15 69.8034 5.05437 0
2 6 -14 12.9495 5.27038 0
-2 -6 14 10.5385 5.02618 0
2 6 -13 1.5177 0.99444 0
-2 -6 13 2.40086 0.9897 0
2 6 -12 38.3021 2.71939 0
-2 -6 12 28.7779 8.73601 0
-2 -6 12 28.7272 1.6144 0
2 6 -11 77.6271 4.2165 0
-2 -6 11 77.0015 8.7676 0
-2 -6 11 69.0037 3.56362 0
2 6 -10 113.326 5.50316 0
-2 -6 10 100.948 4.91468 0
2 6 -9 0.17614 0.89613 0
-2 -6 9 1.22368 1.22368 0
2 6 -8 27.5085 3.84637 0
-2 -6 8 34.139 3.58247 0
2 6 -7 191.587 5.07388 0
-2 -6 7 189.351 4.40869 0
2 6 -6 289.079 9.09135 0
2 6 -5 2.79746 2.15781 0
2 6 -4 41.351 3.68419 0
2 6 -3 28.3523 10.0226 0
2 6 -2 317.608 11.4708 0
2 6 -2 340.592 12.0745 0
2 6 -1 105.562 5.88142 0
2 6 -1 115.605 5.7969 0
2 6 0 1.82794 2.71874 0
2 6 0 0.95774 1.42631 0
2 6 1 373.547 13.2967 0
2 6 1 346.084 11.7947 0
2 6 2 336.891 12.1541 0
2 6 2 331.876 11.3715 0
2 6 3 16.5509 4.18547 0
2 6 3 21.8663 6.82724 0
2 6 4 28.6412 9.39234 0
2 6 4 24.3961 1.94001 0
2 6 5 13.7964 5.46286 0
2 6 5 13.6192 4.42497 0
2 6 6 585.081 18.6414 0
2 6 6 534.388 18.1406 0
2 6 7 1.0836 1.13454 0
2 6 7 1.41238 1.47721 0
2 6 8 2.61555 2.31713 0
2 6 8 3.90138 2.09771 0
2 6 9 8.44909 3.66792 0
2 6 9 13.4587 4.49455 0
2 6 10 438.524 12.0329 0
2 6 10 457.715 12.572 0
2 6 11 72.6956 4.95893 0
2 6 11 74.4975 6.054 0
2 6 12 46.6469 2.91905 0
2 6 12 48.7509 3.24301 0
2 6 13 3.17023 2.19527 0
2 6 13 2.88348 2.27173 0
2 6 14 457.32 17.3851 0
2 6 14 481.317 7.71039 0
2 6 15 1.47555 1.72053 0
2 6 15 1.05597 1.74024 0
2 6 16 53.1379 3.22937 0
2 6 16 54.1838 2.50853 0
2 6 17 1.26174 1.16149 0
2 6 17 1.38889 1.51115 0
2 6 18 98.2531 4.8702 0
2 6 18 93.7376 5.86804 0
2 6 19 1.00662 1.0474 0
2 6 19 0.87355 1.05384 0
2 6 20 15.7713 1.82771 0
2 6 20 14.8865 1.75749 0
2 7 -15 65.6682 4.00771 0
-2 -7 15 62.4465 3.95337 0
2 7 -14 0.3599 1.05694 0
-2 -7 14 0.34335 1.44166 0
2 7 -13 46.3935 2.58428 0
-2 -7 13 49.4541 3.06497 0
2 7 -12 1.52063 3.24744 0
-2 -7 12 3.61998 1.70104 0
2 7 -11 61.2769 3.40067 0
-2 -7 11 49.035 2.93876 0
-2 -7 11 59.5217 2.75649 0
2 7 -10 29.839 5.23936 0
-2 -7 10 29.807 3.50624 0
2 7 -9 61.7399 9.2959 0
-2 -7 9 58.4969 3.76167 0
2 7 -8 2.62615 3.0112 0
-2 -7 8 4.5544 2.95404 0
2 7 -7 149.306 6.85532 0
-2 -7 7 148.069 6.235 0
2 7 -6 71.0927 4.1855 0
-2 -7 6 78.6468 3.69269 0
2 7 -5 138.947 6.71608 0
2 7 -4 0.26626 2.80713 0
2 7 -3 52.6183 4.56628 0
2 7 -2 141.005 7.2964 0
2 7 -2 170.993 8.55196 0
2 7 -1 59.8854 9.52674 0
2 7 -1 55.206 3.84427 0
2 7 0 32.6917 5.67242 0
2 7 0 34.2118 2.4418 0
2 7 1 299.967 12.291 0
2 7 1 279.525 10.7116 0
2 7 2 356.646 14.033 0
2 7 2 327.207 12.3807 0
2 7 3 455.83 17.4213 0
2 7 3 440.241 16.5555 0
2 7 4 1.63329 2.14142 0
2 7 4 3.58416 1.53801 0
2 7 5 52.0763 7.85326 0
2 7 5 46.2697 2.92773 0
2 7 6 137.424 6.27033 0
2 7 6 143.369 5.57363 0
2 7 7 169.326 9.99187 0
2 7 7 163.592 7.47404 0
2 7 8 56.1832 7.03197 0
2 7 8 57.1257 4.90143 0
2 7 9 71.9223 3.95068 0
2 7 9 67.5301 3.3863 0
2 7 10 217.348 6.96695 0
2 7 10 222.171 7.03213 0
2 7 11 196.077 6.75635 0
2 7 11 201.716 6.99156 0
2 7 12 214.9 7.54059 0
2 7 12 215.087 7.23871 0
2 7 13 20.3702 8.20027 0
2 7 13 15.8755 3.33231 0
2 7 14 180.62 8.23554 0
2 7 14 188.539 8.18657 0
2 7 15 60.5096 3.56605 0
2 7 15 53.6983 3.36389 0
2 7 16 72.0727 3.65398 0
2 7 16 66.834 4.10316 0
2 7 17 0.58703 0.74562 0
2 7 17 1.51728 1.21667 0
2 7 18 29.7778 5.92038 0
2 7 18 29.8557 6.23655 0
2 7 19 39.9908 3.03103 0
2 7 19 43.5486 3.36549 0
2 7 20 65.7376 4.78826 0
2 7 20 69.7161 3.99218 0
2 8 -14 1.18125 1.14667 0
-2 -8 14 2.12048 1.26384 0
2 8 -13 58.4173 4.39996 0
-2 -8 13 50.4333 8.38379 0
2 8 -12 2.83696 2.48343 0
-2 -8 12 2.05615 1.93902 0
2 8 -11 19.4233 7.08576 0
-2 -8 11 13.5954 8.0016 0
-2 -8 11 14.1509 5.54787 0
2 8 -10 1.0558 1.51801 0
-2 -8 10 0.31625 0.52546 0
2 8 -9 107.697 5.944 0
-2 -8 9 111.833 5.71935 0
2 8 -8 5.98809 3.5616 0
-2 -8 8 9.67033 2.54439 0
2 8 -7 12.6983 3.11363 0
-2 -8 7 12.1905 5.27257 0
2 8 -6 2.73371 1.80729 0
-2 -8 6 0.61357 0.50118 0
2 8 -5 304.13 10.4097 0
2 8 -4 6.01863 2.3092 0
2 8 -3 -0.85414 2.60441 0
2 8 -2 -0.4494 2.88638 0
2 8 -1 275.013 9.28454 0
2 8 -1 290.388 9.13283 0
2 8 0 1.48178 2.18553 0
2 8 0 3.75333 1.59907 0
2 8 1 36.9334 15.0325 0
2 8 1 25.2734 2.17255 0
2 8 2 2.06145 2.66539 0
2 8 2 -0.76499 1.75948 0
2 8 3 446.189 15.2293 0
2 8 3 436.065 13.8562 0
2 8 4 8.33734 4.95093 0
2 8 4 13.6583 4.13851 0
2 8 5 3.48474 1.74635 0
2 8 5 1.6111 1.66679 0
2 8 6 0.49448 1.66254 0
2 8 6 0.9656 0.68137 0
2 8 7 302.334 9.4392 0
2 8 7 306.921 10.6087 0
2 8 8 38.8145 2.65057 0
2 8 8 40.5283 2.1132 0
2 8 9 9.78614 5.17292 0
2 8 9 11.6912 3.63982 0
2 8 10 1.6057 1.36351 0
2 8 10 2.72703 1.64551 0
2 8 11 291.611 9.50188 0
2 8 11 286.157 8.86316 0
2 8 12 116.922 5.79347 0
2 8 12 117.492 5.87792 0
2 8 13 51.608 4.48176 0
2 8 13 44.2988 3.78428 0
2 8 14 4.87938 2.15442 0
2 8 14 5.86558 2.26038 0
2 8 15 114.785 6.74169 0
2 8 15 115.338 5.86667 0
2 8 16 73.8383 4.41675 0
2 8 16 66.7286 2.9437 0
2 8 17 19.4071 1.77256 0
2 8 17 17.1158 2.27543 0
2 8 18 2.36128 1.57705 0
2 8 18 1.97883 0.88951 0
2 8 19 65.2083 4.65629 0
2 8 19 69.4301 4.74926 0
2 8 20 45.0233 4.0695 0
2 8 20 41.1156 4.13041 0
2 9 -12 25.8344 2.17115 0
-2 -9 12 29.3792 2.1552 0
2 9 -11 0.08019 0.90956 0
-2 -9 11 1.03407 1.32108 0
-2 -9 11 0.45161 0.53392 0
2 9 -10 16.8819 6.05295 0
-2 -9 10 16.7414 1.43969 0
2 9 -9 33.8338 2.6035 0
-2 -9 9 28.4577 2.77253 0
2 9 -8 14.9411 6.83078 0
-2 -9 8 21.2596 3.997 0
2 9 -7 3.14141 3.23795 0
-2 -9 7 4.82953 2.72656 0
2 9 -6 14.9973 5.31417 0
-2 -9 6 14.5164 2.90713 0
2 9 -5 140.195 11.0401 0
-2 -9 5 149.911 9.00872 0
2 9 -4 58.7925 7.17288 0
2 9 -3 17.1912 6.88826 0
2 9 -2 4.31555 3.02249 0
2 9 -1 117.496 10.2071 0
2 9 -1 113.896 4.97619 0
2 9 0 47.2432 13.8313 0
2 9 0 46.6048 3.65055 0
2 9 1 167.617 9.92342 0
2 9 1 171.633 7.15844 0
2 9 2 5.47405 3.50072 0
2 9 2 15.1897 4.10466 0
2 9 3 168.156 8.37776 0
2 9 3 157.885 6.60826 0
2 9 4 19.0733 6.8149 0
2 9 4 14.3772 3.83228 0
2 9 5 36.3364 12.1331 0
2 9 5 34.3037 3.72654 0
2 9 6 3.24957 3.02972 0
2 9 6 0.57709 0.95151 0
2 9 7 171.869 7.32805 0
2 9 7 172.906 6.07258 0
2 9 8 3.40975 2.00017 0
2 9 8 3.2825 2.12742 0
2 9 9 203.283 11.7508 0
2 9 9 188.86 4.06541 0
2 9 10 1.3787 2.64453 0
2 9 10 0.56429 0.86321 0
2 9 11 87.4494 9.08737 0
2 9 11 78.2973 3.74203 0
2 9 12 0.67163 2.26887 0
2 9 12 0.58133 0.63777 0
2 9 13 173.529 8.61301 0
2 9 13 170.935 9.49014 0
2 9 14 9.2526 2.74905 0
2 9 14 11.9711 4.5563 0
2 9 15 68.587 5.17601 0
2 9 15 64.4153 3.7444 0
2 9 16 6.14362 2.9527 0
2 9 16 6.50097 2.07078 0
2 9 17 81.8445 5.17251 0
2 9 17 87.2106 3.82392 0
2 9 18 0.54243 1.03554 0
2 9 19 9.04241 4.34354 0
2 9 19 11.9938 1.88537 0
2 10 -11 2.09714 1.98117 0
-2 -10 11 0.92777 1.11912 0
2 10 -10 2.98641 2.43066 0
-2 -10 10 1.41483 1.34358 0
2 10 -9 4.92418 2.72899 0
-2 -10 9 4.82557 2.18448 0
2 10 -8 70.8196 3.54986 0
-2 -10 8 68.8906 5.57546 0
2 10 -7 11.3692 5.32103 0
-2 -10 7 8.38515 3.64776 0
2 10 -6 1.63256 1.64487 0
-2 -10 6 0.41122 0.60821 0
2 10 -5 16.2317 7.88684 0
-2 -10 5 16.7515 6.66714 0
2 10 -4 105.972 5.38514 0
-2 -10 4 107.201 6.4745 0
2 10 -3 25.268 8.82526 0
-2 -10 3 33.1171 2.50756 0
2 10 -2 0.79947 1.1891 0
2 10 -1 13.6176 5.78504 0
2 10 0 276.04 10.8576 0
2 10 0 281.075 10.9148 0
2 10 1 84.5174 8.37298 0
2 10 1 91.6798 4.42248 0
2 10 2 1.41072 2.81214 0
2 10 2 1.33011 1.33011 0
2 10 3 52.596 8.90744 0
2 10 3 49.033 7.30379 0
2 10 4 222.563 8.04501 0
2 10 4 204.222 6.93051 0
2 10 5 139.087 6.63458 0
2 10 5 137.792 5.74625 0
2 10 6 40.9815 12.1903 0
2 10 6 44.63 5.06544 0
2 10 7 26.978 10.5272 0
2 10 7 34.1182 2.10363 0
2 10 8 84.0892 10.7126 0
2 10 8 97.8235 5.93958 0
2 10 9 192.895 11.4022 0
2 10 9 189.463 8.0483 0
2 10 10 2.80275 2.07466 0
2 10 10 3.80916 1.25379 0
2 10 11 5.05815 2.5196 0
2 10 11 4.98237 1.35046 0
2 10 12 90.8326 4.82508 0
2 10 12 87.2748 3.95771 0
2 10 13 113.749 5.9342 0
2 10 13 107.952 5.47926 0
2 10 14 0.7177 0.93396 0
2 10 14 0.86504 1.22864 0
2 10 15 0.51536 1.13516 0
2 10 15 1.10792 0.95808 0
2 10 16 5.87154 2.99104 0
2 10 16 6.03843 2.64425 0
2 10 17 119.645 7.69047 0
2 10 17 117.304 7.30965 0
2 10 18 2.10098 1.62997 0
2 10 18 3.64886 2.28665 0
2 11 -9 2.08013 1.61225 0
-2 -11 9 0.97866 0.75056 0
2 11 -8 61.9537 4.74667 0
-2 -11 8 63.2828 4.47105 0
2 11 -7 0.32038 0.92482 0
-2 -11 7 1.48655 1.4951 0
2 11 -6 14.0222 6.4658 0
-2 -11 6 12.8092 7.12017 0
2 11 -5 1.46795 1.48644 0
-2 -11 5 1.55579 1.0056 0
2 11 -4 93.624 4.5189 0
-2 -11 4 94.8825 4.42301 0
2 11 -3 0.87067 1.26508 0
-2 -11 3 1.55779 2.06134 0
2 11 -2 35.4147 5.86064 0
-2 -11 2 38.0916 9.79675 0
2 11 -1 0.13681 1.87847 0
2 11 0 61.9707 4.19332 0
2 11 0 51.4564 3.10257 0
2 11 1 7.98217 4.07752 0
2 11 1 8.82731 2.63694 0
2 11 2 58.7087 3.9523 0
2 11 2 63.8653 3.96342 0
2 11 3 20.3291 6.95957 0
2 11 3 15.8175 4.67429 0
2 11 4 134.105 8.3659 0
2 11 4 135.974 7.83741 0
2 11 5 18.4875 8.44084 0
2 11 5 18.3277 3.99343 0
2 11 6 115.575 7.75114 0
2 11 6 116.106 6.82322 0
2 11 7 -1.9559 2.35859 0
2 11 7 0.03287 0.51774 0
2 11 8 55.7193 8.59411 0
2 11 8 57.7401 3.24362 0
2 11 9 43.3219 10.3463 0
2 11 9 47.0611 2.1228 0
2 11 10 89.817 5.01365 0
2 11 10 94.1443 5.66172 0
2 11 11 8.22507 2.78866 0
2 11 11 4.88016 1.69841 0
2 11 12 53.2161 3.26047 0
2 11 12 48.9429 2.42923 0
2 11 13 14.1193 7.55133 0
2 11 13 20.2612 3.08363 0
2 11 14 62.4173 2.80672 0
2 11 14 65.1376 3.29002 0
2 11 15 10.6499 5.48125 0
2 11 15 13.6415 1.38838 0
2 11 16 1.11966 1.32489 0
2 11 16 0.79859 0.7925 0
2 11 17 34.3644 5.10489 0
2 11 17 35.5926 3.06759 0
2 12 -7 14.77 6.59538 0
-2 -12 7 10.7707 6.49293 0
2 12 -6 39.4242 2.90721 0
-2 -12 6 44.8506 4.34875 0
2 12 -5 0.65553 1.5741 0
-2 -12 5 0.37578 0.88099 0
2 12 -4 22.4278 4.67418 0
-2 -12 4 25.9405 2.09375 0
2 12 -3 11.466 6.37844 0
-2 -12 3 10.4494 4.94714 0
2 12 -2 57.2138 6.32884 0
-2 -12 2 60.0679 3.60994 0
2 12 -1 3.03195 2.04399 0
-2 -12 1 3.44732 1.99471 0
2 12 0 17.8066 8.70799 0
-2 -12 0 13.7425 6.75505 0
2 12 1 16.4221 5.34566 0
2 12 1 10.9083 4.88496 0
2 12 2 115.191 6.42765 0
2 12 2 133.082 6.47951 0
2 12 3 5.13246 2.90117 0
2 12 3 4.19611 1.24763 0
2 12 4 19.35 6.9866 0
2 12 4 15.623 4.94686 0
2 12 5 13.2001 4.72966 0
2 12 5 12.8904 1.88787 0
2 12 6 147.063 7.63981 0
2 12 6 147.838 7.00916 0
2 12 7 2.25334 1.94127 0
2 12 7 3.38616 1.58987 0
2 12 8 0.74821 1.19132 0
2 12 8 1.46736 0.84749 0
2 12 9 -0.57747 1.77044 0
2 12 9 2.81369 1.7039 0
2 12 10 107.128 7.3436 0
2 12 10 119.78 5.51235 0
2 12 11 0.3942 1.06705 0
2 12 11 1.00588 0.74082 0
2 12 12 2.43403 1.80845 0
2 12 12 0.86568 0.88991 0
2 12 13 0.56279 0.85911 0
2 12 13 0.85484 0.50736 0
2 12 14 120.987 9.9199 0
2 12 14 122.104 2.82633 0
2 12 15 4.39322 3.25585 0
2 12 15 4.02531 1.73672 0
2 12 16 2.10033 1.36094 0
2 13 -4 0.22189 1.25156 0
-2 -13 4 0.71434 0.51386 0
2 13 -3 43.6667 2.91552 0
-2 -13 3 55.4431 4.58383 0
2 13 -2 18.0713 2.86388 0
-2 -13 2 21.3473 1.94909 0
2 13 -1 45.8613 4.67098 0
-2 -13 1 44.9052 3.77182 0
2 13 0 2.63776 1.93953 0
-2 -13 0 1.35551 1.44172 0
2 13 1 8.05635 3.54944 0
-2 -13 -1 8.79911 6.41309 0
2 13 2 64.6638 3.44782 0
2 13 2 67.1804 2.59196 0
-2 -13 -2 67.6815 3.40126 0
2 13 3 25.2515 10.3152 0
2 13 3 31.0753 2.49497 0
-2 -13 -3 27.6011 2.12162 0
2 13 4 5.1536 3.15055 0
2 13 4 3.429 1.67745 0
2 13 5 11.7775 7.65468 0
2 13 5 9.80932 3.48921 0
2 13 6 37.9932 2.5302 0
2 13 6 37.6618 1.89653 0
2 13 7 55.7085 4.93265 0
2 13 7 54.6081 3.60112 0
2 13 8 28.5038 4.58867 0
2 13 8 28.3785 3.37719 0
2 13 9 5.65229 4.94197 0
2 13 9 5.76707 2.9994 0
2 13 10 50.6186 3.93408 0
2 13 10 56.748 3.79183 0
2 13 11 62.5687 4.98019 0
2 13 11 57.1363 3.84767 0
2 13 12 28.2202 5.87676 0
2 13 13 7.3154 5.75538 0
2 13 14 47.7635 6.26805 0
2 14 -1 85.5038 4.83826 0
-2 -14 1 90.7672 5.72088 0
2 14 0 4.16164 2.85182 0
-2 -14 0 4.1094 2.08179 0
2 14 1 0.95354 1.0715 0
-2 -14 -1 1.66721 1.21502 0
2 14 2 5.64717 3.76345 0
-2 -14 -2 7.60457 3.89687 0
2 14 3 81.6248 9.02945 0
-2 -14 -3 88.0658 6.25008 0
2 14 4 9.66975 6.95777 0
2 14 4 8.42289 3.78505 0
-2 -14 -4 16.0051 1.79855 0
2 14 5 5.98839 3.71289 0
2 14 5 5.4013 2.57513 0
-2 -14 -5 7.93796 3.64203 0
2 14 6 11.7025 8.10405 0
2 14 6 18.5215 2.44879 0
-2 -14 -6 12.2884 6.16441 0
2 14 7 74.8074 5.74947 0
-2 -14 -7 63.0372 5.58474 0
2 14 8 19.2822 3.32349 0
-2 -14 -8 11.8173 7.25993 0
2 14 9 -0.01375 1.86833 0
-2 -14 -9 0.68761 1.32413 0
2 14 10 2.14175 2.97487 0
-2 -14 -10 4.92912 2.16688 0
2 14 11 78.9533 5.06067 0
-2 -14 -11 67.0894 3.9325 0
-3 13 7 3.83207 3.57913 0
3 -13 -7 3.56011 2.83744 0
-3 13 6 81.4122 5.1556 0
3 -13 -6 79.9838 4.55741 0
-3 13 5 1.14617 1.31376 0
3 -13 -5 1.19818 0.88997 0
-3 13 4 1.04918 0.75024 0
3 -13 -4 0.4783 0.66731 0
-3 13 3 5.67436 2.43599 0
3 -13 -3 4.30435 1.75291 0
-3 13 2 68.0326 4.44968 0
3 -13 -2 61.7005 5.79644 0
-3 13 1 3.69242 4.32931 0
3 -13 -1 3.45549 2.78448 0
-3 12 12 2.35515 1.90035 0
3 -12 -12 1.03415 1.03981 0
-3 12 11 1.19981 1.63593 0
3 -12 -11 2.38799 2.18253 0
-3 12 10 81.2129 10.5185 0
3 -12 -10 85.1268 5.76858 0
-3 12 9 1.58011 1.42595 0
3 -12 -9 0.54361 1.07302 0
-3 12 8 1.23912 1.85042 0
3 -12 -8 1.45183 1.4002 0
-3 12 7 0.77106 1.34306 0
3 -12 -7 -0.07124 0.82763 0
-3 12 6 120.39 11.5801 0
3 -12 -6 118.575 5.33048 0
-3 12 5 3.40725 2.60768 0
3 -12 -5 4.1983 2.46056 0
-3 12 4 4.63113 2.12527 0
3 -12 -4 9.60436 5.69377 0
-3 12 3 1.10611 1.68265 0
3 -12 -3 1.05699 0.82638 0
-3 12 2 78.3669 7.97772 0
3 -12 -2 85.1658 4.40941 0
-3 12 1 0.9638 0.97853 0
3 -12 -1 0.60606 1.28576 0
-3 12 0 18.3187 3.43321 0
3 -12 0 21.943 2.05203 0
-3 12 -1 2.85745 1.82191 0
3 -12 1 1.98939 1.90565 0
-3 12 -2 85.5335 6.09166 0
3 -12 2 78.597 5.53714 0
-3 12 -3 1.22644 1.23035 0
3 -12 3 0.94477 1.05626 0
-3 12 -4 11.6654 7.58821 0
3 -12 4 10.6628 7.28323 0
-3 11 14 39.1999 3.55131 0
-3 11 13 67.7547 4.36483 0
-3 11 12 28.723 7.1603 0
3 -11 -12 28.4448 1.89032 0
-3 11 11 0.78324 1.77338 0
3 -11 -11 0.71357 0.66713 0
-3 11 10 35.0513 8.64388 0
3 -11 -10 36.1049 2.07896 0
-3 11 9 42.3111 4.24645 0
3 -11 -9 40.817 2.45005 0
-3 11 8 21.4384 8.87108 0
3 -11 -8 23.2616 1.82546 0
-3 11 7 1.20328 1.85563 0
3 -11 -7 1.22633 1.35541 0
-3 11 6 49.8857 3.56477 0
3 -11 -6 38.6638 11.0608 0
-3 11 5 61.7581 3.53684 0
3 -11 -5 67.4919 7.19848 0
-3 11 4 87.1244 5.38792 0
3 -11 -4 89.8372 5.17741 0
-3 11 3 5.66286 2.85508 0
3 -11 -3 5.22999 2.51919 0
-3 11 2 33.5254 2.58866 0
3 -11 -2 39.1574 5.32337 0
-3 11 1 38.209 6.83414 0
3 -11 -1 38.4309 2.39639 0
-3 11 0 56.5719 7.57752 0
3 -11 0 59.9051 3.49004 0
-3 11 -1 9.87954 4.67536 0
3 -11 1 10.0929 3.51106 0
-3 11 -2 24.0377 2.05414 0
3 -11 2 32.4123 2.60162 0
-3 11 -3 7.6913 3.38017 0
3 -11 3 7.01701 3.87828 0
-3 11 -4 64.4607 4.90908 0
3 -11 4 58.4459 6.2114 0
-3 11 -5 2.55096 1.1884 0
3 -11 5 1.1843 1.1802 0
-3 11 -6 8.05664 5.02772 0
3 -11 6 7.03049 4.60379 0
-3 11 -7 2.34741 2.29389 0
3 -11 7 3.16939 2.11802 0
-3 10 15 0.93472 1.19982 0
-3 10 14 -0.1885 1.55714 0
-3 10 13 86.595 9.15492 0
-3 10 12 8.78974 4.21101 0
3 -10 -12 5.83694 2.87749 0
-3 10 11 12.3782 6.53255 0
3 -10 -11 10.812 4.75802 0
-3 10 10 0.76284 1.52568 0
3 -10 -10 4.96674 1.47845 0
-3 10 9 110.326 6.34331 0
3 -10 -9 106.66 6.93609 0
-3 10 8 8.3843 3.62672 0
3 -10 -8 5.28565 2.19696 0
-3 10 7 10.7332 5.5307 0
3 -10 -7 11.3285 5.56631 0
-3 10 6 2.61291 1.62207 0
3 -10 -6 1.49531 1.40218 0
-3 10 5 119.281 6.80521 0
3 -10 -5 126.83 6.76855 0
-3 10 4 28.9693 5.25012 0
3 -10 -4 25.2459 3.80509 0
-3 10 3 109.725 5.91531 0
3 -10 -3 107.551 5.23368 0
-3 10 2 1.98284 1.15863 0
3 -10 -2 0.63988 1.60365 0
-3 10 1 74.4603 5.01607 0
3 -10 -1 66.9558 3.84888 0
-3 10 0 73.1174 4.83361 0
3 -10 0 69.1443 4.19205 0
-3 10 -1 42.0972 4.79556 0
3 -10 1 43.5726 6.91371 0
3 -10 1 43.3651 2.64958 0
-3 10 -2 1.09151 2.20282 0
3 -10 2 -0.28958 0.8539 0
3 -10 2 1.75236 1.43555 0
-3 10 -3 36.3984 5.32759 0
3 -10 3 37.9877 2.12235 0
3 -10 3 37.0037 9.63018 0
-3 10 -4 49.691 3.3196 0
3 -10 4 52.9848 2.88386 0
3 -10 4 51.6893 3.4016 0
-3 10 -5 17.6797 8.19863 0
3 -10 5 18.0565 4.86879 0
3 -10 5 17.144 7.33609 0
-3 10 -6 -0.4697 1.44421 0
3 -10 6 0.17778 1.08645 0
3 -10 6 1.63955 1.08425 0
-3 10 -7 0.37374 1.71243 0
3 -10 7 0.1478 0.65034 0
3 -10 7 0.57644 0.92906 0
-3 10 -8 30.5436 2.3439 0
3 -10 8 32.5573 2.47963 0
3 -10 8 28.2888 2.0542 0
-3 10 -9 7.97771 5.85421 0
3 -10 9 12.5062 3.40072 0
3 -10 9 6.80726 4.65076 0
-3 9 17 50.0554 5.28108 0
-3 9 16 12.7558 6.70896 0
-3 9 15 37.8193 3.14288 0
-3 9 14 1.05119 1.44401 0
-3 9 13 55.046 4.35296 0
-3 9 12 2.31565 1.946 0
3 -9 -12 1.6479 1.20433 0
-3 9 11 115.791 8.29061 0
3 -9 -11 108.336 5.53617 0
-3 9 10 9.01728 2.66911 0
3 -9 -10 7.75486 3.34412 0
-3 9 9 110.065 5.36565 0
3 -9 -9 100.102 4.70961 0
-3 9 8 0.81952 0.69576 0
3 -9 -8 2.62356 1.61153 0
-3 9 7 152.88 7.3237 0
3 -9 -7 135.937 8.13964 0
-3 9 6 1.20511 1.15322 0
3 -9 -6 0.44399 1.16763 0
-3 9 5 28.6922 9.93954 0
3 -9 -5 30.7583 2.58556 0
-3 9 4 -0.55888 2.55612 0
3 -9 -4 0.77654 1.00892 0
-3 9 3 286.805 11.5898 0
3 -9 -3 288.67 11.4097 0
-3 9 2 0.93426 1.50308 0
3 -9 -2 -0.5806 1.82432 0
-3 9 1 20.2481 7.4407 0
3 -9 -1 22.3133 7.76879 0
-3 9 0 2.59748 2.37716 0
3 -9 0 3.32803 2.11335 0
-3 9 -1 174.185 7.98331 0
3 -9 1 176.662 8.39374 0
-3 9 -2 0.75665 1.19895 0
3 -9 2 -0.08902 0.84566 0
3 -9 2 -0.6565 1.49938 0
-3 9 -3 42.3892 5.04531 0
3 -9 3 38.9599 2.49968 0
3 -9 3 40.1112 3.90491 0
-3 9 -4 34.452 4.02903 0
3 -9 4 32.8388 2.45245 0
3 -9 4 29.6125 2.44984 0
-3 9 -5 152.647 11.0604 0
3 -9 5 149.208 7.12734 0
3 -9 5 147.96 7.66687 0
3 -9 6 3.27366 1.76293 0
-3 9 -7 1.04075 1.8836 0
3 -9 7 1.22702 1.15484 0
3 -9 7 1.04308 1.26194 0
-3 9 -8 10.2058 5.2302 0
3 -9 8 11.3336 6.22844 0
3 -9 8 12.3408 5.18776 0
-3 9 -9 48.0689 5.45966 0
3 -9 9 52.8344 4.66933 0
3 -9 9 53.8704 4.17164 0
-3 9 -10 0.95449 1.51212 0
3 -9 10 1.96189 1.33303 0
-3 9 -11 0.92827 1.38562 0
3 -9 11 0.93409 1.24222 0
3 -9 11 0.9554 1.2364 0
-3 8 18 5.83139 2.05546 0
-3 8 17 2.52237 1.6676 0
-3 8 16 67.9389 4.72448 0
-3 8 15 34.7429 2.36682 0
-3 8 14 15.1224 5.81542 0
-3 8 13 2.22956 1.29711 0
3 -8 -13 2.3715 0.98629 0
-3 8 12 45.673 6.58011 0
3 -8 -12 48.4648 6.92171 0
-3 8 11 169.48 8.65782 0
3 -8 -11 162.163 7.7401 0
-3 8 10 13.705 4.14638 0
3 -8 -10 16.2986 5.77792 0
-3 8 9 2.34906 2.37241 0
3 -8 -9 0.48148 1.91135 0
-3 8 8 65.7257 8.75422 0
3 -8 -8 52.8467 3.82133 0
-3 8 7 209.652 7.8491 0
-3 8 7 198.326 5.85598 0
3 -8 -7 202.895 7.22278 0
-3 8 6 24.9665 2.61127 0
-3 8 6 24.275 0.88411 0
3 -8 -6 28.9197 8.50319 0
-3 8 5 2.1422 1.98459 0
3 -8 -5 2.08108 1.34772 0
-3 8 4 44.6065 6.35095 0
3 -8 -4 44.4403 2.99462 0
-3 8 3 222.388 8.3925 0
3 -8 -3 240.02 9.59659 0
-3 8 2 53.9584 8.84155 0
3 -8 -2 41.8513 1.35216 0
3 -8 -2 45.6091 6.81987 0
-3 8 1 15.2679 5.44372 0
3 -8 -1 10.0981 4.73268 0
-3 8 0 0.30282 1.7428 0
3 -8 0 1.99407 1.73958 0
-3 8 -1 266.402 9.33999 0
3 -8 1 243.292 8.56166 0
-3 8 -2 18.3037 5.59503 0
3 -8 2 18.4676 1.80315 0
3 -8 2 16.7325 6.37135 0
-3 8 -3 20.2285 7.49192 0
3 -8 3 23.4638 1.80143 0
3 -8 3 28.9344 6.55204 0
-3 8 -4 2.67204 1.16774 0
3 -8 4 0.35998 0.54729 0
3 -8 4 -0.9336 1.77648 0
-3 8 -5 146.695 8.79913 0
3 -8 5 132.238 7.61273 0
3 -8 5 139.738 8.46581 0
-3 8 -6 7.47469 3.35212 0
3 -8 6 11.5864 4.99304 0
3 -8 6 9.96715 3.20884 0
-3 8 -7 -0.45156 1.61273 0
3 -8 7 2.32491 0.93925 0
3 -8 7 2.95194 1.32889 0
-3 8 -8 1.08445 1.02298 0
3 -8 8 0.64182 1.23446 0
3 -8 8 1.04265 1.14593 0
-3 8 -9 74.5088 3.70741 0
3 -8 9 69.1175 3.70272 0
3 -8 9 70.1245 3.53644 0
-3 8 -10 1.49689 1.55936 0
3 -8 10 1.22919 1.28273 0
3 -8 10 1.17788 1.53928 0
-3 8 -11 5.72031 2.24658 0
3 -8 11 4.47621 2.16392 0
3 -8 11 6.31586 2.94175 0
-3 8 -12 0.65051 1.61021 0
3 -8 12 1.68048 2.01577 0
3 -8 12 1.15646 1.1926 0
-3 8 -13 43.3836 3.556 0
3 -8 13 47.7768 4.25997 0
3 -8 13 38.7374 4.79841 0
-3 7 18 42.3417 4.92547 0
-3 7 17 1.4863 1.26263 0
-3 7 16 45.077 2.53453 0
-3 7 15 6.36172 3.96001 0
-3 7 14 62.8021 3.1801 0
-3 7 13 2.94227 1.55076 0
-3 7 12 92.0103 5.25868 0
-3 7 12 87.7201 3.93159 0
3 -7 -12 97.1007 4.15231 0
-3 7 11 27.5425 2.16578 0
-3 7 11 27.8212 1.8203 0
3 -7 -11 23.0368 5.65831 0
-3 7 10 210.27 8.36726 0
-3 7 10 209.106 7.34856 0
3 -7 -10 218.592 9.67616 0
-3 7 9 33.9989 2.75795 0
-3 7 9 31.5306 1.66862 0
3 -7 -9 27.2772 4.21248 0
-3 7 8 33.9866 7.45832 0
-3 7 8 26.5545 1.53294 0
3 -7 -8 26.62 1.49691 0
3 -7 -8 28.3855 2.01116 0
-3 7 7 61.8272 6.79341 0
-3 7 7 56.9369 2.82747 0
3 -7 -7 57.7389 2.02545 0
3 -7 -7 57.4399 2.84107 0
-3 7 6 161.868 7.84207 0
-3 7 6 153.995 5.51823 0
3 -7 -6 160.727 7.05225 0
-3 7 5 14.3933 6.25405 0
-3 7 5 13.4705 0.77139 0
3 -7 -5 12.8542 5.18708 0
-3 7 4 1.71279 3.3778 0
3 -7 -4 0.79391 0.70938 0
3 -7 -4 -0.00368 1.91127 0
-3 7 3 113.41 13.0482 0
3 -7 -3 107.974 3.23881 0
3 -7 -3 105.471 5.17986 0
-3 7 2 207.877 8.22642 0
3 -7 -2 209.126 5.65963 0
3 -7 -2 205.418 10.4574 0
-3 7 1 78.227 14.8467 0
3 -7 -1 66.899 2.45712 0
3 -7 -1 57.4417 8.19535 0
-3 7 0 1.399 1.46126 0
3 -7 0 0.25636 0.52005 0
3 -7 0 -0.3113 1.30378 0
-3 7 -1 107.892 6.40795 0
3 -7 1 97.4173 7.77058 0
-3 7 -2 137.14 6.84882 0
3 -7 2 122.717 5.20287 0
3 -7 2 111.276 5.75036 0
-3 7 -3 59.4634 8.42058 0
3 -7 3 54.0408 3.04854 0
3 -7 3 60.5695 3.71288 0
-3 7 -4 1.61745 1.84155 0
3 -7 4 5.9956 1.91625 0
3 -7 4 6.48603 2.34497 0
-3 7 -5 89.5839 5.31443 0
3 -7 5 83.5704 2.94587 0
3 -7 5 89.8023 4.73711 0
-3 7 -6 92.9554 4.4313 0
3 -7 6 100.176 4.38935 0
3 -7 6 98.1147 3.40662 0
-3 7 -7 15.8375 4.16368 0
3 -7 7 19.466 6.42536 0
3 -7 7 20.8126 2.10342 0
-3 7 -8 1.97379 2.05558 0
3 -7 8 1.19954 1.75569 0
3 -7 8 1.34403 1.69299 0
-3 7 -9 17.1847 7.15706 0
3 -7 9 19.8721 3.22906 0
3 -7 9 22.4951 2.0375 0
-3 7 -10 25.5826 3.7808 0
3 -7 10 25.6094 1.96114 0
3 -7 10 35.5273 5.74194 0
-3 7 -11 49.1833 4.05398 0
3 -7 11 51.6951 3.65458 0
3 -7 11 47.4888 2.64109 0
-3 7 -12 2.70228 1.86862 0
3 -7 12 2.71103 1.44632 0
3 -7 12 1.35661 0.74176 0
-3 7 -13 17.9695 4.46812 0
3 -7 13 18.019 1.87187 0
3 -7 13 15.6147 2.57356 0
-3 7 -14 18.6157 2.14759 0
3 -7 14 13.678 5.405 0
-3 6 19 3.86085 3.25771 0
-3 6 18 92.5503 6.11079 0
-3 6 17 1.16342 1.92453 0
-3 6 16 4.01404 2.9103 0
-3 6 15 9.72812 3.38136 0
-3 6 15 8.50966 2.25587 0
-3 6 14 175.583 8.75766 0
-3 6 14 152.238 6.9723 0
-3 6 13 5.27166 1.63718 0
-3 6 13 3.20233 1.2355 0
-3 6 12 9.17928 3.44077 0
-3 6 12 8.46417 2.79892 0
3 -6 -12 8.53744 2.68169 0
-3 6 11 0.2401 1.40674 0
-3 6 11 0.3663 0.35091 0
3 -6 -11 0.72953 0.9881 0
-3 6 10 493.65 14.9936 0
-3 6 10 499.147 13.9921 0
3 -6 -10 514.05 14.8899 0
-3 6 9 3.70601 2.53102 0
-3 6 9 4.67265 1.80006 0
3 -6 -9 4.36523 1.17499 0
3 -6 -9 6.90991 2.66423 0
-3 6 8 2.5523 2.81113 0
-3 6 8 3.70983 0.86275 0
3 -6 -8 3.28205 1.0389 0
3 -6 -8 5.53958 2.09577 0
-3 6 7 3.20812 2.0244 0
-3 6 7 1.46646 0.81428 0
3 -6 -7 1.50039 0.61071 0
3 -6 -7 2.12995 1.02539 0
-3 6 6 324.263 11.6961 0
-3 6 6 330.07 8.13419 0
3 -6 -6 328.619 9.60063 0
-3 6 5 1.67687 1.71323 0
-3 6 5 0.84853 0.58185 0
3 -6 -5 0.73136 1.06673 0
-3 6 4 103.018 5.70858 0
3 -6 -4 94.4349 5.28373 0
-3 6 3 4.16155 2.35055 0
3 -6 -3 1.3844 2.22925 0
-3 6 2 658.125 20.3037 0
3 -6 -2 662.388 18.814 0
3 -6 -2 696.006 21.4314 0
-3 6 1 11.3447 4.00128 0
3 -6 -1 8.99343 3.30011 0
3 -6 -1 11.7393 5.71011 0
-3 6 0 121.031 7.14291 0
3 -6 0 114.361 5.22318 0
3 -6 0 109.388 5.80907 0
-3 6 -1 2.62916 1.83714 0
3 -6 1 0.78385 0.70628 0
3 -6 1 1.286 0.84917 0
3 -6 1 0.59605 2.51076 0
-3 6 -2 95.0296 10.7666 0
3 -6 2 96.7044 5.99742 0
3 -6 2 95.2888 6.34833 0
-3 6 -3 41.4736 9.65281 0
3 -6 3 35.6912 2.98549 0
3 -6 3 36.1875 4.78601 0
-3 6 -4 67.6663 3.78764 0
3 -6 4 77.6282 3.66628 0
3 -6 4 80.5185 4.80993 0
-3 6 -5 41.5676 4.20225 0
3 -6 5 40.112 3.31001 0
3 -6 5 49.5802 3.38699 0
-3 6 -6 118.122 5.14801 0
3 -6 6 123.532 5.68274 0
3 -6 6 126.498 5.32404 0
3 -6 7 27.1093 2.2381 0
3 -6 7 21.1674 2.09309 0
-3 6 -8 87.367 4.26225 0
3 -6 8 79.1063 3.91455 0
3 -6 8 80.9527 3.76768 0
-3 6 -9 3.07379 1.9646 0
3 -6 9 4.28278 1.35441 0
3 -6 9 2.62612 0.68148 0
-3 6 -10 93.2223 4.98879 0
3 -6 10 90.744 4.94592 0
3 -6 10 83.4377 4.82 0
-3 6 -11 44.8895 4.89177 0
3 -6 11 36.6165 7.14002 0
3 -6 11 42.8502 2.25832 0
-3 6 -12 18.4059 7.63478 0
3 -6 12 18.4201 6.63276 0
3 -6 12 17.8777 1.82164 0
-3 6 -13 4.21721 2.65362 0
3 -6 13 5.8478 3.39074 0
3 -6 13 4.21944 3.5404 0
-3 6 -14 22.925 2.03745 0
3 -6 14 22.8556 2.30659 0
3 -6 14 20.4439 1.33517 0
-3 6 -15 14.7293 1.53142 0
3 -6 15 11.2139 4.23264 0
-3 5 19 11.7084 1.37618 0
-3 5 18 33.54 2.13459 0
-3 5 18 33.643 1.77113 0
-3 5 17 62.6185 3.03834 0
-3 5 17 52.431 2.12035 0
-3 5 16 8.3759 2.9318 0
-3 5 16 6.14963 3.33224 0
-3 5 15 11.3257 4.61427 0
-3 5 15 12.7128 3.4028 0
-3 5 14 81.7616 5.01887 0
-3 5 14 78.3249 3.59463 0
-3 5 13 52.5074 2.73555 0
-3 5 13 55.8476 3.50301 0
-3 5 12 62.7604 4.63709 0
-3 5 12 65.2202 2.23563 0
3 -5 -12 62.8955 1.67365 0
-3 5 11 36.1248 2.83952 0
-3 5 11 28.4147 2.27227 0
3 -5 -11 31.1825 4.27721 0
-3 5 10 33.6106 4.44137 0
-3 5 10 30.5895 1.65293 0
3 -5 -10 31.5202 3.0593 0
-3 5 9 80.0533 4.02395 0
-3 5 9 80.9935 2.98742 0
3 -5 -9 86.2317 3.30948 0
-3 5 8 45.3577 3.57238 0
-3 5 8 43.8098 3.20214 0
3 -5 -8 47.2089 3.41877 0
3 -5 -8 50.0723 3.20214 0
-3 5 7 2.22403 2.10871 0
-3 5 7 5.35414 1.48268 0
3 -5 -7 4.24212 1.14084 0
3 -5 -7 2.1293 1.51151 0
-3 5 6 116.974 5.52212 0
-3 5 6 118.066 3.85903 0
3 -5 -6 115.44 4.02663 0
3 -5 -6 115.234 4.92908 0
-3 5 5 205.323 7.8704 0
-3 5 5 190.377 5.92736 0
3 -5 -5 200.883 7.55326 0
-3 5 4 483.317 17.8755 0
-3 5 4 432.66 14.8778 0
3 -5 -4 476.487 16.3352 0
3 -5 -4 468.051 17.9355 0
-3 5 3 21.1361 6.08741 0
3 -5 -3 22.6272 2.45856 0
-3 5 2 335.597 11.8767 0
3 -5 -2 315.785 11.3656 0
-3 5 1 11.6766 3.57663 0
3 -5 -1 11.5188 2.29516 0
3 -5 -1 14.7369 8.50644 0
-3 5 0 675.267 21.7007 0
3 -5 0 698 21.0053 0
3 -5 0 720.802 21.8426 0
3 -5 0 724.97 23.0538 0
-3 5 -1 3.30618 1.9726 0
3 -5 1 0.43527 0.3195 0
3 -5 1 0.25931 1.1391 0
3 -5 1 -0.82886 2.40323 0
-3 5 -2 51.3011 4.12654 0
3 -5 2 57.3675 3.08929 0
3 -5 2 54.2422 5.28054 0
3 -5 2 55.7016 4.05919 0
-3 5 -3 1.95424 1.62565 0
3 -5 3 0.62259 0.67015 0
3 -5 3 1.6343 2.08395 0
-3 5 -4 407.308 13.3435 0
3 -5 4 416.315 13.0244 0
3 -5 4 426.882 14.1726 0
-3 5 -5 15.8637 5.56043 0
3 -5 5 18.1299 1.86935 0
3 -5 5 18.5625 6.27086 0
-3 5 -6 97.0036 4.47686 0
3 -5 6 76.1626 4.00227 0
3 -5 6 86.6448 7.2422 0
-3 5 -7 1.22003 2.36293 0
3 -5 7 -0.68714 1.71084 0
3 -5 7 1.9247 2.03338 0
-3 5 -8 298.909 10.0125 0
3 -5 8 279.64 9.17021 0
3 -5 8 285.208 9.28208 0
-3 5 -9 14.7967 4.72366 0
3 -5 9 13.4616 4.46037 0
3 -5 9 13.9387 2.25806 0
-3 5 -10 26.4077 7.24284 0
3 -5 10 25.1741 2.25313 0
3 -5 10 25.4291 1.75211 0
-3 5 -11 6.44569 7.27101 0
3 -5 11 1.46355 1.25448 0
3 -5 11 0.90784 0.86933 0
-3 5 -12 99.4573 5.1798 0
3 -5 12 99.3596 5.30062 0
3 -5 12 96.262 4.42918 0
-3 5 -13 0.46447 0.67143 0
3 -5 13 -0.33692 1.41746 0
3 -5 13 0.45243 0.61848 0
-3 5 -14 4.19366 1.53421 0
3 -5 14 3.01419 1.61555 0
3 -5 14 2.56681 1.79406 0
-3 5 -15 0.0976 0.75958 0
3 -5 15 1.3961 1.05875 0
-3 5 -16 79.2807 6.04255 0
3 -5 16 82.463 5.5993 0
-3 4 19 1.33232 1.82718 0
-3 4 19 0.41071 0.52491 0
-3 4 18 2.47466 2.11869 0
-3 4 18 1.72411 1.45606 0
-3 4 17 139.36 6.78643 0
-3 4 17 129.393 6.02679 0
-3 4 16 5.10303 2.34113 0
-3 4 16 4.83883 2.71787 0
-3 4 15 4.34907 2.09973 0
-3 4 15 1.69553 1.43044 0
-3 4 14 2.46966 1.27011 0
-3 4 14 2.84222 1.49591 0
-3 4 13 250.005 13.2726 0
-3 4 13 245.47 9.0956 0
-3 4 12 94.7269 6.33326 0
-3 4 12 94.9125 3.93629 0
3 -4 -12 94.2853 1.45611 0
-3 4 11 21.6412 2.29933 0
-3 4 11 26.2501 1.7674 0
3 -4 -11 21.0337 2.5979 0
-3 4 10 13.3869 3.28392 0
-3 4 10 15.655 4.03749 0
3 -4 -10 15.0898 2.81479 0
-3 4 9 465.685 14.8792 0
-3 4 9 442.079 13.1077 0
3 -4 -9 462.428 13.8147 0
-3 4 8 129.241 6.69895 0
-3 4 8 119.842 5.38436 0
3 -4 -8 128.099 6.06895 0
-3 4 7 22.5597 4.74261 0
-3 4 7 19.3401 1.25579 0
3 -4 -7 20.0615 6.10528 0
-3 4 6 40.966 7.81586 0
-3 4 6 32.9238 1.22167 0
3 -4 -6 33.7634 2.43862 0
-3 4 5 346.371 12.6617 0
-3 4 5 341.588 10.5191 0
3 -4 -5 349.06 11.8564 0
-3 4 4 305.979 10.7796 0
-3 4 4 293.766 8.899 0
3 -4 -4 306.275 10.6393 0
-3 4 3 178.784 7.42473 0
3 -4 -3 173.657 6.7644 0
-3 4 2 9.03079 4.06906 0
3 -4 -2 7.31116 1.54438 0
3 -4 -2 9.0746 1.36913 0
3 -4 -2 11.6431 4.29907 0
-3 4 1 422.574 14.4064 0
3 -4 -1 421.483 12.9245 0
3 -4 -1 437.493 14.737 0
-3 4 0 361.286 13.8172 0
3 -4 0 355.451 11.3969 0
3 -4 0 360.521 11.2931 0
3 -4 0 379.993 13.2217 0
-3 4 -1 87.2844 5.22082 0
3 -4 1 97.6833 3.94367 0
3 -4 1 94.0122 4.02383 0
3 -4 1 96.7001 10.447 0
-3 4 -2 71.9275 6.14103 0
3 -4 2 65.3736 2.59059 0
3 -4 2 65.6729 4.1439 0
-3 4 -3 32.2732 3.82584 0
3 -4 3 43.6324 4.92528 0
3 -4 3 39.56 2.68697 0
-3 4 -4 500.153 19.9902 0
3 -4 4 446.107 18.5604 0
3 -4 4 518.48 19.1258 0
-3 4 -5 74.3009 10.6535 0
3 -4 5 56.407 4.61239 0
3 -4 5 72.5768 8.67358 0
-3 4 -6 56.7808 4.03497 0
3 -4 6 54.8423 3.92682 0
3 -4 6 57.8706 8.08242 0
-3 4 -7 17.3607 2.78604 0
3 -4 7 17.6947 1.84295 0
3 -4 7 24.1117 7.77263 0
-3 4 -8 270.678 8.44935 0
3 -4 8 272.079 11.3059 0
3 -4 8 274.735 8.68648 0
-3 4 -9 93.3105 4.75047 0
3 -4 9 102.283 5.20144 0
3 -4 9 108.725 6.40855 0
-3 4 -10 0.92728 1.37352 0
3 -4 10 0.52219 1.78494 0
3 -4 10 0.31331 1.46213 0
-3 4 -11 0.02378 0.9603 0
3 -4 11 2.12574 0.97814 0
3 -4 11 1.2249 0.77894 0
-3 4 -12 108.9 6.66909 0
3 -4 12 116.271 8.00458 0
3 -4 12 109.892 6.42653 0
-3 4 -13 13.5298 6.08414 0
3 -4 13 13.9707 6.55873 0
3 -4 13 16.2036 1.2967 0
-3 4 -14 4.0388 2.53695 0
3 -4 14 6.36777 3.0545 0
3 -4 14 3.54786 1.96136 0
-3 4 -15 4.04481 1.75645 0
3 -4 15 4.2621 2.14803 0
-3 4 -16 48.5468 3.63555 0
3 -4 16 41.5915 7.42585 0
-3 4 -17 4.90561 3.0987 0
3 -4 17 3.70893 2.41318 0
-3 3 20 3.1994 2.83446 0
-3 3 20 1.85497 2.29744 0
-3 3 19 24.6742 1.90362 0
-3 3 19 27.4133 1.7964 0
-3 3 18 0.13456 1.13939 0
-3 3 18 0.79649 0.89632 0
-3 3 17 106.964 5.53107 0
-3 3 17 90.3686 4.64749 0
-3 3 16 7.33679 3.17704 0
-3 3 16 5.13252 3.29894 0
-3 3 15 116.417 5.28378 0
-3 3 15 121.457 5.26235 0
-3 3 14 2.39269 1.2108 0
-3 3 14 0.74266 1.06053 0
-3 3 13 189.243 6.95337 0
-3 3 13 188.806 6.49187 0
-3 3 12 8.7518 2.82806 0
-3 3 12 6.71665 1.97238 0
-3 3 11 243.888 7.79611 0
-3 3 11 235.852 7.14227 0
3 -3 -11 225.716 5.62378 0
-3 3 10 2.6573 2.30041 0
-3 3 10 1.77283 0.98921 0
3 -3 -10 1.5168 0.66336 0
-3 3 9 197.442 9.814 0
-3 3 9 197.339 8.39836 0
3 -3 -9 202.341 7.95 0
-3 3 8 26.4176 8.74804 0
-3 3 8 18.4038 3.00352 0
3 -3 -8 20.6553 2.85223 0
-3 3 7 517.008 16.6737 0
-3 3 7 484.048 14.946 0
3 -3 -7 511.906 16.0515 0
-3 3 6 3.48976 2.50811 0
-3 3 6 1.63438 1.13584 0
3 -3 -6 1.61896 0.91998 0
-3 3 5 313.035 11.6729 0
-3 3 5 292.673 9.15512 0
3 -3 -5 296.381 10.4113 0
-3 3 5 302.459 10.0821 0
-3 3 4 34.6328 7.69748 0
-3 3 4 27.0803 1.24041 0
3 -3 -4 31.8274 6.01075 0
-3 3 4 33.6938 6.06872 0
-3 3 3 665.909 17.3193 0
3 -3 -3 713.634 18.2082 0
3 -3 -3 674.508 17.4705 0
-3 3 3 726.2 18.6073 0
-3 3 2 184.151 7.97738 0
3 -3 -2 178.599 5.65816 0
3 -3 -2 184.468 5.96905 0
-3 3 2 183.996 5.98148 0
-3 3 1 32.6717 2.69379 0
3 -3 -1 28.6813 2.80708 0
3 -3 -1 32.5584 0.75527 0
3 -3 -1 34.1759 1.40354 0
3 -3 -1 29.6695 7.04917 0
-3 3 1 33.5717 3.07143 0
-3 3 0 104.881 5.04063 0
3 -3 0 113.903 4.47638 0
3 -3 0 114.06 3.12845 0
3 -3 0 111.602 3.2413 0
3 -3 0 96.5618 4.10021 0
-3 3 0 117.126 8.33208 0
-3 3 -1 521.426 17.4249 0
3 -3 1 527.904 17.1975 0
3 -3 1 473.257 15.4396 0
3 -3 1 472.513 11.9301 0
-3 3 -2 17.9823 13.3294 0
3 -3 2 20.9081 3.97034 0
3 -3 2 18.8309 2.24333 0
3 -3 2 20.463 3.63206 0
-3 3 -3 82.0373 4.9002 0
3 -3 3 81.2969 6.00232 0
3 -3 3 81.2856 5.73668 0
3 -3 3 78.9062 4.80977 0
-3 3 -4 157.703 6.77868 0
3 -3 4 148.067 4.1981 0
3 -3 4 161.603 6.50732 0
-3 3 -5 597.107 18.9519 0
3 -3 5 559.238 17.8242 0
3 -3 5 594.857 18.9966 0
-3 3 -6 3.68177 2.48531 0
3 -3 6 8.69858 3.45541 0
3 -3 6 6.79534 2.21276 0
-3 3 -7 6.74627 2.20576 0
3 -3 7 7.16335 3.94715 0
3 -3 7 7.9072 2.05957 0
-3 3 -8 190.989 8.64017 0
3 -3 8 195.814 9.64222 0
3 -3 8 186.18 8.29005 0
-3 3 -9 197.691 7.49485 0
3 -3 9 200.974 9.42912 0
3 -3 9 199.815 6.48112 0
-3 3 -10 52.0975 3.03544 0
3 -3 10 62.1286 8.43598 0
3 -3 10 56.1127 4.45863 0
-3 3 -11 0.49424 1.84941 0
3 -3 11 1.22762 1.51779 0
3 -3 11 0.60265 0.64092 0
-3 3 -12 97.9596 3.26492 0
3 -3 12 92.4614 4.54107 0
3 -3 12 94.5039 3.85827 0
-3 3 -13 106.469 6.41291 0
3 -3 13 107.152 6.69998 0
3 -3 13 109.797 6.43521 0
-3 3 -14 3.04125 1.33071 0
3 -3 14 5.63291 2.43662 0
3 -3 14 1.68212 1.35397 0
-3 3 -15 2.08859 1.3267 0
3 -3 15 1.89872 1.10318 0
3 -3 15 0.80275 0.67777 0
-3 3 -16 16.0083 2.18683 0
3 -3 16 12.3015 6.60987 0
-3 3 -17 77.3792 3.844 0
3 -3 17 74.8165 7.26858 0
-3 3 -18 45.6104 3.61102 0
3 -3 18 40.2516 5.58386 0
-3 2 20 37.8082 3.18505 0
-3 2 20 37.1141 2.97321 0
-3 2 19 58.1826 7.80063 0
-3 2 19 67.4967 4.66822 0
-3 2 18 0.66183 1.87881 0
-3 2 18 2.14006 0.9209 0
-3 2 17 12.8583 5.61253 0
-3 2 17 10.7987 5.09298 0
-3 2 16 47.4451 2.64781 0
-3 2 16 46.6635 4.41134 0
-3 2 15 138.12 7.17639 0
-3 2 15 124.014 3.80324 0
-3 2 14 13.5194 3.98231 0
-3 2 14 14.3713 6.59634 0
-3 2 13 60.8798 7.52693 0
-3 2 13 70.2752 5.96103 0
-3 2 12 81.5503 4.18612 0
-3 2 12 76.6165 3.49573 0
-3 2 11 223.219 7.21221 0
-3 2 11 218.583 6.89338 0
-3 2 10 28.8526 8.13925 0
-3 2 10 26.9725 5.81204 0
-3 2 9 14.7773 5.31313 0
-3 2 9 14.4857 5.57471 0
3 -2 -9 12.2815 1.30362 0
-3 2 8 105.584 6.04679 0
-3 2 8 96.5302 5.14977 0
3 -2 -8 102.126 4.92202 0
-3 2 7 698.459 21.9441 0
-3 2 7 662.784 20.3864 0
3 -2 -7 691.966 20.791 0
-3 2 6 73.1788 8.55272 0
-3 2 6 67.2957 4.11432 0
3 -2 -6 68.647 4.61419 0
-3 2 6 69.0919 3.51557 0
-3 2 5 4.53249 3.4127 0
-3 2 5 1.80707 1.39233 0
3 -2 -5 1.65895 1.29754 0
-3 2 5 4.21848 1.46936 0
-3 2 4 4.12759 2.15545 0
3 -2 -4 3.80522 2.61056 0
-3 2 4 3.41964 1.30844 0
3 -2 -4 3.77362 2.14913 0
-3 2 4 4.8545 1.91525 0
-3 2 3 766.262 16.516 0
3 -2 -3 770.166 17.8663 0
-3 2 3 732.564 14.3808 0
-3 2 3 733.243 14.4074 0
3 -2 -3 733.13 16.975 0
-3 2 3 782.871 16.7289 0
-3 2 2 10.0756 3.6319 0
3 -2 -2 6.47127 3.18395 0
3 -2 -2 9.52427 3.28043 0
-3 2 2 8.38025 3.43204 0
-3 2 1 27.1358 9.78264 0
3 -2 -1 25.8717 4.78247 0
3 -2 -1 28.0698 3.82036 0
-3 2 1 26.5529 2.54925 0
-3 2 0 1.05522 1.9205 0
3 -2 0 0.809 1.20295 0
3 -2 0 1.03412 0.64017 0
3 -2 0 1.55469 2.78578 0
-3 2 0 3.40485 1.92754 0
-3 2 -1 209.68 8.66568 0
3 -2 1 212.597 6.50445 0
3 -2 1 218.741 5.88795 0
-3 2 -1 225.107 5.89488 0
3 -2 1 209.355 7.13481 0
-3 2 -1 200.53 6.24123 0
-3 2 -2 2.09275 1.56956 0
3 -2 2 4.15867 1.97872 0
3 -2 2 2.38788 1.40858 0
-3 2 -2 3.87025 1.42871 0
3 -2 2 5.02394 2.36105 0
-3 2 -2 1.22748 1.68359 0
-3 2 -3 184.468 6.02236 0
3 -2 3 179.072 6.00957 0
3 -2 3 183.72 5.77303 0
-3 2 -3 191.149 5.65795 0
3 -2 3 183.158 6.3612 0
-3 2 -3 177.666 5.86253 0
-3 2 -4 9.82881 4.17544 0
3 -2 4 8.91562 3.23822 0
3 -2 4 11.7934 4.05529 0
-3 2 -4 7.28149 2.81767 0
3 -2 4 10.9162 5.95376 0
-3 2 -5 868.443 22.9198 0
3 -2 5 1009.03 25.1019 0
3 -2 5 940.188 23.7514 0
-3 2 -5 912.591 22.8808 0
3 -2 5 936.543 23.8462 0
-3 2 -6 24.3277 4.4798 0
3 -2 6 21.5041 2.94196 0
3 -2 6 23.8906 3.04997 0
-3 2 -7 299.534 12.1277 0
3 -2 7 309.582 10.9414 0
3 -2 7 303.901 12.2505 0
-3 2 -8 21.2232 1.9076 0
3 -2 8 21.4148 3.08352 0
3 -2 8 18.3139 1.68113 0
-3 2 -9 258.85 12.2428 0
3 -2 9 265.76 13.5212 0
3 -2 9 268.738 11.029 0
-3 2 -10 2.60323 1.66338 0
3 -2 10 2.23773 1.6783 0
3 -2 10 1.0219 1.186 0
-3 2 -11 55.2177 5.467 0
3 -2 11 49.5658 8.22617 0
3 -2 11 52.9378 3.26924 0
-3 2 -12 21.9972 3.23469 0
3 -2 12 24.4786 7.56133 0
3 -2 12 19.8101 1.55721 0
-3 2 -13 183.323 7.75837 0
3 -2 13 199.514 8.46743 0
3 -2 13 188.854 7.17339 0
-3 2 -14 2.15713 1.25581 0
3 -2 14 2.06095 2.14064 0
3 -2 14 1.74219 0.98651 0
-3 2 -15 75.7479 4.11709 0
3 -2 15 67.6357 4.83676 0
3 -2 15 70.7306 3.26773 0
-3 2 -16 -0.95225 0.94988 0
3 -2 16 -0.57655 1.38702 0
-3 2 -17 48.9343 3.70868 0
3 -2 17 46.6707 2.62322 0
-3 2 -18 1.34191 1.77552 0
3 -2 18 2.99413 1.98307 0
-3 2 -19 31.4832 2.83911 0
3 -2 19 32.2999 3.66343 0
-3 1 19 19.1256 4.04773 0
-3 1 19 21.8549 3.36942 0
-3 1 18 46.6842 3.85915 0
-3 1 18 42.284 3.3029 0
-3 1 17 9.22418 4.75937 0
-3 1 17 5.45519 2.20573 0
-3 1 16 83.8718 3.93172 0
-3 1 16 87.8709 4.52086 0
-3 1 15 17.3465 6.45164 0
-3 1 15 23.2097 2.97207 0
-3 1 14 207.495 8.21976 0
3 -1 -13 4.23392 1.99354 0
-3 1 13 3.79647 1.41235 0
3 -1 -12 75.6463 4.72261 0
-3 1 12 76.3128 3.46753 0
3 -1 -11 84.6908 4.19353 0
-3 1 11 95.9708 5.37584 0
3 -1 -10 145.101 8.90035 0
-3 1 10 162.543 4.13389 0
3 -1 -9 32.6198 2.66462 0
-3 1 9 39.3162 2.1465 0
-3 1 8 86.7114 4.95358 0
-3 1 8 79.6804 4.24049 0
-3 1 7 379.367 13.0178 0
-3 1 7 369.729 12.1989 0
3 -1 -7 376.237 11.6305 0
-3 1 7 372.065 11.5679 0
-3 1 6 834.393 21.4404 0
-3 1 6 826.452 20.5492 0
3 -1 -6 817.786 19.9436 0
-3 1 6 845.476 20.4235 0
-3 1 5 23.9221 1.87028 0
-3 1 5 30.6887 2.92658 0
-3 1 5 30.3469 1.83299 0
3 -1 -5 28.2095 1.57824 0
-3 1 5 29.5889 1.49125 0
-3 1 4 43.6226 5.93396 0
-3 1 4 40.8828 3.20754 0
-3 1 4 40.6623 1.45676 0
3 -1 -4 40.8761 1.91784 0
-3 1 4 42.226 1.71069 0
-3 1 3 523.624 11.8543 0
-3 1 3 572.473 12.7967 0
-3 1 3 518.048 10.7631 0
3 -1 -3 596.607 12.9668 0
-3 1 3 591.477 12.7613 0
-3 1 2 691.467 9.63452 0
3 -1 -2 702.477 9.77501 0
-3 1 2 690.166 7.80079 0
3 -1 -2 700.229 9.9155 0
-3 1 2 723.691 9.99684 0
-3 1 1 706.224 9.41329 0
3 -1 -1 698.093 9.39812 0
3 -1 -1 620.587 7.57766 0
-3 1 1 668.662 7.58524 0
3 -1 -1 676.407 10.1339 0
-3 1 1 655.403 9.5119 0
-3 1 0 81.6887 3.10394 0
3 -1 0 82.3385 4.88527 0
3 -1 0 85.3736 3.21097 0
-3 1 0 80.3202 1.81191 0
3 -1 0 80.0679 5.30575 0
-3 1 0 87.866 5.09933 0
-3 1 -1 566.368 8.48545 0
3 -1 1 606.275 8.31135 0
3 -1 1 585.398 7.84961 0
-3 1 -1 578.646 7.56954 0
3 -1 1 642.752 10.2264 0
-3 1 -1 592.347 10.2189 0
-3 1 -2 157.152 6.22981 0
3 -1 2 155.892 8.04868 0
3 -1 2 158.404 5.9868 0
-3 1 -2 154.567 5.7217 0
3 -1 2 162.925 6.79682 0
-3 1 -2 156.85 6.22981 0
-3 1 -3 205.269 5.83164 0
3 -1 3 216.51 9.86026 0
3 -1 3 200.896 6.12744 0
-3 1 -3 202.509 5.98658 0
3 -1 3 205.727 6.6275 0
-3 1 -3 201.769 6.28943 0
-3 1 -4 31.6341 1.7836 0
3 -1 4 36.302 7.26039 0
3 -1 4 34.7438 2.35383 0
-3 1 -4 34.2133 3.01024 0
3 -1 4 38.0723 3.1959 0
-3 1 -4 32.6419 2.20132 0
-3 1 -5 425.463 9.79443 0
3 -1 5 450.02 10.4224 0
3 -1 5 427.403 10.7794 0
-3 1 -5 469.979 10.8902 0
3 -1 5 469.326 11.2165 0
-3 1 -5 456.638 10.724 0
-3 1 -6 13.2248 5.47313 0
3 -1 6 13.4114 1.5266 0
3 -1 6 16.0179 5.69929 0
3 -1 6 12.258 7.79129 0
-3 1 -6 15.0059 4.80595 0
-3 1 -7 492.583 16.9274 0
3 -1 7 546.657 17.8819 0
3 -1 7 500.636 16.6179 0
-3 1 -8 1.59927 1.6416 0
3 -1 8 -1.61808 2.67172 0
3 -1 8 1.07245 1.17593 0
-3 1 -9 200.108 8.24478 0
3 -1 9 202.433 8.00761 0
3 -1 9 206.978 7.40823 0
-3 1 -10 57.2852 3.82834 0
3 -1 10 52.9813 8.00834 0
3 -1 10 58.9875 3.87629 0
-3 1 -11 157.036 6.6315 0
3 -1 11 158.655 7.07018 0
3 -1 11 146.807 6.01733 0
-3 1 -12 -1.27303 1.73869 0
3 -1 12 1.82244 2.08375 0
3 -1 12 0.94137 1.46733 0
-3 1 -13 122.584 8.43892 0
3 -1 13 132.665 6.43453 0
3 -1 13 128.57 5.87998 0
-3 1 -14 18.9451 7.47901 0
3 -1 14 18.3544 6.94914 0
3 -1 14 20.9546 3.25741 0
-3 1 -15 189.7 9.28817 0
3 -1 15 180.396 9.79363 0
3 -1 15 188.077 8.62225 0
-3 1 -16 4.22624 1.75434 0
3 -1 16 3.52105 1.61825 0
-3 1 -17 11.0349 1.26751 0
3 -1 17 12.4611 6.09599 0
-3 1 -18 4.82177 3.41837 0
3 -1 18 7.95689 4.80031 0
-3 1 -19 73.3951 5.74113 0
3 -1 19 70.3428 5.25405 0
-3 0 19 0.63479 1.01963 0
3 0 -18 83.9924 4.20634 0
-3 0 18 84.9885 4.13168 0
3 0 -17 -0.05264 1.21983 0
-3 0 17 0.16707 0.95893 0
3 0 -16 0.99733 1.10568 0
-3 0 16 0.92345 0.92099 0
3 0 -15 1.66445 0.98802 0
-3 0 15 1.15047 1.7976 0
3 0 -14 282.915 12.2224 0
-3 0 14 271.571 11.3964 0
3 0 -13 0.36794 1.91392 0
-3 0 13 3.13525 1.99122 0
3 0 -12 -0.7163 1.83092 0
-3 0 12 0.8368 1.10792 0
3 0 -11 12.0373 4.79297 0
-3 0 11 15.9192 5.08933 0
3 0 -10 359.087 11.8836 0
-3 0 10 387.736 12.5284 0
3 0 -9 18.3454 8.45111 0
-3 0 9 20.5167 5.6124 0
3 0 -8 65.5055 5.88905 0
-3 0 8 73.5822 5.92226 0
3 0 -7 12.1405 7.76425 0
-3 0 7 14.1377 2.59854 0
-3 0 7 14.2998 1.56853 0
3 0 -6 414.705 13.8826 0
-3 0 6 430.367 13.2377 0
3 0 -5 1.99108 2.27462 0
-3 0 5 0.67419 0.90103 0
-3 0 5 0.39065 0.40326 0
3 0 -5 1.15306 0.88213 0
-3 0 5 0.36545 0.58598 0
3 0 -4 111.176 4.32401 0
-3 0 4 112.513 4.29673 0
-3 0 4 118.317 3.81931 0
3 0 -4 115.602 3.95572 0
-3 0 4 116.619 3.81931 0
3 0 -3 0.98275 0.859 0
-3 0 3 5.09575 3.44327 0
-3 0 3 3.44327 1.11378 0
3 0 -3 1.36129 1.52872 0
-3 0 3 1.70344 1.45593 0
-3 0 2 1362.31 16.1652 0
-3 0 2 1375.45 16.8763 0
3 0 -2 1505.37 17.641 0
-3 0 2 1345.99 15.5993 0
3 0 -2 1419.98 16.9298 0
-3 0 2 1371.46 16.2416 0
-3 0 1 313.739 11.022 0
-3 0 1 292.532 10.0193 0
3 0 -1 316.637 10.7062 0
-3 0 1 281.779 9.37973 0
3 0 -1 322.59 11.3299 0
-3 0 1 308.434 10.7377 0
-3 0 0 131.3 6.959 0
3 0 0 128.025 4.68471 0
3 0 0 124.181 4.62065 0
-3 0 0 123.364 4.61264 0
3 0 0 128.898 5.89393 0
-3 0 0 121.722 5.22125 0
-3 0 -1 367.799 13.1456 0
3 0 1 353.441 11.5583 0
3 0 1 395.454 13.0898 0
-3 0 -1 397.217 13.1536 0
3 0 1 385.172 13.8316 0
-3 0 -1 415.93 14.3741 0
-3 0 -2 1618.55 17.3786 0
3 0 2 1580.57 17.6283 0
3 0 2 1564.37 18.1746 0
-3 0 -2 1609.02 18.4945 0
3 0 2 1535.74 19.4388 0
-3 0 -2 1655.68 20.0865 0
-3 0 -3 900.259 10.8539 0
3 0 3 868.223 10.2538 0
3 0 3 896.876 11.9566 0
-3 0 -3 847.28 11.724 0
3 0 3 877.771 12.2641 0
-3 0 -3 941.38 12.7667 0
-3 0 -4 1186.66 23.9864 0
3 0 4 1107.87 22.2209 0
3 0 4 1171.04 24.4827 0
-3 0 -4 1244.98 25.7519 0
3 0 4 1158.2 24.2842 0
-3 0 -4 1175.14 24.4473 0
-3 0 -5 90.0129 3.45874 0
3 0 5 89.6763 3.28052 0
3 0 5 94.0525 4.30362 0
-3 0 -5 91.7093 7.94717 0
3 0 5 99.0624 4.25081 0
-3 0 -5 89.0888 3.82177 0
-3 0 -6 26.8203 1.9595 0
3 0 6 23.241 1.41351 0
3 0 6 28.5735 3.25775 0
-3 0 -6 22.2036 2.31743 0
3 0 6 31.1457 7.12215 0
-3 0 -6 20.2745 1.63797 0
-3 0 -7 692.647 17.6636 0
3 0 7 761.937 19.078 0
3 0 7 669.541 17.9398 0
3 0 7 656.624 18.0061 0
-3 0 -7 684.735 17.4481 0
-3 0 -8 200.441 9.24193 0
3 0 8 202.355 10.124 0
3 0 8 199.448 7.23717 0
-3 0 -8 195.89 8.75076 0
-3 0 -9 0.41928 1.3809 0
3 0 9 -0.34181 1.40824 0
3 0 9 0.70184 1.46293 0
-3 0 -10 119.237 6.12577 0
3 0 10 126.287 6.43938 0
3 0 10 115.323 6.6819 0
-3 0 -11 126.68 4.68157 0
3 0 11 132.346 5.53066 0
3 0 11 133.597 4.58122 0
-3 0 -12 94.0902 5.63423 0
3 0 12 94.1782 9.91442 0
3 0 12 85.6565 5.38804 0
-3 0 -13 14.6313 7.30595 0
3 0 13 17.2701 6.6083 0
3 0 13 15.878 2.1737 0
-3 0 -14 17.7813 1.58595 0
3 0 14 20.8752 11.5844 0
3 0 14 21.0761 1.26517 0
-3 0 -15 120.288 7.55254 0
3 0 15 112.85 7.65294 0
3 0 15 126.711 7.031 0
-3 0 -16 56.159 2.64753 0
3 0 16 57.6256 3.23673 0
-3 0 -17 0.7939 0.82251 0
3 0 17 -0.13351 1.78091 0
-3 0 -18 30.9234 4.27962 0
3 0 18 36.1802 2.89602 0
-3 0 -19 51.1255 2.64895 0
3 0 19 50.9085 3.06427 0
-3 0 -20 13.4283 5.34978 0
3 0 20 20.0194 2.28424 0
3 1 -19 5.68576 2.89334 0
-3 -1 19 4.64176 2.90498 0
3 1 -18 53.6124 3.09787 0
-3 -1 18 51.584 6.78781 0
3 1 -17 29.6903 2.06058 0
-3 -1 17 27.6745 3.98901 0
3 1 -16 15.2752 4.30245 0
-3 -1 16 14.2284 6.25877 0
3 1 -15 1.60096 1.18773 0
-3 -1 15 1.91804 1.30208 0
3 1 -14 154.902 7.41977 0
-3 -1 14 141.359 8.57277 0
3 1 -13 44.532 2.69002 0
-3 -1 13 46.3778 4.55396 0
3 1 -12 62.926 3.53998 0
-3 -1 12 74.1534 4.78093 0
3 1 -11 1.1647 2.12282 0
-3 -1 11 0.4096 1.32142 0
3 1 -10 333.688 10.0886 0
-3 -1 10 339.007 10.1591 0
3 1 -9 27.7871 3.52577 0
-3 -1 9 24.947 4.96486 0
-3 -1 9 24.4984 0.65606 0
-3 -1 9 23.7196 0.57987 0
3 1 -8 313.888 12.2354 0
-3 -1 8 322.137 12.2446 0
-3 -1 8 316.436 10.9776 0
3 1 -7 83.7778 9.16885 0
-3 -1 7 77.2068 3.41794 0
3 1 -6 651.206 17.2033 0
-3 -1 6 653.886 16.9616 0
-3 -1 6 618.671 15.1069 0
3 1 -5 199.031 6.44306 0
-3 -1 5 206.289 6.43072 0
-3 -1 5 203.642 6.10363 0
-3 -1 5 197.933 5.28282 0
3 1 -4 134.133 4.75835 0
-3 -1 4 127.677 4.69795 0
-3 -1 4 147.643 4.906 0
-3 -1 4 138.784 4.12748 0
3 1 -3 53.852 2.81612 0
-3 -1 3 49.8475 2.49922 0
-3 -1 3 49.0264 2.23993 0
-3 -1 3 50.6253 1.90142 0
3 1 -2 775.684 11.0726 0
-3 -1 2 747.367 10.9585 0
3 1 -2 739.399 10.9204 0
-3 -1 2 743.083 10.1746 0
3 1 -2 748.478 10.0833 0
-3 -1 2 782.358 10.9737 0
3 1 -1 46.857 2.26893 0
-3 -1 1 45.3786 1.84993 0
3 1 -1 45.9083 2.6405 0
-3 -1 1 42.9911 1.77878 0
3 1 -1 50.1141 3.16227 0
-3 -1 1 47.5448 3.96075 0
3 1 0 1071.04 12.0623 0
-3 -1 0 1025.47 11.4249 0
3 1 0 1164.9 14.1117 0
-3 -1 0 1019.49 12.385 0
3 1 0 1010.72 13.6034 0
-3 -1 0 1112.36 14.2489 0
-3 -1 -1 7.42371 0.97851 0
-3 -1 -1 7.71483 1.14024 0
3 1 1 7.72292 2.25623 0
-3 -1 -1 5.97617 2.85465 0
3 1 1 5.49904 3.59864 0
-3 -1 -1 9.74463 3.25899 0
3 1 2 375.684 12.9025 0
-3 -1 -2 373.026 12.6796 0
3 1 2 397.111 14.0089 0
-3 -1 -2 407.363 13.8895 0
-3 -1 -3 209.991 6.8876 0
3 1 3 218.818 7.83416 0
3 1 3 239.257 8.90386 0
-3 -1 -3 229.315 8.33438 0
3 1 3 237.88 10.2891 0
-3 -1 -3 225.382 8.36516 0
-3 -1 -4 62.7947 1.79915 0
3 1 4 63.175 1.74064 0
3 1 4 64.3964 3.49591 0
-3 -1 -4 58.8965 2.69141 0
3 1 4 61.9902 3.15217 0
-3 -1 -4 67.8338 2.77917 0
-3 -1 -5 23.1481 1.63487 0
3 1 5 25.4328 1.66223 0
3 1 5 22.4845 3.09872 0
-3 -1 -5 24.4204 2.26419 0
3 1 5 25.8295 2.34627 0
-3 -1 -5 27.7517 6.40266 0
-3 -1 -6 133.456 4.39765 0
3 1 6 129.5 4.1579 0
3 1 6 128.592 5.0349 0
-3 -1 -6 124.472 4.833 0
3 1 6 131.28 4.86455 0
-3 -1 -6 123.607 4.24623 0
-3 -1 -7 417.22 13.7889 0
3 1 7 423.248 13.5702 0
3 1 7 416.374 14.4913 0
3 1 7 399.609 13.0981 0
-3 -1 -7 407.404 13.2017 0
-3 -1 -8 433.325 15.1216 0
3 1 8 508.462 16.4269 0
3 1 8 457.025 15.2782 0
3 1 8 458.414 14.5576 0
-3 -1 -8 465.557 14.6464 0
-3 -1 -9 7.65668 2.51908 0
3 1 9 7.32049 3.64604 0
3 1 9 6.61022 2.88842 0
-3 -1 -9 5.54482 1.52944 0
-3 -1 -10 25.1973 1.83284 0
3 1 10 26.6411 3.06483 0
3 1 10 27.5618 4.77231 0
-3 -1 -10 22.2449 1.72045 0
-3 -1 -11 57.4027 5.61683 0
3 1 11 56.1483 3.9949 0
3 1 11 59.2563 3.49554 0
-3 -1 -12 268.658 8.31037 0
3 1 12 274.217 8.82794 0
3 1 12 279.491 8.16457 0
-3 -1 -13 1.53387 0.95367 0
3 1 13 0.57687 2.48086 0
3 1 13 1.38382 0.94366 0
-3 -1 -14 11.7138 4.16239 0
3 1 14 12.8723 1.95641 0
3 1 14 11.4704 1.26936 0
-3 -1 -15 7.13853 2.27397 0
3 1 15 7.36017 2.40925 0
3 1 15 5.10635 2.23655 0
-3 -1 -16 164.419 8.36836 0
3 1 16 167.959 9.95135 0
-3 -1 -17 4.37199 1.92485 0
3 1 17 5.62988 1.49329 0
-3 -1 -18 1.68663 0.92993 0
3 1 18 2.62795 1.93051 0
-3 -1 -19 3.08129 2.0365 0
3 1 19 1.97916 1.86449 0
-3 -1 -20 51.7327 3.85729 0
3 1 20 54.403 4.16737 0
3 2 -18 12.2985 1.46199 0
-3 -2 18 9.15409 5.18267 0
3 2 -17 96.6093 4.87996 0
-3 -2 17 99.2266 4.57537 0
3 2 -16 19.154 2.75394 0
-3 -2 16 18.3798 6.23076 0
3 2 -15 9.71127 3.16759 0
-3 -2 15 8.47287 3.24798 0
3 2 -14 12.7811 5.14671 0
-3 -2 14 17.4656 6.56321 0
3 2 -13 227.724 9.11661 0
-3 -2 13 222.318 8.92289 0
3 2 -12 78.4036 3.78285 0
-3 -2 12 74.183 3.28834 0
3 2 -11 26.2599 8.69977 0
-3 -2 11 27.8864 2.39534 0
-3 -2 11 30.7055 0.73125 0
-3 -2 11 28.9013 0.70733 0
3 2 -10 5.71772 2.08291 0
-3 -2 10 4.58839 2.46434 0
-3 -2 10 3.00657 1.14055 0
-3 -2 10 4.26305 1.24526 0
3 2 -9 207.321 9.27246 0
-3 -2 9 168.342 2.23972 0
-3 -2 9 187.037 7.65578 0
3 2 -8 260.233 9.67929 0
-3 -2 8 261.469 2.96737 0
3 2 -7 1.47086 1.79503 0
3 2 -6 173.055 6.8372 0
3 2 -5 406.851 13.5678 0
3 2 -4 549.846 12.5505 0
-3 -2 4 581.812 13.0541 0
-3 -2 4 580.958 13.1051 0
3 2 -3 28.7283 6.80444 0
-3 -2 3 27.9593 5.46553 0
3 2 -3 27.3894 2.38945 0
-3 -2 3 28.1378 4.95056 0
3 2 -2 121.893 5.10287 0
-3 -2 2 132.033 7.40645 0
3 2 -2 128.483 5.46007 0
-3 -2 2 123.81 5.46007 0
-3 -2 2 139.221 6.58999 0
3 2 -1 61.5711 2.48995 0
-3 -2 1 65.7438 6.36575 0
3 2 -1 58.4796 2.8326 0
-3 -2 1 69.4521 2.86306 0
-3 -2 1 62.0051 4.06616 0
3 2 0 2263.15 24.4208 0
-3 -2 0 2181.12 23.5374 0
3 2 0 2320.97 26.2891 0
-3 -2 0 2238.67 25.054 0
-3 -2 0 2306.93 26.2578 0
3 2 1 70.1288 3.7051 0
-3 -2 -1 68.97 2.38861 0
3 2 1 66.8809 2.64875 0
-3 -2 -1 66.2739 2.78276 0
-3 -2 -1 71.6739 7.90683 0
3 2 2 31.6377 2.1706 0
-3 -2 -2 26.0238 1.94417 0
3 2 2 23.4706 2.50634 0
-3 -2 -2 25.9691 2.03787 0
-3 -2 -2 28.6004 2.17841 0
3 2 3 220.989 7.42201 0
3 2 3 232.825 8.50834 0
-3 -2 -3 225.737 8.88058 0
3 2 3 218.679 8.1209 0
-3 -2 -3 218.702 8.14369 0
3 2 4 618.678 7.68607 0
3 2 4 590.651 7.3301 0
3 2 4 664.969 10.1997 0
-3 -2 -4 598.678 9.10996 0
3 2 4 624.09 9.56763 0
-3 -2 -4 574.603 8.91381 0
3 2 5 52.1354 1.81828 0
3 2 5 58.2943 1.98917 0
3 2 5 56.0112 3.10338 0
-3 -2 -5 58.7934 2.74793 0
3 2 5 58.4926 3.56137 0
-3 -2 -5 58.6498 3.13756 0
3 2 6 3.98795 2.10493 0
3 2 6 5.38279 2.20003 0
3 2 6 3.15105 2.19369 0
-3 -2 -6 2.96085 2.3839 0
3 2 6 2.82137 2.73894 0
-3 -2 -6 4.62197 2.7643 0
-3 -2 -7 41.2862 3.8426 0
3 2 7 46.088 3.30196 0
3 2 7 53.0697 7.73752 0
3 2 7 36.5309 2.72063 0
-3 -2 -7 37.3971 2.38927 0
-3 -2 -8 959.467 23.8963 0
3 2 8 1025.11 25.3144 0
3 2 8 1016.51 25.9388 0
3 2 8 982.13 24.3143 0
-3 -2 -8 942.132 23.3566 0
-3 -2 -9 17.166 1.55311 0
3 2 9 21.7147 2.5773 0
3 2 9 21.3685 1.55311 0
-3 -2 -9 21.0704 1.38963 0
-3 -2 -10 18.0719 4.38627 0
3 2 10 17.185 7.84611 0
3 2 10 18.0763 3.35885 0
-3 -2 -10 15.0643 2.69586 0
-3 -2 -11 1.02528 0.51872 0
3 2 11 -0.61193 2.4477 0
-3 -2 -11 0.12157 0.46198 0
-3 -2 -12 327.318 11.1798 0
3 2 12 346.991 10.299 0
-3 -2 -13 56.5116 5.43302 0
3 2 13 55.3088 8.32112 0
-3 -2 -14 33.6447 1.97136 0
3 2 14 32.3534 10.0072 0
-3 -2 -15 2.58657 1.13984 0
3 2 15 3.17987 0.97617 0
-3 -2 -16 217.233 10.2469 0
3 2 16 194.703 9.50864 0
-3 -2 -17 4.98615 2.83923 0
3 2 17 3.00919 2.73176 0
3 2 18 39.8388 2.51821 0
3 2 19 4.63099 2.75608 0
3 2 19 2.10007 2.61535 0
3 2 20 94.2169 6.2814 0
3 2 20 78.5809 5.54679 0
3 3 -18 0.53001 1.2198 0
-3 -3 18 0.50273 1.66796 0
3 3 -17 75.7854 3.90086 0
-3 -3 17 75.844 3.80464 0
3 3 -16 0.49151 1.17155 0
-3 -3 16 0.20199 0.77655 0
3 3 -15 40.516 5.2891 0
-3 -3 15 40.1692 2.56989 0
3 3 -14 1.85462 2.03645 0
-3 -3 14 3.1222 2.72479 0
3 3 -13 126.31 7.80965 0
-3 -3 13 118.433 7.19376 0
3 3 -12 25.9022 7.30978 0
-3 -3 12 31.2165 2.76717 0
3 3 -11 162.888 6.66537 0
-3 -3 11 177.425 9.37368 0
-3 -3 11 153.66 5.13768 0
3 3 -10 2.06502 2.17074 0
-3 -3 10 0.77174 2.04036 0
-3 -3 10 0.50745 0.37001 0
3 3 -9 56.2346 7.47354 0
-3 -3 9 48.4951 3.91599 0
3 3 -8 39.6637 3.15928 0
3 3 -7 285.097 11.325 0
3 3 -6 4.06472 1.8476 0
3 3 -5 363.741 12.4181 0
3 3 -4 142.206 9.28377 0
-3 -3 4 141.045 6.1755 0
3 3 -3 610.659 13.707 0
-3 -3 3 608.603 13.8967 0
3 3 -3 644.613 15.7564 0
-3 -3 3 632.165 14.2446 0
3 3 -2 6.81012 3.47579 0
-3 -3 2 7.86094 3.50947 0
3 3 -2 6.65519 3.31412 0
-3 -3 2 8.71641 3.73849 0
3 3 -1 3.46259 2.31075 0
-3 -3 1 3.2082 2.50154 0
3 3 -1 5.16562 3.1658 0
-3 -3 1 4.4095 2.21182 0
3 3 0 572.992 8.28405 0
-3 -3 0 551.968 7.86839 0
3 3 0 605.319 9.5602 0
-3 -3 0 586.009 8.76534 0
3 3 1 325.585 11.0062 0
-3 -3 -1 311.014 10.7325 0
3 3 1 315.252 10.9618 0
-3 -3 -1 305.969 10.5772 0
3 3 2 2.29263 2.44007 0
-3 -3 -2 -0.32436 1.26795 0
3 3 2 1.26795 1.40801 0
-3 -3 -2 -0.50865 1.725 0
3 3 3 15.3995 2.36082 0
-3 -3 -3 14.7569 1.71827 0
3 3 3 20.0923 7.21964 0
-3 -3 -3 16.1792 5.40029 0
-3 -3 -3 17.1611 1.79769 0
3 3 4 130.86 4.08048 0
-3 -3 -4 134.399 3.92755 0
3 3 4 136.178 4.80343 0
-3 -3 -4 125.348 4.60879 0
-3 -3 -4 134.76 4.74782 0
3 3 5 376.396 5.72412 0
3 3 5 388.028 9.60388 0
-3 -3 -5 387.317 9.65658 0
-3 -3 -5 400.774 9.72903 0
3 3 6 141.455 4.37509 0
3 3 6 138.267 4.35662 0
3 3 6 147.399 5.98113 0
-3 -3 -6 137.4 5.14426 0
3 3 7 1.28423 1.46039 0
3 3 7 1.05125 1.07398 0
3 3 7 1.10239 2.98328 0
-3 -3 -7 1.11376 0.9717 0
3 3 8 218.583 9.92613 0
3 3 8 215.99 7.70759 0
3 3 8 226.489 8.79082 0
-3 -3 -8 215.125 7.5149 0
3 3 9 246.968 8.82336 0
3 3 9 230.66 9.02335 0
-3 -3 -9 227.265 7.77103 0
3 3 10 152.596 6.04808 0
3 3 10 152.504 6.24473 0
-3 -3 -10 144.914 5.25274 0
3 3 11 2.94687 2.03609 0
3 3 11 4.56198 3.43261 0
-3 -3 -11 4.06004 1.86608 0
3 3 12 71.6556 3.48432 0
3 3 12 71.0823 6.86441 0
3 3 13 69.7579 3.25034 0
3 3 13 65.5594 6.51092 0
3 3 14 63.4106 2.8823 0
3 3 14 57.6932 3.68871 0
3 3 15 3.51232 2.11621 0
3 3 15 1.5754 1.7106 0
3 3 16 89.1934 4.40172 0
3 3 16 79.1927 4.19718 0
3 3 17 93.535 4.52491 0
3 3 17 82.9265 5.385 0
3 3 18 85.0695 4.47747 0
3 3 18 72.6985 3.9292 0
3 3 19 1.03031 0.95156 0
3 3 19 -0.55563 1.30375 0
3 3 20 17.4175 1.74806 0
3 3 20 12.155 6.6707 0
3 3 21 16.1976 1.58312 0
3 3 21 15.0776 2.85683 0
3 4 -17 7.49196 4.52235 0
-3 -4 17 8.87484 3.76496 0
3 4 -16 4.8624 4.9246 0
-3 -4 16 5.18842 3.23445 0
3 4 -15 90.4194 5.72251 0
-3 -4 15 90.2908 7.90317 0
3 4 -14 0.60605 0.8401 0
-3 -4 14 -0.04435 1.32297 0
3 4 -13 8.34391 5.5874 0
-3 -4 13 11.3315 3.36465 0
3 4 -12 50.9037 3.2014 0
-3 -4 12 48.7015 3.74406 0
3 4 -11 87.3305 3.38925 0
-3 -4 11 83.6442 5.28747 0
-3 -4 11 77.2148 1.94415 0
3 4 -10 18.1058 8.89651 0
-3 -4 10 13.1867 1.22483 0
3 4 -9 52.0296 5.58276 0
-3 -4 9 49.4774 2.86277 0
3 4 -8 32.8136 5.74762 0
3 4 -7 506.792 15.9149 0
3 4 -6 24.712 3.56176 0
3 4 -5 19.5769 8.49582 0
3 4 -4 21.3227 6.58961 0
3 4 -3 1061.39 26.5006 0
3 4 -3 1033.2 27.1353 0
3 4 -2 22.5105 1.96741 0
-3 -4 2 22.07 6.57815 0
3 4 -2 24.5262 2.77006 0
3 4 -1 90.595 3.97864 0
-3 -4 1 104.086 8.52838 0
3 4 -1 89.7574 4.39745 0
-3 -4 1 97.8987 4.14363 0
3 4 0 12.4173 6.63263 0
-3 -4 0 14.7706 3.97038 0
3 4 0 19.8322 7.92761 0
-3 -4 0 14.7969 5.24563 0
3 4 1 1000.65 20.9003 0
-3 -4 -1 997.463 20.9271 0
3 4 1 989.288 21.0142 0
-3 -4 -1 1084.27 22.6559 0
3 4 2 100.124 4.40025 0
-3 -4 -2 96.5704 3.66799 0
3 4 2 102.032 3.9703 0
-3 -4 -2 108.582 4.09794 0
3 4 3 30.1153 9.77571 0
-3 -4 -3 25.6314 3.29169 0
3 4 3 28.1813 9.21937 0
-3 -4 -3 23.4591 6.0469 0
3 4 4 5.98066 3.13487 0
-3 -4 -4 6.41106 1.83081 0
3 4 4 7.96565 3.8158 0
3 4 5 663.478 17.0273 0
-3 -4 -5 645.143 16.199 0
3 4 5 726.132 18.8313 0
3 4 6 40.7217 3.54429 0
-3 -4 -6 36.1945 2.24337 0
3 4 6 51.1291 7.9096 0
-3 -4 -6 45.7693 4.97241 0
3 4 7 5.66928 1.65983 0
3 4 7 9.73262 3.45977 0
3 4 7 9.32844 2.33885 0
-3 -4 -7 8.20213 2.23107 0
3 4 8 8.59295 2.93248 0
3 4 8 10.5579 3.52595 0
3 4 8 9.00191 2.47365 0
3 4 9 345.616 12.8661 0
3 4 9 346.21 13.2805 0
3 4 10 78.5778 4.65785 0
3 4 10 76.1465 5.2806 0
3 4 11 52.4648 4.0379 0
3 4 11 50.5534 3.84277 0
3 4 12 0.69938 1.62945 0
3 4 12 -0.41011 2.54121 0
3 4 13 124.407 5.1412 0
3 4 13 120.031 5.60307 0
3 4 14 16.4609 1.9134 0
3 4 14 19.5498 2.94201 0
3 4 15 76.9527 3.75429 0
3 4 15 81.6024 4.25174 0
3 4 16 11.4572 3.29989 0
3 4 16 13.5638 5.33854 0
3 4 17 116.092 5.86164 0
3 4 17 106.598 5.85408 0
3 4 18 38.9856 2.58279 0
3 4 18 38.5192 2.53123 0
3 4 19 40.9065 4.63596 0
3 4 19 35.2123 2.68386 0
3 4 20 1.10004 1.57556 0
3 4 20 0.27144 0.93676 0
3 4 21 15.556 4.52733 0
3 4 21 14.7976 1.49958 0
3 5 -17 -0.06461 0.87793 0
-3 -5 17 -0.93304 1.15918 0
3 5 -16 7.50223 5.68154 0
-3 -5 16 7.25026 3.95432 0
3 5 -15 27.1352 2.0456 0
-3 -5 15 29.7886 2.1567 0
3 5 -14 49.61 2.99511 0
-3 -5 14 50.3053 3.77644 0
3 5 -13 19.3833 3.928 0
-3 -5 13 23.5057 8.08282 0
3 5 -12 17.7431 1.81238 0
-3 -5 12 19.3061 6.62752 0
3 5 -11 82.721 5.26446 0
-3 -5 11 94.2116 6.02395 0
-3 -5 11 88.5602 4.81108 0
3 5 -10 117.347 5.59615 0
-3 -5 10 118.213 4.79494 0
3 5 -9 2.01609 1.70364 0
3 5 -8 29.9786 2.32651 0
3 5 -7 221.818 7.74046 0
3 5 -6 80.6837 5.09659 0
3 5 -5 84.9566 5.47331 0
3 5 -4 3.92441 3.10117 0
3 5 -3 399.953 6.28959 0
3 5 -3 421.882 14.4461 0
3 5 -2 518.477 7.08386 0
3 5 -2 520.145 14.406 0
3 5 -1 166.487 6.58964 0
3 5 -1 156.427 6.55071 0
3 5 0 12.0168 3.92292 0
-3 -5 0 12.2245 4.19984 0
3 5 0 12.836 4.06715 0
3 5 1 815.926 20.9077 0
-3 -5 -1 788.19 20.0933 0
3 5 1 716.108 20.5123 0
3 5 2 100.678 5.48816 0
-3 -5 -2 90.7003 4.41788 0
3 5 2 103.11 5.16707 0
3 5 3 547.488 17.782 0
-3 -5 -3 570.439 6.00598 0
3 5 3 502.367 16.1831 0
3 5 4 43.3636 5.13213 0
-3 -5 -4 35.1061 2.09322 0
3 5 4 37.5683 3.51176 0
3 5 5 602.627 15.5604 0
-3 -5 -5 581.749 14.7935 0
3 5 5 587.728 15.3548 0
3 5 6 174.758 8.94551 0
-3 -5 -6 170.991 6.09945 0
3 5 6 165.849 6.33751 0
3 5 7 556.301 19.2352 0
-3 -5 -7 616.066 19.0208 0
3 5 7 578.972 18.3326 0
3 5 8 54.0789 3.68221 0
3 5 8 52.9434 5.18219 0
3 5 9 123.197 5.00463 0
3 5 9 118.1 4.98714 0
3 5 10 0.63137 1.12744 0
3 5 10 0.86916 1.64402 0
3 5 11 180.91 5.91828 0
3 5 11 184.517 6.80373 0
3 5 12 1.00605 1.43114 0
3 5 12 2.8729 1.78892 0
3 5 13 14.6033 5.71321 0
3 5 13 13.7524 3.93255 0
3 5 14 27.6379 3.20479 0
3 5 14 24.0896 1.89221 0
3 5 15 200.644 8.6012 0
3 5 15 187.559 8.22034 0
3 5 16 3.28868 1.83448 0
3 5 16 2.47454 2.28975 0
3 5 17 68.3436 7.23024 0
3 5 17 68.2167 3.58773 0
3 5 18 1.33809 1.41475 0
3 5 18 1.00357 1.07791 0
3 5 19 124.32 5.35999 0
3 5 19 121.672 5.66901 0
3 5 20 0.84243 1.33165 0
3 5 20 -0.20503 1.16317 0
3 5 21 1.77694 1.38207 0
3 5 21 5.02897 2.53442 0
3 6 -16 1.79298 1.36535 0
-3 -6 16 2.18609 1.34809 0
3 6 -15 0.12488 0.81277 0
-3 -6 15 1.23247 0.9049 0
3 6 -14 103.111 5.00251 0
-3 -6 14 108.015 4.70258 0
3 6 -13 1.2801 0.77179 0
-3 -6 13 1.0376 1.85836 0
3 6 -12 1.11151 1.22366 0
-3 -6 12 0.39875 0.84236 0
3 6 -11 10.6297 3.6118 0
-3 -6 11 9.57182 4.33043 0
3 6 -10 202.409 9.15504 0
-3 -6 10 181.819 8.15693 0
3 6 -9 16.6445 1.75861 0
-3 -6 9 22.5339 1.85276 0
3 6 -8 1.623 1.76202 0
3 6 -7 34.7758 7.09696 0
3 6 -6 265.528 8.47425 0
3 6 -5 114.772 6.11645 0
3 6 -4 3.57892 2.43884 0
3 6 -3 71.2115 4.66211 0
3 6 -3 82.4094 8.90639 0
3 6 -2 226.871 8.38243 0
3 6 -2 249.491 10.7068 0
3 6 -1 90.0494 5.40065 0
3 6 -1 96.0003 5.27999 0
3 6 0 47.413 5.33584 0
3 6 0 38.1603 2.4431 0
3 6 1 297.052 10.6693 0
3 6 1 303.875 10.8483 0
3 6 2 353.408 12.5294 0
3 6 2 335.537 11.4124 0
3 6 3 394.62 13.5701 0
3 6 3 403.495 6.07299 0
3 6 4 4.69058 3.06946 0
3 6 4 9.23887 3.60306 0
3 6 5 109.899 7.82274 0
3 6 5 105.004 9.0194 0
3 6 6 167.167 6.46118 0
3 6 6 167.153 6.2993 0
3 6 7 229.711 9.71494 0
3 6 7 235.728 8.36413 0
3 6 8 11.112 4.38428 0
3 6 8 11.1034 2.93583 0
3 6 9 38.2124 3.07079 0
3 6 9 44.239 10.5794 0
3 6 10 34.8855 2.20681 0
3 6 10 37.5857 2.61864 0
3 6 11 105.769 5.13099 0
3 6 11 108.399 9.67858 0
3 6 12 29.8828 2.55926 0
3 6 12 33.8688 2.31584 0
3 6 13 1.62988 1.1425 0
3 6 13 1.24061 0.94628 0
3 6 14 49.5437 2.55017 0
3 6 14 52.9221 4.83818 0
3 6 15 174.356 7.61928 0
3 6 15 176.255 7.91621 0
3 6 16 64.1731 2.68834 0
3 6 16 63.3431 3.15554 0
3 6 17 19.9512 2.22248 0
3 6 17 14.2268 5.50747 0
3 6 18 0.06848 1.00207 0
3 6 18 0.68707 0.67794 0
3 6 19 83.9164 3.83969 0
3 6 19 91.9576 4.43288 0
3 6 20 2.91414 2.23117 0
3 6 20 2.06494 2.05292 0
-3 -7 15 4.37233 3.27877 0
3 7 -14 48.926 2.80529 0
-3 -7 14 50.6546 2.98713 0
3 7 -13 17.6914 2.66341 0
-3 -7 13 14.8493 7.09444 0
3 7 -12 40.5093 6.01577 0
-3 -7 12 25.5716 9.26891 0
3 7 -11 -0.43842 1.22413 0
-3 -7 11 0.49753 0.77093 0
3 7 -10 158.629 7.89638 0
-3 -7 10 148.273 7.48908 0
3 7 -9 10.8578 5.10756 0
-3 -7 9 10.8634 5.98595 0
3 7 -8 69.8732 6.10536 0
-3 -7 8 67.4085 3.29321 0
3 7 -7 -0.30402 1.56713 0
3 7 -6 201.624 7.43942 0
3 7 -5 17.7547 3.74321 0
3 7 -4 102.86 5.08608 0
3 7 -3 5.44171 2.72677 0
3 7 -3 5.31562 2.08448 0
3 7 -2 217.618 9.79556 0
3 7 -2 219.926 10.6016 0
3 7 -1 11.8073 7.97732 0
3 7 -1 20.8976 7.42293 0
3 7 0 302.105 12.0952 0
3 7 0 320.03 12.3042 0
3 7 1 21.8738 2.67643 0
3 7 1 24.4524 1.95175 0
3 7 2 165.578 6.66704 0
3 7 2 174.486 6.55007 0
3 7 3 16.9094 7.40913 0
3 7 3 21.0286 6.83677 0
3 7 4 436.543 16.626 0
3 7 4 473.764 17.2695 0
3 7 5 -0.93952 2.41466 0
3 7 5 0.89562 0.73757 0
3 7 6 87.0679 5.52249 0
3 7 6 88.98 5.24871 0
3 7 7 16.8309 5.67521 0
3 7 7 19.0513 6.40843 0
3 7 8 291.857 10.4671 0
3 7 8 272.03 11.2265 0
3 7 9 1.62509 1.30159 0
3 7 9 0.86012 0.79542 0
3 7 10 40.2524 2.36546 0
3 7 10 38.2141 2.85797 0
3 7 11 34.3432 4.96863 0
3 7 11 38.4442 3.04015 0
3 7 12 217.675 7.36038 0
3 7 12 225.157 7.6929 0
3 7 13 3.10983 1.32803 0
3 7 13 3.00395 1.38853 0
3 7 14 2.58199 1.1316 0
3 7 14 4.93996 1.59113 0
3 7 15 22.3099 2.06533 0
3 7 15 27.371 2.32081 0
3 7 16 132.778 6.53269 0
3 7 16 138.323 6.79975 0
3 7 17 16.701 2.31491 0
3 7 17 17.4931 5.08146 0
3 7 18 1.35519 0.74102 0
3 7 18 0.50736 0.84561 0
3 7 19 24.9559 1.97499 0
3 7 19 25.1628 1.75554 0
3 7 20 64.1846 3.52604 0
3 7 20 74.6549 4.09672 0
3 8 -14 16.9857 2.8468 0
-3 -8 14 12.7592 7.26163 0
3 8 -13 43.3061 2.82796 0
-3 -8 13 42.3062 3.63998 0
3 8 -12 32.2897 2.11686 0
-3 -8 12 33.346 5.51114 0
3 8 -11 1.77534 1.13204 0
-3 -8 11 2.42774 1.77989 0
3 8 -10 45.058 7.15294 0
-3 -8 10 38.8055 2.74946 0
3 8 -9 35.8517 6.74997 0
-3 -8 9 37.2359 4.03006 0
3 8 -8 117.974 5.73836 0
-3 -8 8 126.087 3.50753 0
3 8 -7 15.283 5.4192 0
-3 -8 7 18.339 2.41205 0
3 8 -6 39.2129 8.29492 0
3 8 -5 32.4509 2.25288 0
3 8 -4 182.04 9.30447 0
3 8 -3 39.9396 2.72834 0
3 8 -2 21.7907 7.13728 0
3 8 -2 20.084 7.16975 0
3 8 -1 3.43494 2.13887 0
3 8 -1 5.21796 1.92162 0
3 8 0 308.744 9.83799 0
3 8 0 325.16 9.66031 0
3 8 1 14.1152 6.47275 0
3 8 1 11.2898 2.73057 0
3 8 2 11.5973 2.86338 0
3 8 2 9.58455 2.93527 0
3 8 3 7.45086 3.09818 0
3 8 3 9.99193 3.62323 0
3 8 4 494.378 16.6293 0
3 8 4 496.28 15.9143 0
3 8 5 63.0736 6.70491 0
3 8 5 68.6195 7.4644 0
3 8 6 1.63545 1.21789 0
3 8 6 2.0762 1.39187 0
3 8 7 17.0608 5.49816 0
3 8 7 18.0884 1.81522 0
3 8 8 303.838 9.15313 0
3 8 8 292.976 8.72673 0
3 8 9 7.09329 3.98305 0
3 8 9 11.4469 3.03751 0
3 8 10 3.62616 1.46899 0
3 8 10 3.31847 1.86933 0
3 8 11 10.1694 3.01104 0
3 8 11 8.17147 2.0547 0
3 8 12 242.067 9.28165 0
3 8 12 241.001 9.62809 0
3 8 13 32.6376 2.83454 0
3 8 13 36.4947 2.8403 0
3 8 14 32.4394 3.58295 0
3 8 14 32.5807 3.70247 0
3 8 15 2.18315 1.0647 0
3 8 15 0.79597 0.77293 0
3 8 16 132.363 6.54553 0
3 8 16 131.145 6.45867 0
3 8 17 0.89062 1.00906 0
3 8 17 0.59906 0.90656 0
3 8 18 15.4317 6.32159 0
3 8 18 17.6393 6.21186 0
3 8 19 3.5305 2.17822 0
3 8 19 4.50828 3.04061 0
3 8 20 81.3422 4.38605 0
3 8 20 80.4936 4.36698 0
3 9 -12 10.1631 5.51992 0
-3 -9 12 7.55253 3.42001 0
3 9 -11 25.8843 2.63073 0
3 9 -10 0.68168 0.87423 0
-3 -9 10 0.81669 0.57323 0
3 9 -9 38.0112 2.20949 0
-3 -9 9 43.7983 2.91802 0
3 9 -8 22.6088 1.95776 0
-3 -9 8 24.4462 2.02654 0
3 9 -7 35.5752 6.24507 0
-3 -9 7 29.2032 3.16914 0
3 9 -6 1.53505 1.45598 0
3 9 -5 52.4936 2.7966 0
3 9 -4 114.646 5.06828 0
3 9 -3 178.341 7.60937 0
3 9 -2 -0.08927 2.03087 0
3 9 -2 1.07123 1.00747 0
3 9 -1 42.3679 4.66224 0
3 9 -1 41.4867 3.93233 0
3 9 0 299.311 10.5957 0
3 9 0 288.118 9.35347 0
3 9 1 64.6906 10.0404 0
3 9 1 69.7659 8.78276 0
3 9 2 241.46 8.30791 0
3 9 2 223.548 7.41703 0
3 9 3 3.21063 1.98335 0
3 9 3 3.78032 1.45586 0
3 9 4 281.481 9.2457 0
3 9 4 283.821 9.50214 0
3 9 5 85.874 11.2801 0
3 9 5 93.3198 4.72937 0
3 9 6 12.7383 3.3217 0
3 9 6 12.1761 3.36284 0
3 9 7 11.9616 4.08667 0
3 9 7 15.1431 4.32134 0
3 9 8 156.195 6.47619 0
3 9 8 147.612 6.41097 0
3 9 9 82.6664 5.97333 0
3 9 9 78.6136 4.94671 0
3 9 10 42.6237 6.52157 0
3 9 10 46.9388 3.17076 0
3 9 11 2.14063 1.23079 0
3 9 11 0.50645 0.55061 0
3 9 12 135.713 8.00753 0
3 9 12 128.983 7.45919 0
3 9 13 95.6193 5.19541 0
3 9 13 99.9761 4.42941 0
3 9 14 82.2965 4.17657 0
3 9 14 83.3962 5.21752 0
3 9 15 0.73821 0.85197 0
3 9 15 0.547 1.10127 0
3 9 16 60.8611 5.1175 0
3 9 16 58.0933 5.42299 0
3 9 17 7.09311 4.4531 0
3 9 17 3.8291 3.2531 0
3 9 18 46.5593 5.10409 0
3 9 18 45.4791 2.38713 0
3 9 19 1.33845 0.93126 0
3 9 19 1.54691 1.32091 0
3 10 -11 103.43 5.4682 0
3 10 -10 0.67456 1.11819 0
-3 -10 10 -0.57935 0.77585 0
3 10 -9 0.54399 0.83412 0
-3 -10 9 0.86185 1.06451 0
3 10 -8 0.87969 1.1774 0
-3 -10 8 1.02295 1.04757 0
3 10 -7 94.2177 7.58962 0
-3 -10 7 93.5311 5.06834 0
3 10 -6 1.64767 1.33628 0
-3 -10 6 2.08411 1.82666 0
3 10 -5 1.98603 2.69332 0
3 10 -4 11.3674 5.24939 0
3 10 -3 213.586 9.4972 0
3 10 -2 1.32756 0.97911 0
3 10 -1 8.51468 3.30504 0
3 10 -1 12.2295 3.15468 0
3 10 0 -0.58389 2.24226 0
3 10 0 0.9571 0.66515 0
3 10 1 232.778 8.33383 0
3 10 1 225.61 8.56643 0
3 10 2 7.56757 3.76365 0
3 10 2 8.42872 2.41927 0
3 10 3 2.07707 3.58029 0
3 10 3 3.52728 1.60614 0
3 10 4 40.0406 5.98236 0
3 10 4 41.0522 2.19186 0
3 10 5 305.861 10.4839 0
3 10 5 327 10.1731 0
3 10 6 20.461 6.15767 0
3 10 6 22.0181 4.45285 0
3 10 7 33.2757 2.86494 0
3 10 7 44.9962 3.48037 0
3 10 8 15.2901 5.61519 0
3 10 8 17.4791 5.11256 0
3 10 9 126.873 9.73549 0
3 10 9 126.948 7.2929 0
3 10 10 16.5712 6.81748 0
3 10 10 19.6514 4.93329 0
3 10 11 36.5328 4.26203 0
3 10 11 32.6484 2.42846 0
3 10 12 9.97807 4.01261 0
3 10 12 10.9428 2.722 0
3 10 13 61.2575 3.30777 0
3 10 13 53.9629 2.40656 0
3 10 14 19.0049 2.40574 0
3 10 14 13.1814 5.55134 0
3 10 15 26.2372 3.2902 0
3 10 15 27.1128 1.58696 0
3 10 16 1.16951 1.75971 0
3 10 16 1.87731 1.33938 0
3 10 17 32.509 2.18644 0
3 10 17 37.0867 2.1037 0
3 10 18 46.8323 4.81363 0
3 10 18 49.0712 3.55278 0
3 11 -9 0.38114 0.96452 0
-3 -11 9 2.77301 1.8396 0
3 11 -8 3.49723 3.04505 0
-3 -11 8 1.18951 1.57243 0
3 11 -7 71.7706 3.98145 0
-3 -11 7 79.1708 4.02621 0
3 11 -6 5.55311 2.29769 0
-3 -11 6 4.61315 1.75104 0
3 11 -5 3.68914 2.51637 0
-3 -11 5 4.74648 2.95501 0
3 11 -4 1.56382 1.75781 0
-3 -11 4 0.72084 1.07767 0
3 11 -3 147.904 7.64757 0
3 11 -2 1.08745 2.05207 0
3 11 -1 42.5217 4.78955 0
3 11 0 0.43664 0.73043 0
3 11 0 0.74391 0.87059 0
3 11 1 76.0038 4.56924 0
3 11 1 78.68 6.08041 0
3 11 2 2.00633 2.30727 0
3 11 2 1.19544 0.90842 0
3 11 3 55.9522 5.80716 0
3 11 3 53.5546 7.58079 0
3 11 4 1.77063 2.44167 0
3 11 4 0.80355 0.76126 0
3 11 5 127.601 8.08789 0
3 11 5 128.121 7.50014 0
3 11 6 2.52708 2.32904 0
3 11 6 0.35424 0.81168 0
3 11 7 122.798 5.82498 0
3 11 7 144.664 7.15397 0
3 11 8 3.47534 2.06036 0
3 11 8 5.533 2.07386 0
3 11 9 64.3563 4.46537 0
3 11 9 74.9117 3.65565 0
3 11 10 0.87991 1.52637 0
3 11 10 -0.08466 0.97739 0
3 11 11 128.277 6.81934 0
3 11 11 114.044 5.56386 0
3 11 12 28.0054 3.39919 0
3 11 12 26.6938 2.19566 0
3 11 13 27.9301 6.31143 0
3 11 13 24.6852 4.91713 0
3 11 14 2.24745 1.31547 0
3 11 14 1.48493 0.48606 0
3 11 15 124.236 5.48613 0
3 11 15 116.824 4.63882 0
3 11 16 -0.61349 1.60121 0
3 11 16 0.64825 0.52965 0
3 11 17 3.62773 2.84478 0
3 11 17 4.65083 1.73967 0
3 12 -7 20.9757 2.33686 0
-3 -12 7 13.5457 6.25482 0
3 12 -6 34.2391 2.39523 0
-3 -12 6 37.9657 4.708 0
3 12 -5 27.1811 3.236 0
-3 -12 5 30.4652 2.18936 0
3 12 -4 2.65689 2.54429 0
-3 -12 4 4.43031 4.4433 0
3 12 -3 33.0846 2.9872 0
-3 -12 3 30.5283 2.20133 0
3 12 -2 21.6382 4.24318 0
3 12 -1 99.4324 7.64955 0
3 12 0 3.53264 2.02106 0
3 12 1 6.11476 4.67901 0
3 12 1 9.54636 2.98889 0
3 12 2 37.6093 5.16381 0
3 12 2 34.9096 1.9262 0
3 12 3 77.2636 5.95316 0
3 12 3 85.4204 3.69696 0
3 12 4 0.59283 0.93446 0
3 12 4 0.95204 0.69833 0
3 12 5 5.8748 4.4538 0
3 12 5 6.17356 3.11816 0
3 12 6 23.5088 3.11403 0
3 12 6 24.3454 6.60014 0
3 12 7 128.747 7.05112 0
3 12 7 115.083 5.68886 0
3 12 8 40.4256 6.98657 0
3 12 8 44.7414 2.45883 0
3 12 9 3.2246 2.05724 0
3 12 9 2.57394 1.29175 0
3 12 10 15.2846 5.18923 0
3 12 10 22.4297 1.52308 0
3 12 11 115.422 7.44268 0
3 12 11 136.14 4.93366 0
3 12 12 23.5482 10.3414 0
3 12 12 23.0182 1.43268 0
3 12 13 1.31463 1.6798 0
3 12 13 0.5542 0.79264 0
3 12 14 6.31121 4.28135 0
3 12 14 3.84431 2.7341 0
3 12 15 96.1363 6.376 0
3 12 15 106.068 6.60322 0
3 12 16 3.42983 2.16399 0
3 12 16 2.35358 1.11264 0
3 13 -4 25.4806 2.64467 0
-3 -13 4 23.9972 3.39026 0
3 13 -3 0.49688 1.17882 0
-3 -13 3 -0.90926 1.28946 0
3 13 -2 25.9804 6.01376 0
-3 -13 2 20.7524 2.00597 0
3 13 -1 2.32096 3.41044 0
-3 -13 1 1.59818 2.09416 0
3 13 0 33.0387 2.24314 0
3 13 1 1.33398 1.00598 0
3 13 1 1.52549 0.92674 0
3 13 2 16.7865 6.9602 0
3 13 2 15.8237 6.013 0
3 13 3 37.7247 8.29583 0
3 13 3 46.1149 2.29091 0
3 13 4 29.7575 9.4681 0
3 13 4 40.1745 1.97676 0
3 13 5 1.07633 0.69193 0
3 13 5 0.52686 0.94066 0
3 13 6 21.9001 1.9612 0
3 13 6 18.4894 2.99591 0
3 13 7 8.94308 3.76751 0
3 13 7 6.89032 2.07963 0
3 13 8 98.993 6.18554 0
3 13 8 92.4354 5.65402 0
3 13 9 1.44314 1.18988 0
3 13 9 0.31002 1.22481 0
3 13 10 3.06822 1.64652 0
3 13 10 3.43649 2.5308 0
3 13 11 50.1498 4.03985 0
3 13 11 48.951 3.35992 0
3 13 12 53.927 3.54772 0
3 13 12 54.3386 2.02348 0
3 13 13 1.9714 2.82845 0
3 13 13 2.09412 1.20343 0
3 13 14 2.10031 2.74862 0
3 13 14 2.11374 1.12976 0
3 14 -1 0.10686 0.72706 0
-3 -14 1 1.32053 1.08772 0
3 14 0 110.743 5.76628 0
-3 -14 0 99.6713 5.36344 0
3 14 1 -0.50453 1.44236 0
-3 -14 -1 0.32646 1.18713 0
3 14 2 1.62994 1.58182 0
3 14 2 0.52527 0.66561 0
3 14 3 0.69838 0.85628 0
3 14 3 1.58705 2.00203 0
3 14 4 83.1119 5.89947 0
3 14 4 89.6488 5.81802 0
3 14 5 0.90817 1.22246 0
3 14 5 0.51837 0.47756 0
3 14 6 0.96169 0.82722 0
3 14 6 1.69314 0.87612 0
3 14 7 2.07708 1.87849 0
3 14 7 0.94836 0.89567 0
3 14 8 76.9485 5.56 0
3 14 8 80.5748 5.36322 0
3 14 9 0.97145 1.65147 0
3 14 9 0.42823 0.84655 0
3 14 10 7.94213 3.17217 0
3 14 10 4.66656 2.62982 0
3 14 11 3.25725 2.38648 0
3 14 11 3.74526 2.20085 0
-4 12 10 10.1552 3.94734 0
4 -12 -10 5.75686 5.39646 0
-4 12 9 62.7956 4.23886 0
4 -12 -9 65.5888 3.78649 0
-4 12 8 4.98127 2.25371 0
4 -12 -8 5.5961 3.61847 0
-4 12 7 0.39505 1.23082 0
4 -12 -7 1.38566 1.48889 0
-4 12 6 3.01061 1.77508 0
4 -12 -6 1.17737 1.19141 0
-4 12 5 65.9518 7.43656 0
4 -12 -5 66.8563 4.98328 0
-4 12 4 4.46128 2.49491 0
4 -12 -4 5.06678 2.10609 0
-4 12 3 0.14164 1.45481 0
4 -12 -3 -0.01012 1.24438 0
-4 12 2 4.46518 3.71796 0
4 -12 -2 3.08555 2.44306 0
-4 12 1 50.9277 3.07799 0
4 -12 -1 63.3215 5.71855 0
-4 12 0 8.41441 7.10182 0
4 -12 0 6.66955 5.17734 0
-4 12 -1 7.63 2.82456 0
4 -12 1 7.2451 3.94039 0
-4 12 -2 -0.48477 1.34551 0
4 -12 2 0.06489 1.23291 0
-4 11 12 55.2038 4.13412 0
-4 11 11 3.03414 2.06809 0
4 -11 -11 3.77617 1.69608 0
-4 11 10 5.17607 4.00894 0
4 -11 -10 2.88085 1.60686 0
-4 11 9 23.2341 8.97878 0
4 -11 -9 29.4389 4.83036 0
-4 11 8 56.0476 4.25004 0
4 -11 -8 48.3103 3.78163 0
-4 11 7 13.4113 6.81706 0
4 -11 -7 12.7711 5.48424 0
-4 11 6 -0.03316 1.98756 0
4 -11 -6 2.9515 1.22924 0
-4 11 5 14.816 5.33838 0
4 -11 -5 12.9704 5.46097 0
-4 11 4 87.5444 4.60725 0
4 -11 -4 80.9268 5.63705 0
-4 11 3 13.6131 7.57927 0
4 -11 -3 15.3288 7.62407 0
-4 11 2 -1.16736 1.9508 0
4 -11 -2 -0.25222 1.48654 0
-4 11 1 34.0579 6.51908 0
4 -11 -1 28.5337 2.21808 0
-4 11 0 60.503 3.27446 0
4 -11 0 60.4745 3.5046 0
-4 11 -1 23.2183 1.9487 0
4 -11 1 22.1781 8.64939 0
-4 11 -2 2.24898 1.21441 0
4 -11 2 -0.15656 1.28634 0
-4 11 -3 7.16865 2.94973 0
4 -11 3 10.0564 3.45823 0
-4 11 -4 39.4362 2.91136 0
4 -11 4 41.212 2.84492 0
-4 11 -5 26.4155 2.50347 0
4 -11 5 25.4063 2.55628 0
-4 11 -6 1.99424 2.37337 0
4 -11 6 2.50227 1.11086 0
-4 10 14 0.33677 1.53592 0
-4 10 13 2.53285 1.51931 0
-4 10 12 60.114 4.42592 0
4 -10 -12 58.9661 4.04398 0
-4 10 11 0.76665 1.11197 0
4 -10 -11 0.76665 0.83832 0
-4 10 10 7.73811 3.18957 0
4 -10 -10 4.83464 3.73494 0
-4 10 9 2.11014 0.98855 0
4 -10 -9 0.95644 0.82341 0
-4 10 8 70.3532 9.64012 0
4 -10 -8 80.3805 3.30646 0
-4 10 7 2.46208 1.88305 0
4 -10 -7 -0.12921 1.22027 0
-4 10 6 1.30745 1.81293 0
4 -10 -6 2.7121 1.09116 0
-4 10 5 0.55056 2.12114 0
4 -10 -5 0.25808 0.99544 0
-4 10 4 176.02 9.34199 0
4 -10 -4 165.144 8.40655 0
-4 10 3 2.13782 2.46767 0
4 -10 -3 0.31001 1.67652 0
-4 10 2 23.575 2.52819 0
4 -10 -2 22.3703 2.1126 0
-4 10 1 4.58297 2.51007 0
4 -10 -1 6.22851 2.59603 0
-4 10 0 90.6346 6.22178 0
4 -10 0 88.3236 4.11711 0
-4 10 -1 3.51944 2.00701 0
4 -10 1 3.57679 3.07742 0
-4 10 -2 31.0449 8.22976 0
4 -10 2 24.865 10.4647 0
-4 10 -3 1.50167 1.03469 0
4 -10 3 0.81493 1.27733 0
-4 10 -4 64.9413 3.05325 0
4 -10 4 69.0562 3.74687 0
-4 10 -5 9.6325 4.94296 0
4 -10 5 8.46715 4.2065 0
-4 10 -6 47.0186 6.09156 0
4 -10 6 52.0953 3.97385 0
-4 10 -7 -0.27229 1.42799 0
4 -10 7 0.18556 1.25252 0
-4 10 -8 26.5934 2.57706 0
4 -10 8 27.7325 3.35522 0
-4 9 16 46.6517 3.55774 0
-4 9 15 31.462 2.9025 0
-4 9 14 28.5265 3.88289 0
-4 9 13 0.96723 1.04765 0
-4 9 12 47.6892 3.68212 0
4 -9 -12 49.6014 2.34789 0
-4 9 11 33.2399 4.23223 0
4 -9 -11 33.2727 2.03419 0
-4 9 10 83.3183 3.83961 0
4 -9 -10 92.4437 3.87594 0
-4 9 9 4.20321 4.14571 0
-4 9 8 79.2051 6.80408 0
4 -9 -8 82.6831 4.14676 0
-4 9 7 39.4607 3.34529 0
4 -9 -7 39.1312 2.74161 0
-4 9 6 65.5146 8.48516 0
4 -9 -6 60.8135 3.88892 0
-4 9 5 0.46962 2.61841 0
4 -9 -5 0.35768 1.66552 0
-4 9 4 53.1829 4.45328 0
4 -9 -4 50.8749 3.34203 0
-4 9 3 19.0832 5.26243 0
4 -9 -3 17.9892 6.08226 0
-4 9 2 174.427 8.32487 0
4 -9 -2 176.358 8.36637 0
-4 9 1 -0.10719 2.35266 0
4 -9 -1 1.90742 1.322 0
-4 9 0 56.7775 4.4239 0
4 -9 0 47.8998 3.45439 0
-4 9 -1 17.2969 5.01902 0
4 -9 1 11.7199 4.13268 0
4 -9 1 21.2214 8.02776 0
-4 9 -2 95.143 5.23972 0
4 -9 2 85.0528 4.0826 0
4 -9 2 82.1221 4.69381 0
-4 9 -3 0.23412 1.50394 0
4 -9 3 0.50895 0.53185 0
4 -9 3 1.98999 1.55993 0
-4 9 -4 72.1071 3.86323 0
4 -9 4 70.6794 3.04069 0
4 -9 4 71.4797 3.96204 0
-4 9 -5 0.87967 1.14979 0
4 -9 5 4.45096 1.90994 0
4 -9 5 3.6669 1.84301 0
-4 9 -6 149.888 7.31842 0
4 -9 6 143.276 6.71374 0
4 -9 6 141.983 8.73779 0
-4 9 -7 4.56688 1.94198 0
4 -9 7 4.36 2.36463 0
4 -9 7 4.38002 3.1788 0
-4 9 -8 3.73505 2.61112 0
4 -9 8 2.91667 2.62607 0
4 -9 8 4.74574 2.32265 0
-4 9 -9 1.61504 1.39016 0
4 -9 9 0.35163 0.88316 0
4 -9 9 1.2859 1.47398 0
-4 9 -10 42.1015 3.44643 0
4 -9 10 48.2793 3.57342 0
4 -9 10 44.3777 3.48746 0
-4 8 17 5.32053 2.47542 0
-4 8 15 109.484 5.06306 0
-4 8 14 5.93127 3.96525 0
-4 8 13 10.6342 5.76153 0
-4 8 12 3.28021 1.92313 0
4 -8 -12 3.75676 1.62317 0
-4 8 11 100.422 6.33019 0
4 -8 -11 109.563 6.28474 0
-4 8 10 101.021 4.82919 0
4 -8 -10 99.8875 4.58195 0
-4 8 9 21.7985 6.90098 0
4 -8 -9 25.1588 2.94781 0
-4 8 8 3.2313 2.30968 0
4 -8 -8 5.57208 2.21357 0
-4 8 7 99.7376 6.67744 0
4 -8 -7 102.099 6.326 0
-4 8 6 55.8306 5.34469 0
4 -8 -6 46.7165 2.57611 0
-4 8 5 25.4395 6.90796 0
4 -8 -5 23.2381 8.91088 0
-4 8 4 3.87103 1.89446 0
4 -8 -4 1.83364 1.62991 0
-4 8 3 75.0257 3.55809 0
4 -8 -3 78.1463 3.47242 0
-4 8 2 150.51 11.7939 0
4 -8 -2 142.314 4.9968 0
4 -8 -2 134.191 6.72976 0
-4 8 1 36.7899 8.9087 0
4 -8 -1 38.5119 1.39284 0
4 -8 -1 36.988 3.38305 0
-4 8 0 0.31693 0.92062 0
4 -8 0 0.12376 0.42862 0
4 -8 0 1.13191 1.17718 0
-4 8 -1 106.907 5.37974 0
4 -8 1 96.0111 3.55575 0
4 -8 1 101.784 7.44178 0
-4 8 -2 120.514 5.46343 0
4 -8 2 109.12 4.11656 0
4 -8 2 116.505 7.8241 0
-4 8 -3 76.6709 7.30851 0
4 -8 3 68.2498 4.04222 0
4 -8 3 71.77 4.60419 0
-4 8 -4 2.531 2.07835 0
4 -8 4 5.75755 2.23015 0
4 -8 4 6.7015 2.47304 0
-4 8 -5 19.503 7.41868 0
4 -8 5 18.8805 1.82741 0
4 -8 5 27.0919 3.43403 0
-4 8 -6 91.6324 8.77532 0
4 -8 6 100.492 4.66876 0
4 -8 6 109.326 5.98225 0
-4 8 -7 18.9484 2.9613 0
4 -8 7 19.0341 1.72681 0
4 -8 7 13.7435 5.92015 0
-4 8 -8 4.85767 3.07121 0
4 -8 8 5.68994 2.253 0
4 -8 8 7.63817 3.5612 0
-4 8 -9 1.30515 1.74916 0
4 -8 9 -0.0157 1.25805 0
4 -8 9 1.33206 1.09435 0
-4 8 -10 69.7284 4.79439 0
4 -8 10 65.741 4.99773 0
4 -8 10 80.2055 4.06239 0
-4 8 -11 19.8297 2.40293 0
4 -8 11 11.333 6.4641 0
4 -8 11 12.5742 5.27993 0
-4 8 -12 7.49859 4.10315 0
4 -8 12 5.07189 3.17501 0
4 -8 12 5.01001 3.04932 0
-4 7 18 0.57701 0.7486 0
-4 7 17 48.9723 6.21792 0
-4 7 16 0.50132 1.22801 0
-4 7 15 93.128 4.1132 0
-4 7 14 1.30421 1.15463 0
-4 7 13 46.475 2.42534 0
-4 7 12 1.04043 1.97733 0
4 -7 -12 1.26818 0.95502 0
-4 7 11 103.575 4.85765 0
4 -7 -11 103.92 4.39256 0
-4 7 10 5.46677 2.83177 0
4 -7 -10 3.99813 1.21199 0
-4 7 9 151.956 7.75348 0
4 -7 -9 154.738 5.75449 0
-4 7 8 7.70044 1.75399 0
4 -7 -8 8.83411 2.75627 0
-4 7 7 44.1545 2.86758 0
4 -7 -7 43.7196 2.918 0
-4 7 6 21.6025 5.71641 0
4 -7 -6 15.1801 5.15934 0
-4 7 5 182.74 7.41535 0
4 -7 -5 191.056 7.06744 0
-4 7 4 0.74486 1.55712 0
4 -7 -4 0.39097 1.16278 0
-4 7 3 59.1152 4.65606 0
4 -7 -3 62.1773 1.55656 0
4 -7 -3 59.3639 1.51228 0
4 -7 -3 58.7712 5.27596 0
-4 7 2 75.4787 5.18504 0
4 -7 -2 65.4505 2.48485 0
4 -7 -2 66.8313 3.97167 0
-4 7 1 195.224 8.04679 0
4 -7 -1 192.779 5.60176 0
4 -7 -1 187.143 5.91165 0
4 -7 -1 184.715 7.23292 0
-4 7 0 3.70254 1.87654 0
4 -7 0 0.47166 0.54915 0
4 -7 0 0.45482 0.48177 0
4 -7 0 1.60028 1.89001 0
-4 7 -1 6.15595 3.60615 0
4 -7 1 8.97728 2.72862 0
4 -7 1 7.36793 3.75185 0
-4 7 -2 20.0654 8.57958 0
4 -7 2 20.0784 3.22665 0
4 -7 2 22.5412 3.09072 0
-4 7 -3 291.062 9.74141 0
4 -7 3 276.128 9.29433 0
4 -7 3 283.474 9.54935 0
-4 7 -4 6.37744 4.06031 0
4 -7 4 10.0775 3.90462 0
4 -7 4 12.5442 4.18853 0
-4 7 -5 0.99556 1.04283 0
4 -7 5 0.34859 0.61743 0
4 -7 5 1.0192 0.77695 0
-4 7 -6 29.0885 5.52778 0
4 -7 6 37.7063 2.92195 0
4 -7 6 32.5914 2.40078 0
-4 7 -7 199.692 9.91874 0
4 -7 7 209.051 9.84541 0
4 -7 7 227.077 11.1083 0
-4 7 -8 7.37819 3.81443 0
4 -7 8 7.56426 3.01072 0
4 -7 8 9.18721 4.27186 0
-4 7 -9 3.24942 2.33084 0
4 -7 9 2.10979 1.25752 0
4 -7 9 1.68488 1.10033 0
-4 7 -10 6.96413 3.54974 0
4 -7 10 5.36079 2.3805 0
4 -7 10 6.60005 2.58821 0
-4 7 -11 68.5949 4.20037 0
4 -7 11 64.2902 3.0532 0
4 -7 11 68.5084 3.01548 0
-4 7 -12 6.92076 2.84317 0
4 -7 12 6.03753 3.66962 0
4 -7 12 5.85878 4.49818 0
-4 7 -13 0.55296 0.8732 0
4 -7 13 0.76181 1.09199 0
4 -7 13 0.46544 0.86922 0
-4 6 18 9.20849 4.28506 0
-4 6 17 108.022 8.31078 0
-4 6 16 2.91642 1.40876 0
-4 6 15 3.12086 2.78416 0
-4 6 14 34.3029 3.7156 0
-4 6 13 97.6408 4.99007 0
-4 6 12 41.7865 3.2945 0
4 -6 -12 41.5025 2.3351 0
-4 6 11 2.44777 1.07853 0
-4 6 11 3.98561 1.82274 0
4 -6 -11 6.57873 2.2995 0
-4 6 10 16.6467 8.3355 0
-4 6 10 16.3402 0.84963 0
4 -6 -10 17.3143 2.49428 0
-4 6 9 390.409 12.0501 0
-4 6 9 401.353 10.8961 0
4 -6 -9 394.892 11.6506 0
-4 6 8 28.0603 2.68155 0
-4 6 8 31.2748 0.9402 0
4 -6 -8 36.6048 5.83982 0
-4 6 7 3.53188 2.07636 0
-4 6 7 0.73466 0.31387 0
4 -6 -7 1.85217 1.26237 0
-4 6 6 3.46408 2.41913 0
4 -6 -6 2.50501 1.47796 0
-4 6 5 373.024 14.4895 0
4 -6 -5 362.189 10.4287 0
-4 6 4 53.3091 10.6709 0
4 -6 -4 46.3287 2.79818 0
-4 6 3 2.19394 2.95086 0
4 -6 -3 5.11406 2.48979 0
-4 6 2 11.4649 3.86678 0
4 -6 -2 9.37858 0.85154 0
4 -6 -2 7.74904 1.43214 0
4 -6 -2 10.8262 5.61244 0
-4 6 1 615.087 9.17088 0
4 -6 -1 600.799 14.5582 0
4 -6 -1 623.303 8.89649 0
-4 6 0 4.14601 3.02537 0
4 -6 0 4.33725 1.34248 0
4 -6 0 4.71207 1.28894 0
4 -6 0 6.51735 3.34664 0
-4 6 -1 45.4977 6.48573 0
4 -6 1 39.8227 1.73403 0
4 -6 1 40.5546 2.61981 0
4 -6 1 46.2258 3.57691 0
-4 6 -2 1.98458 2.66072 0
4 -6 2 1.03797 0.77848 0
4 -6 2 1.70316 0.63594 0
4 -6 2 0.47878 0.85523 0
-4 6 -3 291.283 9.78579 0
4 -6 3 291.615 8.87721 0
4 -6 3 311.272 9.99791 0
-4 6 -4 2.59562 3.54814 0
4 -6 4 2.46635 2.00369 0
4 -6 4 3.01405 2.95281 0
-4 6 -5 51.075 3.33367 0
4 -6 5 58.4012 2.92919 0
4 -6 5 55.4361 5.27451 0
-4 6 -6 2.71035 1.36454 0
4 -6 6 1.73612 1.30834 0
4 -6 6 1.4145 1.09288 0
-4 6 -7 300.955 11.5477 0
4 -6 7 287.168 10.8662 0
4 -6 7 314.332 11.9304 0
-4 6 -8 2.01666 1.22144 0
4 -6 8 0.58069 1.12132 0
4 -6 8 1.79068 2.45432 0
-4 6 -9 55.2545 3.94906 0
4 -6 9 48.6321 3.46523 0
4 -6 9 53.8192 3.47063 0
-4 6 -10 5.82288 2.37049 0
4 -6 10 3.88617 2.09746 0
4 -6 10 6.65217 2.21484 0
-4 6 -11 89.5209 4.04537 0
4 -6 11 86.0562 3.9514 0
4 -6 11 85.2949 4.07669 0
-4 6 -12 2.03642 1.39406 0
4 -6 12 3.65826 1.97947 0
4 -6 12 2.10931 1.49656 0
-4 6 -13 27.1204 3.30926 0
4 -6 13 28.9151 2.15662 0
4 -6 13 30.3456 2.17385 0
-4 6 -14 0.40584 0.91111 0
4 -6 14 0.68384 0.78732 0
4 -6 14 0.60267 0.90299 0
-4 6 -15 42.36 3.33278 0
4 -6 15 40.2038 4.99534 0
-4 5 19 1.01806 0.43254 0
-4 5 18 25.5215 2.6351 0
-4 5 17 21.6757 1.93823 0
-4 5 16 59.1866 3.12966 0
-4 5 15 3.48331 1.33639 0
-4 5 15 5.08264 2.33025 0
-4 5 14 27.3998 2.98366 0
-4 5 14 22.9474 1.36858 0
-4 5 13 123.872 8.54528 0
-4 5 13 126.469 2.78276 0
-4 5 12 145.614 8.57184 0
-4 5 12 146.247 8.00794 0
4 -5 -12 141.98 7.67076 0
-4 5 11 36.0336 4.02105 0
-4 5 11 32.5504 1.35054 0
4 -5 -11 37.6958 1.59192 0
-4 5 10 24.743 7.18864 0
-4 5 10 22.4359 1.21153 0
4 -5 -10 23.4928 2.56806 0
-4 5 9 32.0274 9.95198 0
-4 5 9 29.114 1.70858 0
4 -5 -9 30.1214 1.65072 0
-4 5 8 61.2805 7.78627 0
-4 5 8 62.8291 2.37505 0
4 -5 -8 66.0019 6.21968 0
-4 5 7 8.5325 4.79575 0
-4 5 7 8.8918 1.17246 0
4 -5 -7 9.83355 3.92207 0
-4 5 6 4.75136 2.37172 0
4 -5 -6 5.17898 2.51426 0
-4 5 5 100.17 8.3478 0
4 -5 -5 98.575 5.22808 0
-4 5 4 398.965 12.9774 0
4 -5 -4 368.21 11.9531 0
-4 5 3 95.2008 7.2989 0
4 -5 -3 78.7208 4.76515 0
-4 5 2 12.1167 5.03427 0
4 -5 -2 13.7388 7.01355 0
-4 5 1 431.911 16.4661 0
4 -5 -1 451.919 15.5999 0
4 -5 -1 435.371 16.4704 0
-4 5 0 310.045 12.3703 0
4 -5 0 318.694 11.2026 0
4 -5 0 319.014 11.301 0
4 -5 0 302.418 12.6783 0
-4 5 -1 395.478 13.3637 0
4 -5 1 389.588 12.1258 0
4 -5 1 393.268 11.6669 0
4 -5 1 399.028 13.111 0
-4 5 -2 11.1354 3.01223 0
4 -5 2 11.658 3.24267 0
4 -5 2 9.44408 2.81059 0
4 -5 2 11.4317 3.48135 0
-4 5 -3 85.7235 5.14893 0
4 -5 3 95.3092 6.58119 0
4 -5 3 97.1656 5.66102 0
-4 5 -4 93.0565 4.85138 0
4 -5 4 102.452 3.87879 0
4 -5 4 100.053 4.59381 0
-4 5 -5 222.656 7.97708 0
4 -5 5 233.848 7.29678 0
4 -5 5 229.901 8.02462 0
-4 5 -6 3.16547 2.26402 0
4 -5 6 2.52058 1.66421 0
4 -5 6 2.71821 1.35564 0
-4 5 -7 66.1931 3.77112 0
4 -5 7 57.5448 7.37813 0
4 -5 7 56.5996 3.9024 0
-4 5 -8 40.8331 3.27784 0
4 -5 8 38.8521 4.25435 0
4 -5 8 46.7201 3.83141 0
-4 5 -9 176.711 6.78761 0
4 -5 9 173.346 6.8083 0
4 -5 9 173.966 8.22078 0
-4 5 -10 1.50131 1.28045 0
4 -5 10 1.6383 1.57959 0
4 -5 10 2.18068 1.1155 0
-4 5 -11 1.39559 0.98898 0
4 -5 11 1.96222 1.53725 0
4 -5 11 4.29171 1.74187 0
-4 5 -12 7.73943 5.1432 0
4 -5 12 10.2839 5.22202 0
4 -5 12 7.63598 3.86233 0
-4 5 -13 71.1488 5.46407 0
4 -5 13 72.9007 3.55466 0
4 -5 13 72.377 3.36928 0
-4 5 -14 0.5835 1.12766 0
4 -5 14 2.74048 1.7505 0
4 -5 14 0.60317 0.78456 0
-4 5 -15 17.9708 3.5839 0
4 -5 15 15.546 4.92761 0
-4 5 -16 0.86759 1.31102 0
4 -5 16 2.19017 0.7924 0
-4 4 19 0.04039 0.62318 0
-4 4 18 2.20331 1.55094 0
-4 4 17 1.04292 0.90927 0
-4 4 17 0.62882 0.96624 0
-4 4 16 163.886 7.81675 0
-4 4 16 156.946 7.51377 0
-4 4 15 4.79249 2.14381 0
-4 4 15 2.5293 1.246 0
-4 4 14 2.46919 1.32772 0
-4 4 14 2.9774 1.31708 0
-4 4 13 8.12612 4.55758 0
-4 4 13 5.43261 2.45693 0
-4 4 12 308.922 11.8047 0
-4 4 12 294.705 10.9152 0
4 -4 -12 306.106 10.3966 0
-4 4 11 6.22089 2.29965 0
-4 4 11 6.15373 3.72614 0
4 -4 -11 5.10465 2.07576 0
-4 4 10 3.58773 2.32708 0
-4 4 10 2.08858 1.91482 0
4 -4 -10 3.77512 1.25724 0
-4 4 9 17.1749 2.30914 0
-4 4 9 12.1348 4.4801 0
4 -4 -9 16.4549 2.15278 0
-4 4 8 501.434 13.8238 0
-4 4 8 478.552 11.8772 0
4 -4 -8 496.796 13.3818 0
-4 4 7 47.9758 6.99818 0
-4 4 7 46.3853 2.70384 0
4 -4 -7 46.8666 3.02194 0
-4 4 6 22.5235 5.57862 0
-4 4 6 21.0264 0.76343 0
-4 4 6 21.3335 1.01933 0
4 -4 -6 21.534 4.31191 0
-4 4 5 0.76956 1.17435 0
4 -4 -5 0.27135 1.03646 0
-4 4 4 534.398 19.3695 0
4 -4 -4 501.748 18.2624 0
-4 4 3 115.553 6.11445 0
4 -4 -3 89.6011 4.79574 0
-4 4 2 75.1442 4.30637 0
4 -4 -2 75.8539 8.54998 0
-4 4 1 77.3318 4.59493 0
4 -4 -1 76.1952 3.10376 0
4 -4 -1 77.7835 3.20091 0
4 -4 -1 81.1593 6.34839 0
-4 4 0 688.852 21.885 0
4 -4 0 666.948 19.8569 0
4 -4 0 694.41 20.7212 0
4 -4 0 617.774 20.2915 0
-4 4 -1 135.723 8.74671 0
4 -4 1 123.408 5.34389 0
4 -4 1 136.326 5.93713 0
4 -4 1 135.13 7.04293 0
-4 4 -2 97.9631 6.34254 0
4 -4 2 99.2787 5.45624 0
4 -4 2 112.855 4.2699 0
-4 4 -3 5.68091 3.69971 0
4 -4 3 10.6539 3.25895 0
4 -4 3 12.0385 6.21961 0
-4 4 -4 277.855 11.0696 0
4 -4 4 279.695 10.5488 0
4 -4 4 299.875 13.4859 0
-4 4 -5 229.34 10.0462 0
4 -4 5 210.236 8.95628 0
4 -4 5 227.871 10.732 0
-4 4 -6 97.6901 4.70608 0
4 -4 6 88.1032 4.03822 0
4 -4 6 79.3162 3.82078 0
-4 4 -7 6.78424 2.63285 0
4 -4 7 9.2605 3.90376 0
4 -4 7 3.66342 2.39615 0
-4 4 -8 106.598 4.91315 0
4 -4 8 97.1235 4.57537 0
4 -4 8 104.449 4.79032 0
-4 4 -9 137.4 5.85124 0
4 -4 9 141.551 6.24197 0
4 -4 9 135.683 5.94412 0
-4 4 -10 184.019 7.67715 0
4 -4 10 171.062 9.15944 0
4 -4 10 181.121 7.0643 0
-4 4 -11 0.30543 0.9791 0
4 -4 11 0.46529 1.29024 0
4 -4 11 -0.89346 1.09613 0
-4 4 -12 30.0978 4.41008 0
4 -4 12 33.5699 2.68335 0
4 -4 12 26.1833 1.5775 0
-4 4 -13 59.5227 4.87907 0
4 -4 13 61.3084 3.41709 0
4 -4 13 61.7816 2.93143 0
-4 4 -14 28.619 2.02338 0
4 -4 14 37.485 2.70017 0
4 -4 14 26.9247 1.64531 0
-4 4 -15 0.25229 1.1079 0
4 -4 15 0.89948 1.29219 0
4 -4 15 0.6779 0.8578 0
-4 4 -16 5.34557 4.31426 0
4 -4 16 5.94752 4.64502 0
-4 4 -17 15.9475 3.64212 0
4 -4 17 19.3354 2.09937 0
-4 3 19 8.49539 4.84562 0
-4 3 19 5.67202 4.43923 0
-4 3 18 6.19526 2.66937 0
-4 3 18 1.8856 2.33673 0
-4 3 17 1.69363 0.8846 0
-4 3 17 1.72252 1.60472 0
-4 3 16 99.5137 7.08508 0
-4 3 16 101.129 5.28238 0
-4 3 15 30.8035 2.91951 0
-4 3 15 25.9325 4.28143 0
-4 3 14 91.4799 4.56417 0
-4 3 14 94.974 4.40038 0
-4 3 13 2.26263 1.35641 0
-4 3 13 1.32717 0.75421 0
-4 3 12 98.1656 5.09536 0
-4 3 12 90.7912 2.67964 0
-4 3 11 82.9879 9.76543 0
-4 3 11 76.513 3.09133 0
4 -3 -11 79.5479 2.1118 0
-4 3 10 135.813 8.04334 0
-4 3 10 129.379 5.45263 0
4 -3 -10 127.116 4.77105 0
-4 3 9 1.19507 1.39489 0
-4 3 9 -0.87229 0.94914 0
4 -3 -9 1.59856 1.00294 0
-4 3 8 226.654 9.92615 0
-4 3 8 224.593 8.98178 0
4 -3 -8 223.898 8.92454 0
-4 3 7 9.15644 1.94818 0
-4 3 7 9.10016 3.98727 0
4 -3 -7 10.715 3.34221 0
-4 3 6 356.572 13.4798 0
-4 3 6 326.96 11.5298 0
-4 3 6 347.616 12.1905 0
4 -3 -6 359.132 13.2871 0
-4 3 6 344.491 12.5667 0
-4 3 5 3.00978 1.09535 0
-4 3 5 4.11967 1.34737 0
-4 3 5 3.41206 1.0178 0
4 -3 -5 5.00176 3.23758 0
-4 3 5 5.19563 1.89989 0
-4 3 4 327.695 11.2513 0
4 -3 -4 304.644 10.4988 0
-4 3 4 307.557 10.5242 0
-4 3 3 14.1348 6.36781 0
4 -3 -3 13.2055 2.1226 0
-4 3 2 715.325 18.6618 0
4 -3 -2 686.653 17.9739 0
-4 3 1 12.0786 7.67043 0
4 -3 -1 9.64423 2.45081 0
4 -3 -1 8.27353 3.22936 0
-4 3 0 283.179 11.736 0
4 -3 0 302.733 10.1383 0
4 -3 0 282.653 9.23557 0
4 -3 0 280.383 10.3736 0
-4 3 -1 37.5673 4.32847 0
4 -3 1 35.2146 2.92333 0
4 -3 1 33.3895 2.66492 0
4 -3 1 42.1595 3.86009 0
-4 3 -2 920.8 28.4966 0
4 -3 2 930.806 28.3816 0
4 -3 2 885.209 26.9701 0
4 -3 2 897.803 27.9111 0
-4 3 -3 1.92676 2.00704 0
4 -3 3 0.26092 1.47518 0
4 -3 3 1.83142 2.44859 0
-4 3 -4 110.679 6.23181 0
4 -3 4 103.765 5.26793 0
4 -3 4 103.044 5.47789 0
-4 3 -5 18.6166 2.00285 0
4 -3 5 17.958 2.77421 0
4 -3 5 20.3127 7.62345 0
-4 3 -6 681.638 24.2405 0
4 -3 6 627.433 18.9507 0
4 -3 6 655.04 19.8912 0
-4 3 -7 5.1808 2.19621 0
4 -3 7 6.57253 2.09163 0
4 -3 7 1.95889 1.55665 0
-4 3 -8 14.7417 5.31618 0
4 -3 8 16.7907 2.70321 0
4 -3 8 15.8884 4.55673 0
-4 3 -9 15.7606 5.39904 0
4 -3 9 14.5488 2.94048 0
4 -3 9 14.7408 6.67371 0
-4 3 -10 374.647 11.6048 0
4 -3 10 382.605 15.7334 0
4 -3 10 347.091 12.0506 0
-4 3 -11 1.09426 1.04244 0
4 -3 11 1.59719 2.20681 0
4 -3 11 1.95382 1.17961 0
-4 3 -12 2.52631 1.98598 0
4 -3 12 4.03519 2.90568 0
4 -3 12 2.59816 0.72427 0
-4 3 -13 1.07151 1.52843 0
4 -3 13 0.51838 1.11961 0
4 -3 13 1.06349 1.02341 0
-4 3 -14 105.342 6.87216 0
4 -3 14 107.834 6.68549 0
4 -3 14 108.772 5.40365 0
-4 3 -15 0.3047 0.63267 0
4 -3 15 1.27231 1.12578 0
4 -3 15 0.9583 0.97226 0
-4 3 -16 0.55422 0.70478 0
4 -3 16 1.05826 0.9317 0
-4 3 -17 3.79447 1.96041 0
4 -3 17 3.92285 2.87132 0
-4 3 -18 77.0325 5.63857 0
4 -3 18 76.4279 4.35101 0
-4 2 19 46.7048 3.69877 0
-4 2 19 55.0445 3.94067 0
-4 2 18 19.3775 1.803 0
-4 2 18 24.4063 2.24174 0
-4 2 17 0.89904 0.91693 0
-4 2 17 0.76038 1.66837 0
-4 2 16 18.9348 2.10998 0
-4 2 16 13.7986 5.40412 0
-4 2 15 80.8905 4.41226 0
-4 2 15 80.9291 3.97797 0
-4 2 14 168.756 8.69575 0
-4 2 14 180.608 7.83171 0
-4 2 13 2.18477 1.29841 0
-4 2 13 2.42785 2.75986 0
-4 2 12 19.012 5.87104 0
-4 2 12 17.6986 4.1936 0
-4 2 11 105.523 5.24156 0
-4 2 11 110.645 4.54336 0
-4 2 10 206.996 7.34888 0
-4 2 10 202.562 7.699 0
4 -2 -10 197.838 5.0823 0
-4 2 9 38.5613 9.94024 0
-4 2 9 35.0579 2.60662 0
4 -2 -9 34.735 2.23994 0
-4 2 8 68.368 4.52616 0
-4 2 8 57.7617 3.44345 0
4 -2 -8 61.2773 3.20993 0
-4 2 8 57.681 3.01037 0
-4 2 7 127.387 5.36615 0
-4 2 7 119.447 2.87862 0
4 -2 -7 125.686 5.66629 0
-4 2 7 123.217 4.34294 0
-4 2 6 540.305 17.2414 0
-4 2 6 537.053 16.2759 0
-4 2 6 510.425 15.6128 0
4 -2 -6 525.453 16.2467 0
-4 2 6 538.618 16.5587 0
-4 2 5 167.01 4.34936 0
-4 2 5 162.583 6.95897 0
-4 2 5 163.046 7.70383 0
4 -2 -5 167.734 6.17765 0
-4 2 5 167.875 6.02659 0
-4 2 4 33.7806 10.4616 0
-4 2 4 31.5558 1.91013 0
-4 2 4 27.2056 1.88253 0
4 -2 -4 28.3704 2.50084 0
-4 2 4 30.5014 2.11991 0
-4 2 3 321.473 10.9358 0
4 -2 -3 322.538 10.8259 0
-4 2 3 324.007 9.77282 0
-4 2 3 315.762 9.58187 0
4 -2 -3 314.582 10.6523 0
-4 2 3 327.034 11.526 0
-4 2 2 674.69 17.2445 0
4 -2 -2 660.467 16.8616 0
4 -2 -2 656.841 17.0949 0
-4 2 2 697.559 17.9745 0
-4 2 1 110.373 5.10868 0
4 -2 -1 108.477 4.79167 0
4 -2 -1 100.668 3.71263 0
-4 2 1 100.796 3.71263 0
4 -2 -1 108.806 9.10174 0
-4 2 1 96.1931 4.57221 0
-4 2 0 49.9411 3.68734 0
4 -2 0 47.5257 2.76398 0
4 -2 0 43.7833 1.93234 0
-4 2 0 47.4218 2.51326 0
4 -2 0 51.9224 3.3021 0
-4 2 -1 19.6601 2.44543 0
4 -2 1 21.9847 1.73897 0
4 -2 1 22.2806 3.40549 0
-4 2 -1 21.7251 1.92012 0
4 -2 1 23.3373 2.76545 0
-4 2 -2 823.149 20.7988 0
4 -2 2 919.639 22.8305 0
4 -2 2 824.711 20.9338 0
-4 2 -2 829.127 20.3995 0
4 -2 2 883.068 26.1776 0
-4 2 -3 162.681 6.18247 0
4 -2 3 167.36 7.00454 0
4 -2 3 164.179 9.85929 0
-4 2 -3 159.505 6.32323 0
4 -2 3 164.207 6.71175 0
-4 2 -4 13.3723 1.71754 0
4 -2 4 15.8793 3.10437 0
4 -2 4 20.7065 7.56891 0
-4 2 -4 17.0367 2.97103 0
4 -2 4 16.162 5.07261 0
-4 2 -5 181.926 7.08381 0
4 -2 5 191.068 9.37666 0
4 -2 5 184.004 7.08881 0
4 -2 5 175.148 6.85853 0
-4 2 -6 459.225 17.0198 0
4 -2 6 510.589 18.6414 0
4 -2 6 522.547 19.1321 0
-4 2 -7 81.7553 4.49402 0
4 -2 7 91.6805 6.25501 0
4 -2 7 83.403 4.89503 0
-4 2 -8 32.7253 2.43664 0
4 -2 8 34.5007 3.34681 0
4 -2 8 32.313 2.58357 0
-4 2 -9 20.4582 5.46921 0
4 -2 9 24.6076 5.5757 0
4 -2 9 21.1884 6.34778 0
-4 2 -10 249.178 7.62775 0
4 -2 10 252.102 8.9125 0
4 -2 10 244.285 7.69795 0
-4 2 -11 15.0552 1.67569 0
4 -2 11 22.822 8.15396 0
4 -2 11 25.2037 3.1887 0
-4 2 -12 29.2177 2.5791 0
4 -2 12 30.3143 2.2814 0
4 -2 12 28.2213 1.88648 0
-4 2 -13 1.97116 1.50048 0
4 -2 13 2.12806 2.06245 0
4 -2 13 1.5718 1.35214 0
-4 2 -14 114.278 5.02244 0
4 -2 14 130.512 7.2705 0
4 -2 14 133.437 6.48236 0
-4 2 -15 3.32406 3.01182 0
4 -2 15 4.54354 3.06345 0
4 -2 15 2.75366 2.41437 0
-4 2 -16 17.3608 1.81731 0
4 -2 16 14.5361 6.48218 0
-4 2 -17 0.01718 0.97478 0
4 -2 17 1.18734 1.4364 0
-4 2 -18 53.1477 2.42145 0
4 -2 18 49.5866 7.26034 0
-4 1 19 52.6679 4.07842 0
-4 1 19 52.8155 3.90363 0
-4 1 18 3.88869 2.86239 0
-4 1 18 3.85122 2.44813 0
-4 1 17 45.0487 2.55949 0
-4 1 17 41.4338 2.3051 0
-4 1 16 7.86501 4.04363 0
-4 1 16 11.3996 1.33354 0
-4 1 15 86.7503 7.74708 0
-4 1 15 84.2691 4.90588 0
-4 1 14 13.2794 4.47551 0
-4 1 14 11.8107 4.65597 0
-4 1 13 98.4914 4.32998 0
-4 1 13 106.327 4.68412 0
-4 1 12 14.2639 4.02167 0
-4 1 12 10.8254 3.87189 0
-4 1 11 122.14 6.70963 0
-4 1 11 110.941 6.41012 0
-4 1 10 35.681 3.67513 0
-4 1 10 34.7229 5.71854 0
-4 1 9 241.914 13.5094 0
-4 1 9 233.014 9.76981 0
-4 1 8 0.23883 1.09426 0
-4 1 8 0.71214 1.42428 0
4 -1 -8 0.63398 0.48634 0
-4 1 8 0.29962 0.482 0
-4 1 7 154.455 6.34084 0
-4 1 7 141.661 6.16731 0
-4 1 7 141.159 6.4534 0
4 -1 -7 144.263 6.14386 0
-4 1 7 145.183 6.14386 0
-4 1 6 152.806 7.32139 0
-4 1 6 156.337 6.77343 0
-4 1 6 160.751 3.41969 0
4 -1 -6 147.224 6.37768 0
-4 1 6 154.47 6.62122 0
-4 1 5 1232.59 30.4715 0
-4 1 5 1134.87 27.4309 0
4 -1 -5 1246.93 30.2418 0
-4 1 5 1233.06 29.9575 0
-4 1 4 6.11488 3.74726 0
-4 1 4 6.42472 4.83461 0
-4 1 4 7.62899 1.97009 0
4 -1 -4 2.40269 3.85834 0
-4 1 4 7.18469 2.20978 0
-4 1 3 343.333 4.861 0
-4 1 3 352.259 5.24395 0
-4 1 3 354.686 3.3539 0
4 -1 -3 356.508 8.62874 0
-4 1 3 338.892 4.81159 0
-4 1 2 371.729 8.72551 0
4 -1 -2 373.112 8.73195 0
4 -1 -2 379.515 8.06273 0
-4 1 2 347.933 2.92781 0
4 -1 -2 366.304 5.55318 0
-4 1 2 359.38 5.26362 0
-4 1 1 629.137 13.3518 0
4 -1 -1 636.78 13.53 0
4 -1 -1 609.746 12.3882 0
-4 1 1 635.09 12.8898 0
4 -1 -1 656.487 14.718 0
-4 1 1 670.981 14.916 0
-4 1 0 330.68 8.57049 0
4 -1 0 330.454 8.43731 0
4 -1 0 321.277 7.84463 0
-4 1 0 327.33 8.111 0
4 -1 0 341.222 9.62932 0
-4 1 0 331.559 9.19647 0
-4 1 -1 74.0288 3.38988 0
4 -1 1 72.9583 5.47138 0
4 -1 1 76.9429 2.67622 0
-4 1 -1 74.4583 3.79957 0
4 -1 1 65.8878 3.43613 0
-4 1 -1 72.509 3.21807 0
-4 1 -2 414.428 10.6297 0
4 -1 2 442.815 9.77181 0
4 -1 2 379.385 8.7914 0
-4 1 -2 419.833 9.46866 0
4 -1 2 440.325 11.3005 0
-4 1 -2 444.092 10.6039 0
-4 1 -3 1133.49 22.9885 0
4 -1 3 1112.14 22.66 0
4 -1 3 1070.66 22.1084 0
-4 1 -3 1068.07 22.2014 0
4 -1 3 1111.25 24.6496 0
-4 1 -4 150.184 6.05385 0
4 -1 4 160.729 6.54709 0
4 -1 4 144.647 6.1067 0
-4 1 -4 145.428 6.07734 0
4 -1 4 149.943 7.95632 0
-4 1 -5 74.2531 3.60052 0
4 -1 5 83.2131 5.71135 0
4 -1 5 75.1656 4.25465 0
-4 1 -5 68.3933 3.6225 0
4 -1 5 82.7239 4.64494 0
-4 1 -6 21.1184 3.38283 0
4 -1 6 24.0114 5.74519 0
4 -1 6 27.0116 8.74025 0
4 -1 6 24.1237 2.48482 0
-4 1 -7 414.661 13.3014 0
4 -1 7 424.075 13.3958 0
4 -1 7 410.057 13.5845 0
4 -1 7 410 14.0609 0
-4 1 -8 157.368 6.08602 0
4 -1 8 171.439 7.71012 0
4 -1 8 158.25 6.49641 0
-4 1 -9 1.15898 0.96379 0
4 -1 9 0.54493 2.5335 0
4 -1 9 0.83366 0.76859 0
-4 1 -10 73.0598 3.52853 0
4 -1 10 75.8804 4.77124 0
4 -1 10 71.5723 4.45115 0
-4 1 -11 177.495 8.50489 0
4 -1 11 180.833 9.17323 0
4 -1 11 185.605 4.59527 0
-4 1 -12 198.542 6.8592 0
4 -1 12 184.401 7.58005 0
4 -1 12 202.258 6.79833 0
-4 1 -13 -0.26609 1.39623 0
4 -1 13 1.5816 1.79088 0
4 -1 13 0.26908 0.58002 0
-4 1 -14 64.0878 4.39202 0
4 -1 14 63.708 4.42832 0
4 -1 14 64.5596 4.64611 0
-4 1 -15 36.9877 2.12252 0
4 -1 15 37.329 2.84899 0
4 -1 15 38.0839 3.61165 0
-4 1 -16 31.4952 5.03501 0
4 -1 16 29.9146 4.84523 0
-4 1 -17 12.1686 5.66162 0
4 -1 17 10.2133 5.14142 0
-4 1 -18 16.7377 6.31089 0
4 -1 18 19.1796 4.64947 0
-4 1 -19 17.7819 2.27568 0
4 -1 19 14.9617 3.09929 0
-4 0 19 18.4761 2.68824 0
-4 0 19 8.53482 6.19388 0
-4 0 18 2.48477 1.69285 0
-4 0 18 4.14677 2.57528 0
-4 0 17 76.2367 3.28344 0
4 0 -16 0.06385 0.56759 0
-4 0 16 0.37366 1.10443 0
4 0 -15 3.32148 1.62384 0
-4 0 15 1.84018 1.55766 0
4 0 -14 5.5638 3.5286 0
-4 0 14 4.81298 2.5825 0
4 0 -13 185.952 7.72486 0
-4 0 13 195.602 8.13875 0
4 0 -12 4.84258 2.08399 0
-4 0 12 4.52269 1.65642 0
4 0 -11 8.29997 3.51456 0
-4 0 11 16.3328 3.92562 0
4 0 -10 9.78816 3.05997 0
-4 0 10 8.15742 2.6159 0
4 0 -9 296.548 10.0977 0
-4 0 9 302.955 10.1786 0
-4 0 9 304.756 8.67713 0
4 0 -8 0.79282 2.73568 0
-4 0 8 1.00628 1.26329 0
-4 0 8 0.33107 0.46175 0
4 0 -7 15.5118 7.633 0
-4 0 7 18.6359 2.05595 0
4 0 -6 6.7975 2.63262 0
-4 0 6 7.00831 2.81258 0
4 0 -6 6.95175 2.15957 0
-4 0 6 5.91825 2.24184 0
4 0 -5 449.585 14.7348 0
-4 0 5 459.635 14.5787 0
4 0 -5 462.602 14.5229 0
-4 0 5 456.829 14.3221 0
-4 0 4 10.461 2.43069 0
-4 0 4 10.539 5.48555 0
-4 0 4 11.1872 1.0503 0
4 0 -4 11.6853 4.2492 0
-4 0 4 9.44667 1.68648 0
-4 0 3 110.093 3.86234 0
-4 0 3 110.629 6.03929 0
4 0 -3 108.107 3.50483 0
-4 0 3 110.169 3.4793 0
4 0 -3 106.875 3.91979 0
-4 0 3 101.398 3.53037 0
-4 0 2 11.8773 4.11084 0
-4 0 2 5.43649 2.6379 0
4 0 -2 6.66171 3.74261 0
-4 0 2 8.81086 1.31226 0
4 0 -2 7.74633 3.4748 0
-4 0 2 10.652 3.11326 0
-4 0 1 2218.76 43.6249 0
-4 0 1 2230.38 9.66216 0
4 0 -1 2047.25 40.6668 0
-4 0 1 2228.83 43.6525 0
4 0 -1 2240.77 13.346 0
-4 0 1 2119.64 42.4499 0
-4 0 0 89.5266 2.89769 0
4 0 0 92.9786 3.01696 0
4 0 0 93.2382 3.26253 0
-4 0 0 92.1858 3.18535 0
4 0 0 91.9823 4.10447 0
-4 0 0 91.3929 6.61627 0
-4 0 -1 48.4644 3.80181 0
4 0 1 43.8574 1.50532 0
4 0 1 40.8397 1.98142 0
-4 0 -1 39.1314 3.2557 0
4 0 1 43.6893 3.20669 0
-4 0 -1 38.1512 2.69558 0
-4 0 -2 56.4244 2.75425 0
4 0 2 53.6426 1.79954 0
4 0 2 48.8897 2.27346 0
-4 0 -2 51.5203 2.85728 0
4 0 2 47.8182 3.0702 0
-4 0 -2 50.5793 3.74331 0
-4 0 -3 1497.03 29.4713 0
4 0 3 1424.63 28.1724 0
4 0 3 1408.71 28.9677 0
-4 0 -3 1497.51 30.2799 0
4 0 3 1535.66 32.3277 0
-4 0 -3 1446.6 29.8093 0
-4 0 -4 75.9648 3.26778 0
4 0 4 80.5548 2.82074 0
4 0 4 79.8748 3.62037 0
-4 0 -4 73.4274 4.01703 0
4 0 4 76.0214 3.59518 0
-4 0 -4 72.6781 3.61407 0
-4 0 -5 832.468 20.5113 0
4 0 5 833.3 20.3756 0
4 0 5 769.269 19.7206 0
-4 0 -5 761.616 19.5849 0
4 0 5 767.688 19.8622 0
4 0 6 6.42812 3.41921 0
4 0 6 9.39326 3.03626 0
4 0 6 10.3233 4.20153 0
-4 0 -7 500.854 15.7827 0
4 0 7 522.873 16.2159 0
4 0 7 535.552 17.5559 0
4 0 7 473.303 15.4955 0
-4 0 -8 43.8976 2.87124 0
4 0 8 41.0634 2.00987 0
4 0 8 39.7204 4.49211 0
4 0 8 44.759 3.34824 0
-4 0 -9 162.179 6.43791 0
4 0 9 166.013 7.11333 0
4 0 9 157.819 6.07027 0
-4 0 -10 2.1341 1.24224 0
4 0 10 3.95367 2.79902 0
4 0 10 2.23364 1.81558 0
-4 0 -11 279.868 9.23433 0
4 0 11 284.598 11.2507 0
4 0 11 296.094 9.03342 0
-4 0 -12 20.8663 2.40094 0
4 0 12 18.5191 7.5151 0
4 0 12 17.9415 1.59503 0
-4 0 -13 107.942 7.59834 0
4 0 13 99.4319 4.87576 0
4 0 13 110.615 4.62684 0
-4 0 -14 1.10338 1.40034 0
4 0 14 2.32904 2.10778 0
4 0 14 2.45423 0.97237 0
-4 0 -15 64.9269 3.77177 0
4 0 15 60.2 4.06316 0
4 0 15 62.1938 3.23488 0
-4 0 -16 9.82337 4.88295 0
4 0 16 10.9929 4.63055 0
-4 0 -17 60.3242 3.56831 0
4 0 17 58.4622 3.23124 0
-4 0 -18 0.43225 0.37143 0
4 0 18 0.31713 1.05782 0
-4 0 -19 28.1306 3.88985 0
4 0 19 28.9009 3.88176 0
4 1 -18 19.8416 3.22392 0
-4 -1 18 14.2849 7.47813 0
4 1 -17 27.7156 2.17296 0
-4 -1 17 31.6412 5.77146 0
4 1 -16 51.2322 6.84008 0
-4 -1 16 53.6653 3.67866 0
4 1 -15 16.5961 2.9277 0
-4 -1 15 13.7383 5.77561 0
4 1 -14 47.4638 3.16982 0
-4 -1 14 48.7592 3.31794 0
4 1 -13 98.7293 6.2322 0
-4 -1 13 92.3895 5.77852 0
4 1 -12 44.727 2.48725 0
-4 -1 12 47.0712 2.92874 0
4 1 -11 41.0894 2.48752 0
-4 -1 11 58.4919 5.46851 0
4 1 -10 16.6279 2.18539 0
-4 -1 10 19.2592 7.70732 0
4 1 -9 264.983 11.3553 0
-4 -1 9 267.554 11.3155 0
-4 -1 9 272.963 10.339 0
4 1 -8 74.3855 5.03415 0
-4 -1 8 80.0795 3.87737 0
4 1 -7 216.54 8.17255 0
-4 -1 7 225.103 7.26604 0
4 1 -6 48.2426 6.66236 0
-4 -1 6 45.7195 1.56046 0
4 1 -5 597.389 15.7244 0
-4 -1 5 588.375 15.1234 0
-4 -1 5 543.991 13.6734 0
4 1 -4 390.177 13.0097 0
-4 -1 4 390.696 12.8369 0
-4 -1 4 343.633 11.5436 0
-4 -1 4 384.182 12.2409 0
4 1 -3 419.152 9.7624 0
-4 -1 3 420.58 9.63495 0
4 1 -3 428.475 9.97906 0
-4 -1 3 426.57 9.82612 0
4 1 -3 411.161 9.59035 0
-4 -1 3 418.917 9.4629 0
4 1 -2 0.33605 0.98127 0
-4 -1 2 -0.06049 1.22322 0
4 1 -2 2.11711 1.02159 0
-4 -1 2 0.61833 0.92078 0
4 1 -2 0 0.8334 0
-4 -1 2 -0.46375 1.2501 0
4 1 -1 1598.85 31.8394 0
-4 -1 1 1617.07 32.1256 0
4 1 -1 1736.07 34.8824 0
-4 -1 1 1546.74 30.8065 0
4 1 -1 1791.45 36.2154 0
-4 -1 1 1649.78 33.4865 0
-4 -1 0 58.4537 2.14542 0
-4 -1 0 60.1073 1.74627 0
4 1 0 58.9099 2.13829 0
-4 -1 0 64.5193 2.25233 0
4 1 0 59.1879 2.85105 0
-4 -1 0 60.2214 2.7869 0
-4 -1 -1 612.85 6.86152 0
-4 -1 -1 631.288 6.95453 0
4 1 1 607.276 8.41412 0
-4 -1 -1 633.664 8.7504 0
4 1 1 607.484 9.90949 0
-4 -1 -1 687.032 10.2959 0
4 1 2 8.15304 2.66827 0
-4 -1 -2 5.00477 4.1577 0
4 1 2 6.23302 2.83768 0
-4 -1 -2 6.51537 2.39297 0
-4 -1 -3 648.105 12.7149 0
4 1 3 640.833 14.1665 0
-4 -1 -3 589.343 13.071 0
4 1 3 615.889 15.9467 0
-4 -1 -3 658.04 14.6937 0
-4 -1 -4 342.648 8.352 0
4 1 4 322.166 7.86839 0
4 1 4 333.995 9.13623 0
-4 -1 -4 342.805 9.51527 0
4 1 4 330.832 9.53487 0
-4 -1 -4 342.837 9.51527 0
-4 -1 -5 392.304 8.4952 0
4 1 5 397.351 8.53209 0
4 1 5 419.154 10.2102 0
-4 -1 -5 406.43 9.92746 0
4 1 5 405.004 9.93976 0
-4 -1 -5 398.414 9.70617 0
-4 -1 -6 51.1362 2.92435 0
4 1 6 52.0215 2.57023 0
4 1 6 54.0491 3.3413 0
4 1 6 39.5873 3.34701 0
-4 -1 -7 721.776 18.0086 0
4 1 7 758.967 18.8451 0
4 1 7 696.565 18.2875 0
4 1 7 714.721 18.5347 0
-4 -1 -8 26.1386 1.91152 0
4 1 8 26.153 1.51087 0
4 1 8 29.7782 2.93486 0
4 1 8 28.0501 2.93003 0
-4 -1 -9 556.035 19.833 0
4 1 9 563.236 20.5651 0
4 1 9 507.796 18.9767 0
-4 -1 -10 18.773 1.75445 0
4 1 10 17.1418 4.67168 0
4 1 10 18.9333 2.18998 0
-4 -1 -11 76.6084 3.61762 0
4 1 11 79.5306 4.51822 0
4 1 11 77.737 3.68602 0
-4 -1 -12 14.1466 4.90935 0
4 1 12 13.0463 6.26725 0
4 1 12 13.5582 1.29871 0
-4 -1 -13 178.115 6.68082 0
4 1 13 177.771 9.61653 0
4 1 13 182.807 6.02559 0
-4 -1 -14 2.11181 1.7379 0
4 1 14 -0.69397 2.16266 0
4 1 14 2.0131 1.17854 0
-4 -1 -15 1.79871 1.41108 0
4 1 15 2.86121 1.88516 0
4 1 15 0.82546 0.57168 0
-4 -1 -16 0.86889 1.36651 0
4 1 16 1.52379 1.93116 0
-4 -1 -17 110.159 6.22446 0
4 1 17 107.888 5.98515 0
-4 -1 -18 -0.30802 0.81245 0
4 1 18 2.04005 2.4619 0
-4 -1 -19 6.07436 3.30761 0
4 1 19 6.35727 5.76024 0
-4 -1 -20 0.76791 0.94244 0
4 1 20 -0.04266 0.50806 0
4 2 -18 1.13787 1.86376 0
-4 -2 18 2.19727 1.39488 0
4 2 -17 1.8337 1.68633 0
-4 -2 17 1.94528 1.40422 0
4 2 -16 90.5432 3.92224 0
-4 -2 16 82.9966 3.64691 0
4 2 -15 7.25814 4.01643 0
-4 -2 15 8.71073 3.36518 0
4 2 -14 10.6256 4.61871 0
-4 -2 14 7.30904 4.09421 0
4 2 -13 7.84418 3.73721 0
4 2 -12 222.132 8.99537 0
-4 -2 12 218.218 8.65404 0
4 2 -11 30.7792 3.68831 0
-4 -2 11 35.1655 9.72077 0
-4 -2 11 32.3474 0.73377 0
4 2 -10 47.4311 4.95475 0
-4 -2 10 45.8148 8.4833 0
-4 -2 10 45.8042 1.79245 0
4 2 -9 22.9455 7.07463 0
-4 -2 9 20.7743 1.418 0
4 2 -8 385.713 12.6194 0
-4 -2 8 372.178 10.9457 0
4 2 -7 101.404 5.72228 0
-4 -2 7 112.414 2.25491 0
4 2 -6 12.9011 3.85623 0
-4 -2 6 8.19875 3.29701 0
4 2 -5 47.7988 3.30614 0
-4 -2 5 49.2112 2.57085 0
4 2 -4 697.071 18.0521 0
-4 -2 4 726.962 18.4358 0
-4 -2 4 696.424 17.9146 0
-4 -2 4 695.245 17.4564 0
4 2 -3 516.002 11.7587 0
-4 -2 3 535.225 11.8693 0
4 2 -3 505.884 12.029 0
-4 -2 3 557.876 13.0366 0
-4 -2 3 556.899 12.2134 0
4 2 -2 51.9649 2.37535 0
-4 -2 2 50.6894 2.06948 0
4 2 -2 51.2165 2.57709 0
-4 -2 2 47.0905 3.09772 0
-4 -2 2 48.4962 2.18663 0
4 2 -1 117.073 3.93277 0
-4 -2 1 119.335 3.74259 0
4 2 -1 110.579 4.32673 0
-4 -2 1 114.207 5.44747 0
-4 -2 1 117.888 4.3539 0
4 2 0 488.086 10.2748 0
-4 -2 0 501.012 10.4144 0
4 2 0 551.73 12.3745 0
-4 -2 0 529.123 11.7327 0
-4 -2 0 500.921 11.7397 0
4 2 1 661.054 13.1918 0
-4 -2 -1 662.209 13.1918 0
4 2 1 716.794 15.2906 0
-4 -2 -1 693.664 14.8188 0
4 2 1 699.32 16.5373 0
-4 -2 -1 729.507 16.0865 0
4 2 2 469.296 10.6531 0
-4 -2 -2 532.523 11.9813 0
4 2 2 537.143 12.7851 0
-4 -2 -2 507.784 11.8904 0
4 2 3 10.7359 3.00796 0
-4 -2 -3 9.99926 5.8454 0
4 2 3 10.3198 1.7393 0
-4 -2 -3 12.0591 2.9534 0
4 2 4 1016.09 19.8789 0
4 2 4 1071.22 22.5241 0
-4 -2 -4 1127.52 23.6242 0
4 2 4 1068.42 22.7468 0
-4 -2 -4 1058.76 22.4652 0
4 2 5 214.146 5.46123 0
4 2 5 205.211 5.36216 0
4 2 5 209.49 7.04635 0
-4 -2 -5 207.081 6.41478 0
4 2 5 208.128 7.94418 0
-4 -2 -5 207.806 6.38382 0
4 2 6 526.111 16.3236 0
4 2 6 494.227 15.6704 0
4 2 6 521.296 17.7166 0
4 2 6 559.816 7.42768 0
-4 -2 -7 15.7535 1.87033 0
4 2 7 16.4375 3.33988 0
4 2 7 21.0279 9.69366 0
4 2 7 19.4728 8.78521 0
-4 -2 -8 222.97 7.6166 0
4 2 8 224.208 7.55763 0
4 2 8 234.331 9.12518 0
4 2 8 207.068 7.46918 0
-4 -2 -9 437.313 15.8215 0
4 2 9 446.703 15.9526 0
4 2 9 428.505 16.1062 0
4 2 9 416.484 15.2295 0
-4 -2 -10 158.742 7.27788 0
4 2 10 158.738 7.88403 0
4 2 10 162.145 7.44092 0
-4 -2 -11 15.8676 2.03591 0
4 2 11 9.1305 4.00188 0
4 2 11 10.4981 5.04314 0
-4 -2 -12 54.5339 7.70463 0
4 2 12 52.0178 3.67616 0
4 2 12 45.8008 2.54804 0
-4 -2 -13 150.377 6.20849 0
4 2 13 147.81 6.15932 0
4 2 13 143.67 5.78563 0
-4 -2 -14 38.8545 2.5769 0
4 2 14 39.0038 2.70178 0
-4 -2 -15 2.3546 1.33694 0
4 2 15 2.62541 1.76738 0
-4 -2 -16 1.27505 0.9721 0
4 2 16 -0.29769 1.6307 0
-4 -2 -17 94.486 3.90373 0
4 2 17 88.9821 4.09184 0
4 2 18 33.6975 2.85611 0
4 2 19 8.02058 2.23667 0
4 2 19 4.01029 2.82505 0
4 2 20 8.71404 1.52357 0
4 2 20 6.02107 3.70208 0
4 3 -18 4.08555 2.65163 0
-4 -3 18 5.02444 3.15047 0
4 3 -17 1.42169 1.442 0
-4 -3 17 1.98834 1.53137 0
4 3 -16 79.8848 4.02062 0
-4 -3 16 75.0596 3.6783 0
4 3 -15 1.26869 1.21505 0
-4 -3 15 1.60685 0.71597 0
4 3 -14 1.79645 0.98216 0
-4 -3 14 1.71377 1.65113 0
4 3 -13 2.15679 1.91625 0
-4 -3 13 0.89461 1.14867 0
4 3 -12 185.447 7.71009 0
-4 -3 12 184.631 7.6664 0
4 3 -11 2.52813 2.32289 0
-4 -3 11 3.30243 1.36513 0
-4 -3 11 2.44728 1.37757 0
4 3 -10 190.904 7.02909 0
4 3 -9 5.38946 3.3275 0
-4 -3 9 9.61156 1.87649 0
4 3 -8 176.347 8.23109 0
-4 -3 8 185.687 7.47057 0
4 3 -7 -0.03815 2.17431 0
-4 -3 7 0.49589 0.6951 0
4 3 -6 266.367 9.47262 0
4 3 -5 1.17284 1.22727 0
4 3 -4 503.664 6.81162 0
4 3 -4 451.118 15.0027 0
4 3 -3 76.9678 4.03342 0
-4 -3 3 66.0151 3.45968 0
4 3 -3 73.2787 4.33751 0
4 3 -2 967.395 23.9886 0
-4 -3 2 971.561 23.8972 0
4 3 -2 959.823 24.3906 0
-4 -3 2 941.816 23.7084 0
-4 -3 2 903.695 22.8434 0
4 3 -1 1.01465 1.16781 0
-4 -3 1 1.21248 1.104 0
4 3 -1 2.80147 1.24439 0
-4 -3 1 2.43772 1.5507 0
-4 -3 1 2.76318 1.71662 0
4 3 0 164.729 4.80005 0
-4 -3 0 169.727 4.83956 0
4 3 0 174.092 5.60994 0
-4 -3 0 167.179 5.26755 0
-4 -3 0 169.101 5.57043 0
4 3 1 340.62 8.45584 0
-4 -3 -1 329.43 8.37562 0
4 3 1 328.554 9.04407 0
-4 -3 -1 319.751 9.3315 0
-4 -3 -1 334.584 9.27134 0
4 3 2 497.361 10.2641 0
-4 -3 -2 493.477 10.4042 0
4 3 2 509.573 11.7256 0
-4 -3 -2 531.476 12.3129 0
-4 -3 -2 571.578 13.1004 0
4 3 3 65.0767 2.8505 0
-4 -3 -3 60.3127 1.4875 0
4 3 3 63.7399 3.25023 0
-4 -3 -3 63.2681 3.88586 0
-4 -3 -3 63.7988 3.00777 0
4 3 4 249.72 6.29367 0
-4 -3 -4 245.364 6.15437 0
4 3 4 246.681 7.43969 0
-4 -3 -4 244.801 7.20542 0
-4 -3 -4 250.651 7.77527 0
4 3 5 31.246 1.68767 0
4 3 5 31.6438 1.77808 0
4 3 5 35.0011 3.35726 0
4 3 6 1396.36 33.5249 0
4 3 6 1441.75 34.9069 0
4 3 6 1403.44 34.7143 0
4 3 7 74.5627 3.45676 0
4 3 7 76.4913 3.90993 0
4 3 7 74.3098 4.32095 0
4 3 8 106.032 4.86859 0
4 3 8 102.694 4.9222 0
4 3 8 105.32 5.88715 0
4 3 9 68.6501 3.89095 0
4 3 9 65.0158 3.77837 0
4 3 9 59.5217 4.16116 0
4 3 10 538.785 16.1905 0
4 3 10 583.511 18.126 0
4 3 11 28.4702 2.15914 0
4 3 11 27.4374 2.68139 0
4 3 12 -1.04834 1.59935 0
4 3 12 0.39715 1.30596 0
4 3 13 25.7258 3.92405 0
4 3 13 25.8149 9.70616 0
4 3 14 222.565 7.35492 0
4 3 14 200.74 7.38561 0
4 3 15 3.64 1.89487 0
4 3 15 6.37288 3.23972 0
4 3 16 6.09784 3.72527 0
4 3 16 8.51833 3.60278 0
4 3 17 21.1276 3.01858 0
4 3 17 18.7883 7.21051 0
4 3 18 97.1669 4.98239 0
4 3 18 94.6148 4.93406 0
4 3 19 19.0368 2.5057 0
4 3 19 19.11 2.29492 0
4 3 20 0.2104 0.94582 0
4 3 20 -0.68131 1.12817 0
4 4 -17 1.18206 0.85101 0
-4 -4 17 1.29501 0.77895 0
4 4 -16 13.719 6.4528 0
-4 -4 16 16.2133 2.41719 0
4 4 -15 55.0057 2.85378 0
-4 -4 15 54.2442 2.97213 0
4 4 -14 59.0764 3.21753 0
-4 -4 14 49.3713 3.01927 0
4 4 -13 1.47034 0.99819 0
-4 -4 13 2.35306 1.6397 0
4 4 -12 25.7458 5.37926 0
-4 -4 12 23.3701 2.19042 0
4 4 -11 98.3323 4.4959 0
-4 -4 11 95.4772 4.18196 0
4 4 -10 35.0078 5.84728 0
4 4 -9 22.114 3.23013 0
4 4 -8 30.1128 3.17597 0
4 4 -7 104.384 5.82766 0
4 4 -6 484.383 15.188 0
4 4 -5 10.8457 4.21168 0
4 4 -4 6.75716 2.7654 0
4 4 -4 6.71808 2.65303 0
4 4 -3 157.826 7.36599 0
4 4 -3 149.065 8.06602 0
4 4 -2 1367.36 33.8732 0
-4 -4 2 1383.11 33.5795 0
4 4 -2 1420.52 35.2255 0
4 4 -1 1.70938 1.73846 0
-4 -4 1 0.86632 0.90121 0
4 4 -1 6.79102 2.36639 0
4 4 0 25.3366 4.36319 0
-4 -4 0 24.8973 4.35116 0
4 4 0 27.7379 2.71421 0
4 4 1 45.1934 2.80464 0
-4 -4 -1 42.0267 5.9591 0
4 4 1 53.7731 3.6086 0
4 4 2 1019 20.8057 0
-4 -4 -2 932.342 19.0683 0
4 4 2 1024.09 21.5019 0
4 4 3 44.9533 3.22052 0
-4 -4 -3 42.5425 2.33777 0
4 4 3 40.4361 2.87351 0
4 4 4 53.1857 3.18712 0
-4 -4 -4 54.2698 3.38853 0
4 4 4 56.1596 3.53663 0
4 4 5 74.3595 3.46651 0
-4 -4 -5 68.1936 3.39832 0
4 4 5 73.3138 4.9554 0
4 4 6 1849.87 9.14784 0
-4 -4 -6 1766.06 8.79248 0
4 4 6 1956.58 17.0142 0
4 4 7 17.558 1.32885 0
4 4 7 21.3324 4.50193 0
4 4 7 18.3361 5.42151 0
4 4 8 70.1796 3.54504 0
4 4 8 69.0576 3.5309 0
4 4 8 67.9262 7.91506 0
4 4 9 14.9063 1.6299 0
4 4 9 15.2885 1.78366 0
4 4 9 20.9163 6.37021 0
4 4 10 360.85 11.2462 0
4 4 10 359.485 12.5365 0
4 4 11 -0.07669 1.38044 0
4 4 11 0.97014 1.75239 0
4 4 12 28.2804 5.12839 0
4 4 12 25.6136 2.52175 0
4 4 13 8.48714 3.89799 0
4 4 13 5.43754 6.3973 0
4 4 14 275.679 8.68313 0
4 4 14 281.621 9.25447 0
4 4 15 1.31221 1.65102 0
4 4 15 0.93893 0.89873 0
4 4 16 24.3025 2.30198 0
4 4 16 20.9733 5.50878 0
4 4 17 -0.18794 1.13257 0
4 4 17 1.53565 1.97335 0
4 4 18 92.5389 5.72774 0
4 4 18 90.5804 8.03683 0
4 4 19 1.62996 1.55872 0
4 4 19 3.42183 1.57383 0
4 4 20 29.5793 1.83813 0
4 4 20 30.3846 2.0596 0
4 5 -16 1.8365 1.42993 0
-4 -5 16 1.39026 1.61636 0
4 5 -15 63.4013 4.53306 0
-4 -5 15 54.6557 5.74485 0
4 5 -14 20.9492 3.62788 0
-4 -5 14 21.6494 7.04048 0
4 5 -13 27.1166 3.68561 0
-4 -5 13 26.424 7.91848 0
4 5 -12 0.21816 0.73501 0
-4 -5 12 1.81024 1.19211 0
4 5 -11 40.627 2.67812 0
-4 -5 11 42.1965 1.71746 0
4 5 -10 65.9778 3.46562 0
-4 -5 10 64.2986 2.73022 0
4 5 -9 174.499 7.22853 0
4 5 -8 8.84508 5.71549 0
4 5 -7 20.9311 8.38632 0
4 5 -6 91.5165 5.29617 0
4 5 -5 195.969 9.28718 0
4 5 -4 50.2898 5.99763 0
4 5 -4 57.0792 3.90996 0
4 5 -3 71.8225 3.97659 0
4 5 -3 76.3103 4.81599 0
4 5 -2 307.975 10.6222 0
4 5 -2 329.437 11.82 0
4 5 -1 888.521 27.1678 0
-4 -5 1 909.148 27.6602 0
4 5 -1 843.608 26.4526 0
4 5 0 1.36348 1.98618 0
-4 -5 0 0.97698 1.73388 0
4 5 0 3.14568 3.31745 0
4 5 1 23.357 7.78385 0
-4 -5 -1 21.1284 5.81318 0
4 5 1 22.0067 4.12248 0
4 5 2 637.987 17.1828 0
-4 -5 -2 554.216 14.2378 0
4 5 2 670.388 17.6422 0
4 5 3 478.341 15.7605 0
-4 -5 -3 431.054 13.6859 0
4 5 3 445.885 14.7645 0
4 5 4 329.831 11.1713 0
-4 -5 -4 333.78 10.7398 0
4 5 4 341.823 11.5435 0
4 5 5 0.66803 1.46131 0
-4 -5 -5 0.16179 1.01248 0
4 5 5 1.61266 1.44565 0
4 5 6 696.756 21.3148 0
-4 -5 -6 659.17 20.4809 0
4 5 6 744.808 23.247 0
4 5 7 565.729 17.5744 0
-4 -5 -7 559.591 17.2382 0
4 5 7 589.626 19.6202 0
4 5 8 190.98 7.8698 0
4 5 8 205.929 7.17712 0
4 5 8 200.378 10.0104 0
4 5 9 30.3392 4.9793 0
4 5 9 31.1522 9.24667 0
4 5 10 125.359 7.3305 0
4 5 10 129.998 7.87999 0
4 5 11 65.3828 3.77194 0
4 5 11 67.4207 4.03131 0
4 5 12 138.992 6.00469 0
4 5 12 127.564 6.18707 0
4 5 13 1.61982 0.78906 0
4 5 13 2.26134 1.21567 0
4 5 14 52.451 3.11084 0
4 5 14 61.2901 3.55911 0
4 5 15 28.7832 2.31658 0
4 5 15 28.1666 2.70691 0
4 5 16 55.587 2.6167 0
4 5 16 53.9986 3.0664 0
4 5 17 4.58032 2.60262 0
4 5 17 5.10722 2.59282 0
4 5 18 36.8392 2.06712 0
4 5 18 33.1496 2.36963 0
4 5 19 10.9669 4.26134 0
4 5 19 8.78043 4.97872 0
4 5 20 74.0439 5.04822 0
4 5 20 70.5707 5.65818 0
4 6 -15 7.2415 5.19738 0
-4 -6 15 5.83805 3.94208 0
4 6 -14 1.10989 1.54402 0
-4 -6 14 2.39515 1.43923 0
4 6 -13 100.645 3.96931 0
-4 -6 13 99.8408 4.21526 0
4 6 -12 0.91289 1.02943 0
-4 -6 12 1.05856 1.48102 0
4 6 -11 8.99552 6.09307 0
-4 -6 11 5.94769 3.71244 0
4 6 -10 1.44061 1.18196 0
-4 -6 10 1.91061 0.59515 0
4 6 -9 274.665 10.5455 0
4 6 -8 14.9286 5.73838 0
4 6 -7 -0.58349 1.57377 0
4 6 -6 1.65883 1.66239 0
4 6 -5 362.327 10.476 0
4 6 -4 111.435 5.86269 0
4 6 -3 2.23727 2.93247 0
4 6 -3 4.20911 2.05189 0
4 6 -2 9.18024 3.85006 0
4 6 -2 15.5192 4.88967 0
4 6 -1 658.969 23.5629 0
4 6 -1 756.718 26.9919 0
4 6 0 20.7381 2.08802 0
4 6 0 20.5109 8.02538 0
4 6 1 55.436 3.60276 0
4 6 1 46.1676 2.91514 0
4 6 2 52.5037 9.68101 0
-4 -6 -2 53.6153 2.53166 0
4 6 2 63.3208 6.26793 0
4 6 3 589.709 18.7778 0
-4 -6 -3 523.933 16.3902 0
4 6 3 555.256 17.628 0
4 6 4 151.609 7.88766 0
-4 -6 -4 146.446 6.61249 0
4 6 4 155.353 6.22608 0
4 6 5 203.329 7.59219 0
-4 -6 -5 209.078 7.18193 0
4 6 5 218.537 10.1716 0
4 6 6 11.4323 5.21223 0
-4 -6 -6 7.25517 3.25137 0
4 6 6 12.8231 2.85008 0
4 6 7 704.278 25.2668 0
4 6 7 729.282 25.9542 0
4 6 8 138.06 6.68073 0
4 6 8 141.71 7.04072 0
4 6 9 62.1607 3.62994 0
4 6 9 62.7444 2.88236 0
4 6 10 29.4669 5.58907 0
4 6 10 33.8583 3.50635 0
4 6 11 127.26 8.87613 0
4 6 11 120.217 5.69172 0
4 6 12 43.8305 3.17181 0
4 6 12 41.6631 2.95375 0
4 6 13 117.686 5.08102 0
4 6 13 116.186 5.1276 0
4 6 14 0.73655 0.82752 0
4 6 14 0.30812 1.43495 0
4 6 15 35.5218 2.91632 0
4 6 15 34.8031 2.77587 0
4 6 16 45.2724 3.41702 0
4 6 16 51.7593 3.85154 0
4 6 17 77.495 3.4253 0
4 6 17 84.3215 3.82941 0
4 6 18 1.63199 1.71551 0
4 6 18 2.91637 1.16474 0
4 6 19 2.70089 3.15846 0
4 6 19 2.96992 1.64384 0
4 6 20 49.0651 3.61432 0
4 6 20 50.8028 4.80455 0
4 7 -14 11.0864 4.09931 0
-4 -7 14 8.09449 5.04454 0
4 7 -13 56.7598 4.09831 0
-4 -7 13 56.9859 6.53255 0
4 7 -12 21.5169 2.10728 0
4 7 -11 7.65218 4.58312 0
4 7 -10 1.20712 0.99953 0
-4 -7 10 1.18149 1.19687 0
4 7 -9 146.017 7.49704 0
-4 -7 9 127.991 3.69934 0
4 7 -8 52.1637 2.90444 0
4 7 -7 71.7775 3.20403 0
4 7 -6 45.5026 6.278 0
4 7 -5 152.597 6.48313 0
4 7 -4 8.19325 3.76184 0
4 7 -3 97.7656 7.95431 0
4 7 -3 111.584 5.15115 0
4 7 -2 1.59639 2.42636 0
4 7 -2 2.48593 2.08484 0
4 7 -1 400.922 12.9108 0
4 7 -1 420.364 13.6233 0
4 7 0 30.6201 9.00741 0
4 7 0 26.5178 2.5177 0
4 7 1 261.99 10.4503 0
4 7 1 251.981 9.18149 0
4 7 2 2.09432 2.32847 0
4 7 2 4.94746 1.24012 0
4 7 3 151.922 6.55955 0
4 7 3 150.891 6.064 0
4 7 4 20.0005 5.53985 0
4 7 4 11.356 3.28591 0
4 7 5 767.398 22.8926 0
4 7 5 810.534 8.31683 0
4 7 6 10.0284 3.45779 0
4 7 6 10.7142 2.96738 0
4 7 7 166.647 5.97015 0
4 7 7 160.128 7.51722 0
4 7 8 1.66296 2.43018 0
4 7 8 1.55002 1.16057 0
4 7 9 295.73 8.4958 0
4 7 9 300.269 8.97376 0
4 7 10 13.941 4.92202 0
4 7 10 11.4765 5.63469 0
4 7 11 73.0649 3.47359 0
4 7 11 76.1333 5.84466 0
4 7 12 1.2982 1.75398 0
4 7 12 2.14062 1.19133 0
4 7 13 287.191 10.6116 0
4 7 13 296.355 11.2083 0
4 7 14 4.43799 1.94604 0
4 7 14 4.00805 2.23173 0
4 7 15 34.3828 2.31076 0
4 7 15 37.3409 9.01488 0
4 7 16 0.87885 1.14774 0
4 7 16 0.28133 0.97844 0
4 7 17 141.043 6.67989 0
4 7 17 137.52 6.64478 0
4 7 18 1.64999 1.02794 0
4 7 18 1.27941 0.92426 0
4 7 19 4.08815 1.73223 0
4 7 20 9.01757 4.70245 0
4 7 20 12.6962 1.42086 0
4 8 -13 33.6243 3.97156 0
-4 -8 13 31.4827 4.36257 0
4 8 -12 54.0955 4.35149 0
4 8 -11 16.7884 1.69022 0
4 8 -10 1.50872 0.99401 0
-4 -8 10 0.01417 0.62096 0
4 8 -9 16.6364 7.01664 0
-4 -8 9 15.6987 2.53809 0
4 8 -8 100.637 5.0487 0
4 8 -7 64.2902 4.42471 0
4 8 -6 11.4546 5.87618 0
4 8 -5 28.0972 4.07594 0
4 8 -4 114.254 7.92812 0
4 8 -3 149.622 6.35414 0
4 8 -3 150.113 6.40462 0
4 8 -2 22.0467 2.26498 0
4 8 -2 29.6095 9.53676 0
4 8 -1 51.828 3.83575 0
4 8 -1 53.3987 3.3122 0
4 8 0 75.0651 8.53166 0
4 8 0 72.491 7.3364 0
4 8 1 339.632 10.0266 0
4 8 1 315.627 9.57816 0
4 8 2 117.503 5.08583 0
4 8 2 117.9 5.20637 0
4 8 3 18.6459 5.57539 0
4 8 3 18.9039 5.0202 0
4 8 4 60.5733 4.11043 0
4 8 4 57.9045 3.36627 0
4 8 5 311.653 10.0281 0
4 8 5 346.982 9.99733 0
4 8 6 43.4523 6.39536 0
4 8 6 41.6283 2.59658 0
4 8 7 2.4027 1.96318 0
4 8 7 3.61137 2.17928 0
4 8 8 88.8066 5.00424 0
4 8 8 83.4381 4.33229 0
4 8 9 348.095 14.6239 0
4 8 9 339.954 10.7165 0
4 8 10 59.926 2.80156 0
4 8 10 63.8957 3.18551 0
4 8 11 0.98336 1.19186 0
4 8 11 3.67826 1.59952 0
4 8 12 15.6667 2.50096 0
4 8 12 13.6719 3.84672 0
4 8 13 224.75 9.49503 0
4 8 13 226.871 9.75949 0
4 8 14 8.80169 3.89336 0
4 8 14 12.8293 3.53088 0
4 8 15 0.7271 0.97538 0
4 8 15 0.22294 1.43393 0
4 8 16 7.60495 2.83153 0
4 8 16 5.4263 2.43454 0
4 8 17 66.8346 2.85297 0
4 8 17 67.9175 3.04061 0
4 8 18 1.9951 1.55506 0
4 8 18 0.8822 1.1129 0
4 8 19 5.04892 3.9446 0
4 8 20 0.58033 0.74153 0
4 8 20 -0.42102 0.94446 0
4 9 -12 42.9838 4.94475 0
4 9 -11 1.81227 1.46177 0
4 9 -10 15.8514 4.30189 0
-4 -9 10 17.8639 4.50684 0
4 9 -9 0.80053 1.37168 0
-4 -9 9 0.84181 1.09184 0
4 9 -8 63.6905 3.38784 0
-4 -9 8 60.4499 3.69934 0
4 9 -7 -0.02288 1.65518 0
4 9 -6 81.1052 4.4513 0
4 9 -5 1.51143 1.25016 0
4 9 -4 149.496 6.2612 0
4 9 -3 15.5852 8.56186 0
4 9 -2 191.911 7.15879 0
4 9 -2 197.593 6.88971 0
4 9 -1 2.4401 1.95015 0
4 9 -1 4.69647 1.62458 0
4 9 0 83.4961 6.6703 0
4 9 0 83.883 3.69727 0
4 9 1 70.7713 4.03279 0
4 9 1 68.7127 3.28698 0
4 9 2 323.972 9.85218 0
4 9 2 297.893 9.05826 0
4 9 3 104.351 7.06773 0
4 9 3 91.7702 4.56594 0
4 9 4 2.13235 2.4355 0
4 9 4 1.04723 1.71897 0
4 9 5 49.0617 3.86312 0
4 9 5 45.8652 2.82384 0
4 9 6 182.169 7.25079 0
4 9 6 193.709 6.90712 0
4 9 7 28.1126 2.78189 0
4 9 7 37.7221 8.71196 0
4 9 8 48.6415 4.5944 0
4 9 8 46.706 2.75857 0
4 9 9 116.701 5.38485 0
4 9 9 110.368 7.00717 0
4 9 10 169.892 8.45714 0
4 9 10 164.221 6.21982 0
4 9 11 45.3216 6.828 0
4 9 11 43.5942 2.43065 0
4 9 12 1.88525 0.93423 0
4 9 12 2.83346 1.75938 0
4 9 13 56.7396 4.20727 0
4 9 13 49.739 5.62656 0
4 9 14 68.8123 3.56816 0
4 9 14 68.0531 4.69934 0
4 9 15 17.4123 2.06448 0
4 9 15 15.3791 4.68654 0
4 9 16 6.51143 2.68722 0
4 9 16 4.57307 2.25571 0
4 9 17 25.1255 1.75082 0
4 9 17 28.7356 4.53651 0
4 9 18 33.9208 2.51068 0
4 9 18 29.5538 4.99468 0
4 9 19 17.8944 2.05832 0
4 9 19 22.8549 3.17575 0
4 10 -11 7.3166 5.0367 0
4 10 -10 49.5523 3.04565 0
-4 -10 10 49.1983 2.54971 0
4 10 -9 1.60181 1.30502 0
-4 -10 9 0.59357 0.61673 0
4 10 -8 3.8706 1.9143 0
-4 -10 8 3.35776 2.30777 0
4 10 -7 12.9582 1.92153 0
-4 -10 7 13.1409 5.73915 0
4 10 -6 128.946 6.87404 0
4 10 -5 7.08679 4.14448 0
4 10 -4 8.87057 4.7473 0
4 10 -3 3.42702 2.20347 0
4 10 -2 186.608 8.53102 0
4 10 -2 198.218 8.83155 0
4 10 -1 4.30855 2.63932 0
4 10 -1 2.14699 1.17109 0
4 10 0 1.41797 1.56661 0
4 10 0 0.66588 1.34068 0
4 10 1 2.32107 1.36907 0
4 10 1 2.35431 1.6864 0
4 10 2 346.758 11.0213 0
4 10 2 342.662 10.7032 0
4 10 3 1.3277 2.23645 0
4 10 3 -0.28957 1.38623 0
4 10 4 -0.30855 2.58259 0
4 10 4 0.94417 1.0244 0
4 10 5 1.87493 2.10238 0
4 10 5 -0.38113 1.50609 0
4 10 6 393.995 14.5401 0
4 10 6 403.434 14.4822 0
4 10 7 2.76615 1.67891 0
4 10 7 5.66445 2.38772 0
4 10 8 8.67729 2.56307 0
4 10 8 6.85453 2.10296 0
4 10 9 11.2378 2.87512 0
4 10 9 15.4235 3.79597 0
4 10 10 168.527 8.64026 0
4 10 10 168.06 7.31206 0
4 10 11 7.57653 2.84086 0
4 10 11 5.82457 2.22633 0
4 10 12 41.7439 2.85871 0
4 10 12 40.993 5.12963 0
4 10 13 5.69765 2.26318 0
4 10 13 4.77451 1.63534 0
4 10 14 115.124 7.14002 0
4 10 14 109.909 6.17836 0
4 10 15 2.03872 1.26682 0
4 10 15 1.38715 0.76509 0
4 10 16 6.57012 2.44237 0
4 10 16 6.70026 3.81106 0
4 10 17 0.7009 0.9359 0
4 10 17 1.93365 1.7275 0
4 10 18 59.6205 4.69616 0
4 10 18 63.2376 3.60535 0
4 11 -9 24.8207 4.14673 0
-4 -11 9 24.4742 3.37668 0
4 11 -8 0.32655 0.96151 0
-4 -11 8 0.30035 1.21751 0
4 11 -7 23.2095 6.80301 0
-4 -11 7 24.8502 3.69463 0
4 11 -6 71.4444 3.72329 0
-4 -11 6 64.9287 4.53308 0
4 11 -5 21.5647 8.86265 0
4 11 -4 8.67903 5.44869 0
4 11 -3 12.5925 7.37056 0
4 11 -2 107.251 6.04501 0
4 11 -1 38.3225 2.43698 0
4 11 -1 49.0624 2.58278 0
4 11 0 31.5557 5.25395 0
4 11 0 36.8737 4.85924 0
4 11 1 5.79494 4.32105 0
4 11 1 7.51901 1.80565 0
4 11 2 62.2342 4.31484 0
4 11 2 60.0188 3.58927 0
4 11 3 28.9986 2.53626 0
4 11 3 27.0692 1.94048 0
4 11 4 45.8969 5.14653 0
4 11 4 37.9955 4.43686 0
4 11 5 0.98986 1.47503 0
4 11 5 0.41267 1.31331 0
4 11 6 175.412 8.16347 0
4 11 6 190.851 8.36272 0
4 11 7 12.7894 4.43613 0
4 11 7 13.109 3.7341 0
4 11 8 82.1739 8.19002 0
4 11 8 109.188 4.93333 0
4 11 9 1.35037 0.7604 0
4 11 9 0.79449 0.86266 0
4 11 10 60.0376 6.10202 0
4 11 10 65.4429 3.25135 0
4 11 11 1.99483 1.50973 0
4 11 11 5.16774 2.02452 0
4 11 12 73.9955 4.78626 0
4 11 12 72.3969 3.09192 0
4 11 13 0.77807 0.73651 0
4 11 13 0.72496 0.97432 0
4 11 14 59.9356 3.49148 0
4 11 14 62.8467 2.56413 0
4 11 15 4.97176 3.12096 0
4 11 15 4.45942 1.94473 0
4 11 16 51.0737 2.70259 0
4 11 16 50.3245 2.53929 0
4 11 17 0.96321 1.34927 0
4 11 17 0.03315 0.97491 0
4 12 -7 0.46998 0.66757 0
-4 -12 7 0.42586 1.12029 0
4 12 -6 0.85218 1.36308 0
-4 -12 6 1.82609 1.59858 0
4 12 -5 102.892 6.95507 0
-4 -12 5 92.6175 6.94885 0
4 12 -4 7.63256 3.92157 0
4 12 -3 -0.40577 1.38361 0
4 12 -2 14.612 1.60912 0
4 12 -1 74.8885 3.73122 0
4 12 0 11.8553 5.11837 0
4 12 0 13.5432 5.06347 0
4 12 1 14.3971 1.77412 0
4 12 1 16.0595 4.38913 0
4 12 2 9.23976 4.92294 0
4 12 2 9.64385 3.30907 0
4 12 3 102.877 6.41395 0
4 12 3 104.551 5.34454 0
4 12 4 16.3809 6.27902 0
4 12 4 14.5644 4.47002 0
4 12 5 8.84424 4.7519 0
4 12 5 9.40137 2.69824 0
4 12 6 -0.03232 1.71553 0
4 12 6 1.06413 0.75334 0
4 12 7 78.5649 4.08328 0
4 12 7 73.2404 3.28534 0
4 12 8 78.147 4.67775 0
4 12 8 83.6165 3.59696 0
4 12 9 20.9174 2.23749 0
4 12 9 21.3778 5.29078 0
4 12 10 0.61389 1.78332 0
4 12 10 0.72127 0.8263 0
4 12 11 30.2378 2.75262 0
4 12 11 34.0332 2.02633 0
4 12 12 25.0819 6.61762 0
4 12 12 27.2811 1.57025 0
4 12 13 7.14977 4.54049 0
4 12 13 7.97804 3.08779 0
4 12 14 3.65964 2.05958 0
4 12 14 2.89584 1.06188 0
4 12 15 28.9025 3.39736 0
4 12 15 30.7436 2.27753 0
4 12 16 53.2995 4.88755 0
4 12 16 51.0741 5.21313 0
4 13 -4 1.44503 1.41784 0
-4 -13 4 1.39453 1.76744 0
4 13 -3 15.3159 2.68278 0
-4 -13 3 9.79415 7.1414 0
4 13 -2 1.6489 1.71683 0
4 13 -1 65.6353 4.68929 0
4 13 0 0.94018 1.08681 0
4 13 1 72.8285 3.51013 0
4 13 1 62.9015 7.54458 0
4 13 2 1.21754 1.51303 0
4 13 2 0.59988 0.67542 0
4 13 3 46.4933 3.88079 0
4 13 3 50.7866 2.34955 0
4 13 4 0.89695 1.35219 0
4 13 4 1.48516 1.09978 0
4 13 5 52.972 5.51495 0
4 13 5 54.0122 2.53859 0
4 13 6 0.33532 2.00067 0
4 13 6 2.52278 1.48981 0
4 13 7 37.3426 2.86391 0
4 13 7 37.5997 2.5688 0
4 13 8 1.65949 2.6574 0
4 13 8 2.67068 1.69268 0
4 13 9 75.0584 4.56063 0
4 13 9 76.3109 3.63323 0
4 13 10 1.41501 1.90095 0
4 13 10 2.60097 1.36149 0
4 13 11 13.302 8.34488 0
4 13 11 22.9296 1.45847 0
4 13 12 0.79923 1.46798 0
4 13 12 0.69321 0.75845 0
4 13 13 98.8025 5.29136 0
4 13 13 90.912 4.4831 0
4 13 14 2.31782 1.32118 0
4 13 14 0.31301 0.5108 0
4 14 -1 7.88804 5.4466 0
4 14 0 7.86782 5.75225 0
4 14 1 97.3115 5.18613 0
4 14 2 4.80017 1.95051 0
4 14 2 2.99185 1.54599 0
4 14 3 4.81807 2.56276 0
4 14 3 4.67243 2.77514 0
4 14 4 6.10451 3.07973 0
4 14 4 7.48662 3.43188 0
4 14 5 88.0308 6.01592 0
4 14 5 101.632 6.51793 0
4 14 6 1.31455 1.80368 0
4 14 6 -0.03057 0.40557 0
4 14 7 1.07671 1.89591 0
4 14 7 0.17033 0.79486 0
4 14 8 0.70548 1.24615 0
4 14 8 0.12462 0.64921 0
4 14 9 68.113 5.82249 0
4 14 9 67.9681 3.71425 0
4 14 10 0.42208 1.4128 0
4 14 10 -0.05471 0.70542 0
4 14 11 1.05459 1.59147 0
4 14 11 0.85326 0.6596 0
-5 12 6 3.1234 2.41921 0
5 -12 -6 1.0771 1.41026 0
-5 12 5 13.7975 5.60321 0
5 -12 -5 7.74847 5.94615 0
-5 12 4 45.4487 6.05778 0
5 -12 -4 37.0652 3.24292 0
-5 12 3 13.6401 6.03596 0
5 -12 -3 10.6088 4.94911 0
-5 12 2 1.21199 1.11876 0
5 -12 -2 1.01602 1.1454 0
5 -12 -1 3.71525 3.31294 0
-5 11 11 55.8676 3.67075 0
5 -11 -11 56.6191 3.37241 0
-5 11 10 1.69422 2.27317 0
5 -11 -10 1.08818 1.33214 0
-5 11 9 2.22371 2.39797 0
-5 11 8 1.58486 1.8453 0
5 -11 -8 0.47848 1.51217 0
-5 11 7 110.174 7.81254 0
5 -11 -7 105.568 7.0596 0
-5 11 6 0.31576 1.64737 0
5 -11 -6 0.12672 1.18619 0
-5 11 5 6.82111 3.13499 0
5 -11 -5 7.05372 2.74311 0
-5 11 4 8.66918 6.7193 0
5 -11 -4 6.98041 3.74605 0
-5 11 3 94.4198 4.6997 0
5 -11 -3 87.8128 4.37515 0
-5 11 2 1.25633 1.44751 0
5 -11 -2 1.34457 0.9517 0
-5 11 1 1.63549 2.1591 0
5 -11 -1 1.02635 1.05347 0
-5 11 0 4.08566 4.22597 0
5 -11 0 6.3142 2.95075 0
-5 11 -1 89.3207 6.21678 0
5 -11 1 85.951 6.00935 0
-5 11 -2 5.16309 4.14046 0
5 -11 2 5.47468 1.89147 0
-5 11 -3 -0.95623 1.45879 0
5 -11 3 0.95819 1.00903 0
-5 11 -4 2.84074 1.68574 0
5 -11 4 5.01712 2.28901 0
-5 10 13 0.5826 1.02767 0
-5 10 12 11.0697 5.6999 0
-5 10 11 43.8686 6.76079 0
5 -10 -11 49.6743 3.27734 0
-5 10 10 10.9858 4.80036 0
5 -10 -10 11.6016 4.8571 0
-5 10 9 1.38338 1.23879 0
5 -10 -9 0.55033 0.63882 0
-5 10 8 2.04917 1.40729 0
5 -10 -8 1.1823 1.25509 0
-5 10 7 115.076 4.74366 0
5 -10 -7 119.615 4.49671 0
-5 10 6 17.4033 6.76506 0
5 -10 -6 17.8519 1.80113 0
-5 10 5 8.7273 4.60179 0
5 -10 -5 10.5036 3.61011 0
-5 10 4 -0.40989 1.96378 0
5 -10 -4 -0.50021 1.2042 0
-5 10 3 112.757 6.13946 0
5 -10 -3 107.799 5.6729 0
-5 10 2 5.25226 2.88214 0
5 -10 -2 5.63222 4.00812 0
-5 10 1 15.0407 4.0417 0
5 -10 -1 12.8828 5.85183 0
-5 10 0 -1.06478 1.65303 0
5 -10 0 1.00778 0.95762 0
-5 10 -1 105.696 4.09964 0
5 -10 1 110.886 4.6641 0
-5 10 -2 0.34261 0.95267 0
5 -10 2 0.80457 1.20244 0
-5 10 -3 27.0497 3.20917 0
5 -10 3 22.1613 8.68836 0
-5 10 -4 0.43427 0.82217 0
5 -10 4 1.9964 1.46936 0
-5 10 -5 57.5475 4.36735 0
5 -10 5 57.3959 7.11716 0
-5 10 -6 0.61092 0.90646 0
5 -10 6 1.16829 1.05919 0
-5 10 -7 20.5722 5.75231 0
5 -10 7 18.555 4.28739 0
-5 9 14 69.248 5.19267 0
-5 9 13 6.87606 2.76842 0
-5 9 12 -1.60287 1.37328 0
-5 9 11 49.3294 2.60579 0
5 -9 -11 52.2722 2.54191 0
-5 9 10 65.7341 5.4839 0
5 -9 -10 61.177 2.72832 0
-5 9 9 13.5265 4.9506 0
5 -9 -9 10.5814 6.71767 0
-5 9 8 0.81775 0.70983 0
5 -9 -8 1.29737 1.42686 0
-5 9 7 70.0679 3.81529 0
5 -9 -7 62.0058 4.5656 0
-5 9 6 86.0148 4.02566 0
5 -9 -6 85.8575 3.9857 0
-5 9 5 80.753 4.96618 0
5 -9 -5 74.437 4.35079 0
-5 9 4 3.31285 2.68658 0
5 -9 -4 2.60733 1.49027 0
-5 9 3 43.8705 9.73388 0
5 -9 -3 37.9855 2.54452 0
-5 9 2 28.8272 2.66895 0
5 -9 -2 29.515 2.574 0
-5 9 1 59.9657 3.50938 0
5 -9 -1 53.8938 3.20566 0
-5 9 0 0.78309 1.34893 0
5 -9 0 0.17935 0.90181 0
-5 9 -1 52.2949 7.82444 0
5 -9 1 48.9949 6.12964 0
-5 9 -2 68.8904 4.15047 0
5 -9 2 67.2107 3.95515 0
-5 9 -3 83.6315 4.92231 0
5 -9 3 63.1668 3.68159 0
-5 9 -4 2.56118 2.06614 0
5 -9 4 0.84598 1.26897 0
-5 9 -5 48.3851 2.88297 0
5 -9 5 47.7981 4.48361 0
-5 9 -6 15.0869 1.5995 0
5 -9 6 12.122 6.22512 0
-5 9 -7 83.1499 7.39438 0
5 -9 7 91.004 4.56612 0
-5 9 -8 7.99927 4.32914 0
5 -9 8 8.79615 5.35312 0
-5 9 -9 11.2561 1.50068 0
5 -9 9 9.51211 5.77305 0
-5 8 16 1.68845 1.41685 0
-5 8 15 -0.35642 1.16286 0
-5 8 14 86.0749 6.84151 0
-5 8 13 1.15062 0.55893 0
-5 8 12 21.0857 3.30756 0
-5 8 11 3.01964 3.65474 0
5 -8 -11 3.07394 1.11672 0
-5 8 10 124.172 6.58681 0
5 -8 -10 129.309 6.33696 0
-5 8 9 2.21841 1.77472 0
5 -8 -9 2.28939 1.79247 0
-5 8 8 44.7359 7.54405 0
5 -8 -8 40.7677 4.28211 0
-5 8 7 11.3428 3.61874 0
5 -8 -7 13.6872 4.22097 0
-5 8 6 146.223 7.9612 0
5 -8 -6 143.423 7.32023 0
-5 8 5 33.6361 2.60204 0
5 -8 -5 41.3162 3.46192 0
-5 8 4 30.4003 8.68579 0
5 -8 -4 36.0991 5.75554 0
-5 8 3 1.40556 2.19405 0
5 -8 -3 -0.38282 1.61697 0
-5 8 2 75.6155 5.40969 0
5 -8 -2 76.305 4.98058 0
-5 8 1 15.2268 7.51654 0
5 -8 -1 16.0812 7.14057 0
-5 8 0 75.1163 5.01922 0
5 -8 0 73.8954 5.13201 0
-5 8 -1 1.47427 2.02955 0
5 -8 1 2.56817 1.73803 0
-5 8 -2 107.171 5.6732 0
5 -8 2 94.5162 3.84831 0
5 -8 2 94.0756 5.3414 0
-5 8 -3 46.3971 3.25877 0
5 -8 3 48.1286 3.47355 0
5 -8 3 48.3513 3.58492 0
-5 8 -4 44.5254 6.47994 0
5 -8 4 41.781 1.91026 0
5 -8 4 41.3125 2.75211 0
-5 8 -5 3.02144 1.86318 0
5 -8 5 1.8582 1.76105 0
5 -8 5 1.52691 2.49337 0
-5 8 -6 23.1969 6.53466 0
5 -8 6 27.1456 2.43217 0
5 -8 6 26.814 5.24647 0
-5 8 -7 14.6231 6.48655 0
5 -8 7 17.4718 2.47382 0
5 -8 7 18.9413 1.83049 0
-5 8 -8 44.8292 2.5946 0
5 -8 8 42.4059 2.41658 0
5 -8 8 39.5576 6.4687 0
-5 8 -9 1.20279 1.10896 0
5 -8 9 0.62699 0.84238 0
5 -8 9 0.71016 1.40326 0
-5 8 -10 18.1773 4.23329 0
5 -8 10 10.1587 6.1005 0
5 -8 10 15.9049 1.54345 0
-5 8 -11 21.2437 2.53308 0
5 -8 11 21.098 6.40651 0
5 -8 11 25.1035 2.38933 0
-5 7 17 13.6506 5.8913 0
-5 7 16 22.7351 1.74043 0
-5 7 15 -0.41745 1.12228 0
-5 7 14 65.4276 5.05766 0
-5 7 12 52.3269 2.59192 0
-5 7 11 0.48304 1.50983 0
5 -7 -11 0.93574 0.98885 0
-5 7 10 164.397 9.55409 0
5 -7 -10 156.713 7.48641 0
-5 7 9 18.4605 4.64469 0
5 -7 -9 14.5666 5.24144 0
-5 7 8 222.414 9.69647 0
5 -7 -8 217.566 9.26558 0
-5 7 7 1.23444 1.14648 0
5 -7 -7 1.167 1.30188 0
-5 7 6 34.3873 3.94805 0
5 -7 -6 32.8225 2.05646 0
-5 7 5 0.98943 1.25206 0
5 -7 -5 1.10548 1.78342 0
-5 7 4 106.791 10.7128 0
5 -7 -4 104.62 6.3769 0
-5 7 3 -1.77493 2.27804 0
5 -7 -3 1.37182 1.83431 0
-5 7 2 34.6393 2.86257 0
5 -7 -2 39.2482 4.35813 0
-5 7 1 0.12198 1.36683 0
5 -7 -1 0.30965 0.22207 0
5 -7 -1 1.80159 1.17291 0
-5 7 0 205.378 7.88688 0
5 -7 0 209.43 6.09046 0
5 -7 0 201.568 7.53318 0
-5 7 -1 1.62574 2.02069 0
5 -7 1 0.60315 0.61845 0
5 -7 1 1.72983 1.68697 0
-5 7 -2 15.6988 6.18029 0
5 -7 2 21.2175 3.61194 0
5 -7 2 23.4851 2.85105 0
-5 7 -3 -0.82408 1.916 0
5 -7 3 -0.03532 0.63278 0
5 -7 3 0.63867 0.90061 0
-5 7 -4 221.813 9.62108 0
5 -7 4 232.963 9.52926 0
5 -7 4 230.453 10.1892 0
-5 7 -5 1.64082 1.22577 0
5 -7 5 0.50082 0.78029 0
5 -7 5 0.44548 0.94354 0
-5 7 -6 12.3377 6.06383 0
5 -7 6 14.7834 1.42491 0
5 -7 6 15.9558 7.70407 0
-5 7 -7 2.15213 1.77519 0
5 -7 7 3.67263 2.47814 0
5 -7 7 2.7532 2.16996 0
-5 7 -8 117.423 6.15197 0
5 -7 8 123.699 7.21383 0
5 -7 8 123.134 6.52947 0
-5 7 -9 3.0199 2.07996 0
5 -7 9 2.79887 1.952 0
5 -7 9 2.26143 1.34941 0
-5 7 -10 0.4555 1.21985 0
5 -7 10 0.57327 1.36872 0
5 -7 10 0.53327 0.48217 0
-5 7 -11 2.40283 1.38544 0
5 -7 11 2.97605 2.06652 0
5 -7 11 3.72693 2.98028 0
-5 7 -12 97.4692 6.58817 0
5 -7 12 87.4233 6.22272 0
5 -7 12 98.4852 6.50785 0
-5 7 -13 0.77206 1.09232 0
5 -7 13 1.05992 0.82353 0
5 -7 13 -0.11247 1.17048 0
-5 6 17 31.4317 4.87174 0
-5 6 16 44.2497 4.45779 0
-5 6 15 3.49187 2.81327 0
-5 6 14 8.56849 5.88492 0
-5 6 13 54.3789 5.86788 0
-5 6 12 58.4937 4.76096 0
-5 6 11 49.6393 7.92264 0
5 -6 -11 47.6411 4.07743 0
-5 6 10 36.3395 8.55932 0
5 -6 -10 40.6206 3.73353 0
-5 6 9 42.21 2.41647 0
5 -6 -9 40.0326 1.95029 0
-5 6 8 249.741 8.36829 0
5 -6 -8 239.216 7.74808 0
-5 6 7 58.121 5.43621 0
5 -6 -7 66.3811 3.15559 0
-5 6 6 -0.88244 1.90816 0
5 -6 -6 -0.60241 1.38065 0
-5 6 5 57.4375 3.32225 0
5 -6 -5 58.1862 3.0415 0
-5 6 4 205.358 7.7206 0
5 -6 -4 190.088 9.69254 0
-5 6 3 47.7186 3.85776 0
5 -6 -3 49.4208 3.42873 0
-5 6 2 2.53269 2.64765 0
5 -6 -2 1.43531 1.68962 0
-5 6 1 55.5958 4.08752 0
5 -6 -1 59.1367 1.98805 0
5 -6 -1 64.4846 2.17955 0
5 -6 -1 69.6932 4.12234 0
-5 6 0 283.245 9.6052 0
5 -6 0 308.264 7.96116 0
5 -6 0 285.666 10.4687 0
-5 6 -1 60.2648 4.3717 0
5 -6 1 55.9577 2.04466 0
5 -6 1 61.6835 3.0721 0
5 -6 1 59.2203 8.96453 0
-5 6 -2 56.973 3.77933 0
5 -6 2 55.3913 1.90465 0
5 -6 2 50.1036 2.96686 0
5 -6 2 55.9141 3.51294 0
-5 6 -3 31.4889 5.09903 0
5 -6 3 35.9947 1.8704 0
5 -6 3 35.8196 2.60624 0
-5 6 -4 202.5 7.2693 0
5 -6 4 211.988 6.76331 0
5 -6 4 195.401 7.42644 0
-5 6 -5 17.4245 8.03461 0
5 -6 5 16.6344 2.86256 0
5 -6 5 23.0281 8.44485 0
-5 6 -6 12.2475 5.21121 0
5 -6 6 11.0621 4.43951 0
5 -6 6 15.8625 2.62321 0
-5 6 -7 11.3499 3.26334 0
5 -6 7 8.89745 3.49422 0
5 -6 7 9.48874 4.21503 0
-5 6 -8 122.896 8.02607 0
5 -6 8 117.538 5.15158 0
5 -6 8 121.897 6.42675 0
-5 6 -9 13.6938 6.34058 0
5 -6 9 12.5081 5.43478 0
5 -6 9 12.6532 4.272 0
-5 6 -10 59.3094 5.35159 0
5 -6 10 66.0762 3.3375 0
5 -6 10 69.136 3.46549 0
-5 6 -11 2.44187 1.57289 0
5 -6 11 1.89847 1.9535 0
5 -6 11 1.10515 0.66951 0
-5 6 -12 90.0147 4.43352 0
5 -6 12 91.7881 4.57949 0
5 -6 12 87.8339 4.25923 0
-5 6 -13 3.45906 2.82696 0
5 -6 13 2.95667 3.03079 0
5 -6 13 3.04726 3.55171 0
-5 6 -14 26.1419 2.67259 0
5 -6 14 31.1756 2.95483 0
5 -6 14 20.0551 3.67505 0
-5 5 18 0.43567 0.99554 0
-5 5 17 39.9044 3.04477 0
-5 5 16 3.30043 2.28425 0
-5 5 15 42.6227 2.39095 0
-5 5 14 1.51073 1.46014 0
-5 5 13 38.061 3.44129 0
-5 5 12 31.0373 2.25387 0
-5 5 11 168.693 7.61836 0
5 -5 -11 167.251 6.87915 0
-5 5 10 0.70079 0.9284 0
5 -5 -10 0.99428 0.93439 0
-5 5 9 17.0565 1.77203 0
-5 5 9 16.2175 0.76704 0
5 -5 -9 18.3621 3.37499 0
-5 5 8 9.94521 3.29324 0
-5 5 8 6.3246 0.57943 0
5 -5 -8 7.87301 2.45193 0
-5 5 7 77.2406 7.02311 0
5 -5 -7 71.9639 3.61579 0
-5 5 6 17.8202 5.04882 0
5 -5 -6 15.0789 1.62131 0
-5 5 5 32.1903 7.74584 0
5 -5 -5 25.5594 2.41022 0
-5 5 4 40.4737 3.31764 0
5 -5 -4 42.4143 3.02257 0
-5 5 3 473.504 13.4173 0
5 -5 -3 451.28 12.5992 0
-5 5 2 4.33219 4.20729 0
5 -5 -2 2.69298 1.48699 0
-5 5 1 13.4736 5.77049 0
5 -5 -1 11.005 6.59596 0
-5 5 0 97.9688 4.84617 0
5 -5 0 101.105 2.96911 0
5 -5 0 99.1036 5.07158 0
-5 5 -1 217.188 13.3552 0
5 -5 1 219.53 5.85867 0
5 -5 1 218.585 6.68141 0
5 -5 1 207.277 7.29368 0
-5 5 -2 177.004 6.86144 0
5 -5 2 187.939 5.58707 0
5 -5 2 186.511 6.63721 0
5 -5 2 175.737 6.49146 0
-5 5 -3 4.5833 1.57608 0
5 -5 3 5.69199 2.31158 0
5 -5 3 5.05069 2.5652 0
-5 5 -4 58.9505 4.81827 0
5 -5 4 64.5509 3.12839 0
5 -5 4 56.9394 3.65211 0
-5 5 -5 150.187 6.52534 0
5 -5 5 159.198 6.36455 0
5 -5 5 157.221 6.69283 0
-5 5 -6 45.2233 2.50671 0
5 -5 6 37.7673 2.3272 0
5 -5 6 42.0339 8.95299 0
5 -5 7 2.59329 1.44378 0
5 -5 7 2.64847 1.75952 0
-5 5 -8 35.1864 6.57489 0
5 -5 8 33.1414 2.0596 0
5 -5 8 36.6651 2.28552 0
-5 5 -9 116.164 8.28371 0
5 -5 9 114.823 6.91982 0
5 -5 9 119.86 8.63235 0
-5 5 -10 60.0769 2.62715 0
5 -5 10 61.4247 2.52185 0
5 -5 10 52.3245 5.81237 0
-5 5 -11 6.21432 2.42662 0
5 -5 11 4.92029 1.93732 0
5 -5 11 2.74453 1.31638 0
-5 5 -12 11.8397 5.53991 0
5 -5 12 15.4822 6.34439 0
5 -5 12 11.7295 5.58447 0
-5 5 -13 35.0799 3.14794 0
5 -5 13 33.6468 2.5534 0
5 -5 13 27.2777 3.77797 0
-5 5 -14 52.0901 4.54658 0
5 -5 14 57.3899 4.44824 0
5 -5 14 45.6667 3.79544 0
-5 5 -15 3.53383 3.32689 0
5 -5 15 2.52473 1.52942 0
5 -5 15 3.21652 1.72257 0
-5 4 18 7.81719 4.05697 0
-5 4 17 2.1694 1.38601 0
-5 4 16 5.51638 2.60011 0
-5 4 15 106.099 5.43652 0
-5 4 14 0.34665 1.72329 0
-5 4 14 0.53619 0.56861 0
-5 4 13 0.80219 1.22719 0
-5 4 13 0.64281 0.99875 0
-5 4 12 1.34157 1.19156 0
-5 4 11 379.676 13.8923 0
-5 4 11 370.304 12.8034 0
5 -4 -11 383.328 13.1555 0
-5 4 10 9.67684 2.41214 0
-5 4 10 5.0253 3.10312 0
5 -4 -10 6.85011 2.79532 0
-5 4 9 15.703 3.83541 0
-5 4 9 13.8068 1.2398 0
5 -4 -9 13.7206 2.14809 0
-5 4 8 -0.78759 1.84122 0
-5 4 8 1.15164 1.18314 0
-5 4 8 0.33954 0.23803 0
5 -4 -8 0.91011 0.78059 0
-5 4 7 426.576 11.9424 0
-5 4 7 432.904 10.3412 0
-5 4 7 423.997 10.1272 0
5 -4 -7 430.612 11.4849 0
-5 4 6 2.2305 1.9362 0
5 -4 -6 2.19953 1.03393 0
-5 4 5 8.8224 3.77242 0
5 -4 -5 2.63547 1.43424 0
-5 4 4 3.65649 4.39522 0
5 -4 -4 6.58664 2.51332 0
-5 4 3 604.562 18.3837 0
5 -4 -3 591.477 18.1012 0
-5 4 2 18.4737 2.17564 0
5 -4 -2 17.8026 2.60307 0
-5 4 1 69.1931 4.89049 0
5 -4 -1 63.224 4.7143 0
-5 4 0 62.0765 12.6072 0
5 -4 0 49.8591 2.48803 0
5 -4 0 51.8889 4.33371 0
-5 4 -1 609.666 18.8938 0
5 -4 1 581.812 16.7447 0
5 -4 1 537.648 16.7277 0
-5 4 -2 2.90751 2.53422 0
5 -4 2 4.18085 1.25674 0
5 -4 2 3.55455 1.91207 0
-5 4 -3 36.0611 9.43764 0
5 -4 3 44.4317 2.89394 0
5 -4 3 39.4602 3.35875 0
-5 4 -4 2.95933 1.81 0
5 -4 4 0.32056 0.63721 0
5 -4 4 1.4308 2.40031 0
-5 4 -5 454.161 12.5173 0
5 -4 5 432.803 11.7044 0
5 -4 5 432.613 12.5471 0
-5 4 -6 36.8466 4.20224 0
5 -4 6 40.0434 6.9282 0
5 -4 6 42.7658 4.60582 0
-5 4 -7 47.5432 3.189 0
5 -4 7 45.3669 6.33776 0
5 -4 7 39.7736 2.36408 0
-5 4 -8 2.34407 1.4706 0
5 -4 8 2.9952 1.58177 0
5 -4 8 2.16302 1.69294 0
-5 4 -9 176.388 9.11682 0
5 -4 9 179.828 6.84666 0
5 -4 9 171.872 6.61151 0
-5 4 -10 14.4499 2.47237 0
5 -4 10 10.7672 3.80608 0
5 -4 10 11.8399 4.58049 0
-5 4 -11 121.763 5.31407 0
5 -4 11 115.286 5.38675 0
5 -4 11 115.607 5.20639 0
-5 4 -12 -0.01011 1.0765 0
5 -4 12 -0.11624 1.44292 0
5 -4 12 0.15667 0.53825 0
-5 4 -13 21.1676 3.43489 0
5 -4 13 26.3413 2.24955 0
5 -4 13 17.8728 1.45615 0
-5 4 -14 16.6809 5.07164 0
5 -4 14 23.373 2.28291 0
5 -4 14 19.689 2.74397 0
-5 4 -15 51.9259 3.73155 0
5 -4 15 46.3643 4.00321 0
5 -4 15 42.4959 3.03873 0
-5 4 -16 0.61512 0.88411 0
5 -4 16 1.85722 1.53087 0
-5 3 18 45.8303 5.0379 0
-5 3 17 0.41633 0.60019 0
-5 3 16 7.78123 3.10394 0
-5 3 16 5.59564 3.20973 0
-5 3 15 69.4554 3.6138 0
-5 3 15 70.91 3.0123 0
-5 3 14 43.3156 2.51276 0
-5 3 14 36.5731 1.81932 0
-5 3 13 50.8814 8.26717 0
-5 3 13 48.6421 2.72652 0
-5 3 12 7.16974 2.20024 0
-5 3 12 4.62517 1.88508 0
-5 3 11 156.287 6.62488 0
-5 3 11 149.872 6.78827 0
5 -3 -11 151.389 5.32703 0
-5 3 10 133.049 5.47784 0
-5 3 10 130.221 4.7383 0
5 -3 -10 136.35 4.62049 0
-5 3 9 56.4973 3.68983 0
-5 3 9 49.3128 2.11146 0
-5 3 9 51.9051 2.50518 0
5 -3 -9 50.8842 2.34839 0
-5 3 8 8.59683 3.18112 0
-5 3 8 6.02446 1.6481 0
-5 3 8 7.0341 3.00295 0
5 -3 -8 6.80396 2.39419 0
-5 3 8 7.70225 1.13956 0
-5 3 7 322.035 10.7127 0
-5 3 7 302.27 8.85816 0
-5 3 7 312.044 9.22906 0
5 -3 -7 309.716 9.7933 0
-5 3 6 46.6057 4.64821 0
-5 3 6 46.445 2.31998 0
-5 3 6 43.5976 2.29938 0
5 -3 -6 46.3915 3.08232 0
-5 3 5 173.242 8.21649 0
-5 3 5 161.68 4.82767 0
-5 3 5 161.061 4.82338 0
5 -3 -5 158.136 5.99164 0
-5 3 4 11.2308 3.56674 0
5 -3 -4 7.36533 2.21584 0
-5 3 3 246.132 8.78812 0
5 -3 -3 230.307 9.928 0
-5 3 2 269.399 9.57412 0
5 -3 -2 248.101 10.8795 0
-5 3 1 267.472 9.35952 0
5 -3 -1 283.529 10.2138 0
-5 3 0 2.60409 1.66965 0
5 -3 0 0.59292 0.65932 0
5 -3 0 0.4601 2.32423 0
-5 3 -1 87.6499 5.12307 0
5 -3 1 99.56 4.35906 0
5 -3 1 107.955 5.98551 0
-5 3 -2 121.665 5.66959 0
5 -3 2 121.83 4.74834 0
5 -3 2 119.662 3.91417 0
-5 3 -3 383.314 14.3791 0
5 -3 3 414.671 14.9299 0
5 -3 3 435.211 16.4491 0
-5 3 -4 4.25125 2.21544 0
5 -3 4 10.2432 3.59261 0
5 -3 4 8.66075 4.5763 0
-5 3 -5 168.081 4.28274 0
5 -3 5 166.223 5.60366 0
5 -3 5 156.394 8.08552 0
-5 3 -6 87.3881 3.74459 0
5 -3 6 94.1637 4.16414 0
5 -3 6 91.4582 4.40332 0
-5 3 -7 198.185 6.50453 0
5 -3 7 185.291 6.41234 0
5 -3 7 193.23 6.61515 0
-5 3 -8 16.7441 3.82782 0
5 -3 8 17.0591 7.14687 0
5 -3 8 15.8789 4.68267 0
-5 3 -9 3.30964 2.1815 0
5 -3 9 2.57488 1.72309 0
5 -3 9 2.87399 1.82713 0
-5 3 -10 0.72928 1.33599 0
5 -3 10 1.29309 1.54741 0
5 -3 10 1.36663 0.96215 0
-5 3 -11 244.027 10.2442 0
5 -3 11 243.171 10.6824 0
5 -3 11 223.55 11.5849 0
-5 3 -12 0.77459 0.93495 0
5 -3 12 0.90505 1.57636 0
5 -3 12 0.31799 0.92136 0
-5 3 -13 2.57896 1.73032 0
5 -3 13 2.50527 2.55355 0
5 -3 13 1.66679 1.03412 0
-5 3 -14 0.35228 0.78072 0
5 -3 14 0.30705 0.69503 0
5 -3 14 1.18774 1.46861 0
-5 3 -15 95.4947 3.58273 0
5 -3 15 89.0538 4.0479 0
5 -3 15 87.4704 5.31147 0
-5 3 -16 0.39245 0.7933 0
5 -3 16 -0.53516 1.34945 0
-5 3 -17 1.3159 1.14871 0
5 -3 17 0.95005 1.10937 0
-5 2 18 104.943 6.87035 0
-5 2 18 102.386 6.58334 0
-5 2 17 0.63723 0.82052 0
-5 2 17 2.61501 1.16791 0
-5 2 16 0.36593 1.02051 0
-5 2 16 0.60003 0.7614 0
-5 2 15 12.1472 5.56888 0
-5 2 15 7.41546 4.02075 0
-5 2 14 101.289 5.0191 0
-5 2 14 104.325 3.12167 0
-5 2 13 29.1314 3.04987 0
-5 2 13 28.3362 1.95605 0
-5 2 12 2.41535 1.50031 0
-5 2 12 1.20619 1.33988 0
-5 2 11 30.662 7.14627 0
-5 2 11 25.6937 1.79288 0
-5 2 10 253.119 8.67915 0
-5 2 10 238.887 7.54914 0
5 -2 -10 241.184 6.93859 0
-5 2 9 85.7995 4.58374 0
-5 2 9 81.3316 4.16046 0
5 -2 -9 89.4752 3.5997 0
-5 2 9 79.0885 3.04618 0
-5 2 8 38.2205 2.97409 0
-5 2 8 36.2132 1.68506 0
-5 2 8 35.8444 3.40118 0
5 -2 -8 38.0536 1.83648 0
-5 2 8 36.4617 1.79377 0
-5 2 7 73.1926 6.92829 0
-5 2 7 68.9584 3.25264 0
-5 2 7 75.4678 3.68797 0
5 -2 -7 76.0921 4.09865 0
-5 2 7 67.1021 4.73111 0
-5 2 6 368.644 13.7236 0
-5 2 6 338.694 11.974 0
-5 2 6 354.786 12.5846 0
5 -2 -6 379.653 13.7972 0
-5 2 6 365.717 13.2342 0
-5 2 5 195.577 7.42744 0
-5 2 5 209.341 6.56516 0
-5 2 5 196.873 6.3188 0
5 -2 -5 198.652 7.10807 0
-5 2 5 193.912 6.79328 0
-5 2 4 86.6813 4.67927 0
-5 2 4 82.0259 3.44008 0
-5 2 4 82.5283 3.68409 0
5 -2 -4 82.6623 7.22464 0
-5 2 3 1.31425 1.02054 0
-5 2 3 0.19415 0.24891 0
5 -2 -3 1.1201 1.42377 0
-5 2 2 255.544 8.82688 0
5 -2 -2 253.97 8.67822 0
-5 2 2 245.399 7.53514 0
5 -2 -2 252.007 9.10368 0
-5 2 1 232.228 8.04525 0
5 -2 -1 217.691 7.46128 0
5 -2 -1 220.736 6.88774 0
-5 2 1 219.547 6.86688 0
5 -2 -1 219.021 8.24339 0
-5 2 0 50.0711 7.47978 0
5 -2 0 44.7688 1.92621 0
5 -2 0 47.2341 1.45513 0
-5 2 0 43.1514 1.72208 0
5 -2 0 47.9408 3.664 0
-5 2 -1 34.9351 3.40122 0
5 -2 1 26.9298 2.20872 0
5 -2 1 32.8249 1.84578 0
-5 2 -1 28.6096 1.30138 0
5 -2 1 35.6661 3.35974 0
-5 2 -2 280.315 12.4372 0
5 -2 2 308.059 10.0998 0
5 -2 2 310.163 10.0998 0
-5 2 -2 292.438 9.48631 0
5 -2 2 310.376 11.129 0
-5 2 -3 332.051 11.1599 0
5 -2 3 319.024 10.5325 0
5 -2 3 319.063 10.5178 0
-5 2 -3 318.632 10.3659 0
5 -2 3 310.207 10.9638 0
-5 2 -4 78.2669 4.4913 0
5 -2 4 83.0257 4.30358 0
5 -2 4 72.7712 6.86132 0
-5 2 -4 72.5601 3.67001 0
5 -2 4 77.9665 4.83859 0
-5 2 -5 -0.25448 1.85726 0
5 -2 5 -0.39288 1.70546 0
5 -2 5 1.44652 1.47777 0
5 -2 5 1.61617 1.24561 0
-5 2 -6 234.062 9.76424 0
5 -2 6 233.177 9.94632 0
5 -2 6 233.169 10.0649 0
-5 2 -7 162.774 3.86544 0
5 -2 7 149.724 7.24871 0
5 -2 7 153.919 7.5581 0
-5 2 -8 188.789 6.15101 0
5 -2 8 184.391 6.52037 0
5 -2 8 181.104 6.67113 0
-5 2 -9 21.315 2.9848 0
5 -2 9 17.5576 5.17247 0
5 -2 9 25.0688 2.46509 0
-5 2 -10 19.9268 5.36277 0
5 -2 10 20.0317 2.8584 0
5 -2 10 17.0455 3.95324 0
-5 2 -11 257.724 8.29771 0
5 -2 11 256.894 8.98944 0
5 -2 11 265.902 9.9425 0
-5 2 -12 62.4156 3.91694 0
5 -2 12 60.3179 4.35795 0
5 -2 12 61.1593 3.77477 0
-5 2 -13 14.9186 3.91511 0
5 -2 13 14.6045 6.44395 0
5 -2 13 16.3888 1.5785 0
-5 2 -14 9.24538 4.39174 0
5 -2 14 9.23276 4.43718 0
5 -2 14 11.2671 1.26452 0
-5 2 -15 49.4241 2.65193 0
5 -2 15 50.6486 3.60984 0
5 -2 15 53.6262 2.56228 0
-5 2 -16 27.0162 1.64895 0
5 -2 16 23.2225 2.12261 0
-5 2 -17 5.056 3.69724 0
5 -2 17 5.60075 3.33062 0
-5 2 -18 2.71061 2.78235 0
5 -2 18 0.10664 1.14396 0
-5 1 18 58.9149 4.23891 0
-5 1 18 59.1518 5.59815 0
-5 1 17 4.58081 2.75488 0
-5 1 17 3.53042 2.91894 0
-5 1 16 37.5703 3.18319 0
-5 1 16 36.3257 2.25485 0
-5 1 15 1.20692 1.73495 0
-5 1 15 1.87122 1.21666 0
-5 1 14 122.985 6.98426 0
-5 1 14 114.744 5.95778 0
-5 1 13 9.93329 4.44946 0
-5 1 13 8.66844 4.41573 0
-5 1 12 59.1248 3.07589 0
-5 1 12 59.4213 2.99802 0
-5 1 11 0.08305 1.15633 0
-5 1 11 1.14035 1.04453 0
-5 1 10 122.841 5.76514 0
-5 1 10 125.856 5.29872 0
-5 1 9 -1.39407 2.06337 0
-5 1 9 1.12043 1.6825 0
-5 1 9 0.48811 0.42894 0
-5 1 8 296.045 10.1401 0
-5 1 8 289.122 9.17664 0
5 -1 -8 277.585 10.8249 0
-5 1 8 285.782 8.8462 0
-5 1 7 13.1903 4.41366 0
-5 1 7 7.49394 2.92416 0
-5 1 7 8.81466 3.4305 0
5 -1 -7 7.38845 2.13088 0
-5 1 7 10.1691 0.93252 0
-5 1 6 282.743 10.9631 0
-5 1 6 258.488 8.40072 0
5 -1 -6 270.685 10.0342 0
-5 1 6 283.915 10.3708 0
-5 1 5 15.2981 5.44283 0
-5 1 5 13.5236 1.8747 0
5 -1 -5 11.7348 2.30402 0
-5 1 5 14.1533 2.46144 0
-5 1 4 1107.62 9.6899 0
-5 1 4 1088.21 32.4107 0
5 -1 -4 1029.5 31.2398 0
-5 1 4 1116.1 8.48371 0
-5 1 3 4.62233 2.61032 0
-5 1 3 7.21677 2.62621 0
-5 1 3 6.179 1.60961 0
5 -1 -3 7.75684 2.97566 0
-5 1 3 5.20476 1.36605 0
-5 1 2 285.218 9.53016 0
5 -1 -2 299.45 9.8817 0
5 -1 -2 298.967 9.43128 0
-5 1 2 305.827 9.59607 0
5 -1 -2 298.945 11.2329 0
-5 1 1 148.533 6.09069 0
5 -1 -1 146.621 6.60809 0
5 -1 -1 132.443 5.16837 0
-5 1 1 141.374 5.38208 0
5 -1 -1 141.987 6.32689 0
-5 1 0 1310.08 31.6228 0
5 -1 0 1198.87 29.3296 0
5 -1 0 1250.03 29.8347 0
-5 1 0 1250.7 29.9653 0
5 -1 0 1293.5 32.2302 0
-5 1 -1 9.01589 3.2123 0
5 -1 1 6.08022 2.59694 0
5 -1 1 5.47615 2.19611 0
-5 1 -1 3.06551 1.77834 0
5 -1 1 4.10993 1.75011 0
-5 1 -2 142.174 6.05995 0
5 -1 2 161.671 5.52867 0
5 -1 2 162.656 6.15403 0
-5 1 -2 147.946 5.89946 0
5 -1 2 153.801 6.10422 0
-5 1 -3 44.8779 2.75637 0
5 -1 3 45.0332 2.40312 0
5 -1 3 38.5142 6.41725 0
-5 1 -3 39.2314 2.82059 0
5 -1 3 42.2019 3.82145 0
-5 1 -4 936.345 28.2366 0
5 -1 4 900.42 27.1982 0
5 -1 4 891.842 27.2084 0
-5 1 -4 855.922 26.3337 0
5 -1 4 928.954 28.8556 0
-5 1 -5 18.6399 1.957 0
5 -1 5 14.0381 5.25095 0
5 -1 5 16.9057 1.88433 0
5 -1 5 15.6027 6.38446 0
-5 1 -6 89.3512 4.70678 0
5 -1 6 101.1 5.23127 0
5 -1 6 92.9406 5.27232 0
5 -1 6 93.2097 5.21759 0
-5 1 -7 0.90889 1.76206 0
5 -1 7 3.57556 1.75348 0
5 -1 7 2.29796 1.51768 0
5 -1 7 1.36763 1.21758 0
-5 1 -8 357.28 11.1064 0
5 -1 8 380.539 12.4356 0
5 -1 8 372.633 12.1447 0
-5 1 -9 15.1199 5.51906 0
5 -1 9 21.1029 7.60521 0
5 -1 9 19.6242 7.08084 0
-5 1 -10 2.54567 0.98959 0
5 -1 10 2.17151 2.03863 0
5 -1 10 4.40597 2.10857 0
-5 1 -11 14.564 1.34322 0
5 -1 11 17.735 2.65066 0
5 -1 11 18.1188 3.24584 0
-5 1 -12 218.495 9.69722 0
5 -1 12 232.21 9.28632 0
5 -1 12 224.938 8.76889 0
-5 1 -13 47.0289 2.63087 0
5 -1 13 39.784 2.42166 0
5 -1 13 41.7471 2.42453 0
-5 1 -14 0.75335 0.93703 0
5 -1 14 1.50936 1.46943 0
5 -1 14 1.34166 2.02846 0
-5 1 -15 6.57909 3.24122 0
5 -1 15 4.7528 2.91908 0
5 -1 15 8.38555 3.86568 0
-5 1 -16 69.0317 3.23366 0
5 -1 16 71.5756 3.85863 0
5 -1 16 63.8584 3.91881 0
-5 1 -17 20.56 1.66632 0
5 -1 17 19.805 1.99612 0
-5 1 -18 7.77167 1.63454 0
5 -1 18 5.68545 4.18661 0
-5 1 -19 14.5595 1.80264 0
5 -1 19 11.9797 7.75648 0
-5 0 18 18.6097 1.83534 0
-5 0 18 16.9301 1.49824 0
-5 0 17 32.5515 2.57186 0
-5 0 17 33.242 2.35015 0
-5 0 16 53.5924 5.94116 0
-5 0 16 54.8072 2.70976 0
-5 0 15 4.22117 2.96231 0
-5 0 15 4.68267 2.2761 0
-5 0 14 17.6623 6.13922 0
-5 0 14 14.3499 5.56813 0
-5 0 13 29.2435 2.06425 0
5 0 -12 176.546 6.63157 0
-5 0 12 185.316 4.14921 0
5 0 -11 0.32226 0.75938 0
-5 0 11 -0.18825 1.29861 0
5 0 -10 23.4236 2.82236 0
-5 0 10 19.6089 2.56485 0
-5 0 10 21.978 0.6558 0
5 0 -9 45.9932 2.77385 0
-5 0 9 55.8892 3.11919 0
-5 0 9 49.7845 1.80467 0
-5 0 8 520.627 15.0405 0
-5 0 7 75.0933 4.74875 0
-5 0 7 71.2398 3.64042 0
-5 0 6 -0.08206 1.80526 0
-5 0 6 0.21882 0.53337 0
5 0 -6 0.94366 0.92542 0
-5 0 6 0.45587 0.53793 0
-5 0 5 24.5929 6.36889 0
-5 0 5 22.057 1.3996 0
5 0 -5 22.2472 1.76047 0
-5 0 5 20.043 1.93603 0
-5 0 4 443.961 14.1179 0
-5 0 4 436.928 15.2087 0
-5 0 4 467.465 14.4711 0
5 0 -4 441.021 14.1647 0
-5 0 4 440.631 13.8946 0
-5 0 3 156.735 6.30958 0
-5 0 3 161.586 5.92003 0
5 0 -3 169.245 5.96393 0
-5 0 3 158.381 5.42624 0
5 0 -3 157.778 7.82937 0
-5 0 3 150.651 6.25471 0
-5 0 2 2.41221 1.10011 0
-5 0 2 2.67005 1.15167 0
5 0 -2 2.65859 1.20324 0
-5 0 2 1.51265 1.30065 0
5 0 -2 1.03708 1.6387 0
-5 0 2 2.28616 2.16584 0
-5 0 1 664.003 16.6708 0
-5 0 1 645.667 16.0273 0
5 0 -1 598.152 14.9942 0
-5 0 1 637.438 15.7499 0
5 0 -1 650.803 17.0072 0
-5 0 1 613.672 15.9388 0
-5 0 0 1197.69 28.8839 0
5 0 0 1188.06 28.6801 0
-5 0 0 1182.24 28.6262 0
5 0 0 1124.85 28.1828 0
-5 0 -1 155.775 6.03188 0
5 0 1 151.408 5.70243 0
5 0 1 152.624 6.03188 0
-5 0 -1 153.139 6.09178 0
5 0 1 159.764 7.34967 0
-5 0 -2 0.90795 1.50343 0
5 0 2 0.66033 0.7016 0
5 0 2 -0.01179 0.99639 0
-5 0 -2 1.42678 1.19685 0
5 0 2 1.67441 1.27939 0
-5 0 -3 0.83483 1.12073 0
5 0 3 1.85835 0.53749 0
5 0 3 1.50384 1.53243 0
-5 0 -3 1.32658 1.12645 0
5 0 3 3.41365 3.75674 0
-5 0 -4 1585.38 8.13628 0
5 0 4 1564.58 37.3054 0
5 0 4 1569.71 11.2551 0
-5 0 -4 1591.41 11.2113 0
5 0 4 1529.39 38.1481 0
-5 0 -5 1.5894 1.51175 0
5 0 5 1.84826 1.03027 0
5 0 5 1.94663 2.41258 0
5 0 5 -0.59538 2.05018 0
-5 0 -6 145.842 6.38468 0
5 0 6 161.789 5.63154 0
5 0 6 153.956 4.40223 0
5 0 6 146.848 7.15726 0
-5 0 -7 1.74402 1.40793 0
5 0 7 5.09582 1.53056 0
5 0 7 4.33281 2.80224 0
5 0 7 3.71059 2.87037 0
-5 0 -8 237.679 9.67163 0
5 0 8 245.108 9.74384 0
5 0 8 251.186 10.9034 0
5 0 8 247.856 10.5466 0
-5 0 -9 18.5682 5.76762 0
5 0 9 20.7754 2.75409 0
5 0 9 22.2403 2.20726 0
-5 0 -10 70.3893 4.18513 0
5 0 10 67.7089 3.63796 0
5 0 10 77.6467 3.76366 0
-5 0 -11 18.8842 2.21905 0
5 0 11 19.8005 3.2961 0
5 0 11 17.3114 1.82243 0
-5 0 -12 194.41 6.48731 0
5 0 12 196.571 7.03083 0
5 0 12 200.878 8.54698 0
-5 0 -13 8.9849 4.3823 0
5 0 13 10.1609 3.72733 0
5 0 13 12.5157 1.60466 0
-5 0 -14 58.3479 4.4178 0
5 0 14 51.1975 2.71029 0
5 0 14 57.7323 3.63786 0
-5 0 -15 0.26371 0.40591 0
5 0 15 1.24618 1.65985 0
5 0 15 0.7808 0.6205 0
-5 0 -16 64.6354 3.0232 0
5 0 16 63.0637 7.02606 0
5 0 16 65.981 2.77047 0
-5 0 -17 1.70778 1.08902 0
5 0 17 1.48953 0.66826 0
-5 0 -18 37.0083 1.92466 0
5 0 18 36.9052 2.83757 0
-5 0 -19 13.4796 1.43379 0
5 0 19 9.6516 5.58984 0
5 1 -18 0.47675 0.64342 0
-5 -1 18 0.32559 0.51745 0
5 1 -17 33.847 3.35752 0
-5 -1 17 40.0889 2.60841 0
5 1 -16 3.86719 2.00027 0
-5 -1 16 2.16918 1.3424 0
5 1 -15 94.0515 4.88403 0
-5 -1 15 90.477 4.84838 0
5 1 -14 2.00106 2.27671 0
-5 -1 14 0.7019 0.804 0
5 1 -13 58.4371 6.16083 0
-5 -1 13 57.3287 3.61399 0
5 1 -12 91.521 4.18685 0
-5 -1 12 100.723 4.38734 0
5 1 -11 95.1362 4.6942 0
-5 -1 11 91.4205 3.25951 0
5 1 -10 12.4817 4.78557 0
-5 -1 10 11.8793 5.74336 0
5 1 -9 94.738 4.32508 0
-5 -1 9 100.48 3.0726 0
5 1 -8 247.7 10.6388 0
-5 -1 8 244.759 9.53561 0
5 1 -7 351.087 11.3955 0
-5 -1 7 364.575 10.8206 0
5 1 -6 64.6115 4.9088 0
-5 -1 6 66.0515 3.73594 0
5 1 -5 71.3771 4.09632 0
-5 -1 5 63.8016 2.22066 0
-5 -1 5 70.2595 3.47434 0
5 1 -4 176.682 6.61094 0
-5 -1 4 178.677 6.44463 0
-5 -1 4 175.429 6.4966 0
5 1 -4 179.348 6.70449 0
-5 -1 4 174.707 6.20035 0
5 1 -3 580.477 15.0613 0
-5 -1 3 565.945 14.4765 0
5 1 -3 588.648 16.3467 0
-5 -1 3 642.587 16.2309 0
5 1 -3 603.736 15.6461 0
-5 -1 3 590.838 15.3261 0
-5 -1 2 184.268 6.43396 0
-5 -1 2 198.005 6.91462 0
5 1 -2 182.108 8.79674 0
-5 -1 2 181.68 6.26601 0
5 1 -2 198.885 7.36054 0
-5 -1 2 178.402 6.50924 0
-5 -1 1 466.428 14.5658 0
-5 -1 1 491.509 15.8261 0
5 1 -1 493.315 15.8561 0
-5 -1 1 446.689 14.3017 0
5 1 -1 482.897 15.7661 0
-5 -1 1 478.191 15.448 0
-5 -1 0 549.205 16.8357 0
-5 -1 0 532.615 16.2904 0
5 1 0 577.62 5.8447 0
-5 -1 0 560.919 17.4606 0
5 1 0 543.875 17.6137 0
-5 -1 0 557.298 17.9017 0
-5 -1 -1 1203.74 23.6432 0
-5 -1 -1 1192.99 23.3169 0
5 1 1 1181.65 24.6407 0
-5 -1 -1 1202.04 24.3883 0
5 1 1 1179.39 25.6689 0
-5 -1 -2 220.582 6.69373 0
-5 -1 -2 220.235 6.68155 0
5 1 2 223.89 7.77179 0
-5 -1 -2 214.79 7.46725 0
5 1 2 215.283 8.42959 0
-5 -1 -3 40.7833 1.54851 0
5 1 3 46.0874 1.69683 0
5 1 3 44.8533 3.03769 0
-5 -1 -3 44.2007 2.60458 0
5 1 3 37.1642 4.15902 0
-5 -1 -4 239.362 7.40599 0
5 1 4 249.434 8.70488 0
-5 -1 -4 255.985 8.87009 0
5 1 4 239.817 8.83591 0
-5 -1 -5 316.68 9.9236 0
5 1 5 317.809 9.90739 0
5 1 5 319.365 10.8906 0
5 1 5 305.73 11.3227 0
-5 -1 -6 83.0166 4.48409 0
5 1 6 78.6441 4.72757 0
5 1 6 68.2201 2.97249 0
5 1 6 71.6086 4.23554 0
-5 -1 -7 15.5852 2.76954 0
5 1 7 15.9118 1.10308 0
5 1 7 13.9519 8.07191 0
5 1 7 15.7319 5.69058 0
-5 -1 -8 181.018 7.20048 0
5 1 8 187.91 6.92252 0
5 1 8 173.187 7.29755 0
5 1 8 190.535 7.42109 0
-5 -1 -9 232.586 9.47603 0
5 1 9 236.917 9.44303 0
5 1 9 216.847 9.86794 0
5 1 9 226.645 10.4249 0
-5 -1 -10 232.692 8.98066 0
5 1 10 217.536 9.3661 0
5 1 10 229.269 7.2462 0
-5 -1 -11 11.7307 1.23706 0
5 1 11 12.6443 6.05732 0
5 1 11 14.4217 5.83693 0
-5 -1 -12 33.9484 2.29395 0
5 1 12 34.3236 2.50787 0
5 1 12 32.5563 2.83699 0
-5 -1 -13 16.2496 1.52494 0
5 1 13 10.4966 4.32935 0
5 1 13 12.6137 4.04707 0
-5 -1 -14 152.579 6.73179 0
5 1 14 157.819 7.59417 0
5 1 14 145.42 8.68729 0
-5 -1 -15 4.21738 1.62598 0
5 1 15 5.3593 2.20095 0
5 1 15 3.77344 1.77306 0
-5 -1 -16 3.90814 1.94289 0
5 1 16 2.8398 1.85096 0
5 1 16 2.44724 1.33667 0
-5 -1 -17 4.42553 2.86848 0
5 1 17 4.97234 1.59412 0
-5 -1 -18 56.4895 4.75879 0
5 1 18 56.8062 6.70873 0
-5 -1 -19 12.7171 3.01344 0
5 1 19 5.73969 5.46059 0
-5 -1 -20 3.90663 2.95172 0
5 1 20 3.12001 2.95739 0
5 2 -18 1.78594 2.24188 0
-5 -2 18 3.47349 2.38188 0
5 2 -17 8.93919 4.7124 0
-5 -2 17 5.38213 3.0492 0
5 2 -16 0.50557 0.7334 0
-5 -2 16 0.03255 0.89613 0
5 2 -15 153.948 7.44418 0
-5 -2 15 144.244 6.92735 0
5 2 -14 0.61625 1.24741 0
-5 -2 14 1.43129 0.87468 0
5 2 -13 3.07012 2.70909 0
-5 -2 13 2.78932 1.25158 0
5 2 -12 -0.59408 1.45636 0
-5 -2 12 1.21988 0.79595 0
5 2 -11 258.392 11.0884 0
-5 -2 11 265.797 8.76337 0
5 2 -10 0.0625 0.9506 0
5 2 -9 4.99346 2.97974 0
-5 -2 9 3.35265 1.5094 0
5 2 -8 0.41188 0.97004 0
-5 -2 8 0.48502 0.41958 0
5 2 -7 547.501 16.8168 0
-5 -2 7 523.99 15.2842 0
5 2 -6 17.8776 5.75517 0
-5 -2 6 14.9317 2.07397 0
5 2 -5 5.94928 4.11256 0
-5 -2 5 5.01912 1.82728 0
5 2 -4 12.1885 5.97545 0
-5 -2 4 10.8185 3.83197 0
5 2 -4 17.2793 6.71859 0
-5 -2 4 8.58908 2.83606 0
5 2 -3 570.538 14.8918 0
-5 -2 3 629.906 15.9732 0
5 2 -3 606.6 15.9355 0
-5 -2 3 609.838 15.6127 0
5 2 -2 36.0541 5.34093 0
-5 -2 2 38.7359 5.32392 0
5 2 -2 37.8741 2.64778 0
-5 -2 2 36.9669 2.40965 0
-5 -2 2 31.8358 3.94616 0
5 2 -1 390.874 12.4215 0
-5 -2 1 408.099 12.8464 0
5 2 -1 417.452 13.7846 0
-5 -2 1 405.001 12.9998 0
5 2 -1 435.627 14.3983 0
-5 -2 1 393.83 13.0116 0
5 2 0 68.8077 2.93031 0
-5 -2 0 69.1226 3.00901 0
5 2 0 69.8309 3.95349 0
-5 -2 0 74.8984 3.60234 0
5 2 0 66.9369 3.899 0
-5 -2 0 69.6493 5.88483 0
-5 -2 -1 1455.37 34.3356 0
-5 -2 -1 1503.56 35.4795 0
5 2 1 1579.86 38.3545 0
-5 -2 -1 1532.3 37.0699 0
5 2 1 1433.43 35.3877 0
5 2 2 19.1467 2.11118 0
-5 -2 -2 22.645 3.35842 0
5 2 2 23.442 8.49949 0
5 2 3 298.595 10.6826 0
-5 -2 -3 297.469 10.0868 0
5 2 3 297.666 10.6111 0
5 2 4 1.86852 1.5638 0
5 2 4 1.69029 2.44919 0
5 2 5 385.481 11.7174 0
5 2 5 440.525 14.4004 0
5 2 5 442.852 14.8329 0
5 2 6 108.044 4.6379 0
5 2 6 107.869 5.04546 0
5 2 6 110.814 5.91216 0
5 2 6 106.058 5.44786 0
5 2 7 225.892 7.45029 0
5 2 7 220.831 8.67109 0
5 2 7 218.032 8.25611 0
-5 -2 -8 11.5825 3.91932 0
5 2 8 12.5859 3.63583 0
5 2 8 12.3744 5.71473 0
5 2 8 17.4187 4.36929 0
-5 -2 -9 401.901 12.3675 0
5 2 9 403.091 12.0354 0
5 2 9 390.282 14.7468 0
5 2 9 401.872 12.6954 0
-5 -2 -10 58.4622 3.48633 0
5 2 10 61.4115 3.27707 0
5 2 10 54.0243 3.94828 0
-5 -2 -11 186.898 7.26037 0
5 2 11 194.89 5.25412 0
5 2 11 187.994 7.50796 0
-5 -2 -12 4.10097 1.42423 0
5 2 12 3.27606 2.36025 0
5 2 12 4.7609 2.07742 0
-5 -2 -13 107.744 5.79786 0
5 2 13 102.526 5.20586 0
5 2 13 106.451 4.51989 0
-5 -2 -14 72.5173 3.85396 0
5 2 14 69.8707 4.12421 0
5 2 14 77.9869 3.35165 0
-5 -2 -15 67.5706 3.97281 0
5 2 15 66.292 4.23292 0
-5 -2 -16 3.5024 1.76645 0
5 2 16 1.9342 0.66083 0
-5 -2 -17 19.9748 1.57203 0
5 2 17 19.2669 1.99345 0
5 2 18 41.8917 3.76948 0
5 2 18 45.8051 4.30101 0
5 2 19 48.9478 2.64018 0
5 2 19 53.7113 5.65872 0
5 2 20 11.6538 1.85989 0
5 2 20 5.07173 3.43394 0
5 3 -17 1.51635 1.7201 0
-5 -3 17 1.67112 1.50656 0
5 3 -16 6.10537 3.68504 0
-5 -3 16 5.91242 3.28025 0
5 3 -15 104.95 4.17702 0
-5 -3 15 101.823 5.10799 0
5 3 -14 28.6791 4.95534 0
-5 -3 14 26.9473 3.83043 0
5 3 -13 3.84673 2.64688 0
-5 -3 13 2.0624 1.95426 0
5 3 -12 22.6584 3.23532 0
-5 -3 12 20.3434 4.20564 0
5 3 -11 195.492 7.99199 0
5 3 -10 -0.92309 1.56798 0
5 3 -9 201.247 7.28153 0
5 3 -8 1.53668 1.95478 0
-5 -3 8 0.47311 0.4181 0
5 3 -7 265.943 11.1916 0
-5 -3 7 272.924 10.8507 0
5 3 -6 35.0099 5.91568 0
-5 -3 6 28.7826 4.41255 0
5 3 -5 256.906 9.08409 0
-5 -3 5 268.363 4.20959 0
5 3 -4 0.26863 0.79628 0
5 3 -4 0.27822 0.82986 0
-5 -3 4 -0.70994 0.84905 0
5 3 -3 454.52 14.5459 0
-5 -3 3 479.378 15.0153 0
5 3 -3 433.138 14.2551 0
-5 -3 3 475.082 15.0459 0
5 3 -2 92.93 4.45267 0
-5 -3 2 96.3974 4.3773 0
5 3 -2 91.6809 4.7165 0
-5 -3 2 93.4038 4.44729 0
5 3 -1 1130.51 27.7616 0
-5 -3 1 1164.88 28.3797 0
5 3 -1 1085.66 27.4694 0
5 3 0 28.5445 1.90528 0
-5 -3 0 29.3321 1.87054 0
5 3 0 29.0831 4.78348 0
5 3 1 716.271 17.5201 0
-5 -3 -1 771.905 18.7249 0
5 3 1 689.13 17.5553 0
5 3 2 44.2072 2.42135 0
-5 -3 -2 43.0612 2.55652 0
5 3 2 40.8926 2.53889 0
5 3 3 517.809 15.5203 0
-5 -3 -3 472.858 14.1941 0
5 3 3 491.812 16.0241 0
5 3 4 20.0989 0.95522 0
5 3 4 22.0992 0.94398 0
5 3 4 20.7844 2.15205 0
5 3 5 183.53 6.06133 0
5 3 5 182.68 7.97232 0
5 3 5 180.602 7.09488 0
5 3 6 8.04401 2.09134 0
5 3 6 9.73239 2.72895 0
5 3 6 10.7322 3.85623 0
5 3 6 8.80914 3.97355 0
5 3 7 546.941 16.5641 0
5 3 7 524.372 16.0078 0
5 3 7 548.192 17.739 0
5 3 7 560.862 17.9308 0
5 3 8 0.79947 0.59736 0
5 3 8 1.71123 0.91176 0
5 3 8 1.24862 2.02114 0
5 3 8 2.48376 1.17226 0
5 3 9 69.5347 3.55692 0
5 3 9 69.884 3.43906 0
5 3 9 77.3809 4.73555 0
5 3 9 63.0901 4.61768 0
5 3 10 30.3012 2.58026 0
5 3 10 29.2548 2.53269 0
5 3 11 439.935 12.6195 0
5 3 11 452.276 12.9239 0
5 3 12 2.35627 1.83002 0
5 3 12 1.83681 2.53962 0
5 3 13 34.9665 2.01 0
5 3 13 32.7511 2.6326 0
5 3 14 4.32398 2.03604 0
5 3 15 113.155 6.59063 0
5 3 15 109.671 7.63825 0
5 3 16 3.91767 1.67569 0
5 3 16 1.2484 1.80182 0
5 3 17 0.669 0.82246 0
5 3 17 0.97592 1.23729 0
5 3 18 11.5387 1.26489 0
5 3 18 7.53999 4.1692 0
5 3 19 95.3793 4.23964 0
5 3 19 86.7637 6.38881 0
5 3 20 4.7476 3.7879 0
5 3 20 4.34609 2.27 0
5 4 -16 1.75788 2.219 0
-5 -4 16 2.63581 1.54242 0
5 4 -15 29.9605 2.23965 0
-5 -4 15 21.9977 2.6643 0
5 4 -14 80.4683 4.55259 0
-5 -4 14 79.3117 3.29028 0
5 4 -13 37.6228 4.26638 0
-5 -4 13 38.2351 6.82375 0
5 4 -12 0.98693 1.39594 0
-5 -4 12 2.13482 2.59134 0
5 4 -11 29.8897 4.01576 0
5 4 -10 120.476 5.26364 0
5 4 -9 20.5362 6.74785 0
5 4 -8 38.1125 3.0087 0
5 4 -7 63.8612 3.60294 0
5 4 -6 367.244 11.8597 0
5 4 -5 229.192 10.5488 0
5 4 -4 131.738 5.33089 0
5 4 -4 131.045 6.02856 0
5 4 -3 3.61339 3.59918 0
5 4 -3 5.323 4.07749 0
5 4 -2 683.484 21.1556 0
-5 -4 2 739.114 22.5374 0
5 4 -2 716.93 22.5673 0
5 4 -1 828.12 25.2416 0
-5 -4 1 854.122 25.7886 0
5 4 -1 857.461 26.6949 0
5 4 0 138.088 7.21148 0
-5 -4 0 135.405 5.70035 0
5 4 0 145.009 6.53389 0
5 4 1 13.2015 2.81128 0
-5 -4 -1 15.3168 5.04167 0
5 4 1 14.588 1.93447 0
5 4 2 311.096 10.0883 0
-5 -4 -2 275.429 8.89335 0
5 4 2 290.05 10.0387 0
5 4 3 385.318 11.996 0
-5 -4 -3 352.319 11.2104 0
5 4 3 373.016 12.5033 0
5 4 4 256.366 8.30443 0
-5 -4 -4 235.802 7.55821 0
5 4 4 244.991 8.66689 0
5 4 5 -0.11829 1.03372 0
-5 -4 -5 0.44743 0.54514 0
5 4 5 0.91543 1.70744 0
5 4 6 136.82 5.93608 0
5 4 6 134.846 5.75933 0
5 4 6 124.049 6.12757 0
5 4 7 440.269 15.4941 0
5 4 7 373.92 13.2056 0
5 4 7 430.524 16.0151 0
5 4 8 99.4906 4.93306 0
5 4 8 92.9425 4.66973 0
5 4 8 99.675 6.07416 0
5 4 9 7.32117 3.37486 0
5 4 9 6.64206 1.80131 0
5 4 9 10.87 5.30868 0
5 4 10 111.996 3.95744 0
5 4 10 114.93 4.80127 0
5 4 11 255.512 7.30831 0
5 4 11 264.702 8.61039 0
5 4 12 7.1583 2.90985 0
5 4 12 9.75795 2.48501 0
5 4 13 12.2162 4.49922 0
5 4 13 14.9051 2.05913 0
5 4 14 3.25242 1.79934 0
5 4 14 3.00383 1.49451 0
5 4 15 157.477 7.33523 0
5 4 15 155.925 7.13841 0
5 4 16 3.25474 1.28436 0
5 4 16 1.28178 1.49842 0
5 4 17 11.8262 5.22028 0
5 4 17 14.0274 6.99085 0
5 4 18 0.23423 0.62611 0
5 4 18 -1.87157 1.46843 0
5 4 19 46.0977 5.36421 0
5 4 19 49.6274 3.66049 0
5 4 20 0.56767 0.60709 0
5 4 20 0.96386 0.99934 0
5 5 -16 31.9476 2.75331 0
-5 -5 16 34.0856 3.159 0
5 5 -15 0.88648 0.83723 0
-5 -5 15 0.907 0.82697 0
5 5 -14 64.7652 3.11403 0
-5 -5 14 61.4319 2.94298 0
5 5 -13 3.98518 2.53772 0
-5 -5 13 3.03733 1.61088 0
5 5 -12 40.9495 2.69838 0
5 5 -11 0.5957 0.83612 0
5 5 -10 83.083 5.2294 0
5 5 -9 15.8863 1.62532 0
5 5 -8 206.749 7.42706 0
5 5 -7 1.8109 1.52515 0
5 5 -6 126.589 4.96335 0
5 5 -5 21.2275 3.25486 0
5 5 -4 301.184 9.93583 0
5 5 -4 303.167 10.325 0
5 5 -3 1.59547 1.50852 0
5 5 -3 4.12561 2.15627 0
5 5 -2 99.0099 5.41834 0
5 5 -2 106.122 6.4929 0
5 5 -1 37.8926 2.36562 0
-5 -5 1 37.447 3.47495 0
5 5 -1 32.0568 3.38962 0
5 5 0 950.46 28.7655 0
-5 -5 0 998.778 30.1795 0
5 5 0 1067.86 32.7532 0
5 5 1 4.74577 2.73756 0
-5 -5 -1 6.06959 1.72846 0
5 5 1 8.69724 3.76664 0
5 5 2 155.89 6.9384 0
-5 -5 -2 142.547 6.46979 0
5 5 2 162.435 6.59576 0
5 5 3 286.619 9.55515 0
-5 -5 -3 262.952 8.58157 0
5 5 3 265.612 9.30925 0
5 5 4 548.303 16.9719 0
-5 -5 -4 472.956 14.4493 0
5 5 4 547.513 17.347 0
5 5 5 77.4963 4.08077 0
-5 -5 -5 74.5101 3.45185 0
5 5 5 80.3432 4.57047 0
5 5 6 48.1258 3.06133 0
-5 -5 -6 45.4899 3.16769 0
5 5 6 51.6634 3.86135 0
5 5 7 145.928 5.86507 0
5 5 7 151.567 6.18353 0
5 5 8 653.054 18.9692 0
5 5 8 569.207 16.744 0
5 5 8 638.851 19.2979 0
5 5 9 31.9523 2.19143 0
5 5 9 32.8915 2.33191 0
5 5 9 34.3645 3.73667 0
5 5 10 4.2751 1.49175 0
5 5 10 5.72909 1.92229 0
5 5 11 79.3366 3.67309 0
5 5 11 77.5653 4.37172 0
5 5 12 136.925 5.05246 0
5 5 12 142.931 6.2405 0
5 5 13 79.0743 2.49112 0
5 5 13 70.5197 3.40824 0
5 5 14 0.57922 0.57337 0
5 5 14 -1.33396 1.58554 0
5 5 15 47.0817 2.75372 0
5 5 15 47.2187 8.29129 0
5 5 16 101.619 2.94226 0
5 5 16 96.8056 6.54403 0
5 5 17 22.7058 2.06525 0
5 5 17 24.5751 2.53137 0
5 5 18 1.13695 1.43296 0
5 5 18 -0.09643 1.35447 0
5 5 19 4.24237 2.2305 0
5 5 19 5.10009 2.31039 0
5 5 20 26.6054 2.97584 0
5 5 20 28.0421 3.55447 0
-5 -6 15 3.73097 2.8269 0
5 6 -14 4.84208 2.98771 0
-5 -6 14 5.13422 2.7598 0
5 6 -13 24.1336 5.48299 0
-5 -6 13 18.2288 2.48866 0
5 6 -12 111.666 5.91727 0
5 6 -11 2.97747 3.47996 0
5 6 -10 39.8224 3.07229 0
5 6 -9 19.1266 3.13168 0
5 6 -8 247.728 9.71484 0
5 6 -7 8.92791 4.07897 0
5 6 -6 0.78632 1.09005 0
5 6 -5 28.197 2.0604 0
5 6 -4 464.746 12.6732 0
5 6 -4 479.869 13.414 0
5 6 -3 -1.61054 1.57058 0
5 6 -3 2.05814 1.13897 0
5 6 -2 10.8823 3.72148 0
5 6 -2 13.6247 4.23593 0
5 6 -1 44.909 6.58483 0
5 6 -1 46.4071 3.25807 0
5 6 0 830.472 29.1985 0
5 6 0 879.244 9.52825 0
5 6 1 5.41977 2.45534 0
-5 -6 -1 3.34287 2.4238 0
5 6 1 3.85646 2.81125 0
5 6 2 14.6795 4.25268 0
-5 -6 -2 12.1843 3.87932 0
5 6 2 19.5878 5.63686 0
5 6 3 0.77423 1.66688 0
-5 -6 -3 0.26415 1.28432 0
5 6 3 1.34352 0.797 0
5 6 4 515.487 19.9273 0
-5 -6 -4 482.188 17.4612 0
5 6 4 515.316 18.6965 0
5 6 5 -0.2829 1.79466 0
-5 -6 -5 1.48523 1.06088 0
5 6 5 1.65763 1.31726 0
5 6 6 25.2259 3.04792 0
-5 -6 -6 24.6972 3.27576 0
5 6 6 31.2358 5.11999 0
5 6 7 9.99891 2.51843 0
-5 -6 -7 6.37088 2.62648 0
5 6 7 10.2067 3.16674 0
5 6 8 481.218 14.6169 0
5 6 8 482.748 16.1463 0
5 6 9 0.89131 0.98273 0
5 6 9 0.56374 1.45124 0
5 6 10 16.2921 1.69604 0
5 6 10 16.1447 5.94692 0
5 6 11 2.39941 2.22005 0
5 6 11 2.64308 3.23532 0
5 6 12 207.801 6.72519 0
5 6 12 213.71 8.47348 0
5 6 13 12.5693 4.11534 0
5 6 13 11.8633 3.88604 0
5 6 14 33.9202 1.84822 0
5 6 14 38.2375 5.43307 0
5 6 15 3.04434 1.32537 0
5 6 15 1.55831 1.59044 0
5 6 16 95.7786 4.34559 0
5 6 16 94.9611 6.36668 0
5 6 17 14.0174 2.04249 0
5 6 17 20.7308 4.07321 0
5 6 18 47.7258 2.34278 0
5 6 18 48.9105 2.57307 0
5 6 19 6.7375 3.6306 0
5 6 19 7.61865 3.8405 0
5 6 20 5.6002 3.47868 0
5 6 20 8.95604 4.2411 0
5 7 -14 1.58051 0.76979 0
-5 -7 14 3.06943 2.03459 0
5 7 -13 27.7021 1.96008 0
-5 -7 13 27.0515 2.50086 0
5 7 -12 52.6321 3.15431 0
5 7 -11 31.1669 4.8414 0
5 7 -10 0.51516 1.27055 0
5 7 -9 8.41443 4.73114 0
5 7 -8 125.862 7.67321 0
5 7 -7 120.873 5.4548 0
5 7 -6 67.246 3.25264 0
5 7 -5 21.2281 5.17592 0
5 7 -4 138.236 6.08088 0
5 7 -4 161.21 7.21483 0
5 7 -3 101.416 4.87623 0
5 7 -3 109.327 5.63859 0
5 7 -2 77.5966 3.80446 0
5 7 -2 81.4462 4.19919 0
5 7 -1 3.58256 2.22299 0
5 7 -1 2.61367 1.30488 0
5 7 0 352.939 13.1776 0
5 7 0 335.327 11.2005 0
5 7 1 220.366 9.39983 0
5 7 1 199.608 8.98777 0
5 7 2 95.309 5.32243 0
5 7 2 80.7187 4.46078 0
5 7 3 3.95678 1.82334 0
5 7 3 5.00283 2.18305 0
5 7 4 67.117 4.34034 0
5 7 4 64.5004 2.90865 0
5 7 5 207.599 9.0939 0
5 7 5 183.816 8.05773 0
5 7 6 194.905 9.36322 0
5 7 6 198.462 8.68531 0
5 7 7 3.33131 1.24586 0
5 7 7 3.65632 2.11641 0
5 7 8 205.356 6.32178 0
5 7 8 208.831 6.86067 0
5 7 9 92.6139 6.0855 0
5 7 9 88.9072 4.85704 0
5 7 10 170.892 8.08815 0
5 7 10 173.052 6.79364 0
5 7 11 6.58705 2.65088 0
5 7 11 5.7966 1.65479 0
5 7 12 87.4774 2.68399 0
5 7 12 94.4869 8.13146 0
5 7 13 12.3534 1.54781 0
5 7 13 13.3473 3.92054 0
5 7 14 127.402 3.22175 0
5 7 14 134.622 6.9722 0
5 7 15 1.00735 0.74321 0
5 7 15 1.57446 0.98404 0
5 7 16 15.9874 1.30366 0
5 7 16 21.6675 1.94695 0
5 7 17 3.81035 1.90862 0
5 7 17 5.6202 1.98671 0
5 7 18 71.5264 4.55578 0
5 7 18 72.5564 4.19149 0
5 7 19 0.35253 0.73155 0
5 7 19 1.46105 1.57313 0
5 7 20 2.99319 3.2137 0
5 7 20 3.71799 2.53874 0
5 8 -13 1.16949 1.71745 0
-5 -8 13 0.78805 0.97393 0
5 8 -12 17.0842 5.78912 0
5 8 -11 76.983 7.13261 0
5 8 -10 1.19653 1.58465 0
-5 -8 10 0.36057 0.72802 0
5 8 -9 0.23535 0.86617 0
5 8 -8 8.78885 5.25894 0
5 8 -7 277.046 5.76009 0
5 8 -6 32.1965 4.4633 0
5 8 -5 13.4217 6.59891 0
5 8 -4 17.0694 4.85255 0
5 8 -3 220.61 13.3998 0
5 8 -3 232.845 8.0509 0
5 8 -2 29.3878 2.22156 0
5 8 -2 35.9248 3.68692 0
5 8 -1 40.5082 4.06125 0
5 8 -1 33.1993 2.58696 0
5 8 0 10.4362 4.075 0
5 8 0 12.7008 3.86392 0
5 8 1 300.557 9.14147 0
5 8 1 248.604 7.87629 0
5 8 2 107.659 4.92898 0
5 8 2 107.659 4.62486 0
5 8 3 88.2565 7.11499 0
5 8 3 84.1934 4.26825 0
5 8 4 15.3113 4.13858 0
5 8 4 16.2454 5.02436 0
5 8 5 244.305 7.853 0
5 8 5 234.467 7.26025 0
5 8 6 37.3111 4.3143 0
5 8 6 36.8594 2.31614 0
5 8 7 67.4204 9.22505 0
5 8 7 76.0468 4.03156 0
5 8 8 6.56176 4.06529 0
5 8 8 3.73788 1.22436 0
5 8 9 159.301 7.05338 0
5 8 9 161.215 6.27406 0
5 8 10 150.678 6.09479 0
5 8 10 144.151 6.58794 0
5 8 11 70.4273 8.09506 0
5 8 11 65.6346 4.50737 0
5 8 12 0.75495 0.62087 0
5 8 12 0.93276 0.87737 0
5 8 13 49.1431 2.91835 0
5 8 13 55.0159 6.38042 0
5 8 14 97.6679 9.51922 0
5 8 14 98.1955 6.52117 0
5 8 15 31.4443 4.39203 0
5 8 15 32.3158 2.08305 0
5 8 16 1.18628 1.09701 0
5 8 16 1.10406 1.57622 0
5 8 17 10.3121 4.61531 0
5 8 17 15.7797 2.92407 0
5 8 18 38.5529 3.47996 0
5 8 18 41.9887 3.80587 0
5 8 19 21.297 1.93555 0
5 8 19 25.2673 2.41349 0
5 9 -12 1.6784 0.97461 0
5 9 -11 64.2239 4.68408 0
5 9 -10 3.40552 1.85697 0
5 9 -9 12.7699 6.68952 0
-5 -9 9 14.2637 2.06934 0
5 9 -8 0.22354 0.85415 0
5 9 -7 101.881 3.78592 0
5 9 -6 19.5886 4.35562 0
5 9 -5 75.3672 4.52677 0
5 9 -4 1.65233 1.78053 0
5 9 -3 120.374 5.40748 0
5 9 -3 117.16 5.04482 0
5 9 -2 17.9045 8.79729 0
5 9 -2 19.8372 6.31764 0
5 9 -1 211.457 7.57914 0
5 9 -1 207.73 7.18862 0
5 9 0 3.70252 2.9281 0
5 9 0 5.70899 2.48648 0
5 9 1 186.341 6.82782 0
5 9 1 173.879 11.4406 0
5 9 2 5.6012 3.409 0
5 9 2 8.51422 2.87004 0
5 9 3 342.332 15.0615 0
5 9 3 345.043 11.0522 0
5 9 4 5.95266 2.88139 0
5 9 4 5.43634 1.99199 0
5 9 5 34.322 9.28382 0
5 9 5 33.5376 8.07908 0
5 9 6 1.87221 1.89508 0
5 9 6 0.5914 0.69269 0
5 9 7 112.772 5.19189 0
5 9 7 119.776 4.74614 0
5 9 8 2.36156 2.39288 0
5 9 8 2.69355 1.05236 0
5 9 9 88.3383 3.37043 0
5 9 9 86.1259 2.80666 0
5 9 10 28.6572 3.83574 0
5 9 10 28.2934 5.59243 0
5 9 11 248.607 10.2591 0
5 9 11 228.538 10.857 0
5 9 12 6.58561 2.70866 0
5 9 12 6.45975 2.94943 0
5 9 13 16.2342 1.64925 0
5 9 13 15.6418 1.63621 0
5 9 14 32.8171 2.53204 0
5 9 14 29.1271 1.95556 0
5 9 15 123.572 5.94664 0
5 9 15 115.057 7.10996 0
5 9 16 5.55155 2.0973 0
5 9 16 6.14339 2.14681 0
5 9 17 17.1786 2.51702 0
5 9 17 17.4053 2.96183 0
5 9 18 3.69283 3.31018 0
5 9 18 5.51697 2.62588 0
5 9 19 69.8701 3.78101 0
5 9 19 69.5921 3.98425 0
5 10 -10 28.2402 2.71566 0
5 10 -9 26.9128 3.41148 0
-5 -10 9 27.743 1.69956 0
5 10 -8 5.23212 2.47644 0
5 10 -7 2.92835 1.72669 0
5 10 -6 28.1881 4.02653 0
5 10 -5 138.502 7.03013 0
5 10 -4 13.43 7.13083 0
5 10 -3 10.7416 3.51123 0
5 10 -2 61.2526 7.83733 0
5 10 -2 61.4844 4.47059 0
5 10 -1 119.59 7.31049 0
5 10 -1 133.25 7.93629 0
5 10 0 15.2161 5.30279 0
5 10 0 15.5564 5.22425 0
5 10 1 4.37643 2.3995 0
5 10 1 6.46269 1.84691 0
5 10 2 62.5441 3.59957 0
5 10 2 59.7099 3.39926 0
5 10 3 288.837 11.0281 0
5 10 3 264.788 10.2242 0
5 10 4 72.5149 4.87495 0
5 10 4 80.9405 3.80101 0
5 10 5 30.1905 10.1647 0
5 10 5 29.9319 4.08394 0
5 10 6 16.2615 7.24323 0
5 10 6 16.3808 4.61204 0
5 10 7 291.739 13.5215 0
5 10 7 317.969 12.4933 0
5 10 8 14.0843 4.94298 0
5 10 8 16.9991 4.4707 0
5 10 9 3.23675 1.50106 0
5 10 9 1.64523 1.30318 0
5 10 10 1.82744 1.58086 0
5 10 10 -0.16713 1.3151 0
5 10 11 168.413 8.18819 0
5 10 11 160.167 7.87346 0
5 10 12 9.26539 3.24963 0
5 10 12 8.42563 3.39214 0
5 10 13 9.07181 3.68344 0
5 10 13 10.4421 3.35124 0
5 10 14 0.95977 0.99956 0
5 10 14 0.77952 0.98317 0
5 10 15 76.6909 5.00767 0
5 10 15 73.9271 3.15613 0
5 10 16 0.20773 1.31921 0
5 10 16 1.03866 1.21855 0
5 10 17 0.70707 0.59703 0
5 10 17 0.22618 0.86193 0
5 10 18 0.48062 0.84883 0
5 10 18 0.58914 0.74224 0
5 11 -9 5.15615 5.01991 0
-5 -11 9 4.05112 3.02936 0
5 11 -8 51.0757 4.08574 0
-5 -11 8 46.2318 3.42062 0
5 11 -7 1.23126 0.94569 0
5 11 -6 44.0712 3.56441 0
5 11 -5 53.8586 2.8473 0
5 11 -4 62.1649 3.46626 0
5 11 -3 1.93766 1.14673 0
5 11 -2 33.4938 2.32086 0
5 11 -2 37.8876 5.01366 0
5 11 -1 17.0611 7.10178 0
5 11 -1 21.5883 5.74566 0
5 11 0 112.815 7.72428 0
5 11 0 124.742 6.47649 0
5 11 1 3.27095 1.84706 0
5 11 1 7.06622 2.07329 0
5 11 2 37.1277 6.13529 0
5 11 2 36.2744 2.19002 0
5 11 3 57.68 5.87949 0
5 11 3 46.458 6.74901 0
5 11 4 122.094 9.17604 0
5 11 4 127.047 3.99006 0
5 11 5 8.60519 2.95129 0
5 11 5 6.53656 2.10689 0
5 11 6 2.71937 2.34756 0
5 11 6 1.47639 0.86575 0
5 11 7 95.1682 4.86633 0
5 11 7 99.3294 4.54191 0
5 11 8 62.8292 7.48764 0
5 11 8 65.1933 3.84002 0
5 11 9 14.2219 6.99103 0
5 11 9 18.972 5.97758 0
5 11 10 0.19851 2.05041 0
5 11 10 0.6885 0.85434 0
5 11 11 79.7993 3.94751 0
5 11 11 76.8131 3.37661 0
5 11 12 51.0493 3.48627 0
5 11 12 46.7647 2.06673 0
5 11 13 35.9181 3.55463 0
5 11 13 29.8105 3.05497 0
5 11 14 1.55112 1.63912 0
5 11 15 24.2366 2.03555 0
5 11 15 24.8574 3.74803 0
5 11 16 29.5256 1.93415 0
5 11 16 28.1553 2.19284 0
5 11 17 39.2431 3.23097 0
5 11 17 31.7648 5.01844 0
5 12 -7 0.61994 1.17751 0
-5 -12 7 0.56513 1.09246 0
5 12 -6 1.46215 1.99867 0
-5 -12 6 1.93774 1.31476 0
5 12 -5 -0.12651 1.21203 0
5 12 -4 100.891 4.85225 0
5 12 -3 0.91321 1.79146 0
5 12 -2 0.73179 1.31543 0
5 12 -1 0.30824 0.87413 0
5 12 -1 0.25994 0.74531 0
5 12 0 127.801 6.4858 0
5 12 0 141.938 6.85239 0
5 12 1 0.05262 1.18167 0
5 12 1 1.04293 1.11947 0
5 12 2 1.80196 1.41877 0
5 12 2 0.75668 1.36299 0
5 12 3 5.32527 2.02483 0
5 12 3 4.62992 2.38474 0
5 12 4 208.292 10.1181 0
5 12 4 180.12 8.61957 0
5 12 5 2.22271 2.71501 0
5 12 5 1.68611 1.67873 0
5 12 6 11.0193 5.63712 0
5 12 6 9.24487 3.68863 0
5 12 7 1.28756 1.16852 0
5 12 7 3.2529 2.0771 0
5 12 8 128.498 9.1635 0
5 12 8 140.505 6.87622 0
5 12 9 8.48173 2.63949 0
5 12 10 9.79562 5.72411 0
5 12 10 15.0927 4.8101 0
5 12 11 6.09752 3.95009 0
5 12 11 8.43423 2.64316 0
5 12 12 90.7994 8.17212 0
5 12 12 98.0413 3.49262 0
5 12 13 19.7011 5.59731 0
5 12 13 19.5502 1.41102 0
5 12 14 27.6424 3.15116 0
5 12 14 26.3909 3.82201 0
5 12 15 -0.21543 1.34399 0
5 12 15 0.74512 0.88348 0
5 12 16 44.731 4.15979 0
5 12 16 40.3488 2.99626 0
5 13 -4 51.5268 4.06689 0
5 13 -3 13.1768 6.82859 0
5 13 -2 12.9003 2.27437 0
5 13 -1 1.76272 2.03151 0
5 13 0 50.734 9.23385 0
5 13 0 59.6655 4.43276 0
5 13 1 38.011 7.27313 0
5 13 1 38.6202 3.061 0
5 13 2 22.1436 8.80998 0
5 13 2 22.594 7.15563 0
5 13 3 4.78719 3.95791 0
5 13 3 5.00005 1.65634 0
5 13 4 88.1669 8.22454 0
5 13 4 89.7186 3.60506 0
5 13 5 1.76414 2.37824 0
5 13 6 49.5 6.69522 0
5 13 6 50.77 4.37807 0
5 13 7 0.29009 1.17366 0
5 13 7 0.22587 0.37867 0
5 13 8 36.0217 4.99747 0
5 13 8 39.5236 3.19277 0
5 13 9 3.5476 3.38114 0
5 13 9 6.76444 2.92283 0
5 13 10 49.0178 3.96369 0
5 13 10 55.3092 3.94672 0
5 13 11 3.12967 1.89067 0
5 13 11 1.65408 1.30541 0
5 13 12 44.6214 3.84863 0
5 13 12 48.6744 2.55766 0
5 13 13 0.45446 1.2532 0
5 13 13 -0.88924 0.86563 0
5 13 14 60.9159 3.96348 0
5 13 14 57.9294 4.23255 0
5 14 0 4.94833 4.13804 0
5 14 1 59.0676 7.2058 0
5 14 1 66.4888 3.80942 0
5 14 2 73.6231 6.83878 0
5 14 2 89.8548 4.84033 0
5 14 3 9.14258 7.09954 0
5 14 3 12.5089 5.94068 0
5 14 4 4.09497 2.69836 0
5 14 4 6.22217 2.43195 0
5 14 5 31.1859 2.40452 0
5 14 5 28.7125 5.77246 0
5 14 6 41.6118 2.64295 0
5 14 6 51.6195 2.9665 0
5 14 7 9.31684 4.76812 0
5 14 7 8.92638 4.8285 0
5 14 8 1.99195 1.93606 0
5 14 8 1.56881 0.98799 0
5 14 9 4.78276 2.71779 0
5 14 9 4.20686 2.47323 0
5 14 10 69.3586 5.99596 0
5 14 10 74.2377 4.06141 0
5 14 11 6.01994 3.27216 0
5 14 11 5.34301 3.04525 0
-6 11 8 39.7319 5.89118 0
6 -11 -8 42.7314 3.47642 0
-6 11 7 1.70769 1.9017 0
6 -11 -7 0.38994 1.51752 0
-6 11 6 53.4019 4.16884 0
6 -11 -6 57.53 3.80151 0
-6 11 5 0.26064 1.43449 0
6 -11 -5 0.40174 1.11114 0
-6 11 4 9.34091 5.50924 0
6 -11 -4 18.0242 1.76619 0
-6 11 3 1.83913 2.4778 0
6 -11 -3 3.22291 2.22745 0
-6 11 2 52.8445 6.11106 0
6 -11 -2 44.3897 3.53136 0
-6 11 1 1.56535 1.45786 0
6 -11 -1 1.13932 0.83837 0
-6 11 0 1.81553 1.87359 0
6 -11 0 1.56584 1.45165 0
-6 11 -1 0.40313 0.88269 0
6 -11 1 -0.02675 1.14444 0
-6 10 11 51.6311 4.03708 0
-6 10 10 27.4507 2.71186 0
6 -10 -10 16.4362 6.92507 0
-6 10 9 8.76276 4.43475 0
6 -10 -9 4.64823 4.07627 0
-6 10 8 6.18171 3.7082 0
6 -10 -8 4.33378 2.07223 0
-6 10 7 15.4826 8.84568 0
6 -10 -7 19.7262 5.80701 0
-6 10 6 34.0996 3.76805 0
6 -10 -6 39.6793 3.39167 0
-6 10 5 10.3818 4.94157 0
6 -10 -5 9.73912 4.26449 0
-6 10 4 -1.77018 1.95629 0
6 -10 -4 0.26185 0.67518 0
-6 10 3 20.186 10.8839 0
6 -10 -3 24.8664 2.05701 0
-6 10 2 72.7166 8.15329 0
6 -10 -2 73.1954 3.86972 0
-6 10 1 16.8648 5.90816 0
6 -10 -1 11.422 3.65436 0
-6 10 0 1.09055 1.45121 0
6 -10 0 0.66372 0.94756 0
-6 10 -1 1.81501 1.49496 0
6 -10 1 0.33479 1.57077 0
-6 10 -2 60.5325 4.33617 0
6 -10 2 63.2418 4.76461 0
-6 10 -3 7.1473 5.35896 0
6 -10 3 0.87187 1.42135 0
-6 10 -4 8.17792 4.17014 0
6 -10 4 6.18789 4.14242 0
-6 10 -5 0.56889 0.94108 0
6 -10 5 0.61903 1.14357 0
-6 9 13 76.4833 7.45846 0
-6 9 12 1.27625 1.38956 0
-6 9 11 9.7072 5.04075 0
-6 9 10 8.86569 2.61492 0
6 -9 -10 6.26562 3.25379 0
-6 9 9 94.9325 6.44428 0
6 -9 -9 94.1682 4.32822 0
-6 9 8 3.95909 1.61983 0
6 -9 -8 3.2553 1.36289 0
-6 9 7 25.0073 8.33196 0
6 -9 -7 28.7152 2.29266 0
-6 9 6 2.90976 1.52901 0
6 -9 -6 4.26038 2.2078 0
-6 9 5 115.121 6.07184 0
6 -9 -5 134.268 6.77803 0
-6 9 4 19.2149 8.41717 0
6 -9 -4 18.7298 6.52408 0
-6 9 3 2.22927 1.39032 0
6 -9 -3 1.21445 1.38557 0
-6 9 2 12.0276 5.79634 0
6 -9 -2 14.6013 5.84387 0
-6 9 1 85.0773 5.0161 0
6 -9 -1 76.5594 4.22346 0
-6 9 0 14.0155 6.65941 0
6 -9 0 8.25682 3.32149 0
-6 9 -1 1.07697 1.20667 0
6 -9 1 1.15803 1.42206 0
-6 9 -2 7.53862 4.09851 0
6 -9 2 9.90796 4.68173 0
-6 9 -3 69.6229 3.24508 0
6 -9 3 64.9775 3.32324 0
-6 9 -4 23.7989 4.79776 0
6 -9 4 25.0387 1.96887 0
-6 9 -5 2.68135 1.3237 0
6 -9 5 1.46795 1.79251 0
-6 9 -6 15.927 3.08716 0
6 -9 6 11.0784 7.08484 0
-6 9 -7 30.6142 2.7813 0
6 -9 7 25.1211 6.16654 0
-6 9 -8 21.4326 3.95765 0
6 -9 8 23.5312 2.29984 0
-6 8 14 1.35386 1.91732 0
-6 8 13 90.0933 6.11355 0
-6 8 12 1.88498 1.17307 0
-6 8 11 2.45712 1.46677 0
6 -8 -11 1.44251 2.00275 0
-6 8 10 4.42349 2.06019 0
6 -8 -10 3.48455 2.08526 0
-6 8 9 220.338 4.99071 0
6 -8 -9 210.867 10.4748 0
-6 8 8 0.85528 1.21044 0
6 -8 -8 0.33825 0.94467 0
-6 8 7 -0.3219 1.64663 0
6 -8 -7 1.00036 1.13655 0
-6 8 6 1.66345 1.40053 0
6 -8 -6 1.46121 1.56991 0
-6 8 5 174.247 11.8243 0
6 -8 -5 182.908 8.85603 0
-6 8 4 1.70843 2.16609 0
6 -8 -4 1.69282 1.61741 0
-6 8 3 11.017 4.52935 0
6 -8 -3 7.27314 2.74641 0
-6 8 2 0.70024 1.96171 0
6 -8 -2 0.86021 1.62864 0
-6 8 1 117.101 6.55236 0
6 -8 -1 99.6601 8.04735 0
-6 8 0 2.06026 1.63007 0
6 -8 0 1.9877 1.30354 0
-6 8 -1 24.441 7.50517 0
6 -8 1 25.4792 2.16077 0
-6 8 -2 0.59778 0.46718 0
6 -8 2 -0.72337 1.56981 0
-6 8 -3 108.214 5.85464 0
6 -8 3 112.132 6.18632 0
6 -8 4 7.9351 2.58836 0
-6 8 -5 61.9774 3.54309 0
6 -8 5 50.6223 3.22903 0
-6 8 -6 1.17242 1.14536 0
6 -8 6 -0.32692 1.28064 0
-6 8 -7 12.2712 6.01785 0
6 -8 7 9.98396 6.13123 0
-6 8 -8 2.84963 1.5349 0
6 -8 8 2.90834 2.9377 0
-6 8 -9 12.1019 1.44683 0
6 -8 9 7.75534 4.91802 0
-6 8 -10 0.94888 1.62004 0
6 -8 10 0.55737 0.87752 0
-6 7 15 2.5912 2.37855 0
-6 7 14 4.15927 1.95572 0
-6 7 13 51.1748 3.85412 0
-6 7 12 51.1113 3.05445 0
-6 7 11 40.1239 3.15291 0
6 -7 -11 40.1051 1.85935 0
-6 7 10 8.15835 2.38115 0
6 -7 -10 5.56008 3.38386 0
-6 7 9 162.759 8.03245 0
6 -7 -9 157.211 7.44804 0
-6 7 8 92.304 4.58028 0
6 -7 -8 94.1665 4.53843 0
-6 7 7 26.7159 7.63966 0
6 -7 -7 21.2725 7.59385 0
-6 7 6 3.12076 1.48989 0
6 -7 -6 1.98468 1.50095 0
-6 7 5 133.586 8.45934 0
6 -7 -5 120.792 7.36454 0
-6 7 4 45.6623 3.29782 0
6 -7 -4 42.9547 3.64737 0
-6 7 3 87.6589 5.56303 0
6 -7 -3 94.7535 6.12944 0
-6 7 2 1.80291 1.65508 0
6 -7 -2 1.23189 0.84638 0
-6 7 1 80.2491 6.60494 0
6 -7 -1 80.8453 5.40377 0
-6 7 0 15.2123 4.20583 0
6 -7 0 11.2366 7.45658 0
-6 7 -1 72.947 4.90212 0
6 -7 1 56.0692 4.19249 0
-6 7 -2 5.33182 1.80792 0
6 -7 2 3.88326 3.42919 0
-6 7 -3 36.7334 9.21872 0
6 -7 3 30.4797 2.97317 0
6 -7 3 29.8405 6.15034 0
-6 7 -4 4.66714 1.39617 0
6 -7 4 4.84166 2.63634 0
6 -7 4 2.49619 1.24545 0
-6 7 -5 110.045 6.09396 0
6 -7 5 116.6 5.64844 0
6 -7 5 116.996 6.4089 0
-6 7 -6 0.89715 1.56692 0
6 -7 6 0.43498 0.87244 0
6 -7 6 0.88974 1.77206 0
-6 7 -7 4.15756 2.54166 0
6 -7 7 3.71253 1.3922 0
6 -7 7 2.4655 1.37316 0
-6 7 -8 8.60653 5.49518 0
6 -7 8 11.4319 1.71124 0
6 -7 8 12.8869 6.09458 0
-6 7 -9 84.7117 3.59199 0
6 -7 9 73.3074 3.12185 0
6 -7 9 70.3503 3.26465 0
-6 7 -10 1.4759 1.63126 0
6 -7 10 0.31072 1.06441 0
6 -7 10 0.81038 1.24496 0
-6 7 -11 6.95147 4.07037 0
6 -7 11 4.655 3.56183 0
6 -7 11 4.4648 4.11042 0
-6 7 -12 2.02293 1.36452 0
6 -7 12 0.31107 1.52292 0
6 -7 12 0.14886 0.92749 0
-6 6 16 66.7169 4.04132 0
-6 6 15 6.75434 4.03819 0
-6 6 14 2.35813 1.39709 0
-6 6 13 8.63692 3.09192 0
-6 6 12 108.957 5.6962 0
-6 6 11 13.951 3.54509 0
6 -6 -11 7.35694 3.04898 0
-6 6 10 31.3677 5.62456 0
6 -6 -10 28.2323 3.17978 0
-6 6 9 19.0193 5.99451 0
6 -6 -9 16.9369 5.3502 0
-6 6 8 239.353 10.2744 0
6 -6 -8 242.312 10.1444 0
-6 6 7 46.7778 4.23053 0
6 -6 -7 40.4772 5.44341 0
-6 6 6 103.435 4.52366 0
6 -6 -6 96.254 5.48811 0
-6 6 5 34.9635 4.53541 0
6 -6 -5 28.7791 2.74624 0
-6 6 4 170.488 7.27203 0
6 -6 -4 155.814 7.43315 0
-6 6 3 113.522 8.8634 0
6 -6 -3 116.158 5.67596 0
-6 6 2 56.1703 3.3798 0
6 -6 -2 49.83 4.71344 0
-6 6 1 1.23602 1.95808 0
6 -6 -1 2.46888 1.46619 0
-6 6 0 79.5767 3.76205 0
6 -6 0 71.1152 1.00635 0
6 -6 0 74.5387 3.4987 0
-6 6 -1 38.8472 2.52017 0
6 -6 1 38.2179 1.22754 0
6 -6 1 42.8305 3.17114 0
-6 6 -2 113.155 8.37177 0
6 -6 2 115.103 4.44664 0
6 -6 2 107.744 5.41344 0
-6 6 -3 3.11059 1.86456 0
6 -6 3 6.92337 2.80281 0
6 -6 3 4.95722 3.81876 0
-6 6 -4 21.6484 7.43498 0
6 -6 4 19.5591 3.60369 0
6 -6 4 21.3654 6.84555 0
-6 6 -5 58.5339 4.18261 0
6 -6 5 63.5683 6.91347 0
6 -6 5 65.6936 4.36372 0
-6 6 -6 32.6416 2.87462 0
6 -6 6 39.4825 3.95805 0
6 -6 6 40.2828 3.0434 0
-6 6 -7 1.76961 1.25282 0
6 -6 7 1.25282 0.93179 0
6 -6 7 2.57611 1.43552 0
-6 6 -8 27.923 2.73138 0
6 -6 8 24.133 2.19709 0
6 -6 8 24.9469 2.00984 0
-6 6 -9 61.1065 5.77151 0
6 -6 9 57.2262 3.01454 0
6 -6 9 62.64 3.41521 0
-6 6 -10 17.9943 2.42717 0
6 -6 10 20.2848 5.28695 0
6 -6 10 20.9588 1.89893 0
-6 6 -11 2.92056 1.96008 0
6 -6 11 2.17086 1.86012 0
6 -6 11 1.04088 0.77143 0
-6 6 -12 0.53631 0.92205 0
6 -6 12 0.8086 0.80653 0
6 -6 12 0.74671 1.08501 0
-6 6 -13 57.5239 3.39827 0
6 -6 13 54.4408 4.17345 0
6 -6 13 55.0457 4.08536 0
-6 5 17 1.04674 0.95297 0
-6 5 16 84.0317 5.84155 0
-6 5 15 1.71899 1.60339 0
-6 5 14 40.9277 2.41415 0
-6 5 13 1.22812 0.87893 0
-6 5 12 88.1641 4.58174 0
-6 5 11 0.5428 0.84319 0
6 -5 -11 0.6403 0.55334 0
-6 5 10 196.557 10.1905 0
6 -5 -10 189.667 7.84655 0
-6 5 9 24.3021 2.47051 0
6 -5 -9 25.1488 1.77459 0
-6 5 8 159.035 10.3838 0
6 -5 -8 159.639 5.72938 0
-6 5 7 6.60101 2.96657 0
6 -5 -7 6.71284 3.03491 0
-6 5 6 114.035 5.20995 0
6 -5 -6 101.637 4.40521 0
-6 5 5 2.64083 2.33752 0
6 -5 -5 2.76941 1.72759 0
-6 5 4 165.543 6.71982 0
6 -5 -4 150.467 5.97767 0
-6 5 3 6.26453 2.50787 0
6 -5 -3 8.52539 2.76518 0
-6 5 2 375.224 11.1822 0
6 -5 -2 361.918 11.6188 0
-6 5 1 0.66014 1.77544 0
6 -5 -1 -0.07296 1.01801 0
-6 5 0 54.9978 4.11144 0
6 -5 0 51.54 1.79119 0
6 -5 0 49.8317 1.76353 0
6 -5 0 47.9368 3.13977 0
-6 5 -1 1.44183 2.02949 0
6 -5 1 2.9554 0.75166 0
6 -5 1 2.92465 1.12749 0
6 -5 1 2.11149 2.36432 0
-6 5 -2 304.499 10.2984 0
6 -5 2 305.682 8.70217 0
6 -5 2 299.361 8.71893 0
6 -5 2 298.674 10.0637 0
-6 5 -3 32.3211 4.67621 0
6 -5 3 35.3186 1.67218 0
6 -5 3 36.4967 2.99421 0
-6 5 -4 0.99804 1.84987 0
6 -5 4 0.69608 0.97897 0
6 -5 4 1.32542 1.22689 0
-6 5 -5 32.2237 5.90194 0
6 -5 5 30.6882 1.87397 0
6 -5 5 34.47 2.53863 0
-6 5 -6 154.778 6.1578 0
6 -5 6 150.532 6.65138 0
6 -5 6 147.303 6.47298 0
-6 5 -7 11.4771 2.95388 0
6 -5 7 10.7028 5.25963 0
6 -5 7 10.8376 4.25301 0
-6 5 -8 3.80569 2.15556 0
6 -5 8 4.31385 1.68565 0
6 -5 8 4.91489 2.88774 0
-6 5 -9 4.10562 1.63861 0
6 -5 9 1.55032 1.05692 0
6 -5 9 1.34517 1.153 0
-6 5 -10 106.564 5.54022 0
6 -5 10 104.283 5.51064 0
6 -5 10 101.467 3.93758 0
-6 5 -11 15.262 4.1713 0
6 -5 11 13.7007 6.29908 0
6 -5 11 13.0335 1.37171 0
-6 5 -12 2.15933 1.24312 0
6 -5 12 3.7338 2.29054 0
6 -5 12 1.21198 1.06521 0
-6 5 -13 8.93447 3.83207 0
6 -5 13 9.0377 4.6284 0
6 -5 13 6.86992 4.70845 0
-6 5 -14 55.2039 4.53046 0
6 -5 14 58.2568 4.41496 0
6 -5 14 56.1399 3.95295 0
-6 4 17 20.2613 2.64176 0
-6 4 15 20.8011 2.2041 0
-6 4 14 84.0716 5.71992 0
-6 4 13 20.233 2.17769 0
-6 4 12 1.79679 1.25357 0
-6 4 11 52.8346 4.99039 0
6 -4 -11 51.936 2.95 0
-6 4 10 278.068 10.5363 0
6 -4 -10 266.207 10.5917 0
-6 4 9 11.5677 4.60035 0
6 -4 -9 9.69294 4.06557 0
-6 4 8 43.8128 5.53648 0
6 -4 -8 37.6671 4.24834 0
-6 4 7 21.9531 5.09844 0
6 -4 -7 16.2654 2.07248 0
-6 4 6 593.335 16.0033 0
6 -4 -6 582.4 15.8103 0
-6 4 5 56.3128 3.818 0
6 -4 -5 49.1732 2.99297 0
-6 4 4 4.62214 2.30003 0
6 -4 -4 1.96514 1.40578 0
-6 4 3 38.3156 5.41396 0
6 -4 -3 39.1289 7.31525 0
-6 4 2 537.756 14.3515 0
6 -4 -2 549.628 15.0163 0
-6 4 1 31.9794 9.04251 0
6 -4 -1 33.9748 8.31972 0
-6 4 0 1.51843 1.10431 0
6 -4 0 0.54832 0.28375 0
6 -4 0 0.61734 0.24157 0
6 -4 0 0.97394 1.64113 0
-6 4 -1 30.7148 2.90771 0
6 -4 1 26.6394 2.28598 0
6 -4 1 21.4496 4.66674 0
-6 4 -2 316.331 9.60134 0
6 -4 2 294.887 8.01413 0
6 -4 2 296.199 9.41548 0
-6 4 -3 16.3866 4.90874 0
6 -4 3 16.7158 2.37298 0
6 -4 3 17.8806 6.54017 0
-6 4 -4 15.4672 5.22567 0
6 -4 4 11.0635 4.74298 0
6 -4 4 12.2457 7.3873 0
-6 4 -5 0.42068 0.88512 0
6 -4 5 -0.01683 0.8481 0
6 -4 5 0.72694 2.11351 0
-6 4 -6 264.628 8.4309 0
6 -4 6 267.797 8.59229 0
6 -4 6 258.33 8.77304 0
-6 4 -7 6.08081 2.86883 0
6 -4 7 7.89856 3.2738 0
6 -4 7 5.08537 1.72192 0
-6 4 -8 24.8537 2.10273 0
6 -4 8 26.3108 2.94382 0
6 -4 8 23.3907 6.75243 0
-6 4 -9 1.45047 1.26952 0
6 -4 9 0.71251 1.34586 0
6 -4 9 0.66727 1.36565 0
-6 4 -10 131.556 7.74092 0
6 -4 10 139.598 7.09963 0
6 -4 10 129.172 7.43363 0
-6 4 -11 0.67118 0.49203 0
6 -4 11 -0.12364 0.53745 0
6 -4 11 1.32722 1.33984 0
-6 4 -12 32.2177 2.69355 0
6 -4 12 34.8349 2.88186 0
6 -4 12 35.0256 2.22396 0
-6 4 -13 2.75762 2.16686 0
6 -4 13 3.35739 2.19392 0
6 -4 13 2.78242 1.95265 0
-6 4 -14 58.7116 4.02152 0
6 -4 14 56.8809 4.91661 0
6 -4 14 50.3787 3.63577 0
-6 4 -15 0.22087 0.6345 0
6 -4 15 0.21685 1.3955 0
6 -4 15 0.52607 0.77505 0
-6 4 -16 49.1707 3.54926 0
6 -4 16 45.5855 3.8504 0
-6 3 17 63.2935 4.45838 0
-6 3 16 0.80055 1.03201 0
-6 3 15 39.2207 3.30802 0
-6 3 14 34.4211 3.91936 0
-6 3 13 106.266 7.45132 0
-6 3 12 8.11046 4.23895 0
-6 3 12 6.17876 2.97456 0
-6 3 11 30.5186 2.51137 0
-6 3 11 29.806 1.4051 0
6 -3 -11 29.217 1.24419 0
-6 3 10 52.3815 2.56813 0
-6 3 10 52.2459 1.73018 0
6 -3 -10 52.3785 1.76936 0
-6 3 9 303.877 9.592 0
-6 3 9 309.042 8.81881 0
6 -3 -9 311.181 9.47792 0
-6 3 8 4.82748 3.14603 0
-6 3 8 3.5764 1.68812 0
6 -3 -8 4.68736 2.67897 0
-6 3 7 25.3773 9.42915 0
-6 3 7 22.0528 1.18654 0
-6 3 7 19.5113 0.99347 0
6 -3 -7 23.5097 1.69907 0
-6 3 6 305.506 8.92912 0
-6 3 6 301.214 7.21623 0
-6 3 6 295.302 7.13887 0
6 -3 -6 291.607 8.30659 0
-6 3 5 135.901 9.22806 0
6 -3 -5 132.909 4.81598 0
-6 3 4 100.794 5.09166 0
6 -3 -4 86.7096 4.62987 0
-6 3 3 3.99089 1.93646 0
6 -3 -3 2.94537 1.89984 0
-6 3 2 237.979 9.90927 0
6 -3 -2 224.909 11.4134 0
-6 3 1 225.004 9.46301 0
6 -3 -1 208.299 9.39634 0
-6 3 0 24.8889 2.65938 0
6 -3 0 25.981 1.24215 0
6 -3 0 27.319 2.71773 0
-6 3 -1 4.43007 2.43633 0
6 -3 1 5.99362 1.81174 0
6 -3 1 4.42179 2.43219 0
-6 3 -2 39.1561 4.54308 0
6 -3 2 41.177 3.67521 0
6 -3 2 37.4366 3.30443 0
-6 3 -3 182.844 8.31691 0
6 -3 3 202.378 8.16932 0
6 -3 3 201.692 9.7968 0
-6 3 -4 104.645 5.26815 0
6 -3 4 106.34 3.79384 0
6 -3 4 107.93 5.56919 0
-6 3 -5 0.79501 1.23134 0
6 -3 5 0.84678 1.19066 0
6 -3 5 0.78761 1.91542 0
-6 3 -6 116.186 8.78092 0
6 -3 6 115.238 5.16774 0
6 -3 6 114.134 5.83397 0
-6 3 -7 86.0788 3.53482 0
6 -3 7 82.0347 6.05108 0
6 -3 7 81.7432 4.76782 0
-6 3 -8 116.314 4.95806 0
6 -3 8 108.072 5.73455 0
6 -3 8 111.235 5.19673 0
-6 3 -9 16.8184 3.99805 0
6 -3 9 16.6641 4.19175 0
6 -3 9 16.198 5.63843 0
-6 3 -10 41.4259 5.92788 0
6 -3 10 42.4244 2.48774 0
6 -3 10 40.7938 2.73594 0
-6 3 -11 17.2146 2.73195 0
6 -3 11 19.7917 1.66741 0
6 -3 11 19.0177 1.61038 0
-6 3 -12 73.0173 4.87309 0
6 -3 12 74.9394 4.01028 0
6 -3 12 76.3791 4.12515 0
-6 3 -13 4.44336 2.72847 0
6 -3 13 4.30166 1.52756 0
6 -3 13 3.28809 1.43389 0
-6 3 -14 5.66294 3.84926 0
6 -3 14 7.92948 4.42892 0
6 -3 14 7.97024 1.81821 0
-6 3 -15 20.7438 1.47713 0
6 -3 15 20.9445 2.06841 0
6 -3 15 20.7972 1.80372 0
-6 3 -16 83.8178 5.5143 0
6 -3 16 78.2092 5.36787 0
-6 2 18 2.68444 2.63711 0
-6 2 17 133.413 3.90933 0
-6 2 16 0.79939 1.35811 0
-6 2 15 1.13933 1.1576 0
-6 2 15 0.51601 0.67127 0
-6 2 14 1.0396 0.99588 0
-6 2 14 0.56838 0.90601 0
-6 2 13 164.226 8.12296 0
-6 2 13 157.445 7.33035 0
-6 2 12 -0.04978 1.52672 0
-6 2 12 0.28211 1.051 0
-6 2 11 0.80734 0.99523 0
-6 2 11 0.7134 0.48147 0
-6 2 10 9.88394 3.19456 0
-6 2 10 7.00822 3.2348 0
6 -2 -10 8.69217 2.35258 0
-6 2 9 659.861 8.0168 0
-6 2 9 631.148 18.1009 0
6 -2 -9 651.86 5.53018 0
-6 2 8 41.5524 8.53631 0
-6 2 8 34.6455 1.3237 0
-6 2 8 37.6543 1.93517 0
6 -2 -8 39.4331 2.68215 0
-6 2 7 8.07244 3.54642 0
-6 2 7 5.49088 2.37901 0
-6 2 7 6.47784 2.70309 0
6 -2 -7 5.72289 1.46939 0
-6 2 6 64.4507 3.94644 0
-6 2 6 69.7282 2.36241 0
-6 2 6 69.7087 2.60761 0
6 -2 -6 66.0697 3.02794 0
-6 2 5 612.017 18.3313 0
-6 2 5 589.714 16.6682 0
-6 2 5 605.619 17.232 0
6 -2 -5 626.141 18.7005 0
-6 2 4 53.2505 6.17982 0
-6 2 4 47.8054 2.37621 0
6 -2 -4 50.9625 6.56605 0
-6 2 3 51.0472 3.58044 0
-6 2 3 47.2981 2.44317 0
6 -2 -3 48.8202 3.69287 0
-6 2 2 11.6095 3.90963 0
6 -2 -2 10.3358 1.16316 0
-6 2 2 9.97752 2.14499 0
6 -2 -2 4.93569 5.22316 0
-6 2 1 389.31 14.7158 0
6 -2 -1 397.869 14.2943 0
6 -2 -1 414.652 14.3526 0
-6 2 1 391.875 13.5814 0
6 -2 -1 411.769 15.5139 0
-6 2 0 18.1041 7.01749 0
6 -2 0 11.6223 3.96112 0
6 -2 0 12.8781 2.1156 0
-6 2 0 13.0852 1.47192 0
6 -2 0 17.546 6.20726 0
-6 2 -1 217.679 7.99822 0
6 -2 1 222.063 7.38091 0
6 -2 1 218.873 7.09462 0
-6 2 -1 204.769 6.63387 0
6 -2 1 222.21 12.7757 0
-6 2 -2 8.11863 3.62785 0
6 -2 2 4.82099 1.99003 0
6 -2 2 7.33935 2.28502 0
-6 2 -2 5.65311 2.02966 0
6 -2 2 8.76583 2.07809 0
-6 2 -3 237.476 8.27149 0
6 -2 3 252.025 9.18672 0
6 -2 3 240.462 8.23711 0
-6 2 -3 241.764 7.96641 0
6 -2 3 243.551 9.07501 0
-6 2 -4 35.8541 2.57053 0
6 -2 4 36.4457 3.31627 0
6 -2 4 35.2583 2.58719 0
-6 2 -4 33.4544 2.75384 0
6 -2 4 35.8999 4.10368 0
-6 2 -5 67.4723 4.10691 0
6 -2 5 61.3301 2.58643 0
6 -2 5 69.037 6.04974 0
-6 2 -6 6.49189 1.89107 0
6 -2 6 3.73985 1.55667 0
6 -2 6 3.70526 1.66045 0
-6 2 -7 174.175 6.88576 0
6 -2 7 168.278 9.05505 0
6 -2 7 178.972 8.28835 0
-6 2 -8 39.4741 1.79911 0
6 -2 8 39.9984 2.72779 0
6 -2 8 48.4559 5.06491 0
-6 2 -9 128.051 5.53692 0
6 -2 9 141.536 5.73733 0
6 -2 9 132.33 5.77935 0
-6 2 -10 0.99637 1.01471 0
6 -2 10 0.59293 1.88272 0
6 -2 10 1.1278 0.92302 0
-6 2 -11 60.7347 3.65011 0
6 -2 11 62.6177 4.65404 0
6 -2 11 61.5964 3.96058 0
-6 2 -12 46.4719 2.76184 0
6 -2 12 45.1564 3.63615 0
6 -2 12 48.1988 3.06417 0
-6 2 -13 61.3661 4.49792 0
6 -2 13 62.0958 3.21207 0
6 -2 13 57.432 2.7809 0
-6 2 -14 0.2609 0.54574 0
6 -2 14 2.15185 1.7976 0
6 -2 14 0.41888 0.66542 0
-6 2 -15 24.6286 1.77414 0
6 -2 15 20.6841 2.1794 0
6 -2 15 22.4695 2.40005 0
-6 2 -16 47.378 3.36131 0
6 -2 16 51.9119 3.8672 0
6 -2 16 58.3128 3.92858 0
-6 2 -17 48.2404 3.99703 0
6 -2 17 48.8321 3.86399 0
-6 1 17 57.1097 4.16591 0
-6 1 17 58.9162 4.09527 0
-6 1 16 21.4815 4.11522 0
-6 1 16 20.9469 3.64744 0
-6 1 15 26.9018 2.99087 0
-6 1 15 24.5646 1.75691 0
-6 1 14 3.76316 1.8877 0
-6 1 14 2.98315 1.93171 0
-6 1 13 100.467 4.99539 0
-6 1 13 105.813 3.21786 0
-6 1 12 81.2928 7.90985 0
-6 1 12 76.3863 4.87858 0
-6 1 11 16.419 4.66101 0
-6 1 11 17.5033 1.63091 0
-6 1 10 2.30898 1.45648 0
-6 1 10 3.26214 1.20797 0
-6 1 9 413.554 12.7835 0
-6 1 9 404.264 11.9402 0
6 -1 -9 402.744 11.455 0
-6 1 8 5.60324 2.59105 0
-6 1 8 4.76097 1.59532 0
6 -1 -8 5.51759 1.79875 0
-6 1 8 5.16069 1.94151 0
-6 1 7 292.38 8.7561 0
-6 1 7 269.354 7.23016 0
-6 1 7 290.987 7.92273 0
6 -1 -7 278.616 7.64875 0
-6 1 7 290.553 7.87707 0
-6 1 6 24.2703 2.63414 0
-6 1 6 22.4565 1.19843 0
6 -1 -6 21.2983 2.78696 0
-6 1 5 261.4 10.7859 0
-6 1 5 251.972 9.81489 0
6 -1 -5 249.197 10.21 0
-6 1 4 58.4566 4.71354 0
-6 1 4 55.8784 2.81497 0
6 -1 -4 55.1813 5.64747 0
-6 1 3 522.369 18.6227 0
-6 1 3 524.904 18.1676 0
6 -1 -3 524.836 18.9823 0
-6 1 2 0.6984 0.46404 0
-6 1 2 1.64523 1.49993 0
6 -1 -2 0.56247 0.52497 0
-6 1 2 0.16874 0.58122 0
6 -1 -2 0.32811 1.34525 0
-6 1 1 345.655 11.1765 0
6 -1 -1 336.008 10.8754 0
6 -1 -1 345.177 10.9327 0
-6 1 1 336.835 10.6889 0
6 -1 -1 337.829 12.625 0
-6 1 0 2.8445 1.64402 0
6 -1 0 3.78463 1.03173 0
6 -1 0 2.95056 1.00281 0
-6 1 0 1.23904 1.52349 0
6 -1 0 3.20609 3.05181 0
-6 1 -1 514.387 16.1805 0
6 -1 1 567.782 17.2137 0
6 -1 1 531.909 16.1661 0
-6 1 -1 525.676 16.0651 0
6 -1 1 561.574 18.0883 0
-6 1 -2 5.204 1.86094 0
6 -1 2 4.22381 1.78991 0
6 -1 2 6.78556 3.01633 0
-6 1 -2 5.95216 1.79464 0
6 -1 2 4.21907 3.51353 0
-6 1 -3 127.188 5.12022 0
6 -1 3 123.319 4.31225 0
6 -1 3 122.622 4.73239 0
-6 1 -3 116.828 2.8579 0
6 -1 3 117.229 4.26608 0
-6 1 -4 19.1793 5.47089 0
6 -1 4 20.2592 3.47174 0
6 -1 4 19.4872 2.08394 0
-6 1 -4 17.5684 1.58861 0
6 -1 4 19.8844 7.94305 0
-6 1 -5 456.225 16.1194 0
6 -1 5 481.088 17.3409 0
6 -1 5 455.385 17.0752 0
6 -1 5 460.991 17.8724 0
-6 1 -6 4.29146 1.83392 0
6 -1 6 2.88832 1.88726 0
6 -1 6 3.48732 1.77648 0
6 -1 6 4.86994 3.3109 0
-6 1 -7 41.1955 2.19949 0
6 -1 7 37.4853 3.67887 0
6 -1 7 37.9667 3.67887 0
6 -1 7 38.6868 2.73176 0
-6 1 -8 1.35949 1.77101 0
6 -1 8 1.15005 0.67974 0
6 -1 8 1.70487 1.41093 0
-6 1 -9 226.266 6.79235 0
6 -1 9 231.611 7.59145 0
6 -1 9 231.384 7.86355 0
-6 1 -10 6.56001 2.25025 0
6 -1 10 4.69773 3.06177 0
6 -1 10 6.0815 2.97771 0
-6 1 -11 20.4287 1.5384 0
6 -1 11 21.8391 7.71636 0
6 -1 11 16.9802 1.75164 0
-6 1 -12 6.36167 3.82277 0
6 -1 12 6.78867 3.7593 0
6 -1 12 7.83308 4.1661 0
-6 1 -13 229.788 11.3452 0
6 -1 13 225.139 11.5096 0
6 -1 13 237.602 11.8223 0
6 -1 14 1.89691 1.08827 0
6 -1 14 1.29736 0.8162 0
-6 1 -15 1.20821 1.05954 0
6 -1 15 1.59285 2.76802 0
6 -1 15 1.07606 0.93919 0
-6 1 -16 2.72519 1.64975 0
6 -1 16 2.40366 2.54114 0
6 -1 16 2.52119 2.62319 0
-6 1 -17 113.736 7.67037 0
6 -1 17 114.074 7.60593 0
-6 1 -18 6.60271 0.87283 0
6 -1 18 3.71342 4.51026 0
-6 0 17 5.03922 3.73179 0
-6 0 17 4.66624 3.63353 0
-6 0 16 89.1779 5.53651 0
-6 0 16 87.371 4.04896 0
-6 0 15 36.5291 2.45735 0
-6 0 15 36.9402 2.20613 0
-6 0 14 13.2902 4.80622 0
-6 0 14 7.14109 1.83767 0
-6 0 13 21.3319 5.58083 0
-6 0 13 18.6002 3.98146 0
-6 0 12 125.234 7.45808 0
-6 0 12 120.742 8.38998 0
-6 0 11 52.0788 2.71938 0
-6 0 11 53.6467 2.16301 0
-6 0 10 8.66849 2.05896 0
-6 0 10 7.54427 2.48213 0
-6 0 9 26.4222 6.20033 0
-6 0 9 22.8671 2.25773 0
-6 0 8 139.553 6.33775 0
-6 0 8 145.494 5.58746 0
-6 0 7 349.721 10.0302 0
6 0 -7 349.66 9.18053 0
-6 0 7 358.195 9.4084 0
-6 0 6 75.1176 4.33873 0
6 0 -6 74.8686 4.52648 0
-6 0 6 67.6523 3.95098 0
-6 0 5 13.7717 4.69354 0
-6 0 5 16.0284 1.70323 0
6 0 -5 13.1883 4.30742 0
-6 0 5 13.5315 1.62601 0
-6 0 4 83.0463 6.13357 0
-6 0 4 83.4201 4.17461 0
6 0 -4 78.2908 4.54839 0
-6 0 3 175.034 6.2991 0
-6 0 3 180.378 6.48727 0
6 0 -3 185.026 6.37907 0
-6 0 3 171.666 5.76751 0
6 0 -3 174.846 6.65192 0
-6 0 2 21.0284 2.54018 0
-6 0 2 25.5335 5.14375 0
6 0 -2 20.8773 2.34028 0
-6 0 2 21.9743 2.40367 0
6 0 -2 23.5442 5.05599 0
-6 0 1 7.01685 2.77073 0
-6 0 1 6.32667 2.69571 0
6 0 -1 8.67229 2.37563 0
-6 0 1 8.09714 2.2756 0
6 0 -1 3.33588 2.07555 0
-6 0 0 200.631 6.70206 0
-6 0 0 203.627 6.93526 0
6 0 0 205.995 7.46758 0
-6 0 0 202.081 6.86936 0
6 0 0 196.976 7.60446 0
-6 0 -1 561.125 17.0385 0
6 0 1 579.98 17.6474 0
6 0 1 542.401 16.6225 0
-6 0 -1 553.062 17.1705 0
6 0 1 589.97 18.9413 0
-6 0 -2 267.107 8.62411 0
6 0 2 276.563 8.73442 0
6 0 2 255.8 8.5489 0
-6 0 -2 262.028 8.78456 0
6 0 2 260.238 9.61188 0
-6 0 -3 2.5554 0.84201 0
6 0 3 2.78059 0.70494 0
6 0 3 2.83933 1.92879 0
-6 0 -3 2.18335 1.60569 0
6 0 3 2.9764 1.35603 0
-6 0 -4 50.0985 1.4472 0
6 0 4 54.1232 1.47557 0
6 0 4 51.6592 2.70994 0
6 0 4 49.635 2.95587 0
-6 0 -5 715.589 24.7777 0
6 0 5 760.867 26.5268 0
6 0 5 706.087 25.0133 0
6 0 5 683.271 24.6599 0
-6 0 -6 30.2972 1.87009 0
6 0 6 31.9902 2.3063 0
6 0 6 33.0742 2.47474 0
6 0 6 29.8912 2.93254 0
-6 0 -7 42.9576 2.59266 0
6 0 7 42.9207 3.76367 0
6 0 7 48.9236 3.94857 0
6 0 7 43.0645 3.41442 0
-6 0 -8 0.38193 0.69761 0
6 0 8 1.81611 1.25881 0
6 0 8 1.403 0.77555 0
6 0 8 0.90805 1.71089 0
-6 0 -9 199.392 5.97776 0
6 0 9 202.858 6.96799 0
6 0 9 193.058 7.10633 0
-6 0 -10 40.3472 3.17582 0
6 0 10 43.8664 2.83579 0
6 0 10 43.7134 2.77119 0
-6 0 -11 25.2384 3.41714 0
6 0 11 23.7926 2.10188 0
6 0 11 25.3435 5.51583 0
-6 0 -12 2.29652 0.75851 0
6 0 12 1.57998 1.88579 0
6 0 12 5.73531 2.32051 0
-6 0 -13 188.582 7.9867 0
6 0 13 173.168 7.81436 0
6 0 13 194.334 8.43025 0
-6 0 -14 20.3913 3.86072 0
6 0 14 12.4144 6.5311 0
6 0 14 19.0087 3.75802 0
-6 0 -15 28.3227 5.91931 0
6 0 15 31.2639 2.2969 0
6 0 15 32.1935 2.39035 0
-6 0 -16 0.53437 0.4192 0
6 0 16 0.54358 1.82653 0
6 0 16 -0.12208 0.70942 0
-6 0 -17 81.3359 3.68352 0
6 0 17 81.2213 4.20912 0
-6 0 -18 2.57531 1.63461 0
6 0 18 21.2539 1.88142 0
6 0 19 24.0489 2.78946 0
-6 -1 17 1.14838 1.33812 0
-6 -1 17 0.83213 0.85782 0
-6 -1 16 55.2426 3.93202 0
6 1 -15 -0.0248 1.22193 0
-6 -1 15 0.59969 0.63802 0
6 1 -14 125.513 6.47375 0
-6 -1 14 125.477 6.29332 0
6 1 -13 1.61247 1.39868 0
-6 -1 13 1.4811 1.70263 0
6 1 -12 95.3023 6.79526 0
-6 -1 12 108.442 6.55751 0
6 1 -11 0.82863 0.83748 0
-6 -1 11 1.22968 1.38007 0
6 1 -10 196.288 6.92408 0
-6 -1 10 219.192 7.59082 0
6 1 -9 49.4773 5.95318 0
6 1 -8 258.543 7.98048 0
-6 -1 8 259.593 7.05593 0
6 1 -7 135.73 4.94942 0
-6 -1 7 143.783 4.38795 0
6 1 -6 339.115 10.8129 0
-6 -1 6 332.987 10.1524 0
6 1 -5 7.81805 3.35673 0
6 1 -5 11.639 3.8467 0
-6 -1 5 8.09312 3.47278 0
-6 -1 4 60.0396 3.60926 0
6 1 -4 73.6433 5.89618 0
-6 -1 4 63.9069 3.47793 0
6 1 -4 65.741 3.93531 0
-6 -1 3 75.1373 3.8443 0
-6 -1 3 78.6252 4.06764 0
6 1 -3 85.9194 4.44304 0
-6 -1 3 78.6822 3.73025 0
6 1 -3 82.3507 4.50957 0
-6 -1 2 741.626 22.5236 0
-6 -1 2 691.961 21.0191 0
6 1 -2 610.731 18.9305 0
-6 -1 2 682.612 20.8261 0
6 1 -2 720.657 22.4147 0
-6 -1 1 6.09755 2.4033 0
-6 -1 1 10.052 3.83202 0
6 1 -1 8.61311 2.53597 0
-6 -1 1 7.5977 2.74007 0
6 1 -1 8.61311 3.69425 0
-6 -1 0 65.0107 2.15715 0
-6 -1 0 62.9731 1.72572 0
6 1 0 68.6129 2.70813 0
-6 -1 0 66.1543 2.54699 0
6 1 0 64.7041 4.67815 0
-6 -1 -1 102.067 4.31704 0
-6 -1 -1 101.111 4.41634 0
6 1 1 101.079 4.95989 0
-6 -1 -1 104.362 5.26303 0
6 1 1 94.792 4.95989 0
-6 -1 -2 830.301 24.3971 0
-6 -1 -2 792.821 23.3134 0
6 1 2 810.54 24.6201 0
-6 -1 -2 810.924 25.1127 0
6 1 2 797.379 25.7661 0
6 1 3 51.1563 2.16855 0
-6 -1 -3 47.9416 4.82971 0
6 1 3 46.4485 3.01159 0
-6 -1 -4 30.6758 0.94387 0
6 1 4 32.4553 0.65874 0
6 1 4 32.5389 2.05488 0
6 1 4 39.9965 8.71605 0
-6 -1 -5 67.2628 2.90767 0
6 1 5 66.4617 4.03869 0
6 1 5 69.327 5.39592 0
-6 -1 -6 200.763 6.53686 0
6 1 6 203.114 6.50545 0
6 1 6 190.242 7.35341 0
6 1 6 197.326 7.53287 0
-6 -1 -7 1.88141 1.05564 0
6 1 7 3.38825 1.17056 0
6 1 7 0.86835 2.28579 0
6 1 7 2.89448 2.24748 0
-6 -1 -8 36.8328 2.26999 0
6 1 8 38.816 3.25958 0
6 1 8 47.173 8.4539 0
6 1 8 45.9612 5.40031 0
-6 -1 -9 110.159 4.65864 0
6 1 9 111.705 4.02457 0
6 1 9 111.45 4.98516 0
6 1 9 108.379 5.80906 0
-6 -1 -10 353.531 9.77127 0
6 1 10 334.745 10.355 0
6 1 10 330.822 9.8774 0
-6 -1 -11 29.0543 2.04701 0
6 1 11 29.0444 2.67102 0
6 1 11 25.0725 3.17947 0
-6 -1 -12 1.4515 1.39889 0
6 1 12 1.32461 1.05226 0
6 1 12 1.52578 2.00549 0
-6 -1 -13 58.9745 3.27506 0
6 1 13 63.6536 3.58739 0
6 1 13 69.7075 3.67204 0
-6 -1 -14 55.7966 3.11634 0
6 1 14 53.7446 3.51748 0
6 1 14 59.1204 3.74124 0
-6 -1 -15 94.4466 4.86298 0
6 1 15 85.9059 4.47639 0
6 1 15 99.6632 4.73073 0
-6 -1 -16 1.7992 1.10044 0
6 1 16 2.76654 2.0963 0
6 1 16 2.06778 1.52588 0
-6 -1 -17 2.50744 2.50521 0
6 1 17 4.08545 1.92794 0
-6 -1 -18 43.681 2.29362 0
6 1 18 39.411 2.71728 0
6 1 19 53.3391 4.32627 0
6 2 -17 5.24849 1.81976 0
-6 -2 17 3.6898 1.66312 0
6 2 -16 14.2923 1.70417 0
-6 -2 16 10.2581 5.93879 0
6 2 -15 14.0505 2.0665 0
-6 -2 15 10.9463 7.16873 0
6 2 -14 140.656 6.98634 0
-6 -2 14 137.075 7.98405 0
6 2 -13 12.9244 5.22766 0
-6 -2 13 10.1659 4.85515 0
6 2 -12 14.5812 5.38863 0
-6 -2 12 11.6844 5.42913 0
6 2 -11 15.8673 1.70224 0
-6 -2 11 20.3806 4.38298 0
6 2 -10 425.06 6.74061 0
6 2 -9 -0.19287 1.13761 0
6 2 -8 12.9656 5.06298 0
-6 -2 8 10.6092 2.3074 0
6 2 -7 6.49004 2.70951 0
-6 -2 7 5.3213 1.91281 0
6 2 -6 363.506 11.5557 0
-6 -2 6 350.616 10.6736 0
6 2 -5 5.97391 2.5687 0
6 2 -4 2.47681 1.79524 0
6 2 -4 1.54578 1.04685 0
6 2 -3 1.47531 0.97886 0
-6 -2 3 1.01633 1.09126 0
6 2 -3 2.77266 1.74696 0
6 2 -2 578.509 17.7651 0
-6 -2 2 598.564 18.3327 0
6 2 -2 551.61 18.1908 0
6 2 -2 566.498 17.9119 0
6 2 -1 69.7746 2.06589 0
-6 -2 1 72.3114 3.45835 0
6 2 -1 66.696 4.34952 0
-6 -2 1 68.5897 2.20261 0
6 2 -1 69.1366 3.0634 0
-6 -2 0 0.98428 0.7926 0
-6 -2 0 2.19649 1.12415 0
6 2 0 1.76652 0.93766 0
-6 -2 0 2.22758 0.7926 0
6 2 0 1.52304 1.36763 0
-6 -2 -1 9.46576 1.31338 0
-6 -2 -1 9.76401 0.88431 0
6 2 1 9.98378 2.98258 0
-6 -2 -1 6.3419 2.30234 0
6 2 1 10.2036 3.61049 0
6 2 2 699.171 21.4863 0
6 2 2 708.944 22.3781 0
6 2 3 23.5861 1.78512 0
6 2 3 23.4579 10.131 0
6 2 4 156.985 7.28182 0
6 2 4 156.567 9.77388 0
6 2 5 2.26663 2.10849 0
6 2 5 3.27775 1.87368 0
6 2 6 266.22 8.13584 0
6 2 6 257.225 9.06369 0
6 2 6 264.767 9.38821 0
6 2 7 17.2827 1.80941 0
6 2 7 16.0373 0.98498 0
6 2 7 19.4826 5.71894 0
6 2 7 18.4889 6.58676 0
6 2 8 87.0553 4.13138 0
6 2 8 85.1254 4.9379 0
6 2 8 83.9403 8.71129 0
-6 -2 -9 8.63825 1.35471 0
6 2 9 7.72343 2.40968 0
6 2 9 11.4061 3.04811 0
6 2 9 9.58033 4.70647 0
-6 -2 -10 406.649 11.2526 0
6 2 10 401.741 10.6323 0
6 2 10 383.904 12.2066 0
6 2 10 399.245 11.9345 0
-6 -2 -11 3.28054 1.33589 0
6 2 11 1.32913 2.18477 0
6 2 11 1.95818 2.60414 0
-6 -2 -12 121.008 5.42343 0
6 2 12 116.794 5.77149 0
6 2 12 120.23 5.2051 0
-6 -2 -13 0.62229 0.84262 0
6 2 13 0.98852 1.47682 0
6 2 13 0.92302 0.7533 0
-6 -2 -14 67.3771 4.35937 0
6 2 14 68.6335 5.57372 0
6 2 14 77.6264 4.55243 0
-6 -2 -15 33.1411 2.28829 0
6 2 15 30.0293 2.71311 0
6 2 15 33.3053 1.94166 0
-6 -2 -16 86.7087 3.4376 0
6 2 16 93.3552 4.39857 0
6 2 16 87.0493 3.4011 0
6 2 17 0.11164 0.80885 0
6 2 18 77.191 3.75014 0
6 2 18 65.5645 4.55359 0
6 2 19 15.7102 3.54687 0
6 2 19 17.2448 4.89169 0
6 3 -16 -0.40691 1.05837 0
-6 -3 16 0.99824 1.23076 0
6 3 -15 27.7745 1.95206 0
-6 -3 15 28.351 2.17277 0
6 3 -14 67.1039 3.66241 0
-6 -3 14 55.3426 5.5781 0
6 3 -13 75.3915 3.71876 0
-6 -3 13 66.9134 3.33373 0
6 3 -12 0.55573 0.8636 0
-6 -3 12 2.22554 1.0645 0
6 3 -11 18.5484 1.97323 0
6 3 -10 153.691 6.25848 0
6 3 -9 58.9657 3.08982 0
6 3 -8 43.0485 2.72805 0
6 3 -7 39.6105 7.10244 0
6 3 -6 307.533 8.93771 0
6 3 -5 128.301 6.17144 0
6 3 -4 76.6127 7.36685 0
6 3 -4 76.9092 4.70636 0
6 3 -3 6.17046 2.13055 0
-6 -3 3 1.99513 2.69027 0
6 3 -3 7.33053 2.77603 0
6 3 -2 186.217 6.56247 0
-6 -3 2 193.732 6.68041 0
6 3 -2 182.202 7.10974 0
6 3 -1 26.9796 1.55078 0
-6 -3 1 27.4004 2.24056 0
6 3 -1 29.4061 3.97723 0
6 3 0 311.36 10.1666 0
-6 -3 0 306.786 9.70473 0
6 3 0 318.414 10.7992 0
6 3 1 10.6254 1.96521 0
-6 -3 -1 12.2342 2.47942 0
6 3 1 15.6402 5.19814 0
6 3 2 272.462 9.36887 0
6 3 3 185.645 6.8067 0
6 3 3 198.714 7.84458 0
6 3 4 156.303 3.94067 0
6 3 4 155.014 9.90333 0
6 3 5 -0.5133 2.0437 0
6 3 5 2.86118 1.8726 0
6 3 6 125.636 4.00211 0
6 3 6 124.42 3.92471 0
6 3 6 121.998 5.29061 0
6 3 6 117.983 3.71527 0
6 3 7 43.6019 2.76335 0
6 3 7 42.6388 2.42064 0
6 3 7 43.7797 3.40104 0
6 3 7 42.7603 3.37935 0
6 3 8 281.499 10.9438 0
6 3 8 275.237 10.8778 0
6 3 8 282.225 12.0576 0
6 3 8 285.752 11.9091 0
6 3 9 0.57175 0.52867 0
6 3 9 1.24531 0.92028 0
6 3 9 -0.37594 2.4828 0
6 3 9 1.08475 1.18266 0
6 3 10 94.0999 3.83275 0
6 3 10 91.7264 3.75229 0
6 3 10 100.412 5.09815 0
6 3 10 86.3357 4.51665 0
6 3 11 53.3721 2.33211 0
6 3 11 55.3116 3.89595 0
6 3 11 54.1404 4.60617 0
6 3 12 284.051 8.69449 0
6 3 12 295.351 9.8772 0
6 3 12 288.913 11.0343 0
6 3 13 5.15518 2.12343 0
6 3 13 3.6393 1.2121 0
6 3 14 25.5221 2.71668 0
6 3 14 28.5592 8.44497 0
6 3 15 0.074 0.43608 0
6 3 15 -1.60424 1.86589 0
6 3 16 136.937 6.67179 0
6 3 16 135.864 7.03449 0
6 3 17 0.25183 0.71159 0
6 3 17 -0.46669 1.52945 0
6 3 18 8.59663 1.15649 0
6 3 18 8.2256 6.93676 0
6 3 19 3.22217 3.24448 0
6 3 19 5.86604 4.16771 0
6 3 20 91.831 5.11535 0
6 4 -16 0.18553 0.6648 0
-6 -4 16 0.7421 0.92183 0
6 4 -15 0.59168 0.79372 0
-6 -4 15 -0.09071 0.64735 0
6 4 -14 2.58168 1.72332 0
-6 -4 14 1.27213 1.1995 0
6 4 -13 162.483 7.72045 0
-6 -4 13 159.685 7.58698 0
6 4 -12 5.55114 2.65185 0
6 4 -11 2.20367 1.54043 0
6 4 -10 0.44119 1.25482 0
6 4 -9 260.273 10.2343 0
6 4 -8 3.21939 1.86031 0
6 4 -7 12.7555 4.3477 0
6 4 -6 80.9864 3.95706 0
6 4 -5 466.054 12.6053 0
6 4 -4 38.5211 4.55379 0
6 4 -4 34.1228 3.05632 0
6 4 -3 146.001 5.65164 0
6 4 -3 150.186 6.45597 0
6 4 -2 2.12323 1.93588 0
-6 -4 2 3.01534 2.14999 0
6 4 -2 3.31866 3.08225 0
6 4 -1 205.802 7.0453 0
-6 -4 1 212.126 8.09932 0
6 4 -1 206.916 10.494 0
6 4 0 272.159 8.91157 0
-6 -4 0 279.589 9.10634 0
6 4 0 289.512 10.2084 0
6 4 1 59.6757 1.77279 0
-6 -4 -1 63.5739 2.74854 0
6 4 1 66.0568 2.76786 0
6 4 2 4.1709 2.07817 0
-6 -4 -2 3.75332 1.09735 0
6 4 2 6.00629 2.96673 0
6 4 3 413.695 12.395 0
-6 -4 -3 374.205 2.47418 0
6 4 3 427.6 14.0011 0
6 4 4 116.715 4.77392 0
-6 -4 -4 110.899 4.54659 0
6 4 4 114.522 5.69271 0
6 4 5 154.531 4.88405 0
6 4 5 146.798 6.0855 0
6 4 6 0.92742 0.73661 0
6 4 6 1.22473 1.57528 0
6 4 7 138.381 4.54295 0
6 4 7 140.836 4.70885 0
6 4 7 134.57 6.81443 0
6 4 8 222.545 8.67958 0
6 4 8 223.737 8.76093 0
6 4 8 228.919 9.77368 0
6 4 9 111.214 5.01848 0
6 4 9 112.099 3.78221 0
6 4 9 110.167 4.89485 0
6 4 10 1.91639 0.60136 0
6 4 10 3.10462 1.25344 0
6 4 10 1.99609 1.37299 0
6 4 11 152.889 5.25119 0
6 4 11 161.494 6.45283 0
6 4 12 237.856 7.21567 0
6 4 12 238.719 10.7311 0
6 4 13 48.663 4.1597 0
6 4 13 49.8322 3.50749 0
6 4 14 0.43722 0.60756 0
6 4 14 0.3123 2.3479 0
6 4 15 37.1403 4.56402 0
6 4 15 36.2074 3.30242 0
6 4 16 108.747 5.36166 0
6 4 16 108.665 6.21149 0
6 4 17 25.0963 1.44675 0
6 4 17 25.7837 2.4244 0
6 4 18 7.46346 3.7492 0
6 4 18 7.13374 3.03954 0
6 4 19 31.9568 2.02144 0
6 4 19 33.1729 2.71024 0
6 4 20 63.0374 3.88102 0
6 5 -15 16.3441 2.77988 0
-6 -5 15 12.1743 6.37992 0
6 5 -14 0.29844 0.71668 0
-6 -5 14 0.88902 0.82596 0
6 5 -13 124.291 4.67116 0
-6 -5 13 118.652 4.31993 0
6 5 -12 3.62204 1.57914 0
6 5 -11 63.2105 6.1905 0
6 5 -10 9.3552 5.31644 0
6 5 -9 164.427 7.67855 0
6 5 -8 2.49224 1.55499 0
6 5 -7 82.0905 3.70168 0
6 5 -6 10.3115 4.81429 0
6 5 -5 180.205 9.36679 0
6 5 -4 1.19341 1.15888 0
6 5 -4 1.83041 2.75138 0
6 5 -3 279.613 13.0625 0
6 5 -3 296.512 13.3561 0
6 5 -2 28.7529 3.97886 0
6 5 -2 26.5966 3.27818 0
6 5 -1 271.588 10.1546 0
-6 -5 1 287.486 10.7233 0
6 5 -1 267.142 10.5768 0
6 5 0 6.43857 2.21547 0
-6 -5 0 7.63695 1.98994 0
6 5 0 6.9648 2.21547 0
6 5 1 337.208 12.8236 0
-6 -5 -1 336.331 12.2205 0
6 5 1 337.87 12.7516 0
6 5 2 13.9292 2.68603 0
-6 -5 -2 10.9165 3.57078 0
6 5 2 16.5381 6.10255 0
6 5 3 299.938 10.6694 0
-6 -5 -3 305.189 10.8143 0
6 5 3 305.796 11.5702 0
6 5 4 36.4624 1.71225 0
-6 -5 -4 31.9113 1.11766 0
6 5 4 36.0422 9.5582 0
6 5 5 610.138 21.1872 0
-6 -5 -5 541.143 18.7155 0
6 5 5 585.866 21.0691 0
6 5 6 1.81002 1.16844 0
6 5 6 2.77451 1.75478 0
6 5 7 46.5431 3.02926 0
6 5 7 50.1881 2.84045 0
6 5 7 51.2225 5.02825 0
6 5 8 28.5851 2.75176 0
6 5 8 30.6568 2.37221 0
6 5 8 31.6887 3.71646 0
6 5 9 362.705 9.49632 0
6 5 9 358.552 9.37659 0
6 5 9 359.027 10.5103 0
6 5 10 3.93098 1.56675 0
6 5 10 4.80258 1.58439 0
6 5 10 4.38972 1.91256 0
6 5 11 4.2922 1.43627 0
6 5 11 2.2741 3.21499 0
6 5 12 23.3364 1.826 0
6 5 12 22.8689 2.29034 0
6 5 13 176.343 7.43737 0
6 5 13 179.763 7.05109 0
6 5 14 24.1568 1.3982 0
6 5 14 24.1119 6.72425 0
6 5 15 0.87519 0.68333 0
6 5 15 0.49673 1.03025 0
6 5 16 9.28496 4.39866 0
6 5 16 12.6739 4.47255 0
6 5 17 99.9859 6.15529 0
6 5 17 115.588 6.01188 0
6 5 18 9.43748 4.6316 0
6 5 18 9.35687 5.79058 0
6 5 19 3.05066 2.22572 0
6 5 19 2.29106 1.23742 0
6 5 20 10.1666 5.98534 0
6 6 -14 2.82946 2.64402 0
-6 -6 14 3.61309 2.25519 0
6 6 -13 6.66142 2.76304 0
-6 -6 13 6.63383 2.99435 0
6 6 -12 63.2291 3.14028 0
6 6 -11 78.6467 3.63731 0
6 6 -10 15.4669 6.54702 0
6 6 -9 68.2589 4.05038 0
6 6 -8 85.4899 5.41199 0
6 6 -7 180.655 6.82275 0
6 6 -6 1.59753 1.40062 0
6 6 -5 25.7657 3.54073 0
6 6 -4 63.7352 5.30481 0
6 6 -4 62.061 3.61996 0
6 6 -3 252.681 7.66755 0
6 6 -3 256.121 8.3747 0
6 6 -2 13.0423 4.04039 0
6 6 -2 12.6398 4.84538 0
6 6 -1 21.5102 1.88889 0
6 6 -1 23.0669 8.91221 0
6 6 0 154.04 7.0251 0
6 6 0 143.99 7.02919 0
6 6 1 200.513 9.57383 0
-6 -6 -1 195.335 8.221 0
6 6 1 219.707 9.60297 0
6 6 2 2.86506 1.58796 0
-6 -6 -2 1.35271 2.29793 0
6 6 2 2.87766 2.12149 0
6 6 3 6.42961 1.95117 0
-6 -6 -3 5.32367 2.2203 0
6 6 3 7.59863 2.03527 0
6 6 4 15.5459 4.49179 0
-6 -6 -4 13.5296 1.33585 0
6 6 4 14.1182 3.81969 0
6 6 5 606.502 18.0907 0
-6 -6 -5 550.128 15.87 0
6 6 5 587.087 17.7782 0
6 6 6 30.0163 4.66124 0
-6 -6 -6 25.0693 1.99653 0
6 6 6 29.0301 2.18169 0
6 6 7 4.44643 1.66448 0
-6 -6 -7 4.36829 1.32846 0
6 6 7 7.51752 2.39123 0
6 6 8 3.18541 1.15289 0
6 6 8 3.78805 1.43736 0
6 6 8 4.65272 2.03252 0
6 6 9 298.751 8.10789 0
6 6 9 298.209 8.17924 0
6 6 9 283.58 10.6476 0
6 6 10 1.58908 1.09101 0
6 6 10 2.32433 0.864 0
6 6 11 4.42734 2.38247 0
6 6 12 5.80974 2.22982 0
6 6 12 5.99912 1.67694 0
6 6 13 236.083 9.51176 0
6 6 13 233.249 10.5418 0
6 6 14 -0.05488 0.97959 0
6 6 14 -0.86709 1.5668 0
6 6 15 51.586 2.06241 0
6 6 15 52.3594 3.7046 0
6 6 16 -0.01454 1.08602 0
6 6 16 1.68479 1.38904 0
6 6 17 119.62 3.76146 0
6 6 17 119.709 4.43291 0
6 6 18 0.74525 0.87448 0
6 6 18 1.32895 1.22987 0
6 6 19 42.6196 2.60998 0
6 6 20 1.59312 1.66735 0
6 7 -13 0.48362 0.86531 0
6 7 -12 51.4029 4.28146 0
6 7 -11 7.17927 5.34851 0
6 7 -10 113.302 5.81734 0
6 7 -9 1.80362 1.29046 0
6 7 -8 80.9103 4.36056 0
6 7 -7 66.2531 4.37472 0
6 7 -6 94.1474 4.20235 0
6 7 -5 0.81307 1.71888 0
6 7 -4 36.7087 7.45094 0
6 7 -4 46.5797 8.04224 0
6 7 -3 44.1945 2.57369 0
6 7 -3 50.681 3.05604 0
6 7 -2 98.9938 4.73238 0
6 7 -2 99.9312 5.18526 0
6 7 -1 1.33087 1.35268 0
6 7 -1 1.98539 1.54541 0
6 7 0 59.4236 3.08009 0
6 7 0 52.4326 4.83907 0
6 7 1 131.711 4.72909 0
6 7 1 133.175 6.54885 0
6 7 2 163.477 7.91997 0
6 7 2 148.28 5.38713 0
6 7 3 27.8325 3.30552 0
6 7 3 26.1059 5.70495 0
6 7 4 11.9043 3.82748 0
-6 -7 -4 8.13098 3.33212 0
6 7 4 10.4221 2.60842 0
6 7 5 60.0971 3.08846 0
-6 -7 -5 48.8465 2.13405 0
6 7 5 53.3628 7.95212 0
6 7 6 321.931 10.9505 0
-6 -7 -6 283.462 7.52567 0
6 7 6 309.505 9.60971 0
6 7 7 125.642 5.35671 0
6 7 7 134.012 5.91523 0
6 7 8 3.38443 1.56097 0
6 7 8 1.39997 1.73596 0
6 7 9 74.1398 6.88148 0
6 7 9 63.4529 3.08608 0
6 7 10 120.249 6.26231 0
6 7 10 119.763 4.98409 0
6 7 11 94.7326 4.09403 0
6 7 11 100.487 4.74402 0
6 7 12 1.22981 0.66061 0
6 7 12 -1.27404 1.57191 0
6 7 13 89.5605 2.50332 0
6 7 13 91.1142 3.25348 0
6 7 14 73.0795 5.51824 0
6 7 14 74.467 6.22659 0
6 7 15 109.047 5.33818 0
6 7 15 112.543 5.90155 0
6 7 16 10.4916 3.71476 0
6 7 16 11.2791 5.13587 0
6 7 17 25.6092 1.63482 0
6 7 17 25.115 2.73514 0
6 7 18 53.6648 3.56189 0
6 7 18 58.7489 4.19107 0
6 7 19 99.1562 5.50128 0
6 8 -12 4.97922 3.85994 0
6 8 -11 1.41973 1.42183 0
6 8 -10 166.712 4.30174 0
6 8 -9 0.77797 0.61911 0
6 8 -8 15.9993 6.34504 0
6 8 -7 0.8875 2.12532 0
6 8 -6 184.765 9.00301 0
6 8 -5 1.04499 1.21436 0
6 8 -4 2.76088 1.41767 0
6 8 -4 0.82499 0.91732 0
6 8 -3 2.33887 1.48725 0
6 8 -3 -0.53072 1.7341 0
6 8 -2 344.814 10.799 0
6 8 -2 342.619 11.0192 0
6 8 -1 -0.15134 1.81608 0
6 8 -1 1.63184 1.31929 0
6 8 0 -0.02701 1.86715 0
6 8 0 1.54301 0.75969 0
6 8 1 25.2592 3.67588 0
6 8 1 30.2511 9.40158 0
6 8 2 247.428 7.54532 0
6 8 2 273.8 8.78483 0
6 8 3 5.39582 3.51993 0
6 8 3 7.0785 2.45201 0
6 8 4 47.4226 3.1884 0
6 8 4 52.3297 8.14813 0
6 8 5 10.4732 3.03802 0
6 8 5 9.86141 2.34978 0
6 8 6 283.278 8.41378 0
6 8 6 264.319 8.00335 0
6 8 7 18.1342 6.49727 0
6 8 7 17.6928 6.48055 0
6 8 8 35.6544 3.36902 0
6 8 8 35.6609 3.79502 0
6 8 9 -0.26143 1.31976 0
6 8 9 1.08037 0.58901 0
6 8 10 228.398 8.55069 0
6 8 10 232.308 9.1684 0
6 8 11 51.1388 2.70419 0
6 8 11 48.7223 5.88109 0
6 8 12 54.2745 3.57062 0
6 8 12 51.6557 2.71175 0
6 8 13 1.59578 0.68544 0
6 8 13 3.18353 1.48868 0
6 8 14 139.758 6.5802 0
6 8 14 130.725 6.52937 0
6 8 15 38.4428 2.47396 0
6 8 15 36.2557 6.53211 0
6 8 16 40.3922 1.87429 0
6 8 16 39.1999 2.77367 0
6 8 17 -0.13692 0.48249 0
6 8 17 -0.39555 1.23448 0
6 8 18 38.4166 2.07186 0
6 8 18 33.8807 2.83982 0
6 8 19 52.8738 4.12619 0
6 9 -11 2.92993 1.76773 0
6 9 -10 52.2793 5.56194 0
6 9 -9 18.2083 4.76206 0
6 9 -8 5.15232 2.2348 0
6 9 -7 0.45082 1.06146 0
6 9 -6 96.35 4.26834 0
6 9 -5 51.258 2.73508 0
6 9 -4 11.6508 3.99098 0
6 9 -3 4.52827 2.15334 0
6 9 -3 3.87488 0.81816 0
6 9 -2 203.365 8.23691 0
6 9 -2 186.183 7.74773 0
6 9 -1 68.4977 6.14107 0
6 9 -1 66.5428 3.56453 0
6 9 0 66.6871 3.07182 0
6 9 0 67.7397 7.20543 0
6 9 1 1.12426 1.05243 0
6 9 1 1.22732 0.82134 0
6 9 2 219.161 7.62412 0
6 9 2 202.231 7.09603 0
6 9 3 9.03615 3.84944 0
6 9 3 11.3095 3.35273 0
6 9 4 218.965 9.0695 0
6 9 4 221.83 7.60997 0
6 9 5 5.23106 2.03853 0
6 9 5 3.91854 1.99731 0
6 9 6 21.6061 6.47557 0
6 9 6 20.2201 6.58846 0
6 9 7 11.352 4.8105 0
6 9 7 15.1875 3.27385 0
6 9 8 130.219 8.06786 0
6 9 8 137.175 5.55289 0
6 9 9 10.0421 3.09851 0
6 9 9 12.58 3.46738 0
6 9 10 78.3643 5.28631 0
6 9 10 81.6895 4.98194 0
6 9 11 2.02192 0.82037 0
6 9 11 1.70151 2.33405 0
6 9 12 202.539 9.68898 0
6 9 12 210.47 10.5363 0
6 9 13 0.96221 1.40026 0
6 9 13 1.51421 1.29645 0
6 9 14 28.81 2.40305 0
6 9 14 29.192 1.99207 0
6 9 15 1.51778 1.14179 0
6 9 15 1.73691 1.24559 0
6 9 16 108.933 4.20582 0
6 9 16 103.081 4.16401 0
6 9 17 0.72545 0.90524 0
6 9 17 1.46344 1.44253 0
6 9 18 4.27146 2.37766 0
6 10 -10 5.30431 3.67984 0
6 10 -9 74.7924 5.24954 0
6 10 -8 22.0443 2.02217 0
6 10 -7 4.00162 3.35301 0
6 10 -6 24.8873 2.07127 0
6 10 -5 81.027 3.09862 0
6 10 -4 19.7048 1.70839 0
6 10 -3 10.0617 4.33788 0
6 10 -3 13.2065 3.37876 0
6 10 -2 37.2796 2.53333 0
6 10 -2 37.9707 3.01182 0
6 10 -1 114.947 5.19311 0
6 10 -1 123.318 5.45865 0
6 10 0 49.1339 2.68585 0
6 10 0 47.0487 2.52588 0
6 10 1 7.64956 2.43629 0
6 10 1 6.91953 2.88576 0
6 10 2 14.5419 5.00864 0
6 10 2 11.1477 3.85503 0
6 10 3 70.2493 3.57754 0
6 10 3 74.9386 3.93938 0
6 10 4 134.515 6.16499 0
6 10 4 130.491 6.51301 0
6 10 5 60.2497 5.12341 0
6 10 5 54.6215 2.88265 0
6 10 6 18.2268 5.89113 0
6 10 6 25.8711 3.25128 0
6 10 7 120.917 9.2709 0
6 10 7 123.326 7.57982 0
6 10 8 151.454 6.79848 0
6 10 8 158.168 7.19113 0
6 10 9 18.2747 6.83009 0
6 10 9 15.3342 4.55978 0
6 10 10 0.48335 0.95874 0
6 10 10 1.0331 1.13668 0
6 10 11 10.6523 3.29562 0
6 10 11 9.30892 3.04646 0
6 10 12 135.815 6.81354 0
6 10 12 130.755 6.71199 0
6 10 13 16.7615 6.71889 0
6 10 13 17.3262 1.50818 0
6 10 14 3.81941 1.55385 0
6 10 14 2.99786 2.04816 0
6 10 15 7.80671 3.95935 0
6 10 15 8.57091 4.05158 0
6 10 16 75.8739 3.53536 0
6 10 16 68.4509 4.69704 0
6 10 17 16.2276 2.76989 0
6 10 17 20.0527 2.64398 0
6 10 18 8.2268 5.32524 0
6 11 -8 0.50184 0.7682 0
6 11 -7 32.8519 4.27829 0
6 11 -6 2.07409 1.47939 0
6 11 -5 82.2949 3.8505 0
6 11 -4 14.975 2.92757 0
6 11 -3 71.5082 3.71501 0
6 11 -2 1.14818 1.23243 0
6 11 -2 0.37791 0.93395 0
6 11 -1 75.1332 3.52303 0
6 11 -1 91.129 4.27708 0
6 11 0 8.08355 3.30173 0
6 11 0 7.78753 3.31944 0
6 11 1 69.3109 3.87796 0
6 11 1 78.1188 4.39881 0
6 11 2 0.95996 1.17445 0
6 11 2 1.06198 1.39679 0
6 11 3 32.1614 5.42624 0
6 11 3 31.1448 8.65822 0
6 11 4 14.2674 4.60109 0
6 11 4 12.2705 3.07358 0
6 11 5 122 3.84711 0
6 11 5 114.346 5.17187 0
6 11 6 8.76132 2.86251 0
6 11 6 9.79888 2.70714 0
6 11 7 41.3175 4.65623 0
6 11 7 45.531 6.25778 0
6 11 8 37.1078 2.83197 0
6 11 8 42.1797 2.30146 0
6 11 9 108.216 6.22737 0
6 11 9 104.153 5.28071 0
6 11 10 8.61341 3.02143 0
6 11 10 12.6616 3.54583 0
6 11 11 6.50843 2.21873 0
6 11 11 5.22152 1.81597 0
6 11 12 39.0284 2.72023 0
6 11 12 37.9145 1.95061 0
6 11 13 87.9467 5.04061 0
6 11 13 90.5923 5.02495 0
6 11 14 11.4444 4.75986 0
6 11 14 13.2094 4.00898 0
6 11 15 0.38738 0.70432 0
6 11 15 -0.07665 1.10413 0
6 11 16 28.4235 3.37945 0
6 11 16 22.5303 3.18486 0
6 11 17 63.9002 4.08384 0
6 12 -6 3.66215 2.47282 0
6 12 -5 13.0848 2.607 0
6 12 -4 0.41686 1.41361 0
6 12 -3 117.625 5.41856 0
6 12 -2 2.40236 1.52917 0
6 12 -1 4.581 2.38374 0
6 12 -1 4.60347 2.1074 0
6 12 0 1.49099 1.16298 0
6 12 0 0.46106 0.43354 0
6 12 1 89.7783 4.7334 0
6 12 1 95.4967 5.02049 0
6 12 2 4.97798 2.10571 0
6 12 2 4.30842 1.84072 0
6 12 3 0.59953 1.29698 0
6 12 3 1.02708 0.72851 0
6 12 4 0.53062 0.84995 0
6 12 4 2.01442 1.60145 0
6 12 5 140.025 7.00412 0
6 12 5 136.327 7.5904 0
6 12 6 2.1641 2.38912 0
6 12 7 7.34963 2.4388 0
6 12 7 6.39026 2.78787 0
6 12 8 17.0586 2.80322 0
6 12 8 12.7681 4.42885 0
6 12 9 148.559 7.07016 0
6 12 9 133.878 8.43665 0
6 12 10 1.18371 1.2516 0
6 12 10 -0.18106 1.24029 0
6 12 11 4.22989 2.25211 0
6 12 11 3.59718 1.66143 0
6 12 12 0.49104 0.80979 0
6 12 12 1.02732 0.80118 0
6 12 13 97.7366 4.56627 0
6 12 13 94.0281 4.14262 0
6 12 14 0.55068 0.81895 0
6 12 14 1.25264 1.18204 0
6 12 15 13.9853 2.9029 0
6 12 15 17.9544 2.20053 0
6 13 -3 58.1492 3.70711 0
6 13 -2 22.2732 3.88512 0
6 13 -1 1.20199 2.09379 0
6 13 -1 0.04694 0.65916 0
6 13 0 5.28302 4.35317 0
6 13 0 6.27124 2.55395 0
6 13 1 39.9862 4.25163 0
6 13 1 43.0236 3.40258 0
6 13 2 46.2123 4.52154 0
6 13 2 51.7867 3.86269 0
6 13 3 1.95578 2.28211 0
6 13 3 1.48152 1.01379 0
6 13 4 2.21238 1.56464 0
6 13 4 1.47273 1.05477 0
6 13 5 41.8792 8.84022 0
6 13 5 48.7023 2.47096 0
6 13 6 20.5674 7.756 0
6 13 6 28.9165 1.93681 0
6 13 7 50.6003 5.82268 0
6 13 7 45.1845 3.35305 0
6 13 8 4.76608 3.85938 0
6 13 8 3.17451 1.38266 0
6 13 9 56.1946 4.36137 0
6 13 9 52.5021 3.80505 0
6 13 10 46.4428 5.25393 0
6 13 10 37.8454 4.09219 0
6 13 11 33.3291 3.94461 0
6 13 11 25.2051 1.67421 0
6 13 12 0.50807 0.78104 0
6 13 12 0.48217 1.0022 0
6 13 13 41.3341 3.39328 0
6 13 13 45.0822 3.40492 0
6 14 0 2.03318 1.42929 0
6 14 0 3.38675 1.52205 0
6 14 1 5.20785 4.01225 0
6 14 1 4.93831 2.28914 0
6 14 2 81.863 4.5653 0
6 14 2 83.2312 5.82812 0
6 14 3 12.3077 5.40939 0
6 14 3 10.7971 5.4015 0
6 14 4 3.4647 2.14831 0
6 14 4 3.77643 1.6301 0
6 14 5 1.49382 0.98991 0
6 14 5 1.06957 1.16916 0
6 14 6 80.4749 5.50819 0
6 14 6 78.6435 5.28922 0
6 14 7 27.845 2.79698 0
6 14 7 28.4396 3.47492 0
6 14 8 9.35006 3.72901 0
6 14 8 9.45627 4.90515 0
6 14 9 0.24696 1.19399 0
6 14 9 0.09917 0.9198 0
6 14 10 33.6736 4.08368 0
6 14 10 33.526 4.76589 0
-7 10 8 25.1514 3.40407 0
7 -10 -8 31.2531 2.80864 0
-7 10 7 1.07274 0.92478 0
7 -10 -7 0.54513 1.15646 0
-7 10 6 61.3755 4.31391 0
7 -10 -6 61.2492 3.86002 0
-7 10 5 16.7887 9.09007 0
7 -10 -5 21.2839 2.66921 0
-7 10 4 49.9155 3.34469 0
7 -10 -4 50.1723 2.89124 0
-7 10 3 0.22937 1.85105 0
7 -10 -3 0.28369 1.01204 0
-7 10 2 36.3883 5.0895 0
7 -10 -2 36.3079 3.31863 0
-7 10 1 24.8022 2.63487 0
7 -10 -1 25.9685 2.00866 0
-7 10 0 39.6982 3.47799 0
7 -10 0 42.4124 6.65242 0
-7 10 -1 0.03137 1.23321 0
7 -10 1 0.58622 0.89795 0
-7 10 -2 7.09444 3.94307 0
7 -10 2 8.84391 6.2757 0
-7 10 -3 32.1209 3.92079 0
7 -10 3 29.8496 2.79461 0
-7 9 11 0.8962 0.6779 0
-7 9 10 6.48455 3.75079 0
7 -9 -10 3.88876 2.83822 0
-7 9 9 0.64753 1.29911 0
7 -9 -9 1.25661 1.51158 0
-7 9 8 80.2548 5.57624 0
7 -9 -8 93.1555 6.31988 0
-7 9 7 1.76899 1.49635 0
7 -9 -7 -0.52414 1.24696 0
-7 9 6 18.0341 6.78347 0
7 -9 -6 22.1618 4.83889 0
-7 9 5 1.18819 1.54073 0
7 -9 -5 1.34705 1.31876 0
-7 9 4 139.701 5.08489 0
7 -9 -4 139.749 4.2162 0
-7 9 3 2.04408 1.46698 0
7 -9 -3 1.6432 1.10134 0
-7 9 2 4.52135 1.90593 0
7 -9 -2 2.78508 1.88169 0
-7 9 1 0.60603 1.30209 0
7 -9 -1 0.99469 1.7127 0
-7 9 0 101.872 4.96691 0
7 -9 0 107.556 5.22419 0
-7 9 -1 3.09094 1.68655 0
7 -9 1 2.0915 2.1475 0
-7 9 -2 1.89952 2.10941 0
7 -9 2 0.08268 1.2084 0
-7 9 -3 2.96262 1.13515 0
7 -9 3 2.80669 2.16011 0
-7 9 -4 66.6454 4.72657 0
7 -9 4 73.5849 5.23662 0
-7 9 -5 1.06338 1.3624 0
7 -9 5 1.07526 1.37626 0
-7 9 -6 1.54555 1.83233 0
7 -9 6 1.13558 1.43776 0
-7 8 13 8.64389 5.11667 0
-7 8 12 54.6817 6.78953 0
-7 8 11 9.39333 4.86448 0
-7 8 10 0.34902 1.09996 0
7 -8 -10 0.54786 1.07457 0
-7 8 9 4.86879 2.42022 0
7 -8 -9 3.62815 3.34252 0
-7 8 8 70.574 3.5506 0
7 -8 -8 66.0178 3.20649 0
-7 8 7 53.9377 3.19429 0
7 -8 -7 53.8007 3.36554 0
-7 8 6 4.87877 1.86268 0
7 -8 -6 5.4485 1.9836 0
-7 8 5 2.69002 1.06421 0
7 -8 -5 4.89395 2.36675 0
-7 8 4 103.109 5.84036 0
7 -8 -4 106.889 5.71158 0
-7 8 3 5.14304 3.0239 0
7 -8 -3 2.34713 1.92234 0
-7 8 2 3.72458 1.85628 0
7 -8 -2 5.66742 1.81781 0
-7 8 1 2.72454 2.14414 0
7 -8 -1 2.3528 1.39585 0
-7 8 0 93.9784 5.19694 0
7 -8 0 95.3384 5.32556 0
-7 8 -1 17.5581 7.11511 0
7 -8 1 16.5242 6.5687 0
-7 8 -2 8.80114 4.00157 0
7 -8 2 8.29312 4.12916 0
-7 8 -3 -0.02277 0.81955 0
7 -8 3 0.18895 1.57309 0
-7 8 -4 61.0415 2.66114 0
7 -8 4 61.5426 3.85476 0
-7 8 -5 2.05398 1.57631 0
7 -8 5 1.68922 1.94108 0
-7 8 -6 35.7634 1.94966 0
7 -8 6 31.3946 2.26337 0
-7 8 -7 1.09141 1.34594 0
7 -8 7 0.35227 1.96495 0
-7 8 -8 37.0042 4.31506 0
7 -8 8 36.454 3.04962 0
-7 8 -9 0.4354 1.17558 0
7 -8 9 0.64742 1.43492 0
-7 7 14 0.78429 1.22171 0
-7 7 13 3.90585 3.15163 0
-7 7 12 6.92286 4.78855 0
-7 7 11 53.1764 4.76183 0
-7 7 10 10.094 4.82138 0
7 -7 -10 7.37309 4.51906 0
-7 7 9 3.84057 2.33835 0
7 -7 -9 1.83062 2.07517 0
-7 7 8 25.6481 2.10337 0
7 -7 -8 24.7056 4.35303 0
-7 7 7 220.333 5.11407 0
7 -7 -7 207.183 9.68399 0
-7 7 6 48.0006 3.99711 0
7 -7 -6 48.2802 2.72771 0
-7 7 5 0.6286 0.83386 0
7 -7 -5 1.02116 1.25207 0
-7 7 4 19.9321 5.58077 0
7 -7 -4 18.8601 7.97699 0
-7 7 3 50.7342 4.9621 0
7 -7 -3 49.0382 2.58607 0
-7 7 2 43.6191 3.32653 0
7 -7 -2 49.2099 3.58748 0
-7 7 1 2.24311 1.80344 0
7 -7 -1 1.05837 1.3822 0
-7 7 0 41.6745 3.14455 0
7 -7 0 39.872 4.34273 0
-7 7 -1 94.9296 9.14351 0
7 -7 1 93.044 4.75928 0
-7 7 -2 30.3953 5.0574 0
7 -7 2 28.5449 5.82352 0
-7 7 -3 13.8197 6.10442 0
7 -7 3 13.129 7.37866 0
-7 7 -4 10.306 4.89381 0
7 -7 4 9.902 5.29534 0
-7 7 -5 43.6334 4.81896 0
7 -7 5 45.5316 4.4521 0
-7 7 -6 62.2037 3.36546 0
7 -7 6 64.3042 5.51192 0
-7 7 -7 20.4821 1.68629 0
7 -7 7 25.5232 2.17062 0
-7 7 -8 8.0403 5.04956 0
7 -7 8 10.1377 4.52468 0
-7 7 -9 6.23916 3.84882 0
7 -7 9 5.08924 2.48908 0
-7 7 -10 55.6269 4.03491 0
7 -7 10 61.7167 3.73318 0
7 -7 11 5.38485 3.7133 0
-7 6 15 60.9884 3.62809 0
-7 6 14 1.49598 1.17296 0
-7 6 13 2.55859 2.34273 0
-7 6 12 1.04624 0.70339 0
-7 6 11 65.1213 5.93373 0
-7 6 10 0.71106 1.03906 0
7 -6 -10 -0.01915 0.87865 0
-7 6 9 23.1563 2.51218 0
7 -6 -9 21.0094 2.97436 0
-7 6 8 2.33829 1.48169 0
7 -6 -8 2.73443 1.16529 0
-7 6 7 162.233 8.13498 0
7 -6 -7 141.758 7.03882 0
-7 6 6 7.88539 2.86667 0
7 -6 -6 4.35319 2.19842 0
-7 6 5 108.915 6.6098 0
7 -6 -5 111.767 6.82185 0
-7 6 4 0.53953 0.84337 0
7 -6 -4 0.60768 1.57316 0
-7 6 3 193.94 8.50229 0
7 -6 -3 188.456 9.58879 0
-7 6 2 23.0138 6.96137 0
7 -6 -2 26.3775 4.07452 0
-7 6 1 58.5487 5.9789 0
7 -6 -1 64.2529 4.40322 0
-7 6 0 0.31101 1.05399 0
7 -6 0 0.35421 0.89272 0
-7 6 -1 151.05 7.19284 0
7 -6 1 120.481 10.0671 0
-7 6 -2 13.0951 3.5617 0
7 -6 2 13.9722 8.89164 0
-7 6 -3 106.703 4.79103 0
7 -6 3 104.04 5.28741 0
-7 6 -4 1.88054 0.90554 0
7 -6 4 0.95897 0.51287 0
7 -6 4 0.8815 1.35164 0
-7 6 -5 34.6089 3.03673 0
7 -6 5 42.9392 1.79043 0
7 -6 5 39.8792 3.6845 0
-7 6 -6 32.6223 2.10385 0
7 -6 6 35.9934 1.90599 0
7 -6 6 34.3078 2.85022 0
-7 6 -7 78.3562 4.33622 0
7 -6 7 84.339 3.41393 0
7 -6 7 88.2262 4.2493 0
-7 6 -8 3.14045 2.79203 0
7 -6 8 2.41341 0.9059 0
7 -6 8 2.78506 1.32401 0
-7 6 -9 22.901 5.74701 0
7 -6 9 22.6131 1.70067 0
7 -6 9 19.359 1.69844 0
-7 6 -10 30.3724 1.95213 0
7 -6 10 26.2586 2.15953 0
7 -6 10 25.94 4.38962 0
-7 6 -11 41.3876 2.41764 0
7 -6 11 35.6261 2.25239 0
7 -6 11 36.7931 2.63595 0
-7 6 -12 1.03097 0.95121 0
7 -6 12 0.67888 1.46864 0
-7 5 16 1.08503 0.56149 0
-7 5 15 53.3294 4.03296 0
-7 5 14 44.6432 3.55303 0
-7 5 13 20.1804 6.62731 0
-7 5 12 0.63632 1.00654 0
-7 5 11 50.1955 2.64901 0
-7 5 10 13.8066 5.06545 0
7 -5 -10 12.918 4.03009 0
-7 5 9 83.6434 7.67671 0
7 -5 -9 74.0013 3.43418 0
-7 5 8 0.5993 0.88246 0
7 -5 -8 2.27076 0.96219 0
-7 5 7 2.85626 1.36257 0
7 -5 -7 4.14187 2.23769 0
-7 5 6 74.2992 7.12659 0
7 -5 -6 70.4871 3.45203 0
-7 5 5 89.8164 4.05007 0
7 -5 -5 83.2567 4.94743 0
-7 5 4 3.01114 1.40357 0
7 -5 -4 0.8799 1.42184 0
-7 5 3 99.4975 5.79091 0
7 -5 -3 94.7648 4.54757 0
-7 5 2 20.7364 7.34033 0
7 -5 -2 22.6337 6.68094 0
-7 5 1 174.279 7.33737 0
7 -5 -1 188.832 7.86437 0
-7 5 0 4.47644 2.57395 0
7 -5 0 2.30972 1.52634 0
-7 5 -1 46.1987 9.25207 0
7 -5 1 36.6477 0.9739 0
7 -5 1 39.3506 2.63817 0
-7 5 -2 2.52325 1.68723 0
7 -5 2 0.48337 0.57761 0
7 -5 2 1.47139 3.23767 0
-7 5 -3 194.025 7.85499 0
7 -5 3 207.621 7.51762 0
7 -5 3 184.158 4.88735 0
-7 5 -4 4.29757 2.12979 0
7 -5 4 5.15066 1.91652 0
7 -5 4 1.4929 2.13856 0
-7 5 -5 5.90985 1.84114 0
7 -5 5 2.65091 1.48314 0
7 -5 5 5.06599 1.49167 0
-7 5 -6 4.18262 2.45698 0
7 -5 6 6.69438 3.40197 0
7 -5 6 7.96533 2.53368 0
-7 5 -7 157.577 8.799 0
7 -5 7 164.931 7.73333 0
7 -5 7 153.89 7.88331 0
-7 5 -8 0.56469 0.54201 0
7 -5 8 0.94032 0.85965 0
7 -5 8 0.41848 0.6857 0
-7 5 -9 0.62205 1.41769 0
7 -5 9 1.03193 0.92825 0
7 -5 9 0.02411 0.78359 0
-7 5 -10 0.83861 0.44235 0
7 -5 10 1.23949 1.74404 0
7 -5 10 1.11047 1.20493 0
-7 5 -11 65.6144 2.58619 0
7 -5 11 66.9548 2.93395 0
7 -5 11 68.9819 3.23109 0
-7 5 -12 0.10885 0.90642 0
7 -5 12 0.5024 1.52395 0
7 -5 12 0.2512 1.10738 0
-7 5 -13 0.07951 0.61022 0
7 -5 13 0.70166 0.90043 0
7 -5 13 0.6301 0.65197 0
-7 4 16 6.82847 3.09357 0
-7 4 15 0.50055 0.68594 0
-7 4 14 70.5342 4.81361 0
-7 4 13 25.9551 4.5589 0
-7 4 12 38.2473 2.47199 0
-7 4 11 0.89622 1.01521 0
-7 4 10 83.6394 4.27549 0
7 -4 -10 80.7926 3.76998 0
-7 4 9 40.5977 6.10863 0
7 -4 -9 37.1736 1.71064 0
-7 4 8 46.2636 6.33314 0
7 -4 -8 51.5582 2.38256 0
-7 4 7 26.987 2.46429 0
7 -4 -7 22.4761 4.04204 0
-7 4 6 102.097 4.77604 0
7 -4 -6 90.4441 3.24808 0
-7 4 5 144.668 6.04604 0
7 -4 -5 148.391 6.30739 0
-7 4 4 102.543 6.72373 0
7 -4 -4 101.548 5.13745 0
-7 4 3 1.36657 1.23689 0
7 -4 -3 0.05985 1.46631 0
-7 4 2 55.0389 5.66547 0
7 -4 -2 47.3906 3.33263 0
-7 4 1 176.413 6.7398 0
7 -4 -1 184.997 7.27465 0
-7 4 0 75.1152 4.01232 0
7 -4 0 74.446 1.65969 0
7 -4 0 80.8244 1.79152 0
7 -4 0 78.0932 3.90753 0
-7 4 -1 7.28031 3.28485 0
7 -4 1 6.2915 1.4212 0
7 -4 1 8.97636 4.28036 0
-7 4 -2 39.5289 7.43623 0
7 -4 2 44.1683 1.7666 0
7 -4 2 48.286 8.3476 0
-7 4 -3 120.551 4.97391 0
7 -4 3 137.989 4.84132 0
7 -4 3 122.139 6.28692 0
-7 4 -4 121.651 5.2955 0
7 -4 4 134.358 6.49959 0
7 -4 4 130.985 6.03309 0
-7 4 -5 7.5395 2.85295 0
7 -4 5 7.81194 3.03968 0
7 -4 5 7.73235 2.72438 0
-7 4 -6 1.56888 0.78296 0
7 -4 6 0.70288 0.88083 0
7 -4 6 2.09975 1.36424 0
-7 4 -7 211.708 8.97451 0
7 -4 7 220.115 9.20095 0
7 -4 7 208.039 9.13503 0
-7 4 -8 4.45611 2.11857 0
7 -4 8 5.24715 2.22806 0
7 -4 8 5.9944 2.62495 0
-7 4 -9 21.4521 2.13791 0
7 -4 9 20.9593 4.28625 0
7 -4 9 24.6407 5.4282 0
-7 4 -10 3.0005 2.08051 0
7 -4 10 4.34453 1.53497 0
7 -4 10 2.86907 1.50769 0
-7 4 -11 72.3408 3.16842 0
7 -4 11 77.8809 3.8568 0
7 -4 11 74.3942 3.61869 0
-7 4 -12 14.7456 1.46178 0
7 -4 12 15.7411 4.82927 0
7 -4 12 16.889 2.00211 0
-7 4 -13 22.0606 3.15821 0
7 -4 13 21.7627 4.40744 0
7 -4 13 19.6473 2.16861 0
-7 4 -14 1.81017 2.20079 0
7 -4 14 2.27731 1.51216 0
7 -4 14 2.8713 2.84714 0
7 -4 15 50.999 3.98355 0
7 -4 15 57.6052 3.29167 0
-7 3 16 49.8333 2.90258 0
-7 3 15 -0.43015 1.08381 0
-7 3 14 61.9078 2.78531 0
-7 3 13 0.93178 0.93884 0
-7 3 12 142.677 7.67273 0
-7 3 11 0.25475 1.25536 0
-7 3 10 29.8301 3.02239 0
7 -3 -10 25.6598 1.89107 0
-7 3 9 3.39213 1.42673 0
7 -3 -9 3.40669 1.24912 0
-7 3 8 117.074 4.8646 0
7 -3 -8 115.018 4.31937 0
-7 3 7 21.7696 5.59285 0
7 -3 -7 18.1334 5.49202 0
-7 3 6 55.4646 2.70024 0
7 -3 -6 60.3086 2.9359 0
-7 3 5 18.1607 5.3011 0
7 -3 -5 15.2254 5.80952 0
-7 3 4 315.368 9.21985 0
7 -3 -4 296.611 8.92288 0
-7 3 3 27.1216 2.88863 0
7 -3 -3 25.2925 1.96155 0
-7 3 2 4.44615 1.68233 0
7 -3 -2 9.82087 3.48482 0
-7 3 1 100.747 4.3298 0
7 -3 -1 98.9863 4.46212 0
-7 3 0 238.86 7.29316 0
7 -3 0 234.485 5.82496 0
7 -3 0 256.828 8.41547 0
-7 3 -1 19.4918 7.8077 0
7 -3 1 14.8993 1.38836 0
7 -3 1 18.1583 6.20743 0
-7 3 -2 2.77834 2.31408 0
7 -3 2 1.6051 0.70178 0
7 -3 2 0.29151 1.83903 0
-7 3 -3 19.3481 5.42296 0
7 -3 3 20.7523 1.32319 0
7 -3 3 22.2795 7.4535 0
-7 3 -4 262.282 8.57222 0
7 -3 4 261.184 7.31391 0
7 -3 4 267.052 8.56196 0
-7 3 -5 69.9521 2.83947 0
7 -3 5 76.0244 3.07416 0
7 -3 5 69.0034 3.91708 0
-7 3 -6 9.20597 1.41385 0
7 -3 6 8.75697 3.36268 0
7 -3 6 11.4955 6.0248 0
-7 3 -7 25.6801 1.85857 0
7 -3 7 24.3267 3.81511 0
7 -3 7 26.4302 7.37915 0
-7 3 -8 118.604 4.57347 0
7 -3 8 114.743 4.59702 0
7 -3 8 116.035 5.22977 0
-7 3 -9 43.8313 2.08185 0
7 -3 9 42.2586 2.80205 0
7 -3 9 40.2331 2.52635 0
-7 3 -10 5.67003 4.0306 0
7 -3 10 6.53107 4.28118 0
7 -3 10 5.49143 3.18823 0
-7 3 -11 5.21776 3.09584 0
7 -3 11 7.13532 3.82754 0
7 -3 11 8.7173 3.2119 0
-7 3 -12 65.6501 2.94219 0
7 -3 12 59.3477 3.19295 0
7 -3 12 61.3944 3.0616 0
-7 3 -13 25.7975 1.534 0
7 -3 13 23.1005 1.81682 0
7 -3 13 27.8836 2.91868 0
-7 3 -14 7.08072 1.65824 0
7 -3 14 5.88525 3.25649 0
7 -3 14 5.37321 3.06581 0
-7 3 -15 1.97456 2.1322 0
7 -3 15 3.63585 2.3242 0
7 -3 15 2.73851 1.76033 0
7 -3 16 30.0463 2.95005 0
7 -3 16 35.0076 2.66574 0
-7 2 17 21.7716 2.50094 0
-7 2 16 67.5345 4.67694 0
-7 2 15 5.19173 2.51772 0
-7 2 14 2.04442 0.69129 0
-7 2 13 15.7493 2.29378 0
-7 2 12 110.679 5.90915 0
-7 2 11 19.9674 4.72471 0
-7 2 11 19.4817 1.36264 0
-7 2 10 0.55202 0.69503 0
-7 2 10 0.54344 1.12406 0
7 -2 -10 0.17447 0.36325 0
-7 2 9 19.8295 5.54711 0
-7 2 9 16.77 1.78418 0
7 -2 -9 20.2546 3.84975 0
-7 2 8 128.438 7.22821 0
-7 2 8 120.796 4.51175 0
7 -2 -8 120.837 5.48303 0
-7 2 7 9.67573 4.32111 0
-7 2 7 3.82895 2.1261 0
7 -2 -7 6.65391 2.22453 0
-7 2 6 11.4818 3.07461 0
-7 2 6 8.68853 0.56276 0
-7 2 6 8.65078 2.21331 0
7 -2 -6 8.74343 2.80353 0
-7 2 5 21.9963 3.99933 0
-7 2 5 17.8933 0.85138 0
-7 2 5 17.6429 0.83707 0
7 -2 -5 19.2347 5.90241 0
-7 2 4 442.614 12.4887 0
-7 2 4 429.339 10.3627 0
7 -2 -4 426.037 13.2419 0
-7 2 3 11.7821 3.99107 0
-7 2 3 8.07389 0.9366 0
7 -2 -3 8.49059 3.03153 0
-7 2 2 30.0043 2.16522 0
7 -2 -2 28.9217 1.22331 0
-7 2 2 27.5655 1.79783 0
7 -2 -2 24.2082 3.39634 0
-7 2 1 8.01081 2.56599 0
7 -2 -1 7.78906 1.10084 0
-7 2 1 7.78906 2.30068 0
7 -2 -1 7.13172 4.6964 0
-7 2 0 185.338 9.64151 0
7 -2 0 180.706 7.0474 0
-7 2 0 179.232 7.02356 0
7 -2 0 182.14 9.38726 0
-7 2 -1 1.18761 0.70861 0
7 -2 1 0.51067 0.64527 0
7 -2 1 0.32857 0.42358 0
-7 2 -1 0.81549 0.95405 0
7 -2 1 -0.1346 2.01498 0
-7 2 -2 35.6858 4.86199 0
7 -2 2 34.5533 1.80421 0
7 -2 2 36.1349 1.71048 0
-7 2 -2 33.0498 1.62457 0
7 -2 2 35.2992 3.40925 0
-7 2 -3 10.6458 3.52441 0
7 -2 3 7.42684 2.66144 0
7 -2 3 12.3679 1.72211 0
-7 2 -3 9.71789 2.7569 0
7 -2 3 11.3904 4.26518 0
-7 2 -4 323.855 10.2548 0
7 -2 4 330.946 8.8729 0
7 -2 4 327.664 10.0769 0
-7 2 -5 0.33567 1.12487 0
7 -2 5 1.77479 1.32841 0
7 -2 5 0.60707 2.02119 0
-7 2 -6 75.1387 5.66477 0
7 -2 6 77.0087 4.79827 0
7 -2 6 79.3102 3.95918 0
-7 2 -7 0.57302 0.9594 0
7 -2 7 0.91028 1.24754 0
7 -2 7 0.48134 1.31303 0
-7 2 -8 95.0797 4.96536 0
7 -2 8 95.1797 4.51197 0
7 -2 8 94.7076 4.74961 0
-7 2 -9 19.6171 1.80157 0
7 -2 9 20.6598 2.56342 0
7 -2 9 20.2504 5.93352 0
-7 2 -10 66.9675 3.89714 0
7 -2 10 65.3984 4.1967 0
7 -2 10 66.5481 4.28229 0
-7 2 -11 0.01884 0.98232 0
7 -2 11 1.02269 0.87198 0
7 -2 11 1.03615 1.24876 0
-7 2 -12 90.2949 4.79777 0
7 -2 12 102.235 3.56471 0
7 -2 12 95.4885 4.83075 0
-7 2 -13 9.23312 1.21816 0
7 -2 13 5.49727 3.73824 0
7 -2 13 5.64326 4.8511 0
-7 2 -14 46.1166 2.12077 0
7 -2 14 42.1531 3.45473 0
7 -2 14 44.7984 2.21573 0
-7 2 -15 0.5765 0.67685 0
7 -2 15 -0.10889 1.12524 0
7 -2 15 0.77934 0.51458 0
7 -2 16 29.2616 2.1082 0
7 -2 16 35.1902 2.068 0
7 -2 17 14.5105 1.82778 0
-7 1 17 4.12825 3.77962 0
-7 1 16 33.7501 2.44587 0
-7 1 15 61.1107 4.34242 0
-7 1 14 6.29827 2.97666 0
-7 1 13 15.4254 5.74299 0
-7 1 13 16.6787 3.23877 0
-7 1 12 29.8888 3.19584 0
-7 1 12 22.6904 1.53606 0
-7 1 11 175.433 8.60495 0
-7 1 11 184.211 8.5172 0
-7 1 10 -0.16862 1.25887 0
-7 1 10 1.00884 0.85766 0
-7 1 9 1.18973 0.78705 0
-7 1 9 0.84196 0.80536 0
7 -1 -9 1.11652 0.90298 0
-7 1 8 9.53109 4.20395 0
-7 1 8 8.67425 2.89463 0
7 -1 -8 8.27632 1.7233 0
-7 1 7 255.629 9.81731 0
-7 1 7 269.19 8.08365 0
7 -1 -7 254.534 7.87751 0
-7 1 6 26.9437 6.88258 0
-7 1 6 21.5294 1.66376 0
7 -1 -6 23.9788 3.07512 0
-7 1 5 5.57638 2.02405 0
-7 1 5 3.58588 2.04641 0
7 -1 -5 7.34695 2.65027 0
-7 1 4 141.871 4.83246 0
-7 1 4 143.94 4.08601 0
7 -1 -4 141.965 5.55169 0
-7 1 3 254.956 11.6986 0
-7 1 3 252.816 9.76684 0
7 -1 -3 241.177 10.0875 0
-7 1 2 166.573 3.4447 0
7 -1 -2 187.151 7.38851 0
-7 1 2 171.854 6.78712 0
7 -1 -2 162.22 9.48315 0
-7 1 1 17.9054 1.70132 0
7 -1 -1 22.7106 2.4275 0
-7 1 1 17.9676 1.28222 0
7 -1 -1 20.7561 6.82604 0
-7 1 0 82.0068 5.4596 0
7 -1 0 79.7553 3.7929 0
7 -1 0 75.294 3.45037 0
-7 1 0 75.9833 3.58404 0
7 -1 0 86.3845 5.17555 0
-7 1 -1 57.7816 3.52037 0
7 -1 1 62.5533 3.33267 0
7 -1 1 59.6544 3.17834 0
-7 1 -1 63.8755 1.87697 0
7 -1 1 65.4021 3.87908 0
-7 1 -2 241.524 11.1352 0
7 -1 2 270.616 10.4989 0
7 -1 2 282.606 11.0649 0
-7 1 -2 268.938 10.6352 0
7 -1 2 260.703 11.0319 0
-7 1 -3 55.1461 3.40117 0
7 -1 3 52.0213 2.81602 0
7 -1 3 60.3109 3.53527 0
-7 1 -3 49.4165 2.95418 0
7 -1 3 47.657 3.60435 0
-7 1 -4 69.2185 4.81931 0
7 -1 4 69.6198 3.33736 0
7 -1 4 67.073 3.62342 0
7 -1 4 65.0786 4.31871 0
-7 1 -5 97.3934 4.61753 0
7 -1 5 106.648 3.57906 0
7 -1 5 104.076 4.05039 0
7 -1 5 97.129 4.73248 0
-7 1 -6 246.656 7.90083 0
7 -1 6 244.009 7.22624 0
7 -1 6 252.959 7.60753 0
7 -1 6 251.353 8.36645 0
-7 1 -7 0.75769 1.21509 0
7 -1 7 1.81566 1.00909 0
7 -1 7 0.93576 1.35127 0
7 -1 7 0.99163 1.55029 0
-7 1 -8 13.9382 1.07804 0
7 -1 8 17.9817 6.43839 0
7 -1 8 12.8934 5.14143 0
-7 1 -9 26.129 2.05088 0
7 -1 9 22.2824 1.94062 0
7 -1 9 27.9153 2.59274 0
-7 1 -10 152.503 5.54469 0
7 -1 10 153.222 7.66666 0
7 -1 10 172.074 6.64763 0
-7 1 -11 0.69032 0.65038 0
7 -1 11 1.1125 0.75022 0
7 -1 11 1.72294 0.99554 0
-7 1 -12 19.1381 3.09448 0
7 -1 12 19.484 1.82612 0
7 -1 12 17.5425 2.90409 0
-7 1 -13 10.8665 4.06075 0
7 -1 13 8.23744 6.65196 0
7 -1 13 10.4455 1.97618 0
-7 1 -14 118.92 5.56301 0
7 -1 14 125.681 6.28655 0
7 -1 14 113.768 6.20352 0
-7 1 -15 0.94193 0.95759 0
7 -1 15 -0.62199 1.19922 0
7 -1 15 1.12092 1.10302 0
7 -1 16 4.31701 1.54224 0
7 -1 16 3.87245 2.86958 0
7 -1 17 -1.00205 1.22384 0
-7 0 17 0.41922 0.81948 0
-7 0 16 0.5872 1.38427 0
-7 0 16 0.94235 1.0271 0
-7 0 15 147.282 6.10647 0
-7 0 15 132.353 5.29801 0
-7 0 14 0.14608 0.94039 0
-7 0 14 1.54982 1.54297 0
-7 0 13 3.90773 2.17824 0
-7 0 13 4.89254 2.20492 0
-7 0 12 0.1705 1.55004 0
-7 0 12 1.1987 1.11345 0
-7 0 11 155.778 7.86395 0
-7 0 11 156.5 7.59402 0
-7 0 10 -0.71605 1.27136 0
-7 0 10 0.91479 1.14861 0
-7 0 9 2.21113 0.96872 0
-7 0 9 2.85079 1.17168 0
-7 0 8 15.8491 4.44438 0
-7 0 7 402.049 11.4342 0
7 0 -7 393.804 10.9674 0
-7 0 6 10.087 2.40114 0
7 0 -6 13.598 4.37066 0
-7 0 5 100.226 4.31744 0
-7 0 5 98.1244 3.4616 0
7 0 -5 97.387 3.7749 0
-7 0 4 3.01296 1.40871 0
-7 0 4 1.42467 0.47489 0
7 0 -4 1.3688 1.80777 0
-7 0 3 248.656 10.0506 0
7 0 -3 264.918 10.5936 0
-7 0 3 244.92 9.57745 0
7 0 -3 234.076 9.81195 0
-7 0 2 39.7192 2.43549 0
-7 0 2 34.6752 2.36374 0
7 0 -2 40.9138 2.57479 0
-7 0 2 38.9088 2.74363 0
7 0 -2 35.0002 3.28813 0
-7 0 1 27.1381 1.30335 0
-7 0 1 28.8114 2.74435 0
7 0 -1 27.878 1.51412 0
-7 0 1 28.0844 1.97869 0
7 0 -1 26.5445 3.38097 0
-7 0 0 0.19564 0.27824 0
-7 0 0 0.05217 0.55213 0
7 0 0 0.9347 0.86079 0
-7 0 0 0.17824 0.59995 0
7 0 0 -0.02608 1.12164 0
-7 0 -1 189.111 6.14349 0
-7 0 -1 197.515 6.68338 0
7 0 1 206.162 6.9272 0
-7 0 -1 199.2 6.73998 0
7 0 1 211.317 8.32919 0
-7 0 -2 276.434 10.0623 0
7 0 2 282.958 10.0104 0
7 0 2 264.838 10.5159 0
-7 0 -2 260.894 9.66913 0
7 0 2 244.679 8.86121 0
-7 0 -3 251.16 9.64822 0
7 0 3 253.255 9.69073 0
7 0 3 253.595 10.154 0
7 0 3 247.39 10.6555 0
-7 0 -4 2.00902 1.18715 0
7 0 4 2.10449 0.92564 0
7 0 4 0.77621 1.23696 0
7 0 4 3.07995 1.18715 0
-7 0 -5 167.904 2.41499 0
7 0 5 172.254 6.73294 0
7 0 5 173.077 7.48687 0
7 0 5 172.206 9.96233 0
-7 0 -6 240.304 3.04699 0
7 0 6 250.773 6.61797 0
7 0 6 245.273 4.82472 0
7 0 6 245.998 8.12788 0
-7 0 -7 96.0937 3.18467 0
7 0 7 96.8059 3.57953 0
7 0 7 85.451 2.86362 0
7 0 7 87.7353 4.03712 0
-7 0 -8 5.89958 1.47839 0
7 0 8 5.49066 1.61819 0
7 0 8 7.05293 2.39408 0
7 0 8 6.45528 3.27482 0
-7 0 -9 4.48853 2.0757 0
7 0 9 7.56902 2.81938 0
7 0 9 2.60454 2.55496 0
-7 0 -10 93.4121 3.91394 0
7 0 10 100.646 4.95265 0
7 0 10 94.0034 4.94327 0
-7 0 -11 58.2789 2.58681 0
7 0 11 52.3984 2.84816 0
7 0 11 61.7715 3.4362 0
-7 0 -12 5.9786 2.77558 0
7 0 12 7.21594 2.76433 0
7 0 12 8.0399 3.15803 0
-7 0 -13 29.8836 3.27029 0
7 0 13 32.2862 2.62678 0
7 0 13 29.1583 2.73755 0
-7 0 -14 72.0861 3.00967 0
7 0 14 77.9248 4.11108 0
7 0 14 79.0708 3.38588 0
-7 0 -15 49.3915 2.46213 0
7 0 15 50.9716 3.39066 0
7 0 15 52.34 2.66226 0
7 0 16 3.07993 2.41963 0
7 0 16 2.98561 2.91321 0
7 0 17 5.31947 4.15384 0
7 0 18 51.3233 3.92949 0
-7 -1 16 -0.41894 1.13911 0
-7 -1 16 1.29671 0.37305 0
-7 -1 15 57.8507 6.167 0
-7 -1 15 55.3796 3.91711 0
-7 -1 14 29.3381 5.43265 0
-7 -1 14 34.0813 2.07313 0
-7 -1 13 75.9728 4.41046 0
-7 -1 13 79.0565 3.43944 0
-7 -1 12 4.70312 2.1953 0
-7 -1 12 4.33169 1.4345 0
-7 -1 11 88.4135 4.44296 0
-7 -1 11 83.3554 3.93168 0
-7 -1 10 55.8543 3.08088 0
-7 -1 9 57.4165 3.54525 0
-7 -1 8 6.71918 3.9719 0
-7 -1 7 139.761 7.53905 0
-7 -1 6 24.3069 5.41284 0
-7 -1 5 263.572 7.73109 0
7 1 -5 262.496 7.88871 0
-7 -1 4 1.1537 1.12556 0
7 1 -4 1.20997 1.14968 0
7 1 -4 1.20595 1.34665 0
-7 -1 3 145.509 6.62161 0
-7 -1 3 139.191 6.40949 0
7 1 -3 148.82 7.10825 0
7 1 -3 142.319 8.41012 0
-7 -1 2 6.59847 2.37374 0
-7 -1 2 8.36806 2.48514 0
7 1 -2 7.15977 2.32232 0
-7 -1 2 4.70034 1.61962 0
7 1 -2 3.45777 2.57083 0
-7 -1 1 294.608 10.5801 0
-7 -1 1 295.038 10.5845 0
7 1 -1 283.16 10.6415 0
-7 -1 1 283.103 10.3302 0
7 1 -1 295.708 11.4746 0
-7 -1 0 0.2358 0.4894 0
-7 -1 0 0.53834 0.65847 0
7 1 0 1.49045 0.62287 0
-7 -1 0 0.90317 1.15232 0
7 1 0 0.14682 1.80634 0
-7 -1 -1 165.145 5.27188 0
-7 -1 -1 160.58 5.54911 0
7 1 1 166.809 5.88 0
-7 -1 -1 159.811 6.44341 0
7 1 1 161.264 6.44788 0
-7 -1 -2 35.4173 1.12125 0
-7 -1 -2 36.8589 1.10345 0
7 1 2 31.4707 2.05118 0
7 1 2 37.6509 4.24473 0
7 1 3 614.945 21.698 0
7 1 3 634.612 23.1231 0
7 1 4 28.6742 2.21131 0
7 1 4 21.7917 6.65108 0
-7 -1 -5 79.2728 3.28241 0
7 1 5 82.8631 3.39473 0
7 1 5 76.2608 3.99796 0
7 1 5 71.8926 4.58039 0
-7 -1 -6 36.8306 1.93803 0
7 1 6 37.2367 7.08868 0
7 1 6 35.6083 4.19772 0
-7 -1 -7 236.831 2.69589 0
7 1 7 231.924 6.23401 0
7 1 7 239.042 4.90337 0
7 1 7 223.524 7.51465 0
-7 -1 -8 0.26929 0.52039 0
7 1 8 0.50219 0.71326 0
7 1 8 1.95418 1.66305 0
7 1 8 0.40394 1.17906 0
-7 -1 -9 57.4581 2.47279 0
7 1 9 54.0752 2.43845 0
7 1 9 51.6161 3.24211 0
7 1 9 57.8633 3.41039 0
-7 -1 -10 31.392 1.97375 0
7 1 10 29.3567 2.66084 0
7 1 10 32.4583 2.69973 0
-7 -1 -11 299.893 9.10697 0
7 1 11 294.436 12.9294 0
7 1 11 285.277 9.95913 0
-7 -1 -12 23.1362 2.20303 0
7 1 12 20.5403 9.18171 0
7 1 12 23.8201 2.18848 0
-7 -1 -13 0.4103 0.70572 0
7 1 13 1.23911 1.98312 0
7 1 13 0.80419 1.57282 0
-7 -1 -14 4.55141 1.87592 0
7 1 14 3.18291 2.63961 0
7 1 14 3.72365 1.97843 0
-7 -1 -15 122.59 6.05221 0
7 1 15 119.351 8.30285 0
7 1 15 130.932 6.39365 0
7 1 16 11.7178 5.64292 0
7 1 16 13.2897 1.98124 0
7 1 17 0.78291 0.75951 0
7 1 17 -0.01915 0.45103 0
7 1 18 4.5424 3.05554 0
7 2 -16 11.4045 1.37198 0
-7 -2 16 7.73868 4.87729 0
7 2 -15 11.3246 1.38272 0
-7 -2 15 7.46002 4.63827 0
7 2 -14 70.1026 3.19587 0
-7 -2 14 58.1897 2.52738 0
7 2 -13 64.4139 3.3034 0
-7 -2 13 67.8022 3.2562 0
7 2 -12 41.3876 2.62427 0
-7 -2 12 37.9539 2.06875 0
7 2 -11 3.925 1.91555 0
7 2 -10 141.747 8.3229 0
7 2 -9 60.7964 3.25431 0
7 2 -8 139.91 5.81843 0
7 2 -7 25.2802 5.23656 0
7 2 -6 135.486 5.77582 0
7 2 -5 220.062 6.86948 0
7 2 -4 63.6435 2.44491 0
7 2 -4 67.5641 5.83907 0
-7 -2 3 24.8338 1.44258 0
7 2 -3 25.7184 2.43048 0
-7 -2 2 23.7606 3.44863 0
-7 -2 2 20.3162 2.93219 0
7 2 -2 20.5936 2.99621 0
7 2 -2 21.6734 2.01455 0
-7 -2 1 247.481 7.90256 0
-7 -2 1 248.72 8.02083 0
7 2 -1 227.672 8.12597 0
7 2 -1 236.477 8.6604 0
-7 -2 0 56.1058 3.5947 0
-7 -2 0 55.3298 2.85435 0
7 2 0 57.814 3.6839 0
7 2 0 58.9869 6.09226 0
-7 -2 -1 2.37947 0.67921 0
-7 -2 -1 1.76324 0.65222 0
7 2 1 2.97771 1.82621 0
7 2 1 2.00163 2.17706 0
7 2 2 0.16168 0.997 0
7 2 2 2.79339 2.42962 0
7 2 3 265.91 4.253 0
7 2 3 271.952 11.3916 0
7 2 4 39.0133 2.39185 0
7 2 4 44.9886 4.04875 0
7 2 5 51.5464 6.44382 0
7 2 5 51.5464 3.58554 0
7 2 6 24.772 2.12226 0
7 2 6 30.6931 9.08197 0
7 2 7 326.681 9.38865 0
7 2 7 310.68 8.87275 0
7 2 7 324.68 13.0866 0
7 2 7 319.072 12.5943 0
7 2 8 32.7181 1.68981 0
7 2 8 32.5876 1.43242 0
7 2 8 30.7859 4.96125 0
7 2 8 31.6625 2.39856 0
7 2 9 30.6139 2.84485 0
7 2 9 29.1738 2.13012 0
7 2 9 28.1317 3.48917 0
7 2 9 32.3532 5.37283 0
7 2 10 1.30134 0.68055 0
7 2 10 2.70227 2.15783 0
7 2 10 3.51893 1.82254 0
-7 -2 -11 220.432 6.8211 0
7 2 11 210.52 7.37594 0
7 2 11 223.115 7.56089 0
-7 -2 -12 23.0843 2.41476 0
7 2 12 25.404 2.11775 0
7 2 12 26.3426 2.3019 0
-7 -2 -13 44.3935 1.78832 0
7 2 13 34.8287 2.36103 0
7 2 13 40.7046 2.63335 0
-7 -2 -14 0.36279 0.3365 0
7 2 14 -0.58888 1.81923 0
7 2 14 0.40749 0.94642 0
7 2 15 110.886 5.89951 0
7 2 15 104.274 5.53726 0
7 2 16 1.53486 1.27789 0
7 2 16 0.28475 0.76627 0
7 2 16 1.08343 1.01629 0
7 2 17 50.9533 4.13836 0
7 2 18 0.14312 1.57839 0
7 2 19 62.9017 4.02015 0
7 3 -16 27.8894 6.69253 0
-7 -3 16 36.0482 3.01831 0
7 3 -15 0.17859 0.58652 0
-7 -3 15 0.67175 0.80164 0
7 3 -14 46.6773 5.18661 0
-7 -3 14 48.8844 3.61569 0
7 3 -13 6.90977 3.50542 0
-7 -3 13 7.67012 3.22058 0
7 3 -12 102.278 6.16212 0
-7 -3 12 101.421 3.43535 0
7 3 -11 -0.20316 1.32055 0
7 3 -10 66.7601 6.93507 0
7 3 -9 7.28705 3.15458 0
7 3 -8 382.763 11.7122 0
7 3 -7 5.19333 3.98528 0
7 3 -6 59.2888 3.28938 0
7 3 -5 55.0608 2.98451 0
7 3 -4 259.803 7.57779 0
7 3 -4 286.015 8.51725 0
7 3 -3 21.4243 1.64523 0
7 3 -3 26.1174 4.95993 0
7 3 -2 13.5434 2.05822 0
-7 -3 2 14.6038 1.89958 0
7 3 -2 15.3219 4.72181 0
7 3 -1 135.812 4.76216 0
-7 -3 1 138 5.19976 0
7 3 -1 146.258 5.77894 0
7 3 0 241.133 7.63868 0
-7 -3 0 239.172 7.52925 0
7 3 0 249.625 8.61924 0
-7 -3 -1 66.7841 3.28098 0
-7 -3 -1 66.4565 3.22342 0
7 3 1 71.6989 4.15325 0
7 3 2 0.50126 1.13559 0
7 3 2 1.21544 1.06018 0
7 3 3 99.4269 5.49682 0
7 3 3 98.6391 5.82689 0
7 3 4 256.962 5.08818 0
7 3 4 261.263 10.4489 0
7 3 5 102.397 5.45308 0
7 3 5 95.7413 5.29692 0
7 3 6 0.09005 2.2922 0
7 3 7 177.52 8.33861 0
7 3 7 183.865 11.3331 0
7 3 8 108.559 3.2191 0
7 3 8 115.895 8.50037 0
7 3 8 113.701 11.8885 0
7 3 9 135.123 5.35717 0
7 3 9 138.455 5.06941 0
7 3 9 143.262 6.37318 0
7 3 9 140.171 6.99131 0
7 3 10 2.14317 0.79824 0
7 3 10 3.0219 1.51598 0
7 3 10 1.98553 1.46232 0
7 3 10 2.93805 1.7038 0
7 3 11 48.2862 1.65728 0
7 3 11 46.3532 2.89312 0
7 3 11 47.833 2.48117 0
7 3 12 175.911 6.05294 0
7 3 12 188.086 9.13346 0
7 3 12 177.424 6.4853 0
7 3 13 106.603 6.10322 0
7 3 13 105.036 6.46491 0
7 3 13 112.242 6.67851 0
7 3 14 0.19214 0.71785 0
7 3 14 0.46167 1.42236 0
7 3 15 29.0325 1.8064 0
7 3 15 34.0639 2.67457 0
7 3 16 32.6278 1.76722 0
7 3 16 34.6747 5.99023 0
7 3 17 78.8924 3.92835 0
7 3 18 3.32749 3.19448 0
7 3 19 16.5036 1.66246 0
7 4 -15 6.66067 3.65788 0
-7 -4 15 6.12719 3.03222 0
7 4 -14 1.25893 1.18377 0
-7 -4 14 0.90401 1.20882 0
7 4 -13 0.55512 0.99256 0
-7 -4 13 0.89264 0.73277 0
7 4 -12 126.426 6.30433 0
7 4 -11 3.17693 1.8315 0
7 4 -10 0.38964 0.93139 0
7 4 -9 4.28516 1.89946 0
7 4 -8 245.622 9.45818 0
7 4 -7 147.649 6.30915 0
7 4 -6 27.3836 2.26977 0
7 4 -5 3.82674 2.77957 0
7 4 -4 488.627 12.9297 0
7 4 -4 466.418 12.9816 0
7 4 -3 7.22176 2.09777 0
7 4 -3 8.79897 2.11719 0
7 4 -2 57.1695 3.32503 0
-7 -4 2 61.352 2.04091 0
7 4 -2 60.3456 3.87651 0
7 4 -1 1.2814 0.88458 0
-7 -4 1 3.15389 1.17393 0
7 4 -1 1.73195 1.2814 0
7 4 0 517.502 15.2594 0
-7 -4 0 512.582 14.8247 0
7 4 0 550.57 16.8841 0
7 4 1 42.9544 2.45881 0
-7 -4 -1 45.3234 2.6598 0
7 4 1 41.2268 2.26211 0
7 4 2 30.9383 1.25455 0
-7 -4 -2 30.6462 1.96345 0
7 4 2 31.5226 2.15679 0
7 4 3 1.56589 1.87821 0
7 4 4 419.946 13.1623 0
7 4 5 58.1847 4.16817 0
7 4 6 104.339 5.28205 0
7 4 7 0.24148 0.15579 0
7 4 7 0.63875 0.46738 0
7 4 7 0.89581 1.2814 0
7 4 8 196.244 5.13568 0
7 4 8 203.277 9.15361 0
7 4 9 60.2364 2.29821 0
7 4 9 57.5893 2.71062 0
7 4 9 59.0486 3.57421 0
7 4 10 139.733 4.52712 0
7 4 10 135.74 4.53046 0
7 4 10 146.631 6.22312 0
7 4 11 10.2534 1.26824 0
7 4 11 11.607 4.18106 0
7 4 12 210.289 8.42862 0
7 4 12 224.084 9.08621 0
7 4 13 35.071 1.68378 0
7 4 13 38.0847 2.51996 0
7 4 14 66.6601 3.31332 0
7 4 14 73.26 4.13027 0
7 4 15 -0.21876 0.76944 0
7 4 15 -0.49787 1.48356 0
7 4 16 69.5757 3.38304 0
7 4 17 48.0921 2.78046 0
7 4 18 43.6596 3.84924 0
7 4 19 1.03336 0.81291 0
7 5 -14 7.43281 5.16334 0
-7 -5 14 6.78039 3.07799 0
7 5 -13 7.30705 4.07177 0
-7 -5 13 4.85079 3.38853 0
7 5 -12 58.5177 2.93875 0
7 5 -11 59.5493 3.23214 0
7 5 -10 22.8392 4.74568 0
7 5 -9 2.40589 1.2151 0
7 5 -8 90.9728 5.35049 0
7 5 -7 101.297 4.42696 0
7 5 -6 82.8939 3.19199 0
7 5 -5 6.76962 2.88705 0
7 5 -4 169.793 6.88316 0
7 5 -4 164.969 7.28395 0
7 5 -3 93.6437 5.94146 0
7 5 -3 102.403 5.31374 0
7 5 -2 123.341 5.33935 0
7 5 -2 134.834 5.22526 0
-7 -5 1 1.43298 1.05899 0
7 5 -1 3.87377 1.86208 0
7 5 0 118.602 5.35462 0
-7 -5 0 117.625 5.32648 0
7 5 0 114.36 6.14253 0
7 5 1 14.5606 2.16392 0
-7 -5 -1 13.3666 4.99617 0
7 5 1 10.6566 4.81687 0
7 5 2 120.801 5.18514 0
-7 -5 -2 103.822 4.58622 0
7 5 2 134.818 6.68653 0
7 5 3 14.1508 2.29904 0
-7 -5 -3 15.3515 2.02856 0
7 5 3 17.6055 4.95871 0
7 5 4 347.012 9.95538 0
-7 -5 -4 290.051 2.55183 0
7 5 4 344.692 11.9546 0
7 5 5 0.50822 0.42018 0
7 5 5 0.28012 0.39217 0
7 5 5 3.11335 1.8448 0
7 5 6 481.979 11.6197 0
7 5 6 485.309 13.1385 0
7 5 7 0.47436 0.50448 0
7 5 7 0.54213 0.99391 0
7 5 8 72.5003 2.71299 0
7 5 8 74.5351 2.88255 0
7 5 8 73.7811 4.30399 0
7 5 9 0.23405 0.48186 0
7 5 9 1.68652 1.10485 0
7 5 9 0.35451 1.34234 0
7 5 10 220.719 6.90237 0
7 5 10 230.094 7.98015 0
7 5 11 4.74131 1.89839 0
7 5 11 5.52997 2.73693 0
7 5 12 26.0789 1.72909 0
7 5 12 27.9774 2.36487 0
7 5 13 1.9772 0.69767 0
7 5 13 2.35005 1.6552 0
7 5 14 269.825 3.85927 0
7 5 14 267.486 14.4563 0
7 5 15 -0.20758 0.78531 0
7 5 15 0.02751 1.03041 0
7 5 16 8.69184 4.03137 0
7 5 17 1.34339 1.41679 0
7 5 18 96.2865 4.68142 0
7 5 19 1.07369 0.88653 0
7 6 -14 1.02868 1.80926 0
-7 -6 14 1.35695 1.24816 0
7 6 -13 3.87205 3.29114 0
7 6 -12 1.64394 0.71345 0
7 6 -11 137.472 4.82448 0
7 6 -10 16.8557 2.61981 0
7 6 -9 66.2714 3.52012 0
7 6 -7 203.764 8.8315 0
7 6 -6 53.3043 4.44252 0
7 6 -5 13.9237 1.91965 0
7 6 -4 23.5658 2.12903 0
7 6 -4 28.4164 7.34093 0
7 6 -3 183.965 6.64463 0
7 6 -3 201.733 7.33048 0
7 6 -2 129.94 5.4312 0
7 6 -2 133.776 6.04173 0
7 6 -1 65.9763 3.06162 0
7 6 -1 69.2131 3.75861 0
7 6 0 1.07581 0.64474 0
7 6 0 1.04957 1.60809 0
7 6 1 209.795 7.12614 0
-7 -6 -1 206.734 6.06008 0
7 6 1 213.02 7.28662 0
7 6 2 120.358 3.81199 0
-7 -6 -2 113.827 3.75792 0
7 6 2 126.75 5.02858 0
7 6 3 26.8313 1.35433 0
-7 -6 -3 29.985 1.42399 0
7 6 3 37.4029 10.6102 0
7 6 4 3.89631 0.93757 0
-7 -6 -4 3.03175 1.40252 0
7 6 4 5.08749 1.97505 0
7 6 5 87.7471 1.94817 0
-7 -6 -5 77.3972 3.24569 0
7 6 5 83.0677 3.78285 0
7 6 6 508.192 12.5198 0
-7 -6 -6 459.687 11.2822 0
7 6 6 497.926 13.3621 0
7 6 7 41.639 1.26092 0
7 6 7 43.1113 2.07765 0
7 6 7 45.5328 2.9517 0
7 6 8 0.30734 0.29353 0
7 6 8 0.5767 1.1465 0
7 6 8 -0.23828 1.79918 0
7 6 9 30.2704 1.28627 0
7 6 9 33.8076 2.98361 0
7 6 9 29.2361 2.1913 0
7 6 10 115.376 5.94659 0
7 6 10 110.477 5.09889 0
7 6 11 55.7582 5.34243 0
7 6 11 55.8311 6.85581 0
7 6 12 6.06726 2.10782 0
7 6 12 8.1023 2.12238 0
7 6 13 38.3345 1.64642 0
7 6 13 34.2902 6.326 0
7 6 14 226.972 10.045 0
7 6 14 228.172 4.85427 0
7 6 15 51.4731 1.84932 0
7 6 15 50.0375 4.00398 0
7 6 16 13.1533 4.41623 0
7 6 17 1.07903 0.64081 0
7 6 18 70.7014 4.8766 0
7 6 19 4.10066 1.19733 0
7 7 -13 20.6247 5.44076 0
7 7 -12 0.8498 0.93904 0
7 7 -11 67.5048 4.73171 0
7 7 -10 0.76116 1.18025 0
7 7 -9 106.614 5.48797 0
7 7 -8 0.81626 1.05307 0
7 7 -7 69.9423 3.92982 0
7 7 -6 3.6662 1.87788 0
7 7 -5 149.895 5.77024 0
7 7 -4 14.2428 6.20425 0
7 7 -4 17.2006 6.32876 0
7 7 -3 76.2252 2.8627 0
7 7 -3 79.8847 3.32249 0
7 7 -2 18.6373 2.77001 0
7 7 -2 23.9166 7.64523 0
7 7 -1 247.765 7.89554 0
7 7 -1 253.06 8.66157 0
7 7 0 1.22343 1.24066 0
7 7 0 0.44802 1.18897 0
7 7 1 112.988 4.7459 0
7 7 1 116.694 5.71897 0
7 7 2 26.0925 1.81321 0
7 7 2 27.024 2.11186 0
7 7 3 136.651 6.17393 0
-7 -7 -3 119.618 4.80274 0
7 7 3 142.786 8.23071 0
7 7 4 7.83901 3.15624 0
-7 -7 -4 5.44781 2.52642 0
7 7 4 9.56836 2.40187 0
7 7 5 29.1772 1.60453 0
-7 -7 -5 28.7233 1.40045 0
7 7 5 34.1913 2.60737 0
7 7 6 49.825 4.87437 0
-7 -7 -6 42.605 1.9 0
7 7 6 50.0254 5.46165 0
7 7 7 329.295 9.8471 0
7 7 7 312.03 9.97853 0
7 7 8 20.4983 6.32477 0
7 7 8 23.4481 5.55625 0
7 7 9 1.78619 1.77038 0
7 7 9 1.69767 1.69451 0
7 7 10 6.63161 2.86608 0
7 7 10 9.53123 3.49722 0
7 7 11 229.431 8.28786 0
7 7 11 232.724 9.11048 0
7 7 12 20.8972 3.39939 0
7 7 12 23.1597 1.88824 0
7 7 13 2.14586 1.11702 0
7 7 13 0.73756 1.8145 0
7 7 14 52.5472 2.9977 0
7 7 14 48.9312 4.4142 0
7 7 15 140.262 7.12671 0
7 7 16 39.2381 5.38575 0
7 7 17 5.02493 2.03158 0
7 7 18 7.27129 3.09586 0
7 7 19 41.968 5.63018 0
7 8 -12 12.6739 1.50148 0
7 8 -11 6.52109 4.66885 0
7 8 -10 0.22528 0.89473 0
7 8 -9 92.6613 3.70332 0
7 8 -8 15.8333 3.66485 0
7 8 -7 0.79374 1.0994 0
7 8 -6 30.6359 1.96308 0
7 8 -5 162.361 7.92733 0
7 8 -4 28.6611 4.03055 0
7 8 -4 38.4629 9.66031 0
7 8 -3 0.89094 0.87335 0
7 8 -3 0.75319 0.973 0
7 8 -2 2.37374 2.03593 0
7 8 -2 4.39157 2.24706 0
7 8 -1 288.805 8.97261 0
7 8 -1 297.66 9.91693 0
7 8 0 1.32042 2.24503 0
7 8 0 1.79539 1.38692 0
7 8 1 6.25913 2.38827 0
7 8 1 4.19639 1.60829 0
7 8 2 0.58067 1.64087 0
7 8 2 2.06822 0.93951 0
7 8 3 164.13 5.77505 0
7 8 3 163.759 6.27709 0
7 8 4 0.66237 0.76402 0
7 8 4 -0.16067 1.67559 0
7 8 5 21.6238 4.84761 0
7 8 5 25.6087 7.14933 0
7 8 6 -0.09959 1.7091 0
7 8 6 -0.83849 1.63843 0
7 8 7 359.949 10.6693 0
7 8 7 331.828 10.4044 0
7 8 8 -0.41274 1.53392 0
7 8 8 0.73 0.80084 0
7 8 9 27.3186 2.47696 0
7 8 9 26.332 5.40674 0
7 8 10 3.01451 1.16211 0
7 8 10 3.38732 1.54366 0
7 8 11 261.7 10.5545 0
7 8 11 245.523 10.2543 0
7 8 12 1.0896 1.46801 0
7 8 12 3.65259 1.21574 0
7 8 13 58.3818 2.18192 0
7 8 13 59.9799 2.78631 0
7 8 14 -0.18546 0.96389 0
7 8 14 -0.76867 1.4861 0
7 8 15 143.785 8.22254 0
7 8 16 6.14146 2.72093 0
7 8 17 43.3119 3.89407 0
7 8 18 0.30658 0.73063 0
7 8 19 28.5042 2.50947 0
7 9 -10 2.80039 2.61224 0
7 9 -9 5.54399 2.47834 0
7 9 -8 73.8919 6.18901 0
7 9 -7 2.28582 2.23553 0
7 9 -6 7.12826 4.56438 0
7 9 -5 32.3159 2.03717 0
7 9 -4 119.792 6.07584 0
7 9 -4 122.933 6.3974 0
7 9 -3 2.95933 2.4504 0
7 9 -3 3.54097 1.64258 0
7 9 -2 4.39931 2.32921 0
7 9 -2 7.79282 2.25956 0
7 9 -1 93.0369 4.87099 0
7 9 -1 94.1706 6.10525 0
7 9 0 131.649 5.10306 0
7 9 0 133.742 5.82914 0
7 9 1 69.5118 3.31207 0
7 9 1 68.6972 3.72533 0
7 9 2 3.1026 1.40399 0
7 9 2 5.78731 2.18865 0
7 9 3 103.763 4.26899 0
7 9 3 111.566 4.96183 0
7 9 4 69.7331 3.15647 0
7 9 4 75.8915 3.68355 0
7 9 5 103.942 4.18808 0
7 9 5 109.572 4.64068 0
7 9 6 3.94461 1.67773 0
7 9 6 3.20294 0.93606 0
7 9 7 41.1711 2.90939 0
7 9 7 41.1003 4.51752 0
7 9 8 36.974 3.25952 0
7 9 8 33.7667 2.50264 0
7 9 9 90.2715 7.21301 0
7 9 9 98.279 6.30537 0
7 9 10 1.86467 1.41014 0
7 9 10 0.65989 0.82691 0
7 9 11 28.3393 7.16009 0
7 9 11 33.2069 2.81544 0
7 9 12 61.9544 4.50005 0
7 9 12 50.6585 3.93373 0
7 9 13 175.357 7.98593 0
7 9 13 181.735 9.41843 0
7 9 14 -0.18203 1.09918 0
7 9 14 1.85531 1.79696 0
7 9 15 46.1616 5.14917 0
7 9 16 4.70249 2.92173 0
7 9 17 70.9311 4.85424 0
7 9 18 0.45907 1.65688 0
7 10 -9 0.36704 0.82873 0
7 10 -8 87.6518 5.99341 0
7 10 -7 1.01572 1.4474 0
7 10 -5 5.2265 2.36568 0
7 10 -4 114.761 5.71941 0
7 10 -3 5.28885 3.24711 0
7 10 -3 5.02072 1.89907 0
7 10 -2 23.9785 4.52865 0
7 10 -2 23.0875 5.9172 0
7 10 -1 5.55236 2.94716 0
7 10 -1 7.4658 2.44074 0
7 10 0 170.885 8.30619 0
7 10 0 169.976 8.48798 0
7 10 1 43.2869 2.75244 0
7 10 1 50.6258 3.42829 0
7 10 2 1.48979 2.05364 0
7 10 2 2.45166 0.92594 0
7 10 3 18.4535 4.3917 0
7 10 3 15.7209 4.98283 0
7 10 4 163.06 7.05796 0
7 10 4 173.996 7.95314 0
7 10 5 28.238 1.70801 0
7 10 5 27.4063 5.22171 0
7 10 6 24.8617 2.8464 0
7 10 6 24.2359 5.19163 0
7 10 7 40.7465 3.13393 0
7 10 7 38.394 2.31971 0
7 10 8 167.62 7.98829 0
7 10 8 148.387 8.91909 0
7 10 9 90.9184 5.77168 0
7 10 9 89.0496 7.1399 0
7 10 10 74.5036 4.71833 0
7 10 10 76.1436 3.85117 0
7 10 11 0.56627 1.14737 0
7 10 11 1.33531 2.71759 0
7 10 12 41.8055 3.38737 0
7 10 12 42.0039 2.25426 0
7 10 13 66.0201 3.15446 0
7 10 13 66.8041 4.08835 0
7 10 14 35.0748 2.70045 0
7 10 15 0.09164 0.70326 0
7 10 16 33.4068 4.49268 0
7 10 17 19.3594 2.24965 0
7 11 -7 11.6313 5.33906 0
7 11 -6 40.5099 5.58506 0
7 11 -5 0.79315 0.99777 0
7 11 -4 91.6254 3.92124 0
7 11 -3 1.02591 1.02817 0
7 11 -3 0.45546 0.52761 0
7 11 -2 49.3812 2.92224 0
7 11 -2 52.373 3.03356 0
7 11 -1 0.93964 1.15611 0
7 11 -1 1.67946 0.93726 0
7 11 0 89.8013 3.85926 0
7 11 0 96.6006 4.03191 0
7 11 1 1.13419 1.82758 0
7 11 1 1.03761 1.57003 0
7 11 2 64.5299 3.59085 0
7 11 2 60.9792 2.70946 0
7 11 3 0.16728 0.96062 0
7 11 3 1.32053 1.33574 0
7 11 4 60.4826 4.65682 0
7 11 4 58.5068 2.75488 0
7 11 5 2.74363 1.36164 0
7 11 5 1.34891 1.63396 0
7 11 6 102.344 5.99 0
7 11 6 103.868 5.7267 0
7 11 7 1.29578 0.91231 0
7 11 7 0.95742 0.91231 0
7 11 8 54.9429 5.11045 0
7 11 8 51.6553 2.47495 0
7 11 9 7.28408 2.39732 0
7 11 9 8.29488 2.54519 0
7 11 10 137.407 6.44367 0
7 11 10 135.917 6.44604 0
7 11 11 5.06449 3.16386 0
7 11 11 5.03216 1.66507 0
7 11 12 6.13813 2.58767 0
7 11 12 6.88773 2.17696 0
7 11 13 0.66356 1.03559 0
7 11 14 113.731 4.78316 0
7 11 15 3.01315 2.26491 0
7 11 16 1.9445 1.16205 0
7 12 -5 3.25425 2.74184 0
7 12 -4 6.69312 4.16145 0
7 12 -3 19.4491 2.91169 0
7 12 -2 40.2128 4.70193 0
7 12 -2 51.8848 4.5108 0
7 12 -1 6.29471 4.51458 0
7 12 -1 6.42979 2.40327 0
7 12 0 4.11016 2.94313 0
7 12 0 4.3569 1.51825 0
7 12 1 9.98189 4.63832 0
7 12 1 12.2445 5.46789 0
7 12 2 61.1617 3.1836 0
7 12 2 57.3757 3.18131 0
7 12 3 6.53786 4.42484 0
7 12 3 8.50753 2.72796 0
7 12 4 5.5127 1.78953 0
7 12 4 5.31515 1.84764 0
7 12 5 8.7924 3.96926 0
7 12 5 10.9422 2.90831 0
7 12 6 130.094 6.18137 0
7 12 6 115.607 5.84272 0
7 12 7 12.5271 6.10926 0
7 12 7 14.5604 4.81971 0
7 12 8 0.6581 1.55303 0
7 12 8 0.81751 0.45543 0
7 12 9 18.2331 3.26656 0
7 12 9 16.086 5.36649 0
7 12 10 100.309 3.9365 0
7 12 10 98.8773 3.72943 0
7 12 11 11.3165 4.86899 0
7 12 11 11.1722 5.40736 0
7 12 12 6.78406 3.15626 0
7 12 12 6.88047 2.72033 0
7 12 13 5.36698 2.13947 0
7 12 14 95.4294 4.7759 0
7 12 15 1.90185 2.21756 0
7 13 -2 11.3023 1.62541 0
7 13 -1 50.6948 5.8929 0
7 13 -1 53.7048 4.17067 0
7 13 0 1.85592 1.71206 0
7 13 0 1.84781 1.79513 0
7 13 1 26.3303 5.801 0
7 13 1 25.2971 5.00498 0
7 13 2 28.5725 5.28322 0
7 13 2 28.7231 4.72687 0
7 13 3 59.8642 5.81799 0
7 13 3 66.1408 7.47695 0
7 13 4 0.84017 1.65907 0
7 13 4 0.83591 1.12944 0
7 13 5 5.20048 2.27508 0
7 13 5 3.68234 1.42645 0
7 13 6 38.3996 3.24219 0
7 13 6 30.2845 1.97554 0
7 13 7 59.5714 4.111 0
7 13 7 60.0033 4.29729 0
7 13 8 33.9592 2.83692 0
7 13 8 24.226 7.97399 0
7 13 9 4.40276 2.52827 0
7 13 10 19.0281 3.42562 0
7 13 10 14.9617 6.27759 0
7 13 11 76.9931 5.21274 0
7 13 12 13.1068 5.52509 0
7 13 13 1.8312 1.57122 0
7 14 2 4.32314 2.30262 0
7 14 2 3.11845 2.29691 0
7 14 3 113.896 5.71404 0
7 14 3 117.279 5.93166 0
7 14 4 1.27598 1.34385 0
7 14 4 0.6981 0.65544 0
7 14 5 2.45163 1.70252 0
7 14 6 0.93572 0.9221 0
7 14 6 0.27235 0.7762 0
7 14 7 72.5384 3.91104 0
7 14 7 73.1664 4.18237 0
7 14 8 4.92561 1.94138 0
7 14 8 3.26129 2.838 0
7 14 9 8.144 5.74345 0
-8 9 8 2.39365 2.49706 0
8 -9 -8 2.30939 1.98577 0
-8 9 7 59.9828 3.91629 0
8 -9 -7 66.0678 3.92019 0
-8 9 6 1.19007 1.56431 0
8 -9 -6 1.1366 1.29897 0
-8 9 5 2.85309 2.68279 0
8 -9 -5 2.44436 2.01961 0
-8 9 4 11.1405 5.51872 0
8 -9 -4 11.1142 5.71467 0
-8 9 3 96.1781 6.57014 0
8 -9 -3 100.729 6.76493 0
-8 9 2 4.33503 2.47513 0
8 -9 -2 4.28224 1.63655 0
-8 9 1 1.56265 0.96754 0
8 -9 -1 1.52621 1.1234 0
-8 9 0 1.77311 1.45949 0
8 -9 0 1.4012 1.19212 0
-8 9 -1 72.4298 3.97669 0
8 -9 1 76.1081 4.63914 0
-8 9 -2 0.65522 1.05934 0
8 -9 2 1.76165 1.54193 0
-8 9 -3 6.93978 4.44462 0
8 -9 3 6.76817 4.82449 0
8 -9 4 1.39647 1.54009 0
-8 8 11 24.8604 3.8464 0
-8 8 10 16.7207 1.77365 0
-8 8 9 0.47991 0.6767 0
8 -8 -9 0.21084 0.54417 0
-8 8 8 22.9913 6.53982 0
8 -8 -8 26.5566 1.87734 0
-8 8 7 55.3375 6.54852 0
8 -8 -7 60.5712 4.34815 0
-8 8 6 12.1702 6.70955 0
8 -8 -6 19.8716 3.84107 0
-8 8 5 1.27365 1.77355 0
8 -8 -5 0.67812 1.26061 0
-8 8 4 11.3031 4.01644 0
8 -8 -4 10.7785 4.95141 0
-8 8 3 68.3035 7.31335 0
8 -8 -3 74.1931 3.43041 0
-8 8 2 33.7686 2.32689 0
8 -8 -2 35.1997 2.40209 0
-8 8 1 1.1834 1.56094 0
8 -8 -1 0.15455 1.60951 0
-8 8 0 12.3101 4.55784 0
8 -8 0 12.9929 7.39002 0
-8 8 -1 59.9807 4.34927 0
8 -8 1 50.7342 5.10169 0
-8 8 -2 30.2871 3.5265 0
8 -8 2 24.5354 3.61653 0
-8 8 -3 0.42951 0.64005 0
8 -8 3 1.12219 1.60854 0
-8 8 -4 14.3435 1.52069 0
8 -8 4 10.754 5.22763 0
-8 8 -5 54.7079 4.40856 0
8 -8 5 51.3206 5.69112 0
-8 8 -6 4.98139 3.19184 0
8 -8 6 4.21472 3.16055 0
-8 8 -7 6.09337 3.96544 0
8 -8 7 9.86519 5.05503 0
-8 7 12 28.3837 2.67328 0
-8 7 11 0.96134 1.38972 0
-8 7 10 96.1463 6.38173 0
-8 7 9 1.26693 2.14305 0
8 -7 -9 4.09284 1.66849 0
-8 7 8 11.7671 5.33302 0
8 -7 -8 13.4065 1.71222 0
-8 7 7 2.55985 1.69302 0
8 -7 -7 3.08808 2.88491 0
-8 7 6 136.992 6.72494 0
8 -7 -6 124.832 6.13326 0
-8 7 5 0.98742 1.15355 0
8 -7 -5 1.14185 1.75723 0
-8 7 4 0.67513 0.95702 0
8 -7 -4 0.88596 0.7533 0
-8 7 3 7.62107 3.29825 0
8 -7 -3 8.89165 3.71142 0
-8 7 2 85.2418 4.17638 0
8 -7 -2 84.2324 4.04692 0
-8 7 1 6.21045 2.42955 0
8 -7 -1 4.56679 2.98063 0
-8 7 0 1.4733 1.81422 0
8 -7 0 0.81294 1.70694 0
-8 7 -1 6.88716 3.78132 0
8 -7 1 10.0757 3.80967 0
-8 7 -2 110.314 6.58101 0
8 -7 2 103.357 5.40417 0
-8 7 -3 16.4173 6.97741 0
8 -7 3 11.2885 5.42662 0
8 -7 4 4.21199 2.50206 0
-8 7 -5 18.4694 2.32538 0
8 -7 5 23.576 2.19607 0
-8 7 -6 28.2526 6.02874 0
8 -7 6 30.8486 8.52882 0
-8 7 -7 15.2072 3.53839 0
8 -7 7 11.7843 6.01072 0
-8 7 -8 0.78079 0.83457 0
8 -7 8 0.6812 1.29468 0
-8 7 -9 3.90228 3.59117 0
8 -7 9 4.36702 2.33522 0
-8 6 13 3.35807 2.74484 0
-8 6 12 0.58215 1.22762 0
-8 6 11 6.74457 2.9768 0
-8 6 10 102.337 3.82254 0
-8 6 9 7.55342 2.68789 0
8 -6 -9 7.58531 3.46464 0
-8 6 8 4.31883 2.67579 0
8 -6 -8 3.32127 1.40831 0
-8 6 7 0.63194 0.82489 0
8 -6 -7 0.51857 1.03473 0
-8 6 6 76.0462 7.13921 0
8 -6 -6 82.1355 5.72125 0
-8 6 5 14.5877 6.447 0
8 -6 -5 16.4905 6.19497 0
-8 6 4 55.2226 3.10306 0
8 -6 -4 51.4488 4.6213 0
-8 6 3 0.71449 0.8724 0
8 -6 -3 1.48593 1.9286 0
-8 6 2 93.8986 4.72736 0
8 -6 -2 94.7399 4.83154 0
-8 6 1 1.6009 1.69998 0
8 -6 -1 0.96471 1.48097 0
-8 6 0 41.0217 3.97051 0
8 -6 0 42.2708 4.28213 0
-8 6 -1 1.88631 1.55949 0
8 -6 1 0.51983 1.35362 0
-8 6 -2 138.929 6.90345 0
8 -6 2 139.648 7.18263 0
-8 6 -3 1.50265 0.74759 0
8 -6 3 0.67532 1.00177 0
-8 6 -4 33.757 2.03961 0
8 -6 4 47.0693 2.88274 0
-8 6 -5 1.54101 1.14448 0
8 -6 5 2.84219 1.98502 0
-8 6 -6 47.6645 2.6989 0
8 -6 6 47.6575 2.84192 0
-8 6 -7 0.68185 1.03508 0
8 -6 7 1.28546 1.319 0
-8 6 -8 28.9678 2.97909 0
8 -6 8 27.6932 2.89916 0
-8 6 -9 0.31363 0.98451 0
8 -6 9 -0.40086 1.07174 0
8 -6 10 51.2223 3.06772 0
8 -6 11 3.40866 3.7201 0
-8 5 14 46.5486 3.46192 0
-8 5 13 86.8094 5.88011 0
-8 5 12 13.5804 5.03755 0
-8 5 11 2.87986 1.99649 0
-8 5 10 35.8908 3.73003 0
-8 5 9 64.0842 3.14167 0
8 -5 -9 60.038 2.63409 0
-8 5 8 50.1397 3.18572 0
8 -5 -8 50.3439 5.90567 0
-8 5 7 5.02749 5.06349 0
8 -5 -7 4.91434 3.31223 0
-8 5 6 3.50002 2.06086 0
8 -5 -6 2.21694 1.41271 0
-8 5 5 112.125 5.08413 0
8 -5 -5 110.227 4.9432 0
-8 5 4 59.8346 5.65604 0
8 -5 -4 53.2833 3.72188 0
-8 5 3 1.505 1.24156 0
8 -5 -3 0.35593 0.83798 0
-8 5 2 66.1038 4.30589 0
8 -5 -2 73.3189 4.97595 0
-8 5 1 71.5086 5.26657 0
8 -5 -1 74.2595 4.88654 0
-8 5 0 140.533 8.26563 0
8 -5 0 132.756 7.94881 0
-8 5 -1 8.93859 4.6741 0
8 -5 1 7.74341 3.30498 0
-8 5 -2 68.2137 4.55515 0
8 -5 2 66.0164 4.48596 0
-8 5 -3 33.5594 2.1942 0
8 -5 3 29.0298 2.89483 0
-8 5 -4 131.296 6.68841 0
8 -5 4 140.735 7.48136 0
-8 5 -5 1.02898 0.97482 0
8 -5 5 1.78975 1.12955 0
8 -5 5 -0.07221 1.41065 0
-8 5 -6 25.391 2.60106 0
8 -5 6 27.5398 3.71545 0
8 -5 6 27.2575 2.18879 0
-8 5 -7 21.9333 1.74993 0
8 -5 7 18.7665 1.49891 0
8 -5 7 18.1921 1.95751 0
-8 5 -8 62.0867 5.17874 0
8 -5 8 60.6792 2.9523 0
8 -5 8 54.1627 3.36874 0
-8 5 -9 0.40748 0.5351 0
8 -5 9 0.57092 0.7075 0
8 -5 9 1.39932 1.33663 0
-8 5 -10 11.2631 1.25719 0
8 -5 10 7.01017 5.73794 0
8 -5 10 9.15062 4.16269 0
-8 5 -11 3.32247 1.61195 0
8 -5 11 2.57502 2.10478 0
8 -5 11 4.85845 2.11915 0
8 -5 12 65.9434 3.74574 0
8 -5 12 59.3634 3.47917 0
-8 4 15 0.69992 1.17356 0
-8 4 14 1.71019 1.41575 0
-8 4 13 140.539 5.68087 0
-8 4 12 9.07121 3.64093 0
-8 4 11 34.6934 1.86019 0
-8 4 10 -0.18186 1.29968 0
8 -4 -10 -0.06547 0.47768 0
-8 4 9 123.429 9.12464 0
8 -4 -9 123.128 5.90358 0
-8 4 8 9.47755 2.33322 0
8 -4 -8 8.24386 3.33279 0
-8 4 7 20.2228 6.79642 0
8 -4 -7 22.7521 3.68879 0
-8 4 6 2.60765 1.60688 0
8 -4 -6 1.88315 1.16992 0
-8 4 5 121.354 7.10082 0
8 -4 -5 117.808 7.04292 0
-8 4 4 77.7445 3.68065 0
8 -4 -4 75.9351 5.88491 0
-8 4 3 165.891 6.30259 0
8 -4 -3 150.811 6.18604 0
-8 4 2 1.82832 2.06365 0
8 -4 -2 1.16458 2.36536 0
-8 4 1 127.765 5.17681 0
8 -4 -1 135.328 9.40798 0
-8 4 0 42.4417 3.3957 0
8 -4 0 43.8714 2.36881 0
-8 4 -1 71.6561 3.60825 0
8 -4 1 66.581 3.61428 0
-8 4 -2 0.60797 1.28746 0
8 -4 2 0.88215 0.5126 0
8 -4 2 -0.50366 1.71065 0
-8 4 -3 148.312 5.54044 0
8 -4 3 161.697 5.33785 0
8 -4 3 145.704 6.08656 0
-8 4 -4 134.738 7.7554 0
8 -4 4 147.41 8.09259 0
8 -4 4 141.79 8.61134 0
-8 4 -5 48.5608 4.04276 0
8 -4 5 47.7993 2.30975 0
8 -4 5 52.5195 3.84399 0
-8 4 -6 15.853 6.17227 0
8 -4 6 18.4546 3.44619 0
8 -4 6 17.3988 5.85825 0
-8 4 -7 64.23 4.82742 0
8 -4 7 64.35 2.4098 0
8 -4 7 66.9163 4.12065 0
-8 4 -8 60.2952 3.88824 0
8 -4 8 60.7286 2.39507 0
8 -4 8 64.8549 3.98594 0
-8 4 -9 64.6068 3.70602 0
8 -4 9 61.3042 3.47304 0
8 -4 9 65.6948 5.03903 0
-8 4 -10 0.72447 0.80037 0
8 -4 10 2.24931 1.61454 0
8 -4 10 1.26955 1.01196 0
-8 4 -11 15.3575 2.36625 0
8 -4 11 15.2914 4.54099 0
8 -4 11 15.2716 2.75585 0
8 -4 12 45.8135 3.32392 0
8 -4 12 44.5301 3.27149 0
8 -4 13 28.5098 2.45492 0
8 -4 13 24.0287 2.00622 0
8 -4 14 3.75462 4.16421 0
8 -4 14 4.0694 2.14468 0
-8 3 15 46.1328 4.41649 0
-8 3 14 -0.06002 1.04319 0
-8 3 13 90.607 4.21088 0
-8 3 12 10.6262 4.59073 0
-8 3 11 174.431 8.26334 0
-8 3 10 1.68535 1.26464 0
8 -3 -10 0.00252 0.33254 0
-8 3 9 55.6915 3.28249 0
8 -3 -9 66.3886 4.44613 0
-8 3 8 18.5887 4.25216 0
8 -3 -8 16.5454 5.62819 0
-8 3 7 77.2731 6.70179 0
8 -3 -7 77.7701 4.51574 0
-8 3 6 7.80117 3.20859 0
8 -3 -6 7.0175 2.63193 0
-8 3 5 39.5458 5.59476 0
8 -3 -5 41.7254 2.3314 0
-8 3 4 1.35741 1.50651 0
8 -3 -4 0.83557 1.3015 0
-8 3 3 219.008 7.20004 0
8 -3 -3 200.655 7.0956 0
-8 3 2 1.8061 1.38264 0
8 -3 -2 0.63197 0.88861 0
-8 3 1 27.3427 2.44397 0
8 -3 -1 24.0129 7.87824 0
-8 3 0 3.53857 2.0817 0
8 -3 0 3.59684 1.11369 0
8 -3 0 3.30223 1.74824 0
-8 3 -1 149.876 6.97204 0
8 -3 1 136.2 4.58466 0
8 -3 1 146.216 6.11825 0
-8 3 -2 1.02936 1.76234 0
8 -3 2 0.32506 0.73935 0
8 -3 2 -0.80309 1.75915 0
-8 3 -3 13.3487 3.32306 0
8 -3 3 15.0698 3.06286 0
8 -3 3 16.051 5.83417 0
-8 3 -4 15.4945 1.6974 0
8 -3 4 16.5995 2.4402 0
8 -3 4 16.664 7.19475 0
-8 3 -5 206.028 7.73691 0
8 -3 5 214.247 7.9465 0
8 -3 5 193.743 8.87469 0
-8 3 -6 6.00942 2.4061 0
8 -3 6 6.21624 2.19054 0
8 -3 6 6.74058 2.85761 0
-8 3 -7 6.53913 4.09328 0
8 -3 7 9.29704 4.13264 0
8 -3 7 12.7887 5.58891 0
-8 3 -8 22.7381 2.47557 0
8 -3 8 21.1838 1.79674 0
8 -3 8 20.5157 7.86041 0
-8 3 -9 176.254 8.02886 0
8 -3 9 188.054 8.81398 0
8 -3 9 185.585 9.20268 0
8 -3 10 1.99893 1.78528 0
8 -3 10 4.25816 2.07505 0
-8 3 -11 0.19897 0.50797 0
8 -3 11 0.63671 1.01359 0
8 -3 11 0.25983 0.66949 0
8 -3 12 11.5342 5.85745 0
8 -3 12 9.62408 4.83101 0
8 -3 13 37.01 5.56477 0
8 -3 13 41.1598 3.20139 0
8 -3 14 1.73949 1.33931 0
8 -3 14 1.1362 1.11609 0
8 -3 15 2.78942 2.75701 0
8 -3 15 3.48726 3.4701 0
-8 2 16 95.2098 6.31514 0
-8 2 15 64.5418 6.01673 0
-8 2 14 4.94505 2.74655 0
-8 2 13 2.60702 2.32897 0
-8 2 12 49.1685 4.90632 0
-8 2 11 103.076 7.00747 0
-8 2 10 44.0298 2.83117 0
-8 2 9 0.01092 0.81322 0
8 -2 -9 0.2456 0.74772 0
-8 2 8 123.693 8.33206 0
8 -2 -8 115.767 6.8489 0
-8 2 7 129.016 5.19458 0
8 -2 -7 127.665 4.77604 0
-8 2 6 45.5857 2.46841 0
8 -2 -6 45.6502 2.1706 0
-8 2 5 10.6263 2.6653 0
-8 2 5 8.40473 0.59898 0
8 -2 -5 9.58368 4.88058 0
-8 2 4 77.4682 3.29645 0
8 -2 -4 80.807 3.6812 0
-8 2 3 310.112 9.35262 0
8 -2 -3 300.499 12.4112 0
-8 2 2 40.2077 2.17238 0
8 -2 -2 37.9231 2.63133 0
-8 2 1 24.5372 4.07807 0
8 -2 -1 20.2494 1.40635 0
-8 2 1 20.717 1.18628 0
8 -2 -1 19.6751 8.4656 0
-8 2 0 1.4986 0.89087 0
8 -2 0 0.70441 0.60773 0
-8 2 0 0.07251 0.42472 0
8 -2 0 -1.89224 1.71959 0
-8 2 -1 184.038 4.14436 0
8 -2 1 176.755 6.43683 0
8 -2 1 180.968 5.77938 0
-8 2 -2 23.8572 3.09329 0
8 -2 2 25.4379 1.28433 0
-8 2 -2 20.0962 2.78328 0
8 -2 2 25.9557 2.59932 0
-8 2 -3 19.7425 1.89555 0
8 -2 3 19.2 2.76964 0
8 -2 3 19.4578 6.3665 0
-8 2 -4 10.3259 3.70489 0
8 -2 4 10.3063 1.28951 0
8 -2 4 12.5122 4.13364 0
-8 2 -5 337.909 9.94384 0
8 -2 5 349.855 10.7587 0
8 -2 5 327.259 11.4812 0
-8 2 -6 42.8045 1.71206 0
8 -2 6 48.7273 2.12233 0
8 -2 6 48.9155 3.58144 0
-8 2 -7 17.472 2.05237 0
8 -2 7 17.0902 3.14419 0
8 -2 7 18.4206 3.04276 0
-8 2 -8 0.8732 1.01729 0
8 -2 8 -0.07205 0.98271 0
8 -2 8 0.89337 1.00865 0
-8 2 -9 193.617 10.3699 0
8 -2 9 218.581 10.9278 0
8 -2 9 214.788 11.7166 0
-8 2 -10 7.68857 1.43523 0
8 -2 10 5.57362 3.37502 0
8 -2 10 5.26775 5.66512 0
-8 2 -11 34.1734 1.60673 0
8 -2 11 28.8367 5.24235 0
8 -2 11 32.5542 2.42375 0
-8 2 -12 0.44101 0.43629 0
8 -2 12 1.02351 1.04474 0
8 -2 12 -0.1415 0.93861 0
8 -2 13 77.7198 4.14771 0
8 -2 13 74.1681 3.4217 0
8 -2 14 5.34036 4.59232 0
8 -2 14 7.46332 3.01763 0
8 -2 15 39.3131 2.91729 0
8 -2 15 34.1877 2.1518 0
8 -2 16 0.93136 1.27919 0
8 -2 16 0.07033 0.83632 0
-8 1 16 34.04 2.8988 0
-8 1 15 19.225 5.03372 0
-8 1 14 58.0267 4.1659 0
-8 1 13 2.83352 1.25035 0
-8 1 12 25.1715 7.54978 0
-8 1 11 15.4453 3.81121 0
-8 1 10 199.562 10.6257 0
-8 1 10 194.613 8.84461 0
-8 1 9 1.22862 0.99965 0
-8 1 9 1.06667 0.68691 0
8 -1 -9 1.2007 0.92705 0
-8 1 8 14.8411 2.30823 0
-8 1 8 16.4092 1.19069 0
8 -1 -8 13.2789 2.19706 0
-8 1 7 59.8648 3.16359 0
8 -1 -7 59.9956 2.83202 0
-8 1 6 179.862 7.00046 0
8 -1 -6 178.743 6.8898 0
-8 1 5 23.5767 1.8406 0
8 -1 -5 23.2978 4.11755 0
-8 1 4 6.41274 1.67274 0
-8 1 4 4.48213 1.40469 0
8 -1 -4 4.70267 1.62185 0
-8 1 3 59.0831 2.94351 0
-8 1 3 55.3819 2.23818 0
8 -1 -3 55.3889 3.22634 0
-8 1 2 328.818 9.02054 0
8 -1 -2 351.79 9.26695 0
-8 1 2 318.976 8.2849 0
8 -1 -2 324.74 9.94902 0
-8 1 1 67.6664 2.91175 0
-8 1 1 71.1946 3.11481 0
8 -1 -1 66.4372 2.69781 0
-8 1 1 66.6366 2.66517 0
8 -1 -1 69.4432 3.94518 0
-8 1 0 14.8173 4.94642 0
8 -1 0 11.7304 3.42669 0
-8 1 0 9.80516 1.46128 0
8 -1 0 17.1627 2.94082 0
-8 1 -1 118.704 4.9977 0
8 -1 1 128.955 5.01231 0
8 -1 1 123.245 4.75676 0
-8 1 -1 125.103 4.90644 0
8 -1 1 119.532 5.78989 0
-8 1 -2 241.803 7.2914 0
8 -1 2 260.703 6.9802 0
8 -1 2 253.922 7.62792 0
-8 1 -2 252.449 7.06705 0
8 -1 2 245.975 7.9753 0
-8 1 -3 109.438 4.51291 0
8 -1 3 112.709 4.33851 0
8 -1 3 116.98 5.59131 0
8 -1 3 108.345 7.58083 0
-8 1 -4 2.28025 1.28612 0
8 -1 4 2.9546 1.46339 0
8 -1 4 2.534 1.40778 0
8 -1 4 4.59179 3.52466 0
-8 1 -5 197.34 6.12141 0
8 -1 5 194.748 5.80083 0
8 -1 5 206.343 6.69508 0
8 -1 5 193.344 7.57584 0
-8 1 -6 268.034 8.47816 0
8 -1 6 292.64 9.13685 0
8 -1 6 276.861 13.4607 0
-8 1 -7 76.257 1.84706 0
8 -1 7 79.6119 3.05958 0
8 -1 7 75.6979 4.20928 0
-8 1 -8 44.5656 1.47756 0
8 -1 8 48.9016 3.61383 0
8 -1 8 51.6996 2.79498 0
-8 1 -9 38.1777 2.00522 0
8 -1 9 39.1716 2.45567 0
8 -1 9 42.255 4.85613 0
-8 1 -10 64.8443 3.74389 0
8 -1 10 61.0091 3.97079 0
8 -1 10 65.1293 7.71745 0
-8 1 -11 83.1017 3.66544 0
8 -1 11 91.2192 4.38909 0
8 -1 11 83.8175 5.54536 0
8 -1 12 0.32766 0.89611 0
8 -1 12 0.63795 1.00037 0
8 -1 13 29.7815 2.17914 0
8 -1 13 32.9903 3.20406 0
8 -1 14 64.0707 3.07762 0
8 -1 14 60.8304 2.6698 0
8 -1 15 39.0806 3.10234 0
8 -1 15 35.4219 4.16034 0
8 -1 16 5.04389 3.75507 0
8 -1 16 4.51086 3.62977 0
-8 0 16 0.99463 1.08557 0
-8 0 15 1.03425 1.27725 0
-8 0 14 131.027 5.46862 0
-8 0 13 0.09243 0.80708 0
-8 0 13 0.69211 0.93784 0
-8 0 12 0.6362 0.91022 0
-8 0 12 0.62905 0.87209 0
-8 0 11 0.32529 0.88762 0
-8 0 11 0.36059 0.51694 0
-8 0 10 214.493 10.8919 0
-8 0 10 226.154 10.2779 0
-8 0 9 -0.04801 1.18322 0
-8 0 9 0.49701 0.52525 0
-8 0 8 23.7545 2.83954 0
-8 0 7 0.94745 1.2931 0
8 0 -7 1.08942 0.65735 0
-8 0 6 188.789 6.33182 0
8 0 -6 187.716 8.47034 0
-8 0 5 9.62566 2.26881 0
8 0 -5 9.94786 3.72541 0
-8 0 4 33.7429 1.9453 0
-8 0 4 25.6689 2.27649 0
8 0 -4 26.7322 2.17539 0
-8 0 3 2.55476 1.34765 0
8 0 -3 2.12957 1.05578 0
-8 0 3 1.90977 1.12064 0
8 0 -3 2.807 1.25036 0
-8 0 2 356.107 9.61811 0
-8 0 2 338.414 8.90017 0
8 0 -2 341.733 8.94458 0
-8 0 2 342.851 8.82616 0
8 0 -2 336.56 12.7563 0
-8 0 1 0.75446 0.92799 0
-8 0 1 1.2939 1.10151 0
8 0 -1 0.68279 0.47908 0
-8 0 1 0.61866 1.00343 0
8 0 -1 1.4448 0.74692 0
-8 0 0 13.9086 1.12505 0
-8 0 0 16.7841 2.21195 0
8 0 0 17.0625 4.50018 0
-8 0 0 15.0642 1.13649 0
8 0 0 15.7735 7.13927 0
-8 0 -1 2.18635 0.92117 0
-8 0 -1 2.12519 1.51745 0
8 0 1 2.97374 0.99762 0
-8 0 -1 1.54803 1.72385 0
8 0 1 1.57478 2.43098 0
-8 0 -2 265.426 6.82411 0
-8 0 -2 266.642 7.47348 0
8 0 2 255.758 6.97601 0
8 0 2 246.743 9.03805 0
-8 0 -3 43.4731 2.19217 0
8 0 3 44.3298 2.51015 0
8 0 3 41.5054 3.25833 0
-8 0 -4 67.173 2.46785 0
8 0 4 65.5388 3.16982 0
8 0 4 71.4031 8.18595 0
-8 0 -5 90.1715 3.49147 0
8 0 5 93.7801 4.8469 0
8 0 5 94.1597 6.53941 0
-8 0 -6 317.526 8.11132 0
8 0 6 344.832 8.7379 0
8 0 6 337.854 9.66579 0
8 0 6 326.202 10.176 0
-8 0 -7 143.742 4.65585 0
8 0 7 141.001 6.38657 0
8 0 7 142.153 6.3076 0
-8 0 -8 150.402 5.38166 0
8 0 8 160.765 6.46051 0
8 0 8 155.428 6.66871 0
-8 0 -9 0.29621 0.40805 0
8 0 9 1.46897 1.85284 0
8 0 9 -0.65892 1.40852 0
-8 0 -10 45.736 1.66945 0
8 0 10 44.2434 2.62301 0
8 0 10 48.9329 2.74184 0
-8 0 -11 77.0055 3.44054 0
8 0 11 77.9865 3.81702 0
8 0 11 84.0377 7.7742 0
8 0 12 31.2089 2.06156 0
8 0 12 34.657 4.15686 0
8 0 13 3.64951 2.22699 0
8 0 13 3.18842 1.99644 0
8 0 14 38.4828 5.78309 0
8 0 14 42.2509 3.74023 0
8 0 15 15.3586 1.56989 0
8 0 15 13.152 2.01781 0
8 0 16 47.4614 2.82984 0
8 0 16 56.808 4.03879 0
8 0 17 0.1893 0.9797 0
8 0 17 0.95628 0.99336 0
-8 -1 15 6.89339 3.17482 0
-8 -1 14 48.1382 4.25987 0
-8 -1 14 46.0336 3.30806 0
-8 -1 13 56.623 3.46205 0
-8 -1 13 61.8755 2.52763 0
-8 -1 12 22.8263 2.99374 0
-8 -1 12 24.8482 1.69479 0
-8 -1 11 0.25364 0.98944 0
-8 -1 11 0.86137 1.0246 0
-8 -1 10 95.828 5.03994 0
-8 -1 9 96.0936 5.93867 0
-8 -1 8 186.34 7.38598 0
-8 -1 7 0.46734 1.06777 0
-8 -1 6 76.6778 5.08379 0
-8 -1 5 128.899 4.85338 0
8 1 -5 133.174 5.19183 0
-8 -1 4 156.44 6.28566 0
8 1 -4 172.69 7.5943 0
8 1 -4 157.96 6.54668 0
-8 -1 3 3.65511 1.3574 0
8 1 -3 4.28807 1.77816 0
8 1 -3 1.74889 1.29154 0
-8 -1 2 163.677 4.87625 0
-8 -1 2 158.495 4.70277 0
8 1 -2 159.838 5.11007 0
8 1 -2 161.768 6.18111 0
-8 -1 1 69.9507 3.40282 0
-8 -1 1 71.737 3.07874 0
8 1 -1 69.8311 3.0363 0
8 1 -1 66.8488 3.50699 0
-8 -1 0 259.968 6.77492 0
-8 -1 0 257.318 6.66142 0
8 1 0 245.236 3.89822 0
8 1 0 269.33 8.57531 0
-8 -1 -1 2.55791 1.31044 0
-8 -1 -1 3.14819 1.07826 0
8 1 1 2.77828 1.97549 0
8 1 1 3.46695 3.14819 0
-8 -1 -2 37.15 1.24683 0
-8 -1 -2 38.1655 1.39974 0
8 1 2 34.9347 1.99179 0
8 1 2 38.5537 2.65441 0
8 1 3 29.3039 1.85061 0
8 1 3 26.8842 8.59102 0
8 1 4 498.25 12.9786 0
8 1 4 502.992 13.9982 0
8 1 5 4.87932 2.11376 0
8 1 5 4.13177 1.28151 0
-8 -1 -6 135.201 4.64531 0
8 1 6 142.213 6.32644 0
8 1 6 147.438 6.95909 0
-8 -1 -7 0.51877 0.33106 0
8 1 7 0.35154 1.16041 0
8 1 7 0.13652 1.95905 0
-8 -1 -8 289.539 8.17978 0
8 1 8 276.103 8.77758 0
8 1 8 278.978 9.54525 0
-8 -1 -9 19.9744 0.93049 0
8 1 9 19.5934 1.80166 0
8 1 9 18.0884 6.47286 0
-8 -1 -10 43.4832 1.39141 0
8 1 10 41.5423 3.19189 0
8 1 10 43.1846 2.76491 0
-8 -1 -11 -0.16547 0.49641 0
8 1 11 1.41505 1.60619 0
8 1 11 1.1269 1.19823 0
8 1 12 190.82 9.86443 0
8 1 12 203.256 9.78902 0
8 1 13 10.6228 5.87783 0
8 1 13 11.6642 4.8059 0
8 1 14 -0.99717 1.26564 0
8 1 14 1.83134 1.44302 0
8 1 15 0.69544 0.73848 0
8 1 15 0.4372 0.61389 0
8 1 16 102.904 5.25886 0
8 1 16 107.934 4.94637 0
8 1 17 -0.19547 1.35014 0
8 1 17 0.58842 0.64888 0
8 1 18 0.63255 1.2176 0
-8 -2 15 0.7703 0.81734 0
-8 -2 15 0.86047 0.65074 0
-8 -2 14 9.57059 4.73118 0
-8 -2 14 6.2902 4.77489 0
-8 -2 13 84.5108 5.30595 0
-8 -2 13 76.6668 3.12349 0
-8 -2 12 21.6323 5.1166 0
-8 -2 7 27.8768 2.11323 0
-8 -2 6 1.6572 1.44523 0
-8 -2 5 132.812 4.95172 0
-8 -2 4 58.2529 2.91721 0
8 2 -4 56.5749 3.14188 0
-8 -2 3 30.5384 1.90911 0
8 2 -3 27.8336 1.84705 0
-8 -2 2 30.4196 1.43004 0
-8 -2 2 28.5481 1.47532 0
8 2 -2 30.4799 1.90169 0
8 2 -2 34.8267 4.16939 0
-8 -2 1 116.711 3.59701 0
-8 -2 1 115.488 3.92225 0
8 2 -1 104.724 3.97645 0
8 2 -1 110.187 5.32775 0
-8 -2 0 271.83 10.3989 0
-8 -2 0 260.008 9.94576 0
8 2 0 262.156 10.7378 0
8 2 0 256.978 14.5088 0
-8 -2 -1 108.263 4.44581 0
-8 -2 -1 111.927 4.68001 0
8 2 1 114.384 5.54535 0
8 2 1 105.195 5.92642 0
8 2 2 0.61105 0.7896 0
8 2 2 0.15871 1.44827 0
8 2 3 112.574 4.05591 0
8 2 3 107.669 7.15587 0
8 2 4 403.994 11.2254 0
8 2 4 420.255 11.9977 0
8 2 5 79.7734 3.34222 0
8 2 5 91.3603 5.56786 0
8 2 6 0.62871 1.92975 0
8 2 6 0.91581 0.94125 0
8 2 7 1.74992 0.96752 0
8 2 7 0.978 2.00839 0
8 2 8 293.106 7.90732 0
8 2 8 301.17 9.49213 0
8 2 8 315.323 12.869 0
8 2 9 67.0663 1.24877 0
8 2 9 68.1937 3.34709 0
8 2 9 67.1653 6.34286 0
8 2 10 8.62924 1.89117 0
8 2 10 10.0842 3.61458 0
8 2 10 11.2098 6.14326 0
8 2 11 5.9334 1.9603 0
8 2 11 6.58975 2.44454 0
8 2 11 5.53667 1.95738 0
8 2 12 150.9 7.19704 0
8 2 12 146.999 7.41823 0
8 2 13 41.9377 2.42705 0
8 2 13 44.2057 4.83325 0
8 2 14 12.487 4.03369 0
8 2 14 14.6648 2.07215 0
8 2 15 0.60562 1.8006 0
8 2 15 0.59633 0.91655 0
8 2 16 58.5041 2.99532 0
8 2 16 53.9508 2.95143 0
8 2 17 41.4047 2.74406 0
8 2 17 36.0199 2.58082 0
8 2 18 15.3838 3.86297 0
8 3 -15 15.3487 1.5454 0
-8 -3 15 18.8627 3.27464 0
8 3 -14 2.01179 1.78013 0
-8 -3 14 1.68259 1.20911 0
8 3 -13 57.1278 4.83783 0
-8 -3 13 58.8181 4.06067 0
8 3 -12 0.16897 1.28326 0
-8 -3 12 -0.09134 1.06177 0
8 3 -11 94.178 4.06548 0
8 3 -10 1.45008 1.88049 0
8 3 -9 43.1048 2.78709 0
8 3 -8 8.04008 3.86752 0
8 3 -7 126.812 5.05686 0
8 3 -5 47.5351 2.47812 0
8 3 -4 9.86737 2.4273 0
8 3 -4 13.8659 6.02013 0
8 3 -3 297.408 8.41812 0
8 3 -3 305.168 9.05521 0
-8 -3 2 1.2453 1.34907 0
8 3 -2 2.06808 1.47879 0
-8 -3 1 65.627 3.36979 0
-8 -3 1 70.0717 2.74462 0
8 3 -1 66.9192 3.24399 0
-8 -3 0 80.4951 2.94859 0
-8 -3 0 81.6932 2.74243 0
8 3 0 81.6193 3.68769 0
-8 -3 -1 371.057 8.98068 0
-8 -3 -1 354.473 8.55565 0
8 3 1 396.685 10.7595 0
8 3 1 400.211 11.6843 0
8 3 2 2.00831 1.13239 0
8 3 2 -0.03946 1.8347 0
8 3 3 15.9026 1.73647 0
8 3 3 18.8856 5.30348 0
8 3 4 81.7318 3.57403 0
8 3 4 68.0455 3.61263 0
8 3 5 231.376 5.40451 0
8 3 5 241.496 12.4409 0
8 3 6 77.7483 4.11682 0
8 3 6 67.5019 3.88303 0
8 3 7 5.55963 4.87348 0
8 3 8 123.351 8.61073 0
8 3 8 114.281 5.87433 0
8 3 9 304.924 8.2636 0
8 3 9 322.016 10.3287 0
8 3 9 299.445 9.66399 0
8 3 10 54.6779 1.14394 0
8 3 10 54.1814 2.54072 0
8 3 10 55.8526 6.91914 0
8 3 11 0.11206 0.40697 0
8 3 11 1.30643 0.73726 0
8 3 11 1.44208 1.29463 0
8 3 12 38.6806 2.40526 0
8 3 12 35.6747 2.1274 0
8 3 13 107.967 5.29851 0
8 3 13 111.737 5.92343 0
8 3 14 18.4278 7.38961 0
8 3 14 16.0928 2.38995 0
8 3 15 1.40961 1.34597 0
8 3 16 10.7975 3.35626 0
8 3 17 83.1778 4.22354 0
8 3 18 24.0041 2.61521 0
8 4 -14 1.97764 2.40114 0
-8 -4 14 1.98355 1.72354 0
8 4 -13 5.8877 3.18316 0
-8 -4 13 5.80201 3.31065 0
8 4 -12 6.66537 3.48664 0
8 4 -11 78.7282 3.64409 0
8 4 -10 2.56822 1.74352 0
8 4 -9 10.5533 5.12452 0
8 4 -8 33.0026 3.26472 0
8 4 -7 142.885 5.55872 0
8 4 -6 98.9031 5.64176 0
8 4 -5 24.1586 1.84587 0
8 4 -5 21.5139 6.72787 0
8 4 -4 24.4213 1.68674 0
8 4 -4 26.5031 2.13831 0
8 4 -3 386.808 10.4517 0
8 4 -3 374.67 12.3831 0
8 4 -2 39.9219 1.71815 0
-8 -4 2 40.4946 1.69667 0
8 4 -2 39.9506 2.3016 0
8 4 -1 32.1039 1.86158 0
-8 -4 1 28.2812 1.30126 0
8 4 -1 33.1176 5.16081 0
-8 -4 0 0.61436 0.69351 0
8 4 0 1.62446 1.31163 0
8 4 1 332.262 8.23783 0
-8 -4 -1 343.252 8.57422 0
8 4 1 358.328 10.7187 0
-8 -4 -2 39.1677 1.16081 0
8 4 2 44.0031 2.56377 0
8 4 3 39.4781 2.58973 0
8 4 4 14.6561 5.58309 0
8 4 5 282.134 8.41609 0
8 4 6 2.90422 0.92358 0
8 4 7 64.2552 3.58814 0
8 4 8 13.0778 6.3863 0
8 4 9 204.968 5.56123 0
8 4 9 224.012 7.70016 0
8 4 10 0.13554 0.26493 0
8 4 10 -1.99004 1.58649 0
8 4 11 87.8304 4.35935 0
8 4 12 2.44887 2.20961 0
8 4 13 105.538 5.58305 0
8 4 14 -0.22354 1.68287 0
8 4 15 43.9343 2.38964 0
8 4 16 0.83965 1.01701 0
8 4 17 74.6948 3.8795 0
8 4 18 3.32562 2.15246 0
8 5 -14 32.7023 2.8351 0
-8 -5 14 29.742 2.7516 0
8 5 -13 0.69735 0.96866 0
8 5 -12 18.7147 2.97816 0
8 5 -11 23.1438 7.92545 0
8 5 -10 47.099 2.46352 0
8 5 -9 60.32 4.3369 0
8 5 -8 39.0858 2.73938 0
8 5 -7 54.825 3.62496 0
8 5 -6 87.3195 3.8206 0
8 5 -5 22.5196 4.65829 0
8 5 -5 22.2603 7.05302 0
8 5 -4 7.25048 3.26509 0
8 5 -4 4.45817 2.63048 0
8 5 -3 71.5442 2.77755 0
8 5 -3 74.9939 3.67704 0
8 5 -2 158.157 5.55459 0
8 5 -2 155.429 6.1854 0
8 5 -1 104.571 4.3191 0
-8 -5 1 101.587 4.12948 0
8 5 -1 108.55 5.16536 0
8 5 0 13.7995 3.75892 0
-8 -5 0 12.2722 4.5603 0
8 5 0 16.3941 5.40839 0
8 5 1 166.546 6.41136 0
-8 -5 -1 147.932 5.64098 0
8 5 1 164.162 7.0357 0
8 5 2 264.737 6.81587 0
-8 -5 -2 240.657 6.09086 0
8 5 2 279.226 8.32479 0
8 5 3 226.949 1.71819 0
-8 -5 -3 207.758 5.16194 0
8 5 3 224.811 4.59902 0
8 5 4 0.81715 1.60876 0
8 5 5 310.593 9.1546 0
8 5 7 226.335 7.67865 0
8 5 8 1.54794 1.34417 0
8 5 9 69.5238 1.2563 0
8 5 9 69.8308 2.81956 0
8 5 10 32.5726 1.06476 0
8 5 10 30.8173 2.60106 0
8 5 11 195.921 7.8454 0
8 5 12 7.90908 4.04936 0
8 5 13 12.9551 3.20444 0
8 5 14 7.00289 3.43519 0
8 5 15 91.7247 4.9107 0
8 5 16 3.45132 1.12801 0
8 5 17 5.45682 5.01976 0
8 5 18 5.21408 3.60082 0
8 5 19 62.1302 5.17342 0
8 6 -13 0.57456 0.48232 0
8 6 -12 0.23776 1.71515 0
8 6 -11 1.10092 0.9031 0
8 6 -10 79.9476 3.45953 0
8 6 -9 6.13629 2.77469 0
8 6 -8 1.11353 1.06074 0
8 6 -7 3.68216 2.09388 0
8 6 -6 216.959 9.2804 0
8 6 -5 19.1705 4.70824 0
8 6 -5 13.438 5.59576 0
8 6 -4 8.57182 3.71627 0
8 6 -4 12.062 2.74274 0
8 6 -3 0.31184 0.45528 0
8 6 -3 1.53735 1.02594 0
8 6 -2 228.961 7.25492 0
8 6 -2 245.959 8.46836 0
8 6 -1 31.2136 1.58534 0
8 6 -1 27.9569 7.26807 0
8 6 0 52.6992 2.09253 0
8 6 0 51.4667 2.75956 0
8 6 1 5.51522 1.95546 0
-8 -6 -1 4.74061 1.93825 0
8 6 1 7.80463 3.21549 0
8 6 2 268.172 7.08798 0
-8 -6 -2 250.62 6.74036 0
8 6 2 300.702 9.11808 0
8 6 3 65.3499 2.90583 0
-8 -6 -3 69.7888 2.648 0
8 6 3 74.158 6.12176 0
8 6 4 30.8527 1.68111 0
-8 -6 -4 29.1716 0.88388 0
8 6 4 28.2669 2.04506 0
8 6 5 0.69495 0.53747 0
8 6 5 1.65007 1.54737 0
8 6 6 183.187 5.50136 0
8 6 6 168.95 5.05803 0
8 6 6 169.491 8.00015 0
8 6 7 136.973 4.16707 0
8 6 7 131.296 5.12039 0
8 6 8 67.5146 1.355 0
8 6 8 68.965 3.12986 0
8 6 9 3.67238 1.30519 0
8 6 9 2.89358 2.71504 0
8 6 10 55.5646 2.16478 0
8 6 10 58.5055 7.00876 0
8 6 11 65.8184 4.29518 0
8 6 12 39.1944 2.86455 0
8 6 13 0.80447 0.63838 0
8 6 14 29.7191 5.94677 0
8 6 15 59.0662 3.16388 0
8 6 16 83.0425 3.51638 0
8 6 17 1.13817 1.15711 0
8 6 18 11.0145 5.16024 0
8 7 -12 4.99282 4.33303 0
8 7 -11 2.94784 3.81305 0
8 7 -10 41.1279 5.2597 0
8 7 -9 23.3401 2.44984 0
8 7 -8 45.8805 2.33692 0
8 7 -7 8.84132 4.1495 0
8 7 -6 70.464 3.68364 0
8 7 -5 1.76674 2.12172 0
8 7 -4 106.407 6.23864 0
8 7 -4 122.276 7.31594 0
8 7 -3 6.77383 3.35012 0
8 7 -3 11.3751 2.27855 0
8 7 -2 99.3327 2.76387 0
8 7 -2 99.4629 3.65993 0
8 7 -1 1.76316 1.12371 0
8 7 -1 2.10462 1.10819 0
8 7 0 110.573 4.40706 0
8 7 0 112.65 5.26628 0
8 7 1 3.98287 2.01721 0
8 7 1 8.21708 2.18478 0
8 7 2 73.8658 2.54317 0
8 7 2 78.1446 3.58193 0
8 7 3 0.48069 0.55263 0
8 7 3 0.97773 1.06929 0
8 7 4 174.935 5.79103 0
8 7 4 195.427 7.48104 0
8 7 5 0.77951 0.58544 0
8 7 5 0.96711 1.38759 0
8 7 6 72.4204 1.68946 0
8 7 6 79.1432 3.03784 0
8 7 7 5.67224 2.43141 0
8 7 7 7.71299 2.80643 0
8 7 8 198.573 5.94635 0
8 7 8 173.292 7.39861 0
8 7 9 1.29157 0.81354 0
8 7 9 2.16449 1.3361 0
8 7 10 4.53259 1.95489 0
8 7 10 6.39521 1.87416 0
8 7 11 4.71978 2.26583 0
8 7 12 120.76 5.91713 0
8 7 13 0 1.42072 0
8 7 14 0.74783 0.90172 0
8 7 15 5.51818 4.00635 0
8 7 16 136.27 6.46555 0
8 7 17 1.61983 1.41503 0
8 7 18 -0.20974 1.14281 0
8 8 -11 1.51492 1.82789 0
8 8 -10 10.9986 1.41018 0
8 8 -9 58.3295 5.85336 0
8 8 -8 60.0426 2.89271 0
8 8 -7 -0.11883 0.67102 0
8 8 -6 4.95171 2.39552 0
8 8 -5 75.6384 3.7776 0
8 8 -4 87.1558 3.99433 0
8 8 -4 101.416 4.92546 0
8 8 -3 36.5967 1.84535 0
8 8 -3 45.1918 3.08931 0
8 8 -2 1.00243 0.72129 0
8 8 -2 2.63812 1.57606 0
8 8 -1 48.1115 1.98073 0
8 8 -1 49.2067 2.6536 0
8 8 0 273.472 9.89807 0
8 8 0 258.576 9.99008 0
8 8 1 49.4998 1.96108 0
8 8 1 49.5691 3.50945 0
8 8 2 1.32704 1.13833 0
8 8 2 4.01461 1.96926 0
8 8 3 58.1814 3.17909 0
8 8 3 55.189 3.07812 0
8 8 4 180.03 3.09632 0
8 8 4 204.409 7.23903 0
8 8 5 8.19235 2.99148 0
8 8 5 13.4358 3.78881 0
8 8 6 0.39754 1.0842 0
8 8 6 0.91254 0.93964 0
8 8 7 3.75917 1.5458 0
8 8 7 2.93731 2.23117 0
8 8 8 218.105 7.88785 0
8 8 8 210.415 8.26928 0
8 8 9 26.4677 3.46243 0
8 8 9 20.8512 7.27677 0
8 8 10 10.9576 4.57459 0
8 8 11 14.4959 6.10338 0
8 8 12 128.921 6.69127 0
8 8 13 13.5319 5.81118 0
8 8 14 9.07908 4.26019 0
8 8 15 0.93076 1.73906 0
8 8 16 97.6287 6.54213 0
8 8 17 5.85932 2.65617 0
8 8 18 17.7722 2.69125 0
8 9 -10 0.15726 0.49072 0
8 9 -9 51.9053 3.88008 0
8 9 -8 1.70536 2.04061 0
8 9 -7 27.9263 3.58018 0
8 9 -6 0.76456 1.334 0
8 9 -5 32.1193 2.14396 0
8 9 -4 1.31702 1.73073 0
8 9 -4 2.6218 1.7087 0
8 9 -3 115.077 5.79455 0
8 9 -3 130.522 7.52836 0
8 9 -2 0.35585 0.75356 0
8 9 -2 1.90222 0.92363 0
8 9 -1 26.6156 4.00902 0
8 9 -1 26.7232 7.62521 0
8 9 0 61.7109 3.27795 0
8 9 0 71.4621 4.40458 0
8 9 1 197.598 9.79923 0
8 9 1 194.478 8.7469 0
8 9 2 26.7214 1.60664 0
8 9 2 23.056 7.50429 0
8 9 3 31.9644 1.63619 0
8 9 3 31.5259 2.65916 0
8 9 4 61.1118 4.00502 0
8 9 4 59.1739 3.99641 0
8 9 5 145.371 8.42252 0
8 9 5 156.899 7.26424 0
8 9 6 18.4581 3.94884 0
8 9 6 19.9368 4.77317 0
8 9 7 0.81479 0.83154 0
8 9 7 1.52076 1.17196 0
8 9 8 27.1745 3.07347 0
8 9 8 29.5289 6.85243 0
8 9 9 58.6293 4.40286 0
8 9 9 50.2129 3.90417 0
8 9 10 37.4285 2.34382 0
8 9 11 3.89704 2.48358 0
8 9 12 28.4138 2.29487 0
8 9 13 82.4678 4.41235 0
8 9 14 35.5024 2.41787 0
8 9 15 0.86739 0.79654 0
8 9 16 22.012 2.32665 0
8 9 17 36.6916 3.05437 0
8 10 -8 5.6683 4.02941 0
8 10 -7 83.0814 5.58041 0
8 10 -6 1.16123 0.76712 0
8 10 -5 0.64861 1.41554 0
8 10 -4 3.05486 2.88716 0
8 10 -3 109.275 7.47353 0
8 10 -3 128.063 6.43262 0
8 10 -2 0.97537 1.33421 0
8 10 -2 1.71473 0.83328 0
8 10 -1 6.21669 2.50151 0
8 10 -1 2.93903 1.51524 0
8 10 0 0.98833 1.1501 0
8 10 0 0.62181 1.3321 0
8 10 1 199.136 9.11189 0
8 10 1 195.718 10.7541 0
8 10 2 5.18939 3.00562 0
8 10 3 3.25794 1.58949 0
8 10 3 3.22636 1.35265 0
8 10 4 0.58098 0.77112 0
8 10 4 2.02288 1.14348 0
8 10 5 228.056 10.3662 0
8 10 5 219.522 10.2924 0
8 10 6 0.04189 1.36941 0
8 10 6 -0.13354 1.35108 0
8 10 7 2.32879 1.09712 0
8 10 8 37.0882 3.84803 0
8 10 8 38.9766 5.94511 0
8 10 9 135.286 6.72415 0
8 10 10 20.2105 1.62647 0
8 10 11 39.3234 3.80092 0
8 10 12 0.32775 1.0222 0
8 10 13 51.3596 2.40156 0
8 10 14 4.45402 1.37211 0
8 10 15 25.1043 2.16041 0
8 10 16 1.19368 1.08749 0
8 11 -6 14.657 3.21425 0
8 11 -5 12.141 3.66636 0
8 11 -4 1.93588 1.46289 0
8 11 -3 70.1131 4.81832 0
8 11 -3 66.4016 4.81616 0
8 11 -2 48.5286 2.45476 0
8 11 -2 54.3134 2.8524 0
8 11 -1 52.651 2.48184 0
8 11 -1 58.1971 3.68068 0
8 11 0 1.08682 0.94516 0
8 11 0 1.53966 1.4607 0
8 11 1 46.6117 2.41905 0
8 11 1 48.674 2.85845 0
8 11 2 24.8404 4.37586 0
8 11 2 22.4466 8.38787 0
8 11 3 81.5418 3.39375 0
8 11 3 73.6118 3.53626 0
8 11 4 0.1092 0.97065 0
8 11 4 -0.4829 1.34677 0
8 11 5 97.5328 3.74697 0
8 11 5 96.6907 4.2396 0
8 11 6 31.652 1.92072 0
8 11 6 28.0111 4.96005 0
8 11 7 42.8283 2.20786 0
8 11 7 40.0337 6.32905 0
8 11 8 2.13424 1.79153 0
8 11 8 2.0657 1.1203 0
8 11 9 38.5356 3.70857 0
8 11 10 1.88035 1.18375 0
8 11 11 82.706 3.4572 0
8 11 12 0.00649 1.04944 0
8 11 13 20.2763 1.56922 0
8 11 15 68.5655 3.98072 0
8 12 -4 0.66632 0.68943 0
8 12 -3 6.93617 4.70945 0
8 12 -2 64.3977 4.57404 0
8 12 -2 73.4662 5.23505 0
8 12 -1 25.994 3.77885 0
8 12 -1 25.444 1.84028 0
8 12 0 7.0828 3.62793 0
8 12 0 7.30714 2.48699 0
8 12 1 2.60798 1.50301 0
8 12 1 1.43558 0.69169 0
8 12 2 42.2499 4.97498 0
8 12 2 41.5426 5.99509 0
8 12 3 58.9784 2.63455 0
8 12 3 60.1167 2.91024 0
8 12 4 15.0147 6.89944 0
8 12 4 13.6313 6.38539 0
8 12 5 12.8312 2.23141 0
8 12 5 10.5214 3.61681 0
8 12 6 43.2618 2.39103 0
8 12 6 41.5205 2.40443 0
8 12 7 48.7978 4.68079 0
8 12 7 45.0398 3.26546 0
8 12 8 29.8283 4.41868 0
8 12 9 0.62566 0.89844 0
8 12 10 35.7696 2.11796 0
8 12 11 43.8067 3.10962 0
8 12 12 20.2213 4.50711 0
8 12 13 -0.16532 1.02737 0
8 12 14 10.3352 4.6265 0
8 13 -1 0.44661 1.17116 0
8 13 -1 0.57887 0.84722 0
8 13 0 63.5411 3.63025 0
8 13 0 61.2976 6.57005 0
8 13 1 -0.05372 0.94913 0
8 13 1 0.84566 1.03071 0
8 13 2 31.0201 4.43029 0
8 13 2 34.5365 4.76317 0
8 13 3 3.1368 2.48049 0
8 13 3 2.71081 1.58776 0
8 13 4 74.4976 7.56403 0
8 13 4 70.3904 5.00371 0
8 13 5 2.12497 1.45231 0
8 13 5 2.40474 1.56545 0
8 13 6 11.1406 4.75047 0
8 13 7 4.20542 2.5576 0
8 13 8 65.5885 4.7868 0
8 13 9 0.71657 1.17494 0
8 13 10 7.47671 4.30083 0
8 13 11 5.17079 3.68818 0
8 13 12 66.755 5.57868 0
8 14 5 -0.07931 1.02161 0
8 14 6 1.12752 1.0312 0
-9 8 8 0.61919 1.07553 0
9 -8 -8 0.35977 1.13233 0
-9 8 7 44.612 3.76143 0
9 -8 -7 40.1226 5.26369 0
-9 8 6 9.59357 5.67134 0
9 -8 -6 10.2453 5.23946 0
-9 8 5 9.52835 6.2163 0
9 -8 -5 8.47605 6.67183 0
-9 8 4 0.59055 1.2996 0
9 -8 -4 0.5323 1.03245 0
-9 8 3 11.8688 7.69157 0
9 -8 -3 21.4458 1.80063 0
-9 8 2 10.9606 6.2936 0
9 -8 -2 5.55628 4.22747 0
-9 8 1 51.0909 3.07447 0
9 -8 -1 43.7809 2.89243 0
-9 8 0 2.0182 1.64192 0
9 -8 0 0.84511 1.324 0
-9 8 -1 18.5634 3.41832 0
9 -8 1 14.9975 6.01097 0
-9 8 -2 23.4987 3.48836 0
9 -8 2 18.4641 1.92047 0
-9 8 -3 27.315 4.34892 0
9 -8 3 29.283 3.29417 0
-9 8 -4 -0.3577 0.89234 0
9 -8 4 0.56508 0.68114 0
-9 7 10 2.37688 1.78936 0
-9 7 9 80.6938 5.07745 0
-9 7 8 1.02222 1.08282 0
9 -7 -8 0.0303 0.68283 0
-9 7 7 17.2025 2.36862 0
9 -7 -7 18.9862 5.6632 0
-9 7 6 1.88635 0.97584 0
9 -7 -6 3.21627 1.50065 0
-9 7 5 98.6502 4.51009 0
9 -7 -5 102.893 4.71996 0
-9 7 4 -0.06069 1.30494 0
9 -7 -4 0.62212 0.78036 0
-9 7 3 1.2388 1.23225 0
-9 7 2 0.26312 0.93409 0
9 -7 -2 0.73455 1.48446 0
-9 7 1 122.322 4.52501 0
9 -7 -1 120.327 5.84042 0
-9 7 0 3.12939 2.30173 0
9 -7 0 2.57907 1.76888 0
-9 7 -1 0.77535 0.71904 0
9 -7 1 1.40993 1.06124 0
-9 7 -2 1.61707 1.11869 0
9 -7 2 2.68228 1.41814 0
-9 7 -3 83.9031 3.8154 0
9 -7 3 89.3158 4.57301 0
-9 7 -4 0.84795 0.91604 0
9 -7 4 -0.44151 1.26058 0
-9 7 -5 0.43546 1.23381 0
9 -7 5 -0.15725 1.13099 0
9 -7 6 1.16284 1.41427 0
9 -7 7 94.3022 8.04258 0
-9 6 12 1.48881 1.76207 0
-9 6 11 0.03126 0.94951 0
-9 6 10 20.227 2.1149 0
-9 6 9 86.9605 4.0857 0
9 -6 -9 87.687 3.88528 0
-9 6 8 23.227 1.69838 0
9 -6 -8 26.3744 1.78223 0
-9 6 7 0.3196 0.83757 0
9 -6 -7 0.25788 0.94998 0
-9 6 6 8.90039 3.75724 0
9 -6 -6 6.68879 3.37252 0
-9 6 5 93.8914 5.03357 0
9 -6 -5 93.3306 4.93972 0
-9 6 4 12.1268 5.62252 0
9 -6 -4 12.1825 5.14682 0
-9 6 3 4.58788 2.34549 0
9 -6 -3 5.99611 2.69696 0
-9 6 2 3.02306 2.36802 0
9 -6 -2 0.82704 1.13806 0
-9 6 1 150.249 7.14865 0
9 -6 -1 136.549 8.85678 0
-9 6 0 40.4976 3.16839 0
9 -6 0 35.7885 7.34587 0
-9 6 -1 24.4353 1.91952 0
9 -6 1 26.6514 2.39356 0
-9 6 -2 0.18933 1.34146 0
9 -6 2 1.42689 0.84043 0
-9 6 -3 71.7623 3.07472 0
9 -6 3 78.6781 3.6842 0
-9 6 -4 13.0363 2.3394 0
9 -6 4 14.6078 7.12534 0
-9 6 -5 25.7764 1.9986 0
9 -6 5 26.72 2.42453 0
9 -6 6 2.97571 1.54099 0
9 -6 7 50.7371 4.72343 0
9 -6 8 12.0605 4.598 0
9 -6 9 30.5997 3.02202 0
-9 5 13 4.7332 3.30531 0
-9 5 12 98.1822 5.14397 0
-9 5 10 11.3244 5.32186 0
-9 5 9 38.8897 2.07846 0
9 -5 -9 34.997 4.03363 0
-9 5 8 103.823 6.43534 0
9 -5 -8 99.9282 3.47513 0
-9 5 7 5.48776 2.58302 0
9 -5 -7 4.45502 2.51775 0
-9 5 6 1.19201 1.02957 0
9 -5 -6 1.77965 1.18006 0
-9 5 5 1.05619 1.10742 0
9 -5 -5 2.79049 1.05619 0
-9 5 4 110.89 5.74833 0
9 -5 -4 107.348 5.64909 0
-9 5 3 1.63557 1.57276 0
9 -5 -3 -0.03266 0.7688 0
-9 5 2 3.13522 1.5119 0
9 -5 -2 1.47898 0.7952 0
-9 5 1 24.0861 3.23654 0
9 -5 -1 19.5818 3.91993 0
-9 5 0 154.204 7.50148 0
9 -5 0 139.338 7.20984 0
-9 5 -1 62.0726 3.06345 0
9 -5 1 52.0534 3.83687 0
-9 5 -2 7.4753 2.32903 0
9 -5 2 5.25339 2.69021 0
-9 5 -3 22.3377 3.78589 0
9 -5 3 20.8911 2.20435 0
-9 5 -4 41.6566 2.68992 0
9 -5 4 50.5028 2.97839 0
-9 5 -5 36.7063 2.47965 0
9 -5 5 48.6068 2.98685 0
-9 5 -6 3.25613 3.279 0
9 -5 6 7.13421 3.29729 0
9 -5 7 9.44551 6.03642 0
9 -5 8 58.6251 4.33703 0
9 -5 9 55.3831 4.22345 0
9 -5 11 2.57219 1.62816 0
-9 4 13 1.6087 1.28227 0
-9 4 12 89.1217 5.99009 0
-9 4 11 0.64238 0.78111 0
-9 4 10 9.04463 5.14838 0
-9 4 9 0.92269 0.72251 0
9 -4 -9 0.76393 1.1712 0
-9 4 8 144.896 6.80108 0
9 -4 -8 133.265 7.1153 0
-9 4 7 1.24559 1.27753 0
9 -4 -7 0.86479 0.75178 0
-9 4 6 22.7341 3.286 0
9 -4 -6 27.016 1.99688 0
-9 4 5 0.52338 0.89648 0
9 -4 -5 1.00272 1.39914 0
-9 4 4 131.714 6.49502 0
9 -4 -4 125.611 3.55957 0
-9 4 3 1.93425 1.66292 0
9 -4 -3 1.4883 1.74083 0
-9 4 2 95.8224 4.50996 0
9 -4 -2 93.2022 7.28219 0
-9 4 1 0.66332 1.31027 0
9 -4 -1 1.52046 2.14011 0
-9 4 0 97.1695 4.56096 0
9 -4 0 89.9855 4.45724 0
-9 4 -1 6.97891 2.61132 0
9 -4 1 6.17272 2.41045 0
-9 4 -2 87.6042 4.00105 0
9 -4 2 91.4925 7.8759 0
-9 4 -3 0.98318 0.94089 0
9 -4 3 -0.07929 1.51705 0
-9 4 -4 49.8674 2.81428 0
9 -4 4 54.2636 3.04729 0
-9 4 -5 0.92684 1.20969 0
9 -4 5 2.9775 1.90924 0
-9 4 -6 147.284 6.90645 0
9 -4 6 133.483 7.35068 0
9 -4 7 4.64164 2.78213 0
9 -4 7 5.64748 2.66561 0
9 -4 8 57.6299 4.73679 0
9 -4 8 57.6069 3.49342 0
9 -4 9 12.7633 1.57213 0
9 -4 9 11.118 2.77395 0
9 -4 10 69.0599 4.63738 0
9 -4 10 60.4181 4.30705 0
9 -4 11 1.12239 1.06117 0
9 -4 11 0.99382 1.56318 0
9 -4 12 10.5902 1.95371 0
9 -4 12 9.05029 4.8872 0
-9 3 14 25.4231 2.34463 0
-9 3 13 0.27539 1.28048 0
-9 3 12 55.9313 4.02491 0
-9 3 11 37.0871 1.97865 0
-9 3 10 83.7726 4.32213 0
-9 3 9 1.79091 1.27444 0
9 -3 -9 0.84644 0.79861 0
-9 3 8 78.391 3.70606 0
9 -3 -8 83.5204 5.04739 0
-9 3 7 38.0615 2.98859 0
9 -3 -7 35.4744 3.79173 0
-9 3 6 88.095 4.91662 0
9 -3 -6 87.0978 4.18538 0
-9 3 5 1.19016 1.24215 0
9 -3 -5 0.342 0.83175 0
-9 3 4 92.0191 5.57394 0
9 -3 -4 79.91 4.89016 0
-9 3 3 23.0014 2.03054 0
9 -3 -3 20.651 7.96796 0
-9 3 2 196.424 8.33478 0
9 -3 -2 188.789 8.47644 0
-9 3 1 0.80558 1.54135 0
9 -3 -1 0.53511 1.16329 0
-9 3 0 24.8408 4.0513 0
9 -3 0 27.6776 3.63772 0
-9 3 -1 21.545 2.8775 0
9 -3 1 23.2697 2.9559 0
-9 3 -2 154.513 6.82194 0
9 -3 2 146.342 8.64344 0
-9 3 -3 1.62946 1.44494 0
9 -3 3 1.1639 0.75511 0
9 -3 3 1.8963 1.23487 0
-9 3 -4 6.07267 2.16881 0
9 -3 4 5.43593 2.39403 0
9 -3 4 9.37593 3.7259 0
-9 3 -5 9.89485 1.54209 0
9 -3 5 12.4316 2.37682 0
9 -3 5 13.5265 4.01648 0
-9 3 -6 202.979 9.07137 0
9 -3 6 223.87 10.0287 0
9 -3 6 202.803 9.72365 0
9 -3 7 2.01157 1.58688 0
9 -3 7 2.84316 2.45661 0
9 -3 8 3.85889 2.17461 0
9 -3 8 2.43449 3.01307 0
9 -3 9 13.1008 1.30419 0
9 -3 9 12.3603 3.92435 0
9 -3 10 131.517 4.28617 0
9 -3 10 130.246 4.65543 0
9 -3 11 2.62994 1.81488 0
9 -3 11 1.29758 1.36496 0
9 -3 12 0.10991 1.00368 0
9 -3 12 0.47488 0.65737 0
9 -3 13 0.47241 0.71751 0
9 -3 13 0.15615 0.88157 0
-9 2 14 5.1143 4.45112 0
-9 2 13 13.5842 5.99274 0
-9 2 12 1.53253 1.35769 0
-9 2 11 86.0642 3.37073 0
-9 2 10 49.7493 2.55984 0
-9 2 9 23.7101 2.76491 0
9 -2 -9 17.7462 3.32233 0
-9 2 8 9.25182 4.10763 0
9 -2 -8 8.32072 3.05822 0
-9 2 7 74.3069 3.5453 0
9 -2 -7 76.4554 3.58544 0
-9 2 6 67.6929 5.79551 0
9 -2 -6 71.0942 4.26132 0
-9 2 5 62.2063 3.80446 0
9 -2 -5 55.7548 5.52334 0
-9 2 4 1.79842 1.36492 0
9 -2 -4 0.78205 1.02223 0
-9 2 3 97.307 3.77961 0
9 -2 -3 88.5644 4.06874 0
-9 2 2 134.252 4.94545 0
9 -2 -2 124.159 5.885 0
-9 2 1 101.66 4.36702 0
9 -2 -1 105.631 3.72705 0
9 -2 -1 98.2595 4.72357 0
-9 2 0 0.6239 1.1591 0
9 -2 0 0.38229 0.41899 0
9 -2 0 0.32724 1.06429 0
-9 2 -1 61.0332 2.68348 0
9 -2 1 58.3985 1.49591 0
9 -2 1 63.9548 3.08035 0
-9 2 -2 47.807 2.09781 0
9 -2 2 49.9381 1.59154 0
9 -2 2 45.8183 2.93754 0
-9 2 -3 63.6479 2.65412 0
9 -2 3 70.7176 2.92672 0
9 -2 3 66.5387 3.51386 0
-9 2 -4 8.60937 3.01225 0
9 -2 4 11.8987 1.93939 0
9 -2 4 11.6717 1.91876 0
-9 2 -5 14.3957 2.0718 0
9 -2 5 14.0489 3.49345 0
9 -2 5 14.309 2.06024 0
-9 2 -6 102.151 5.743 0
9 -2 6 104.44 6.26203 0
9 -2 6 101.169 6.41634 0
9 -2 7 82.6157 3.74159 0
9 -2 7 74.0678 3.52755 0
9 -2 8 36.418 2.08043 0
9 -2 8 37.294 2.50538 0
9 -2 9 18.5633 2.19907 0
9 -2 9 22.0232 2.20157 0
9 -2 10 86.8907 3.75025 0
9 -2 10 86.7253 4.4979 0
9 -2 11 34.3714 2.46264 0
9 -2 11 34.1376 2.04532 0
9 -2 12 14.4247 1.87957 0
9 -2 12 14.916 3.31393 0
9 -2 13 1.7972 1.54672 0
9 -2 13 1.60099 2.08526 0
9 -2 14 43.9624 5.09479 0
9 -2 14 47.4383 3.61674 0
-9 1 14 0.70578 0.91278 0
-9 1 13 42.606 2.51528 0
-9 1 12 0.50592 0.65704 0
-9 1 11 54.2015 3.26692 0
-9 1 10 0.30326 0.87126 0
-9 1 9 130.304 6.34485 0
9 -1 -9 131.719 6.11537 0
-9 1 8 6.80739 2.94195 0
9 -1 -8 9.39314 2.75726 0
-9 1 7 26.505 1.82318 0
9 -1 -7 28.3226 1.65794 0
-9 1 6 5.94506 2.16887 0
9 -1 -6 3.83922 1.18901 0
-9 1 5 239.827 8.79308 0
9 -1 -5 239.114 9.06427 0
-9 1 4 0.34446 0.82791 0
9 -1 -4 0.67079 0.80978 0
-9 1 3 28.3067 1.81817 0
9 -1 -3 25.3989 3.46039 0
-9 1 2 2.57792 1.72071 0
9 -1 -2 2.43976 0.96397 0
9 -1 -2 1.94051 1.94993 0
-9 1 1 270.189 7.9629 0
9 -1 -1 265.671 7.67057 0
9 -1 -1 265.28 8.87803 0
-9 1 0 11.1578 3.13312 0
9 -1 0 9.70629 2.67275 0
9 -1 0 8.501 3.88444 0
-9 1 -1 1.25332 0.61707 0
9 -1 1 1.07107 0.79931 0
9 -1 1 1.42917 1.34284 0
-9 1 -2 4.84969 2.11022 0
9 -1 2 6.8455 3.5022 0
9 -1 2 8.25337 2.71405 0
-9 1 -3 182.438 6.53282 0
9 -1 3 180.868 6.57679 0
9 -1 3 178.314 7.66036 0
-9 1 -4 3.06014 2.04112 0
9 -1 4 4.23355 1.60263 0
9 -1 4 3.74874 2.91809 0
-9 1 -5 23.9436 1.1003 0
9 -1 5 27.0329 1.67463 0
9 -1 5 19.7178 7.94998 0
-9 1 -6 0.55148 0.66649 0
9 -1 6 0.16515 1.04987 0
9 -1 6 2.02897 2.085 0
9 -1 7 191.253 8.0476 0
9 -1 7 179.372 8.56652 0
9 -1 8 34.6518 2.13042 0
9 -1 8 31.1543 2.51351 0
9 -1 9 6.98959 3.52516 0
9 -1 9 6.34529 4.0876 0
9 -1 10 10.8525 1.37802 0
9 -1 10 10.3301 3.74538 0
9 -1 11 134.172 6.7398 0
9 -1 11 117.2 6.18577 0
9 -1 12 15.6014 1.505 0
9 -1 12 19.8866 1.81059 0
9 -1 13 0.8702 1.7908 0
9 -1 13 1.23625 0.82197 0
9 -1 14 7.03478 5.07894 0
9 -1 14 12.2823 2.07236 0
9 -1 15 45.3007 3.55389 0
9 -1 15 45.0304 3.46509 0
-9 0 14 29.7517 2.65527 0
-9 0 13 67.755 4.64994 0
-9 0 12 7.12884 4.10949 0
-9 0 11 0.98073 0.80263 0
-9 0 10 9.84039 2.87265 0
-9 0 9 169.462 7.9775 0
-9 0 9 171.173 7.77072 0
-9 0 8 1.4194 1.28549 0
-9 0 7 11.4371 1.94262 0
9 0 -7 6.81738 2.20051 0
-9 0 6 25.1087 3.3859 0
9 0 -6 24.6949 2.18539 0
-9 0 5 267.82 11.0575 0
9 0 -5 276.952 10.3576 0
-9 0 4 49.9995 2.03954 0
9 0 -4 45.117 4.66621 0
-9 0 3 35.1518 1.73953 0
9 0 -3 31.8534 1.53041 0
9 0 -3 31.9326 2.05005 0
-9 0 2 54.4786 2.4097 0
9 0 -2 57.4964 2.21563 0
9 0 -2 51.684 2.67493 0
-9 0 1 260.428 7.84528 0
9 0 -1 236.37 7.24104 0
9 0 -1 257.065 8.6794 0
-9 0 0 5.43755 2.25653 0
9 0 0 5.64962 1.67003 0
9 0 0 6.60723 1.5143 0
-9 0 -1 41.9825 3.69672 0
9 0 1 46.0745 2.00613 0
9 0 1 45.0881 2.91951 0
-9 0 -2 16.2403 2.92332 0
9 0 2 17.9004 1.1938 0
9 0 2 14.4711 6.42204 0
-9 0 -3 292.338 8.15484 0
9 0 3 306.158 9.12963 0
9 0 3 288.589 9.6988 0
-9 0 -4 24.9717 0.82338 0
9 0 4 26.3097 1.6725 0
9 0 4 27.2714 7.08239 0
9 0 5 118.732 4.86407 0
9 0 5 110.524 5.28567 0
9 0 6 13.6426 5.5968 0
9 0 6 14.7766 3.54014 0
9 0 7 173.149 6.26118 0
9 0 7 169.623 7.04122 0
9 0 8 2.165 2.11015 0
9 0 8 1.82726 1.98314 0
9 0 9 124.901 7.24427 0
9 0 9 116.398 7.02852 0
9 0 10 1.44965 1.46286 0
9 0 10 1.18824 1.27802 0
9 0 11 76.7212 3.9699 0
9 0 11 68.3612 4.29192 0
9 0 12 1.11591 0.77108 0
9 0 12 2.50002 0.9387 0
9 0 13 50.4533 2.7556 0
9 0 13 51.2488 3.84736 0
9 0 14 0.42736 1.17795 0
9 0 14 0.25815 1.24087 0
9 0 15 40.4897 2.57182 0
9 0 15 44.1195 5.91806 0
9 0 16 0.25484 0.98628 0
9 0 16 0.42019 0.69448 0
-9 -1 14 9.50158 1.32983 0
-9 -1 13 17.9293 2.81146 0
-9 -1 12 81.2181 3.37164 0
-9 -1 11 3.69313 1.72762 0
-9 -1 11 2.10178 1.56594 0
-9 -1 10 4.61008 2.53955 0
-9 -1 9 86.8782 4.1244 0
-9 -1 8 54.8801 3.16879 0
-9 -1 7 49.2784 2.2216 0
-9 -1 6 2.02607 1.1699 0
-9 -1 5 79.4122 3.2423 0
9 1 -5 79.4819 3.57259 0
-9 -1 4 176.841 6.53948 0
9 1 -4 182.752 3.43541 0
9 1 -4 167.657 6.73641 0
-9 -1 3 55.8521 2.15075 0
9 1 -3 53.5406 3.40777 0
9 1 -3 56.9837 5.34634 0
-9 -1 2 6.09677 2.12663 0
9 1 -2 5.75769 1.67892 0
9 1 -2 3.54218 1.64929 0
-9 -1 1 136.468 4.50915 0
9 1 -1 120.007 5.81998 0
9 1 -1 139.056 6.39326 0
-9 -1 0 233.284 6.73419 0
9 1 0 211.338 6.67991 0
9 1 0 229.037 8.04031 0
-9 -1 -1 126.15 4.13896 0
9 1 1 147.789 5.29815 0
9 1 1 134.332 10.2519 0
-9 -1 -2 12.876 0.51368 0
-9 -1 -2 15.2709 0.57151 0
9 1 2 14.2538 4.20469 0
9 1 2 13.7877 5.4974 0
9 1 3 40.4059 2.6189 0
9 1 3 42.1956 3.11437 0
9 1 4 168.551 6.53213 0
9 1 4 168.548 7.15582 0
9 1 5 127.314 4.86933 0
9 1 5 119.698 5.18422 0
9 1 6 0.49315 1.90307 0
9 1 6 1.09695 1.07166 0
9 1 7 18.3439 2.20556 0
9 1 7 13.945 1.86813 0
9 1 8 96.6071 3.94697 0
9 1 8 93.3225 6.902 0
9 1 9 98.1023 6.25819 0
9 1 9 99.0033 6.25532 0
9 1 10 6.20525 3.13275 0
9 1 10 8.06189 3.1793 0
9 1 11 39.2895 2.15856 0
9 1 11 37.5976 5.20088 0
9 1 12 21.7648 4.55767 0
9 1 12 19.0411 6.3966 0
9 1 13 115.454 6.60632 0
9 1 13 116.222 9.0463 0
9 1 14 7.82359 5.38292 0
9 1 14 8.61625 5.21946 0
9 1 15 2.4092 1.11962 0
9 1 15 3.28025 1.84408 0
9 1 16 4.75258 3.93469 0
9 1 16 5.14042 4.01507 0
9 1 17 69.9864 3.95015 0
9 1 17 66.9491 3.62304 0
-9 -2 14 1.29161 1.22751 0
-9 -2 14 1.30326 0.90704 0
-9 -2 13 1.07616 1.12339 0
-9 -2 13 1.30412 1.1809 0
-9 -2 12 140.704 7.4119 0
-9 -2 12 148.195 5.78267 0
-9 -2 11 0.48689 0.97606 0
-9 -2 10 6.37942 2.19225 0
-9 -2 9 0.53721 0.76526 0
-9 -2 8 174.838 8.26617 0
-9 -2 7 36.3015 4.16234 0
-9 -2 6 79.2799 3.36808 0
-9 -2 5 8.62424 4.20481 0
-9 -2 4 243.583 7.49375 0
9 2 -4 259.273 8.14036 0
-9 -2 3 11.528 3.81155 0
9 2 -3 11.0129 3.04538 0
9 2 -3 10.353 2.61722 0
-9 -2 2 28.3966 1.36795 0
9 2 -2 27.0022 4.68541 0
9 2 -2 26.0902 3.26128 0
-9 -2 1 22.3164 1.09305 0
9 2 -1 22.7719 6.40649 0
9 2 -1 22.1376 2.47286 0
-9 -2 0 284.139 7.3387 0
9 2 0 295.896 8.50934 0
9 2 0 275.992 8.67706 0
-9 -2 -1 25.6801 0.9036 0
-9 -2 -1 26.2147 0.80013 0
9 2 1 27.5529 3.78339 0
9 2 1 25.925 2.19002 0
9 2 2 75.3384 3.45317 0
9 2 2 70.9263 3.7464 0
9 2 3 5.97056 2.39096 0
9 2 3 7.27908 2.00389 0
9 2 4 86.573 3.3574 0
9 2 4 92.2204 6.46148 0
9 2 5 1.15172 1.55548 0
9 2 5 2.00889 2.21739 0
9 2 6 77.2232 3.31251 0
9 2 6 83.3386 3.55442 0
9 2 7 6.72422 1.9221 0
9 2 7 7.38475 3.39342 0
9 2 8 139.342 5.56883 0
9 2 8 135.331 5.75365 0
9 2 9 66.104 5.36128 0
9 2 9 62.1687 4.2984 0
9 2 10 126.494 8.82411 0
9 2 10 132.856 8.85503 0
9 2 11 0.62343 1.27095 0
9 2 11 1.25757 1.12111 0
9 2 12 15.6619 3.80167 0
9 2 12 16.5061 2.49715 0
9 2 13 42.3025 2.28695 0
9 2 13 48.3278 2.43426 0
9 2 14 45.2969 2.34662 0
9 2 14 40.7183 2.56454 0
9 2 15 2.91953 1.0117 0
9 2 15 1.53717 0.73697 0
9 2 16 0.97515 1.78125 0
9 2 16 0.99164 1.11946 0
9 2 17 40.8275 3.21301 0
9 2 17 38.7589 2.94201 0
-9 -3 14 4.98396 3.76938 0
-9 -3 14 3.37531 1.59532 0
9 3 -11 20.0026 1.63997 0
9 3 -10 33.5835 2.07757 0
9 3 -9 0.4176 0.74819 0
9 3 -8 95.4434 4.47117 0
9 3 -7 7.98569 4.21284 0
-9 -3 5 3.75858 1.9121 0
-9 -3 4 46.8583 1.97054 0
9 3 -4 44.4621 2.25425 0
-9 -3 3 29.4745 3.44495 0
9 3 -3 32.4868 2.24255 0
-9 -3 2 288.54 8.46783 0
9 3 -2 274.302 8.84054 0
-9 -3 1 -0.13042 0.51499 0
9 3 -1 0.2274 0.93301 0
-9 -3 0 86.3429 2.34958 0
9 3 0 89.0291 3.35266 0
-9 -3 -1 8.46531 1.20541 0
9 3 1 10.7525 2.79888 0
9 3 1 8.95641 3.93903 0
9 3 2 380.084 10.6857 0
9 3 2 352.828 10.5962 0
9 3 3 -0.33252 1.20323 0
9 3 3 0.59305 1.69344 0
9 3 4 1.05376 1.41969 0
9 3 4 2.21255 1.77208 0
9 3 5 121.677 4.69461 0
9 3 5 119.218 5.90569 0
9 3 6 266.286 8.49827 0
9 3 6 259.85 11.8248 0
9 3 7 6.3433 2.25757 0
9 3 7 5.12453 1.83447 0
9 3 8 14.0835 6.41465 0
9 3 8 18.9625 4.99223 0
9 3 9 0.61525 1.63277 0
9 3 9 1.19796 0.62116 0
9 3 10 309.659 14.1552 0
9 3 10 317.404 13.1547 0
9 3 11 0.64384 1.15729 0
9 3 11 2.51289 1.20347 0
9 3 12 0.76729 0.98689 0
9 3 12 0.08009 1.03339 0
9 3 13 0.87121 1.02582 0
9 3 13 -0.15216 0.57426 0
9 3 14 93.8496 5.07232 0
9 3 14 91.444 5.04435 0
9 3 15 -0.70011 1.66609 0
9 3 16 3.00121 2.07986 0
9 4 -13 1.44442 2.0766 0
-9 -4 13 0.82594 1.00405 0
9 4 -12 3.92354 3.4044 0
9 4 -11 39.2052 2.2684 0
9 4 -10 39.3959 2.22809 0
9 4 -9 6.19671 2.84348 0
9 4 -8 8.08512 3.24726 0
9 4 -7 56.0221 3.20118 0
9 4 -6 93.1866 5.55766 0
9 4 -5 45.864 3.12583 0
9 4 -4 24.9776 1.5451 0
9 4 -4 29.4351 4.04797 0
9 4 -3 109.607 4.40678 0
9 4 -3 98.1263 4.61796 0
9 4 -2 317.384 9.18524 0
9 4 -2 304.16 9.57155 0
9 4 -1 102.681 4.641 0
-9 -4 0 1.431 0.83863 0
9 4 0 2.84535 1.70056 0
-9 -4 -1 18.8211 1.25946 0
9 4 1 18.9188 4.89303 0
9 4 2 273.409 9.14848 0
9 4 3 137.684 5.19511 0
9 4 4 11.801 5.88879 0
9 4 5 174.902 6.37213 0
9 4 6 127.659 5.0959 0
9 4 7 83.9604 3.1949 0
9 4 8 15.8919 6.31402 0
9 4 9 14.7208 4.17933 0
9 4 10 215.672 9.37578 0
9 4 11 24.1819 2.08855 0
9 4 12 36.9701 2.65648 0
9 4 13 10.0985 3.7885 0
9 4 14 78.5078 4.12062 0
9 4 15 4.54211 2.55243 0
9 4 16 20.01 2.00015 0
9 4 17 0.76179 0.67158 0
9 4 18 63.702 3.78803 0
9 5 -13 42.2557 3.34066 0
9 5 -12 0.38723 0.9481 0
9 5 -11 32.1427 5.31182 0
9 5 -10 2.78728 1.43803 0
9 5 -9 96.5994 4.95053 0
9 5 -8 -0.1272 1.02249 0
9 5 -7 21.7973 1.76617 0
9 5 -6 34.201 2.36991 0
9 5 -5 142.668 8.01081 0
9 5 -5 132.725 7.85054 0
9 5 -4 44.2862 1.91953 0
9 5 -4 50.9112 6.81169 0
9 5 -3 7.99493 2.60091 0
9 5 -3 6.73052 2.17743 0
9 5 -2 20.7685 3.55653 0
9 5 -2 28.7514 8.25743 0
9 5 -1 303.392 8.77929 0
9 5 -1 287.63 9.18653 0
9 5 0 13.6296 2.19334 0
9 5 0 13.9898 4.64397 0
9 5 1 10.8534 0.86345 0
9 5 1 13.3525 3.03022 0
-9 -5 -2 54.1273 1.41404 0
9 5 2 55.6758 2.79199 0
9 5 3 415.897 12.5968 0
9 5 4 0.30337 0.73396 0
9 5 5 10.4072 2.86117 0
9 5 6 40.369 2.14251 0
9 5 7 320.848 9.98975 0
9 5 8 45.8726 2.2088 0
9 5 9 5.91967 2.8398 0
9 5 10 43.7082 2.64521 0
9 5 11 89.2948 4.31936 0
9 5 12 51.3193 2.66433 0
9 5 13 6.00334 2.06672 0
9 5 14 14.9406 6.9173 0
9 5 15 17.72 2.78332 0
9 5 16 43.024 3.91474 0
9 5 17 1.16919 1.11294 0
9 5 18 5.0125 3.29534 0
9 6 -12 4.35461 2.81881 0
9 6 -11 0.56292 1.21463 0
9 6 -10 4.36028 2.66379 0
9 6 -9 132.389 4.42964 0
9 6 -8 8.4706 4.40368 0
9 6 -7 3.85961 3.10777 0
9 6 -6 0.21776 0.47139 0
9 6 -5 220.54 10.1028 0
9 6 -5 192.323 9.39134 0
9 6 -4 0.42049 0.48733 0
9 6 -4 1.77665 1.28376 0
9 6 -3 12.0527 3.60197 0
9 6 -3 11.0859 4.51401 0
9 6 -2 17.7969 2.41435 0
9 6 -2 14.4565 4.85236 0
9 6 -1 273.314 9.73225 0
9 6 -1 279.344 10.691 0
9 6 0 6.37778 2.87939 0
9 6 0 6.27923 2.03867 0
9 6 1 42.508 2.45016 0
9 6 1 39.7239 2.30034 0
9 6 2 0.56954 0.45311 0
9 6 2 1.20201 0.94399 0
9 6 3 279.752 7.62966 0
9 6 3 283.884 9.03322 0
9 6 4 57.4573 2.56155 0
9 6 5 113.956 5.38761 0
9 6 6 2.11499 1.73128 0
9 6 7 246.14 10.9851 0
9 6 8 1.61676 0.695 0
9 6 9 54.8635 3.61721 0
9 6 10 4.94382 1.59451 0
9 6 11 83.8151 4.09844 0
9 6 12 3.77886 1.68373 0
9 6 13 57.109 3.55065 0
9 6 14 -0.02781 0.96866 0
9 6 15 37.6283 2.52655 0
9 6 16 4.00009 2.17574 0
9 6 17 54.3544 4.43918 0
9 6 18 0.36582 0.67478 0
9 7 -11 1.36852 0.84956 0
9 7 -10 4.5345 3.81714 0
9 7 -9 69.3657 6.20133 0
9 7 -8 50.4781 2.49176 0
9 7 -7 31.2514 3.33841 0
9 7 -6 10.0334 4.26888 0
9 7 -5 107.283 5.36224 0
9 7 -4 23.3294 1.56492 0
9 7 -4 29.316 8.26834 0
9 7 -3 84.9241 3.79315 0
9 7 -3 99.2314 7.46113 0
9 7 -2 0.1264 0.3483 0
9 7 -2 -0.0955 1.46904 0
9 7 -1 95.5867 5.50108 0
9 7 -1 95.6848 6.83957 0
9 7 0 48.2877 1.95404 0
9 7 0 52.0021 2.56431 0
9 7 1 81.9163 3.03504 0
9 7 1 86.0126 7.36019 0
9 7 2 6.09867 2.22179 0
9 7 2 8.38942 2.00291 0
9 7 3 68.4002 2.38364 0
9 7 3 71.8071 3.39187 0
9 7 4 108.861 3.50167 0
9 7 4 118.54 4.82719 0
9 7 5 290.443 12.0072 0
9 7 6 5.03111 1.70166 0
9 7 7 82.218 3.63441 0
9 7 8 81.0201 4.89572 0
9 7 9 128.037 7.49565 0
9 7 10 8.23236 2.07145 0
9 7 11 16.3344 6.53737 0
9 7 12 8.14813 4.8681 0
9 7 13 129.847 6.27648 0
9 7 14 1.49514 0.90436 0
9 7 15 2.0032 1.37244 0
9 7 16 0.71842 1.36231 0
9 7 17 87.2386 4.6026 0
9 8 -10 13.4549 3.84234 0
9 8 -9 18.6587 2.90126 0
9 8 -8 61.4788 4.69068 0
9 8 -7 31.0532 2.06436 0
9 8 -6 3.18931 2.4925 0
9 8 -5 0.86881 1.10857 0
9 8 -4 87.7322 3.34591 0
9 8 -4 96.3198 4.21747 0
9 8 -3 42.0143 1.91542 0
9 8 -3 50.0606 2.71775 0
9 8 -2 57.079 2.06442 0
9 8 -2 65.2789 2.88126 0
9 8 -1 2.82718 0.94419 0
9 8 0 75.075 2.11285 0
9 8 0 81.6645 4.15122 0
9 8 1 70.2348 3.95946 0
9 8 1 68.3239 4.40844 0
9 8 2 85.5694 5.33549 0
9 8 2 95.3999 5.90623 0
9 8 3 5.1945 2.12294 0
9 8 3 6.04596 4.34018 0
9 8 4 84.3676 4.78253 0
9 8 4 89.476 5.41144 0
9 8 5 88.0148 6.03998 0
9 8 6 180.097 8.23892 0
9 8 7 1.41413 1.21488 0
9 8 8 56.0426 4.41807 0
9 8 9 83.4796 4.71635 0
9 8 10 63.0561 2.50985 0
9 8 11 0.9288 0.79258 0
9 8 12 32.1193 5.23894 0
9 8 13 118.951 5.97019 0
9 8 14 15.3404 5.92126 0
9 8 15 3.94838 2.61038 0
9 8 16 5.57216 2.07162 0
9 8 17 53.0437 4.08355 0
9 9 -8 27.6888 4.0851 0
9 9 -7 4.78502 2.55407 0
9 9 -6 33.0268 1.9049 0
9 9 -5 0.14915 0.91717 0
9 9 -4 22.1629 2.52113 0
9 9 -4 32.3718 7.12363 0
9 9 -3 0.8103 1.22377 0
9 9 -3 0.78892 1.24753 0
9 9 -2 139.805 6.61605 0
9 9 -2 135.708 6.79949 0
9 9 -1 0.76028 0.56958 0
9 9 -1 1.63849 1.81413 0
9 9 0 62.3008 2.11541 0
9 9 0 60.6752 3.01286 0
9 9 1 0.41481 0.45655 0
9 9 1 1.62532 1.1192 0
9 9 2 227.169 10.1732 0
9 9 2 235.337 11.0609 0
9 9 3 3.79265 1.48246 0
9 9 3 4.58578 1.45851 0
9 9 4 0.86694 0.71222 0
9 9 4 2.68351 1.5018 0
9 9 5 1.80578 1.93609 0
9 9 6 315.738 7.99751 0
9 9 7 8.80081 3.00909 0
9 9 8 6.98744 2.64874 0
9 9 9 1.10767 1.38271 0
9 9 10 103.102 5.43476 0
9 9 11 0.94863 0.94863 0
9 9 12 1.42752 2.33719 0
9 9 13 6.05771 5.12524 0
9 9 14 91.0147 4.29687 0
9 9 15 5.232 2.34601 0
9 9 16 0.71114 1.02655 0
9 10 -7 21.5632 3.64129 0
9 10 -6 88.8222 5.86458 0
9 10 -5 1.96892 1.305 0
9 10 -4 0.38463 0.99918 0
9 10 -3 18.3177 2.13795 0
9 10 -3 13.7959 4.09644 0
9 10 -2 96.638 3.36969 0
9 10 -2 95.3047 4.62337 0
9 10 -1 12.9647 1.82214 0
9 10 -1 14.4094 3.5837 0
9 10 0 3.96481 2.269 0
9 10 0 3.08242 1.14402 0
9 10 1 14.2362 3.15634 0
9 10 1 9.76652 3.54574 0
9 10 2 170.643 8.70289 0
9 10 2 160.476 9.70226 0
9 10 3 20.244 2.1832 0
9 10 3 20.1255 5.4506 0
9 10 4 30.5268 2.31504 0
9 10 5 10.3395 4.55323 0
9 10 6 256.607 5.22864 0
9 10 7 20.7171 5.82068 0
9 10 8 2.18263 1.65198 0
9 10 10 183.261 8.29273 0
9 10 11 6.49489 2.75398 0
9 10 12 50.5574 4.47805 0
9 10 13 0.54563 1.01724 0
9 10 14 63.2793 4.43851 0
9 10 15 0.52818 0.77166 0
9 10 16 5.85868 4.93382 0
9 11 -5 32.0672 2.68944 0
9 11 -4 0.12742 0.61122 0
9 11 -3 6.50761 3.06905 0
9 11 -3 8.7822 4.13038 0
9 11 -2 19.5988 3.96873 0
9 11 -2 25.0114 2.47834 0
9 11 -1 64.9584 4.4125 0
9 11 -1 78.0661 4.0035 0
9 11 0 14.1133 2.28708 0
9 11 0 13.8483 4.94063 0
9 11 1 1.4714 1.29421 0
9 11 1 2.20935 0.92411 0
9 11 2 33.9907 2.42077 0
9 11 3 70.2421 3.86162 0
9 11 4 43.7234 2.51715 0
9 11 5 1.10492 1.30058 0
9 11 6 35.7696 2.24535 0
9 11 7 101.817 3.91691 0
9 11 8 31.032 2.09235 0
9 11 9 1.04153 1.0925 0
9 11 10 38.3683 1.9792 0
9 11 11 17.8457 6.76036 0
9 11 12 56.9086 5.14665 0
9 11 13 0.51926 0.7819 0
9 11 14 12.2957 6.03236 0
9 12 -3 0.37781 0.59424 0
9 12 -2 1.37201 1.00952 0
9 12 -2 -0.00585 0.83607 0
9 12 -1 88.7637 5.75038 0
9 12 -1 91.3935 6.52255 0
9 12 0 0.2505 1.16495 0
9 12 0 0.79225 1.00406 0
9 12 1 12.5622 5.95268 0
9 12 2 0.10712 1.40931 0
9 12 3 33.8767 4.57925 0
9 12 4 3.11061 1.79639 0
9 12 5 42.47 4.30685 0
9 12 6 0.3263 0.7443 0
9 12 7 110.449 4.8894 0
9 12 8 12.9757 4.04689 0
9 12 9 46.1189 2.89847 0
9 12 10 1.59178 1.10185 0
9 12 11 28.9299 4.61127 0
9 12 12 8.05105 3.50933 0
9 12 13 27.0512 2.38966 0
9 13 1 50.8831 3.72627 0
9 13 2 0.23214 0.80476 0
9 13 3 8.47027 3.96061 0
9 13 4 5.28436 2.4642 0
9 13 5 75.8362 4.2129 0
9 13 6 0.53607 0.99528 0
9 13 7 24.7517 2.38412 0
9 13 8 1.20308 0.88187 0
9 13 9 96.6147 5.0081 0
9 13 10 1.38085 1.24428 0
-10 7 7 2.13228 1.43286 0
10 -7 -7 2.96779 1.5803 0
-10 7 6 38.1223 5.26713 0
10 -7 -6 37.5086 3.06833 0
-10 7 5 18.0446 2.299 0
10 -7 -5 17.7811 3.65927 0
-10 7 4 58.8497 3.57957 0
10 -7 -4 72.8128 4.24062 0
-10 7 3 -0.00596 1.25258 0
10 -7 -3 0.45729 1.13726 0
-10 7 2 20.7063 2.95604 0
10 -7 -2 11.5388 5.67656 0
-10 7 1 2.82087 2.23194 0
10 -7 -1 3.28402 1.95245 0
10 -7 0 57.3358 4.28512 0
10 -7 1 0.60638 0.88686 0
10 -7 2 2.81208 2.04017 0
10 -7 3 5.35682 2.81136 0
10 -7 4 62.3238 4.57035 0
-10 6 9 48.83 3.73618 0
-10 6 8 30.1517 4.64671 0
10 -6 -8 25.8617 2.27142 0
-10 6 7 51.8299 2.9374 0
10 -6 -7 48.0237 4.24358 0
-10 6 6 1.65469 2.00283 0
10 -6 -6 1.48676 1.32498 0
-10 6 5 29.6977 2.68313 0
10 -6 -5 28.9874 2.64147 0
-10 6 4 41.4554 3.28958 0
10 -6 -4 41.0711 3.2389 0
-10 6 3 16.3705 4.24238 0
10 -6 -3 16.5218 2.75222 0
-10 6 2 0.79755 0.97336 0
10 -6 -2 1.52221 0.76754 0
-10 6 1 14.4886 1.38723 0
10 -6 -1 16.6274 1.65136 0
-10 6 0 57.295 4.16426 0
10 -6 0 51.6913 6.00433 0
10 -6 1 38.5567 6.34205 0
10 -6 2 6.95633 3.16331 0
10 -6 3 9.15427 5.46267 0
10 -6 4 39.0439 4.27499 0
10 -6 5 14.5977 1.67744 0
10 -6 6 5.50899 2.95333 0
-10 5 10 0.92515 1.01649 0
-10 5 9 25.7389 1.83606 0
-10 5 8 3.03809 3.08563 0
10 -5 -8 5.73311 2.0378 0
-10 5 7 139.649 6.822 0
10 -5 -7 134.999 5.47628 0
-10 5 6 1.96212 1.07341 0
10 -5 -6 1.86217 1.32112 0
-10 5 5 9.06135 4.02727 0
10 -5 -5 5.98115 3.27492 0
-10 5 4 1.47952 0.95866 0
10 -5 -4 0.26492 0.74537 0
-10 5 3 97.3021 3.54065 0
10 -5 -3 102 7.54885 0
-10 5 2 1.21367 0.85483 0
10 -5 -2 0.63312 0.70855 0
-10 5 1 28.5235 2.71892 0
10 -5 -1 25.761 2.0518 0
-10 5 0 1.54578 1.24578 0
10 -5 0 2.34271 3.7717 0
10 -5 1 182.371 6.26989 0
10 -5 2 6.86343 6.10259 0
10 -5 3 0.91833 0.80242 0
10 -5 5 65.3301 4.87394 0
10 -5 6 11.8525 4.98303 0
10 -5 7 2.64811 2.02527 0
10 -5 8 1.38943 1.17825 0
10 -5 9 55.2187 4.88274 0
-10 4 11 79.0122 4.19717 0
-10 4 10 4.83439 2.40909 0
-10 4 9 0.1721 0.70729 0
-10 4 8 1.55271 1.51584 0
10 -4 -8 1.37705 1.02791 0
-10 4 7 133.576 7.09179 0
10 -4 -7 128.838 4.24794 0
-10 4 6 9.23761 3.78089 0
10 -4 -6 9.12802 4.04345 0
-10 4 5 5.65903 2.41797 0
10 -4 -5 8.10964 4.39525 0
-10 4 4 3.52852 1.78206 0
10 -4 -4 4.94752 2.26138 0
-10 4 3 168.781 7.95712 0
10 -4 -3 173.277 8.44782 0
-10 4 2 1.43257 1.2796 0
10 -4 -2 1.3233 0.76242 0
-10 4 1 10.2458 4.33844 0
10 -4 -1 10.7339 4.52877 0
-10 4 0 6.03889 3.58086 0
10 -4 0 6.75897 3.5296 0
-10 4 -1 135.57 6.51904 0
10 -4 1 143.723 7.49617 0
10 -4 2 5.30839 2.85058 0
10 -4 3 44.8671 2.62595 0
10 -4 4 4.46913 2.35033 0
10 -4 5 78.9936 3.24195 0
10 -4 6 1.27763 1.63115 0
10 -4 7 22.4252 2.10937 0
10 -4 8 0.92202 0.85028 0
10 -4 9 51.3919 2.89948 0
10 -4 10 0.26903 0.5086 0
10 -4 11 46.7141 3.55633 0
-10 3 12 1.43118 1.7503 0
-10 3 11 34.8477 2.27855 0
-10 3 10 91.5059 4.04542 0
-10 3 9 21.3517 1.66861 0
-10 3 8 0.55646 0.65333 0
10 -3 -8 1.176 0.60828 0
-10 3 7 51.0314 2.57514 0
10 -3 -7 45.7233 2.16414 0
-10 3 6 77.3795 5.37093 0
10 -3 -6 69.2205 3.20823 0
-10 3 5 40.4717 1.99851 0
10 -3 -5 39.4272 4.1756 0
-10 3 4 1.29865 1.0564 0
10 -3 -4 0.7717 1.08388 0
-10 3 3 76.2256 3.68674 0
10 -3 -3 76.9061 4.59827 0
-10 3 2 82.7151 3.85964 0
10 -3 -2 85.6856 4.89522 0
-10 3 1 24.7884 2.25161 0
10 -3 -1 22.8137 1.85305 0
-10 3 0 1.07373 1.45499 0
10 -3 0 0.68729 1.21897 0
-10 3 -1 28.924 4.08323 0
10 -3 1 27.6465 2.85231 0
10 -3 2 79.1344 4.36913 0
10 -3 3 100.812 3.83004 0
10 -3 4 0.9511 1.81007 0
10 -3 5 11.0963 5.37391 0
10 -3 6 11.4689 4.33324 0
10 -3 7 37.8082 2.66708 0
10 -3 8 7.69056 3.48776 0
10 -3 9 6.01473 4.30181 0
10 -3 10 12.4119 6.81091 0
10 -3 11 64.6222 4.67124 0
10 -3 12 4.41238 3.88989 0
10 -3 12 10.8878 2.05924 0
-10 2 13 0.48031 0.92469 0
-10 2 12 11.1721 1.61834 0
-10 2 11 0.30198 0.70324 0
-10 2 10 111.194 5.66409 0
-10 2 9 2.63121 1.44683 0
-10 2 8 7.45209 3.87248 0
10 -2 -8 8.0053 3.75394 0
-10 2 7 1.61786 0.79571 0
10 -2 -7 1.24044 1.02889 0
-10 2 6 156.202 7.2509 0
10 -2 -6 139.409 6.74007 0
-10 2 5 29.7322 2.47322 0
10 -2 -5 27.8378 4.19683 0
-10 2 4 60.8919 2.10224 0
10 -2 -4 53.7182 2.40779 0
-10 2 3 1.16106 0.7696 0
10 -2 -3 1.73892 1.49926 0
-10 2 2 189.982 8.73946 0
10 -2 -2 191.838 9.31236 0
-10 2 1 11.0166 4.18236 0
10 -2 -1 11.9578 4.28331 0
-10 2 0 77.4916 3.63541 0
10 -2 0 65.8484 3.97238 0
-10 2 -1 -0.39946 1.12176 0
10 -2 1 0.47059 1.2613 0
10 -2 2 97.5962 9.06879 0
10 -2 3 34.8296 2.56167 0
10 -2 4 59.2164 3.4344 0
10 -2 4 58.3795 3.76438 0
10 -2 5 3.88767 1.83405 0
10 -2 5 4.36298 2.21378 0
10 -2 6 30.9645 1.6362 0
10 -2 6 24.5103 6.97778 0
10 -2 7 7.86547 4.6 0
10 -2 7 10.361 5.56058 0
10 -2 8 91.6438 4.49842 0
10 -2 8 89.4762 4.98826 0
10 -2 9 1.36688 0.84116 0
10 -2 9 1.63203 2.27204 0
10 -2 10 26.0538 1.96836 0
10 -2 10 23.5322 2.62522 0
10 -2 11 30.2301 1.92548 0
10 -2 11 29.5086 2.3529 0
10 -2 12 52.8579 2.80288 0
10 -2 12 50.1785 2.973 0
10 -2 13 1.45224 1.26054 0
10 -2 13 2.27517 1.70009 0
-10 1 13 1.78372 1.18404 0
-10 1 12 47.6738 3.95356 0
-10 1 11 0.19367 0.72416 0
-10 1 10 72.8076 2.99303 0
-10 1 9 13.1238 1.84571 0
-10 1 8 62.208 2.83456 0
10 -1 -8 62.6292 3.53665 0
-10 1 7 8.74303 4.01473 0
10 -1 -7 8.39242 3.3703 0
-10 1 6 71.4413 4.8239 0
10 -1 -6 75.6136 3.78656 0
-10 1 5 4.15853 1.62599 0
10 -1 -5 2.20576 1.21488 0
-10 1 4 233.889 10.8674 0
10 -1 -4 232.224 11.1652 0
-10 1 3 1.18502 0.74202 0
10 -1 -3 0.9829 0.76971 0
-10 1 2 92.3144 5.75011 0
10 -1 -2 90.4747 3.36949 0
-10 1 1 2.00445 1.46271 0
10 -1 -1 2.79996 1.28308 0
10 -1 -1 4.22561 2.3295 0
-10 1 0 236.008 9.92549 0
10 -1 0 258.594 10.0862 0
10 -1 0 240.619 11.2483 0
-10 1 -1 3.54304 1.79736 0
10 -1 1 2.69891 0.86997 0
10 -1 1 1.93518 1.93231 0
10 -1 2 33.4395 1.38819 0
10 -1 2 29.1607 4.62446 0
10 -1 3 0.97199 1.06524 0
10 -1 3 1.57666 1.57949 0
10 -1 4 259.305 10.2856 0
10 -1 4 240.41 11.5365 0
10 -1 5 4.28557 2.32101 0
10 -1 6 6.20324 1.69131 0
10 -1 6 4.75847 1.84507 0
10 -1 7 3.74765 1.75936 0
10 -1 7 3.09174 3.19206 0
10 -1 8 155.279 7.37448 0
10 -1 8 144.403 7.91419 0
10 -1 9 0.4917 0.6476 0
10 -1 9 1.16808 2.36255 0
10 -1 10 0.96497 1.2974 0
10 -1 10 1.39667 0.71565 0
10 -1 11 0.65684 0.85656 0
10 -1 11 1.05183 1.21383 0
10 -1 12 112.871 4.92425 0
10 -1 12 108.425 6.44595 0
10 -1 13 0.497 1.05486 0
10 -1 13 0.994 0.88446 0
10 -1 14 0.14511 1.08543 0
10 -1 14 -0.07159 0.73523 0
-10 0 13 42.2217 3.21981 0
-10 0 12 45.0046 3.4102 0
-10 0 11 16.7236 1.67214 0
-10 0 10 2.6745 1.4384 0
-10 0 9 37.2764 4.62072 0
-10 0 8 64.2781 2.96631 0
-10 0 7 12.0479 2.39954 0
10 0 -7 14.7817 4.8041 0
-10 0 6 -0.05997 0.8343 0
-10 0 5 55.3448 2.94467 0
10 0 -5 56.418 3.28984 0
-10 0 4 149.444 7.11993 0
10 0 -4 145.716 5.45871 0
-10 0 3 72.1899 3.96814 0
10 0 -3 80.7984 4.30712 0
10 0 -3 75.0357 4.6632 0
-10 0 2 0.78583 0.60604 0
10 0 -2 0.53935 0.61184 0
10 0 -2 -0.96561 1.42087 0
-10 0 1 56.7542 2.31943 0
10 0 -1 56.3554 2.38687 0
10 0 -1 54.5344 3.06716 0
10 0 0 174.155 6.93492 0
10 0 0 192.336 7.95937 0
10 0 1 50.2159 3.46745 0
10 0 1 52.6035 4.83431 0
10 0 2 1.31308 1.05342 0
10 0 2 0.94129 0.91768 0
10 0 3 64.8016 2.70373 0
10 0 3 62.3703 3.4214 0
10 0 4 230.693 9.29734 0
10 0 4 216.966 9.73456 0
10 0 5 25.7892 1.71056 0
10 0 5 23.8627 6.38762 0
10 0 6 3.04646 1.34044 0
10 0 6 1.34598 1.24905 0
10 0 7 0.88943 0.73358 0
10 0 7 1.15008 1.28175 0
10 0 8 68.0364 3.77865 0
10 0 8 61.653 3.24366 0
10 0 9 5.83471 2.17426 0
10 0 10 59.5516 2.83774 0
10 0 10 57.5267 3.13594 0
10 0 11 1.28319 0.56774 0
10 0 11 0.74545 1.21857 0
10 0 12 75.7693 3.29056 0
10 0 12 70.8456 3.30605 0
10 0 13 3.29281 2.48334 0
10 0 13 3.89727 1.71615 0
10 0 14 24.2486 2.5706 0
10 0 14 22.8858 1.75735 0
10 0 15 0.38714 1.15949 0
10 0 15 0.80302 1.28023 0
-10 -1 13 21.6786 1.95592 0
-10 -1 12 0.88984 0.98084 0
-10 -1 11 94.237 4.13285 0
-10 -1 10 1.11592 0.58135 0
-10 -1 9 25.0244 3.86673 0
-10 -1 8 23.8591 3.1545 0
-10 -1 7 145.787 6.89726 0
-10 -1 6 6.25666 2.44792 0
-10 -1 5 12.4321 1.26341 0
10 1 -5 9.58607 3.9403 0
-10 -1 4 21.2211 1.87949 0
10 1 -4 15.6192 5.53422 0
-10 -1 3 295.392 11.6912 0
10 1 -3 314.17 12.3912 0
10 1 -3 298.357 12.3015 0
-10 -1 2 18.8025 1.7746 0
10 1 -2 17.799 1.55388 0
10 1 -2 17.4017 1.88055 0
-10 -1 1 14.3023 1.6256 0
10 1 -1 14.3321 2.10284 0
10 1 -1 12.6349 5.07067 0
10 1 0 33.7672 1.82078 0
10 1 0 34.1615 2.26018 0
10 1 1 250.708 9.13763 0
10 1 1 233.411 9.17994 0
10 1 2 55.5083 3.35042 0
10 1 2 57.1684 3.12706 0
10 1 3 0.59997 0.86396 0
10 1 3 1.22694 1.53292 0
10 1 4 47.4612 2.1928 0
10 1 4 54.82 5.07697 0
10 1 5 201.588 7.55196 0
10 1 5 199.56 8.36444 0
10 1 6 15.7859 2.82146 0
10 1 6 14.1847 2.64387 0
10 1 7 6.71325 2.75594 0
10 1 7 3.098 1.4906 0
10 1 8 1.58611 1.49202 0
10 1 8 2.98135 2.86037 0
10 1 9 98.6278 5.02876 0
10 1 9 97.8536 5.46638 0
10 1 10 36.2262 2.14661 0
10 1 10 33.5075 3.27588 0
10 1 11 7.24253 3.63915 0
10 1 11 8.01758 2.30368 0
10 1 12 35.0644 2.00981 0
10 1 12 31.159 5.85586 0
10 1 13 59.1999 2.8814 0
10 1 13 54.0536 3.92859 0
10 1 14 54.0085 3.09078 0
10 1 14 50.6076 2.74112 0
10 1 15 12.8509 8.39898 0
10 1 15 16.3011 1.87458 0
10 1 16 2.27795 2.33631 0
-10 -2 13 0.44962 0.54488 0
-10 -2 12 3.48782 2.14682 0
-10 -2 11 137.284 5.49339 0
-10 -2 10 1.21053 1.12422 0
-10 -2 9 0.09254 0.96013 0
-10 -2 8 1.37797 0.82678 0
-10 -2 7 148.728 6.91578 0
-10 -2 6 0.45464 0.46252 0
-10 -2 5 30.9738 2.25706 0
-10 -2 4 0.44616 0.59865 0
10 2 -4 1.3046 1.10128 0
-10 -2 3 362.588 4.11168 0
10 2 -3 370.916 4.91834 0
10 2 -3 332.027 14.6128 0
-10 -2 2 0.88437 1.12987 0
10 2 -2 0.75127 1.23635 0
10 2 -2 1.74804 1.26001 0
-10 -2 1 10.9062 1.52886 0
10 2 -1 10.9933 3.01866 0
10 2 -1 13.0508 5.55674 0
10 2 0 4.12385 1.35437 0
10 2 0 3.8961 2.0346 0
10 2 1 275.093 8.43762 0
10 2 1 258.701 10.4477 0
10 2 2 3.83042 1.91062 0
10 2 2 3.70202 1.38482 0
10 2 3 113.159 4.89295 0
10 2 3 105.856 4.66169 0
10 2 4 0.79857 0.77446 0
10 2 4 0.43695 1.59413 0
10 2 5 274.768 10.0705 0
10 2 5 267.101 12.2272 0
10 2 6 1.33012 1.03551 0
10 2 6 0.5688 1.07927 0
10 2 7 74.4212 4.42661 0
10 2 7 84.7262 5.29201 0
10 2 8 1.58098 1.72145 0
10 2 8 0.65553 1.07418 0
10 2 9 75.2227 4.45156 0
10 2 9 66.8053 3.97907 0
10 2 10 0.91554 1.5123 0
10 2 10 0.77018 1.32868 0
10 2 11 66.8744 3.45666 0
10 2 11 59.5699 3.32221 0
10 2 12 -0.35803 1.32681 0
10 2 12 -0.12402 1.14429 0
10 2 13 30.6746 2.01468 0
10 2 13 27.2945 1.87589 0
10 2 14 7.17577 2.63831 0
10 2 14 5.6462 3.36465 0
10 2 15 73.3911 5.0326 0
10 2 15 66.0026 4.61423 0
10 2 16 0.52116 1.1755 0
10 2 16 0.2683 0.96897 0
-10 -3 12 6.15246 4.0471 0
-10 -3 12 8.33075 2.52328 0
-10 -3 11 55.0515 2.62594 0
-10 -3 10 60.0994 4.10929 0
-10 -3 9 14.8303 2.42877 0
-10 -3 8 0.39092 0.81283 0
-10 -3 7 87.4057 4.3785 0
-10 -3 6 54.2795 4.26857 0
-10 -3 5 83.1563 4.40036 0
-10 -3 4 0.9141 0.77433 0
10 3 -4 1.95958 1.27471 0
-10 -3 3 98.1136 5.52683 0
10 3 -3 94.8038 5.66811 0
-10 -3 2 39.8704 1.54174 0
10 3 -2 37.2783 1.93012 0
10 3 -1 179.462 6.49292 0
10 3 0 1.94223 1.20594 0
10 3 1 97.9123 4.33605 0
10 3 1 100.963 5.4109 0
10 3 2 51.3618 2.54697 0
10 3 2 39.0127 2.21635 0
10 3 3 179.386 4.50869 0
10 3 3 179.926 5.51299 0
10 3 4 2.55576 1.51105 0
10 3 4 3.7549 4.4756 0
10 3 5 60.5164 4.94164 0
10 3 5 67.446 3.87738 0
10 3 6 18.1101 4.02054 0
10 3 6 17.1902 1.83393 0
10 3 7 103.233 7.31168 0
10 3 7 107.403 6.55718 0
10 3 8 2.56389 1.33914 0
10 3 8 0.33199 1.34751 0
10 3 9 13.9876 5.77434 0
10 3 9 11.6967 3.80649 0
10 3 10 22.2653 1.87939 0
10 3 10 26.9948 3.31611 0
10 3 11 184.642 8.83433 0
10 3 11 169.511 8.19869 0
10 3 12 0.5397 0.54683 0
10 3 12 0.87493 1.33379 0
10 3 13 5.70688 2.38829 0
10 3 13 5.51582 2.4952 0
10 3 14 1.30926 1.06132 0
10 3 14 1.21574 1.0896 0
10 3 15 96.5471 6.37567 0
10 3 15 88.8458 6.10683 0
10 3 16 1.10062 1.6018 0
10 4 -11 4.09487 3.10304 0
10 4 -10 100.019 4.35215 0
10 4 -9 7.25373 3.25782 0
10 4 -8 20.9851 1.60277 0
10 4 -7 3.06936 2.24 0
-10 -4 4 78.5709 3.40221 0
10 4 -4 82.8483 4.00389 0
-10 -4 3 11.6017 1.69491 0
10 4 -3 10.4774 4.27401 0
-10 -4 2 196.212 7.84893 0
10 4 -2 189.803 8.28659 0
10 4 -1 141.483 5.44234 0
10 4 0 107.277 4.49752 0
10 4 1 4.01982 1.05626 0
10 4 2 105.934 4.41555 0
10 4 3 107.402 4.78667 0
10 4 4 80.5087 3.37935 0
10 4 5 1.51804 1.6758 0
10 4 6 35.5489 2.29546 0
10 4 7 41.8047 2.08793 0
10 4 8 112.278 8.60822 0
10 4 9 10.0431 3.63021 0
10 4 10 24.3816 1.86651 0
10 4 11 89.5179 3.71275 0
10 4 12 41.854 2.41019 0
10 4 13 7.352 3.32765 0
10 4 14 2.05079 2.28548 0
10 4 15 40.6606 3.33356 0
10 4 16 18.8373 3.07863 0
10 4 17 3.29198 2.82548 0
10 5 -11 2.31051 2.05161 0
10 5 -10 47.0075 2.49523 0
10 5 -9 1.04908 1.16589 0
10 5 -8 92.6026 3.3617 0
10 5 -7 0.25919 0.52545 0
10 5 -6 56.466 2.13806 0
10 5 -5 0.36245 0.70194 0
10 5 -4 168.084 7.76894 0
10 5 -4 155.281 8.79333 0
10 5 -3 39.5239 2.22115 0
10 5 -3 45.4516 5.77172 0
10 5 -2 30.4374 1.37085 0
10 5 -2 25.1904 7.33841 0
10 5 -1 2.54481 1.63122 0
10 5 0 216.804 8.56481 0
10 5 1 1.25788 1.43505 0
10 5 2 20.1848 6.90937 0
10 5 3 15.508 5.77055 0
10 5 4 350.75 12.6333 0
10 5 5 22.665 1.82763 0
10 5 6 1.75775 1.32917 0
10 5 7 21.256 4.91964 0
10 5 8 168.379 8.14769 0
10 5 9 10.1036 3.2475 0
10 5 10 0.68426 0.72299 0
10 5 11 6.30954 2.79568 0
10 5 12 118.208 5.72533 0
10 5 13 9.85591 5.99686 0
10 5 14 2.9241 2.24627 0
10 5 15 5.45538 2.90131 0
10 5 16 51.9874 5.11809 0
10 5 17 17.9148 4.26877 0
10 6 -11 4.47719 1.57363 0
10 6 -10 0.30121 0.60638 0
10 6 -9 22.0299 2.95061 0
10 6 -8 93.0184 4.118 0
10 6 -7 26.794 1.7704 0
10 6 -6 5.90011 2.80856 0
10 6 -5 7.01254 3.74753 0
10 6 -4 199.33 8.97555 0
10 6 -4 192.538 9.17354 0
10 6 -3 0.19145 0.39601 0
10 6 -3 0.52189 0.98871 0
10 6 -2 1.31193 1.00959 0
10 6 -2 2.84251 1.26874 0
10 6 -1 34.5717 2.4123 0
10 6 -1 40.4891 7.37246 0
10 6 0 177.35 7.95558 0
10 6 1 24.2785 7.51191 0
10 6 2 9.24614 4.28409 0
10 6 3 0.66499 1.1536 0
10 6 4 311.291 12.6903 0
10 6 5 1.55089 0.74969 0
10 6 6 10.3098 3.82492 0
10 6 7 12.0344 4.87906 0
10 6 8 145.447 7.16546 0
10 6 9 31.282 3.52647 0
10 6 10 27.8454 1.9895 0
10 6 11 1.21697 1.32226 0
10 6 12 102.71 5.35133 0
10 6 13 0.48721 1.06733 0
10 6 14 27.7558 1.99514 0
10 6 15 1.36466 1.90055 0
10 6 16 70.5865 4.14993 0
10 6 17 0.21905 1.13114 0
10 7 -10 0.45304 0.86248 0
10 7 -9 18.5931 2.8095 0
10 7 -8 21.0352 1.68514 0
10 7 -7 126.095 5.14188 0
10 7 -6 5.24743 3.1935 0
10 7 -5 3.72919 3.3509 0
10 7 -4 31.3187 3.82059 0
10 7 -4 36.9614 2.19424 0
10 7 -3 70.8467 3.34502 0
10 7 -3 71.4678 3.41487 0
10 7 -2 36.238 1.61685 0
10 7 -2 40.1005 2.38422 0
10 7 -1 6.59936 2.14105 0
10 7 -1 9.04026 3.08268 0
10 7 0 70.4276 3.99346 0
10 7 1 87.8441 4.80968 0
10 7 2 27.5832 8.21909 0
10 7 3 2.8925 1.88317 0
10 7 4 46.5811 2.34839 0
10 7 5 49.3174 3.15972 0
10 7 6 57.5364 3.38051 0
10 7 7 0.85366 1.02705 0
10 7 8 28.2362 1.88485 0
10 7 9 99.7877 4.63999 0
10 7 10 43.4492 2.67714 0
10 7 11 3.26771 1.88366 0
10 7 12 24.5139 1.83739 0
10 7 13 7.21383 3.67144 0
10 7 14 54.21 3.97612 0
10 7 15 7.85061 4.14213 0
10 7 16 6.36558 3.37829 0
10 8 -8 0.17127 0.42719 0
10 8 -7 124.145 3.20037 0
10 8 -6 1.18831 0.81643 0
10 8 -5 6.05926 4.06906 0
10 8 -4 0.12362 0.90881 0
10 8 -4 0.37314 0.71881 0
10 8 -3 161.079 7.04715 0
10 8 -3 177.311 8.23859 0
10 8 -2 5.08468 2.34957 0
10 8 -2 5.92364 2.93393 0
10 8 -1 10.7418 5.18585 0
10 8 0 1.822 1.7029 0
10 8 1 112.907 5.89505 0
10 8 2 14.3282 4.66154 0
10 8 3 62.3678 3.08985 0
10 8 4 8.47348 4.1699 0
10 8 5 59.8143 2.56556 0
10 8 6 31.2377 2.20319 0
10 8 7 44.4628 2.51917 0
10 8 8 0.86598 1.10124 0
10 8 9 128.254 6.65516 0
10 8 10 9.81729 4.55471 0
10 8 11 59.6471 4.02771 0
10 8 12 0.53152 1.03612 0
10 8 13 46.3697 3.51105 0
10 8 14 31.6002 2.14154 0
10 8 15 55.3113 5.28269 0
10 8 16 1.40015 1.03048 0
10 9 -7 55.1658 3.80267 0
10 9 -6 24.9547 2.95964 0
10 9 -5 35.2358 1.98062 0
10 9 -4 0.48166 1.24411 0
10 9 -4 -0.03888 1.05836 0
10 9 -3 44.4676 1.96616 0
10 9 -3 52.8216 5.61156 0
10 9 -2 14.4382 6.00488 0
10 9 -1 52.342 3.267 0
10 9 0 -0.46435 1.6645 0
10 9 1 75.0448 3.55099 0
10 9 2 7.92808 2.58152 0
10 9 3 119.13 6.13357 0
10 9 4 6.63026 2.34183 0
10 9 5 29.0152 2.0778 0
10 9 6 0.76864 1.01588 0
10 9 7 151.866 7.41831 0
10 9 8 1.18676 1.17246 0
10 9 9 10.9879 4.78223 0
10 9 10 9.20749 4.12623 0
10 9 11 89.5305 3.50489 0
10 9 12 -1.09013 1.24586 0
10 9 13 11.5381 1.38373 0
10 9 14 0.45947 0.67309 0
10 9 15 104.61 5.37414 0
10 10 -3 2.16162 1.17869 0
10 10 -2 32.6973 9.01765 0
10 10 -1 72.4706 3.41664 0
10 10 0 9.82841 3.52769 0
10 10 1 1.19927 1.02697 0
10 10 2 27.9211 1.88067 0
10 10 3 61.6445 3.16635 0
10 10 4 9.30369 2.30099 0
10 10 5 0.60506 0.67924 0
10 10 6 13.4791 5.3621 0
10 10 7 105.881 5.41128 0
10 10 8 15.8833 4.62519 0
10 10 9 1.11549 1.29325 0
10 10 10 3.56723 1.78253 0
10 10 11 121.99 5.1108 0
10 10 12 17.3985 1.66507 0
10 10 13 6.53111 4.05565 0
10 10 14 -0.36808 1.09069 0
10 11 -3 1.49469 0.77064 0
10 11 -2 27.811 3.3476 0
10 11 -1 11.8894 5.56021 0
10 11 0 68.1488 6.75369 0
10 11 1 3.07921 2.04222 0
10 11 2 12.6812 4.99743 0
10 11 3 0.31369 1.08384 0
10 11 4 84.4398 4.28526 0
10 11 5 2.22387 1.58848 0
10 11 6 14.4424 5.38092 0
10 11 7 12.3383 4.87846 0
10 11 8 86.8004 4.18048 0
10 11 9 5.66256 2.49061 0
10 11 10 1.08017 0.84356 0
10 11 11 9.25355 3.75938 0
10 11 12 71.0168 4.02945 0
10 11 13 5.98722 3.12534 0
10 12 -1 1.95784 1.14097 0
10 12 0 67.1395 3.96507 0
10 12 1 0.46744 0.9388 0
10 12 2 0.53522 0.74812 0
10 12 3 1.69728 1.59283 0
10 12 4 76.239 5.34578 0
10 12 5 1.76132 1.03857 0
10 12 6 2.57885 1.75628 0
10 12 7 0.36783 0.77989 0
10 12 8 73.6865 5.17853 0
10 12 9 -0.1947 1.08365 0
10 12 10 14.7079 6.90393 0
10 12 11 0.94948 0.70451 0
11 -6 -5 0.27273 0.82955 0
11 -6 -4 42.4053 4.61607 0
11 -6 -3 3.89667 1.73852 0
11 -6 -2 29.1868 2.67897 0
11 -6 -1 0.21228 0.705 0
11 -6 0 27.3863 3.42134 0
11 -6 1 11.4387 4.02947 0
11 -6 2 39.4535 3.35199 0
11 -6 3 0.96183 1.23258 0
11 -5 -7 6.58366 4.91655 0
11 -5 -6 64.3481 3.62693 0
11 -5 -5 0.35859 1.11783 0
11 -5 -4 12.4322 1.9633 0
11 -5 -3 8.58811 4.50773 0
11 -5 -2 51.2979 2.7893 0
11 -5 -1 5.36008 3.94014 0
11 -5 0 17.1546 1.65758 0
11 -5 1 1.19571 0.94583 0
11 -5 2 141.539 4.38655 0
11 -5 3 -0.08295 1.14315 0
11 -5 4 0.77089 1.11151 0
11 -5 5 1.21388 1.25493 0
11 -5 6 55.6208 4.30692 0
-11 4 9 18.0135 2.9115 0
-11 4 8 0.35401 1.00304 0
-11 4 7 31.0927 2.03582 0
11 -4 -7 34.8796 2.20547 0
11 -4 -6 43.5733 2.5354 0
11 -4 -5 27.8589 1.97349 0
11 -4 -4 0.5581 0.72983 0
11 -4 -3 3.73622 2.01817 0
11 -4 -2 59.5068 2.71063 0
11 -4 -1 41.4745 4.72943 0
11 -4 0 11.0147 4.82511 0
11 -4 1 6.76125 4.37712 0
11 -4 2 56.0617 4.05476 0
11 -4 3 17.1022 1.74085 0
11 -4 4 7.30821 4.84241 0
11 -4 5 0.82921 1.08964 0
11 -4 6 39.565 3.86606 0
11 -4 7 8.39238 4.98937 0
11 -4 8 15.2771 1.70239 0
-11 3 10 0.17413 0.45926 0
-11 3 9 113.798 5.41077 0
-11 3 8 2.92503 2.47738 0
-11 3 7 15.1665 2.446 0
11 -3 -7 18.7428 1.95975 0
-11 3 6 7.0241 1.26866 0
11 -3 -6 4.57972 2.60216 0
11 -3 -5 113.638 4.05678 0
11 -3 -4 4.83857 3.29238 0
11 -3 -3 0.71337 0.90709 0
11 -3 -2 19.2941 5.00602 0
11 -3 -1 106.985 5.4547 0
11 -3 0 7.69112 4.22176 0
11 -3 1 0.18076 1.20972 0
11 -3 2 6.7254 4.66402 0
11 -3 3 74.4735 4.25432 0
11 -3 4 36.7158 2.30907 0
11 -3 5 0.88825 1.61298 0
11 -3 6 7.68218 3.94707 0
11 -3 7 51.8891 4.52721 0
11 -3 8 24.7954 3.94435 0
11 -3 9 1.5219 1.728 0
11 -3 10 1.93653 2.25449 0
-11 2 11 5.45283 2.85786 0
-11 2 10 15.4952 1.59766 0
-11 2 9 94.8103 6.0486 0
-11 2 8 7.63559 3.73549 0
-11 2 7 0.88254 0.75615 0
11 -2 -7 0.63412 0.67335 0
-11 2 6 0.99545 1.19901 0
11 -2 -6 1.1744 1.16769 0
11 -2 -5 129.247 6.22625 0
11 -2 -4 0.34583 0.83653 0
11 -2 -3 29.0351 3.34993 0
11 -2 -2 1.1116 1.28243 0
11 -2 -1 95.096 4.17807 0
11 -2 0 2.23117 0.94265 0
11 -2 1 47.2814 3.45653 0
11 -2 2 0.78942 0.64413 0
11 -2 3 79.9894 4.24026 0
11 -2 4 3.54339 1.04788 0
11 -2 5 44.1615 2.51913 0
11 -2 6 1.50165 1.55853 0
11 -2 7 50.9732 5.44753 0
11 -2 8 2.5917 1.60253 0
11 -2 9 42.6927 3.40881 0
11 -2 10 0.33693 0.91396 0
11 -2 11 22.7064 2.28794 0
-11 1 11 21.2287 1.93198 0
-11 1 10 2.86165 1.65727 0
-11 1 9 28.9048 1.70666 0
-11 1 8 92.2496 3.88158 0
-11 1 7 19.2706 3.85099 0
11 -1 -7 20.5587 3.86215 0
-11 1 6 4.34489 3.04441 0
11 -1 -6 4.89403 2.14602 0
11 -1 -5 54.8389 2.83015 0
11 -1 -4 24.0637 3.88031 0
11 -1 -3 97.9181 4.14993 0
11 -1 -2 11.4302 5.35422 0
11 -1 -1 15.5294 3.11698 0
11 -1 0 37.9759 5.01133 0
11 -1 1 81.5094 4.4978 0
11 -1 2 8.61612 3.64236 0
11 -1 3 35.7757 2.33353 0
11 -1 4 4.47402 3.62725 0
11 -1 5 122.155 6.47093 0
11 -1 6 4.8904 1.71664 0
11 -1 6 5.72372 4.79754 0
11 -1 7 2.35252 1.68369 0
11 -1 7 2.04365 1.48165 0
11 -1 8 3.92784 3.45352 0
11 -1 8 6.73538 2.86175 0
11 -1 9 81.0478 3.00242 0
11 -1 9 70.8812 3.23911 0
11 -1 10 3.50272 3.32504 0
11 -1 10 3.74385 2.62281 0
11 -1 11 0.5089 0.71857 0
11 -1 11 0.19135 0.84681 0
11 -1 12 0.23468 0.57888 0
11 -1 12 1.08736 1.2888 0
-11 0 11 3.80347 2.68011 0
-11 0 10 19.3031 4.07801 0
-11 0 9 0.81136 0.96349 0
-11 0 8 130.014 3.93203 0
-11 0 7 11.9904 3.37719 0
11 0 -7 11.1665 1.71583 0
-11 0 6 31.5801 1.61799 0
11 0 -6 31.1609 1.85917 0
11 0 -5 -0.02169 0.92041 0
11 0 -4 79.8765 3.51695 0
11 0 -3 29.8485 3.27581 0
11 0 -2 78.7695 5.82907 0
11 0 -1 6.06044 1.78325 0
11 0 0 68.3763 3.98571 0
11 0 1 36.6583 1.59452 0
11 0 1 38.9895 3.10485 0
11 0 2 65.7557 2.99247 0
11 0 2 61.4008 7.17669 0
11 0 3 0.2918 0.55495 0
11 0 3 0.97702 1.28185 0
11 0 4 68.766 3.17789 0
11 0 4 59.8807 3.01321 0
11 0 5 103.199 4.98833 0
11 0 5 95.6028 4.88714 0
11 0 6 67.0133 2.78067 0
11 0 6 56.9851 6.0937 0
11 0 7 6.06792 3.7837 0
11 0 7 4.48152 3.20902 0
11 0 8 9.22164 4.4876 0
11 0 8 11.6509 1.69928 0
11 0 9 51.0785 2.40739 0
11 0 9 43.9246 5.08783 0
11 0 10 44.4654 2.30263 0
11 0 10 36.6836 4.75495 0
11 0 11 20.6029 1.99458 0
11 0 11 23.2312 1.80805 0
11 0 12 1.25941 1.05798 0
11 0 12 1.43031 1.60325 0
11 0 13 40.05 3.06952 0
11 0 13 38.8409 3.09097 0
-11 -1 11 11.8653 3.01161 0
-11 -1 10 97.8185 6.14915 0
-11 -1 9 1.04086 1.1322 0
-11 -1 8 45.6416 4.26633 0
-11 -1 7 0.34323 0.60637 0
11 1 -5 1.00003 0.91954 0
11 1 -4 20.4478 6.20079 0
11 1 -3 0.50591 0.58295 0
11 1 -3 0.87571 0.93734 0
11 1 -2 119.568 5.5655 0
11 1 -2 110.88 5.7436 0
11 1 -1 0.79491 0.93582 0
11 1 -1 1.4888 2.25712 0
11 1 0 4.14319 1.65674 0
11 1 0 8.10379 2.9483 0
11 1 1 1.53236 0.96042 0
11 1 1 0.76888 1.45952 0
11 1 2 237.953 10.6955 0
11 1 2 219.884 10.5472 0
11 1 3 2.999 0.76382 0
11 1 3 1.09615 2.06366 0
11 1 4 3.08232 1.35166 0
11 1 4 1.6273 1.6962 0
11 1 5 32.5758 1.9716 0
11 1 5 29.7279 2.34454 0
11 1 6 155.506 7.22917 0
11 1 6 143.472 7.21385 0
11 1 7 9.74296 3.82741 0
11 1 7 11.7538 6.42138 0
11 1 8 0.59824 1.67361 0
11 1 8 0.98576 0.70965 0
11 1 9 0.3873 1.19945 0
11 1 9 0.61264 0.91543 0
11 1 10 94.2622 3.67217 0
11 1 10 85.6923 5.08158 0
11 1 11 4.80841 2.50388 0
11 1 11 3.63643 2.26729 0
11 1 12 1.57524 2.24193 0
11 1 12 2.41859 3.46174 0
11 1 13 7.8769 1.18859 0
11 1 13 5.94293 4.29503 0
11 1 14 83.5416 4.37177 0
11 1 14 79.3202 4.57416 0
-11 -2 11 33.9056 2.67757 0
-11 -2 10 105.235 7.21792 0
-11 -2 9 12.7638 1.74235 0
-11 -2 8 0.83357 0.80711 0
-11 -2 7 28.1703 3.59704 0
11 2 -3 3.3227 1.33063 0
11 2 -2 91.0635 3.94448 0
11 2 -2 91.9427 4.44348 0
11 2 -1 8.80536 2.83039 0
11 2 -1 13.7841 6.23545 0
11 2 0 2.8997 1.13868 0
11 2 0 1.17129 2.72306 0
11 2 1 8.48082 2.05455 0
11 2 1 6.09798 3.0914 0
11 2 2 176.271 8.23095 0
11 2 2 163.441 8.63908 0
11 2 3 8.97624 2.72478 0
11 2 3 6.68513 3.0139 0
11 2 4 17.9431 1.80457 0
11 2 4 17.3244 7.03188 0
11 2 5 1.67965 0.88108 0
11 2 5 2.39835 1.7249 0
11 2 6 121.976 5.83386 0
11 2 6 119.843 6.37679 0
11 2 7 2.85669 1.1493 0
11 2 7 2.76495 2.35722 0
11 2 8 22.2654 2.82035 0
11 2 8 18.9023 7.60849 0
11 2 9 -0.28109 1.15798 0
11 2 9 0.82404 0.65347 0
11 2 10 61.9612 3.04998 0
11 2 10 64.4072 3.41235 0
11 2 11 0.66577 0.84734 0
11 2 11 0.27796 0.45281 0
11 2 12 42.4214 3.2172 0
11 2 12 41.487 3.43729 0
11 2 13 0.68822 0.90936 0
11 2 13 0.80395 0.93209 0
11 2 14 34.32 2.9198 0
11 2 14 28.0791 2.88224 0
11 2 15 0.05668 0.71422 0
11 2 15 0.37223 1.01465 0
-11 -3 11 23.3059 2.04639 0
-11 -3 10 5.56698 3.65196 0
-11 -3 9 106.077 4.35117 0
-11 -3 8 10.807 1.43439 0
11 3 -4 9.74913 4.18892 0
11 3 -3 2.14973 0.78686 0
11 3 -2 8.68522 2.65031 0
11 3 -1 101.318 4.44068 0
11 3 0 38.2959 1.83514 0
11 3 1 0.98711 0.83905 0
11 3 1 2.13327 1.94133 0
11 3 2 19.6193 6.23813 0
11 3 2 21.6849 2.79726 0
11 3 3 92.2294 4.13238 0
11 3 3 84.3213 4.49732 0
11 3 4 71.8129 3.67001 0
11 3 4 68.3852 4.22269 0
11 3 5 9.95049 5.37697 0
11 3 5 13.3121 1.81651 0
11 3 6 19.6262 4.4124 0
11 3 6 19.8532 2.08745 0
11 3 7 55.802 2.7011 0
11 3 7 59.0294 3.0081 0
11 3 8 75.1639 3.66463 0
11 3 8 75.503 4.24484 0
11 3 9 9.26767 3.87229 0
11 3 9 11.3147 3.52868 0
11 3 10 6.44359 2.40485 0
11 3 10 4.76255 2.01347 0
11 3 11 58.1663 2.76094 0
11 3 11 63.5561 2.98627 0
11 3 12 78.6495 3.35888 0
11 3 12 80.8544 4.0346 0
11 3 13 2.72024 1.44953 0
11 3 13 1.68726 1.986 0
11 3 14 0.30796 1.07885 0
11 3 14 2.35496 1.9987 0
11 3 15 19.7215 2.36442 0
11 3 15 19.9119 2.01236 0
-11 -4 10 0.43927 0.59811 0
-11 -4 8 1.10243 0.58439 0
11 4 -4 6.66411 2.95417 0
11 4 -3 15.155 5.19095 0
11 4 -2 7.26272 2.44945 0
11 4 -1 203.713 9.49373 0
11 4 0 13.958 4.41699 0
11 4 1 81.3589 3.93554 0
11 4 2 1.83418 1.02354 0
11 4 3 92.2762 4.2503 0
11 4 4 33.2701 6.83138 0
11 4 5 45.3343 2.67098 0
11 4 6 0.52769 0.78626 0
11 4 7 72.5733 3.60438 0
11 4 8 31.3436 3.44427 0
11 4 9 78.1187 3.43212 0
11 4 10 2.47092 1.84963 0
11 4 11 69.4272 3.2862 0
11 4 12 16.0255 3.05743 0
11 4 13 45.0659 3.36402 0
11 4 14 2.32012 2.02324 0
11 4 15 14.7951 1.53824 0
11 5 -9 30.8437 1.83463 0
11 5 -4 37.2217 3.42175 0
11 5 -3 56.4347 3.1258 0
11 5 -2 3.09891 0.72409 0
11 5 -1 16.1014 5.64724 0
11 5 0 14.5514 5.66808 0
11 5 1 133.148 6.66856 0
11 5 2 0.23563 0.39628 0
11 5 3 75.1005 3.56051 0
11 5 4 3.58909 1.13494 0
11 5 5 125.971 3.33397 0
11 5 6 1.22347 0.91304 0
11 5 7 20.425 1.75605 0
11 5 8 8.15897 3.24908 0
11 5 9 184.97 8.63627 0
11 5 10 1.49797 1.1412 0
11 5 11 2.87935 1.63064 0
11 5 12 1.20635 1.14449 0
11 5 13 104.923 4.72895 0
11 5 14 1.91121 1.33866 0
11 5 15 0.27116 1.1373 0
11 6 -4 57.6702 3.01623 0
11 6 -3 42.3524 2.21739 0
11 6 -2 41.8509 2.28385 0
11 6 -1 1.2006 0.96548 0
11 6 0 56.827 2.6063 0
11 6 1 65.5277 5.04297 0
11 6 2 51.0419 2.52623 0
11 6 3 0.6491 1.13397 0
11 6 4 32.0284 2.06031 0
11 6 5 76.5701 3.92601 0
11 6 6 37.224 2.22793 0
11 6 7 6.68649 2.47731 0
11 6 8 2.77031 1.09387 0
11 6 9 86.9193 3.64792 0
11 6 10 39.6374 2.03634 0
11 6 11 11.0891 4.27182 0
11 6 12 2.48582 2.39602 0
11 6 13 69.6153 4.72325 0
11 6 14 23.8576 1.72118 0
11 6 15 9.13801 5.63504 0
11 7 -4 35.1552 2.50759 0
11 7 -3 4.0924 1.31525 0
11 7 -2 119.108 5.82552 0
11 7 -1 3.48269 1.37051 0
11 7 0 11.8306 4.62033 0
11 7 1 15.1091 5.36992 0
11 7 2 85.3502 4.19952 0
11 7 3 2.12675 1.58439 0
11 7 4 5.30636 2.24905 0
11 7 5 25.0553 7.53682 0
11 7 6 111.53 7.02815 0
11 7 7 37.3771 2.14789 0
11 7 8 0.84976 0.69178 0
11 7 9 21.7997 3.37415 0
11 7 10 138.362 6.46593 0
11 7 11 17.744 6.6962 0
11 7 12 0.74211 1.09918 0
11 7 13 14.139 4.13009 0
11 7 14 63.5881 4.45174 0
11 7 15 22.6907 5.72015 0
11 8 -4 1.96111 1.90799 0
11 8 -3 2.0394 1.36325 0
11 8 -2 134.706 4.70708 0
11 8 -1 11.8333 4.49385 0
11 8 0 3.35558 1.29097 0
11 8 1 0.8271 0.8909 0
11 8 2 125.817 6.19361 0
11 8 3 1.37296 1.00332 0
11 8 4 20.2591 1.68465 0
11 8 5 1.01088 1.1618 0
11 8 6 114.466 5.77442 0
11 8 7 1.6422 2.0322 0
11 8 8 41.1934 6.24885 0
11 8 9 0.74632 0.86201 0
11 8 10 91.907 3.71958 0
11 8 11 0.73028 1.50377 0
11 8 12 41.7907 3.17069 0
11 8 13 1.16621 1.46991 0
11 8 14 68.9881 4.24254 0
11 9 -3 1.64097 1.86446 0
11 9 -2 36.6168 4.18277 0
11 9 -1 62.22 4.33421 0
11 9 0 16.6177 6.66612 0
11 9 1 0.45771 0.8885 0
11 9 2 70.6362 3.4664 0
11 9 3 57.5092 2.89805 0
11 9 4 44.0327 2.38602 0
11 9 5 6.77229 3.85781 0
11 9 6 16.1741 6.92528 0
11 9 7 4.59419 1.90562 0
11 9 8 68.1001 3.30165 0
11 9 9 0.58742 0.58961 0
11 9 10 8.57721 4.85366 0
11 9 11 23.6552 2.52816 0
11 9 12 70.7295 4.78682 0
11 9 13 0.85551 1.18711 0
11 9 14 8.76411 5.52763 0
11 10 -3 37.8223 3.14277 0
11 10 -2 1.14914 0.6695 0
11 10 -1 73.9452 5.05886 0
11 10 0 15.7926 7.29721 0
11 10 1 8.61518 4.22292 0
11 10 2 2.34786 1.69663 0
11 10 3 78.7266 3.94961 0
11 10 4 31.2188 3.91319 0
11 10 5 41.529 3.41613 0
11 10 6 1.47844 0.97556 0
11 10 7 46.2812 3.91901 0
11 10 8 59.3044 4.13757 0
11 10 9 35.5285 2.38438 0
11 10 10 -0.16323 1.15483 0
11 10 11 25.5746 3.19309 0
11 10 12 93.5017 4.9105 0
11 10 13 59.7824 3.51372 0
11 11 -1 30.158 2.89966 0
11 11 0 0.6542 1.09554 0
11 11 1 61.9716 3.8343 0
11 11 2 2.0502 1.21888 0
11 11 3 21.3608 3.58715 0
11 11 4 1.59178 1.38212 0
11 11 5 102.147 6.80846 0
11 11 6 1.19303 1.58732 0
11 11 7 6.05607 3.82063 0
11 11 8 1.19942 1.55925 0
11 11 9 62.502 3.73888 0
11 11 10 1.31844 1.03342 0
11 12 3 0.82264 0.64257 0
11 12 4 0.41938 0.50897 0
11 12 5 48.1867 5.88052 0
11 12 6 5.19391 2.64847 0
11 12 7 1.18129 0.97048 0
12 -4 -5 8.60401 1.0724 0
12 -4 -4 33.75 5.24341 0
12 -4 -3 0.78783 0.78391 0
12 -4 -2 10.1053 5.61975 0
12 -4 -1 32.2617 4.564 0
12 -4 0 42.1179 3.85112 0
12 -4 1 2.8439 1.89263 0
12 -4 2 5.19105 3.49943 0
12 -4 3 22.5803 3.79848 0
12 -4 4 30.1724 5.82089 0
12 -4 5 0.29151 0.66252 0
12 -3 -6 1.6971 0.89927 0
12 -3 -5 1.28019 1.42154 0
12 -3 -4 93.5219 6.19428 0
12 -3 -3 0.2177 1.03098 0
12 -3 -2 3.98129 2.11616 0
12 -3 -1 1.26313 0.78502 0
12 -3 0 86.0891 4.7654 0
12 -3 1 1.04689 1.48571 0
12 -3 2 0.55904 0.68788 0
12 -3 3 1.64714 1.50919 0
12 -3 4 88.2626 6.0725 0
12 -3 5 0.96552 0.95952 0
12 -3 6 0.83687 0.98386 0
12 -3 7 5.40085 5.05216 0
12 -2 -6 4.35079 2.89716 0
12 -2 -5 12.6696 2.24723 0
12 -2 -4 72.7584 3.66467 0
12 -2 -3 9.43484 5.11437 0
12 -2 -2 13.1775 5.27185 0
12 -2 -1 0.18994 0.67242 0
12 -2 0 56.7569 2.79567 0
12 -2 1 17.6099 1.72397 0
12 -2 2 14.9618 3.29259 0
12 -2 3 1.80021 1.06455 0
12 -2 4 58.3223 4.66057 0
12 -2 5 6.406 4.6442 0
12 -2 6 40.7295 2.70211 0
12 -2 7 1.09564 1.48838 0
12 -2 8 57.1551 4.37209 0
12 -2 9 0.06484 1.42083 0
12 -1 -6 11.0992 1.88862 0
12 -1 -5 0.63414 0.80651 0
12 -1 -4 16.6224 1.93754 0
12 -1 -3 67.2486 2.90251 0
12 -1 -2 38.8363 2.28146 0
12 -1 -1 1.54082 2.0582 0
12 -1 0 13.3261 2.43904 0
12 -1 1 67.0752 3.23996 0
12 -1 2 37.0234 2.36922 0
12 -1 3 6.41547 2.72697 0
12 -1 4 16.4098 1.73344 0
12 -1 5 25.5453 2.39219 0
12 -1 6 70.9869 6.93807 0
12 -1 7 9.13086 5.58301 0
12 -1 8 11.2208 5.36827 0
12 -1 9 26.0149 3.53191 0
12 -1 10 60.3603 3.63865 0
12 0 -6 0.17783 0.76003 0
12 0 -5 27.5266 2.56886 0
12 0 -4 2.56485 2.02254 0
12 0 -3 71.7133 4.77576 0
12 0 -2 0.42264 0.76259 0
12 0 -1 46.412 3.32078 0
12 0 0 0.33671 0.59393 0
12 0 1 59.3191 3.2942 0
12 0 2 2.82087 2.57039 0
12 0 3 65.3273 3.59361 0
12 0 4 3.16191 1.79298 0
12 0 5 59.1657 2.78461 0
12 0 6 33.7538 3.14347 0
12 0 7 69.2493 3.27226 0
12 0 8 0.10026 1.28416 0
12 0 8 1.72573 1.35669 0
12 0 9 38.8731 2.24351 0
12 0 9 38.0092 2.54389 0
12 0 10 36.2015 2.09067 0
12 0 10 33.1959 2.66851 0
12 0 11 25.153 2.13099 0
12 0 11 21.3777 2.21049 0
12 1 -4 0.6738 1.22366 0
12 1 -3 20.6313 1.60259 0
12 1 -2 11.9532 4.74342 0
12 1 -1 72.4722 3.60633 0
12 1 0 2.96653 1.039 0
12 1 1 8.63835 4.16445 0
12 1 2 2.28588 1.54471 0
12 1 3 166.858 7.80078 0
12 1 3 171.748 8.49084 0
12 1 4 5.43861 2.16077 0
12 1 4 4.18427 1.52414 0
12 1 5 4.88954 2.12822 0
12 1 5 4.73068 2.41323 0
12 1 6 1.05442 0.96942 0
12 1 6 0.48931 1.38062 0
12 1 7 110.061 3.57933 0
12 1 7 97.6843 4.74543 0
12 1 8 0.52343 0.6356 0
12 1 8 0.3211 0.70818 0
12 1 9 1.28095 1.16974 0
12 1 9 2.07004 1.18471 0
12 1 10 -0.11185 1.00246 0
12 1 10 0.44117 1.20544 0
12 1 11 79.3452 5.273 0
12 1 11 73.8541 5.37706 0
12 1 12 2.01653 2.18634 0
12 1 12 2.30984 1.85443 0
12 2 -2 26.1767 1.52829 0
12 2 -2 28.4691 2.05187 0
12 2 -1 60.1518 3.23049 0
12 2 -1 62.1164 3.66601 0
12 2 0 24.6772 2.39131 0
12 2 0 25.3252 5.45722 0
12 2 1 3.86755 1.43513 0
12 2 1 3.72647 1.85107 0
12 2 2 15.3904 1.25208 0
12 2 2 17.9506 6.55759 0
12 2 3 102.475 4.98547 0
12 2 3 101.404 5.51243 0
12 2 4 42.3699 1.77375 0
12 2 4 41.6035 2.84378 0
12 2 5 5.18914 2.71007 0
12 2 5 7.37768 3.23875 0
12 2 6 2.97657 1.65703 0
12 2 6 5.40235 1.81407 0
12 2 7 98.5936 4.80788 0
12 2 7 86.721 4.74353 0
12 2 8 17.878 3.08411 0
12 2 8 17.103 1.69143 0
12 2 9 12.3061 2.48705 0
12 2 9 16.5008 2.28125 0
12 2 10 6.89985 2.47257 0
12 2 10 4.48458 2.41527 0
12 2 11 105.761 6.82578 0
12 2 11 94.3815 7.14984 0
12 2 12 18.2605 4.29764 0
12 2 12 19.8051 2.31594 0
12 2 13 7.65579 4.83604 0
12 2 13 13.7161 2.05056 0
12 3 -3 0.6957 1.09324 0
12 3 -2 5.40069 2.39978 0
12 3 -1 5.05913 2.36668 0
12 3 0 68.7235 2.92601 0
12 3 1 11.3852 4.14761 0
12 3 2 0.69582 0.73012 0
12 3 2 0.94818 1.03638 0
12 3 3 6.58771 2.75935 0
12 3 3 5.96392 3.61064 0
12 3 4 124.31 6.06109 0
12 3 4 113.05 5.93467 0
12 3 5 17.7779 3.94289 0
12 3 5 16.3994 1.64307 0
12 3 6 3.63862 2.06228 0
12 3 6 0.78461 1.35589 0
12 3 7 21.3713 1.54963 0
12 3 7 25.7038 4.1463 0
12 3 8 81.7867 3.16604 0
12 3 8 77.8832 3.50518 0
12 3 9 23.7018 5.93377 0
12 3 9 29.9885 6.73515 0
12 3 10 0.5026 1.19935 0
12 3 10 0.7442 0.45299 0
12 3 11 30.4818 3.50229 0
12 3 11 33.2165 3.27283 0
12 3 12 90.4078 5.97259 0
12 3 12 75.094 5.13747 0
12 3 13 23.09 2.17608 0
12 3 13 23.0804 2.39504 0
12 4 -4 114.554 3.95607 0
12 4 -3 30.8202 1.93441 0
12 4 -2 7.21606 1.98903 0
12 4 -1 1.64595 0.65553 0
12 4 0 152.836 7.25912 0
12 4 1 0.81362 1.16822 0
12 4 2 40.9165 2.12024 0
12 4 3 0.5075 1.02963 0
12 4 4 117.358 5.86791 0
12 4 5 -0.06739 1.0061 0
12 4 6 33.1174 3.0165 0
12 4 7 4.17204 2.16423 0
12 4 8 78.2293 2.54735 0
12 4 9 1.87546 1.10072 0
12 4 10 56.0503 4.00996 0
12 4 11 0.77635 1.5527 0
12 4 12 80.2345 5.33475 0
12 4 13 4.63371 1.9498 0
12 5 -4 21.6409 4.1399 0
12 5 -3 80.7584 3.50167 0
12 5 -2 60.9616 2.92891 0
12 5 -1 1.07579 1.12713 0
12 5 0 5.95615 2.67979 0
12 5 1 41.0118 2.11911 0
12 5 2 66.4115 3.24105 0
12 5 3 1.40493 1.18564 0
12 5 4 41.534 2.68147 0
12 5 5 44.1898 4.94204 0
12 5 6 104.851 5.06193 0
12 5 7 4.38492 2.18201 0
12 5 8 9.68957 4.64097 0
12 5 9 3.29569 2.16001 0
12 5 10 159.723 3.64408 0
12 5 11 5.3988 2.17761 0
12 5 12 12.6934 4.75187 0
12 5 13 3.85632 1.16965 0
12 5 14 80.5099 5.84657 0
12 6 -4 3.02278 2.76769 0
12 6 -3 69.1103 3.10176 0
12 6 -2 29.8981 6.18766 0
12 6 -1 28.748 1.97156 0
12 6 0 -0.45478 1.0019 0
12 6 1 59.8025 2.98604 0
12 6 2 18.3841 4.54311 0
12 6 3 33.7707 3.95041 0
12 6 4 1.2106 0.76781 0
12 6 5 78.638 3.51303 0
12 6 6 59.0175 2.92223 0
12 6 7 33.295 8.31575 0
12 6 8 -0.06745 1.07026 0
12 6 9 15.7117 3.80842 0
12 6 10 86.2132 3.78296 0
12 6 11 41.0681 3.13951 0
12 6 12 0.20808 1.11314 0
12 6 13 4.06424 2.53185 0
12 7 -4 -0.58369 0.99739 0
12 7 -3 22.582 1.81254 0
12 7 -2 0.62988 0.81323 0
12 7 -1 98.832 3.89686 0
12 7 0 0.90058 1.05701 0
12 7 1 14.0169 5.45933 0
12 7 2 1.55042 0.87781 0
12 7 3 113.055 5.67585 0
12 7 4 0.79228 1.12888 0
12 7 5 13.3471 5.80456 0
12 7 6 2.12923 1.30334 0
12 7 7 101.44 3.52668 0
12 7 8 1.59012 0.9228 0
12 7 9 -0.12526 0.56153 0
12 7 10 6.86181 4.18455 0
12 7 11 99.352 6.41821 0
12 7 12 6.39313 2.25909 0
12 7 13 0.03276 1.13884 0
12 8 -4 5.61876 4.26751 0
12 8 -3 2.10792 1.46103 0
12 8 -2 16.8971 6.60975 0
12 8 -1 77.5942 3.87433 0
12 8 0 15.3224 6.91202 0
12 8 1 1.03604 0.98816 0
12 8 2 3.30989 1.57258 0
12 8 3 77.6144 3.39777 0
12 8 4 8.39694 2.14456 0
12 8 5 9.49056 5.56686 0
12 8 6 3.29238 2.39147 0
12 8 7 73.5165 6.84898 0
12 8 8 11.9503 5.18752 0
12 8 9 31.0301 1.90293 0
12 8 10 0.2627 1.24782 0
12 8 11 63.1037 4.43507 0
12 8 12 1.23012 0.76299 0
12 8 13 25.7976 4.98578 0
12 9 -3 1.77915 1.58915 0
12 9 -1 16.9537 6.76541 0
12 9 0 82.8712 7.58614 0
12 9 1 5.00481 1.5342 0
12 9 2 5.38328 1.90479 0
12 9 3 39.9383 4.57191 0
12 9 4 88.2456 4.32469 0
12 9 5 29.9017 3.07703 0
12 9 6 0.48357 1.03232 0
12 9 7 31.3384 2.22938 0
12 9 8 55.495 5.38515 0
12 9 9 52.3376 2.65685 0
12 9 10 1.42448 0.98602 0
12 9 11 5.15276 2.91285 0
12 9 12 22.6175 3.60919 0
12 10 -1 1.61155 0.86381 0
12 10 0 97.1873 5.09525 0
12 10 1 1.09253 1.33619 0
12 10 2 7.33817 4.64572 0
12 10 3 1.00712 1.14928 0
12 10 4 75.9541 5.23232 0
12 10 5 2.84487 1.61846 0
12 10 6 13.002 6.52905 0
12 10 7 1.16155 1.37835 0
12 10 8 61.7688 3.65777 0
12 10 9 7.50725 3.5286 0
12 10 10 18.5077 6.66873 0
12 11 3 0.64545 0.79877 0
12 11 4 19.0495 4.29451 0
12 11 5 9.8958 4.20133 0
12 11 6 53.6308 3.98159 0
12 11 7 1.13782 1.61034 0
13 -3 0 0.46412 1.02823 0
13 -3 1 73.5637 4.21807 0
13 -2 -4 12.6847 1.89208 0
13 -2 -3 60.4267 3.56832 0
13 -2 -2 30.1036 2.84829 0
13 -2 -1 0.60561 1.24258 0
13 -2 0 6.50207 4.77868 0
13 -2 1 30.1505 3.77398 0
13 -2 2 30.662 4.14723 0
13 -2 3 14.7202 1.48176 0
13 -2 4 1.88248 1.67439 0
13 -2 5 26.2809 5.38769 0
13 -1 -6 90.9344 4.54137 0
13 -1 -5 1.14856 1.54547 0
13 -1 -4 0.55897 0.51598 0
13 -1 -3 6.36887 2.69689 0
13 -1 -2 103.436 6.83569 0
13 -1 -1 2.18757 1.76142 0
13 -1 0 1.37499 1.2281 0
13 -1 1 2.67233 1.58542 0
13 -1 2 80.838 5.55226 0
13 -1 3 18.1228 1.72801 0
13 -1 4 2.40116 1.44631 0
13 -1 5 2.67605 2.58302 0
13 -1 6 76.4131 4.42836 0
13 -1 7 6.57828 3.50956 0
13 0 -6 53.5487 3.72195 0
13 0 -5 2.91316 2.72913 0
13 0 -4 15.6444 2.04527 0
13 0 -3 5.664 3.97477 0
13 0 -2 80.5684 5.56007 0
13 0 -1 7.53546 3.56427 0
13 0 0 26.6193 1.83429 0
13 0 1 0.25708 0.65535 0
13 0 2 61.6565 4.46884 0
13 0 3 0.80005 1.87236 0
13 0 4 25.2864 3.44984 0
13 0 5 2.45943 1.66011 0
13 0 6 60.9477 4.45236 0
13 0 7 2.67738 1.69462 0
13 0 8 47.37 4.80022 0
13 1 -4 60.3735 4.27281 0
13 1 -3 0.8714 0.70789 0
13 1 -2 26.6448 1.83829 0
13 1 -1 38.5993 3.25369 0
13 1 0 45.2837 4.76715 0
13 1 1 4.22517 2.57522 0
13 1 2 5.6546 4.62551 0
13 1 3 44.9015 3.62359 0
13 1 4 84.1558 6.55504 0
13 1 5 2.40038 1.92199 0
13 1 6 7.18772 5.71034 0
13 1 7 15.2891 4.50734 0
13 1 8 74.1487 5.90728 0
13 1 9 4.41116 3.50253 0
13 1 10 2.32482 1.32955 0
13 2 -1 38.0463 5.53523 0
13 2 0 15.0634 1.73005 0
13 2 1 49.2761 2.60603 0
13 2 2 1.0037 1.64143 0
13 2 3 47.6583 2.53872 0
13 2 4 32.1365 4.16999 0
13 2 5 74.8366 3.28302 0
13 2 5 72.807 3.80547 0
13 2 6 0.27758 0.962 0
13 2 6 -0.52338 1.27984 0
13 2 7 30.1532 1.69991 0
13 2 7 25.0285 5.88831 0
13 2 8 23.878 1.75924 0
13 2 8 25.3379 2.18072 0
13 2 9 54.906 3.88951 0
13 2 9 53.9128 4.08219 0
13 2 10 1.15386 0.70739 0
13 2 10 0.61462 0.69386 0
13 3 0 1.42264 1.05551 0
13 3 1 83.8538 3.1743 0
13 3 2 0.87582 1.64354 0
13 3 3 1.35107 1.49433 0
13 3 3 1.41058 1.15271 0
13 3 4 0.23472 1.16703 0
13 3 4 0.8314 1.50486 0
13 3 5 149.82 5.7435 0
13 3 5 145.93 6.1741 0
13 3 6 1.34334 1.27896 0
13 3 6 1.08583 1.14162 0
13 3 7 0.05695 0.78049 0
13 3 7 0.38814 1.01675 0
13 3 8 0.20456 0.82856 0
13 3 8 1.02899 1.04552 0
13 3 9 79.9461 5.17467 0
13 3 9 79.7283 5.48535 0
13 3 10 2.00535 1.17846 0
13 3 10 1.54379 1.25506 0
13 3 11 4.18124 3.11876 0
13 3 11 6.36914 5.0129 0
13 4 -3 80.5364 5.25616 0
13 4 -2 31.6293 1.86589 0
13 4 -1 0.80136 0.88515 0
13 4 0 0.95526 0.93132 0
13 4 1 108.808 3.819 0
13 4 2 37.3618 2.11236 0
13 4 3 29.2445 1.70108 0
13 4 4 6.59662 4.79155 0
13 4 5 124.04 5.01923 0
13 4 6 11.7261 5.21565 0
13 4 7 22.4938 1.62427 0
13 4 8 0.86093 1.1791 0
13 4 9 61.5724 4.21771 0
13 4 10 4.2489 2.43247 0
13 4 11 44.16 3.22113 0
13 5 -3 10.1139 4.5487 0
13 5 -2 72.4011 4.79942 0
13 5 -1 20.2249 2.06018 0
13 5 0 0.42082 0.88887 0
13 5 1 1.17106 1.86502 0
13 5 2 123.927 5.21151 0
13 5 3 24.9312 5.35987 0
13 5 4 0.79148 1.55461 0
13 5 5 27.2792 1.8371 0
13 5 6 89.8273 4.03453 0
13 5 7 39.6421 2.84848 0
13 5 8 13.2072 1.33027 0
13 5 9 7.27589 5.72809 0
13 5 10 22.4919 4.73702 0
13 5 11 36.18 4.74672 0
13 6 -4 5.40891 4.23517 0
13 6 -3 0.7496 1.06177 0
13 6 -2 92.525 6.16671 0
13 6 -1 1.28937 1.41355 0
13 6 0 40.1411 3.16777 0
13 6 1 0.32712 1.04083 0
13 6 2 97.101 4.44587 0
13 6 3 0.93364 1.13968 0
13 6 4 37.0461 1.99855 0
13 6 5 0.72548 1.04341 0
13 6 6 103.515 4.57208 0
13 6 7 5.752 2.19432 0
13 6 8 51.9556 4.6353 0
13 6 9 0.01409 1.02075 0
13 6 10 22.3437 2.09349 0
13 6 11 0.55417 0.61554 0
13 7 -3 0.61295 0.64765 0
13 7 -2 27.8931 2.54559 0
13 7 -1 11.4288 4.72855 0
13 7 0 68.6328 4.79877 0
13 7 1 3.93213 2.16938 0
13 7 2 6.26051 3.03868 0
13 7 3 15.3735 4.27089 0
13 7 4 115.474 4.9213 0
13 7 5 0.51065 1.17969 0
13 7 6 16.2477 7.28283 0
13 7 7 7.10396 3.82001 0
13 7 8 78.8262 5.86691 0
13 7 9 1.82745 0.80384 0
13 7 10 0.38766 1.31999 0
13 7 11 3.38728 3.08451 0
13 8 -2 1.20952 1.18484 0
13 8 -1 34.4905 2.94566 0
13 8 0 40.6563 3.48292 0
13 8 1 53.692 3.91382 0
13 8 2 1.8674 1.17793 0
13 8 3 17.7078 5.35217 0
13 8 4 50.7201 2.82656 0
13 8 5 25.3531 1.7903 0
13 8 6 1.52283 1.58912 0
13 8 7 15.6245 1.44086 0
13 8 8 37.2181 2.90947 0
13 8 9 47.9464 3.62024 0
13 8 10 3.48844 2.2163 0
13 9 1 98.5761 5.94437 0
13 9 2 1.00727 0.84132 0
13 9 3 2.01583 1.42351 0
13 9 4 1.80739 1.37697 0
13 9 5 108.078 5.46121 0
13 9 6 2.96124 1.44574 0
13 9 7 0.76921 0.79421 0
13 9 8 4.42915 2.54072 0
14 0 -1 62.4199 3.73205 0
14 0 0 31.9896 6.09757 0
14 0 1 7.25325 4.95357 0
14 0 2 1.2968 0.92764 0
14 0 3 41.0709 3.23937 0
14 1 -2 0.31418 0.59051 0
14 1 -1 10.1968 2.89507 0
14 1 0 61.84 3.74811 0
14 1 1 19.2284 2.37935 0
14 1 2 1.11192 1.01506 0
14 1 3 9.41177 5.68801 0
14 1 4 35.1135 3.76888 0
14 1 5 26.2585 3.00798 0
14 2 0 45.9881 3.62246 0
14 2 1 1.08638 0.81921 0
14 2 2 38.9023 5.38681 0
14 2 3 0.10412 0.91748 0
14 2 4 27.5522 2.44843 0
14 2 5 1.34215 0.75532 0
14 2 6 47.7923 6.33991 0
14 2 7 2.08903 1.97601 0
14 3 4 -0.28637 1.07637 0
14 3 5 5.51629 3.79184 0
14 3 6 51.143 4.98158 0
14 3 7 0.83065 1.01206 0
14 4 3 49.0903 3.5459 0
14 4 4 5.3674 3.71757 0
14 4 5 2.50272 1.68028 0
14 4 6 14.3234 1.20368 0
14 4 7 38.8005 2.94194 0
14 4 8 5.03642 2.7157 0
14 5 0 1.22506 0.796 0
14 5 1 0.83852 0.51134 0
14 5 2 0.81956 0.95549 0
14 5 3 71.4438 3.93795 0
14 5 4 0.71334 0.99907 0
14 5 5 0.49786 0.62919 0
14 5 6 -0.47598 0.97722 0
14 5 7 96.3745 4.78245 0
14 5 8 3.12743 2.17881 0
14 6 0 2.6733 1.79365 0
14 6 1 12.0771 6.02508 0
14 6 2 0.39193 0.50835 0
14 6 3 57.1008 3.32429 0
14 6 4 10.1357 3.59321 0
14 6 5 8.85114 5.17931 0
14 6 6 1.65198 1.30197 0
14 6 7 49.3099 3.58777 0
14 7 2 1.88587 1.73789 0
14 7 3 5.8643 3.75712 0
14 7 4 48.6788 3.64553 0
14 7 5 16.06 3.55769 0
