#------------------------------------------------------------------------------
#$Date: 2021-11-06 22:11:30 +0200 (Sat, 06 Nov 2021) $
#$Revision: 270456 $
#$URL: file:///home/coder/svn-repositories/cod/cif/1/56/20/1562008.cif $
#------------------------------------------------------------------------------
#
# This file is available in the Crystallography Open Database (COD),
# http://www.crystallography.net/
#
# All data on this site have been placed in the public domain by the
# contributors.
#
data_1562008
loop_
_publ_author_name
'Gong, Wei'
'Liu, Yan'
'Cui, Yong'
_publ_section_title
;
 Chiral and robust Zr(IV)-based metal-organic frameworks built from spiro
 skeletons.
;
_journal_issue                   0
_journal_name_full               'Faraday discussions'
_journal_page_first              168
_journal_page_last               180
_journal_paper_doi               10.1039/d1fd00014d
_journal_volume                  231
_journal_year                    2021
_chemical_formula_moiety         'C61 H42 O17 Zr3'
_chemical_formula_sum            'C61 H42 O17 Zr3'
_chemical_formula_weight         1320.60
_space_group_crystal_system      tetragonal
_space_group_IT_number           98
_space_group_name_Hall           'I 4bw 2bw'
_space_group_name_H-M_alt        'I 41 2 2'
_atom_sites_solution_hydrogens   geom
_audit_creation_date             2020-07-30
_audit_creation_method
;
Olex2 1.2
(compiled 2018.05.29 svn.r3508 for OlexSys, GUI svn.r5506)
;
_audit_update_record
;
2020-07-31 deposited with the CCDC.	2021-04-22 downloaded from the CCDC.
;
_cell_angle_alpha                90
_cell_angle_beta                 90
_cell_angle_gamma                90
_cell_formula_units_Z            16
_cell_length_a                   42.697(6)
_cell_length_b                   42.697(6)
_cell_length_c                   37.907(8)
_cell_measurement_reflns_used    426047
_cell_measurement_temperature    293(2)
_cell_measurement_theta_max      25.476
_cell_measurement_theta_min      0.674
_cell_volume                     69106(2)
_computing_molecular_graphics    'Olex2 (Dolomanov et al., 2009)'
_computing_publication_material  'Olex2 (Dolomanov et al., 2009)'
_computing_structure_refinement  'XL (Sheldrick, 2008)'
_computing_structure_solution    'SHELXT 2014/5 (Sheldrick, 2014)'
_diffrn_ambient_temperature      293(2)
_diffrn_measured_fraction_theta_full 1.000
_diffrn_measured_fraction_theta_max 0.995
_diffrn_measurement_device_type  'Bruker APEX-II CCD'
_diffrn_radiation_type           MoK\a
_diffrn_radiation_wavelength     0.71073
_diffrn_reflns_av_R_equivalents  0.0329
_diffrn_reflns_av_unetI/netI     0.0510
_diffrn_reflns_Laue_measured_fraction_full 1.000
_diffrn_reflns_Laue_measured_fraction_max 0.995
_diffrn_reflns_limit_h_max       51
_diffrn_reflns_limit_h_min       0
_diffrn_reflns_limit_k_max       36
_diffrn_reflns_limit_k_min       -35
_diffrn_reflns_limit_l_max       45
_diffrn_reflns_limit_l_min       0
_diffrn_reflns_number            32461
_diffrn_reflns_point_group_measured_fraction_full 1.000
_diffrn_reflns_point_group_measured_fraction_max 0.995
_diffrn_reflns_theta_full        25.242
_diffrn_reflns_theta_max         25.476
_diffrn_reflns_theta_min         0.674
_exptl_absorpt_coefficient_mu    0.201
_exptl_crystal_colour            colorless
_exptl_crystal_density_diffrn    0.508
_exptl_crystal_description       octahedral
_exptl_crystal_F_000             10624
_exptl_crystal_size_max          0.22
_exptl_crystal_size_mid          0.18
_exptl_crystal_size_min          0.15
_refine_diff_density_max         0.447
_refine_diff_density_min         -0.335
_refine_diff_density_rms         0.025
_refine_ls_abs_structure_details
;
 Refined as an inversion twin.
;
_refine_ls_abs_structure_Flack   0.47(5)
_refine_ls_extinction_method     none
_refine_ls_goodness_of_fit_ref   0.979
_refine_ls_hydrogen_treatment    constr
_refine_ls_matrix_type           full
_refine_ls_number_parameters     603
_refine_ls_number_reflns         31970
_refine_ls_number_restraints     561
_refine_ls_restrained_S_all      1.026
_refine_ls_R_factor_all          0.1252
_refine_ls_R_factor_gt           0.0616
_refine_ls_shift/su_max          0.001
_refine_ls_shift/su_mean         0.000
_refine_ls_structure_factor_coef Fsqd
_refine_ls_weighting_details
'w=1/[\s^2^(Fo^2^)+(0.1074P)^2^+9.9913P] where P=(Fo^2^+2Fc^2^)/3'
_refine_ls_weighting_scheme      calc
_refine_ls_wR_factor_gt          0.1560
_refine_ls_wR_factor_ref         0.2058
_reflns_Friedel_coverage         0.877
_reflns_Friedel_fraction_full    1.000
_reflns_Friedel_fraction_max     0.995
_reflns_number_gt                16168
_reflns_number_total             31970
_reflns_threshold_expression     'I > 2\s(I)'
_cod_data_source_file            d1fd00014d5.cif
_cod_data_source_block           2
_cod_depositor_comments
'Adding full bibliography for 1562006--1562010.cif.'
_cod_original_cell_volume        69106(24)
_cod_database_code               1562008
_shelx_shelxl_version_number     2018/3
_shelx_space_group_comment
;
The symmetry employed for this shelxl refinement is uniquely defined
by the following loop, which should always be used as a source of
symmetry information in preference to the above space-group names.
They are only intended as comments.
;
_olex2_refinement_description
;
1. Twinned data refinement
 Scales: 0.53(5)
 0.47(5)
2. Fixed Uiso
 At 1.2 times of:
  All C(H) groups, All C(H,H) groups, All O(H,H) groups, All Zr(O,O) groups
 At 1.5 times of:
  All O(H) groups
3. Restrained distances
 Zr2-O4
 2.15 with sigma of 0.02
 C57-O7
 1.36 with sigma of 0.02
 C57-O8
 1.25 with sigma of 0.02
 C27-C57
 1.52 with sigma of 0.02
 C37-C32
 1.52 with sigma of 0.02
 C56-C42
 1.52 with sigma of 0.02
 C41-C54
 1.52 with sigma of 0.02
 C55-C56
 1.52 with sigma of 0.02
 C11-C6
 1.52 with sigma of 0.02
 O3-C14
 1.36 with sigma of 0.02
 C13-C59
 1.52 with sigma of 0.02
 C59-C60
 1.52 with sigma of 0.02
 C12-C61
 1.52 with sigma of 0.02
 C60-C61
 1.52 with sigma of 0.02
 O5-C58
 1.25 with sigma of 0.01
 C58-O4
 1.25 with sigma of 0.01
 C43-C39
 1.52 with sigma of 0.02
 C53-C48
 1.52 with sigma of 0.02
 C53-O16
 1.25 with sigma of 0.02
 C53-O17
 1.25 with sigma of 0.02
 O1-C62
 1.25 with sigma of 0.02
 C48-C53
 1.52 with sigma of 0.02
 C58-C22
 1.52 with sigma of 0.02
 C15-C17
 1.52 with sigma of 0.02
 O4-O5
 2.35 with sigma of 0.02
 O14-H14A = O14-H14B = O6-H6A = O6-H6B = O12-H12A = O12-H12B
 0.82 with sigma of 0.01
 C60-C60_$1
 2.56 with sigma of 0.02
 C62-O2
 1.27 with sigma of 0.01
 C62-O1
 1.27 with sigma of 0.01
 C58-C23
 2.48 with sigma of 0.02
 C21-C58
 2.48 with sigma of 0.02
 O16-O17
 2.35 with sigma of 0.02
 H14A-H14B = H6A-H6B = H12A-H12B
 1.39 with sigma of 0.01
 O1-O2
 2.36 with sigma of 0.02
 O3-C13
 2.48 with sigma of 0.04
 O8-C27 \\sim C27-O7
 with sigma of 0.02
 C36-C57 \\sim C57-C28
 with sigma of 0.02
 C12-C6 \\sim C6-C16
 with sigma of 0.02
 C47-C53 \\sim C53-C49
 with sigma of 0.02
 C23-C58 \\sim C58-C21
 with sigma of 0.02
 C14-C18 \\sim C18-C16
 with sigma of 0.02
 C38-C43 \\sim C43-C40
 with sigma of 0.02
 C16-C17 \\sim C17-C14
 with sigma of 0.02
 C26-C15 \\sim C15-C18
 with sigma of 0.02
 O4-C22 \\sim O5-C22
 with sigma of 0.02
4. Restrained planarity
 O8, C57, O7, C27, C36, C28
 with sigma of 0.1
 C6, C11, C16, C12
 with sigma of 0.1
 C49, C48, C47, C53
 with sigma of 0.1
 C48, O17, C53, O16
 with sigma of 0.1
 C43, C39, C40, C38
 with sigma of 0.1
 C24, C19, C25, C26, C17
 with sigma of 0.1
 C58, C22, C23, C21
 with sigma of 0.1
 O5, O4, C58, C22
 with sigma of 0.1
5. Uiso/Uaniso restraints and constraints
O4 \\sim O5 \\sim O9 \\sim O10 \\sim O15 \\sim O7 \\sim O13 \\sim O1 \\sim O2
\\sim O8 \\sim O3 \\sim O14 \\sim O6 \\sim O17 \\sim O16 \\sim O11 \\sim O12
\\sim C55 \\sim C56 \\sim C54 \\sim C37 \\sim C38 \\sim C39 \\sim C40 \\sim C41
\\sim C42 \\sim C57 \\sim C62 \\sim C9 \\sim C10 \\sim C1 \\sim C2 \\sim C3
\\sim C8 \\sim C7 \\sim C6 \\sim C5 \\sim C4 \\sim C36 \\sim C27 \\sim C28
\\sim C29 \\sim C30 \\sim C35 \\sim C34 \\sim C33 \\sim C32 \\sim C31 \\sim C12
\\sim C11 \\sim C16 \\sim C15 \\sim C14 \\sim C13 \\sim C51 \\sim C52 \\sim C43
\\sim C44 \\sim C45 \\sim C50 \\sim C49 \\sim C48 \\sim C47 \\sim C46 \\sim C59
\\sim C58 \\sim C60 \\sim C61 \\sim C53 \\sim C23 \\sim C22 \\sim C21 \\sim C20
\\sim C19 \\sim C24 \\sim C25 \\sim C26 \\sim C17 \\sim C18: within 2A with
sigma of 0.02 and sigma for terminal atoms of 0.04
: with sigma of 0.01 and sigma for terminal atoms of 0.02
Uanis(O11) \\sim Ueq: with sigma of 0.01 and sigma for terminal atoms of 0.02
6.a Secondary CH2 refined with riding coordinates:
 C55(H55A,H55B), C56(H56A,H56B), C60(H60A,H60B), C61(H61A,H61B)
6.b Aromatic/amide H refined with riding coordinates:
 C38(H38), C9(H9), C10(H10), C2(H2), C7(H7), C5(H5), C4(H4), C36(H36),
 C28(H28), C29(H29), C34(H34), C33(H33), C31(H31), C16(H16), C51(H51), C52(H52),
  C44(H44), C49(H49), C47(H47), C46(H46), C23(H23), C21(H21), C20(H20),
 C25(H25), C26(H26), C18(H18)
6.c Fitted hexagon refined as free rotating group:
 C37(C38,C39,C40,C41,C42), C12(C11,C16,C15,C14,C13)
6.d X=CH2 refined with riding coordinates:
 O14(H14A,H14B), O6(H6A,H6B), O12(H12A,H12B)
6.e Naphthalene refined as free rotating group:
 C9(C10,C1,C2,C3,C8,C7,C6,C5,C4), C36(C27,C28,C29,C30,C35,C34,C33,C32,C31),
 C51(C52,C43,C44,C45,C50,C49,C48,C47,C46), C23(C22,C21,C20,C19,C24,C25,C26,C17,
 C18)
6.f Idealised tetrahedral OH refined as rotating group:
 O15(H15), O3(H3)
;
_shelx_res_file
;
TITL b_b.res in I4(1)22
    2.res
    created by SHELXL-2018/3 at 21:29:15 on 30-Jul-2020
REM Old TITL b in I422
REM SHELXT solution in I4(1)22
REM R1 0.510, Rweak 0.261, Alpha 0.252, Orientation as input
REM Flack x = 0.488 ( 0.013 ) from Parsons' quotients
REM Formula found by SHELXT: C221 O88 Zr6
rem DFIX 1.27 0.02 C58 O5
rem DFIX 2.05 O11 Zr4
rem DFIX 2.05 O11 Zr3
rem DFIX 2.05 O11 Zr2_$1
rem SADI Zr3 O11 O11 Zr4
rem SADI Zr4 O11 O11 Zr2_$1
rem SADI Zr2_$1 O11 O11 Zr3
rem isor 0.01 $o $c
CELL 0.71073 42.697 42.697 37.907 90 90 90
ZERR 16 0.006 0.006 0.0076 0 0 0
LATT -2
SYMM 0.5-X,0.5-Y,0.5+Z
SYMM -Y,0.5+X,0.25+Z
SYMM 0.5+Y,-X,0.75+Z
SYMM 0.5-X,+Y,0.75-Z
SYMM +X,0.5-Y,0.25-Z
SYMM 0.5+Y,0.5+X,0.5-Z
SYMM -Y,-X,-Z
SFAC C H O Zr
UNIT 976 672 272 48
EQIV $1 +Y,+X,2-Z
DFIX 2.15 Zr2 O4
DFIX 1.36 C57 O7
DFIX 1.25 C57 O8
DFIX 1.52 C27 C57
DFIX 1.52 C37 C32
DFIX 1.52 C56 C42
DFIX 1.52 C41 C54
DFIX 1.52 C55 C56
DFIX 1.52 C11 C6
DFIX 1.36 O3 C14
DFIX 1.52 C13 C59
DFIX 1.52 C59 C60
DFIX 1.52 C12 C61
DFIX 1.52 C60 C61
DFIX 1.25 0.01 O5 C58
DFIX 1.25 0.01 C58 O4
DFIX 1.52 C43 C39
DFIX 1.52 C53 C48
DFIX 1.25 C53 O16
DFIX 1.25 C53 O17
DFIX 1.25 O1 C62
DFIX 1.52 C48 C53
DFIX 1.52 C58 C22
DFIX 1.52 C15 C17
DFIX 2.35 O4 O5
DFIX 0.82 0.01 O14 H14a O14 H14b O6 H6a O6 H6b O12 H12a O12 H12b
DFIX 2.56 C60 C60_$1
DFIX 1.27 0.01 C62 O2
DFIX 1.27 0.01 C62 O1
SADI O8 C27 C27 O7
SADI C36 C57 C57 C28
SADI C12 C6 C6 C16
SADI C47 C53 C53 C49
SADI C23 C58 C58 C21
SADI C14 C18 C18 C16
SADI C38 C43 C43 C40
SADI C16 C17 C17 C14
SADI C26 C15 C15 C18
SADI O4 C22 O5 C22
DANG 2.48 0.02 C58 C23
DANG 2.48 0.02 C21 C58
DANG 2.35 0.02 O16 O17
DANG 1.39 0.01 H14a H14b H6a H6b H12a H12b
DANG 2.36 0.02 O1 O2
DANG 2.48 O3 C13
FLAT O8 C57 O7 C27 C36 C28
FLAT C6 C11 C16 C12
FLAT C49 C48 C47 C53
FLAT C48 O17 C53 O16
FLAT C43 C39 C40 C38
FLAT C24 C19 C25 C26 C17
FLAT C58 C22 C23 C21
FLAT O5 O4 C58 C22
SIMU 0.02 0.04 2 $o $c
ISOR 0.01 0.02 O4 O5
ISOR 0.01 0.02 O11

L.S. 25 0 883
PLAN  50
BOND $H
ABIN
fmap 2
acta
TWIN -1 0 0 0 -1 0 0 0 -1 2
OMIT -1 2 1
OMIT 1 2 1
REM <olex2.extras>
REM <HklSrc "%.\\2.hkl">
REM </olex2.extras>

WGHT    0.107400    9.991301
BASF   0.46814
FVAR       0.08999
ZR1   4    0.500000    0.500000    0.834403    10.50000    0.08390    0.09608 =
         0.25715    0.00000    0.00000    0.00619
ZR2   4    0.520856    0.555653    0.767525    11.00000    0.12698    0.07514 =
         0.25751   -0.02029    0.03042   -0.02931
O4    3    0.534185    0.582244    0.814826    11.00000   -1.20000
O5    3    0.525410    0.550325    0.862652    11.00000   -1.20000
ZR3   4    0.448650    0.521751    0.767311    11.00000    0.06521    0.10440 =
         0.27980    0.01564    0.00239    0.00431
ZR4   4    0.500000    0.500000    0.701573    10.50000    0.15663    0.07045 =
         0.24218    0.00000    0.00000    0.02895
O9    3    0.481536    0.540029    0.805073    11.00000    0.12434    0.11293 =
         0.17495    0.02240    0.02943    0.01276
O10   3    0.483772    0.535704    0.733216    11.00000    0.05417    0.08619 =
         0.15287   -0.03890   -0.00196   -0.00979
O15   3    0.338039    0.853839    0.796131    11.00000    0.14144    0.06763 =
         0.20339   -0.03075   -0.00842    0.02008
AFIX 147
H15   2    0.332676    0.855176    0.816848    11.00000   -1.50000
AFIX   0
C55   1    0.307504    0.777412    0.724778    11.00000    0.10861    0.09397 =
         0.13574    0.00040   -0.01739    0.00488
AFIX  23
H55A  2    0.286749    0.770803    0.717508    11.00000   -1.20000
H55B  2    0.319606    0.782676    0.703949    11.00000   -1.20000
AFIX   0
O7    3    0.491857    0.595339    0.772344    11.00000    0.12810    0.10766 =
         0.28912   -0.00885   -0.01539    0.00281
C56   1    0.323674    0.751736    0.745964    11.00000    0.10491    0.10649 =
         0.16701   -0.00572   -0.00772    0.00847
AFIX  23
H56A  2    0.308981    0.740468    0.760791    11.00000   -1.20000
H56B  2    0.334545    0.737041    0.730769    11.00000   -1.20000
AFIX   0
O13   3    0.468109    0.486022    0.794740    11.00000    0.08774    0.09100 =
         0.19110   -0.01673   -0.03191   -0.00897
C54   1    0.305543    0.805543    0.750000    10.50000    0.10668    0.10668 =
         0.12619    0.00746   -0.00746   -0.00608
AFIX  66
C37   1    0.374073    0.762568    0.784447    11.00000    0.10875    0.09636 =
         0.19010   -0.00705   -0.00819    0.01718
C38   1    0.390718    0.784545    0.803949    11.00000    0.11683    0.11064 =
         0.18357   -0.01661   -0.00024    0.03715
AFIX  43
H38   2    0.409233    0.778820    0.815148    11.00000   -1.20000
AFIX  65
C39   1    0.379691    0.815077    0.806712    11.00000    0.11052    0.10808 =
         0.19184   -0.00707   -0.00480    0.02698
C40   1    0.352019    0.823633    0.789972    11.00000    0.10780    0.09606 =
         0.17605   -0.01023   -0.02359    0.00591
C41   1    0.335373    0.801656    0.770470    11.00000    0.09468    0.09923 =
         0.14966    0.00431   -0.00802    0.01664
C42   1    0.346400    0.771124    0.767707    11.00000    0.10151    0.09923 =
         0.16555   -0.00555   -0.02202    0.02452
AFIX   0
C57   1    0.460458    0.596235    0.773627    11.00000    0.19659    0.13980 =
         0.26115   -0.02001   -0.03315   -0.01836
O1    3    0.909448    0.510039    0.983839    11.00000    0.10114    0.13353 =
         0.21101    0.03233    0.03368    0.02291
C62   1    0.905917    0.539912    0.979937    11.00000    0.08930    0.18314 =
         0.22128    0.02725   -0.02554    0.01506
AFIX 116
C9    1    0.815321    0.538048    0.977060    11.00000    0.17671    0.18628 =
         0.30412    0.00841    0.01061   -0.00287
AFIX  43
H9    2    0.798288    0.524506    0.975983    11.00000   -1.20000
AFIX 115
C10   1    0.845497    0.526096    0.979912    11.00000    0.12165    0.14018 =
         0.28547    0.03582    0.00549    0.03927
AFIX  43
H10   2    0.848653    0.504557    0.980742    11.00000   -1.20000
AFIX 115
C1    1    0.870955    0.546336    0.981522    11.00000    0.11257    0.17518 =
         0.26921    0.02170   -0.01345   -0.00832
C2    1    0.866238    0.578528    0.980281    11.00000    0.15900    0.20034 =
         0.28850   -0.00169   -0.00551    0.01219
AFIX  43
H2    2    0.883271    0.592070    0.981359    11.00000   -1.20000
AFIX 115
C3    1    0.836063    0.590481    0.977430    11.00000    0.17249    0.22499 =
         0.30747   -0.03679    0.03416   -0.01925
C8    1    0.810604    0.570241    0.975820    11.00000    0.22752    0.21673 =
         0.31968   -0.04430    0.02183    0.00156
C7    1    0.780428    0.582192    0.972968    11.00000    0.28127    0.24938 =
         0.34616   -0.06280   -0.00794    0.00980
AFIX  43
H7    2    0.763396    0.568650    0.971890    11.00000   -1.20000
AFIX 115
C6    1    0.775711    0.614385    0.971727    11.00000    0.27610    0.27114 =
         0.40037   -0.04605   -0.01271   -0.01455
C5    1    0.801168    0.634625    0.973338    11.00000    0.20875    0.24365 =
         0.39096   -0.02983    0.00063   -0.04019
AFIX  43
H5    2    0.798012    0.656164    0.972507    11.00000   -1.20000
AFIX 115
C4    1    0.831344    0.622674    0.976189    11.00000    0.19194    0.21337 =
         0.34901   -0.02978    0.01337    0.00699
AFIX  43
H4    2    0.848376    0.636216    0.977267    11.00000   -1.20000
AFIX 116
C36   1    0.416299    0.636034    0.779728    11.00000    0.19971    0.20195 =
         0.25427   -0.03102   -0.02131   -0.02404
AFIX  43
H36   2    0.402269    0.619621    0.782946    11.00000   -1.20000
AFIX 115
C27   1    0.447693    0.629770    0.773065    11.00000    0.15812    0.16948 =
         0.27079   -0.03630    0.01109   -0.00716
C28   1    0.468663    0.654302    0.768255    11.00000    0.17245    0.14429 =
         0.28807   -0.01908   -0.01482   -0.01209
AFIX  43
H28   2    0.489668    0.650110    0.763798    11.00000   -1.20000
AFIX 115
C29   1    0.458240    0.685099    0.770107    11.00000    0.16256    0.13811 =
         0.29078   -0.01403   -0.00856    0.00143
AFIX  43
H29   2    0.472270    0.701513    0.766888    11.00000   -1.20000
AFIX 115
C30   1    0.426846    0.691364    0.776769    11.00000    0.15569    0.16749 =
         0.24373   -0.00888   -0.02493    0.00943
C35   1    0.405875    0.666832    0.781579    11.00000    0.16062    0.18738 =
         0.23839   -0.01804   -0.00603    0.00362
C34   1    0.374481    0.673095    0.788242    11.00000    0.16733    0.13153 =
         0.21107    0.00344    0.01040   -0.00111
AFIX  43
H34   2    0.360451    0.656681    0.791460    11.00000   -1.20000
AFIX 115
C33   1    0.364057    0.703892    0.790094    11.00000    0.15476    0.12246 =
         0.22191   -0.00269    0.00533    0.01913
AFIX  43
H33   2    0.343052    0.708083    0.794551    11.00000   -1.20000
AFIX 115
C32   1    0.385026    0.728425    0.785284    11.00000    0.14189    0.13841 =
         0.21652   -0.00120   -0.00852    0.01319
C31   1    0.416420    0.722161    0.778622    11.00000    0.16810    0.11530 =
         0.23457   -0.01666   -0.00529   -0.00354
AFIX  43
H31   2    0.430450    0.738575    0.775403    11.00000   -1.20000
AFIX   0
O2    3    0.931181    0.558442    0.988066    11.00000    0.11526    0.16780 =
         0.27929   -0.00387    0.02977    0.03625
O8    3    0.437893    0.575898    0.774357    11.00000    0.13903    0.10629 =
         0.25151   -0.04261   -0.04602    0.06328
O3    3    0.657208    0.670491    0.953957    11.00000    0.37072    0.46339 =
         0.43357    0.01428   -0.05375    0.11566
AFIX 147
H3    2    0.663820    0.686257    0.944104    11.00000   -1.50000
AFIX  66
C12   1    0.733914    0.651553    0.989999    11.00000    0.35144    0.38605 =
         0.41428    0.01699   -0.00187   -0.00820
C11   1    0.742989    0.624903    0.971584    11.00000    0.33932    0.34679 =
         0.41735   -0.01129   -0.01566   -0.01109
C16   1    0.722242    0.610597    0.948371    11.00000    0.38315    0.38578 =
         0.45494   -0.00776   -0.02967   -0.01857
AFIX  43
H16   2    0.728314    0.592767    0.936050    11.00000   -1.20000
AFIX  65
C15   1    0.692421    0.622941    0.943571    11.00000    0.41548    0.43378 =
         0.46513    0.02363   -0.02321   -0.01550
C14   1    0.683346    0.649590    0.961985    11.00000    0.39777    0.42964 =
         0.43867    0.01812   -0.01016    0.01761
C13   1    0.704092    0.663896    0.985199    11.00000    0.38455    0.40609 =
         0.42027    0.00681   -0.00363    0.01582
AFIX 116
C51   1    0.423026    0.890413    0.829696    11.00000    0.14783    0.15028 =
         0.27543   -0.01216    0.01440   -0.00378
AFIX  43
H51   2    0.428207    0.909272    0.818898    11.00000   -1.20000
AFIX 115
C52   1    0.407189    0.867440    0.810807    11.00000    0.16457    0.14996 =
         0.25895   -0.02647   -0.00920    0.02505
AFIX  43
H52   2    0.401774    0.870928    0.787371    11.00000   -1.20000
AFIX 115
C43   1    0.399444    0.839252    0.826947    11.00000    0.14353    0.13331 =
         0.21715   -0.01464    0.00147    0.02400
C44   1    0.407538    0.834037    0.861975    11.00000    0.15875    0.15516 =
         0.22860   -0.00308    0.00677    0.00005
AFIX  43
H44   2    0.402357    0.815178    0.872773    11.00000   -1.20000
AFIX 115
C45   1    0.423375    0.857010    0.880864    11.00000    0.17952    0.15930 =
         0.22103   -0.01521    0.01144   -0.01187
C50   1    0.431120    0.885198    0.864725    11.00000    0.16143    0.16594 =
         0.23236   -0.02446    0.01320   -0.00454
C49   1    0.446957    0.908172    0.883613    11.00000    0.15902    0.17363 =
         0.26637   -0.02793    0.01932    0.02409
AFIX  43
H49   2    0.452138    0.927031    0.872814    11.00000   -1.20000
AFIX 115
C48   1    0.455051    0.902958    0.918641    11.00000    0.12153    0.17640 =
         0.28300   -0.04992   -0.03460    0.03029
C47   1    0.447307    0.874771    0.934781    11.00000    0.12272    0.15855 =
         0.24310   -0.02263    0.00655   -0.01406
AFIX  43
H47   2    0.452722    0.871283    0.958218    11.00000   -1.20000
AFIX 115
C46   1    0.431470    0.851797    0.915893    11.00000    0.16436    0.18116 =
         0.28140   -0.02050   -0.00172    0.00140
AFIX  43
H46   2    0.426289    0.832938    0.926692    11.00000   -1.20000
AFIX   0
C59   1    0.698108    0.698108    1.000000    10.50000    0.37251    0.37251 =
         0.40766   -0.00592    0.00592    0.02678
C58   1    0.541598    0.568016    0.842688    11.00000    0.29444    0.31977 =
         0.26011    0.14287    0.10801    0.11763
C60   1    0.725720    0.699260    1.026128    11.00000    0.35283    0.38473 =
         0.40571   -0.02717   -0.01750    0.00856
AFIX  23
H60A  2    0.733953    0.720356    1.028180    11.00000   -1.20000
H60B  2    0.719386    0.691989    1.049298    11.00000   -1.20000
AFIX   0
O14   3    0.485873    0.464213    0.666460    11.00000    0.18592    0.18357 =
         0.28411   -0.05667   -0.10908   -0.01091
AFIX  93
H14A  2    0.464744    0.461371    0.661435    11.00000   -1.20000
H14B  2    0.500789    0.451314    0.656040    11.00000   -1.20000
AFIX   0
C61   1    0.749222    0.677888    1.010273    11.00000    0.34536    0.38124 =
         0.38824   -0.01340   -0.02259   -0.01249
AFIX  23
H61A  2    0.762215    0.669151    1.028814    11.00000   -1.20000
H61B  2    0.762665    0.689704    0.994513    11.00000   -1.20000
AFIX   0
O6    3    0.535305    0.581930    0.722586    11.00000    0.08159    0.09174 =
         0.23875    0.04068    0.04215    0.00467
AFIX  93
H6A   2    0.556512    0.584518    0.717811    11.00000   -1.20000
H6B   2    0.520402    0.590810    0.707749    11.00000   -1.20000
AFIX   0
O17   3    0.477321    0.956824    0.923842    11.00000    0.09170    0.18219 =
         0.25345   -0.10288   -0.02038    0.02728
C53   1    0.470113    0.929459    0.939454    11.00000    0.11084    0.19379 =
         0.24123   -0.08575   -0.02111    0.01255
O16   3    0.472517    0.917839    0.968307    11.00000    0.12678    0.12557 =
         0.20164   -0.00958    0.01707   -0.08431
O11   3    0.441875    0.488092    0.733447    11.00000    0.05459    0.09965 =
         0.24609    0.02320   -0.02026    0.05184
AFIX 116
C23   1    0.583072    0.569897    0.891209    11.00000    0.43243    0.52536 =
         0.47249    0.07986    0.02371    0.04933
AFIX  43
H23   2    0.568986    0.560342    0.906518    11.00000   -1.20000
AFIX 115
C22   1    0.575498    0.573413    0.855768    11.00000    0.39047    0.48279 =
         0.41106    0.08698    0.07378    0.05277
C21   1    0.596552    0.587693    0.832887    11.00000    0.44747    0.54699 =
         0.49661    0.06974    0.04854    0.02680
AFIX  43
H21   2    0.591483    0.590046    0.809175    11.00000   -1.20000
AFIX 115
C20   1    0.625180    0.598457    0.845448    11.00000    0.45989    0.57092 =
         0.50476    0.05252    0.01887   -0.00173
AFIX  43
H20   2    0.639266    0.608011    0.830140    11.00000   -1.20000
AFIX 115
C19   1    0.632755    0.594941    0.880890    11.00000    0.46562    0.55959 =
         0.51849    0.06225    0.00568    0.00220
C24   1    0.611701    0.580661    0.903771    11.00000    0.46210    0.55907 =
         0.50685    0.06986    0.00433    0.03813
C25   1    0.619275    0.577144    0.939212    11.00000    0.47148    0.56749 =
         0.51680    0.06506    0.00618    0.03640
AFIX  43
H25   2    0.605188    0.567589    0.954520    11.00000   -1.20000
AFIX 115
C26   1    0.647903    0.587908    0.951774    11.00000    0.46904    0.54429 =
         0.52178    0.06084   -0.01733    0.01535
AFIX  43
H26   2    0.652971    0.585555    0.975487    11.00000   -1.20000
AFIX 115
C17   1    0.668957    0.602188    0.928895    11.00000    0.45344    0.49142 =
         0.50136    0.06303   -0.02103   -0.01043
C18   1    0.661384    0.605705    0.893453    11.00000    0.46225    0.52175 =
         0.52716    0.05398   -0.01076   -0.01710
AFIX  43
H18   2    0.675470    0.615259    0.878145    11.00000   -1.20000
AFIX   0
O12   3    0.454469    0.516017    0.862591    11.00000    0.21075    0.19469 =
         0.29462    0.02393    0.08057    0.04105
AFIX  93
H12A  2    0.444980    0.534799    0.856255    11.00000   -1.20000
H12B  2    0.445717    0.503652    0.880219    11.00000   -1.20000
AFIX   0
HKLF 4




REM  b_b.res in I4(1)22
REM wR2 = 0.2058, GooF = S = 0.979, Restrained GooF = 1.026 for all data
REM R1 = 0.0616 for 16168 Fo > 4sig(Fo) and 0.1252 for all 31970 data
REM 603 parameters refined using 561 restraints

END

WGHT      0.0897     16.0326

REM Highest difference peak  0.447,  deepest hole -0.335,  1-sigma level  0.025
Q1    1   0.4816  0.5476  0.7318  11.00000  0.05    0.26
Q2    1   0.4780  0.5573  0.7728  11.00000  0.05    0.19
Q3    1   0.5015  0.4490  0.6922  11.00000  0.05    0.18
Q4    1   0.4656  0.4686  0.7258  11.00000  0.05    0.17
Q5    1   0.9193  0.5065  0.9441  11.00000  0.05    0.16
Q6    1   0.4288  0.4791  0.7034  11.00000  0.05    0.16
Q7    1   0.5068  0.5821  0.6719  11.00000  0.05    0.16
Q8    1   0.4987  0.9608  0.9160  11.00000  0.05    0.15
Q9    1   0.4303  0.5382  0.8249  11.00000  0.05    0.15
Q10   1   0.4294  0.5573  0.7764  11.00000  0.05    0.14
Q11   1   0.9377  0.5592  1.0117  11.00000  0.05    0.14
Q12   1   0.9083  0.4810  0.9583  11.00000  0.05    0.14
Q13   1   0.4612  0.4684  0.8129  11.00000  0.05    0.13
Q14   1   0.4624  0.5688  0.7287  11.00000  0.05    0.13
Q15   1   0.4705  0.4518  0.6844  11.00000  0.05    0.13
Q16   1   0.5543  0.5699  0.6925  11.00000  0.05    0.13
Q17   1   0.5342  0.5903  0.7485  11.00000  0.05    0.13
Q18   1   0.5000  0.5000  0.7487  10.50000  0.05    0.13
Q19   1   0.9307  0.5880  0.9773  11.00000  0.05    0.12
Q20   1   0.5123  0.5521  0.8940  11.00000  0.05    0.12
Q21   1   0.4802  0.9101  0.9838  11.00000  0.05    0.12
Q22   1   0.4560  0.4996  0.8451  11.00000  0.05    0.12
Q23   1   0.4881  0.4994  0.6333  11.00000  0.05    0.12
Q24   1   0.5427  0.6082  0.7299  11.00000  0.05    0.12
Q25   1   0.9389  0.5677  0.9830  11.00000  0.05    0.12
Q26   1   0.8983  0.5709  1.0149  11.00000  0.05    0.12
Q27   1   0.5711  0.5307  0.8296  11.00000  0.05    0.11
Q28   1   0.4701  0.4680  0.6648  11.00000  0.05    0.11
Q29   1   0.5213  0.5921  0.7936  11.00000  0.05    0.11
Q30   1   0.4210  0.5557  0.7959  11.00000  0.05    0.11
Q31   1   0.4769  0.9169  0.9530  11.00000  0.05    0.11
Q32   1   0.4599  0.5699  0.8233  11.00000  0.05    0.11
Q33   1   0.9065  0.4704  0.9778  11.00000  0.05    0.11
Q34   1   0.4482  0.4989  0.7107  11.00000  0.05    0.11
Q35   1   0.4405  0.4796  0.7605  11.00000  0.05    0.10
Q36   1   0.4799  0.4617  0.6480  11.00000  0.05    0.10
Q37   1   0.4457  0.5732  0.7593  11.00000  0.05    0.10
Q38   1   0.4840  0.9533  0.8956  11.00000  0.05    0.10
Q39   1   0.9106  0.5182  0.9883  11.00000  0.05    0.10
Q40   1   0.4849  0.5408  0.8237  11.00000  0.05    0.09
Q41   1   0.3980  0.6182  0.7604  11.00000  0.05    0.09
Q42   1   0.4834  0.6023  0.7522  11.00000  0.05    0.09
Q43   1   0.4993  0.5484  0.8282  11.00000  0.05    0.09
Q44   1   0.4020  0.5899  0.7763  11.00000  0.05    0.09
Q45   1   0.8984  0.5815  0.9847  11.00000  0.05    0.09
Q46   1   0.4739  0.4295  0.6567  11.00000  0.05    0.09
Q47   1   0.4708  0.5319  0.8628  11.00000  0.05    0.09
Q48   1   0.8697  0.5216  1.0113  11.00000  0.05    0.09
Q49   1   0.4123  0.5705  0.7625  11.00000  0.05    0.09
Q50   1   0.4726  0.9630  0.9118  11.00000  0.05    0.09
;
_shelx_res_checksum              17877
_shelx_fab_file
;
-51 -7 -2 7.9370 6.8866
-51 -6 -3 1.7332 -1.9072
-51 -6 -1 -1.1491 -10.0695
-51 -5 -4 -8.0285 -24.2585
-51 -5 -2 -11.8031 13.4256
-51 -4 -5 -2.6150 15.1335
-51 -4 -3 1.7853 -7.3473
-51 -4 -1 -5.4344 2.3457
-51 -3 -6 -7.6276 -5.8932
-51 -3 -4 -0.0796 0.0188
-51 -3 -2 4.4771 7.7196
-51 -2 -5 3.4157 9.1124
-51 -2 -3 -1.8077 -9.0492
-51 -2 -1 -5.6893 -8.2460
-51 -1 -6 -14.6397 -15.3444
-51 -1 -4 0.9184 -3.1038
-51 -1 -2 -11.4287 -5.2880
-50 -12 -2 -0.5561 -5.4271
-50 -11 -5 2.4680 -4.1819
-50 -11 -3 1.3877 10.2994
-50 -11 -1 -0.4761 1.9424
-50 -10 -6 -3.9423 17.6716
-50 -10 -4 10.5490 -11.2904
-50 -10 -2 -11.6324 -9.3652
-50 -9 -7 -5.0419 -8.6530
-50 -9 -5 6.3569 -18.1148
-50 -9 -3 0.1070 2.0036
-50 -9 -1 -10.6021 -0.5204
-50 -8 -8 -1.1036 -1.4451
-50 -8 -6 -1.1301 2.3161
-50 -8 -4 -5.4748 4.3064
-50 -8 -2 7.5289 19.1631
-50 -7 -9 0.9719 -1.8345
-50 -7 -7 0.6658 26.7101
-50 -7 -5 -5.4662 -8.1690
-50 -7 -3 -3.3929 -13.5805
-50 -7 -1 -10.5045 14.6126
-50 -6 -8 10.8882 4.2087
-50 -6 -6 1.0047 3.8609
-50 -6 -4 8.2803 -13.9786
-50 -6 -2 -8.0455 -5.8287
-50 -5 -9 -3.0211 -15.1872
-50 -5 -7 -18.5071 7.8122
-50 -5 -5 -2.2197 -10.9796
-50 -5 -3 17.4246 4.0603
-50 -5 -1 14.7680 3.1689
-50 -4 -10 -1.8080 13.4894
-50 -4 -8 -3.1963 -2.3342
-50 -4 -6 -2.9070 -0.8087
-50 -4 -4 -6.6994 7.8590
-50 -4 -2 -6.3400 -8.7172
-50 -3 -9 -9.3761 -10.0780
-50 -3 -7 4.5217 -5.5388
-50 -3 -5 -12.0590 -11.9457
-50 -3 -3 -5.0248 18.8112
-50 -3 -1 6.7310 -11.1625
-50 -2 -10 -5.6700 2.9901
-50 -2 -8 -12.1166 1.5868
-50 -2 -6 0.9966 8.6117
-50 -2 -4 0.1540 14.1462
-50 -2 -2 4.8203 -30.7144
-50 -1 -11 11.8434 -17.0348
-50 -1 -9 -2.6007 8.9759
-50 -1 -7 4.8018 -2.7256
-50 -1 -5 3.8811 7.6398
-50 -1 -3 6.2279 3.4012
-50 -1 -1 -1.7899 -10.0266
-49 -15 -4 16.7615 -9.8576
-49 -15 -2 -3.7569 15.7189
-49 -14 -5 17.5673 19.3490
-49 -14 -3 16.7028 -0.9617
-49 -14 -1 -21.2840 22.4218
-49 -13 -8 -5.1154 8.2920
-49 -13 -6 10.2142 15.7074
-49 -13 -4 9.6715 0.2776
-49 -13 -2 3.2299 26.8949
-49 -12 -9 -15.6104 -10.5171
-49 -12 -7 -7.7084 14.3205
-49 -12 -5 27.8669 22.8806
-49 -12 -3 -11.3536 10.3562
-49 -12 -1 17.0885 14.1982
-49 -11 -10 9.9512 -4.0066
-49 -11 -8 4.4127 25.1037
-49 -11 -6 9.2462 12.8370
-49 -11 -4 -2.4882 12.3268
-49 -11 -2 -17.3171 -9.3111
-49 -10 -11 -8.5807 6.5197
-49 -10 -9 -7.5973 11.7874
-49 -10 -7 -3.7354 16.0651
-49 -10 -5 11.1761 2.5136
-49 -10 -3 -4.8661 13.8419
-49 -10 -1 0.7750 -0.0790
-49 -9 -10 -6.3003 -9.9035
-49 -9 -8 -2.1411 19.6465
-49 -9 -6 -0.1181 -0.7063
-49 -9 -4 19.3816 -0.2102
-49 -9 -2 4.6164 -24.7550
-49 -8 -11 -3.5177 -7.1085
-49 -8 -9 -0.3346 8.0988
-49 -8 -7 -2.3524 -4.6304
-49 -8 -5 9.2917 11.7059
-49 -8 -3 -0.3185 7.5395
-49 -8 -1 0.8081 -11.7716
-49 -7 -12 -13.9415 7.7843
-49 -7 -10 7.1453 1.4209
-49 -7 -8 4.6594 14.1029
-49 -7 -6 -1.8397 5.6374
-49 -7 -4 -8.1520 0.3375
-49 -7 -2 -2.8786 -12.5605
-49 -6 -13 4.3225 -9.1387
-49 -6 -11 -1.3846 9.0348
-49 -6 -9 -1.8805 -10.9743
-49 -6 -7 5.7548 -0.9317
-49 -6 -5 -1.1701 -15.5709
-49 -6 -3 4.2335 -7.0984
-49 -6 -1 -11.9280 4.2715
-49 -5 -12 -1.9472 5.9445
-49 -5 -10 -6.8668 -10.5471
-49 -5 -8 -4.7297 0.6604
-49 -5 -6 2.0011 -7.2752
-49 -5 -4 13.5444 -5.8481
-49 -5 -2 6.7609 -5.7076
-49 -4 -13 -1.1166 4.1921
-49 -4 -11 -10.8613 -6.7165
-49 -4 -9 1.3027 -9.2654
-49 -4 -7 5.6562 -8.6592
-49 -4 -5 24.3322 15.2185
-49 -4 -3 -3.6402 -7.8873
-49 -4 -1 -1.7667 4.1350
-49 -3 -14 2.2237 -16.6665
-49 -3 -12 11.3482 6.0717
-49 -3 -10 -3.2754 15.3500
-49 -3 -8 13.7312 9.6189
-49 -3 -6 1.0506 4.7628
-49 -3 -4 -4.0993 4.3008
-49 -3 -2 -14.4927 -2.5259
-49 -2 -13 -2.2113 -13.4286
-49 -2 -11 4.9734 9.6118
-49 -2 -9 -11.2567 12.1645
-49 -2 -7 -1.1898 0.2319
-49 -2 -5 -0.9834 -0.2825
-49 -2 -3 -2.0187 4.0196
-49 -2 -1 0.6502 -10.8739
-49 -1 -14 -15.4720 -19.7504
-49 -1 -12 1.7340 -11.7641
-49 -1 -10 15.1784 -5.5345
-49 -1 -8 -1.6994 -1.3520
-49 -1 -6 -13.7343 -18.7907
-49 -1 -4 -1.0079 5.2631
-49 -1 -2 2.1326 -0.2525
-48 -18 -4 -22.7832 -5.7242
-48 -18 -2 3.4180 24.6517
-48 -17 -7 -4.4890 3.7906
-48 -17 -5 -0.1151 -12.5839
-48 -17 -3 6.3543 -9.3119
-48 -17 -1 -19.5739 -7.7487
-48 -16 -8 -2.4748 12.3831
-48 -16 -6 2.7770 7.6733
-48 -16 -4 13.5909 6.6804
-48 -16 -2 1.4065 -11.3098
-48 -15 -9 -2.1471 -24.6104
-48 -15 -7 -1.5995 29.5943
-48 -15 -5 -6.0500 18.0835
-48 -15 -3 21.7252 10.1391
-48 -15 -1 -16.8991 -21.2487
-48 -14 -10 -11.2857 -11.8114
-48 -14 -8 12.4109 18.2284
-48 -14 -6 8.4825 5.0743
-48 -14 -4 10.5479 21.2469
-48 -14 -2 19.8004 2.7959
-48 -13 -11 0.0297 8.9490
-48 -13 -9 -5.7738 6.4799
-48 -13 -7 3.4689 16.8898
-48 -13 -5 -12.3674 -7.9689
-48 -13 -3 23.9986 7.4621
-48 -13 -1 -25.1694 23.5171
-48 -12 -12 -14.0562 14.3115
-48 -12 -10 2.7559 23.0781
-48 -12 -8 -5.3769 -12.2631
-48 -12 -6 14.7545 2.3427
-48 -12 -4 4.2686 -7.9911
-48 -12 -2 15.3374 -5.6245
-48 -11 -13 -6.4680 8.8708
-48 -11 -11 10.6519 -2.8284
-48 -11 -9 1.5646 -6.6717
-48 -11 -7 7.7945 15.4308
-48 -11 -5 3.5972 1.5489
-48 -11 -3 -2.7503 -17.2833
-48 -11 -1 1.2906 3.3018
-48 -10 -14 5.4896 4.0330
-48 -10 -12 1.6646 17.0766
-48 -10 -10 7.2623 0.2058
-48 -10 -8 6.4880 -9.3414
-48 -10 -6 -4.5935 -10.3409
-48 -10 -4 -18.3975 -14.9872
-48 -10 -2 7.9706 14.1725
-48 -9 -13 -6.8262 7.6954
-48 -9 -11 -13.7560 13.7323
-48 -9 -9 1.1311 -17.0711
-48 -9 -7 6.3046 -13.5405
-48 -9 -5 5.6256 5.5520
-48 -9 -3 -0.7827 2.9176
-48 -9 -1 -3.3086 2.3843
-48 -8 -14 7.1593 2.5078
-48 -8 -12 3.7742 -2.4127
-48 -8 -10 4.9776 8.2665
-48 -8 -8 3.7403 -1.5749
-48 -8 -6 8.9897 -2.3888
-48 -8 -4 -4.0312 -8.0755
-48 -8 -2 -6.3863 14.2596
-48 -7 -15 -4.2236 -5.2969
-48 -7 -13 4.6956 -5.2616
-48 -7 -11 0.3278 -2.7166
-48 -7 -9 0.3164 -4.1804
-48 -7 -7 -1.7760 2.4321
-48 -7 -5 0.2269 -3.3909
-48 -7 -3 10.8458 -0.8420
-48 -7 -1 0.3904 10.1588
-48 -6 -14 -0.2519 7.5277
-48 -6 -12 2.5573 -3.3878
-48 -6 -10 -1.8117 -11.4918
-48 -6 -8 -0.5653 1.2664
-48 -6 -6 0.7282 22.2028
-48 -6 -4 -5.9733 -15.4660
-48 -6 -2 7.8138 -2.3356
-48 -5 -15 5.1384 11.3732
-48 -5 -13 -1.1244 1.2627
-48 -5 -11 0.3253 -3.4155
-48 -5 -9 -1.9100 0.3461
-48 -5 -7 -4.2071 -0.9018
-48 -5 -5 -8.7257 11.6561
-48 -5 -3 15.5133 -12.7561
-48 -5 -1 -5.5335 -11.4390
-48 -4 -16 -2.9741 -3.1090
-48 -4 -14 3.1388 1.4731
-48 -4 -12 -12.1965 9.6517
-48 -4 -10 1.2071 6.2809
-48 -4 -8 -9.1680 -8.6978
-48 -4 -6 -5.2372 4.8247
-48 -4 -4 -0.3164 4.5093
-48 -4 -2 -1.6821 13.4193
-48 -3 -15 12.0151 -31.9687
-48 -3 -13 2.1360 -5.9478
-48 -3 -11 -9.9686 10.1429
-48 -3 -9 0.0790 -5.5846
-48 -3 -7 -4.0765 -4.6349
-48 -3 -5 -5.3299 -6.1996
-48 -3 -3 -1.4514 10.5393
-48 -3 -1 13.3401 8.1285
-48 -2 -16 0.1103 17.7206
-48 -2 -14 -6.3098 -6.0103
-48 -2 -12 16.2423 -6.4979
-48 -2 -10 -4.1730 -17.3677
-48 -2 -8 2.7325 15.1086
-48 -2 -6 3.8258 21.2458
-48 -2 -4 -16.9366 -2.0730
-48 -2 -2 14.1976 11.1663
-48 -1 -15 -2.9488 -5.5275
-48 -1 -13 -0.8400 -1.6155
-48 -1 -11 3.1852 -7.6016
-48 -1 -9 -3.9437 -8.4140
-48 -1 -7 -6.0340 -4.1059
-48 -1 -5 0.8235 -0.1453
-48 -1 -3 -1.5718 -6.6181
-48 -1 -1 -12.0343 -10.4180
-47 -21 -2 4.2374 -2.7381
-47 -20 -5 1.2682 -10.1328
-47 -20 -3 -2.7842 -2.9372
-47 -20 -1 11.8408 -4.4700
-47 -19 -8 8.5674 11.7752
-47 -19 -6 -2.7999 -9.2597
-47 -19 -4 -5.0115 -7.8804
-47 -19 -2 -4.6117 -4.1424
-47 -18 -9 -0.0017 24.3175
-47 -18 -7 -0.8477 13.9436
-47 -18 -5 -13.8511 4.6919
-47 -18 -3 2.9638 -16.3644
-47 -18 -1 -3.0974 6.8656
-47 -17 -10 3.4264 -20.3522
-47 -17 -8 -17.9327 3.3879
-47 -17 -6 3.2829 -20.2143
-47 -17 -4 10.6066 13.5313
-47 -17 -2 17.0323 1.6222
-47 -16 -11 -5.8025 8.2049
-47 -16 -9 -14.0280 16.5765
-47 -16 -7 -1.1116 -2.3230
-47 -16 -5 -9.7629 3.3718
-47 -16 -3 15.0715 -25.7789
-47 -16 -1 -15.0438 8.6243
-47 -15 -12 12.1534 -18.2513
-47 -15 -10 1.1972 5.1145
-47 -15 -8 9.7546 9.2131
-47 -15 -6 15.0356 -1.2187
-47 -15 -4 -1.4085 -6.3040
-47 -15 -2 4.3501 5.1893
-47 -14 -13 5.8489 -3.9381
-47 -14 -11 -10.8990 -0.3467
-47 -14 -9 0.0741 7.7206
-47 -14 -7 -7.3607 -15.3971
-47 -14 -5 -23.7443 -0.9335
-47 -14 -3 29.8487 -10.2686
-47 -14 -1 -26.2305 -19.0891
-47 -13 -14 -17.2774 1.1209
-47 -13 -12 17.5480 8.1433
-47 -13 -10 -18.0188 -1.1053
-47 -13 -8 4.5868 -14.9862
-47 -13 -6 6.5651 4.4144
-47 -13 -4 -3.8381 -0.6910
-47 -13 -2 -7.1600 11.6652
-47 -12 -15 18.4317 0.6840
-47 -12 -13 2.8390 4.0811
-47 -12 -11 -11.4928 6.1034
-47 -12 -9 -1.2062 -12.3754
-47 -12 -7 -13.1025 -1.1420
-47 -12 -5 7.0185 4.5235
-47 -12 -3 4.9890 -21.3234
-47 -12 -1 -9.0877 -9.6293
-47 -11 -16 -0.3375 19.7426
-47 -11 -14 1.0518 1.3155
-47 -11 -12 -3.0065 -19.7566
-47 -11 -10 6.3132 -7.3902
-47 -11 -8 -3.0826 -4.9242
-47 -11 -6 6.6825 -2.6409
-47 -11 -4 15.0612 0.8036
-47 -11 -2 -4.5149 -13.8231
-47 -10 -15 8.6636 3.8362
-47 -10 -13 7.8948 -9.3614
-47 -10 -11 -0.3086 -0.8746
-47 -10 -9 -8.8842 23.3478
-47 -10 -7 3.6990 -8.1786
-47 -10 -5 -6.6987 -29.0661
-47 -10 -3 1.2949 -18.5576
-47 -10 -1 4.8213 8.9569
-47 -9 -16 20.9182 8.6150
-47 -9 -14 -1.2538 -16.6510
-47 -9 -12 -7.0179 1.3840
-47 -9 -10 -1.3379 -7.0671
-47 -9 -8 -10.0994 -10.4564
-47 -9 -6 -4.6867 -2.7977
-47 -9 -4 4.4152 3.4562
-47 -9 -2 1.1133 -1.2735
-47 -8 -17 7.7098 2.6532
-47 -8 -15 16.2372 -13.3008
-47 -8 -13 4.4310 7.4833
-47 -8 -11 -2.8098 10.7594
-47 -8 -9 -1.2072 3.6889
-47 -8 -7 5.6465 16.7842
-47 -8 -5 0.6579 6.6199
-47 -8 -3 4.2012 7.8006
-47 -8 -1 -9.3059 11.9497
-47 -7 -16 -6.0559 22.0628
-47 -7 -14 -24.3628 12.7633
-47 -7 -12 26.2785 6.4594
-47 -7 -10 -1.3683 0.7815
-47 -7 -8 6.9824 -9.9290
-47 -7 -6 -3.4317 0.2895
-47 -7 -4 -2.7992 -8.8369
-47 -7 -2 -8.7641 2.4518
-47 -6 -17 -10.4206 23.0914
-47 -6 -15 -6.4825 5.3587
-47 -6 -13 2.6892 -13.4228
-47 -6 -11 0.1751 12.4262
-47 -6 -9 5.9610 -4.2385
-47 -6 -7 0.4214 -1.6731
-47 -6 -5 0.2659 -7.9383
-47 -6 -3 0.2521 3.7383
-47 -6 -1 2.3301 -5.5858
-47 -5 -18 -16.7689 -22.6476
-47 -5 -16 -1.1601 -0.7754
-47 -5 -14 14.8989 26.0065
-47 -5 -12 1.8764 3.1935
-47 -5 -10 7.9535 5.3601
-47 -5 -8 -1.4701 -6.8817
-47 -5 -6 -0.1457 -1.0424
-47 -5 -4 -7.1999 -4.4073
-47 -5 -2 6.9447 15.6243
-47 -4 -17 -8.5697 -9.5119
-47 -4 -15 -0.4277 1.6174
-47 -4 -13 -9.2914 -5.2772
-47 -4 -11 4.8970 8.2987
-47 -4 -9 10.3912 1.9917
-47 -4 -7 -2.4744 -8.8127
-47 -4 -5 -4.1426 0.1371
-47 -4 -3 -6.1148 -9.5728
-47 -4 -1 -7.4366 9.8243
-47 -3 -18 3.8619 -3.3292
-47 -3 -16 -6.1572 -12.1138
-47 -3 -14 -25.4675 4.8364
-47 -3 -12 0.8218 -3.5972
-47 -3 -10 7.5947 5.8146
-47 -3 -8 3.7719 -2.6989
-47 -3 -6 6.9223 8.9110
-47 -3 -4 -5.9240 -7.8672
-47 -3 -2 -13.2596 31.7923
-47 -2 -17 4.0075 -3.0684
-47 -2 -15 -3.0461 0.4757
-47 -2 -13 -7.1605 -13.4780
-47 -2 -11 -13.2983 -11.0940
-47 -2 -9 15.8956 13.7863
-47 -2 -7 1.0693 -11.5852
-47 -2 -5 -4.5591 -2.2351
-47 -2 -3 -0.0006 -18.1832
-47 -2 -1 4.6020 1.0626
-47 -1 -18 2.8731 -1.7674
-47 -1 -16 -32.4208 -5.7473
-47 -1 -14 0.9108 -16.2651
-47 -1 -12 1.9689 -1.7480
-47 -1 -10 14.4050 4.3030
-47 -1 -8 11.1895 3.9174
-47 -1 -6 3.8451 -1.7032
-47 -1 -4 -17.2422 5.7824
-47 -1 -2 -4.6035 -28.4017
-46 -23 -3 -12.5800 6.9480
-46 -23 -1 13.0421 -7.8146
-46 -22 -6 8.3950 -14.3727
-46 -22 -4 2.0509 -7.5518
-46 -22 -2 22.0744 14.4417
-46 -21 -7 11.5827 -14.6592
-46 -21 -5 3.0978 1.7221
-46 -21 -3 6.2072 0.0231
-46 -21 -1 -6.6562 -1.2379
-46 -20 -10 -6.1143 -3.4668
-46 -20 -8 -1.5273 -18.5424
-46 -20 -6 -2.5055 -11.8688
-46 -20 -4 -10.2126 0.8283
-46 -20 -2 -14.4011 -8.3074
-46 -19 -11 -2.2470 16.3808
-46 -19 -9 -5.1922 7.7786
-46 -19 -7 0.0896 -5.9698
-46 -19 -5 -19.4641 20.5585
-46 -19 -3 -6.8583 1.8830
-46 -19 -1 19.1211 8.9069
-46 -18 -12 -4.2055 -7.7970
-46 -18 -10 12.8904 1.1713
-46 -18 -8 -5.0364 14.4804
-46 -18 -6 1.7809 -1.0478
-46 -18 -4 6.4289 3.6305
-46 -18 -2 -11.0219 -0.3898
-46 -17 -13 -3.8708 2.0508
-46 -17 -11 -9.9593 7.5519
-46 -17 -9 6.0184 -11.2900
-46 -17 -7 12.1747 -13.6976
-46 -17 -5 10.5446 -6.7397
-46 -17 -3 -7.0437 1.1811
-46 -17 -1 19.2063 -3.2434
-46 -16 -14 -6.1386 -15.6646
-46 -16 -12 13.2145 -15.6609
-46 -16 -10 -3.3537 -6.6108
-46 -16 -8 6.8222 -21.9821
-46 -16 -6 1.3908 13.6789
-46 -16 -4 0.2416 -4.1653
-46 -16 -2 4.9902 8.2121
-46 -15 -15 -6.4217 6.8081
-46 -15 -13 -1.5955 6.7880
-46 -15 -11 -4.1077 -6.9823
-46 -15 -9 -11.5528 -17.4550
-46 -15 -7 -24.4570 18.1513
-46 -15 -5 -5.7803 17.7944
-46 -15 -3 -18.1631 39.6083
-46 -15 -1 28.3693 -1.2929
-46 -14 -16 -18.3618 -8.3168
-46 -14 -14 -18.4883 -5.8082
-46 -14 -12 2.7995 -20.6295
-46 -14 -10 -6.7616 -24.8667
-46 -14 -8 -15.9009 13.2235
-46 -14 -6 -12.0627 -5.3311
-46 -14 -4 17.9867 16.1109
-46 -14 -2 12.8046 9.0235
-46 -13 -17 8.1869 0.2010
-46 -13 -15 13.9807 17.8214
-46 -13 -13 -4.1078 15.3795
-46 -13 -11 -12.2888 -9.1517
-46 -13 -9 -10.3960 8.1352
-46 -13 -7 -14.4417 8.1101
-46 -13 -5 2.1551 8.9213
-46 -13 -3 -6.6684 -31.2161
-46 -13 -1 20.9276 -12.1594
-46 -12 -16 -23.3146 7.2843
-46 -12 -14 3.1922 14.3922
-46 -12 -12 21.4695 -18.8118
-46 -12 -10 -16.5676 -2.9602
-46 -12 -8 -6.3768 -6.9685
-46 -12 -6 3.8240 2.4180
-46 -12 -4 -9.1821 -13.6372
-46 -12 -2 18.3383 -6.7604
-46 -11 -17 -12.8067 13.7824
-46 -11 -15 13.7793 -4.9075
-46 -11 -13 15.2786 -8.2138
-46 -11 -11 -5.5761 -7.0978
-46 -11 -9 1.0673 -11.6593
-46 -11 -7 -1.2760 7.6987
-46 -11 -5 3.1007 11.0148
-46 -11 -3 9.1516 14.4060
-46 -11 -1 -8.1541 -25.4099
-46 -10 -18 19.2817 -4.5812
-46 -10 -16 -2.2126 2.9785
-46 -10 -14 -0.2899 -17.6056
-46 -10 -12 -5.5366 0.5764
-46 -10 -10 -14.8447 10.4895
-46 -10 -8 2.4406 4.8788
-46 -10 -6 -3.3331 1.2423
-46 -10 -4 -3.2096 2.0250
-46 -10 -2 -5.7867 -14.5641
-46 -9 -19 -3.8660 -3.7176
-46 -9 -17 14.7702 6.0891
-46 -9 -15 -6.3076 11.6467
-46 -9 -13 -2.4856 0.6667
-46 -9 -11 -0.3973 -15.3465
-46 -9 -9 0.0619 6.0310
-46 -9 -7 -4.2339 -0.3618
-46 -9 -5 -1.9647 4.2591
-46 -9 -3 -12.1927 -7.9658
-46 -9 -1 -8.3443 1.2196
-46 -8 -18 -4.5555 -4.6042
-46 -8 -16 0.2626 7.4159
-46 -8 -14 4.8925 -0.8974
-46 -8 -12 5.8246 -16.1845
-46 -8 -10 -3.5806 4.5448
-46 -8 -8 2.1398 -0.6456
-46 -8 -6 3.3160 16.0264
-46 -8 -4 4.4394 1.1222
-46 -8 -2 2.1921 0.5985
-46 -7 -19 -10.4280 19.5681
-46 -7 -17 1.8751 -8.4363
-46 -7 -15 12.4183 -3.9268
-46 -7 -13 0.8717 -4.1589
-46 -7 -11 5.2351 -16.1488
-46 -7 -9 0.1100 6.0372
-46 -7 -7 -2.0568 5.2912
-46 -7 -5 4.1806 5.1565
-46 -7 -3 3.3423 3.9355
-46 -7 -1 9.6844 13.5901
-46 -6 -20 22.0789 10.6479
-46 -6 -18 -0.6621 -0.9104
-46 -6 -16 -2.8573 4.7916
-46 -6 -14 6.6146 2.5275
-46 -6 -12 6.3526 -8.4995
-46 -6 -10 -3.9423 15.1158
-46 -6 -8 8.1035 -2.8592
-46 -6 -6 -0.7007 13.4203
-46 -6 -4 -9.3625 -5.3206
-46 -6 -2 -7.6036 -12.9008
-46 -5 -19 5.3240 -9.4518
-46 -5 -17 -10.8646 -12.0188
-46 -5 -15 -8.5374 -1.9405
-46 -5 -13 -9.7628 1.3833
-46 -5 -11 -1.7729 2.0556
-46 -5 -9 -4.4558 7.4450
-46 -5 -7 10.0670 11.6013
-46 -5 -5 -6.3659 0.4562
-46 -5 -3 -0.5685 1.1510
-46 -5 -1 16.5129 -10.7463
-46 -4 -20 -10.3037 -5.8666
-46 -4 -18 10.3726 -21.3746
-46 -4 -16 -7.4634 -24.9680
-46 -4 -14 -4.2986 -17.4713
-46 -4 -12 -0.8836 4.0811
-46 -4 -10 -3.9615 6.2111
-46 -4 -8 -0.9310 10.8707
-46 -4 -6 8.0103 -8.9296
-46 -4 -4 9.8585 2.2641
-46 -4 -2 9.8128 -11.3914
-46 -3 -19 -2.9743 -0.1874
-46 -3 -17 21.7021 -4.1373
-46 -3 -15 -7.0876 2.2892
-46 -3 -13 -11.8243 -8.5242
-46 -3 -11 -5.1223 3.2805
-46 -3 -9 -3.2214 4.6097
-46 -3 -7 4.2195 3.7263
-46 -3 -5 -0.6044 15.5492
-46 -3 -3 1.7070 8.9419
-46 -3 -1 -5.3806 0.0105
-46 -2 -20 5.0775 19.6341
-46 -2 -18 16.1987 -6.3192
-46 -2 -16 -19.6302 10.7359
-46 -2 -14 11.0958 8.3970
-46 -2 -12 2.9129 -12.1379
-46 -2 -10 -23.1802 3.3379
-46 -2 -8 -1.9800 -2.0193
-46 -2 -6 1.6352 -3.3763
-46 -2 -4 -10.8254 9.4673
-46 -2 -2 11.4625 -12.1932
-46 -1 -19 11.6159 17.8544
-46 -1 -17 -1.9160 -3.2299
-46 -1 -15 4.2301 -4.9882
-46 -1 -13 9.6129 -10.9291
-46 -1 -11 11.8402 3.6822
-46 -1 -9 12.2119 3.5599
-46 -1 -7 -1.6287 -1.8143
-46 -1 -5 5.1524 0.6894
-46 -1 -3 -1.4490 17.8343
-46 -1 -1 -16.3703 -4.1399
-45 -25 -2 -4.1307 2.9629
-45 -24 -5 7.5758 -11.9552
-45 -24 -3 5.2711 8.3147
-45 -24 -1 -11.8486 4.3981
-45 -23 -8 -1.3411 -1.4911
-45 -23 -6 -7.1384 9.4402
-45 -23 -4 16.5692 8.9858
-45 -23 -2 -4.7288 -1.5491
-45 -22 -9 -8.7059 10.0952
-45 -22 -7 -0.6538 -13.5503
-45 -22 -5 -6.6205 -4.7705
-45 -22 -3 -2.6400 14.4821
-45 -22 -1 1.1370 2.2145
-45 -21 -12 -7.2741 -12.7411
-45 -21 -10 -2.1840 21.2475
-45 -21 -8 1.0322 6.2044
-45 -21 -6 -4.5839 -16.3222
-45 -21 -4 6.6544 11.0183
-45 -21 -2 1.8467 -2.3194
-45 -20 -13 -11.4756 -7.7372
-45 -20 -11 11.6655 -9.6599
-45 -20 -9 11.2360 -0.5810
-45 -20 -7 19.6985 1.8439
-45 -20 -5 -11.1991 -12.1033
-45 -20 -3 17.1949 -10.8558
-45 -20 -1 -16.0229 17.1796
-45 -19 -14 15.7868 -11.9400
-45 -19 -12 -12.0287 -6.2361
-45 -19 -10 8.1055 6.7143
-45 -19 -8 -1.9638 8.2629
-45 -19 -6 3.1478 14.0267
-45 -19 -4 -19.9042 2.8017
-45 -19 -2 4.4196 -2.3037
-45 -18 -15 -10.2400 -8.2169
-45 -18 -13 -6.6609 -8.5061
-45 -18 -11 4.3675 3.1706
-45 -18 -9 9.9684 5.2161
-45 -18 -7 -2.7794 -5.8907
-45 -18 -5 10.6801 2.1602
-45 -18 -3 5.0936 22.4570
-45 -18 -1 10.3411 0.1651
-45 -17 -16 -6.7158 13.8337
-45 -17 -14 15.0201 -14.2229
-45 -17 -12 -17.9917 14.8033
-45 -17 -10 -22.9369 -1.8385
-45 -17 -8 4.0461 -0.5713
-45 -17 -6 3.5892 0.1114
-45 -17 -4 12.6274 2.4717
-45 -17 -2 -1.6456 -1.0039
-45 -16 -17 0.1097 2.6449
-45 -16 -15 1.6630 -4.8975
-45 -16 -13 -18.8352 -5.7945
-45 -16 -11 -16.6216 -6.2517
-45 -16 -9 5.1639 -20.8424
-45 -16 -7 27.8692 6.1161
-45 -16 -5 -4.1281 13.3865
-45 -16 -3 22.3956 3.1602
-45 -16 -1 1.8364 -14.0256
-45 -15 -16 11.2153 17.2711
-45 -15 -14 3.1260 -11.2461
-45 -15 -12 4.1323 3.2228
-45 -15 -10 -14.3789 -12.8320
-45 -15 -8 -2.2874 3.4164
-45 -15 -6 4.6922 19.3425
-45 -15 -4 -18.3294 -10.8981
-45 -15 -2 2.9903 -5.2737
-45 -14 -17 -7.5784 11.1137
-45 -14 -15 -19.5664 20.9049
-45 -14 -13 -5.1046 21.8546
-45 -14 -11 -15.3188 3.3862
-45 -14 -9 5.2708 11.9402
-45 -14 -7 -18.2334 -12.0808
-45 -14 -5 -4.5015 -9.7741
-45 -14 -3 13.0921 31.5177
-45 -14 -1 -0.6505 9.2765
-45 -13 -18 20.1005 3.7795
-45 -13 -16 9.9501 -21.6402
-45 -13 -14 -4.0865 -4.1820
-45 -13 -12 -7.8630 -20.3294
-45 -13 -10 5.8373 1.4857
-45 -13 -8 -1.8841 2.1549
-45 -13 -6 12.8771 -2.2557
-45 -13 -4 -1.9447 2.4727
-45 -13 -2 -11.6880 1.5084
-45 -12 -19 0.8773 6.5617
-45 -12 -17 13.8110 16.7619
-45 -12 -15 14.1705 -0.5748
-45 -12 -13 -16.7623 5.3736
-45 -12 -11 -10.5677 -2.3106
-45 -12 -9 9.8507 1.3681
-45 -12 -7 7.2603 4.7546
-45 -12 -5 14.2196 -14.4297
-45 -12 -3 -14.7771 -21.8286
-45 -12 -1 22.6074 -14.3585
-45 -11 -20 -1.9147 -9.7660
-45 -11 -18 -11.7148 12.2647
-45 -11 -16 6.1412 -12.8454
-45 -11 -14 0.0545 -9.4225
-45 -11 -12 18.7501 1.7275
-45 -11 -10 -0.6752 3.4906
-45 -11 -8 -1.4589 -15.1727
-45 -11 -6 2.4565 -14.0510
-45 -11 -4 -16.6633 13.8463
-45 -11 -2 -13.1997 -0.8881
-45 -10 -19 2.0824 2.3681
-45 -10 -17 -10.7422 -16.2424
-45 -10 -15 -10.7982 5.6160
-45 -10 -13 4.9001 -4.6173
-45 -10 -11 2.6402 -4.4488
-45 -10 -9 -1.4652 4.9438
-45 -10 -7 1.1991 -11.3586
-45 -10 -5 -0.8445 -3.6939
-45 -10 -3 -8.6881 1.7253
-45 -10 -1 -9.9093 9.0368
-45 -9 -20 -2.3268 0.0190
-45 -9 -18 22.1999 4.4739
-45 -9 -16 19.5425 -9.8427
-45 -9 -14 4.5155 6.4165
-45 -9 -12 -4.9455 17.4960
-45 -9 -10 -14.7824 -14.5063
-45 -9 -8 0.3485 4.4556
-45 -9 -6 -4.2664 0.5600
-45 -9 -4 -7.1854 11.0346
-45 -9 -2 0.4748 -0.4994
-45 -8 -21 1.6126 3.8147
-45 -8 -19 -4.7219 -15.8918
-45 -8 -17 6.5280 2.9253
-45 -8 -15 16.8969 19.8958
-45 -8 -13 11.4563 -4.9180
-45 -8 -11 -3.8084 2.2809
-45 -8 -9 3.3091 -5.5852
-45 -8 -7 3.1549 -5.2979
-45 -8 -5 -5.9175 -6.8375
-45 -8 -3 -17.2764 1.8619
-45 -8 -1 11.1589 7.0318
-45 -7 -20 -16.4541 13.5678
-45 -7 -18 2.2844 -8.4498
-45 -7 -16 8.8813 -2.4378
-45 -7 -14 1.6485 -8.2264
-45 -7 -12 -7.0430 0.6464
-45 -7 -10 -0.8284 5.0628
-45 -7 -8 -9.6122 7.1399
-45 -7 -6 2.1272 -4.5657
-45 -7 -4 8.5824 2.4666
-45 -7 -2 11.0175 -13.7404
-45 -6 -21 9.4103 -8.6344
-45 -6 -19 -24.1338 15.2115
-45 -6 -17 5.9803 -1.8847
-45 -6 -15 10.7097 -11.7966
-45 -6 -13 -0.0210 -9.9272
-45 -6 -11 8.7568 -6.6398
-45 -6 -9 -4.9426 8.0767
-45 -6 -7 13.3670 9.1984
-45 -6 -5 -0.4009 3.6126
-45 -6 -3 -13.5929 12.0693
-45 -6 -1 2.3417 -10.8329
-45 -5 -20 19.5602 7.8305
-45 -5 -18 7.1491 11.1343
-45 -5 -16 10.5222 -10.3731
-45 -5 -14 5.4822 12.7029
-45 -5 -12 -4.2816 -10.3830
-45 -5 -10 -4.1520 3.6501
-45 -5 -8 -6.0912 6.7743
-45 -5 -6 1.9565 4.2106
-45 -5 -4 -1.8280 5.7735
-45 -5 -2 11.3899 -2.4445
-45 -4 -21 0.3034 3.2268
-45 -4 -19 -7.8638 23.5654
-45 -4 -17 8.4079 -1.5922
-45 -4 -15 -5.3545 12.7991
-45 -4 -13 -4.5998 -11.2274
-45 -4 -11 -4.0351 -4.8766
-45 -4 -9 -1.5473 -8.2466
-45 -4 -7 2.3002 -4.0550
-45 -4 -5 -5.2794 11.5608
-45 -4 -3 9.6906 9.1014
-45 -4 -1 -4.2753 -10.5640
-45 -3 -22 -2.4237 19.1505
-45 -3 -20 -25.1255 -3.7044
-45 -3 -18 -7.4962 -14.9654
-45 -3 -16 9.7571 -4.4099
-45 -3 -14 26.7489 -6.0333
-45 -3 -12 12.3463 -11.5527
-45 -3 -10 4.4031 0.1353
-45 -3 -8 0.5154 -0.2126
-45 -3 -6 1.3424 -18.6038
-45 -3 -4 6.1049 10.9522
-45 -3 -2 -10.8234 -3.1360
-45 -2 -21 0.5795 -9.8915
-45 -2 -19 -0.3261 16.7275
-45 -2 -17 8.7235 13.8086
-45 -2 -15 -10.2759 -1.9345
-45 -2 -13 1.1717 17.6866
-45 -2 -11 5.4514 7.7478
-45 -2 -9 8.2841 10.5659
-45 -2 -7 5.6584 -4.1046
-45 -2 -5 -7.3591 12.1647
-45 -2 -3 7.1612 -3.0836
-45 -2 -1 4.6777 2.5041
-45 -1 -22 10.6847 -5.4968
-45 -1 -20 -4.1127 -8.2286
-45 -1 -18 -0.2212 -1.0673
-45 -1 -16 -4.1108 -0.3766
-45 -1 -14 -25.2144 -3.4409
-45 -1 -12 -1.4996 -13.5078
-45 -1 -10 10.1984 7.3759
-45 -1 -8 14.0976 3.4382
-45 -1 -6 -1.0371 13.1670
-45 -1 -4 -14.2104 12.7951
-45 -1 -2 -26.3298 2.9057
-44 -26 -6 -12.0293 -4.6369
-44 -26 -4 -3.7511 -7.5680
-44 -26 -2 -12.3524 -6.4010
-44 -25 -7 6.1281 1.2564
-44 -25 -5 6.2676 12.0208
-44 -25 -3 4.1720 2.9061
-44 -25 -1 0.5135 23.5215
-44 -24 -10 -14.4823 2.1644
-44 -24 -8 6.3281 5.4564
-44 -24 -6 -12.4718 -8.6936
-44 -24 -4 14.9994 4.8510
-44 -24 -2 -8.9724 12.3422
-44 -23 -11 -5.4631 2.1154
-44 -23 -9 -0.3078 -6.5469
-44 -23 -7 -12.0714 -0.6822
-44 -23 -5 -17.0654 -4.1764
-44 -23 -3 8.9555 4.0465
-44 -23 -1 -13.9821 -2.7609
-44 -22 -12 10.6557 -20.9945
-44 -22 -10 -5.7143 -13.7718
-44 -22 -8 18.1840 20.0704
-44 -22 -6 14.1232 2.2001
-44 -22 -4 17.9723 -14.4198
-44 -22 -2 4.1238 -1.8339
-44 -21 -13 11.7758 -15.6349
-44 -21 -11 -12.0121 0.2940
-44 -21 -9 6.1747 -3.4339
-44 -21 -7 12.9358 -0.0216
-44 -21 -5 -10.1754 -17.2260
-44 -21 -3 -5.0285 3.9140
-44 -21 -1 2.0099 0.0972
-44 -20 -14 -13.3516 4.9535
-44 -20 -12 3.8064 17.8506
-44 -20 -10 13.1409 7.8698
-44 -20 -8 15.7138 -8.7516
-44 -20 -6 -7.9245 -1.0033
-44 -20 -4 0.8765 6.8918
-44 -20 -2 3.1323 -11.2681
-44 -19 -15 4.2223 17.5307
-44 -19 -13 -10.9954 27.7526
-44 -19 -11 4.1391 -1.6148
-44 -19 -9 -11.5306 17.8901
-44 -19 -7 -2.1875 1.3994
-44 -19 -5 29.1238 17.3842
-44 -19 -3 -19.6563 3.0840
-44 -19 -1 10.4900 17.1523
-44 -18 -16 -8.8536 -18.1873
-44 -18 -14 -6.8208 4.0059
-44 -18 -12 -6.0009 4.1844
-44 -18 -10 -1.4251 -4.2038
-44 -18 -8 -4.2640 3.2182
-44 -18 -6 13.7701 20.5925
-44 -18 -4 6.4548 5.7183
-44 -18 -2 19.5741 3.4531
-44 -17 -17 6.7951 1.8890
-44 -17 -15 -8.6660 -8.6061
-44 -17 -13 20.2561 11.7007
-44 -17 -11 17.6156 -14.3638
-44 -17 -9 -17.3466 5.0565
-44 -17 -7 10.9198 5.5051
-44 -17 -5 -20.1803 -4.4296
-44 -17 -3 -11.0288 -5.1030
-44 -17 -1 -9.9533 -12.2243
-44 -16 -18 -13.6359 19.2323
-44 -16 -16 9.3538 5.1026
-44 -16 -14 -20.5491 -4.5589
-44 -16 -12 0.9069 -20.7669
-44 -16 -10 -11.1390 18.1239
-44 -16 -8 25.2100 2.3855
-44 -16 -6 -18.1833 -9.4882
-44 -16 -4 13.9798 1.6010
-44 -16 -2 -2.8882 4.9410
-44 -15 -19 2.6464 17.2378
-44 -15 -17 13.3122 2.2181
-44 -15 -15 8.9332 -7.7574
-44 -15 -13 12.6178 -14.3144
-44 -15 -11 -18.2753 12.1753
-44 -15 -9 -23.8789 2.5359
-44 -15 -7 -8.2023 6.0848
-44 -15 -5 -7.0750 -22.4777
-44 -15 -3 16.3352 9.3874
-44 -15 -1 3.5004 -2.0754
-44 -14 -20 20.8060 5.6938
-44 -14 -18 10.4713 -19.9701
-44 -14 -16 17.1199 2.6484
-44 -14 -14 -18.7249 -1.1739
-44 -14 -12 -29.8950 8.8531
-44 -14 -10 -8.7813 11.2047
-44 -14 -8 -7.1160 2.2321
-44 -14 -6 -5.0896 15.1461
-44 -14 -4 -7.3134 -16.0703
-44 -14 -2 16.1870 -4.3567
-44 -13 -19 0.9832 -18.2801
-44 -13 -17 -1.1129 -16.1217
-44 -13 -15 7.9403 -8.0177
-44 -13 -13 -5.9169 12.9715
-44 -13 -11 14.2535 17.8005
-44 -13 -9 -15.9484 -3.4101
-44 -13 -7 -9.3488 -1.8895
-44 -13 -5 -10.5805 19.3947
-44 -13 -3 6.3782 1.0314
-44 -13 -1 7.6323 35.7092
-44 -12 -20 14.9677 -7.6619
-44 -12 -18 -2.6875 -12.7262
-44 -12 -16 -4.1656 -13.1251
-44 -12 -14 19.7752 4.6672
-44 -12 -12 1.1514 -6.0490
-44 -12 -10 -5.8588 -2.4514
-44 -12 -8 -4.9583 -7.3125
-44 -12 -6 -3.2496 4.2881
-44 -12 -4 -3.8029 0.3068
-44 -12 -2 7.3255 -7.0105
-44 -11 -21 -6.3367 -4.2824
-44 -11 -19 3.6745 -0.5093
-44 -11 -17 22.4026 12.7464
-44 -11 -15 0.0650 7.7190
-44 -11 -13 18.3399 8.6127
-44 -11 -11 -4.8775 9.3656
-44 -11 -9 -5.0083 9.0835
-44 -11 -7 0.2075 -8.3621
-44 -11 -5 1.4091 11.9479
-44 -11 -3 6.5539 -15.5675
-44 -11 -1 -1.9302 -19.4135
-44 -10 -22 6.2483 13.0948
-44 -10 -20 -4.6764 7.4735
-44 -10 -18 2.1434 -4.9053
-44 -10 -16 0.9888 4.4028
-44 -10 -14 7.3286 -6.9679
-44 -10 -12 4.8196 -2.4435
-44 -10 -10 2.7389 5.5173
-44 -10 -8 -0.9967 1.6425
-44 -10 -6 -5.7080 -13.1088
-44 -10 -4 -0.0699 5.5651
-44 -10 -2 -4.9888 -7.8342
-44 -9 -21 -9.6743 0.9718
-44 -9 -19 -7.4205 1.1467
-44 -9 -17 3.4135 -9.9715
-44 -9 -15 -2.5708 22.6237
-44 -9 -13 -1.5016 20.0209
-44 -9 -11 7.6487 -4.8417
-44 -9 -9 -7.7929 -14.2915
-44 -9 -7 2.8477 3.0027
-44 -9 -5 12.5546 -1.5907
-44 -9 -3 -4.2446 -3.1399
-44 -9 -1 -1.6258 -0.9837
-44 -8 -22 14.2758 5.0205
-44 -8 -20 -7.1515 8.5845
-44 -8 -18 -10.1019 9.2858
-44 -8 -16 -4.4147 -9.5228
-44 -8 -14 9.9988 16.9213
-44 -8 -12 5.0920 1.0886
-44 -8 -10 11.0844 -9.5026
-44 -8 -8 6.8729 5.3773
-44 -8 -6 0.7166 2.0057
-44 -8 -4 18.1438 6.6629
-44 -8 -2 -16.9620 -3.6384
-44 -7 -23 13.3444 21.6791
-44 -7 -21 7.8672 6.5126
-44 -7 -19 18.9008 0.1434
-44 -7 -17 4.6807 -7.4364
-44 -7 -15 0.9529 13.0561
-44 -7 -13 6.5275 0.0805
-44 -7 -11 2.3923 -17.9890
-44 -7 -9 -7.9214 5.5459
-44 -7 -7 4.4667 2.0528
-44 -7 -5 12.3794 -3.4564
-44 -7 -3 -11.0930 -6.1919
-44 -7 -1 -5.8099 7.2946
-44 -6 -22 23.7984 0.9669
-44 -6 -20 -2.3553 6.7003
-44 -6 -18 -10.6712 20.2376
-44 -6 -16 -1.9277 -0.8130
-44 -6 -14 1.4219 20.3844
-44 -6 -12 2.4090 14.9608
-44 -6 -10 -3.5648 9.9617
-44 -6 -8 6.3414 3.3943
-44 -6 -6 5.5354 -4.6724
-44 -6 -4 2.6800 11.5963
-44 -6 -2 7.1857 -12.0364
-44 -5 -23 6.1185 2.0307
-44 -5 -21 -5.6097 -8.6248
-44 -5 -19 9.4970 11.1615
-44 -5 -17 -12.8719 -0.3419
-44 -5 -15 -10.4804 2.9415
-44 -5 -13 -3.7701 3.8485
-44 -5 -11 -9.7076 2.4216
-44 -5 -9 13.1705 11.4287
-44 -5 -7 13.4511 -6.4326
-44 -5 -5 1.7028 -14.8048
-44 -5 -3 -0.2221 -2.4996
-44 -5 -1 2.9986 -10.4095
-44 -4 -22 -12.8601 -4.4473
-44 -4 -20 6.0758 1.2123
-44 -4 -18 -14.9244 3.8987
-44 -4 -16 -0.4180 -6.2850
-44 -4 -14 3.8535 -10.0744
-44 -4 -12 -4.2445 -5.9104
-44 -4 -10 1.0087 6.7517
-44 -4 -8 -0.2817 -0.1594
-44 -4 -6 7.6138 -2.9477
-44 -4 -4 -2.5319 10.1971
-44 -4 -2 4.7356 -17.2138
-44 -3 -23 7.5897 22.4525
-44 -3 -21 -2.6110 -18.5032
-44 -3 -19 -4.2680 3.3205
-44 -3 -17 2.7758 -2.1452
-44 -3 -15 -6.7554 -4.3910
-44 -3 -13 -3.4395 27.6676
-44 -3 -11 -9.1079 -1.8153
-44 -3 -9 2.3888 16.0865
-44 -3 -7 8.5064 -1.1645
-44 -3 -5 -10.5507 -7.7148
-44 -3 -3 -9.2357 5.8033
-44 -3 -1 -11.6906 -11.2833
-44 -2 -22 -19.6248 4.4952
-44 -2 -20 15.9743 -7.1607
-44 -2 -18 0.3687 -2.0151
-44 -2 -16 9.0583 -24.0394
-44 -2 -14 -8.0760 11.5161
-44 -2 -12 -7.7555 -4.0762
-44 -2 -10 8.1708 15.5558
-44 -2 -8 11.7075 2.8344
-44 -2 -6 -10.8446 -12.8982
-44 -2 -4 7.3380 22.1717
-44 -2 -2 -4.6357 -9.2353
-44 -1 -23 -2.9986 -0.3742
-44 -1 -21 11.1626 -1.5674
-44 -1 -19 16.1451 2.1893
-44 -1 -17 4.7924 -0.1648
-44 -1 -15 8.0848 -4.3276
-44 -1 -13 4.4515 -6.7821
-44 -1 -11 2.5604 17.8026
-44 -1 -9 1.0864 4.5887
-44 -1 -7 -2.2831 -6.0972
-44 -1 -5 3.1025 6.6756
-44 -1 -3 -3.6669 17.0349
-44 -1 -1 7.3547 8.5177
-43 -28 -3 0.5328 -8.9620
-43 -28 -1 0.0157 3.6498
-43 -27 -6 6.3026 -6.9787
-43 -27 -4 19.6761 1.2045
-43 -27 -2 0.0261 19.9143
-43 -26 -9 -1.3694 0.2156
-43 -26 -7 5.8236 13.4517
-43 -26 -5 2.2479 16.7405
-43 -26 -3 1.6804 -13.9817
-43 -26 -1 5.1282 6.6616
-43 -25 -12 -15.5291 -11.7968
-43 -25 -10 1.7850 -11.9888
-43 -25 -8 -13.3797 15.3978
-43 -25 -6 11.3637 11.7865
-43 -25 -4 -17.8596 -18.1121
-43 -25 -2 -12.2001 -11.4337
-43 -24 -13 -14.6703 7.1086
-43 -24 -11 3.3918 -14.3145
-43 -24 -9 -14.1085 -23.9763
-43 -24 -7 6.8293 -13.4431
-43 -24 -5 -4.8245 10.0590
-43 -24 -3 -10.9541 -0.3664
-43 -24 -1 9.0618 -1.8522
-43 -23 -14 2.2793 1.6102
-43 -23 -12 -4.1577 14.4089
-43 -23 -10 -13.4529 -16.0110
-43 -23 -8 -14.5809 -11.3344
-43 -23 -6 8.9240 10.0235
-43 -23 -4 3.5839 13.5520
-43 -23 -2 -0.4047 -8.3181
-43 -22 -15 15.0745 2.2979
-43 -22 -13 9.1260 -4.0712
-43 -22 -11 20.4013 -4.7540
-43 -22 -9 -10.1467 -5.6627
-43 -22 -7 -7.6812 3.3036
-43 -22 -5 17.0953 -2.1547
-43 -22 -3 -12.9463 2.8800
-43 -22 -1 -8.9937 -0.6911
-43 -21 -16 -6.4408 -5.6616
-43 -21 -14 16.0300 6.6007
-43 -21 -12 9.5577 -9.3385
-43 -21 -10 7.7173 -2.6779
-43 -21 -8 9.9791 -6.2025
-43 -21 -6 3.1563 2.5025
-43 -21 -4 6.0053 -23.1495
-43 -21 -2 21.6242 2.1386
-43 -20 -17 -9.6537 -22.6306
-43 -20 -15 15.7172 7.8679
-43 -20 -13 6.1686 15.1541
-43 -20 -11 -15.6144 19.3157
-43 -20 -9 -9.0298 14.0160
-43 -20 -7 -17.3592 3.0028
-43 -20 -5 20.1265 3.9223
-43 -20 -3 -0.4158 13.4233
-43 -20 -1 7.8368 5.0143
-43 -19 -18 2.7044 16.8685
-43 -19 -16 -11.4519 16.1518
-43 -19 -14 -23.4787 -1.8709
-43 -19 -12 7.4637 3.4874
-43 -19 -10 14.6359 2.2863
-43 -19 -8 -14.2104 -3.8240
-43 -19 -6 5.4653 12.7715
-43 -19 -4 8.9546 20.3281
-43 -19 -2 12.3959 2.3849
-43 -18 -19 1.4293 -19.0423
-43 -18 -17 -2.7559 2.6950
-43 -18 -15 3.5671 -17.1787
-43 -18 -13 7.8308 18.8147
-43 -18 -11 -11.0326 -3.7160
-43 -18 -9 2.1247 5.6927
-43 -18 -7 -25.1941 1.1142
-43 -18 -5 5.9420 2.0879
-43 -18 -3 -5.5263 13.5449
-43 -18 -1 6.4537 -6.2366
-43 -17 -20 1.8056 -2.3398
-43 -17 -18 7.0610 4.5784
-43 -17 -16 6.3815 -23.9423
-43 -17 -14 21.1509 17.0297
-43 -17 -12 -1.1560 2.2519
-43 -17 -10 0.0977 -10.1903
-43 -17 -8 5.1560 -0.5682
-43 -17 -6 20.3909 -1.2368
-43 -17 -4 5.1756 -12.6753
-43 -17 -2 0.6171 -10.6438
-43 -16 -19 10.6530 -16.4874
-43 -16 -17 19.8590 -0.7720
-43 -16 -15 -7.5269 13.8762
-43 -16 -13 3.5257 -0.2196
-43 -16 -11 18.3883 -13.9067
-43 -16 -9 -12.0721 1.2471
-43 -16 -7 -2.9923 -1.6924
-43 -16 -5 -4.4776 22.2695
-43 -16 -3 -17.7931 1.4688
-43 -16 -1 -3.9220 18.3834
-43 -15 -20 0.0784 0.3218
-43 -15 -18 10.9247 -20.6436
-43 -15 -16 -10.4634 22.1306
-43 -15 -14 -32.2923 -2.0495
-43 -15 -12 -16.8310 23.8060
-43 -15 -10 18.5485 -3.4289
-43 -15 -8 -23.2350 -11.2321
-43 -15 -6 -7.0213 20.9450
-43 -15 -4 -7.9792 -7.1794
-43 -15 -2 6.2976 -5.4404
-43 -14 -21 -5.8901 0.3942
-43 -14 -19 -4.7849 -16.5309
-43 -14 -17 -2.2021 4.3775
-43 -14 -15 10.4835 9.9156
-43 -14 -13 -3.4496 11.0837
-43 -14 -11 5.2676 20.4051
-43 -14 -9 -3.0019 4.6157
-43 -14 -7 -22.6640 6.6471
-43 -14 -5 -2.2858 1.1056
-43 -14 -3 5.5721 24.9700
-43 -14 -1 -16.5905 0.8694
-43 -13 -22 2.3752 -22.8231
-43 -13 -20 5.5602 -5.8278
-43 -13 -18 -10.9200 6.1105
-43 -13 -16 -3.8948 1.0097
-43 -13 -14 9.6616 3.2659
-43 -13 -12 7.8316 -2.3442
-43 -13 -10 19.9085 -22.0214
-43 -13 -8 12.0737 -10.2960
-43 -13 -6 8.3173 0.2683
-43 -13 -4 1.0012 -20.9930
-43 -13 -2 -5.1170 0.9200
-43 -12 -21 -6.6789 -3.6848
-43 -12 -19 -2.6897 11.9252
-43 -12 -17 -2.9790 -5.9206
-43 -12 -15 -9.1777 23.0104
-43 -12 -13 28.2100 6.2076
-43 -12 -11 0.9691 1.9538
-43 -12 -9 -0.9188 1.5353
-43 -12 -7 16.7720 -26.1396
-43 -12 -5 6.7030 -0.9434
-43 -12 -3 -6.5336 12.5813
-43 -12 -1 8.7769 -24.4108
-43 -11 -22 3.8750 6.6044
-43 -11 -20 -1.4826 1.9988
-43 -11 -18 -2.9810 6.6503
-43 -11 -16 -12.5489 4.9204
-43 -11 -14 -8.0145 7.6310
-43 -11 -12 1.9663 13.2107
-43 -11 -10 7.1429 -4.3698
-43 -11 -8 0.5378 4.3140
-43 -11 -6 -0.6611 -11.8275
-43 -11 -4 12.5844 7.8621
-43 -11 -2 -0.8267 1.0251
-43 -10 -23 1.8540 6.6549
-43 -10 -21 1.7540 -16.3160
-43 -10 -19 -12.0212 14.0266
-43 -10 -17 14.5508 11.1215
-43 -10 -15 -3.4763 18.1831
-43 -10 -13 -5.3678 8.7398
-43 -10 -11 -0.9360 6.9479
-43 -10 -9 1.0696 2.1554
-43 -10 -7 8.0177 -19.3323
-43 -10 -5 1.5866 13.0792
-43 -10 -3 6.2752 15.2578
-43 -10 -1 -2.0526 4.0614
-43 -9 -24 -3.3922 5.9656
-43 -9 -22 9.2617 -5.8335
-43 -9 -20 9.9930 4.7487
-43 -9 -18 5.0113 -9.1232
-43 -9 -16 13.8907 -4.0620
-43 -9 -14 -2.0772 -24.9838
-43 -9 -12 -5.7673 -3.1589
-43 -9 -10 -2.6339 -1.1519
-43 -9 -8 -15.5543 10.5840
-43 -9 -6 -3.0810 2.4163
-43 -9 -4 16.0536 -6.1562
-43 -9 -2 7.4054 -2.3029
-43 -8 -23 -6.8673 -6.3039
-43 -8 -21 5.5254 8.5670
-43 -8 -19 -4.2465 2.6020
-43 -8 -17 11.8046 9.0277
-43 -8 -15 3.2175 4.0851
-43 -8 -13 -7.1386 -20.4869
-43 -8 -11 3.4402 1.8113
-43 -8 -9 -6.6565 -2.5741
-43 -8 -7 -9.7382 -11.7317
-43 -8 -5 -4.7629 5.9160
-43 -8 -3 -0.3941 12.1424
-43 -8 -1 14.6938 15.4620
-43 -7 -24 16.1950 5.8271
-43 -7 -22 7.2627 -5.8686
-43 -7 -20 -2.4131 3.9293
-43 -7 -18 0.2347 -1.9433
-43 -7 -16 -0.7652 2.8666
-43 -7 -14 -0.9594 -0.7838
-43 -7 -12 -7.0617 -10.3015
-43 -7 -10 -2.3462 -3.4150
-43 -7 -8 -3.2074 -7.1889
-43 -7 -6 -4.8065 7.7546
-43 -7 -4 -6.9047 15.2143
-43 -7 -2 4.9143 -2.8127
-43 -6 -23 11.2126 -6.8713
-43 -6 -21 -3.4202 29.6235
-43 -6 -19 8.4583 1.4725
-43 -6 -17 -9.3407 2.8907
-43 -6 -15 7.9118 -8.4118
-43 -6 -13 7.6703 3.8429
-43 -6 -11 6.8313 -7.5635
-43 -6 -9 -1.9705 -1.0794
-43 -6 -7 -14.3727 14.9078
-43 -6 -5 3.6080 19.1481
-43 -6 -3 -6.0402 5.5141
-43 -6 -1 16.0633 -6.5322
-43 -5 -24 1.9892 5.7082
-43 -5 -22 -10.6954 -0.3274
-43 -5 -20 -10.0820 -11.4798
-43 -5 -18 -3.6782 16.5309
-43 -5 -16 7.2006 -10.1029
-43 -5 -14 -0.4159 1.6569
-43 -5 -12 -6.5938 7.1966
-43 -5 -10 3.5288 -0.1066
-43 -5 -8 -8.5210 13.5521
-43 -5 -6 6.5736 -3.2871
-43 -5 -4 0.6533 12.1837
-43 -5 -2 22.4858 8.7850
-43 -4 -25 0.2707 -0.8933
-43 -4 -23 -11.8547 -10.6464
-43 -4 -21 -17.1052 23.2218
-43 -4 -19 -2.5842 -14.8670
-43 -4 -17 11.4635 -4.4549
-43 -4 -15 -19.6860 -27.4473
-43 -4 -13 6.4070 -7.8743
-43 -4 -11 -9.5500 -14.1670
-43 -4 -9 -7.9316 -4.3020
-43 -4 -7 -4.3541 6.8745
-43 -4 -5 -1.4591 9.0556
-43 -4 -3 4.3593 10.0740
-43 -4 -1 3.9945 3.0686
-43 -3 -24 0.6519 5.8559
-43 -3 -22 -11.5239 -6.4564
-43 -3 -20 1.1132 -10.9796
-43 -3 -18 -3.1075 -13.3612
-43 -3 -16 5.8419 -11.1645
-43 -3 -14 -0.9641 -16.8622
-43 -3 -12 -4.2379 12.5011
-43 -3 -10 -0.7902 0.1908
-43 -3 -8 5.4974 0.4235
-43 -3 -6 3.8897 -13.0769
-43 -3 -4 16.2980 16.0745
-43 -3 -2 21.4512 7.5736
-43 -2 -25 -17.3006 6.9066
-43 -2 -23 15.6757 10.7984
-43 -2 -21 7.2072 -7.5800
-43 -2 -19 -6.2100 -7.7402
-43 -2 -17 21.2015 3.1065
-43 -2 -15 -12.0380 7.1613
-43 -2 -13 -10.0259 -1.5071
-43 -2 -11 -11.5448 1.2283
-43 -2 -9 -4.7530 9.1458
-43 -2 -7 6.1265 6.9833
-43 -2 -5 1.3271 19.1378
-43 -2 -3 -1.0474 -8.5438
-43 -2 -1 -9.2867 4.6895
-43 -1 -24 17.4133 -4.2115
-43 -1 -22 4.3356 -2.9223
-43 -1 -20 -0.0279 3.8804
-43 -1 -18 -10.2613 16.2386
-43 -1 -16 6.6664 5.6138
-43 -1 -14 -2.2302 -7.1732
-43 -1 -12 -2.7824 30.7574
-43 -1 -10 -12.2224 11.3684
-43 -1 -8 -27.1536 1.4741
-43 -1 -6 -1.6467 -12.0440
-43 -1 -4 9.3809 -12.7276
-43 -1 -2 14.8179 -2.4666
-42 -29 -5 4.9102 0.0628
-42 -29 -3 3.4060 -0.8281
-42 -29 -1 8.6479 -18.0397
-42 -28 -8 -5.4646 -6.2517
-42 -28 -6 21.0252 -7.3090
-42 -28 -4 9.5484 -8.9969
-42 -28 -2 -12.4263 -44.4560
-42 -27 -11 -2.9195 4.0756
-42 -27 -9 -4.4786 -13.2847
-42 -27 -7 -7.4684 -7.7723
-42 -27 -5 21.5066 -2.1961
-42 -27 -3 -13.8979 -11.2623
-42 -27 -1 2.2788 1.7149
-42 -26 -12 -16.1194 16.3796
-42 -26 -10 19.4019 -19.1476
-42 -26 -8 6.1966 -8.4378
-42 -26 -6 -18.8366 -15.0530
-42 -26 -4 -12.8861 19.2750
-42 -26 -2 -20.2361 33.1073
-42 -25 -13 2.4354 7.4467
-42 -25 -11 13.1263 -12.3123
-42 -25 -9 -7.6350 -10.5465
-42 -25 -7 -10.5350 12.5208
-42 -25 -5 0.1537 0.9764
-42 -25 -3 5.0730 1.6711
-42 -25 -1 -0.7690 0.0557
-42 -24 -14 1.9216 -14.3241
-42 -24 -12 8.7084 -14.9339
-42 -24 -10 -13.5250 -1.9649
-42 -24 -8 -18.6932 -7.0438
-42 -24 -6 3.2295 7.3977
-42 -24 -4 10.7023 -12.9973
-42 -24 -2 -23.4275 -4.9043
-42 -23 -17 -15.2555 17.6250
-42 -23 -15 14.6803 -12.7424
-42 -23 -13 -16.5077 -23.9595
-42 -23 -11 -9.6267 6.9047
-42 -23 -9 10.1272 -1.1189
-42 -23 -7 0.2172 -11.4029
-42 -23 -5 -2.5196 -0.3291
-42 -23 -3 -2.4991 0.8360
-42 -23 -1 -3.6750 6.3893
-42 -22 -18 6.2192 -15.7474
-42 -22 -16 -11.4156 -7.5966
-42 -22 -14 -6.3734 -8.0254
-42 -22 -12 9.4067 9.8823
-42 -22 -10 -3.7761 -4.1232
-42 -22 -8 -6.1344 1.3561
-42 -22 -6 10.3908 26.9706
-42 -22 -4 10.8055 2.0555
-42 -22 -2 15.8606 6.3180
-42 -21 -17 -30.4727 -13.4837
-42 -21 -15 -15.1260 8.9845
-42 -21 -13 22.8749 -6.4886
-42 -21 -11 -0.1298 -4.5681
-42 -21 -9 10.1028 -7.7475
-42 -21 -7 -4.5228 -5.6588
-42 -21 -5 19.2115 -3.7613
-42 -21 -3 2.4627 -3.3248
-42 -21 -1 5.1525 -26.5500
-42 -20 -18 7.7986 -9.3781
-42 -20 -16 9.1416 -6.2238
-42 -20 -14 6.5615 10.6847
-42 -20 -12 -7.2487 -5.0090
-42 -20 -10 9.1458 16.1269
-42 -20 -8 -4.2567 -7.5222
-42 -20 -6 -3.1880 25.7986
-42 -20 -4 -8.5936 9.4736
-42 -20 -2 -5.4262 -25.1764
-42 -19 -19 -4.0628 3.2089
-42 -19 -17 1.4435 2.5704
-42 -19 -15 9.4606 -7.4758
-42 -19 -13 2.5308 -15.7035
-42 -19 -11 4.7910 11.8783
-42 -19 -9 2.7894 -6.2507
-42 -19 -7 9.9558 -11.0436
-42 -19 -5 14.3273 6.9541
-42 -19 -3 0.7381 -3.4942
-42 -19 -1 -3.7862 -11.8999
-42 -18 -20 -3.1987 19.9555
-42 -18 -18 2.9351 -12.7442
-42 -18 -16 -9.2587 -7.4657
-42 -18 -14 -8.4806 -8.8394
-42 -18 -12 22.7613 12.6609
-42 -18 -10 15.0033 -8.6741
-42 -18 -8 15.7706 -6.9619
-42 -18 -6 0.5584 7.6109
-42 -18 -4 14.4600 -3.0497
-42 -18 -2 -15.3533 -8.3966
-42 -17 -21 -2.6319 -3.9194
-42 -17 -19 15.7062 2.5538
-42 -17 -17 -7.6967 -31.1404
-42 -17 -15 -11.9464 11.9802
-42 -17 -13 16.8314 -10.0685
-42 -17 -11 14.1785 7.5232
-42 -17 -9 20.6766 1.3426
-42 -17 -7 9.0083 -2.4154
-42 -17 -5 -15.3200 -24.5167
-42 -17 -3 -18.6304 1.4034
-42 -17 -1 11.1769 -0.3486
-42 -16 -22 8.0064 5.5166
-42 -16 -20 -1.4241 3.2969
-42 -16 -18 -5.9026 16.1821
-42 -16 -16 -12.5916 -1.7119
-42 -16 -14 9.8894 19.4232
-42 -16 -12 1.9485 18.4356
-42 -16 -10 -7.0102 -6.4254
-42 -16 -8 24.4024 -6.6902
-42 -16 -6 -5.7484 3.9535
-42 -16 -4 27.9297 5.6013
-42 -16 -2 13.0028 2.8203
-42 -15 -23 -17.3345 8.3546
-42 -15 -21 -1.5275 -8.5594
-42 -15 -19 10.6382 -17.9278
-42 -15 -17 -10.5254 20.7755
-42 -15 -15 -6.4136 8.1931
-42 -15 -13 -11.2629 -5.2785
-42 -15 -11 -8.4317 7.1737
-42 -15 -9 5.9939 -24.5569
-42 -15 -7 -1.2808 12.0944
-42 -15 -5 -14.8267 34.0488
-42 -15 -3 8.4806 -15.6134
-42 -15 -1 23.7688 6.7422
-42 -14 -22 -19.8394 12.7821
-42 -14 -20 -27.1935 9.5701
-42 -14 -18 0.8865 -16.9277
-42 -14 -16 -20.8283 -2.8661
-42 -14 -14 9.8878 7.0162
-42 -14 -12 -0.0187 -13.9615
-42 -14 -10 -3.2995 6.6065
-42 -14 -8 -4.5030 3.6786
-42 -14 -6 -10.3165 6.3350
-42 -14 -4 18.3109 -27.6831
-42 -14 -2 -9.2268 -2.7078
-42 -13 -23 -18.7444 -10.1515
-42 -13 -21 1.0061 8.8835
-42 -13 -19 -7.9558 9.1176
-42 -13 -17 -5.6907 2.9511
-42 -13 -15 4.4260 4.1029
-42 -13 -13 -26.2866 -1.1217
-42 -13 -11 -0.9171 -5.0080
-42 -13 -9 -35.2075 1.1860
-42 -13 -7 -9.1837 7.5413
-42 -13 -5 13.0774 16.4120
-42 -13 -3 -2.1513 12.5085
-42 -13 -1 5.2840 -12.9265
-42 -12 -24 5.7906 -23.9255
-42 -12 -22 15.6611 10.2236
-42 -12 -20 1.2663 -13.5844
-42 -12 -18 -11.0395 13.7292
-42 -12 -16 9.7136 -3.9444
-42 -12 -14 6.9046 2.0503
-42 -12 -12 1.4571 -5.1504
-42 -12 -10 8.1732 -8.9306
-42 -12 -8 1.7825 7.8071
-42 -12 -6 16.0590 8.5612
-42 -12 -4 2.8775 -8.1495
-42 -12 -2 -15.0843 -8.1812
-42 -11 -23 7.0953 2.6638
-42 -11 -21 2.6506 11.3305
-42 -11 -19 -3.8642 -0.3161
-42 -11 -17 -15.9215 -10.1152
-42 -11 -15 -0.1719 -27.0348
-42 -11 -13 -1.6617 0.1279
-42 -11 -11 2.7754 3.3164
-42 -11 -9 -2.0279 5.8317
-42 -11 -7 9.1301 2.7488
-42 -11 -5 12.2764 6.0655
-42 -11 -3 -12.7145 5.1727
-42 -11 -1 -3.8675 -7.3469
-42 -10 -24 14.7475 -5.3998
-42 -10 -22 -13.0770 3.8422
-42 -10 -20 9.8036 -9.6559
-42 -10 -18 -5.2025 4.4924
-42 -10 -16 8.3606 -2.9897
-42 -10 -14 6.1077 -6.7707
-42 -10 -12 -3.8952 -2.2916
-42 -10 -10 13.4827 4.0572
-42 -10 -8 -7.0521 2.3229
-42 -10 -6 1.1090 -1.4888
-42 -10 -4 -2.4317 2.4649
-42 -10 -2 -21.8129 19.3431
-42 -9 -25 3.0068 -3.6958
-42 -9 -23 -18.1414 1.4235
-42 -9 -21 9.5304 6.5686
-42 -9 -19 9.2260 -11.5703
-42 -9 -17 -17.9377 2.7527
-42 -9 -15 22.4995 -10.8497
-42 -9 -13 7.5140 10.5017
-42 -9 -11 -1.6155 5.8250
-42 -9 -9 9.0259 -11.3404
-42 -9 -7 9.6765 -6.5857
-42 -9 -5 6.1133 -11.4989
-42 -9 -3 4.5524 -3.9744
-42 -9 -1 -1.8037 -3.4993
-42 -8 -24 9.7732 -3.4666
-42 -8 -22 -15.3976 0.3466
-42 -8 -20 -5.1658 0.2249
-42 -8 -18 0.8569 -3.8473
-42 -8 -16 -0.9117 4.8254
-42 -8 -14 5.0662 -4.6619
-42 -8 -12 -1.9928 -11.0985
-42 -8 -10 12.2770 -9.8347
-42 -8 -8 0.6960 -9.1129
-42 -8 -6 3.5433 -5.4679
-42 -8 -4 6.5836 0.5526
-42 -8 -2 -14.8999 8.3403
-42 -7 -25 -9.1599 16.8951
-42 -7 -23 -14.3957 -6.3382
-42 -7 -21 -5.5058 -12.2342
-42 -7 -19 15.3201 4.6015
-42 -7 -17 3.8338 -4.2284
-42 -7 -15 11.1735 9.0390
-42 -7 -13 9.0557 30.9091
-42 -7 -11 6.7738 7.7189
-42 -7 -9 -0.7766 -7.7970
-42 -7 -7 10.3759 -6.2417
-42 -7 -5 -1.4215 -16.9109
-42 -7 -3 -4.3541 -2.6531
-42 -7 -1 -12.2640 9.3603
-42 -6 -26 9.2056 3.6321
-42 -6 -24 1.3605 5.7116
-42 -6 -22 -2.3895 15.6212
-42 -6 -20 -0.7230 13.0096
-42 -6 -18 -1.2489 -4.0507
-42 -6 -16 3.6608 -0.5715
-42 -6 -14 -3.3595 2.7075
-42 -6 -12 1.1148 4.8421
-42 -6 -10 0.2924 -10.7132
-42 -6 -8 6.3608 -7.5587
-42 -6 -6 2.7472 -12.4427
-42 -6 -4 8.3196 13.4445
-42 -6 -2 -9.0575 -3.5820
-42 -5 -25 -6.6698 -12.6662
-42 -5 -23 -13.2799 0.0349
-42 -5 -21 4.5552 5.2651
-42 -5 -19 -1.5374 -9.0500
-42 -5 -17 -11.0306 -3.8388
-42 -5 -15 -5.4010 8.2580
-42 -5 -13 7.7036 2.2994
-42 -5 -11 -6.5249 -8.8782
-42 -5 -9 -5.2168 12.6615
-42 -5 -7 3.7949 -7.0668
-42 -5 -5 -5.4542 -6.5972
-42 -5 -3 -3.7155 8.4838
-42 -5 -1 -2.4479 -0.2399
-42 -4 -26 3.6540 8.5644
-42 -4 -24 -17.8650 -10.4789
-42 -4 -22 -2.9373 -11.7586
-42 -4 -20 -5.8445 4.2114
-42 -4 -18 1.6002 -3.1971
-42 -4 -16 -0.6768 1.7182
-42 -4 -14 2.9086 -6.8764
-42 -4 -12 -6.0186 4.2793
-42 -4 -10 -3.5875 -1.0280
-42 -4 -8 -2.0080 -5.9334
-42 -4 -6 9.6109 -4.4037
-42 -4 -4 -4.0856 7.3552
-42 -4 -2 -12.9694 -6.6048
-42 -3 -25 -0.6467 -4.7322
-42 -3 -23 -18.1174 19.5521
-42 -3 -21 -16.6679 1.6614
-42 -3 -19 5.6370 -17.9233
-42 -3 -17 11.7339 5.3840
-42 -3 -15 0.6977 7.2935
-42 -3 -13 -6.9609 -0.9471
-42 -3 -11 -14.9670 16.4022
-42 -3 -9 6.0034 -3.9700
-42 -3 -7 4.4938 -8.9410
-42 -3 -5 4.7382 -0.4165
-42 -3 -3 -4.0873 20.9748
-42 -3 -1 5.9245 2.0128
-42 -2 -26 17.8325 -2.8185
-42 -2 -24 -3.5149 19.6249
-42 -2 -22 -0.2389 -19.5690
-42 -2 -20 -11.4570 -19.6552
-42 -2 -18 18.0058 12.7082
-42 -2 -16 6.7939 -6.1647
-42 -2 -14 3.1265 -14.9944
-42 -2 -12 -4.3015 2.2381
-42 -2 -10 -3.0469 6.3233
-42 -2 -8 -2.1507 8.4186
-42 -2 -6 -18.2976 10.0851
-42 -2 -4 -12.9689 15.9482
-42 -2 -2 30.9085 23.0202
-42 -1 -25 -9.8102 -12.8934
-42 -1 -23 -22.0067 -5.6758
-42 -1 -21 3.9696 -21.1182
-42 -1 -19 -4.2038 -4.6623
-42 -1 -17 -12.1225 10.2756
-42 -1 -15 -1.7062 -0.6128
-42 -1 -13 2.1428 -14.9576
-42 -1 -11 25.9157 -14.7075
-42 -1 -9 -3.2910 1.8700
-42 -1 -7 -26.4313 -16.1817
-42 -1 -5 1.1846 -2.4993
-42 -1 -3 5.2587 -22.5884
-42 -1 -1 22.7621 4.5603
-41 -31 -2 -2.6495 -26.2518
-41 -30 -7 -3.2851 0.9098
-41 -30 -5 -14.0197 -8.7751
-41 -30 -3 17.7043 -18.4718
-41 -30 -1 -16.0087 -18.0254
-41 -29 -10 0.3090 -13.6747
-41 -29 -8 -1.9707 -7.5187
-41 -29 -6 10.5408 -3.5799
-41 -29 -4 -1.3814 -29.0552
-41 -29 -2 -9.4163 7.4594
-41 -28 -11 -1.3193 -2.4679
-41 -28 -9 -8.9797 -11.6142
-41 -28 -7 -6.2185 -0.1048
-41 -28 -5 1.4867 -4.9702
-41 -28 -3 -16.5010 -3.2810
-41 -28 -1 12.8292 -9.0370
-41 -27 -14 0.2710 -1.3539
-41 -27 -12 15.2132 0.9132
-41 -27 -10 -1.4410 -3.4763
-41 -27 -8 22.6299 -16.3181
-41 -27 -6 10.2407 -9.3177
-41 -27 -4 -28.2487 4.0283
-41 -27 -2 -3.5010 1.7853
-41 -26 -15 7.3310 20.0460
-41 -26 -13 0.9267 5.7268
-41 -26 -11 -4.5800 -18.2675
-41 -26 -9 8.7331 -4.6854
-41 -26 -7 10.2660 15.5096
-41 -26 -5 -21.4829 -0.8518
-41 -26 -3 -10.0303 -5.1844
-41 -26 -1 8.7869 -9.9952
-41 -25 -16 13.0987 0.2388
-41 -25 -14 -28.8883 -7.1755
-41 -25 -12 -23.1097 -0.7974
-41 -25 -10 26.2218 -1.0028
-41 -25 -8 1.3428 10.9366
-41 -25 -6 -13.2191 -0.5179
-41 -25 -4 -18.3268 -22.9384
-41 -25 -2 -6.6384 -19.7406
-41 -24 -17 -9.4353 -15.8391
-41 -24 -15 -16.1697 -1.1724
-41 -24 -13 -15.2782 -12.5506
-41 -24 -11 -8.2983 -7.7907
-41 -24 -9 4.7098 -3.8848
-41 -24 -7 -2.4626 3.2130
-41 -24 -5 -3.6884 5.4686
-41 -24 -3 -3.3686 -18.7853
-41 -24 -1 12.9461 -5.2894
-41 -23 -18 -14.8395 -16.2282
-41 -23 -16 -15.9564 14.2073
-41 -23 -14 20.1889 -4.3063
-41 -23 -12 2.8547 7.1030
-41 -23 -10 13.5718 10.4089
-41 -23 -8 18.2896 -1.0130
-41 -23 -6 -11.4446 -0.7835
-41 -23 -4 -6.1304 19.9324
-41 -23 -2 5.0736 8.8030
-41 -22 -19 -12.6384 -13.9759
-41 -22 -17 6.0378 -0.6956
-41 -22 -15 -4.6396 -17.6771
-41 -22 -13 -7.0907 -11.5205
-41 -22 -11 6.5472 4.4319
-41 -22 -9 8.1994 2.1065
-41 -22 -7 -1.2914 5.3095
-41 -22 -5 -11.7678 4.6889
-41 -22 -3 4.6139 -14.5116
-41 -22 -1 -8.1091 -1.8300
-41 -21 -20 -6.9634 3.1830
-41 -21 -18 -6.2728 -7.4929
-41 -21 -16 -4.9911 2.2764
-41 -21 -14 -5.6039 -6.6484
-41 -21 -12 -0.1205 11.0077
-41 -21 -10 5.3861 8.6008
-41 -21 -8 4.7836 -24.0025
-41 -21 -6 8.9852 -26.6527
-41 -21 -4 -8.4669 -2.3086
-41 -21 -2 17.0075 -3.0855
-41 -20 -21 -0.9368 3.3208
-41 -20 -19 0.4095 0.5379
-41 -20 -17 -12.6498 -14.8646
-41 -20 -15 3.1018 -8.6951
-41 -20 -13 -0.6880 4.3713
-41 -20 -11 3.2007 1.1945
-41 -20 -9 22.7953 2.6208
-41 -20 -7 4.4046 0.5308
-41 -20 -5 2.7459 7.2722
-41 -20 -3 4.5393 -17.7333
-41 -20 -1 2.9183 -3.0440
-41 -19 -22 -3.8174 15.3594
-41 -19 -20 1.7642 -4.2289
-41 -19 -18 -6.7534 -11.9819
-41 -19 -16 2.5426 5.6953
-41 -19 -14 -1.9242 16.9619
-41 -19 -12 -11.4383 -19.5749
-41 -19 -10 14.1694 -11.0557
-41 -19 -8 -1.2910 8.7636
-41 -19 -6 -4.4889 -0.1407
-41 -19 -4 21.0291 -5.0395
-41 -19 -2 3.3357 0.9315
-41 -18 -21 -5.8411 7.9550
-41 -18 -19 7.4569 2.3228
-41 -18 -17 -11.5844 2.6240
-41 -18 -15 6.8333 14.7466
-41 -18 -13 4.9430 -8.0342
-41 -18 -11 5.4643 -2.7350
-41 -18 -9 6.6327 -2.2981
-41 -18 -7 -5.9184 17.9555
-41 -18 -5 6.8506 6.5223
-41 -18 -3 -9.5398 1.2025
-41 -18 -1 -12.7982 -7.2438
-41 -17 -22 -19.2891 -0.3477
-41 -17 -20 19.3873 3.3729
-41 -17 -18 -1.0946 -13.1521
-41 -17 -16 14.2131 6.9104
-41 -17 -14 6.9812 -2.6059
-41 -17 -12 5.1358 -8.7308
-41 -17 -10 -7.3414 3.8880
-41 -17 -8 0.9161 -3.4849
-41 -17 -6 -1.2095 5.1141
-41 -17 -4 -10.3930 30.3329
-41 -17 -2 0.3857 -5.4499
-41 -16 -23 1.2172 4.7147
-41 -16 -21 12.8432 21.3754
-41 -16 -19 -16.9758 -1.0682
-41 -16 -17 -5.5528 -2.2171
-41 -16 -15 12.1511 9.0468
-41 -16 -13 -0.8758 -0.8737
-41 -16 -11 -16.4449 -13.9483
-41 -16 -9 0.4929 -11.5816
-41 -16 -7 -21.1732 -6.7037
-41 -16 -5 -15.7168 1.2068
-41 -16 -3 42.9752 5.3368
-41 -16 -1 -7.1517 9.0882
-41 -15 -24 -1.9805 26.5854
-41 -15 -22 -3.9086 18.7970
-41 -15 -20 9.2652 -10.1205
-41 -15 -18 -16.1175 1.7672
-41 -15 -16 -17.2196 -7.8276
-41 -15 -14 26.3205 -17.0406
-41 -15 -12 -7.5298 14.9883
-41 -15 -10 12.4296 4.1669
-41 -15 -8 8.0469 9.6767
-41 -15 -6 -0.8777 -7.4142
-41 -15 -4 -22.7456 12.2711
-41 -15 -2 18.6511 -4.0979
-41 -14 -23 8.7151 -5.5572
-41 -14 -21 -6.1997 -3.4178
-41 -14 -19 5.5560 12.1486
-41 -14 -17 -18.3035 -4.9699
-41 -14 -15 -4.6813 -8.0013
-41 -14 -13 3.1636 -11.6615
-41 -14 -11 22.7799 9.9958
-41 -14 -9 -1.5809 -5.9370
-41 -14 -7 2.1640 -14.4036
-41 -14 -5 0.3254 -8.6367
-41 -14 -3 29.4284 -24.7944
-41 -14 -1 10.7835 26.5034
-41 -13 -24 10.0501 -20.2840
-41 -13 -22 9.1520 -3.9960
-41 -13 -20 7.2354 17.9197
-41 -13 -18 0.5911 -12.0283
-41 -13 -16 -10.1468 -13.3117
-41 -13 -14 -17.1910 8.1352
-41 -13 -12 8.5284 0.6973
-41 -13 -10 15.0133 0.4216
-41 -13 -8 2.6084 6.8974
-41 -13 -6 10.7659 -7.6397
-41 -13 -4 -7.2930 -2.8871
-41 -13 -2 6.5408 -8.1437
-41 -12 -25 -22.2738 -1.1027
-41 -12 -23 -2.0533 -10.4818
-41 -12 -21 -13.0327 18.9987
-41 -12 -19 -5.8285 -9.0838
-41 -12 -17 9.8392 -9.4229
-41 -12 -15 -6.5579 -3.5292
-41 -12 -13 -10.5538 15.7373
-41 -12 -11 -4.4607 1.8583
-41 -12 -9 6.1215 4.7245
-41 -12 -7 2.4018 37.0144
-41 -12 -5 -6.6941 -6.3222
-41 -12 -3 -8.7798 13.9008
-41 -12 -1 9.2391 -18.8264
-41 -11 -26 8.7708 1.6211
-41 -11 -24 12.5980 15.5397
-41 -11 -22 12.1840 -2.9212
-41 -11 -20 -6.2713 13.8844
-41 -11 -18 -2.0292 -3.2621
-41 -11 -16 15.1569 2.5313
-41 -11 -14 -0.0563 -8.3725
-41 -11 -12 9.6054 12.0161
-41 -11 -10 3.0892 0.7892
-41 -11 -8 1.7573 15.4174
-41 -11 -6 8.6961 0.5851
-41 -11 -4 -4.5685 -12.2283
-41 -11 -2 -11.9135 18.2513
-41 -10 -25 -22.9875 -2.8847
-41 -10 -23 -4.2982 5.0850
-41 -10 -21 -8.5611 -3.9981
-41 -10 -19 5.0344 -13.3070
-41 -10 -17 3.2528 -22.6448
-41 -10 -15 17.6336 12.0075
-41 -10 -13 12.8084 13.0796
-41 -10 -11 -17.1161 -5.6972
-41 -10 -9 -6.8851 -4.5684
-41 -10 -7 -6.4996 31.1934
-41 -10 -5 -5.1552 -3.1354
-41 -10 -3 15.6496 2.0071
-41 -10 -1 10.3467 -3.7944
-41 -9 -26 -7.0060 -11.2242
-41 -9 -24 -2.9555 4.4991
-41 -9 -22 -10.5505 2.3308
-41 -9 -20 -2.7145 5.4562
-41 -9 -18 10.3780 1.0995
-41 -9 -16 13.1153 -6.3877
-41 -9 -14 3.1121 -0.9104
-41 -9 -12 -17.8559 -1.5995
-41 -9 -10 -0.6288 -1.3914
-41 -9 -8 12.4957 20.8800
-41 -9 -6 4.7464 6.9011
-41 -9 -4 -2.1048 -20.3986
-41 -9 -2 -1.5062 -3.7768
-41 -8 -25 14.9010 11.3720
-41 -8 -23 18.4377 15.8116
-41 -8 -21 -2.2586 12.1408
-41 -8 -19 1.5367 11.6359
-41 -8 -17 2.2021 -1.1024
-41 -8 -15 8.3555 -16.9790
-41 -8 -13 -10.1525 -2.5648
-41 -8 -11 -15.7021 3.8607
-41 -8 -9 -14.6801 -6.7610
-41 -8 -7 -15.4592 13.2319
-41 -8 -5 -6.5086 -1.0588
-41 -8 -3 8.7356 -2.8287
-41 -8 -1 0.6784 7.6414
-41 -7 -26 -3.5213 19.3002
-41 -7 -24 8.0116 17.8080
-41 -7 -22 4.7075 -8.2759
-41 -7 -20 0.3285 -12.3983
-41 -7 -18 -3.4132 7.3308
-41 -7 -16 3.3639 -7.9475
-41 -7 -14 -3.8591 -6.7114
-41 -7 -12 -5.4979 -3.9649
-41 -7 -10 -0.7747 0.7143
-41 -7 -8 4.1458 17.9996
-41 -7 -6 -6.2018 11.8409
-41 -7 -4 3.0082 11.9238
-41 -7 -2 -4.0983 3.9262
-41 -6 -27 -13.1072 5.4253
-41 -6 -25 3.9430 -14.8962
-41 -6 -23 12.0587 13.2592
-41 -6 -21 -6.8498 7.3901
-41 -6 -19 -1.3256 5.5809
-41 -6 -17 -4.4190 6.6870
-41 -6 -15 10.3590 -4.9185
-41 -6 -13 -11.0154 5.4540
-41 -6 -11 -3.9648 -9.1913
-41 -6 -9 -0.8732 1.2273
-41 -6 -7 8.4188 14.7164
-41 -6 -5 -7.1997 5.9919
-41 -6 -3 -2.1867 -9.7371
-41 -6 -1 1.2442 4.2872
-41 -5 -26 -8.3537 9.6737
-41 -5 -24 -2.0465 15.7997
-41 -5 -22 1.1778 8.3830
-41 -5 -20 -3.6207 5.2761
-41 -5 -18 -4.1168 1.8924
-41 -5 -16 -2.1057 3.4965
-41 -5 -14 -0.2260 -9.0010
-41 -5 -12 -2.9330 4.3996
-41 -5 -10 2.4906 6.7035
-41 -5 -8 2.6937 -15.5586
-41 -5 -6 -12.3152 14.3206
-41 -5 -4 -8.7501 9.1405
-41 -5 -2 13.2747 20.3577
-41 -4 -27 -4.2699 12.9971
-41 -4 -25 -8.8390 5.2959
-41 -4 -23 5.2992 -9.8917
-41 -4 -21 1.2772 8.2360
-41 -4 -19 1.6440 5.6854
-41 -4 -17 11.8056 -12.9786
-41 -4 -15 6.1719 -6.6388
-41 -4 -13 -4.7639 -21.1411
-41 -4 -11 -4.5649 6.8384
-41 -4 -9 4.7245 4.6164
-41 -4 -7 5.9412 3.8728
-41 -4 -5 1.6844 2.2891
-41 -4 -3 -1.8343 -0.4615
-41 -4 -1 22.6580 -6.9833
-41 -3 -26 -7.5609 -12.0501
-41 -3 -24 -11.8061 19.5715
-41 -3 -22 -1.1609 9.5104
-41 -3 -20 -2.1440 -15.8142
-41 -3 -18 6.3530 1.3383
-41 -3 -16 -0.5431 -1.4569
-41 -3 -14 -3.9793 -7.7622
-41 -3 -12 -3.1235 12.7339
-41 -3 -10 -0.6628 -7.1695
-41 -3 -8 10.7258 -3.0933
-41 -3 -6 -6.1082 0.8801
-41 -3 -4 -0.0348 -21.3996
-41 -3 -2 -6.5081 -0.1232
-41 -2 -27 -6.4701 -14.7948
-41 -2 -25 -12.0645 -21.9337
-41 -2 -23 -13.6201 24.4462
-41 -2 -21 1.0179 -3.7999
-41 -2 -19 6.0056 -17.9463
-41 -2 -17 -4.8145 1.2849
-41 -2 -15 7.9044 -2.6234
-41 -2 -13 -6.0322 5.5500
-41 -2 -11 -7.0675 11.8155
-41 -2 -9 31.2995 -7.4439
-41 -2 -7 -3.8029 13.4567
-41 -2 -5 -11.7662 -26.0878
-41 -2 -3 6.4584 -6.9052
-41 -2 -1 -5.0727 -13.3749
-41 -1 -26 1.8450 2.2294
-41 -1 -24 -26.1346 -3.2369
-41 -1 -22 12.4310 -7.4599
-41 -1 -20 19.0877 -6.6986
-41 -1 -18 1.5786 -0.9001
-41 -1 -16 -17.7527 -11.7690
-41 -1 -14 -9.1142 1.7057
-41 -1 -12 -2.5028 19.7342
-41 -1 -10 -17.5678 -1.8980
-41 -1 -8 40.3657 48.7310
-41 -1 -6 -16.0085 -8.6216
-41 -1 -4 -44.0200 -29.9013
-41 -1 -2 -6.5378 8.7633
-40 -32 -4 -4.5447 19.6962
-40 -32 -2 4.6083 -21.5336
-40 -31 -7 -10.1848 -3.8497
-40 -31 -5 7.6108 -21.9417
-40 -31 -3 -0.0729 -10.1816
-40 -31 -1 -1.3003 -8.5716
-40 -30 -10 -1.6954 1.1810
-40 -30 -8 -7.8274 -2.2512
-40 -30 -6 -20.4926 -0.6377
-40 -30 -4 -8.3840 4.4695
-40 -30 -2 2.4289 41.9231
-40 -29 -13 -14.1159 17.4958
-40 -29 -11 -4.5534 -22.7299
-40 -29 -9 -4.3875 -7.0101
-40 -29 -7 1.6641 -9.1596
-40 -29 -5 6.3866 10.8559
-40 -29 -3 -6.1681 -0.1874
-40 -29 -1 3.5484 -5.1669
-40 -28 -14 4.7573 11.8547
-40 -28 -12 -2.8681 -1.2371
-40 -28 -10 2.3329 -18.2227
-40 -28 -8 -1.7973 15.4776
-40 -28 -6 -5.4003 8.3110
-40 -28 -4 -13.1307 7.6265
-40 -28 -2 -6.5992 -39.9945
-40 -27 -15 -4.9677 14.7515
-40 -27 -13 -14.2485 0.9272
-40 -27 -11 -0.1495 -27.6141
-40 -27 -9 4.6237 14.4583
-40 -27 -7 -5.3456 6.4010
-40 -27 -5 -8.6118 -15.2625
-40 -27 -3 -1.9570 9.0439
-40 -27 -1 -4.5025 -11.1723
-40 -26 -16 17.8719 -24.5073
-40 -26 -14 2.8114 7.5930
-40 -26 -12 0.9893 28.0974
-40 -26 -10 -12.6369 1.5442
-40 -26 -8 -6.8282 15.7609
-40 -26 -6 25.8183 -5.3656
-40 -26 -4 4.2331 -11.3962
-40 -26 -2 -35.4691 35.7297
-40 -25 -17 9.9429 -4.7564
-40 -25 -15 3.4136 -9.5606
-40 -25 -13 -13.3129 7.1299
-40 -25 -11 21.3357 3.6003
-40 -25 -9 -12.1069 -16.3767
-40 -25 -7 7.1874 16.6211
-40 -25 -5 8.3551 1.4096
-40 -25 -3 14.7856 -6.6216
-40 -25 -1 -17.1797 -2.4844
-40 -24 -18 -11.4430 -9.7621
-40 -24 -16 -13.6022 -18.2328
-40 -24 -14 -14.4694 9.7228
-40 -24 -12 -1.6873 -7.0254
-40 -24 -10 -12.1020 -7.6615
-40 -24 -8 6.0523 11.7479
-40 -24 -6 -18.3918 1.4490
-40 -24 -4 -12.6586 -7.1111
-40 -24 -2 4.0815 -27.5627
-40 -23 -19 -6.7024 22.0677
-40 -23 -17 -2.2918 -0.2579
-40 -23 -15 -1.7068 -1.2985
-40 -23 -13 18.4023 8.9834
-40 -23 -11 -11.4154 -16.2583
-40 -23 -9 9.4648 2.1654
-40 -23 -7 -3.2190 4.9925
-40 -23 -5 -21.4409 -9.8367
-40 -23 -3 6.8433 13.2903
-40 -23 -1 -9.2493 5.0427
-40 -22 -20 -4.0814 8.9681
-40 -22 -18 -10.9806 -8.5222
-40 -22 -16 2.3841 -7.9954
-40 -22 -14 -5.0310 5.1141
-40 -22 -12 4.6501 4.4281
-40 -22 -10 -20.4937 -5.5415
-40 -22 -8 8.5181 11.7063
-40 -22 -6 2.0719 3.1409
-40 -22 -4 -0.7069 -13.2170
-40 -22 -2 6.6370 0.9311
-40 -21 -21 2.0080 13.5177
-40 -21 -19 10.2180 -8.0813
-40 -21 -17 0.6513 -24.9418
-40 -21 -15 -19.0597 -24.8489
-40 -21 -13 -7.6173 7.5012
-40 -21 -11 -11.6663 -11.6137
-40 -21 -9 6.6799 4.5138
-40 -21 -7 0.9102 13.2244
-40 -21 -5 -12.1030 -0.6492
-40 -21 -3 9.3367 0.6682
-40 -21 -1 1.1761 12.9682
-40 -20 -22 -9.4921 -8.7980
-40 -20 -20 -3.7202 -20.2589
-40 -20 -18 13.5172 11.4451
-40 -20 -16 3.7690 5.5516
-40 -20 -14 5.9867 7.2241
-40 -20 -12 3.0120 2.0593
-40 -20 -10 7.2161 29.2143
-40 -20 -8 5.9099 -2.8104
-40 -20 -6 3.4394 -5.5024
-40 -20 -4 -10.9094 -4.7393
-40 -20 -2 19.1158 -3.4608
-40 -19 -23 3.2286 0.0222
-40 -19 -21 3.8657 -1.6955
-40 -19 -19 -7.2281 25.0764
-40 -19 -17 2.8216 8.2323
-40 -19 -15 0.5247 -21.9675
-40 -19 -13 10.2043 -11.2146
-40 -19 -11 -14.7934 12.9243
-40 -19 -9 -14.0539 19.8283
-40 -19 -7 -4.2170 9.2923
-40 -19 -5 8.5397 18.7328
-40 -19 -3 -1.6410 -1.4408
-40 -19 -1 2.5484 -22.1507
-40 -18 -24 -1.4185 1.7079
-40 -18 -22 -22.2284 -7.5261
-40 -18 -20 -1.6466 -17.8255
-40 -18 -18 -26.9545 9.6966
-40 -18 -16 -12.0214 8.0339
-40 -18 -14 17.1028 15.1976
-40 -18 -12 -11.0527 1.4193
-40 -18 -10 9.1440 -4.1911
-40 -18 -8 6.4743 6.6207
-40 -18 -6 -1.1231 -5.7300
-40 -18 -4 16.8151 -10.9232
-40 -18 -2 5.7491 -2.3583
-40 -17 -23 3.1358 14.8422
-40 -17 -21 -8.9908 7.2542
-40 -17 -19 12.7233 -9.8493
-40 -17 -17 19.3092 -4.3415
-40 -17 -15 4.6958 -9.2674
-40 -17 -13 7.7941 2.2153
-40 -17 -11 4.3473 4.0517
-40 -17 -9 6.7424 6.0773
-40 -17 -7 10.4494 16.3357
-40 -17 -5 -12.9443 -26.3986
-40 -17 -3 5.1423 -16.5145
-40 -17 -1 -8.8499 17.4213
-40 -16 -24 -11.2149 1.3057
-40 -16 -22 4.6239 -7.8018
-40 -16 -20 -0.1449 -17.2050
-40 -16 -18 0.0969 11.2980
-40 -16 -16 10.1134 -7.1549
-40 -16 -14 -8.3252 1.9704
-40 -16 -12 22.0219 2.6216
-40 -16 -10 3.7204 -8.2663
-40 -16 -8 13.3022 -15.0385
-40 -16 -6 -4.0420 -22.0795
-40 -16 -4 35.3342 -14.5242
-40 -16 -2 11.3082 -8.1197
-40 -15 -25 -1.7441 -4.8959
-40 -15 -23 -15.2951 -13.2859
-40 -15 -21 5.5266 2.8640
-40 -15 -19 -10.8882 15.3565
-40 -15 -17 1.6595 15.3613
-40 -15 -15 -5.8550 -6.9657
-40 -15 -13 19.4884 -4.6574
-40 -15 -11 10.3684 1.1033
-40 -15 -9 -0.5269 -0.8585
-40 -15 -7 5.1670 -3.6070
-40 -15 -5 16.0989 17.7982
-40 -15 -3 -13.5839 -31.7719
-40 -15 -1 10.2069 -30.8915
-40 -14 -26 -17.0129 -9.5894
-40 -14 -24 -6.1474 2.2575
-40 -14 -22 5.4168 -0.4035
-40 -14 -20 -19.3558 -1.9143
-40 -14 -18 4.7538 12.1859
-40 -14 -16 20.8698 12.5528
-40 -14 -14 0.3030 7.7981
-40 -14 -12 22.8955 -10.6197
-40 -14 -10 -7.5154 -3.8380
-40 -14 -8 -7.0788 -2.5121
-40 -14 -6 13.2307 -13.7838
-40 -14 -4 -4.9270 -2.4813
-40 -14 -2 -21.6143 7.5739
-40 -13 -25 -9.9559 12.1722
-40 -13 -23 14.7033 5.5143
-40 -13 -21 13.1098 2.2633
-40 -13 -19 11.0739 5.6993
-40 -13 -17 6.2731 13.4307
-40 -13 -15 -10.6143 4.7869
-40 -13 -13 3.5861 6.4021
-40 -13 -11 1.8570 -3.7809
-40 -13 -9 -41.1791 5.5433
-40 -13 -7 -0.3589 3.6765
-40 -13 -5 -6.3399 20.8504
-40 -13 -3 1.9548 -10.8444
-40 -13 -1 1.7474 21.5678
-40 -12 -26 13.9080 13.5169
-40 -12 -24 -9.3256 2.5975
-40 -12 -22 8.9883 16.5092
-40 -12 -20 4.2471 2.3790
-40 -12 -18 -10.1376 -25.0061
-40 -12 -16 11.5036 -8.3459
-40 -12 -14 5.5556 0.1792
-40 -12 -12 3.6768 -3.2398
-40 -12 -10 2.7637 -6.0500
-40 -12 -8 0.5044 7.1202
-40 -12 -6 9.8650 0.1117
-40 -12 -4 -11.9243 15.6720
-40 -12 -2 -2.4044 29.2453
-40 -11 -27 -2.0862 -22.1257
-40 -11 -25 -9.1355 -5.7816
-40 -11 -23 -20.5061 4.4395
-40 -11 -21 4.2701 5.9470
-40 -11 -19 -2.5829 -5.8569
-40 -11 -17 15.5587 22.7630
-40 -11 -15 12.9886 -14.6059
-40 -11 -13 -5.0313 -17.0816
-40 -11 -11 -1.7193 -2.9804
-40 -11 -9 7.9777 11.5964
-40 -11 -7 -7.3371 5.2471
-40 -11 -5 15.1125 -5.4761
-40 -11 -3 9.2807 6.9962
-40 -11 -1 -2.3486 -5.9507
-40 -10 -26 4.8780 22.6077
-40 -10 -24 -9.6328 26.5832
-40 -10 -22 1.2885 -2.6001
-40 -10 -20 3.4113 -12.4491
-40 -10 -18 11.3373 11.7745
-40 -10 -16 3.2911 7.9033
-40 -10 -14 12.8373 3.3225
-40 -10 -12 -3.1956 3.3083
-40 -10 -10 12.9600 -7.1331
-40 -10 -8 -1.3220 -4.6709
-40 -10 -6 -7.0685 5.8608
-40 -10 -4 -9.0918 5.9489
-40 -10 -2 -0.3561 24.0416
-40 -9 -27 -5.7183 -17.9960
-40 -9 -25 17.4894 6.6857
-40 -9 -23 4.9889 2.6469
-40 -9 -21 14.6644 11.4549
-40 -9 -19 -16.0099 -11.7263
-40 -9 -17 -7.8905 4.4984
-40 -9 -15 0.2935 12.3222
-40 -9 -13 -25.8902 0.4726
-40 -9 -11 -14.7554 -0.8933
-40 -9 -9 17.7219 -3.8236
-40 -9 -7 3.0488 4.9314
-40 -9 -5 -1.7636 -26.9145
-40 -9 -3 -1.0156 -7.5030
-40 -9 -1 -7.8504 5.0831
-40 -8 -28 -6.9538 12.2869
-40 -8 -26 10.2536 19.0319
-40 -8 -24 8.5520 -14.0842
-40 -8 -22 -4.1922 11.8936
-40 -8 -20 -1.9289 -4.5459
-40 -8 -18 -11.2982 6.8744
-40 -8 -16 1.2546 3.8436
-40 -8 -14 -0.7569 -5.2212
-40 -8 -12 -11.0139 -2.4707
-40 -8 -10 -5.9302 6.0144
-40 -8 -8 -0.5490 -7.5772
-40 -8 -6 -0.3618 -2.4042
-40 -8 -4 -9.9633 -9.0733
-40 -8 -2 -2.8601 -1.6324
-40 -7 -27 -1.8177 10.3061
-40 -7 -25 14.7477 7.0723
-40 -7 -23 4.1280 3.4130
-40 -7 -21 0.1873 7.0451
-40 -7 -19 1.8861 7.2840
-40 -7 -17 -14.5633 12.6142
-40 -7 -15 7.3661 16.2829
-40 -7 -13 -11.8564 13.1651
-40 -7 -11 10.3730 0.8168
-40 -7 -9 -8.8043 16.4605
-40 -7 -7 12.4473 -24.5394
-40 -7 -5 5.5688 -5.5959
-40 -7 -3 4.4797 18.1107
-40 -7 -1 -1.2179 2.7698
-40 -6 -28 9.1565 -0.0765
-40 -6 -26 -15.3923 -0.0263
-40 -6 -24 -3.4206 5.0274
-40 -6 -22 1.5004 24.4846
-40 -6 -20 0.8742 8.2114
-40 -6 -18 2.1639 -2.5365
-40 -6 -16 7.8364 -3.4596
-40 -6 -14 -4.6404 14.8975
-40 -6 -12 -0.2755 4.0253
-40 -6 -10 -0.0348 8.4274
-40 -6 -8 13.2901 -13.2858
-40 -6 -6 3.4991 -12.1417
-40 -6 -4 1.5802 -2.1581
-40 -6 -2 -21.3478 0.5948
-40 -5 -27 -0.3714 -19.1737
-40 -5 -25 5.2181 15.1250
-40 -5 -23 -5.9155 -11.0930
-40 -5 -21 2.4478 3.3587
-40 -5 -19 -6.3396 8.0464
-40 -5 -17 -6.6406 -11.7162
-40 -5 -15 1.8190 -4.7583
-40 -5 -13 -3.4611 0.7397
-40 -5 -11 -0.7586 2.3874
-40 -5 -9 -4.2283 17.3324
-40 -5 -7 3.7648 -19.1499
-40 -5 -5 -5.3197 4.7053
-40 -5 -3 -3.7740 16.9576
-40 -5 -1 -7.2084 4.2587
-40 -4 -28 -17.1465 -12.8092
-40 -4 -26 -25.9318 3.9490
-40 -4 -24 8.7477 -12.8953
-40 -4 -22 -3.8332 9.0169
-40 -4 -20 2.5367 -1.7089
-40 -4 -18 -0.5417 -16.6469
-40 -4 -16 0.5693 -10.2918
-40 -4 -14 7.3664 6.4511
-40 -4 -12 -6.3437 4.9690
-40 -4 -10 8.9936 6.3868
-40 -4 -8 14.9884 -14.7308
-40 -4 -6 -5.5982 4.5810
-40 -4 -4 -25.1536 -4.9379
-40 -4 -2 -1.9318 13.3657
-40 -3 -27 3.3788 -0.8090
-40 -3 -25 18.2916 12.1978
-40 -3 -23 1.5243 1.7279
-40 -3 -21 0.3036 -5.8301
-40 -3 -19 -1.1554 -7.1387
-40 -3 -17 -11.8200 13.9401
-40 -3 -15 -15.8937 -11.1247
-40 -3 -13 5.7762 -4.2240
-40 -3 -11 5.6543 8.6000
-40 -3 -9 2.6952 -4.8357
-40 -3 -7 -20.8966 3.4863
-40 -3 -5 -6.0471 0.6376
-40 -3 -3 5.9510 -3.1754
-40 -3 -1 27.4197 6.9643
-40 -2 -28 -7.9115 -18.3407
-40 -2 -26 1.7090 -5.9891
-40 -2 -24 7.6247 10.5043
-40 -2 -22 1.5874 -4.7306
-40 -2 -20 -4.4011 -2.6394
-40 -2 -18 -5.5043 -20.2569
-40 -2 -16 6.5835 -9.7430
-40 -2 -14 5.4777 10.1205
-40 -2 -12 3.2241 5.7005
-40 -2 -10 15.4549 -5.9429
-40 -2 -8 -12.9183 -7.7489
-40 -2 -6 -25.6225 20.6774
-40 -2 -4 -37.1012 -30.7468
-40 -2 -2 24.8745 32.5973
-40 -1 -27 4.0093 -0.5219
-40 -1 -25 16.5017 13.8085
-40 -1 -23 13.3323 -14.4815
-40 -1 -21 -7.9554 16.1558
-40 -1 -19 -2.8798 9.3573
-40 -1 -17 26.1435 1.3667
-40 -1 -15 0.8322 -2.4944
-40 -1 -13 -5.2283 -0.6139
-40 -1 -11 16.2469 -8.0946
-40 -1 -9 -7.0266 -18.6901
-40 -1 -7 2.4212 44.5757
-40 -1 -5 20.1461 -1.4448
-40 -1 -3 3.0705 -26.0975
-40 -1 -1 7.2776 13.5059
-39 -33 -6 0.9382 -4.3221
-39 -33 -4 3.7189 -12.6248
-39 -33 -2 13.0578 0.4146
-39 -32 -9 13.3063 3.0079
-39 -32 -7 -3.4383 1.1467
-39 -32 -5 -11.0810 5.2738
-39 -32 -3 -10.5420 13.7207
-39 -32 -1 11.8471 6.9666
-39 -31 -10 -6.3034 4.2638
-39 -31 -8 -9.1311 1.8398
-39 -31 -6 -1.7146 -0.5263
-39 -31 -4 8.2063 22.3869
-39 -31 -2 3.6788 3.5865
-39 -30 -13 14.2502 -18.2686
-39 -30 -11 -7.4045 -11.4143
-39 -30 -9 -18.3165 -12.1455
-39 -30 -7 5.6131 18.8905
-39 -30 -5 -10.5972 4.8573
-39 -30 -3 7.2656 -4.7034
-39 -30 -1 3.2640 4.5649
-39 -29 -14 5.3328 0.4668
-39 -29 -12 -22.5434 -8.5132
-39 -29 -10 -4.9751 -2.1986
-39 -29 -8 -7.9294 14.4755
-39 -29 -6 -26.7209 0.5523
-39 -29 -4 -5.8101 29.7559
-39 -29 -2 2.3652 -0.1475
-39 -28 -15 -17.8736 -5.1222
-39 -28 -13 -24.6443 -4.9487
-39 -28 -11 1.0760 -4.2177
-39 -28 -9 -0.0981 11.1601
-39 -28 -7 -1.7079 -0.1319
-39 -28 -5 10.4119 -0.6109
-39 -28 -3 1.9777 13.2562
-39 -28 -1 7.5706 15.8403
-39 -27 -16 -2.6256 -8.5578
-39 -27 -14 -0.1487 7.6219
-39 -27 -12 13.4687 15.2226
-39 -27 -10 13.4125 7.8555
-39 -27 -8 -15.8808 0.3101
-39 -27 -6 -12.8889 23.3082
-39 -27 -4 -12.0464 20.8384
-39 -27 -2 15.4285 -17.1706
-39 -26 -19 6.3521 1.5591
-39 -26 -17 -3.3852 5.7280
-39 -26 -15 -4.8841 -16.8480
-39 -26 -13 4.6443 16.3203
-39 -26 -11 -14.5030 -5.4865
-39 -26 -9 -5.5408 -21.9415
-39 -26 -7 1.3102 7.3843
-39 -26 -5 -10.0171 -16.9951
-39 -26 -3 15.1536 8.6505
-39 -26 -1 14.7351 -3.6559
-39 -25 -20 -1.7662 -14.3106
-39 -25 -18 25.8737 5.6214
-39 -25 -16 -3.6294 -0.7593
-39 -25 -14 18.4915 0.9493
-39 -25 -12 6.9567 -5.6551
-39 -25 -10 -9.3353 20.5486
-39 -25 -8 28.6543 24.1542
-39 -25 -6 -6.1382 -0.6367
-39 -25 -4 -25.6034 -6.9420
-39 -25 -2 5.2892 20.8697
-39 -24 -21 -6.3244 21.3713
-39 -24 -19 6.9072 2.8511
-39 -24 -17 -6.2747 5.9707
-39 -24 -15 -22.4537 -2.9709
-39 -24 -13 24.2921 -12.1426
-39 -24 -11 1.5745 5.1312
-39 -24 -9 5.9780 0.3299
-39 -24 -7 0.3376 4.3733
-39 -24 -5 -3.9268 -3.7983
-39 -24 -3 3.9147 -6.0882
-39 -24 -1 0.8176 -2.7973
-39 -23 -20 0.7781 16.6973
-39 -23 -18 -1.7719 -9.5337
-39 -23 -16 3.7465 -9.8501
-39 -23 -14 0.3859 18.1712
-39 -23 -12 18.0864 3.3075
-39 -23 -10 -6.2304 9.6444
-39 -23 -8 -2.3485 -4.2582
-39 -23 -6 10.8312 -10.2897
-39 -23 -4 13.6420 4.1837
-39 -23 -2 4.7259 -0.5470
-39 -22 -21 -7.0087 5.6412
-39 -22 -19 -19.1395 8.6028
-39 -22 -17 18.8337 0.7081
-39 -22 -15 22.1135 10.5878
-39 -22 -13 2.3160 6.8059
-39 -22 -11 15.1282 1.6220
-39 -22 -9 10.6828 -2.5921
-39 -22 -7 12.0362 5.2341
-39 -22 -5 -13.8694 -2.3107
-39 -22 -3 0.3279 -19.5373
-39 -22 -1 -8.2658 -2.0559
-39 -21 -22 -9.4987 -9.5216
-39 -21 -20 -13.5243 10.4248
-39 -21 -18 -1.4462 -3.2873
-39 -21 -16 1.6457 -6.0368
-39 -21 -14 2.6906 -2.6164
-39 -21 -12 15.2738 -6.2833
-39 -21 -10 -11.9832 -14.0294
-39 -21 -8 -15.3096 -6.0504
-39 -21 -6 15.4478 -22.5633
-39 -21 -4 -4.2185 -12.1567
-39 -21 -2 4.3902 25.8155
-39 -20 -23 -2.7486 -12.4811
-39 -20 -21 11.4573 -11.4511
-39 -20 -19 -2.1180 -0.9501
-39 -20 -17 -3.4622 -1.7467
-39 -20 -15 8.0638 -2.9661
-39 -20 -13 16.1787 -1.3720
-39 -20 -11 14.8805 -2.9403
-39 -20 -9 -7.9299 -11.0065
-39 -20 -7 35.4931 7.8621
-39 -20 -5 -8.5863 -16.6848
-39 -20 -3 2.4777 -1.3656
-39 -20 -1 -1.5674 -12.7325
-39 -19 -24 2.6604 -0.6243
-39 -19 -22 -16.9206 -4.0318
-39 -19 -20 -12.2707 5.2561
-39 -19 -18 1.4207 10.3316
-39 -19 -16 0.1942 -2.2566
-39 -19 -14 -2.1836 -9.8354
-39 -19 -12 -9.8259 3.6409
-39 -19 -10 2.0479 15.1407
-39 -19 -8 3.1402 14.6107
-39 -19 -6 -5.6495 -35.4855
-39 -19 -4 -18.2136 -0.5922
-39 -19 -2 -0.1284 -0.5232
-39 -18 -25 -11.4329 0.1912
-39 -18 -23 -2.7594 11.8091
-39 -18 -21 -6.7011 1.3201
-39 -18 -19 12.3035 6.6191
-39 -18 -17 9.6129 14.2150
-39 -18 -15 9.7170 -10.3695
-39 -18 -13 0.0045 8.0195
-39 -18 -11 10.6195 -4.3940
-39 -18 -9 7.8131 4.9521
-39 -18 -7 -7.6205 -9.3817
-39 -18 -5 -23.3310 -3.6328
-39 -18 -3 -10.7293 16.7192
-39 -18 -1 1.1828 6.6830
-39 -17 -24 8.7162 -8.0987
-39 -17 -22 10.7491 -4.0421
-39 -17 -20 -28.4162 9.2160
-39 -17 -18 1.1634 -12.6463
-39 -17 -16 -6.4826 6.8328
-39 -17 -14 -0.2013 3.9209
-39 -17 -12 -17.0399 -3.4973
-39 -17 -10 4.0971 -30.6589
-39 -17 -8 0.7180 -9.3247
-39 -17 -6 -3.9702 -18.6531
-39 -17 -4 5.0520 -1.5767
-39 -17 -2 0.5747 5.1457
-39 -16 -25 -15.3961 0.1642
-39 -16 -23 4.0420 -7.5335
-39 -16 -21 19.2490 -9.6900
-39 -16 -19 11.9454 -0.0602
-39 -16 -17 3.9629 20.2196
-39 -16 -15 14.2187 2.1672
-39 -16 -13 12.7707 2.6894
-39 -16 -11 7.4327 -2.6421
-39 -16 -9 -2.1191 -8.1839
-39 -16 -7 6.7362 27.0184
-39 -16 -5 4.7764 3.2548
-39 -16 -3 -2.5145 -20.8174
-39 -16 -1 15.6633 15.0398
-39 -15 -26 -21.6995 3.4980
-39 -15 -24 -2.1820 -2.2387
-39 -15 -22 5.1259 10.9196
-39 -15 -20 1.4240 13.1768
-39 -15 -18 8.8626 -9.0841
-39 -15 -16 -3.8628 -9.9028
-39 -15 -14 2.9294 -21.6610
-39 -15 -12 -4.5785 0.1945
-39 -15 -10 14.4245 -3.6105
-39 -15 -8 9.2599 19.0605
-39 -15 -6 19.2224 -3.5357
-39 -15 -4 6.8588 7.4088
-39 -15 -2 -7.5827 -12.7910
-39 -14 -27 0.2669 -15.4929
-39 -14 -25 -3.1265 -3.8019
-39 -14 -23 10.6643 2.0982
-39 -14 -21 -2.0705 -26.5186
-39 -14 -19 5.6333 12.7657
-39 -14 -17 16.1506 -7.2294
-39 -14 -15 1.7536 -7.5823
-39 -14 -13 -9.0048 -0.8536
-39 -14 -11 -1.6834 -13.4832
-39 -14 -9 -4.4466 0.3386
-39 -14 -7 -5.6644 21.0943
-39 -14 -5 -4.4124 4.2372
-39 -14 -3 -21.6192 -11.0768
-39 -14 -1 11.1004 12.4115
-39 -13 -26 -1.0335 14.9946
-39 -13 -24 11.8325 3.1228
-39 -13 -22 -2.7803 -16.5222
-39 -13 -20 18.6971 5.3077
-39 -13 -18 -9.0147 -1.6299
-39 -13 -16 -16.1214 -5.3359
-39 -13 -14 0.1824 10.8064
-39 -13 -12 -13.1213 6.9275
-39 -13 -10 -5.9652 -2.1607
-39 -13 -8 -5.9435 2.6247
-39 -13 -6 -1.3322 12.5997
-39 -13 -4 4.9696 -5.1036
-39 -13 -2 -4.7635 -26.5473
-39 -12 -27 -13.7000 12.4662
-39 -12 -25 14.2590 22.0564
-39 -12 -23 8.5139 4.2243
-39 -12 -21 -7.5683 -0.1083
-39 -12 -19 14.2799 6.8153
-39 -12 -17 -7.9915 -11.2786
-39 -12 -15 6.1547 10.9516
-39 -12 -13 -3.6214 -13.6716
-39 -12 -11 -19.5382 8.4511
-39 -12 -9 9.8529 -0.0806
-39 -12 -7 -11.9414 -7.9135
-39 -12 -5 11.7402 -19.9219
-39 -12 -3 9.9942 -16.6708
-39 -12 -1 -19.0888 -16.2043
-39 -11 -28 1.5328 24.8351
-39 -11 -26 -24.8567 6.5755
-39 -11 -24 13.1096 -7.6668
-39 -11 -22 3.2409 -1.7605
-39 -11 -20 12.1770 -9.5074
-39 -11 -18 2.5581 -8.1952
-39 -11 -16 17.5976 -15.8881
-39 -11 -14 1.8956 -0.1865
-39 -11 -12 -8.9864 19.1999
-39 -11 -10 -5.1913 0.3353
-39 -11 -8 21.8422 -6.8170
-39 -11 -6 -5.3215 -8.1435
-39 -11 -4 -13.7139 -33.1802
-39 -11 -2 -7.7266 5.8102
-39 -10 -27 8.6374 1.3490
-39 -10 -25 12.4449 -4.9223
-39 -10 -23 2.4145 17.4828
-39 -10 -21 -8.5380 -4.4127
-39 -10 -19 8.9478 9.3362
-39 -10 -17 11.2461 -15.8006
-39 -10 -15 20.7586 -26.2547
-39 -10 -13 -1.3622 9.9222
-39 -10 -11 -24.0677 -14.2420
-39 -10 -9 11.2929 -7.5661
-39 -10 -7 6.0322 -35.9336
-39 -10 -5 0.6581 -9.1243
-39 -10 -3 -22.1279 8.4308
-39 -10 -1 -15.9904 14.8728
-39 -9 -28 9.2505 -8.2355
-39 -9 -26 3.0169 -5.5148
-39 -9 -24 22.4129 4.5398
-39 -9 -22 1.7366 6.1951
-39 -9 -20 -9.9972 18.4092
-39 -9 -18 -3.0478 13.3033
-39 -9 -16 -0.2289 0.8905
-39 -9 -14 7.0832 -7.1595
-39 -9 -12 -26.5363 3.5472
-39 -9 -10 8.8716 6.8032
-39 -9 -8 18.7885 -16.3124
-39 -9 -6 10.0448 16.4563
-39 -9 -4 0.4748 -32.7941
-39 -9 -2 -3.5955 -7.1400
-39 -8 -29 5.1398 -6.6720
-39 -8 -27 -0.1286 -2.2842
-39 -8 -25 -1.5529 0.3495
-39 -8 -23 8.0218 -4.9662
-39 -8 -21 -2.7904 -2.7042
-39 -8 -19 4.6392 -1.0292
-39 -8 -17 8.0407 4.8884
-39 -8 -15 2.5265 2.1777
-39 -8 -13 -15.1867 12.5139
-39 -8 -11 0.8039 -5.6034
-39 -8 -9 2.8619 -2.4377
-39 -8 -7 10.2538 6.0948
-39 -8 -5 0.6264 -6.5440
-39 -8 -3 7.2535 -23.7583
-39 -8 -1 9.8868 -1.3746
-39 -7 -28 -16.3818 2.9615
-39 -7 -26 -4.1002 8.0825
-39 -7 -24 -1.3034 -1.1290
-39 -7 -22 0.3681 -3.7439
-39 -7 -20 -9.9303 -19.9241
-39 -7 -18 -7.7652 -9.2101
-39 -7 -16 26.3103 2.5926
-39 -7 -14 -2.7817 -5.9665
-39 -7 -12 -1.9684 -15.2436
-39 -7 -10 -2.6233 2.5131
-39 -7 -8 -0.1270 3.7691
-39 -7 -6 -4.7723 -4.1422
-39 -7 -4 15.0507 2.0433
-39 -7 -2 -3.6331 20.6948
-39 -6 -29 -5.5352 -7.6488
-39 -6 -27 0.6501 0.1902
-39 -6 -25 -2.3249 -2.4633
-39 -6 -23 10.8447 19.3963
-39 -6 -21 -3.6750 -4.3208
-39 -6 -19 -0.0634 -3.7882
-39 -6 -17 -6.1368 2.8894
-39 -6 -15 -4.7450 7.0733
-39 -6 -13 -1.3670 -0.8285
-39 -6 -11 -16.2954 -5.2282
-39 -6 -9 0.8604 -5.8446
-39 -6 -7 6.6853 9.3833
-39 -6 -5 9.8982 16.5859
-39 -6 -3 3.4572 -15.8005
-39 -6 -1 7.0913 6.3966
-39 -5 -28 -6.0978 -18.4191
-39 -5 -26 12.5958 -1.1229
-39 -5 -24 -4.2856 6.5402
-39 -5 -22 -0.0323 -7.9623
-39 -5 -20 -7.8207 3.2792
-39 -5 -18 -4.3200 2.9451
-39 -5 -16 -6.2379 21.6770
-39 -5 -14 -1.0359 -10.4546
-39 -5 -12 3.5793 -6.1076
-39 -5 -10 -0.2081 6.3272
-39 -5 -8 5.0942 4.0672
-39 -5 -6 -1.5005 0.7959
-39 -5 -4 -7.1214 27.6213
-39 -5 -2 -1.3278 22.9226
-39 -4 -29 -4.2407 -1.6685
-39 -4 -27 3.4668 2.9882
-39 -4 -25 13.6963 14.8607
-39 -4 -23 -0.8449 6.8367
-39 -4 -21 -2.9844 -4.5336
-39 -4 -19 10.8450 -4.4288
-39 -4 -17 -6.1036 0.1468
-39 -4 -15 4.5083 -10.8483
-39 -4 -13 12.4203 10.8464
-39 -4 -11 -13.2596 4.4045
-39 -4 -9 27.4370 16.4576
-39 -4 -7 17.6066 -4.2245
-39 -4 -5 0.7843 -5.2034
-39 -4 -3 -15.0646 -1.3716
-39 -4 -1 16.4169 -16.6884
-39 -3 -28 -6.3099 -13.5527
-39 -3 -26 -13.1447 -26.2715
-39 -3 -24 -2.9330 3.5264
-39 -3 -22 -6.3517 -4.2765
-39 -3 -20 6.4193 18.1434
-39 -3 -18 6.9252 11.5125
-39 -3 -16 15.3819 -1.9181
-39 -3 -14 0.0001 -0.4095
-39 -3 -12 -1.5269 -0.4492
-39 -3 -10 13.5151 2.7339
-39 -3 -8 5.4206 -22.8180
-39 -3 -6 -8.5097 2.2889
-39 -3 -4 -10.1487 -14.0376
-39 -3 -2 -2.8902 -2.6661
-39 -2 -29 -9.1825 6.8933
-39 -2 -27 9.3721 0.0583
-39 -2 -25 1.6367 2.5969
-39 -2 -23 1.8294 7.0276
-39 -2 -21 2.3912 -2.8493
-39 -2 -19 -19.6529 2.4544
-39 -2 -17 11.6422 10.2210
-39 -2 -15 6.5458 4.1829
-39 -2 -13 17.6491 13.6748
-39 -2 -11 -26.0443 23.2667
-39 -2 -9 -22.8963 -19.7129
-39 -2 -7 -16.8572 8.7601
-39 -2 -5 -13.8556 -20.8064
-39 -2 -3 14.3763 -4.1141
-39 -2 -1 -5.6835 30.4135
-39 -1 -30 5.1501 -1.4498
-39 -1 -28 -12.8630 7.9320
-39 -1 -26 -0.9684 9.1953
-39 -1 -24 0.7606 6.4380
-39 -1 -22 -16.1787 -11.9978
-39 -1 -20 4.1329 -25.6012
-39 -1 -18 9.1873 -15.1212
-39 -1 -16 7.7897 21.2402
-39 -1 -14 6.2762 10.9213
-39 -1 -12 -3.7259 8.8985
-39 -1 -10 -15.0469 5.0962
-39 -1 -8 53.4651 -10.7180
-39 -1 -6 35.0066 0.1509
-39 -1 -4 -60.5559 83.2350
-39 -1 -2 -18.3846 14.9690
-38 -34 -6 -4.1719 -11.3893
-38 -34 -4 11.3267 5.4396
-38 -34 -2 8.6131 15.7490
-38 -33 -9 -0.9904 0.7131
-38 -33 -7 -3.1621 0.7044
-38 -33 -5 1.2153 -5.6339
-38 -33 -3 0.9352 -8.9311
-38 -33 -1 -5.6808 13.6465
-38 -32 -12 -18.4559 6.7996
-38 -32 -10 7.7383 6.7321
-38 -32 -8 0.2341 12.8257
-38 -32 -6 -10.4843 -9.5774
-38 -32 -4 6.0280 -5.2652
-38 -32 -2 14.7719 -6.4620
-38 -31 -13 -0.6966 -5.2160
-38 -31 -11 11.7834 3.3082
-38 -31 -9 4.8638 -3.0121
-38 -31 -7 -7.3613 -6.0199
-38 -31 -5 -6.9168 10.3272
-38 -31 -3 10.3965 8.3741
-38 -31 -1 4.7273 -2.9535
-38 -30 -14 -2.0085 7.6090
-38 -30 -12 3.1783 9.2853
-38 -30 -10 3.4144 -22.6207
-38 -30 -8 16.6174 8.0212
-38 -30 -6 -0.3455 7.3092
-38 -30 -4 -7.9642 -7.0960
-38 -30 -2 5.8427 18.2298
-38 -29 -17 -7.2753 0.0999
-38 -29 -15 3.3465 8.6275
-38 -29 -13 5.1708 12.8507
-38 -29 -11 -6.4368 -3.4373
-38 -29 -9 2.0713 -3.4872
-38 -29 -7 8.3254 9.2466
-38 -29 -5 -3.2939 -19.5914
-38 -29 -3 -7.2874 -10.4171
-38 -29 -1 -8.9704 -7.9028
-38 -28 -18 15.4918 -0.4120
-38 -28 -16 23.7666 8.1035
-38 -28 -14 -4.0273 11.5277
-38 -28 -12 7.9669 17.6413
-38 -28 -10 2.7207 2.2649
-38 -28 -8 -14.5921 0.2058
-38 -28 -6 5.7319 -9.5461
-38 -28 -4 -12.0862 -20.9267
-38 -28 -2 -7.6555 -6.8488
-38 -27 -19 -7.5462 20.9906
-38 -27 -17 -10.2988 -31.0562
-38 -27 -15 7.3203 -6.2207
-38 -27 -13 12.1925 26.4689
-38 -27 -11 25.4753 8.9189
-38 -27 -9 -1.8770 0.7889
-38 -27 -7 -3.3342 4.4137
-38 -27 -5 5.4007 4.8729
-38 -27 -3 -5.5689 -3.6574
-38 -27 -1 16.6069 -3.0234
-38 -26 -20 9.2013 19.2511
-38 -26 -18 -7.0611 -10.2702
-38 -26 -16 11.2851 -11.3394
-38 -26 -14 -9.9018 3.8613
-38 -26 -12 -14.2171 -6.9675
-38 -26 -10 7.9977 24.9727
-38 -26 -8 14.2854 -12.9621
-38 -26 -6 11.9617 27.9601
-38 -26 -4 -3.0942 -14.8720
-38 -26 -2 9.8525 9.2504
-38 -25 -21 -1.6430 -2.9835
-38 -25 -19 8.0078 -7.3388
-38 -25 -17 16.8837 9.7598
-38 -25 -15 -4.2453 -16.2336
-38 -25 -13 17.0823 -16.7104
-38 -25 -11 -11.9790 5.1501
-38 -25 -9 1.6471 -1.8623
-38 -25 -7 4.5260 5.0931
-38 -25 -5 -2.5361 0.1436
-38 -25 -3 16.1763 3.7524
-38 -25 -1 17.1787 7.3660
-38 -24 -22 0.4123 0.0919
-38 -24 -20 10.5407 0.8646
-38 -24 -18 -0.2385 1.9191
-38 -24 -16 -8.7173 -0.8249
-38 -24 -14 6.6510 -9.4618
-38 -24 -12 10.7121 6.4286
-38 -24 -10 1.9048 -5.1145
-38 -24 -8 3.7012 1.6636
-38 -24 -6 2.8890 4.9197
-38 -24 -4 8.3136 2.8209
-38 -24 -2 11.2033 -1.3695
-38 -23 -23 -6.8937 16.6560
-38 -23 -21 -5.9002 -5.5924
-38 -23 -19 -14.6330 5.0144
-38 -23 -17 3.8599 11.4374
-38 -23 -15 7.6657 2.1017
-38 -23 -13 5.3761 -5.2093
-38 -23 -11 17.3305 -17.4095
-38 -23 -9 -12.9178 -3.3082
-38 -23 -7 -8.4198 -0.7352
-38 -23 -5 -6.3277 5.3673
-38 -23 -3 3.8134 -3.3940
-38 -23 -1 5.3012 20.2111
-38 -22 -24 -1.4617 3.7391
-38 -22 -22 29.0565 8.5472
-38 -22 -20 0.6130 -8.6696
-38 -22 -18 -1.1246 1.0122
-38 -22 -16 -1.1843 6.1528
-38 -22 -14 22.1631 -18.4857
-38 -22 -12 11.0364 1.2393
-38 -22 -10 -1.1643 -0.5510
-38 -22 -8 3.8066 -0.7874
-38 -22 -6 -0.3603 14.3122
-38 -22 -4 -8.8260 11.2519
-38 -22 -2 -3.6828 -17.1881
-38 -21 -23 -9.0178 -21.2255
-38 -21 -21 4.6610 -3.6440
-38 -21 -19 6.8754 -2.9785
-38 -21 -17 -7.5281 -1.5928
-38 -21 -15 7.1500 5.1435
-38 -21 -13 14.8696 -11.9212
-38 -21 -11 9.0929 4.6960
-38 -21 -9 1.2564 9.2780
-38 -21 -7 -1.1003 -0.6362
-38 -21 -5 0.3835 2.2512
-38 -21 -3 -20.1245 -8.6011
-38 -21 -1 -16.6935 17.9130
-38 -20 -24 -9.2580 1.0734
-38 -20 -22 -16.7705 14.4032
-38 -20 -20 -0.7066 -3.4875
-38 -20 -18 -10.2972 8.6003
-38 -20 -16 5.1006 8.2288
-38 -20 -14 -13.3057 -2.8686
-38 -20 -12 6.0871 -3.0895
-38 -20 -10 5.7186 -4.9947
-38 -20 -8 5.9120 -6.6181
-38 -20 -6 -4.1440 -14.2654
-38 -20 -4 1.6861 -21.3483
-38 -20 -2 -5.7746 1.1535
-38 -19 -25 -3.9019 -3.5750
-38 -19 -23 -3.3687 14.7923
-38 -19 -21 14.0009 -8.7131
-38 -19 -19 -16.9365 11.6833
-38 -19 -17 -14.5923 0.5375
-38 -19 -15 8.0180 -6.7614
-38 -19 -13 8.0671 7.9116
-38 -19 -11 6.2214 -7.0408
-38 -19 -9 -4.3203 4.9921
-38 -19 -7 -5.4806 -9.7573
-38 -19 -5 1.9363 -2.6447
-38 -19 -3 11.3508 11.6886
-38 -19 -1 -8.1058 -11.8663
-38 -18 -26 -15.6935 5.0206
-38 -18 -24 -0.2613 7.9646
-38 -18 -22 9.6941 -6.5287
-38 -18 -20 -13.8804 -13.7159
-38 -18 -18 10.6203 9.4971
-38 -18 -16 -7.4092 -10.9850
-38 -18 -14 13.0197 -20.3849
-38 -18 -12 0.3433 21.9975
-38 -18 -10 -12.5981 -0.4628
-38 -18 -8 4.3201 -2.4520
-38 -18 -6 -32.2284 -11.4758
-38 -18 -4 8.3013 -10.6591
-38 -18 -2 -2.6205 1.2105
-38 -17 -27 -10.3734 -9.0162
-38 -17 -25 12.2250 9.1468
-38 -17 -23 -26.9719 9.1454
-38 -17 -21 7.0796 -6.6449
-38 -17 -19 18.7222 10.3860
-38 -17 -17 12.6824 -8.1491
-38 -17 -15 8.4506 1.9893
-38 -17 -13 5.7875 1.6999
-38 -17 -11 -1.0739 8.0471
-38 -17 -9 11.2132 6.0519
-38 -17 -7 -7.4821 -13.8147
-38 -17 -5 2.0807 -26.7076
-38 -17 -3 -4.5110 -3.3190
-38 -17 -1 -2.4575 30.9493
-38 -16 -26 -14.6145 -4.3845
-38 -16 -24 -4.7206 -15.7226
-38 -16 -22 -6.6123 -15.7486
-38 -16 -20 15.7600 -16.2239
-38 -16 -18 -10.0612 5.4179
-38 -16 -16 -6.6464 10.8037
-38 -16 -14 -3.2728 5.9859
-38 -16 -12 -12.6059 -7.1341
-38 -16 -10 18.0402 3.4792
-38 -16 -8 -3.4027 -13.0317
-38 -16 -6 -12.1836 2.9786
-38 -16 -4 -2.8777 -12.6349
-38 -16 -2 -30.9993 1.1237
-38 -15 -27 1.4966 0.3357
-38 -15 -25 13.8135 -6.5284
-38 -15 -23 13.4181 13.6121
-38 -15 -21 -17.7045 -4.0332
-38 -15 -19 8.9284 -12.5671
-38 -15 -17 -4.2652 0.9214
-38 -15 -15 10.1578 12.5886
-38 -15 -13 7.0848 30.4768
-38 -15 -11 -4.3548 3.3999
-38 -15 -9 19.9978 4.8279
-38 -15 -7 -13.0627 3.1038
-38 -15 -5 12.2241 8.7101
-38 -15 -3 -13.1359 0.4677
-38 -15 -1 18.3021 7.8879
-38 -14 -28 -20.3060 -11.6667
-38 -14 -26 -16.8126 10.2724
-38 -14 -24 -3.3339 17.8844
-38 -14 -22 -2.9659 -11.9770
-38 -14 -20 14.5036 7.4017
-38 -14 -18 18.2905 -8.8144
-38 -14 -16 -1.0037 -22.4022
-38 -14 -14 -4.5077 3.4553
-38 -14 -12 -12.3561 -1.2898
-38 -14 -10 -12.1832 24.6163
-38 -14 -8 3.1052 3.1533
-38 -14 -6 -6.4215 7.9851
-38 -14 -4 -16.9055 -8.9739
-38 -14 -2 -4.8643 -10.1036
-38 -13 -27 10.0034 2.1544
-38 -13 -25 8.0199 -4.5459
-38 -13 -23 -17.5036 11.1915
-38 -13 -21 8.9911 4.0815
-38 -13 -19 7.3781 16.3009
-38 -13 -17 -2.5280 -12.2597
-38 -13 -15 6.0253 19.8943
-38 -13 -13 -33.7272 5.5536
-38 -13 -11 3.6858 -7.3445
-38 -13 -9 14.0472 -9.1353
-38 -13 -7 -3.5290 -11.1421
-38 -13 -5 26.5916 -7.4598
-38 -13 -3 3.0833 3.1112
-38 -13 -1 -2.9511 4.7826
-38 -12 -28 -22.4329 1.1653
-38 -12 -26 11.4137 -8.5990
-38 -12 -24 -9.2539 11.5353
-38 -12 -22 -16.3650 9.0693
-38 -12 -20 6.2679 -4.7834
-38 -12 -18 11.9502 -22.2378
-38 -12 -16 -1.2668 -1.0298
-38 -12 -14 17.2604 -13.6444
-38 -12 -12 8.9308 -21.6036
-38 -12 -10 -33.0691 -4.8521
-38 -12 -8 -5.2846 -2.8281
-38 -12 -6 7.2345 -28.9030
-38 -12 -4 7.2314 23.1007
-38 -12 -2 13.4997 -8.8006
-38 -11 -29 -2.7658 5.1042
-38 -11 -27 12.9621 -2.8916
-38 -11 -25 -4.0549 -3.6852
-38 -11 -23 4.6651 1.2135
-38 -11 -21 -4.0029 -15.6694
-38 -11 -19 -10.0854 -10.3532
-38 -11 -17 15.1019 22.2160
-38 -11 -15 6.2471 -11.1182
-38 -11 -13 6.0104 -27.7581
-38 -11 -11 -6.2354 0.5059
-38 -11 -9 20.6121 23.5541
-38 -11 -7 -5.0614 -12.8263
-38 -11 -5 19.9458 15.7067
-38 -11 -3 6.0378 -21.4057
-38 -11 -1 3.0702 -8.7677
-38 -10 -28 -12.6260 1.2545
-38 -10 -26 8.4212 -2.8442
-38 -10 -24 -5.2418 5.8600
-38 -10 -22 3.6519 -2.3169
-38 -10 -20 -0.6706 -13.1606
-38 -10 -18 11.6132 -17.3086
-38 -10 -16 -1.9830 13.4405
-38 -10 -14 -0.9463 -7.1405
-38 -10 -12 5.6686 -11.4295
-38 -10 -10 -26.6616 -12.7111
-38 -10 -8 1.0756 27.1389
-38 -10 -6 34.2356 -45.7362
-38 -10 -4 -10.3622 6.6984
-38 -10 -2 15.7706 -41.6955
-38 -9 -29 -2.1287 -2.3738
-38 -9 -27 -2.9030 -16.2341
-38 -9 -25 9.5583 1.8322
-38 -9 -23 -0.0579 2.6392
-38 -9 -21 -10.9403 -6.9227
-38 -9 -19 -4.8116 -6.4837
-38 -9 -17 26.8335 11.9176
-38 -9 -15 15.0363 -10.8215
-38 -9 -13 13.9959 -14.7275
-38 -9 -11 -14.5947 8.0972
-38 -9 -9 -4.4199 -39.5249
-38 -9 -7 -6.4976 4.1858
-38 -9 -5 -5.0119 -19.3977
-38 -9 -3 -1.5913 4.4401
-38 -9 -1 17.9509 -2.9388
-38 -8 -30 -2.7330 -15.2340
-38 -8 -28 -0.7886 12.2948
-38 -8 -26 4.4996 -4.2937
-38 -8 -24 11.1957 -7.0236
-38 -8 -22 2.9779 -3.7091
-38 -8 -20 -0.0280 1.9655
-38 -8 -18 3.5670 -1.3763
-38 -8 -16 3.7476 18.6127
-38 -8 -14 0.5811 -10.2304
-38 -8 -12 -7.6374 -5.8697
-38 -8 -10 -7.3075 1.6541
-38 -8 -8 -2.0844 0.7906
-38 -8 -6 7.2389 10.7669
-38 -8 -4 -12.5779 -7.7598
-38 -8 -2 7.8168 4.7603
-38 -7 -29 -1.5991 2.2151
-38 -7 -27 1.4500 0.5366
-38 -7 -25 -1.3392 -0.4548
-38 -7 -23 -24.8772 -13.6809
-38 -7 -21 4.2024 2.7339
-38 -7 -19 -5.0718 -5.4670
-38 -7 -17 14.0983 -16.6628
-38 -7 -15 6.6002 1.1378
-38 -7 -13 19.8597 -1.6177
-38 -7 -11 16.1255 24.6752
-38 -7 -9 -4.2941 -16.3366
-38 -7 -7 -18.0631 6.4124
-38 -7 -5 -8.8752 -8.0109
-38 -7 -3 -17.0683 11.3062
-38 -7 -1 -0.0467 7.0764
-38 -6 -30 1.8598 -4.2531
-38 -6 -28 4.4336 0.0404
-38 -6 -26 5.2560 -7.3773
-38 -6 -24 -8.4272 -10.0487
-38 -6 -22 -12.8833 -8.0809
-38 -6 -20 2.3675 10.0518
-38 -6 -18 12.2386 -8.5589
-38 -6 -16 5.2528 -2.3000
-38 -6 -14 -4.2286 7.3485
-38 -6 -12 -12.0914 -0.3825
-38 -6 -10 -14.0178 3.1712
-38 -6 -8 -16.1270 -10.2142
-38 -6 -6 -1.6534 -5.1635
-38 -6 -4 -6.5136 -2.8018
-38 -6 -2 -5.3876 -14.5308
-38 -5 -29 1.9965 20.2120
-38 -5 -27 -14.2498 -12.5260
-38 -5 -25 0.2959 -1.2710
-38 -5 -23 9.7020 0.4738
-38 -5 -21 -16.5413 -5.2138
-38 -5 -19 2.4978 9.4961
-38 -5 -17 3.6581 -14.5431
-38 -5 -15 -2.8500 13.1942
-38 -5 -13 7.6058 -8.0285
-38 -5 -11 -13.0265 3.9175
-38 -5 -9 -7.5092 9.9818
-38 -5 -7 -0.7576 -16.7857
-38 -5 -5 -0.7925 5.6946
-38 -5 -3 -6.6114 25.2831
-38 -5 -1 4.9032 -10.8268
-38 -4 -30 2.8793 -0.6666
-38 -4 -28 6.5650 -2.0525
-38 -4 -26 -20.4106 5.2287
-38 -4 -24 -14.4515 -7.3070
-38 -4 -22 -15.8335 2.0499
-38 -4 -20 4.6480 8.6339
-38 -4 -18 10.5821 -15.0095
-38 -4 -16 0.5452 -8.0021
-38 -4 -14 -1.3786 8.8241
-38 -4 -12 -2.9430 7.9010
-38 -4 -10 7.9267 13.4983
-38 -4 -8 8.5285 -0.9576
-38 -4 -6 15.6680 7.4389
-38 -4 -4 21.2632 7.3969
-38 -4 -2 -15.6912 -26.5895
-38 -3 -29 -4.6890 12.5653
-38 -3 -27 8.7667 0.9975
-38 -3 -25 10.8296 -12.9213
-38 -3 -23 -13.1007 4.1249
-38 -3 -21 -0.0558 15.9044
-38 -3 -19 0.7833 2.1023
-38 -3 -17 0.3574 -6.1393
-38 -3 -15 -2.7796 -10.6340
-38 -3 -13 -7.1857 -2.4016
-38 -3 -11 4.9015 39.6135
-38 -3 -9 -9.5959 -8.0476
-38 -3 -7 0.8358 44.8174
-38 -3 -5 -15.4936 23.9643
-38 -3 -3 15.8846 -3.1410
-38 -3 -1 2.5196 12.1091
-38 -2 -30 -4.3833 -1.7537
-38 -2 -28 3.1591 -0.1086
-38 -2 -26 16.4968 17.3623
-38 -2 -24 -10.9519 -10.6406
-38 -2 -22 -25.1257 10.6451
-38 -2 -20 2.3283 -13.9993
-38 -2 -18 22.0997 -11.4439
-38 -2 -16 -1.9154 -6.2584
-38 -2 -14 -12.0236 13.2867
-38 -2 -12 -2.5277 15.3144
-38 -2 -10 5.4141 -15.2978
-38 -2 -8 -5.8032 7.5318
-38 -2 -6 -11.8613 59.8682
-38 -2 -4 19.2932 -16.5981
-38 -2 -2 50.6487 -56.8442
-38 -1 -31 0.9245 20.5658
-38 -1 -29 -9.6620 12.3689
-38 -1 -27 -7.2466 17.9654
-38 -1 -25 -8.0286 -14.8488
-38 -1 -23 -0.5694 -1.7578
-38 -1 -21 7.1196 1.8946
-38 -1 -19 -1.2950 1.0724
-38 -1 -17 8.7125 2.8138
-38 -1 -15 -7.7118 -9.2390
-38 -1 -13 -5.1082 1.0390
-38 -1 -11 8.1239 -8.2399
-38 -1 -9 -15.1380 -37.4024
-38 -1 -7 -18.2840 53.5109
-38 -1 -5 -28.6526 60.8265
-38 -1 -3 -0.1865 13.6219
-38 -1 -1 7.0929 38.0144
-37 -35 -6 -8.7410 4.3448
-37 -35 -4 -17.8628 -17.1707
-37 -35 -2 -9.3399 -6.0064
-37 -34 -9 8.6668 0.7116
-37 -34 -7 2.5920 -17.1032
-37 -34 -5 7.4294 -12.2944
-37 -34 -3 -0.5679 1.7312
-37 -34 -1 9.0246 8.0920
-37 -33 -12 -10.6987 3.9011
-37 -33 -10 -6.8300 3.6016
-37 -33 -8 -10.2778 -1.3435
-37 -33 -6 -6.2657 9.8661
-37 -33 -4 8.2748 -8.1603
-37 -33 -2 8.8816 -22.9878
-37 -32 -13 8.1065 -7.4159
-37 -32 -11 -7.3688 -7.2158
-37 -32 -9 8.9970 8.0197
-37 -32 -7 5.4595 7.0655
-37 -32 -5 -5.9731 12.0403
-37 -32 -3 -5.8356 7.0244
-37 -32 -1 -0.6884 6.3814
-37 -31 -16 0.1574 19.7295
-37 -31 -14 -6.1035 -0.8567
-37 -31 -12 14.7459 15.7698
-37 -31 -10 -2.2823 -4.4992
-37 -31 -8 -9.5760 -2.5423
-37 -31 -6 -3.4726 2.7917
-37 -31 -4 4.9487 -8.2976
-37 -31 -2 9.7828 -4.2786
-37 -30 -17 10.9740 -3.3838
-37 -30 -15 1.0982 -0.3605
-37 -30 -13 10.3878 8.5563
-37 -30 -11 8.7303 14.0662
-37 -30 -9 -3.4909 -0.9951
-37 -30 -7 9.4298 19.1670
-37 -30 -5 -10.6069 -15.7091
-37 -30 -3 -0.2031 9.7197
-37 -30 -1 -4.1474 8.3638
-37 -29 -18 5.3188 -1.0696
-37 -29 -16 0.8463 30.9088
-37 -29 -14 -13.8634 9.9241
-37 -29 -12 16.2089 -11.3059
-37 -29 -10 1.0552 -1.8890
-37 -29 -8 8.8999 -3.8510
-37 -29 -6 3.1731 -4.8008
-37 -29 -4 -14.5758 -8.6762
-37 -29 -2 6.2929 1.0285
-37 -28 -19 -13.6999 -17.3814
-37 -28 -17 -9.0784 1.9152
-37 -28 -15 -9.4857 20.0464
-37 -28 -13 11.7222 -1.7999
-37 -28 -11 1.1258 -7.3790
-37 -28 -9 7.6438 5.2791
-37 -28 -7 1.6400 2.5673
-37 -28 -5 7.6892 -8.4437
-37 -28 -3 -4.9708 -22.9654
-37 -28 -1 -4.4677 3.7210
-37 -27 -20 -2.1444 4.2298
-37 -27 -18 -0.3320 15.6515
-37 -27 -16 8.6385 -12.0035
-37 -27 -14 -0.8301 12.0023
-37 -27 -12 -0.4667 6.6219
-37 -27 -10 -3.5031 9.6919
-37 -27 -8 20.1708 -22.1270
-37 -27 -6 1.0437 2.5499
-37 -27 -4 13.3467 -18.4446
-37 -27 -2 -15.2369 -0.9447
-37 -26 -21 15.3737 -9.0537
-37 -26 -19 -7.3310 13.3596
-37 -26 -17 -10.3299 -16.3260
-37 -26 -15 2.4061 -4.6351
-37 -26 -13 7.5610 1.6209
-37 -26 -11 -3.9242 0.0059
-37 -26 -9 9.3233 2.5315
-37 -26 -7 -4.8967 -3.9753
-37 -26 -5 -16.2633 -7.6264
-37 -26 -3 4.0013 -5.1910
-37 -26 -1 -0.9414 1.8479
-37 -25 -22 8.4304 -6.5736
-37 -25 -20 -12.4617 -16.1660
-37 -25 -18 5.0378 8.0729
-37 -25 -16 1.9067 -19.0163
-37 -25 -14 8.4064 -0.5288
-37 -25 -12 -12.2168 -15.7769
-37 -25 -10 -3.2299 -13.8724
-37 -25 -8 -13.2003 -9.8938
-37 -25 -6 -13.1528 8.6413
-37 -25 -4 2.6092 -0.2669
-37 -25 -2 -0.2907 -1.3290
-37 -24 -23 8.8019 -1.4360
-37 -24 -21 5.5312 -15.4037
-37 -24 -19 2.2403 5.5759
-37 -24 -17 10.7633 1.0379
-37 -24 -15 8.3006 17.0440
-37 -24 -13 13.4518 3.5922
-37 -24 -11 13.6594 5.9248
-37 -24 -9 7.2926 6.0940
-37 -24 -7 -4.8881 -7.9870
-37 -24 -5 16.2168 14.8400
-37 -24 -3 -6.9312 -2.0557
-37 -24 -1 2.9388 -14.1835
-37 -23 -24 8.9795 4.0897
-37 -23 -22 -17.6708 2.1588
-37 -23 -20 0.6310 -16.7803
-37 -23 -18 5.2331 13.2050
-37 -23 -16 -7.8564 -7.0239
-37 -23 -14 4.5000 1.8239
-37 -23 -12 1.7763 -5.6104
-37 -23 -10 -4.8122 9.4528
-37 -23 -8 3.6884 16.8187
-37 -23 -6 6.7750 -16.4414
-37 -23 -4 10.2124 3.0671
-37 -23 -2 -13.9491 16.7432
-37 -22 -25 -8.3200 -7.5113
-37 -22 -23 13.6696 -14.3191
-37 -22 -21 -4.1030 2.2472
-37 -22 -19 -12.1869 -1.1123
-37 -22 -17 -11.3507 -3.8843
-37 -22 -15 -15.5626 -1.6123
-37 -22 -13 0.9943 -13.4832
-37 -22 -11 3.6142 1.1479
-37 -22 -9 -5.0540 1.8524
-37 -22 -7 18.2048 5.6886
-37 -22 -5 -3.2093 0.7232
-37 -22 -3 -6.2373 -6.4128
-37 -22 -1 -8.9782 6.7762
-37 -21 -24 -8.8051 5.3803
-37 -21 -22 0.2898 -1.4730
-37 -21 -20 6.5696 -4.5285
-37 -21 -18 -0.4276 -15.0828
-37 -21 -16 4.1236 -3.6621
-37 -21 -14 1.4776 -22.4560
-37 -21 -12 4.0931 -0.9273
-37 -21 -10 -21.4491 7.4786
-37 -21 -8 2.0048 2.6764
-37 -21 -6 -11.3702 13.8593
-37 -21 -4 -3.6998 -0.9230
-37 -21 -2 -10.1986 -4.0194
-37 -20 -25 26.2375 16.1263
-37 -20 -23 15.7224 -1.8305
-37 -20 -21 -12.5794 -5.9739
-37 -20 -19 -21.5334 -0.2026
-37 -20 -17 8.8085 -6.6631
-37 -20 -15 9.0106 -5.2210
-37 -20 -13 -10.8584 -2.8095
-37 -20 -11 -1.7259 1.7839
-37 -20 -9 -0.1034 -8.9181
-37 -20 -7 3.4354 -11.0893
-37 -20 -5 -11.4233 -14.5135
-37 -20 -3 -5.7245 1.8544
-37 -20 -1 14.4840 1.4240
-37 -19 -26 -17.3411 0.8297
-37 -19 -24 -5.3228 9.6189
-37 -19 -22 11.2143 -6.3529
-37 -19 -20 4.0731 -1.9810
-37 -19 -18 9.1985 16.1016
-37 -19 -16 -6.1902 6.8163
-37 -19 -14 -1.9298 9.6024
-37 -19 -12 5.7977 12.1352
-37 -19 -10 11.6429 11.4451
-37 -19 -8 7.4222 14.7437
-37 -19 -6 6.6083 -4.1164
-37 -19 -4 -6.2356 1.9875
-37 -19 -2 8.5546 12.7238
-37 -18 -27 25.0720 -17.1865
-37 -18 -25 -1.4404 2.3190
-37 -18 -23 -8.8451 -15.0029
-37 -18 -21 10.5100 7.3043
-37 -18 -19 -5.0263 13.0781
-37 -18 -17 -3.3401 10.6778
-37 -18 -15 8.8198 -4.9958
-37 -18 -13 -8.2913 11.3634
-37 -18 -11 10.5292 -8.0779
-37 -18 -9 0.3514 6.9905
-37 -18 -7 3.6118 -20.0664
-37 -18 -5 0.6563 -29.1556
-37 -18 -3 -13.2175 15.7467
-37 -18 -1 -9.7041 9.7052
-37 -17 -28 3.0621 25.3037
-37 -17 -26 -5.3180 -13.5385
-37 -17 -24 -11.6743 12.5608
-37 -17 -22 15.8472 -14.2589
-37 -17 -20 11.1258 -12.8667
-37 -17 -18 -6.6374 9.0797
-37 -17 -16 9.4462 8.7714
-37 -17 -14 -12.5339 6.2924
-37 -17 -12 19.5595 1.1261
-37 -17 -10 -3.9089 32.2790
-37 -17 -8 -8.2486 33.7584
-37 -17 -6 5.2248 23.7889
-37 -17 -4 -8.1218 12.4332
-37 -17 -2 -3.1228 -21.0856
-37 -16 -27 -12.4076 2.0406
-37 -16 -25 -1.4439 2.3483
-37 -16 -23 12.0235 -6.0249
-37 -16 -21 -8.3134 6.6099
-37 -16 -19 5.4246 4.5028
-37 -16 -17 3.0248 9.3488
-37 -16 -15 -3.0728 -4.7476
-37 -16 -13 -14.5571 -15.0141
-37 -16 -11 1.1148 -8.8170
-37 -16 -9 2.6481 15.3297
-37 -16 -7 -43.3422 24.0834
-37 -16 -5 12.4374 16.9444
-37 -16 -3 42.8460 24.6064
-37 -16 -1 22.3786 -8.0977
-37 -15 -28 -0.6015 -3.0168
-37 -15 -26 3.0431 -0.8429
-37 -15 -24 -12.3067 8.9146
-37 -15 -22 -10.0648 -18.2217
-37 -15 -20 -20.2249 -7.2601
-37 -15 -18 9.4926 -5.5222
-37 -15 -16 8.7032 14.1377
-37 -15 -14 17.8913 -5.6960
-37 -15 -12 -1.4641 16.3517
-37 -15 -10 3.6493 -0.2416
-37 -15 -8 8.3699 -37.8850
-37 -15 -6 7.0838 -18.0635
-37 -15 -4 12.3984 15.5629
-37 -15 -2 2.1975 -4.2634
-37 -14 -29 -1.9161 -4.0742
-37 -14 -27 21.2324 5.3060
-37 -14 -25 0.4371 7.8577
-37 -14 -23 13.2254 -0.0065
-37 -14 -21 -7.6164 4.4457
-37 -14 -19 -3.9843 3.3539
-37 -14 -17 8.7735 -1.0868
-37 -14 -15 2.3653 8.2268
-37 -14 -13 3.7558 -0.4484
-37 -14 -11 -2.0794 -10.3420
-37 -14 -9 1.8712 18.7660
-37 -14 -7 -25.1570 9.0624
-37 -14 -5 -7.6791 0.0802
-37 -14 -3 3.5920 23.6545
-37 -14 -1 2.8376 -16.9077
-37 -13 -28 -5.9348 -2.0435
-37 -13 -26 -8.6654 1.5153
-37 -13 -24 -0.5247 9.0994
-37 -13 -22 14.4781 -0.9496
-37 -13 -20 -10.1081 -12.6117
-37 -13 -18 -15.2419 0.8124
-37 -13 -16 -16.0587 -10.1079
-37 -13 -14 -8.6743 4.8980
-37 -13 -12 1.7758 -25.2584
-37 -13 -10 4.0645 15.9803
-37 -13 -8 -7.9139 11.4983
-37 -13 -6 -8.1750 14.9278
-37 -13 -4 27.2915 -29.5994
-37 -13 -2 25.7730 -35.6121
-37 -12 -29 0.3045 -0.5018
-37 -12 -27 2.0615 -4.6196
-37 -12 -25 1.7825 0.1814
-37 -12 -23 -0.3683 6.3629
-37 -12 -21 -2.3425 0.2066
-37 -12 -19 -4.8878 0.0234
-37 -12 -17 27.1795 -10.3274
-37 -12 -15 -19.6056 6.4654
-37 -12 -13 -16.2586 -15.7574
-37 -12 -11 26.5495 10.0386
-37 -12 -9 -8.0973 -6.2692
-37 -12 -7 27.6223 -7.2031
-37 -12 -5 -12.3018 -19.6946
-37 -12 -3 8.6266 -3.9406
-37 -12 -1 0.3198 -2.2837
-37 -11 -30 -12.2152 18.6034
-37 -11 -28 21.5153 -3.7937
-37 -11 -26 -12.4500 -14.5965
-37 -11 -24 15.7717 14.7615
-37 -11 -22 6.4057 -13.0233
-37 -11 -20 -19.2919 -5.6227
-37 -11 -18 -6.6597 0.7010
-37 -11 -16 -9.7929 2.7739
-37 -11 -14 -16.1512 3.1906
-37 -11 -12 18.7994 -0.2189
-37 -11 -10 -2.5645 4.5162
-37 -11 -8 -4.4385 -33.4854
-37 -11 -6 -23.3477 -18.8605
-37 -11 -4 -41.3304 -10.9052
-37 -11 -2 -1.9717 21.5601
-37 -10 -29 -15.0623 12.2193
-37 -10 -27 7.1473 -6.2983
-37 -10 -25 -0.5289 -5.2589
-37 -10 -23 11.5842 -0.3540
-37 -10 -21 -0.0427 -14.6439
-37 -10 -19 -12.8919 -9.9502
-37 -10 -17 16.5734 9.8477
-37 -10 -15 15.0085 8.6629
-37 -10 -13 28.0562 4.3980
-37 -10 -11 21.9932 29.0185
-37 -10 -9 18.0814 16.7235
-37 -10 -7 13.2620 -40.0702
-37 -10 -5 7.4022 14.3848
-37 -10 -3 -9.4924 -25.5585
-37 -10 -1 -20.4605 -18.8216
-37 -9 -30 11.6483 -16.5097
-37 -9 -28 -2.6759 -14.8970
-37 -9 -26 -11.8250 20.3238
-37 -9 -24 -0.9476 -8.5055
-37 -9 -22 6.7791 -7.7501
-37 -9 -20 -0.0876 9.3313
-37 -9 -18 -2.8540 -3.6107
-37 -9 -16 1.9424 -4.2856
-37 -9 -14 7.5506 26.5497
-37 -9 -12 -24.3621 2.1952
-37 -9 -10 -5.9234 1.4263
-37 -9 -8 8.2379 -16.7060
-37 -9 -6 -4.3469 5.9757
-37 -9 -4 14.2254 -52.0959
-37 -9 -2 9.0240 -2.7671
-37 -8 -31 -0.2543 -1.6331
-37 -8 -29 3.1830 -1.0020
-37 -8 -27 -0.1740 -2.9309
-37 -8 -25 -16.2532 11.5388
-37 -8 -23 -14.0551 -6.4478
-37 -8 -21 -1.7914 -2.3281
-37 -8 -19 6.9324 -3.7363
-37 -8 -17 -1.5637 -3.6351
-37 -8 -15 -9.1137 13.6987
-37 -8 -13 -6.1857 12.3752
-37 -8 -11 16.8423 22.7513
-37 -8 -9 27.7727 10.8252
-37 -8 -7 -34.3661 -0.1477
-37 -8 -5 22.4684 4.4240
-37 -8 -3 2.1634 6.0730
-37 -8 -1 -16.5287 3.7383
-37 -7 -30 -1.7042 19.3139
-37 -7 -28 -4.7613 5.3040
-37 -7 -26 19.0544 -13.4802
-37 -7 -24 -7.0710 4.8366
-37 -7 -22 4.0191 -7.5970
-37 -7 -20 -4.4905 -0.4517
-37 -7 -18 5.1857 -3.6002
-37 -7 -16 -3.3885 6.6965
-37 -7 -14 12.0836 6.8045
-37 -7 -12 11.1878 -10.4530
-37 -7 -10 0.1590 6.2910
-37 -7 -8 -17.2050 -22.0993
-37 -7 -6 -26.2536 5.9421
-37 -7 -4 -6.9168 -56.3868
-37 -7 -2 0.5377 -9.3112
-37 -6 -31 -6.4620 9.8255
-37 -6 -29 10.1388 -2.1751
-37 -6 -27 -2.1101 -4.1251
-37 -6 -25 -14.2997 3.0590
-37 -6 -23 -11.7517 4.3223
-37 -6 -21 -10.9279 8.2339
-37 -6 -19 10.0717 29.4287
-37 -6 -17 -2.1101 -4.0214
-37 -6 -15 -8.6704 5.7632
-37 -6 -13 4.6131 3.1500
-37 -6 -11 -3.2586 -13.5975
-37 -6 -9 16.2939 16.6208
-37 -6 -7 38.7561 -17.8637
-37 -6 -5 -29.9983 17.1814
-37 -6 -3 -8.1563 -31.6750
-37 -6 -1 2.0896 25.7168
-37 -5 -30 -9.4513 -0.2902
-37 -5 -28 22.0876 2.4556
-37 -5 -26 11.9933 -8.5266
-37 -5 -24 -3.3144 5.6358
-37 -5 -22 3.2284 10.3982
-37 -5 -20 0.7385 4.9623
-37 -5 -18 1.7459 -6.1193
-37 -5 -16 -7.9415 10.0863
-37 -5 -14 2.0824 -10.6569
-37 -5 -12 -2.4439 0.1003
-37 -5 -10 -0.1234 -4.2292
-37 -5 -8 -0.1437 -7.8240
-37 -5 -6 -1.9157 14.7155
-37 -5 -4 11.1806 7.1318
-37 -5 -2 -0.3291 -11.3220
-37 -4 -31 0.0629 -20.5683
-37 -4 -29 -11.9145 14.1595
-37 -4 -27 -5.1841 8.5578
-37 -4 -25 6.6719 6.9723
-37 -4 -23 -10.3168 -3.6516
-37 -4 -21 -2.1593 -5.6910
-37 -4 -19 -11.6105 -5.8789
-37 -4 -17 -4.7185 3.0217
-37 -4 -15 6.9637 -1.5357
-37 -4 -13 0.8531 -3.6094
-37 -4 -11 -10.2876 1.8141
-37 -4 -9 -13.0072 -6.8785
-37 -4 -7 -7.0607 -6.0172
-37 -4 -5 -12.4388 39.2599
-37 -4 -3 4.0841 6.9353
-37 -4 -1 13.4296 -7.1223
-37 -3 -30 -7.8549 7.3660
-37 -3 -28 -0.6727 5.2640
-37 -3 -26 12.0758 -8.8294
-37 -3 -24 -24.9589 -8.9432
-37 -3 -22 -3.5080 -7.6619
-37 -3 -20 -6.8840 -5.3435
-37 -3 -18 5.0607 6.7734
-37 -3 -16 16.8354 3.7017
-37 -3 -14 -1.1107 -23.8122
-37 -3 -12 24.7897 -13.3382
-37 -3 -10 12.0726 -3.0394
-37 -3 -8 -23.9114 -35.5342
-37 -3 -6 -17.2432 -5.8899
-37 -3 -4 1.3219 66.7339
-37 -3 -2 -17.9344 -0.3952
-37 -2 -31 -4.9925 4.5208
-37 -2 -29 -5.7472 0.6232
-37 -2 -27 16.2536 13.8093
-37 -2 -25 -8.8545 -2.9503
-37 -2 -23 -0.6656 -1.3427
-37 -2 -21 -12.3843 -12.4764
-37 -2 -19 -12.2825 -12.3010
-37 -2 -17 -13.7296 -5.2259
-37 -2 -15 -5.1837 -0.5738
-37 -2 -13 13.4752 15.0434
-37 -2 -11 -15.6089 31.0668
-37 -2 -9 -42.5577 5.5342
-37 -2 -7 -28.5772 -23.2829
-37 -2 -5 -8.1631 26.5828
-37 -2 -3 -9.9787 36.0441
-37 -2 -1 31.8128 -5.0427
-37 -1 -30 -8.9449 -20.1393
-37 -1 -28 -16.1860 9.1487
-37 -1 -26 -4.7518 0.7603
-37 -1 -24 -8.6077 -3.4413
-37 -1 -22 -23.0752 13.1372
-37 -1 -20 -9.5364 -9.3162
-37 -1 -18 6.9623 6.6926
-37 -1 -16 -0.1223 18.6824
-37 -1 -14 -23.5638 8.8566
-37 -1 -12 1.9832 -25.4005
-37 -1 -10 27.0127 10.3406
-37 -1 -8 16.5198 55.9853
-37 -1 -6 33.8548 32.8775
-37 -1 -4 39.6677 -30.2278
-37 -1 -2 12.7909 45.0162
-36 -35 -9 -5.4641 -26.1951
-36 -35 -7 -4.5383 8.6331
-36 -35 -5 -9.5490 7.2791
-36 -35 -3 2.2637 -18.6775
-36 -35 -1 2.2342 5.5736
-36 -34 -12 10.0576 8.1342
-36 -34 -10 -8.0163 14.1543
-36 -34 -8 -5.6913 -11.9622
-36 -34 -6 -11.0798 2.2514
-36 -34 -4 -8.2116 5.5126
-36 -34 -2 -8.9257 -23.4943
-36 -33 -13 -17.2766 -13.6926
-36 -33 -11 4.3769 4.0973
-36 -33 -9 -9.1837 12.0160
-36 -33 -7 -5.8145 -9.6090
-36 -33 -5 2.1116 -9.0235
-36 -33 -3 -14.9580 5.3005
-36 -33 -1 -12.8406 11.0898
-36 -32 -16 -5.1731 22.7492
-36 -32 -14 1.3165 5.4022
-36 -32 -12 4.7408 -2.6486
-36 -32 -10 -4.0213 1.0832
-36 -32 -8 0.4933 6.4209
-36 -32 -6 -1.2834 3.5800
-36 -32 -4 -0.8853 -0.5240
-36 -32 -2 24.8825 15.6719
-36 -31 -17 2.3665 2.0609
-36 -31 -15 2.7771 0.1866
-36 -31 -13 13.1901 -6.2325
-36 -31 -11 16.0478 11.6369
-36 -31 -9 11.2181 -8.2941
-36 -31 -7 -3.3381 -11.8536
-36 -31 -5 2.2896 14.0749
-36 -31 -3 7.5047 1.5731
-36 -31 -1 -3.2320 11.0942
-36 -30 -18 -12.9846 1.3963
-36 -30 -16 17.8117 -12.9394
-36 -30 -14 1.5413 -1.1918
-36 -30 -12 0.8700 -0.7338
-36 -30 -10 -9.2130 10.4235
-36 -30 -8 -5.4720 3.5836
-36 -30 -6 2.4279 -0.5568
-36 -30 -4 -0.1282 -21.6097
-36 -30 -2 -2.4744 0.4008
-36 -29 -19 7.0767 18.9609
-36 -29 -17 16.8583 6.0664
-36 -29 -15 4.3845 -5.7592
-36 -29 -13 8.9175 14.2086
-36 -29 -11 -4.1926 6.4423
-36 -29 -9 -3.6886 10.0133
-36 -29 -7 2.8826 -15.7026
-36 -29 -5 -11.5671 2.7410
-36 -29 -3 5.8900 -17.6459
-36 -29 -1 15.5822 19.1847
-36 -28 -20 5.7294 -11.2142
-36 -28 -18 -5.3730 15.7833
-36 -28 -16 -5.0663 9.8901
-36 -28 -14 8.1406 -12.2632
-36 -28 -12 -9.1617 3.1088
-36 -28 -10 2.0217 -11.4521
-36 -28 -8 0.7163 -8.5036
-36 -28 -6 -16.0925 -17.9952
-36 -28 -4 9.4250 6.3062
-36 -28 -2 26.3185 -11.8837
-36 -27 -21 -7.2012 -3.6197
-36 -27 -19 -5.4543 -8.1009
-36 -27 -17 -14.8308 -19.1013
-36 -27 -15 -7.7769 -11.1086
-36 -27 -13 -4.1202 -3.7331
-36 -27 -11 -0.5700 0.9119
-36 -27 -9 -19.3802 -8.4473
-36 -27 -7 -2.1797 8.9355
-36 -27 -5 2.8118 -0.8402
-36 -27 -3 -12.4576 -14.6554
-36 -27 -1 10.2137 -8.9436
-36 -26 -22 4.1319 -6.7806
-36 -26 -20 -6.1910 9.0612
-36 -26 -18 7.3681 -0.4390
-36 -26 -16 -5.4853 1.5153
-36 -26 -14 10.6437 -18.7798
-36 -26 -12 -0.2763 -4.2496
-36 -26 -10 7.5145 0.1233
-36 -26 -8 11.3453 2.4024
-36 -26 -6 5.0700 -4.6064
-36 -26 -4 -7.3045 -2.2343
-36 -26 -2 -10.5063 -2.0457
-36 -25 -23 -3.5231 -11.8353
-36 -25 -21 -2.8938 -6.3239
-36 -25 -19 5.6551 -13.8790
-36 -25 -17 -8.5947 17.7527
-36 -25 -15 -13.9531 -8.9001
-36 -25 -13 1.1333 -6.3071
-36 -25 -11 -8.3059 2.5258
-36 -25 -9 -1.0991 2.2647
-36 -25 -7 -20.3529 0.2763
-36 -25 -5 -6.7228 -2.1134
-36 -25 -3 -2.1345 4.6956
-36 -25 -1 -8.1549 -6.8619
-36 -24 -24 -9.6479 7.1983
-36 -24 -22 -12.0239 -4.7518
-36 -24 -20 10.7436 -6.6175
-36 -24 -18 2.5526 13.8788
-36 -24 -16 1.5052 -9.4106
-36 -24 -14 11.5957 -32.7382
-36 -24 -12 0.7030 26.5205
-36 -24 -10 2.5943 -15.2055
-36 -24 -8 1.0156 3.3069
-36 -24 -6 0.3478 2.1270
-36 -24 -4 10.4679 2.9442
-36 -24 -2 -4.3192 -8.7430
-36 -23 -25 2.5959 -5.7285
-36 -23 -23 15.9954 12.4362
-36 -23 -21 0.9438 6.3825
-36 -23 -19 20.6391 9.4616
-36 -23 -17 13.8015 31.8087
-36 -23 -15 -3.8945 -12.2640
-36 -23 -13 18.0030 1.7683
-36 -23 -11 8.9573 -5.1705
-36 -23 -9 8.1269 -3.8378
-36 -23 -7 9.0922 -13.7182
-36 -23 -5 12.6363 15.4115
-36 -23 -3 16.6206 -5.8738
-36 -23 -1 -5.1874 -2.3833
-36 -22 -26 -2.9972 2.1169
-36 -22 -24 8.9682 14.2726
-36 -22 -22 16.2478 6.0127
-36 -22 -20 -15.2809 2.6767
-36 -22 -18 -0.4518 14.5072
-36 -22 -16 2.1335 1.3586
-36 -22 -14 5.3156 -30.1514
-36 -22 -12 -6.1546 1.2855
-36 -22 -10 12.7393 -15.9852
-36 -22 -8 -7.9658 2.5856
-36 -22 -6 -10.5594 18.9192
-36 -22 -4 -3.0976 7.6085
-36 -22 -2 -8.9167 -4.4612
-36 -21 -27 -9.4507 -13.0878
-36 -21 -25 -1.9715 -3.2913
-36 -21 -23 19.8118 11.8871
-36 -21 -21 -9.3027 -11.2189
-36 -21 -19 5.9143 -6.4044
-36 -21 -17 -7.8254 -4.6167
-36 -21 -15 11.9870 7.5935
-36 -21 -13 -8.2045 5.4179
-36 -21 -11 27.3727 -12.3069
-36 -21 -9 -5.2834 -23.9631
-36 -21 -7 9.8209 -1.1865
-36 -21 -5 -4.9887 8.5202
-36 -21 -3 15.0186 -15.9522
-36 -21 -1 7.6714 16.0872
-36 -20 -26 -2.8075 0.8415
-36 -20 -24 -8.9293 3.3568
-36 -20 -22 -4.7259 0.6035
-36 -20 -20 8.2203 -3.7557
-36 -20 -18 6.6016 7.9018
-36 -20 -16 14.0955 0.3145
-36 -20 -14 -2.4800 -0.1512
-36 -20 -12 4.6680 -8.2018
-36 -20 -10 -1.8455 5.0636
-36 -20 -8 -3.8139 -11.4347
-36 -20 -6 -30.2258 4.9589
-36 -20 -4 0.0815 -7.1593
-36 -20 -2 7.6705 -3.0299
-36 -19 -27 2.8424 -2.3266
-36 -19 -25 -12.8456 -6.4169
-36 -19 -23 0.1039 6.8302
-36 -19 -21 9.7871 -14.2373
-36 -19 -19 0.4498 -2.8493
-36 -19 -17 1.4033 -0.6496
-36 -19 -15 8.2725 6.9303
-36 -19 -13 7.2138 15.6972
-36 -19 -11 0.6489 -5.0650
-36 -19 -9 15.2544 -0.1496
-36 -19 -7 -0.3725 19.1090
-36 -19 -5 13.1211 1.0661
-36 -19 -3 7.9573 -19.3873
-36 -19 -1 6.9317 -37.1065
-36 -18 -28 -1.1615 -1.0287
-36 -18 -26 -2.1129 1.7768
-36 -18 -24 -1.7189 19.6594
-36 -18 -22 0.4989 5.8854
-36 -18 -20 -9.0031 1.8154
-36 -18 -18 -8.3300 8.1563
-36 -18 -16 1.8524 -11.2898
-36 -18 -14 7.0659 18.0441
-36 -18 -12 5.6483 27.2677
-36 -18 -10 15.3888 1.3307
-36 -18 -8 -25.3353 -19.7510
-36 -18 -6 -16.0192 -24.7764
-36 -18 -4 -24.8397 10.5988
-36 -18 -2 16.8762 5.9404
-36 -17 -29 16.0452 -7.0625
-36 -17 -27 -1.1233 0.2607
-36 -17 -25 7.7542 1.0939
-36 -17 -23 -2.3451 11.6357
-36 -17 -21 -15.5025 -5.8106
-36 -17 -19 -11.9837 5.4414
-36 -17 -17 0.5977 4.5393
-36 -17 -15 -9.7292 0.6992
-36 -17 -13 2.8954 23.0352
-36 -17 -11 22.2959 3.3311
-36 -17 -9 19.1385 1.9342
-36 -17 -7 2.3247 -23.2857
-36 -17 -5 -22.4961 -21.1633
-36 -17 -3 -19.4114 21.2194
-36 -17 -1 -23.0801 -22.0675
-36 -16 -28 -18.4944 -13.6608
-36 -16 -26 -1.5124 10.5361
-36 -16 -24 12.4537 -2.3366
-36 -16 -22 15.0112 17.4102
-36 -16 -20 5.6674 -7.9521
-36 -16 -18 8.4573 18.4336
-36 -16 -16 -22.2523 4.8273
-36 -16 -14 -21.1642 -20.5919
-36 -16 -12 17.3409 0.8315
-36 -16 -10 13.3271 51.5737
-36 -16 -8 -3.9448 0.2670
-36 -16 -6 39.7864 3.5119
-36 -16 -4 -7.7095 -8.0966
-36 -16 -2 -4.8380 -0.2634
-36 -15 -29 4.9951 -9.0353
-36 -15 -27 -3.8482 1.5855
-36 -15 -25 9.4604 13.9675
-36 -15 -23 24.8661 -6.5456
-36 -15 -21 6.2673 -7.9493
-36 -15 -19 -10.4227 -7.0166
-36 -15 -17 -3.2335 -13.8239
-36 -15 -15 -5.8536 -1.5755
-36 -15 -13 14.8404 14.5049
-36 -15 -11 4.6134 -4.9778
-36 -15 -9 -7.1789 2.4644
-36 -15 -7 11.7620 -9.9602
-36 -15 -5 -33.7932 -16.6690
-36 -15 -3 -0.1559 16.8575
-36 -15 -1 -10.9486 -5.6201
-36 -14 -30 -15.7053 -12.8494
-36 -14 -28 8.0998 1.0920
-36 -14 -26 2.6507 3.2973
-36 -14 -24 11.0280 6.7824
-36 -14 -22 -0.9130 1.7645
-36 -14 -20 13.6928 -2.8079
-36 -14 -18 6.1758 14.8277
-36 -14 -16 8.3069 2.9481
-36 -14 -14 -23.0120 7.5964
-36 -14 -12 -5.3757 -10.8007
-36 -14 -10 27.7040 27.1584
-36 -14 -8 24.1384 7.4819
-36 -14 -6 4.0856 -26.1154
-36 -14 -4 0.5306 -8.5573
-36 -14 -2 -26.8077 -4.4853
-36 -13 -29 8.2631 6.6476
-36 -13 -27 -0.9714 -1.3904
-36 -13 -25 6.5719 3.4179
-36 -13 -23 13.6204 -20.2500
-36 -13 -21 0.7683 -6.3355
-36 -13 -19 0.9732 -15.5341
-36 -13 -17 -9.3806 -1.7544
-36 -13 -15 -27.3223 15.8278
-36 -13 -13 17.8637 -11.6386
-36 -13 -11 25.1165 6.4698
-36 -13 -9 -9.6742 -10.5401
-36 -13 -7 14.6990 -5.4564
-36 -13 -5 28.3688 -5.5412
-36 -13 -3 3.1484 -0.1566
-36 -13 -1 7.5091 -7.9771
-36 -12 -30 -18.7326 16.9292
-36 -12 -28 3.0230 1.8886
-36 -12 -26 17.8648 -2.9000
-36 -12 -24 1.5582 -10.6341
-36 -12 -22 8.4673 14.2723
-36 -12 -20 -8.3648 -4.7070
-36 -12 -18 5.6138 -7.0130
-36 -12 -16 4.3994 -15.5460
-36 -12 -14 -28.9840 3.2445
-36 -12 -12 -10.3670 11.6471
-36 -12 -10 2.8007 49.3493
-36 -12 -8 -4.5311 -3.5713
-36 -12 -6 10.9295 -27.5355
-36 -12 -4 -19.8967 -8.4685
-36 -12 -2 5.1128 -2.3750
-36 -11 -31 4.7377 2.1444
-36 -11 -29 21.2067 11.6024
-36 -11 -27 -7.6673 1.1529
-36 -11 -25 -7.8336 5.7697
-36 -11 -23 17.6625 6.3023
-36 -11 -21 11.0751 -3.3068
-36 -11 -19 -8.2424 13.6539
-36 -11 -17 33.3474 8.7414
-36 -11 -15 -18.8057 -33.2979
-36 -11 -13 -16.6943 1.7954
-36 -11 -11 -12.2203 -21.7173
-36 -11 -9 29.3592 7.1994
-36 -11 -7 1.5623 -21.1757
-36 -11 -5 -14.0289 14.3306
-36 -11 -3 -5.2889 2.0873
-36 -11 -1 15.6660 24.0042
-36 -10 -30 -3.1399 14.6925
-36 -10 -28 -23.0144 -0.1801
-36 -10 -26 -6.2791 -8.0897
-36 -10 -24 7.0894 9.3875
-36 -10 -22 -19.8620 0.5861
-36 -10 -20 2.7001 8.7304
-36 -10 -18 17.3968 7.8029
-36 -10 -16 -17.9437 -1.3417
-36 -10 -14 26.0723 20.2256
-36 -10 -12 10.4092 -2.4689
-36 -10 -10 -29.6756 53.8388
-36 -10 -8 -1.9774 -4.8750
-36 -10 -6 -62.2501 65.1893
-36 -10 -4 -6.3457 -4.4711
-36 -10 -2 34.6063 -43.3548
-36 -9 -31 -4.6892 -3.7792
-36 -9 -29 1.2447 -14.0651
-36 -9 -27 8.1164 19.1336
-36 -9 -25 4.0218 0.6512
-36 -9 -23 -3.1550 -1.6463
-36 -9 -21 -5.7936 14.0053
-36 -9 -19 3.2371 12.5286
-36 -9 -17 -7.4957 -17.0269
-36 -9 -15 26.8399 28.7255
-36 -9 -13 1.7615 1.2426
-36 -9 -11 -17.9776 -0.3808
-36 -9 -9 -3.0190 -44.5828
-36 -9 -7 1.0400 26.2252
-36 -9 -5 -20.5812 11.7703
-36 -9 -3 -14.7038 21.4442
-36 -9 -1 0.2305 -0.2890
-36 -8 -32 4.3158 0.2146
-36 -8 -30 3.8515 -3.7091
-36 -8 -28 6.3078 10.4286
-36 -8 -26 -1.0791 16.9684
-36 -8 -24 2.4553 -5.5291
-36 -8 -22 3.8856 23.4371
-36 -8 -20 3.6801 -4.1048
-36 -8 -18 12.3393 -6.9924
-36 -8 -16 -5.6387 -4.3810
-36 -8 -14 -17.7751 -4.6364
-36 -8 -12 5.9949 6.1812
-36 -8 -10 -31.1373 9.7774
-36 -8 -8 -0.4415 15.7230
-36 -8 -6 35.8258 22.0588
-36 -8 -4 -18.4588 33.5023
-36 -8 -2 2.0032 -74.6831
-36 -7 -31 0.1248 -0.4500
-36 -7 -29 1.1335 1.1097
-36 -7 -27 12.0409 -6.3178
-36 -7 -25 5.4689 -7.1289
-36 -7 -23 8.8550 14.7923
-36 -7 -21 -6.0398 14.8925
-36 -7 -19 6.2962 5.5570
-36 -7 -17 11.9475 -3.5767
-36 -7 -15 2.1182 5.0523
-36 -7 -13 10.2259 -5.3002
-36 -7 -11 -20.0249 4.5787
-36 -7 -9 32.8570 -9.1692
-36 -7 -7 -7.6008 29.0716
-36 -7 -5 -10.3090 -24.5004
-36 -7 -3 29.0679 -8.7811
-36 -7 -1 5.9959 -19.2969
-36 -6 -32 9.0653 -8.8639
-36 -6 -30 -0.7599 15.8656
-36 -6 -28 -8.4842 9.7242
-36 -6 -26 -2.1937 12.0697
-36 -6 -24 16.8969 -16.1551
-36 -6 -22 -0.5019 -2.5523
-36 -6 -20 3.7134 -18.5647
-36 -6 -18 -6.8116 -8.8684
-36 -6 -16 -11.3325 -9.9509
-36 -6 -14 -12.2094 0.3632
-36 -6 -12 -11.0515 -11.3390
-36 -6 -10 19.7364 -10.6224
-36 -6 -8 29.2586 23.4810
-36 -6 -6 6.1991 32.3101
-36 -6 -4 0.0894 36.6413
-36 -6 -2 9.2091 5.4759
-36 -5 -31 0.5739 0.2920
-36 -5 -29 -8.1897 -10.0962
-36 -5 -27 6.2588 4.2170
-36 -5 -25 -6.4911 12.6046
-36 -5 -23 -14.0932 9.1688
-36 -5 -21 11.2681 17.5002
-36 -5 -19 3.6942 8.1103
-36 -5 -17 2.9427 -5.6227
-36 -5 -15 -4.4261 1.1241
-36 -5 -13 -6.3059 4.0485
-36 -5 -11 10.9679 -20.2487
-36 -5 -9 -16.1100 -13.3359
-36 -5 -7 36.6019 10.4137
-36 -5 -5 0.1650 -18.2400
-36 -5 -3 -6.1557 -14.7915
-36 -5 -1 20.7078 -12.5083
-36 -4 -32 -20.0173 -7.0661
-36 -4 -30 -6.4623 -1.4192
-36 -4 -28 6.9372 -1.0860
-36 -4 -26 2.6949 -3.8312
-36 -4 -24 -1.7610 1.2955
-36 -4 -22 -14.4557 -3.8660
-36 -4 -20 -6.6292 -3.4928
-36 -4 -18 11.7483 -0.2974
-36 -4 -16 13.0936 17.4858
-36 -4 -14 -8.0349 -20.5998
-36 -4 -12 2.9626 12.3156
-36 -4 -10 6.5520 -13.5754
-36 -4 -8 21.5569 25.7209
-36 -4 -6 -5.6807 18.2151
-36 -4 -4 -1.1450 12.0944
-36 -4 -2 -25.3439 -37.3158
-36 -3 -31 4.2685 -2.8656
-36 -3 -29 -8.5777 -24.3010
-36 -3 -27 4.7223 -1.2512
-36 -3 -25 -11.7438 6.0124
-36 -3 -23 -20.7382 12.5086
-36 -3 -21 -17.7531 2.4327
-36 -3 -19 9.6760 -6.2321
-36 -3 -17 -12.4078 23.8370
-36 -3 -15 -6.2435 4.3365
-36 -3 -13 -0.2371 -17.3057
-36 -3 -11 7.7844 10.8353
-36 -3 -9 33.2185 37.9429
-36 -3 -7 -6.3354 23.8542
-36 -3 -5 23.4227 -27.3466
-36 -3 -3 -4.3557 -27.8548
-36 -3 -1 2.7158 -10.2738
-36 -2 -32 -14.4178 2.2767
-36 -2 -30 -0.8111 -1.1550
-36 -2 -28 11.6558 -11.6230
-36 -2 -26 -1.6008 4.9258
-36 -2 -24 12.3066 10.8006
-36 -2 -22 2.7749 5.3242
-36 -2 -20 3.9095 -9.4464
-36 -2 -18 3.5643 -2.7003
-36 -2 -16 -0.8971 -6.4465
-36 -2 -14 19.4998 -11.0303
-36 -2 -12 3.3529 5.5717
-36 -2 -10 25.8291 -20.6769
-36 -2 -8 -3.9006 37.4243
-36 -2 -6 27.6455 -33.0081
-36 -2 -4 -3.6266 -35.6627
-36 -2 -2 -34.8531 -67.9455
-36 -1 -31 2.9142 1.1763
-36 -1 -29 1.4461 1.1336
-36 -1 -27 -8.1395 14.9555
-36 -1 -25 3.1663 6.2213
-36 -1 -23 -0.0314 3.1704
-36 -1 -21 -4.6425 -6.0452
-36 -1 -19 0.9311 -10.8579
-36 -1 -17 -7.6458 4.3981
-36 -1 -15 -17.9592 -10.7299
-36 -1 -13 5.8700 -18.5016
-36 -1 -11 -0.2725 -37.6737
-36 -1 -9 7.6376 32.0467
-36 -1 -7 -33.1652 48.9401
-36 -1 -5 32.0329 2.5241
-36 -1 -3 -2.2802 24.9182
-36 -1 -1 0.8887 5.5548
-35 -34 -13 1.3202 -2.3553
-35 -34 -11 1.8040 -21.6080
-35 -34 -9 -17.5013 20.5591
-35 -34 -7 2.3169 -0.5242
-35 -34 -5 5.0959 -17.3910
-35 -34 -3 -1.2396 3.6588
-35 -34 -1 2.3596 -3.6729
-35 -33 -16 4.3554 -3.5033
-35 -33 -14 14.5438 -13.8974
-35 -33 -12 -2.5072 -1.2247
-35 -33 -10 3.0243 2.5060
-35 -33 -8 -2.7543 5.6656
-35 -33 -6 -0.4114 9.9893
-35 -33 -4 -14.8460 -2.3082
-35 -33 -2 4.3111 10.9936
-35 -32 -17 7.2699 -24.6351
-35 -32 -15 12.4148 -7.9663
-35 -32 -13 1.4976 14.9553
-35 -32 -11 -16.8223 31.0671
-35 -32 -9 -7.4272 -7.4268
-35 -32 -7 5.6261 -6.4398
-35 -32 -5 -11.5486 -9.1101
-35 -32 -3 -4.0766 0.3330
-35 -32 -1 -5.8417 -2.7233
-35 -31 -18 4.6835 1.5575
-35 -31 -16 12.7650 1.4279
-35 -31 -14 -18.8567 16.2002
-35 -31 -12 -2.3598 0.5865
-35 -31 -10 9.8600 0.2541
-35 -31 -8 12.7976 -2.3734
-35 -31 -6 5.0472 9.6207
-35 -31 -4 1.1733 15.4425
-35 -31 -2 -4.6319 1.0128
-35 -30 -19 -8.9995 -0.8326
-35 -30 -17 -1.8325 0.3072
-35 -30 -15 27.5293 -8.9790
-35 -30 -13 0.9164 -0.4564
-35 -30 -11 9.0385 5.6470
-35 -30 -9 -6.2681 -10.7826
-35 -30 -7 7.8897 -2.5372
-35 -30 -5 -1.0626 -7.0469
-35 -30 -3 -19.3039 -11.3877
-35 -30 -1 -16.5796 -21.3442
-35 -29 -20 -18.3974 1.3780
-35 -29 -18 -15.7902 22.2777
-35 -29 -16 -6.3741 -14.1811
-35 -29 -14 3.9782 -10.2348
-35 -29 -12 -5.1300 9.6122
-35 -29 -10 21.1955 -17.5169
-35 -29 -8 -12.5833 -3.1190
-35 -29 -6 -7.9917 -2.0645
-35 -29 -4 14.3900 -19.3893
-35 -29 -2 9.5497 15.6428
-35 -28 -21 14.8650 14.6540
-35 -28 -19 -13.3247 -3.2151
-35 -28 -17 -19.3780 8.7017
-35 -28 -15 13.5755 12.4948
-35 -28 -13 14.4467 3.1260
-35 -28 -11 -10.8441 13.9253
-35 -28 -9 1.5542 -2.4739
-35 -28 -7 10.0750 -18.0135
-35 -28 -5 9.3466 -15.7659
-35 -28 -3 10.7772 26.6221
-35 -28 -1 10.2099 11.1163
-35 -27 -22 -10.8976 -0.3695
-35 -27 -20 15.3296 -1.6837
-35 -27 -18 1.6933 -11.0830
-35 -27 -16 14.7655 23.9548
-35 -27 -14 6.1493 -6.1775
-35 -27 -12 -11.6257 -6.2487
-35 -27 -10 -19.0404 6.0034
-35 -27 -8 1.1414 2.1925
-35 -27 -6 -3.4547 1.9261
-35 -27 -4 8.9562 -5.6687
-35 -27 -2 -4.0864 -3.8781
-35 -26 -23 -1.2456 4.6162
-35 -26 -21 8.7980 -5.7974
-35 -26 -19 -2.7043 4.1954
-35 -26 -17 6.7212 -2.0810
-35 -26 -15 21.4752 6.5018
-35 -26 -13 -7.8346 -21.9205
-35 -26 -11 -5.6595 -11.1207
-35 -26 -9 0.1640 7.1220
-35 -26 -7 10.5724 -23.7755
-35 -26 -5 2.4598 20.5043
-35 -26 -3 6.9821 11.9697
-35 -26 -1 -4.3063 5.1018
-35 -25 -24 10.4746 9.7253
-35 -25 -22 3.4315 8.3392
-35 -25 -20 1.6142 6.5729
-35 -25 -18 10.5525 4.3425
-35 -25 -16 14.9907 -5.4877
-35 -25 -14 5.8346 4.7263
-35 -25 -12 6.5126 -0.6865
-35 -25 -10 5.2785 7.1126
-35 -25 -8 6.6006 1.9840
-35 -25 -6 3.0706 4.7465
-35 -25 -4 14.7989 25.3703
-35 -25 -2 14.8546 -2.1573
-35 -24 -25 17.4131 14.7332
-35 -24 -23 -7.0706 20.9543
-35 -24 -21 6.0232 5.2475
-35 -24 -19 -6.5876 -15.0731
-35 -24 -17 -10.7963 -7.7210
-35 -24 -15 15.7020 16.1169
-35 -24 -13 -11.2773 -6.1610
-35 -24 -11 -10.3210 -1.0968
-35 -24 -9 1.1429 18.0374
-35 -24 -7 -13.1396 -8.6545
-35 -24 -5 32.1773 -1.6053
-35 -24 -3 -1.6531 12.3152
-35 -24 -1 17.3002 -12.2142
-35 -23 -26 6.7969 -4.4574
-35 -23 -24 3.3438 2.3300
-35 -23 -22 7.3579 2.4491
-35 -23 -20 9.1705 -11.1050
-35 -23 -18 -2.5247 -18.4804
-35 -23 -16 30.0196 -10.2152
-35 -23 -14 -0.9533 -1.1448
-35 -23 -12 -14.1932 -15.2858
-35 -23 -10 4.1786 -0.1530
-35 -23 -8 -16.9933 1.9937
-35 -23 -6 5.1740 -7.6580
-35 -23 -4 22.7789 -10.9024
-35 -23 -2 2.3944 -8.7131
-35 -22 -27 9.7753 1.0286
-35 -22 -25 -7.4065 -22.4828
-35 -22 -23 13.7180 -9.5261
-35 -22 -21 -12.2095 -14.8727
-35 -22 -19 -11.2474 0.8887
-35 -22 -17 -4.8967 -6.8488
-35 -22 -15 -5.6454 -6.5450
-35 -22 -13 -11.3492 -24.0309
-35 -22 -11 -2.3636 11.6701
-35 -22 -9 -8.5962 -0.8707
-35 -22 -7 -10.4176 -11.0276
-35 -22 -5 13.6251 -1.5310
-35 -22 -3 -1.5021 1.4729
-35 -22 -1 12.7475 -6.0846
-35 -21 -28 4.0206 13.7328
-35 -21 -26 -14.0207 -8.0575
-35 -21 -24 -4.8007 -11.2571
-35 -21 -22 -9.6364 8.3374
-35 -21 -20 -1.9605 5.0172
-35 -21 -18 -15.3617 1.5821
-35 -21 -16 -12.9550 -12.2766
-35 -21 -14 0.8525 -2.0619
-35 -21 -12 12.8990 8.4210
-35 -21 -10 -5.4510 7.0104
-35 -21 -8 -1.8274 22.9963
-35 -21 -6 15.5564 4.2789
-35 -21 -4 -3.5398 -11.6329
-35 -21 -2 -9.2117 -2.1611
-35 -20 -27 1.7606 5.2837
-35 -20 -25 4.2442 -16.7999
-35 -20 -23 -2.1317 -13.5100
-35 -20 -21 8.7039 13.0956
-35 -20 -19 -23.5262 2.7648
-35 -20 -17 -7.6549 8.0662
-35 -20 -15 16.9855 3.9153
-35 -20 -13 5.9804 2.5504
-35 -20 -11 6.8396 12.8658
-35 -20 -9 5.7742 10.0799
-35 -20 -7 7.8462 -24.4820
-35 -20 -5 -32.9428 -8.1835
-35 -20 -3 -18.5788 -12.0481
-35 -20 -1 -11.3194 -8.0046
-35 -19 -28 -14.5535 -19.6629
-35 -19 -26 2.6173 0.9595
-35 -19 -24 -19.6920 -0.7455
-35 -19 -22 -8.7524 -8.2820
-35 -19 -20 8.3232 -2.4963
-35 -19 -18 1.1917 -2.8331
-35 -19 -16 -5.1630 0.8263
-35 -19 -14 -10.0331 24.4167
-35 -19 -12 -2.9683 -9.2728
-35 -19 -10 17.8270 5.3506
-35 -19 -8 1.3778 -9.4026
-35 -19 -6 4.2989 13.8690
-35 -19 -4 11.3975 -35.1698
-35 -19 -2 19.6551 1.4469
-35 -18 -29 -10.5394 -11.9691
-35 -18 -27 -15.4112 7.9926
-35 -18 -25 0.9231 -24.6683
-35 -18 -23 15.4593 4.2560
-35 -18 -21 -2.1370 8.9992
-35 -18 -19 5.6371 -3.1169
-35 -18 -17 -1.1500 -0.2959
-35 -18 -15 -11.6876 -7.2252
-35 -18 -13 15.2371 -0.8630
-35 -18 -11 5.4399 3.8496
-35 -18 -9 -5.4921 -2.6735
-35 -18 -7 1.3686 1.3331
-35 -18 -5 2.8102 -31.6372
-35 -18 -3 -5.4480 -19.0818
-35 -18 -1 -3.7826 13.3380
-35 -17 -30 -2.4997 7.2209
-35 -17 -28 6.1485 28.8705
-35 -17 -26 -4.7568 18.8827
-35 -17 -24 2.5327 -7.1012
-35 -17 -22 5.6165 4.9315
-35 -17 -20 4.3281 -5.7969
-35 -17 -18 5.4976 -10.8875
-35 -17 -16 -7.3957 14.6116
-35 -17 -14 -7.0968 -12.5683
-35 -17 -12 23.5091 16.6327
-35 -17 -10 1.9729 -11.0905
-35 -17 -8 -4.5058 40.8487
-35 -17 -6 -9.2404 -3.9410
-35 -17 -4 -16.6229 28.3396
-35 -17 -2 15.8793 -21.5448
-35 -16 -29 -3.8802 -0.7782
-35 -16 -27 7.2336 -3.2045
-35 -16 -25 -4.8599 7.3490
-35 -16 -23 5.2229 -10.2195
-35 -16 -21 19.5271 12.2243
-35 -16 -19 17.0031 3.5620
-35 -16 -17 6.4823 20.6828
-35 -16 -15 -11.8526 -4.6281
-35 -16 -13 -0.0615 -15.9264
-35 -16 -11 -9.2416 -18.8193
-35 -16 -9 -5.9704 20.4259
-35 -16 -7 -2.0847 1.4113
-35 -16 -5 5.8429 -9.4948
-35 -16 -3 18.1401 5.1264
-35 -16 -1 13.1184 1.6407
-35 -15 -30 6.5657 -7.3858
-35 -15 -28 0.4754 -6.5574
-35 -15 -26 8.4588 -7.9236
-35 -15 -24 3.6239 17.4601
-35 -15 -22 -4.3212 -0.5189
-35 -15 -20 2.2130 -3.3210
-35 -15 -18 5.7127 -7.4341
-35 -15 -16 11.0560 3.7414
-35 -15 -14 8.7375 -5.3479
-35 -15 -12 40.4078 -28.1421
-35 -15 -10 -3.9170 9.0473
-35 -15 -8 22.7296 48.7403
-35 -15 -6 -25.5960 -2.3061
-35 -15 -4 -26.9671 -4.6433
-35 -15 -2 9.6807 -17.8844
-35 -14 -31 -0.5151 -0.0395
-35 -14 -29 5.5210 1.8165
-35 -14 -27 -0.8184 -14.7410
-35 -14 -25 10.5525 6.4483
-35 -14 -23 -9.1615 6.5584
-35 -14 -21 -5.6438 -10.6115
-35 -14 -19 15.6237 -1.2481
-35 -14 -17 12.9449 -1.1580
-35 -14 -15 0.0786 7.0360
-35 -14 -13 -0.0400 -34.9491
-35 -14 -11 4.4476 1.0266
-35 -14 -9 -9.0017 4.5107
-35 -14 -7 27.1576 13.4219
-35 -14 -5 6.7786 -3.6599
-35 -14 -3 -6.7100 2.2680
-35 -14 -1 7.7321 -7.2682
-35 -13 -30 -4.0104 -1.5959
-35 -13 -28 -26.4669 1.9602
-35 -13 -26 2.2978 2.6003
-35 -13 -24 13.9936 2.4734
-35 -13 -22 -2.5026 -7.9667
-35 -13 -20 -0.3880 6.3977
-35 -13 -18 11.7177 1.3286
-35 -13 -16 28.8558 1.7711
-35 -13 -14 -18.0932 6.2824
-35 -13 -12 -28.9469 -15.7817
-35 -13 -10 -1.8288 -4.9642
-35 -13 -8 -3.5391 -9.6628
-35 -13 -6 4.2622 8.7075
-35 -13 -4 -2.2645 18.5367
-35 -13 -2 6.2265 -15.5761
-35 -12 -31 -2.7054 11.1213
-35 -12 -29 3.1838 1.2444
-35 -12 -27 -4.2993 14.0521
-35 -12 -25 -1.3824 -15.0387
-35 -12 -23 10.5959 -2.5057
-35 -12 -21 1.6761 13.6131
-35 -12 -19 -8.5895 -8.1533
-35 -12 -17 -13.3516 -21.6390
-35 -12 -15 -8.1231 12.6046
-35 -12 -13 21.6265 11.4366
-35 -12 -11 -23.9546 -2.4591
-35 -12 -9 -11.1371 26.0302
-35 -12 -7 10.1942 0.8537
-35 -12 -5 -11.6401 14.2281
-35 -12 -3 -12.2665 15.1611
-35 -12 -1 -4.7530 -12.7243
-35 -11 -32 -1.9522 0.2674
-35 -11 -30 -8.6057 14.0703
-35 -11 -28 -3.5705 19.3572
-35 -11 -26 3.3665 10.4623
-35 -11 -24 -13.8251 -5.4553
-35 -11 -22 -1.4540 4.3228
-35 -11 -20 -16.3885 -2.7609
-35 -11 -18 0.9117 -2.7854
-35 -11 -16 -5.6749 25.2763
-35 -11 -14 7.7632 -1.3578
-35 -11 -12 17.7001 33.6295
-35 -11 -10 0.4390 -10.2447
-35 -11 -8 -33.3028 48.4519
-35 -11 -6 -22.5294 9.5671
-35 -11 -4 -9.4312 55.8320
-35 -11 -2 -16.2123 -0.4416
-35 -10 -31 2.6359 14.5692
-35 -10 -29 4.2618 3.8953
-35 -10 -27 7.8342 13.9323
-35 -10 -25 8.9056 2.8318
-35 -10 -23 13.0094 -8.5369
-35 -10 -21 -12.4082 9.5720
-35 -10 -19 -18.0972 -29.4750
-35 -10 -17 -6.1537 10.5707
-35 -10 -15 15.8449 3.4197
-35 -10 -13 13.4012 19.1882
-35 -10 -11 4.6626 20.4049
-35 -10 -9 -16.2673 -17.2216
-35 -10 -7 28.3198 -24.7850
-35 -10 -5 11.6247 -18.4063
-35 -10 -3 24.5996 -16.3962
-35 -10 -1 19.8917 0.2646
-35 -9 -32 -0.7918 1.7050
-35 -9 -30 -0.9003 -4.1154
-35 -9 -28 16.4427 1.7924
-35 -9 -26 10.3688 8.7133
-35 -9 -24 -2.9614 -4.1095
-35 -9 -22 -3.8080 -2.3188
-35 -9 -20 -3.8277 3.5942
-35 -9 -18 -16.2217 -5.5972
-35 -9 -16 -8.6463 15.1184
-35 -9 -14 17.6906 -1.1666
-35 -9 -12 -25.1045 24.6144
-35 -9 -10 12.9486 -4.9220
-35 -9 -8 47.5498 43.2873
-35 -9 -6 3.2073 0.1204
-35 -9 -4 15.6752 88.2967
-35 -9 -2 -17.1146 16.5159
-35 -8 -31 3.6633 3.7390
-35 -8 -29 1.3862 21.4198
-35 -8 -27 5.6975 9.8959
-35 -8 -25 4.3129 -17.3429
-35 -8 -23 0.2539 -2.1770
-35 -8 -21 3.2557 2.3634
-35 -8 -19 -17.0080 -27.8184
-35 -8 -17 3.5389 19.9050
-35 -8 -15 1.3392 0.8908
-35 -8 -13 -14.6268 20.8495
-35 -8 -11 11.2003 -3.6021
-35 -8 -9 9.3796 8.5288
-35 -8 -7 31.4433 -11.1405
-35 -8 -5 1.6843 -0.9772
-35 -8 -3 15.1855 0.8991
-35 -8 -1 24.6927 -26.9797
-35 -7 -32 1.5851 2.2535
-35 -7 -30 -9.4070 -1.3610
-35 -7 -28 4.3256 13.5530
-35 -7 -26 8.5318 -10.1504
-35 -7 -24 -4.9005 0.7363
-35 -7 -22 9.0225 -13.2380
-35 -7 -20 3.4996 -4.9702
-35 -7 -18 10.5896 0.7098
-35 -7 -16 2.6793 -1.8621
-35 -7 -14 -11.1654 8.2962
-35 -7 -12 33.2148 -6.3670
-35 -7 -10 31.1414 -2.2164
-35 -7 -8 26.0312 28.9897
-35 -7 -6 -7.3209 -6.3254
-35 -7 -4 -15.5176 37.5462
-35 -7 -2 9.4489 10.8927
-35 -6 -33 1.2635 0.5908
-35 -6 -31 -10.3739 12.4637
-35 -6 -29 6.7687 -5.0303
-35 -6 -27 18.4650 -3.0999
-35 -6 -25 -0.4146 -0.5595
-35 -6 -23 8.3412 -1.6668
-35 -6 -21 -2.0673 1.4613
-35 -6 -19 8.0359 9.4188
-35 -6 -17 1.3229 1.2023
-35 -6 -15 -4.5118 2.4767
-35 -6 -13 11.2976 -12.2662
-35 -6 -11 24.3031 9.5283
-35 -6 -9 -9.9829 18.8000
-35 -6 -7 -24.0245 -5.7466
-35 -6 -5 -2.3544 25.6186
-35 -6 -3 32.6783 -0.0579
-35 -6 -1 -42.3026 1.5343
-35 -5 -32 -5.7899 2.3758
-35 -5 -30 -24.0957 -12.7312
-35 -5 -28 -5.3132 4.6528
-35 -5 -26 13.5623 -7.7492
-35 -5 -24 -0.9901 4.9680
-35 -5 -22 -6.8443 4.5975
-35 -5 -20 -0.8585 -8.8196
-35 -5 -18 -8.2034 -0.7209
-35 -5 -16 -0.9502 -0.5642
-35 -5 -14 2.5260 2.5875
-35 -5 -12 11.4529 2.8660
-35 -5 -10 -12.9330 -5.0644
-35 -5 -8 -30.9903 31.8914
-35 -5 -6 -19.6591 -6.5009
-35 -5 -4 -17.5983 24.8798
-35 -5 -2 24.7065 -8.0629
-35 -4 -33 -3.3846 0.5027
-35 -4 -31 -13.0632 -22.7141
-35 -4 -29 2.1832 17.2727
-35 -4 -27 -11.4591 10.8252
-35 -4 -25 -1.9292 -0.2469
-35 -4 -23 5.0615 -4.1596
-35 -4 -21 -6.6155 -1.0889
-35 -4 -19 -4.8060 -10.8557
-35 -4 -17 -3.6621 8.5809
-35 -4 -15 11.3783 -2.0538
-35 -4 -13 3.2845 -18.2946
-35 -4 -11 20.6557 -15.9178
-35 -4 -9 -9.0098 5.3137
-35 -4 -7 10.5109 -34.1485
-35 -4 -5 -2.0256 -6.3831
-35 -4 -3 -32.7472 -3.7471
-35 -4 -1 4.4022 10.5757
-35 -3 -32 4.2259 -5.9256
-35 -3 -30 -6.2849 0.8224
-35 -3 -28 10.9589 -2.9267
-35 -3 -26 -5.3690 -6.0985
-35 -3 -24 -0.1496 0.6521
-35 -3 -22 3.2217 -5.6602
-35 -3 -20 -9.6155 11.1528
-35 -3 -18 -1.1524 -11.3957
-35 -3 -16 -1.9689 4.7396
-35 -3 -14 -9.7767 -2.5429
-35 -3 -12 -6.8893 0.7050
-35 -3 -10 -6.4814 -6.9218
-35 -3 -8 -0.8607 38.7869
-35 -3 -6 -15.1795 -8.0118
-35 -3 -4 -7.9123 50.7144
-35 -3 -2 23.5286 7.1089
-35 -2 -33 13.7696 0.9474
-35 -2 -31 -0.0966 -2.0138
-35 -2 -29 5.6158 18.4558
-35 -2 -27 -11.9342 11.9333
-35 -2 -25 9.7464 0.5661
-35 -2 -23 4.8789 9.4805
-35 -2 -21 -7.9527 -5.4227
-35 -2 -19 -4.8763 -7.6552
-35 -2 -17 8.4919 0.5875
-35 -2 -15 23.1866 -1.1550
-35 -2 -13 22.6583 17.9397
-35 -2 -11 -41.1958 -15.2445
-35 -2 -9 -2.9955 -37.2980
-35 -2 -7 0.4868 -3.6575
-35 -2 -5 -20.3497 27.1393
-35 -2 -3 -6.9696 16.4747
-35 -2 -1 18.6397 16.3970
-35 -1 -32 -11.1363 -20.3270
-35 -1 -30 -10.8348 0.5940
-35 -1 -28 0.4610 4.8424
-35 -1 -26 -14.8513 -5.3431
-35 -1 -24 -1.7987 6.2696
-35 -1 -22 -3.8080 -0.5055
-35 -1 -20 -6.6046 -10.3478
-35 -1 -18 2.5308 22.7229
-35 -1 -16 3.4035 -0.7370
-35 -1 -14 -24.3280 4.0418
-35 -1 -12 29.7065 -14.5976
-35 -1 -10 3.1924 -0.1236
-35 -1 -8 -30.6832 -7.3697
-35 -1 -6 13.0174 -3.9546
-35 -1 -4 20.1551 -8.7596
-35 -1 -2 -26.2062 42.9722
-34 -33 -17 2.2429 3.9393
-34 -33 -15 -18.9241 -8.6209
-34 -33 -13 0.5985 3.2638
-34 -33 -11 -9.7558 23.3694
-34 -33 -9 7.8224 2.5024
-34 -33 -7 -10.6581 5.9396
-34 -33 -5 -9.7091 5.9112
-34 -33 -3 -0.2398 2.9345
-34 -33 -1 0.9364 -5.5215
-34 -32 -18 23.1492 -3.9092
-34 -32 -16 -5.4616 -2.9775
-34 -32 -14 -8.5790 -9.2477
-34 -32 -12 16.4231 15.2855
-34 -32 -10 9.0087 -1.6783
-34 -32 -8 3.4789 -7.5595
-34 -32 -6 6.2767 7.0643
-34 -32 -4 -2.0594 -1.2695
-34 -32 -2 -6.9466 -1.8391
-34 -31 -19 -5.9587 -11.0336
-34 -31 -17 0.4775 1.2297
-34 -31 -15 -18.4481 18.9934
-34 -31 -13 -9.5532 -12.5173
-34 -31 -11 -8.7540 16.1075
-34 -31 -9 5.3897 7.3389
-34 -31 -7 -7.3034 5.9651
-34 -31 -5 -1.5711 -1.7940
-34 -31 -3 -0.5171 -0.9767
-34 -31 -1 -1.0023 -13.5528
-34 -30 -20 4.8090 -3.1255
-34 -30 -18 -15.0911 6.9833
-34 -30 -16 -12.7722 -6.2005
-34 -30 -14 6.5151 22.0006
-34 -30 -12 -15.4134 -6.1793
-34 -30 -10 -5.4788 6.5343
-34 -30 -8 10.6423 -10.5371
-34 -30 -6 -10.1024 4.2381
-34 -30 -4 14.9061 3.0302
-34 -30 -2 14.3799 14.6787
-34 -29 -21 10.2338 0.6091
-34 -29 -19 7.4210 2.7871
-34 -29 -17 4.7928 16.0224
-34 -29 -15 7.4255 0.6283
-34 -29 -13 3.4441 11.7509
-34 -29 -11 -3.7382 15.9436
-34 -29 -9 18.2901 -14.3709
-34 -29 -7 6.9717 0.6439
-34 -29 -5 2.6375 21.5704
-34 -29 -3 -5.8746 -5.2377
-34 -29 -1 -4.7658 2.3329
-34 -28 -22 16.8454 5.6723
-34 -28 -20 10.9347 -16.5330
-34 -28 -18 -1.3498 -6.7885
-34 -28 -16 -10.1880 1.2398
-34 -28 -14 12.7875 4.5151
-34 -28 -12 8.1592 -3.0984
-34 -28 -10 5.5864 -7.3230
-34 -28 -8 6.4128 2.8703
-34 -28 -6 -8.5499 6.1354
-34 -28 -4 22.4122 7.3795
-34 -28 -2 10.0361 -1.1699
-34 -27 -23 8.5261 3.4158
-34 -27 -21 1.6702 -3.7704
-34 -27 -19 6.5796 4.7863
-34 -27 -17 -15.1140 12.5297
-34 -27 -15 15.0431 -11.5603
-34 -27 -13 -5.1117 -2.2952
-34 -27 -11 6.4296 -5.1823
-34 -27 -9 12.9765 -1.0418
-34 -27 -7 -4.5294 2.4908
-34 -27 -5 12.9096 -11.2520
-34 -27 -3 7.7376 1.2525
-34 -27 -1 4.0404 5.1511
-34 -26 -24 -1.4008 -10.3311
-34 -26 -22 -0.0882 12.8645
-34 -26 -20 -5.1991 10.5162
-34 -26 -18 -3.5576 -19.1716
-34 -26 -16 1.5902 21.3412
-34 -26 -14 -20.4728 13.5377
-34 -26 -12 -3.2960 -1.3617
-34 -26 -10 26.6130 2.8841
-34 -26 -8 -17.9338 1.2999
-34 -26 -6 -14.2026 -16.3542
-34 -26 -4 -6.3702 3.3334
-34 -26 -2 14.8766 -12.5326
-34 -25 -25 6.2978 19.9253
-34 -25 -23 6.7964 3.8991
-34 -25 -21 1.3422 7.9792
-34 -25 -19 -8.5839 8.0033
-34 -25 -17 -3.9555 6.7924
-34 -25 -15 15.4326 -6.4921
-34 -25 -13 -4.3838 -2.0354
-34 -25 -11 -1.0547 3.0223
-34 -25 -9 7.3351 5.4146
-34 -25 -7 -19.3953 -9.5517
-34 -25 -5 4.1017 -18.6474
-34 -25 -3 -7.6368 11.7774
-34 -25 -1 -9.8313 -2.1964
-34 -24 -26 0.1387 -0.8766
-34 -24 -24 12.2373 -0.1056
-34 -24 -22 -0.9315 -3.5047
-34 -24 -20 5.1906 -5.6330
-34 -24 -18 -28.2584 -0.2186
-34 -24 -16 2.9304 -4.7518
-34 -24 -14 28.3354 -1.3655
-34 -24 -12 -4.5101 -3.4123
-34 -24 -10 42.2164 -28.2461
-34 -24 -8 -0.7594 -4.5617
-34 -24 -6 24.5204 -8.5490
-34 -24 -4 -10.5399 4.5644
-34 -24 -2 -9.0354 -11.8837
-34 -23 -27 3.1833 -9.0013
-34 -23 -25 14.7158 2.2441
-34 -23 -23 8.1744 1.3610
-34 -23 -21 -0.0436 -12.0367
-34 -23 -19 -8.0774 1.3559
-34 -23 -17 -20.0468 10.4619
-34 -23 -15 -5.7824 4.0339
-34 -23 -13 7.6914 17.2745
-34 -23 -11 7.4405 5.9114
-34 -23 -9 8.9449 0.1029
-34 -23 -7 -4.5728 -8.5805
-34 -23 -5 11.2859 -18.2169
-34 -23 -3 26.0155 -29.8803
-34 -23 -1 -9.2835 -4.5015
-34 -22 -28 -2.1132 -0.6313
-34 -22 -26 -3.5434 -16.5426
-34 -22 -24 -2.7526 -13.0033
-34 -22 -22 -5.4835 -7.9661
-34 -22 -20 -4.6702 -8.9233
-34 -22 -18 -15.1772 0.4950
-34 -22 -16 9.8649 -0.9853
-34 -22 -14 29.7116 -2.7581
-34 -22 -12 -1.1742 -0.3320
-34 -22 -10 14.4291 -11.1246
-34 -22 -8 3.5405 -9.6340
-34 -22 -6 -21.5769 1.1475
-34 -22 -4 -13.6402 4.0731
-34 -22 -2 1.4942 -6.7987
-34 -21 -29 17.2511 -4.6443
-34 -21 -27 1.8807 0.5647
-34 -21 -25 -2.9635 -9.0500
-34 -21 -23 -11.7957 -10.5039
-34 -21 -21 -18.8972 1.2684
-34 -21 -19 -5.2415 -18.2249
-34 -21 -17 5.0094 10.2317
-34 -21 -15 -13.0058 5.1076
-34 -21 -13 -5.4144 -3.7725
-34 -21 -11 4.8004 11.8900
-34 -21 -9 14.4527 -14.7186
-34 -21 -7 -4.0406 -4.7431
-34 -21 -5 -22.9900 -12.1388
-34 -21 -3 -14.5885 12.3007
-34 -21 -1 13.1610 11.0165
-34 -20 -28 -19.4977 3.6905
-34 -20 -26 -5.9893 1.3867
-34 -20 -24 -20.4680 -16.2310
-34 -20 -22 6.3442 -11.3816
-34 -20 -20 23.4528 -8.9928
-34 -20 -18 -12.4095 -20.4505
-34 -20 -16 -19.3778 -8.9717
-34 -20 -14 -18.9654 18.5644
-34 -20 -12 2.0940 7.8002
-34 -20 -10 32.4591 5.0654
-34 -20 -8 7.9544 12.5882
-34 -20 -6 -31.3592 -21.4866
-34 -20 -4 -5.1947 14.8134
-34 -20 -2 25.8590 37.3760
-34 -19 -29 10.6263 2.6378
-34 -19 -27 4.4089 7.4557
-34 -19 -25 7.7654 8.8804
-34 -19 -23 17.2248 -1.1039
-34 -19 -21 -2.0968 -14.8132
-34 -19 -19 -17.0850 -5.0138
-34 -19 -17 -3.1754 4.8476
-34 -19 -15 -20.9454 -0.3610
-34 -19 -13 -7.6787 -10.0961
-34 -19 -11 -0.9380 11.4224
-34 -19 -9 23.9576 0.0870
-34 -19 -7 0.7492 -10.6005
-34 -19 -5 4.8238 22.7703
-34 -19 -3 -14.1767 -18.2377
-34 -19 -1 0.4683 -26.9783
-34 -18 -30 -15.6461 -22.8340
-34 -18 -28 4.5468 -2.3288
-34 -18 -26 -9.3883 18.5590
-34 -18 -24 7.9798 22.4000
-34 -18 -22 0.9346 12.4760
-34 -18 -20 -13.8204 -10.4300
-34 -18 -18 2.1736 -7.0376
-34 -18 -16 10.3806 16.5706
-34 -18 -14 -1.6971 -1.7882
-34 -18 -12 -30.8019 -5.0781
-34 -18 -10 -14.8500 20.4020
-34 -18 -8 0.3841 -1.9661
-34 -18 -6 1.3645 42.1133
-34 -18 -4 -1.3736 -14.7854
-34 -18 -2 54.1881 -13.1209
-34 -17 -31 12.7934 -27.9838
-34 -17 -29 -11.7305 -1.3040
-34 -17 -27 2.6358 -9.1456
-34 -17 -25 10.8609 9.0663
-34 -17 -23 -1.0927 -11.7151
-34 -17 -21 -6.6815 -4.5887
-34 -17 -19 -13.4514 -12.7302
-34 -17 -17 11.0761 -4.7884
-34 -17 -15 5.8851 -9.4096
-34 -17 -13 10.1828 -19.9839
-34 -17 -11 4.7586 18.5273
-34 -17 -9 12.1089 2.2176
-34 -17 -7 19.2145 16.7112
-34 -17 -5 7.5356 2.0276
-34 -17 -3 -34.2670 38.5498
-34 -17 -1 -8.4892 13.2415
-34 -16 -30 7.6511 15.8004
-34 -16 -28 2.8430 -1.1425
-34 -16 -26 -2.9326 20.9008
-34 -16 -24 0.1209 -12.7060
-34 -16 -22 -1.9616 2.7361
-34 -16 -20 2.5573 -0.3138
-34 -16 -18 -14.9933 9.9647
-34 -16 -16 -16.8528 3.6903
-34 -16 -14 0.0488 33.1907
-34 -16 -12 13.0636 5.0202
-34 -16 -10 35.3025 -10.2971
-34 -16 -8 -14.1250 -5.9208
-34 -16 -6 17.9474 42.9427
-34 -16 -4 7.2555 9.3887
-34 -16 -2 28.8300 4.3399
-34 -15 -31 -3.8314 -2.9298
-34 -15 -29 -8.2308 1.6477
-34 -15 -27 -12.7212 13.9014
-34 -15 -25 7.1975 -13.8165
-34 -15 -23 1.0047 -27.4319
-34 -15 -21 1.7779 4.7081
-34 -15 -19 -14.1475 29.4196
-34 -15 -17 14.1755 8.7893
-34 -15 -15 0.6095 -27.5089
-34 -15 -13 -3.9873 21.4089
-34 -15 -11 3.6027 -5.9382
-34 -15 -9 -23.8228 -7.7524
-34 -15 -7 -3.2270 -17.9075
-34 -15 -5 -5.4483 7.7380
-34 -15 -3 -18.0757 -5.5125
-34 -15 -1 -13.8071 -11.6479
-34 -14 -32 12.2736 -17.0831
-34 -14 -30 -21.0788 9.0862
-34 -14 -28 -3.3104 7.6873
-34 -14 -26 -3.2637 3.9723
-34 -14 -24 0.7353 -9.8434
-34 -14 -22 13.2626 -4.7801
-34 -14 -20 -5.4762 -19.5798
-34 -14 -18 -2.1663 -21.1213
-34 -14 -16 10.2620 5.5763
-34 -14 -14 -38.0388 26.4470
-34 -14 -12 18.8028 12.3479
-34 -14 -10 48.5585 -0.7183
-34 -14 -8 14.4732 13.8634
-34 -14 -6 48.8549 -2.6031
-34 -14 -4 25.7812 9.3415
-34 -14 -2 22.5560 10.6010
-34 -13 -31 11.7209 3.1084
-34 -13 -29 -1.8876 6.0816
-34 -13 -27 -8.2295 10.5589
-34 -13 -25 -0.3003 -13.3860
-34 -13 -23 4.5799 4.7688
-34 -13 -21 -11.8808 -1.1943
-34 -13 -19 15.2596 -13.9129
-34 -13 -17 8.0718 -0.6025
-34 -13 -15 16.4105 -10.2655
-34 -13 -13 -22.8152 -9.5727
-34 -13 -11 15.8474 -7.4267
-34 -13 -9 -26.3145 -6.1315
-34 -13 -7 17.3825 -5.0147
-34 -13 -5 -1.6313 4.4418
-34 -13 -3 10.6990 -8.0911
-34 -13 -1 6.0323 -16.5698
-34 -12 -32 -24.3782 6.6449
-34 -12 -30 2.2083 3.6603
-34 -12 -28 2.5136 8.8727
-34 -12 -26 8.0100 -3.2930
-34 -12 -24 12.4197 -4.3981
-34 -12 -22 3.3008 -8.7711
-34 -12 -20 -7.4660 5.0839
-34 -12 -18 -25.5551 3.5498
-34 -12 -16 -6.3237 2.7218
-34 -12 -14 5.8203 -14.6272
-34 -12 -12 0.4045 4.9797
-34 -12 -10 -26.5451 1.3931
-34 -12 -8 -4.5428 -10.8665
-34 -12 -6 18.2621 32.7516
-34 -12 -4 -19.2800 2.3604
-34 -12 -2 -38.4896 21.3250
-34 -11 -33 -3.5924 0.2470
-34 -11 -31 9.4861 22.3329
-34 -11 -29 -3.4735 9.6541
-34 -11 -27 8.9207 16.1471
-34 -11 -25 -4.6198 4.0556
-34 -11 -23 -2.7065 -2.5132
-34 -11 -21 5.1195 -7.2152
-34 -11 -19 2.1630 -11.2447
-34 -11 -17 2.5015 -4.9009
-34 -11 -15 8.2243 -4.9483
-34 -11 -13 17.4360 -6.7445
-34 -11 -11 21.6526 8.3187
-34 -11 -9 -27.0239 13.9654
-34 -11 -7 12.0246 32.4275
-34 -11 -5 -12.7618 6.2888
-34 -11 -3 5.1911 -8.0445
-34 -11 -1 3.5213 -4.0412
-34 -10 -32 6.8326 3.1410
-34 -10 -30 -8.5798 -1.8097
-34 -10 -28 -10.5624 -5.9661
-34 -10 -26 0.2487 14.1055
-34 -10 -24 -8.4331 -10.8512
-34 -10 -22 18.0845 12.4305
-34 -10 -20 -6.2721 -14.5518
-34 -10 -18 -0.7918 24.3313
-34 -10 -16 7.6239 5.3139
-34 -10 -14 -25.8890 -2.9773
-34 -10 -12 29.9057 -0.0103
-34 -10 -10 -22.4266 -43.0601
-34 -10 -8 -10.4553 3.7202
-34 -10 -6 3.9953 73.7067
-34 -10 -4 18.2335 -11.8340
-34 -10 -2 25.6500 -57.0244
-34 -9 -33 0.5404 0.5206
-34 -9 -31 14.6976 -16.9349
-34 -9 -29 -12.9393 8.4464
-34 -9 -27 -4.9130 5.4966
-34 -9 -25 5.2221 -12.7843
-34 -9 -23 -2.7789 1.4280
-34 -9 -21 9.6907 4.3544
-34 -9 -19 2.3043 20.3834
-34 -9 -17 -18.8517 -15.7574
-34 -9 -15 9.0804 -20.8643
-34 -9 -13 34.7458 5.5998
-34 -9 -11 -2.2730 4.4625
-34 -9 -9 -11.6435 38.8599
-34 -9 -7 -4.2811 16.6727
-34 -9 -5 -13.8085 34.0362
-34 -9 -3 8.2833 -23.2885
-34 -9 -1 -22.0762 -22.5902
-34 -8 -32 1.6287 4.9472
-34 -8 -30 -7.1579 -5.6114
-34 -8 -28 4.7277 1.6938
-34 -8 -26 -1.9452 -5.6769
-34 -8 -24 19.3130 10.0594
-34 -8 -22 0.8566 -8.1402
-34 -8 -20 -2.3854 -12.0724
-34 -8 -18 -10.4286 5.0780
-34 -8 -16 -16.5060 0.7158
-34 -8 -14 17.7120 16.1871
-34 -8 -12 -3.7853 -0.1658
-34 -8 -10 -37.5976 -6.4972
-34 -8 -8 21.3154 10.7054
-34 -8 -6 35.3371 48.1978
-34 -8 -4 15.3632 8.1778
-34 -8 -2 -18.4540 65.0541
-34 -7 -33 -12.2384 9.3117
-34 -7 -31 -2.8605 -12.6498
-34 -7 -29 -0.7164 4.2570
-34 -7 -27 9.3867 1.4282
-34 -7 -25 -5.8541 7.5904
-34 -7 -23 -1.5347 -2.7104
-34 -7 -21 12.6268 -6.3752
-34 -7 -19 -14.4706 12.3707
-34 -7 -17 9.3977 -1.6514
-34 -7 -15 14.6318 5.5688
-34 -7 -13 6.5432 11.5849
-34 -7 -11 11.0907 -10.9001
-34 -7 -9 -24.3541 16.0513
-34 -7 -7 -12.0212 40.0285
-34 -7 -5 -21.9304 1.3303
-34 -7 -3 28.4089 14.1537
-34 -7 -1 -9.5969 -12.2510
-34 -6 -34 16.6914 14.9405
-34 -6 -32 7.1068 0.1020
-34 -6 -30 -9.9010 6.8801
-34 -6 -28 -0.1593 -12.2095
-34 -6 -26 7.0537 10.5341
-34 -6 -24 -3.9259 -2.0441
-34 -6 -22 12.3710 -21.2465
-34 -6 -20 -4.3533 -0.5744
-34 -6 -18 -9.3757 -0.9668
-34 -6 -16 -7.5075 2.4400
-34 -6 -14 11.1043 1.6819
-34 -6 -12 2.4703 -6.9860
-34 -6 -10 -1.4229 9.5604
-34 -6 -8 -9.4892 33.6217
-34 -6 -6 -56.4167 -16.7219
-34 -6 -4 0.5823 17.6826
-34 -6 -2 7.8984 21.1452
-34 -5 -33 3.4141 1.7043
-34 -5 -31 3.8505 -15.9136
-34 -5 -29 -23.5703 -1.4320
-34 -5 -27 5.9376 13.6713
-34 -5 -25 -1.9575 4.4247
-34 -5 -23 -3.4866 15.8177
-34 -5 -21 -0.7267 -4.2259
-34 -5 -19 6.8370 -9.8038
-34 -5 -17 -1.0501 -0.6824
-34 -5 -15 -5.8554 3.3172
-34 -5 -13 -7.2122 28.4280
-34 -5 -11 -8.2542 9.2556
-34 -5 -9 -11.7908 41.6999
-34 -5 -7 4.3662 -28.9667
-34 -5 -5 -32.5592 -34.2085
-34 -5 -3 29.3039 29.8558
-34 -5 -1 12.3338 15.8118
-34 -4 -34 -8.0657 -9.7269
-34 -4 -32 5.5936 -2.4921
-34 -4 -30 4.9755 -9.7079
-34 -4 -28 -5.9087 -0.7427
-34 -4 -26 2.2609 -2.8486
-34 -4 -24 -5.6232 1.7786
-34 -4 -22 1.3571 7.2690
-34 -4 -20 -15.9942 0.6757
-34 -4 -18 4.1204 25.0653
-34 -4 -16 -5.4126 3.9448
-34 -4 -14 -10.4245 6.0160
-34 -4 -12 -8.7833 -11.2190
-34 -4 -10 8.0806 -24.7657
-34 -4 -8 24.2073 -3.3868
-34 -4 -6 5.4029 -27.3717
-34 -4 -4 -1.2765 -16.9795
-34 -4 -2 -28.6142 37.2223
-34 -3 -33 -0.8079 -1.3319
-34 -3 -31 -1.0338 1.7399
-34 -3 -29 9.1644 -2.9061
-34 -3 -27 3.6869 -1.9022
-34 -3 -25 7.6449 10.2196
-34 -3 -23 6.3271 -2.0286
-34 -3 -21 -5.3207 -4.2278
-34 -3 -19 1.0972 -10.3297
-34 -3 -17 -2.4018 11.9456
-34 -3 -15 -7.9013 7.7287
-34 -3 -13 12.3409 -3.3148
-34 -3 -11 7.0342 -27.2826
-34 -3 -9 20.8327 -2.9568
-34 -3 -7 8.9506 -21.6087
-34 -3 -5 -9.6432 9.2079
-34 -3 -3 -5.1292 -15.5812
-34 -3 -1 -11.2709 10.9459
-34 -2 -34 -1.6855 3.2904
-34 -2 -32 25.0502 -1.8875
-34 -2 -30 9.0645 -9.3028
-34 -2 -28 13.1403 8.1609
-34 -2 -26 -0.1447 -4.3680
-34 -2 -24 11.3784 -5.0452
-34 -2 -22 18.0359 -11.4516
-34 -2 -20 -15.9240 -1.2597
-34 -2 -18 -4.3759 19.4246
-34 -2 -16 11.8226 -29.2055
-34 -2 -14 -8.6737 2.9164
-34 -2 -12 -9.2053 13.4930
-34 -2 -10 14.8791 -15.5534
-34 -2 -8 -27.9663 -14.3458
-34 -2 -6 -27.7212 20.3565
-34 -2 -4 -8.5254 -29.3287
-34 -2 -2 -25.1445 27.6915
-34 -1 -33 11.8890 14.2283
-34 -1 -31 2.4283 -4.0636
-34 -1 -29 -14.0152 6.7906
-34 -1 -27 -12.8129 5.0091
-34 -1 -25 1.5172 7.7629
-34 -1 -23 2.5538 -1.8445
-34 -1 -21 13.5367 -7.8903
-34 -1 -19 -5.1364 -1.0634
-34 -1 -17 -5.8377 -4.7631
-34 -1 -15 -23.2683 -7.5988
-34 -1 -13 -43.1565 18.8410
-34 -1 -11 0.1031 48.3252
-34 -1 -9 17.4212 -8.6750
-34 -1 -7 1.0905 10.4944
-34 -1 -5 -2.8099 -12.5210
-34 -1 -3 -4.7084 9.4246
-34 -1 -1 -34.9127 14.4705
-33 -32 -19 4.0632 -3.5644
-33 -32 -17 4.4846 21.5812
-33 -32 -15 -16.8670 7.8271
-33 -32 -13 -7.1550 16.5159
-33 -32 -11 5.6598 4.2889
-33 -32 -9 -4.4907 21.3356
-33 -32 -7 -17.5798 4.9006
-33 -32 -5 8.7366 3.6097
-33 -32 -3 2.5455 -0.9029
-33 -32 -1 -19.9191 -3.9674
-33 -31 -20 -8.0975 0.9880
-33 -31 -18 -10.4120 -7.0298
-33 -31 -16 6.0092 -3.9715
-33 -31 -14 13.7311 -18.8770
-33 -31 -12 8.3042 -12.7045
-33 -31 -10 13.3710 -7.5166
-33 -31 -8 4.6647 10.6004
-33 -31 -6 -0.2070 3.1927
-33 -31 -4 -15.5466 -7.7707
-33 -31 -2 -14.7768 -3.2024
-33 -30 -23 24.2076 -3.3168
-33 -30 -21 -4.3590 24.5599
-33 -30 -19 0.3766 5.5301
-33 -30 -17 4.8135 3.2159
-33 -30 -15 14.3582 -10.1991
-33 -30 -13 -6.3346 -3.1276
-33 -30 -11 7.1586 -5.8287
-33 -30 -9 12.9263 4.2067
-33 -30 -7 -5.2579 -8.3931
-33 -30 -5 -0.6030 7.4305
-33 -30 -3 18.9843 -2.4272
-33 -30 -1 -12.9546 4.1321
-33 -29 -24 2.9355 -8.4863
-33 -29 -22 15.8680 -1.0001
-33 -29 -20 14.3911 7.7677
-33 -29 -18 2.6960 -6.0802
-33 -29 -16 -6.8134 4.7775
-33 -29 -14 -18.1088 -8.9519
-33 -29 -12 -1.9268 -16.6857
-33 -29 -10 13.2186 12.0594
-33 -29 -8 -12.8504 2.1266
-33 -29 -6 -1.8398 4.5104
-33 -29 -4 9.6774 2.6161
-33 -29 -2 10.7412 -7.7492
-33 -28 -23 1.7857 -6.0313
-33 -28 -21 11.5623 0.5733
-33 -28 -19 26.8587 0.0582
-33 -28 -17 -3.6618 8.2744
-33 -28 -15 -4.1178 3.0296
-33 -28 -13 -7.8669 -3.8247
-33 -28 -11 0.4337 -13.4006
-33 -28 -9 -7.8964 11.5057
-33 -28 -7 -18.0069 9.2118
-33 -28 -5 -8.6629 -5.3937
-33 -28 -3 12.7986 -5.2983
-33 -28 -1 9.4080 -0.9267
-33 -27 -24 -13.9857 4.8156
-33 -27 -22 0.8461 7.0139
-33 -27 -20 13.8215 -12.7102
-33 -27 -18 -3.9585 -12.2791
-33 -27 -16 -21.4919 -13.3831
-33 -27 -14 12.1760 -10.3045
-33 -27 -12 -16.6448 -10.8807
-33 -27 -10 -0.4923 10.4525
-33 -27 -8 22.8514 0.6037
-33 -27 -6 0.7613 -14.5131
-33 -27 -4 7.6754 -14.5696
-33 -27 -2 -1.4289 8.6628
-33 -26 -25 13.4535 12.6800
-33 -26 -23 -0.4151 7.4878
-33 -26 -21 13.7147 -0.7419
-33 -26 -19 10.6348 9.1532
-33 -26 -17 -2.5054 -17.3905
-33 -26 -15 0.7880 10.2437
-33 -26 -13 -5.1994 4.1088
-33 -26 -11 1.9669 5.7307
-33 -26 -9 10.9117 -5.5875
-33 -26 -7 -11.1009 18.9820
-33 -26 -5 -4.8185 -4.9977
-33 -26 -3 7.8691 7.2315
-33 -26 -1 -12.3463 -0.9123
-33 -25 -26 -13.2418 17.6332
-33 -25 -24 0.2805 5.0744
-33 -25 -22 4.9689 -7.3026
-33 -25 -20 -5.1883 -7.5959
-33 -25 -18 -9.3231 -15.8211
-33 -25 -16 -14.8571 -6.3580
-33 -25 -14 2.1633 10.5198
-33 -25 -12 -24.8112 -21.6272
-33 -25 -10 0.5216 8.0962
-33 -25 -8 -45.8590 46.0641
-33 -25 -6 -6.5439 -3.8211
-33 -25 -4 -4.2061 3.1518
-33 -25 -2 1.0138 -27.2213
-33 -24 -27 -2.8746 1.5447
-33 -24 -25 7.2810 13.9155
-33 -24 -23 13.8136 2.9337
-33 -24 -21 11.6449 -2.4557
-33 -24 -19 -13.7460 -10.7679
-33 -24 -17 -1.7785 2.0487
-33 -24 -15 14.9851 -12.3261
-33 -24 -13 18.5765 -0.4828
-33 -24 -11 5.7013 -16.8175
-33 -24 -9 -7.1678 -0.8077
-33 -24 -7 -23.6784 -3.0930
-33 -24 -5 -17.9431 3.3934
-33 -24 -3 -12.6095 -0.2408
-33 -24 -1 -4.8847 -10.4576
-33 -23 -28 -11.5495 -25.0147
-33 -23 -26 0.3991 0.2929
-33 -23 -24 -9.4786 -21.4462
-33 -23 -22 5.6940 -5.7051
-33 -23 -20 10.5591 13.0387
-33 -23 -18 -0.7400 8.8705
-33 -23 -16 -34.0610 6.9718
-33 -23 -14 -4.1600 -7.8448
-33 -23 -12 32.3629 -19.4333
-33 -23 -10 -2.9453 -2.5266
-33 -23 -8 9.2426 -25.8228
-33 -23 -6 3.4678 -8.5944
-33 -23 -4 -9.8157 -22.0775
-33 -23 -2 9.4632 -17.5382
-33 -22 -29 12.7712 -17.2436
-33 -22 -27 -0.0271 13.0835
-33 -22 -25 1.5747 23.7941
-33 -22 -23 -10.9674 6.4220
-33 -22 -21 -8.2590 -2.6247
-33 -22 -19 4.4320 -0.8976
-33 -22 -17 6.9615 12.5517
-33 -22 -15 -12.9274 13.2567
-33 -22 -13 2.8211 -16.4240
-33 -22 -11 9.6851 5.6184
-33 -22 -9 13.9899 9.3340
-33 -22 -7 16.3448 21.7991
-33 -22 -5 -28.9658 26.2271
-33 -22 -3 -0.7155 10.6069
-33 -22 -1 4.7364 -18.7124
-33 -21 -28 9.9940 4.1523
-33 -21 -26 -3.0706 3.0136
-33 -21 -24 -10.8947 10.9783
-33 -21 -22 -8.6638 8.3925
-33 -21 -20 -4.9589 13.4336
-33 -21 -18 -2.3110 -5.2964
-33 -21 -16 -14.7987 23.0508
-33 -21 -14 -2.5159 -2.7045
-33 -21 -12 14.7602 -14.0419
-33 -21 -10 7.4960 20.0312
-33 -21 -8 3.6105 -30.1386
-33 -21 -6 4.7533 -28.9167
-33 -21 -4 -5.0710 -37.8429
-33 -21 -2 -25.3045 -17.5159
-33 -20 -29 15.8537 9.5276
-33 -20 -27 -7.2718 -5.1910
-33 -20 -25 15.9166 -12.9493
-33 -20 -23 7.3557 -12.6410
-33 -20 -21 -6.7142 19.2399
-33 -20 -19 -9.2839 -3.6710
-33 -20 -17 -14.4263 9.6995
-33 -20 -15 7.1828 11.4295
-33 -20 -13 25.3094 -20.9952
-33 -20 -11 -2.8721 4.1183
-33 -20 -9 -0.3068 21.6432
-33 -20 -7 6.2182 -2.0674
-33 -20 -5 31.5073 32.8839
-33 -20 -3 -32.7925 15.4681
-33 -20 -1 1.8113 -27.8889
-33 -19 -30 -16.2468 -0.8455
-33 -19 -28 6.2349 -17.9044
-33 -19 -26 -13.7332 -19.1147
-33 -19 -24 -14.9753 -11.9144
-33 -19 -22 2.7679 -23.5166
-33 -19 -20 2.1001 -1.6598
-33 -19 -18 -9.5176 -2.7269
-33 -19 -16 -0.7778 16.8211
-33 -19 -14 -18.8140 -8.8951
-33 -19 -12 -1.7115 1.4665
-33 -19 -10 12.3060 -1.2410
-33 -19 -8 23.5446 -3.2679
-33 -19 -6 2.1395 5.1205
-33 -19 -4 -14.5279 -41.9283
-33 -19 -2 -5.5614 -29.7470
-33 -18 -31 12.9282 14.6047
-33 -18 -29 20.7779 2.3716
-33 -18 -27 4.5713 1.9379
-33 -18 -25 1.0842 8.5701
-33 -18 -23 -6.9943 7.9752
-33 -18 -21 -6.7758 -2.2888
-33 -18 -19 -4.1569 -17.0591
-33 -18 -17 -13.3358 8.4215
-33 -18 -15 -14.5358 11.1674
-33 -18 -13 31.1117 -1.4276
-33 -18 -11 21.9438 2.0272
-33 -18 -9 10.5336 20.9979
-33 -18 -7 -9.4588 -8.7833
-33 -18 -5 0.1029 -42.0820
-33 -18 -3 -27.1149 -31.5341
-33 -18 -1 26.3847 -2.2767
-33 -17 -30 -10.5337 -13.3684
-33 -17 -28 -15.1800 -12.9815
-33 -17 -26 -6.1649 26.1432
-33 -17 -24 -4.4162 8.1599
-33 -17 -22 -0.2962 -11.3581
-33 -17 -20 -13.3554 7.6788
-33 -17 -18 -14.9349 -2.6791
-33 -17 -16 12.5214 24.0619
-33 -17 -14 -31.6412 10.6705
-33 -17 -12 -17.2635 15.3525
-33 -17 -10 20.5131 -1.2192
-33 -17 -8 -17.0552 45.1669
-33 -17 -6 18.4608 2.2819
-33 -17 -4 15.9334 -48.8866
-33 -17 -2 -12.3387 14.4132
-33 -16 -31 -18.4387 9.1082
-33 -16 -29 9.2557 -15.5518
-33 -16 -27 -11.8053 -8.7082
-33 -16 -25 -3.0962 -3.6099
-33 -16 -23 -5.2355 14.9052
-33 -16 -21 -2.6718 16.0681
-33 -16 -19 2.8041 -11.9226
-33 -16 -17 -20.6668 -11.4208
-33 -16 -15 -6.9655 15.5656
-33 -16 -13 -4.6968 -16.5623
-33 -16 -11 27.4518 25.3981
-33 -16 -9 3.4466 5.6635
-33 -16 -7 30.3990 22.9908
-33 -16 -5 18.9385 -50.6018
-33 -16 -3 0.9244 33.0376
-33 -16 -1 -14.7227 41.1688
-33 -15 -32 -9.3909 18.9661
-33 -15 -30 18.9605 -2.6352
-33 -15 -28 1.5101 -5.6875
-33 -15 -26 -11.8998 5.1730
-33 -15 -24 -1.1166 11.3928
-33 -15 -22 15.4804 11.2206
-33 -15 -20 8.1187 -3.2713
-33 -15 -18 -14.0928 -5.7397
-33 -15 -16 -5.9723 26.2021
-33 -15 -14 -11.1109 -18.9711
-33 -15 -12 35.7408 -20.3026
-33 -15 -10 2.7845 -16.5694
-33 -15 -8 43.4287 -23.3399
-33 -15 -6 -17.6880 -8.2611
-33 -15 -4 34.5837 -13.1206
-33 -15 -2 -7.2404 56.5068
-33 -14 -33 3.4730 -0.7579
-33 -14 -31 -0.8357 -17.0845
-33 -14 -29 -16.3544 -12.7196
-33 -14 -27 8.3879 -8.8066
-33 -14 -25 3.3815 -14.4996
-33 -14 -23 -1.3261 2.2029
-33 -14 -21 14.4979 -17.6187
-33 -14 -19 -9.7270 -23.7642
-33 -14 -17 -10.6862 23.6638
-33 -14 -15 15.0341 3.2620
-33 -14 -13 21.4982 3.2890
-33 -14 -11 -12.6499 -9.9807
-33 -14 -9 -11.8890 8.3775
-33 -14 -7 -0.5617 -22.4393
-33 -14 -5 7.1007 -4.2851
-33 -14 -3 -1.5076 -28.7483
-33 -14 -1 -5.5168 22.8297
-33 -13 -32 -18.2411 -12.4721
-33 -13 -30 -5.6913 -1.4637
-33 -13 -28 1.1007 0.4559
-33 -13 -26 2.5675 -6.0120
-33 -13 -24 -20.9573 9.0962
-33 -13 -22 8.5010 9.4283
-33 -13 -20 7.8494 -6.3527
-33 -13 -18 -2.7941 -1.5943
-33 -13 -16 -19.2620 -2.5784
-33 -13 -14 42.9347 9.0046
-33 -13 -12 -13.9105 7.7448
-33 -13 -10 -5.6214 -14.7857
-33 -13 -8 -20.3627 35.7421
-33 -13 -6 10.9207 -15.3993
-33 -13 -4 33.6485 -7.7324
-33 -13 -2 -5.7086 21.6041
-33 -12 -33 -12.0742 10.1972
-33 -12 -31 -2.0484 13.1215
-33 -12 -29 5.4018 6.7423
-33 -12 -27 -18.6217 -0.6919
-33 -12 -25 19.4115 -3.7587
-33 -12 -23 6.8580 -5.0130
-33 -12 -21 19.4277 13.4001
-33 -12 -19 -0.8313 8.0393
-33 -12 -17 7.0254 7.0234
-33 -12 -15 2.5167 1.6087
-33 -12 -13 12.3878 -10.6404
-33 -12 -11 -9.1669 -13.7886
-33 -12 -9 -17.2768 10.2407
-33 -12 -7 -6.5011 5.8668
-33 -12 -5 -4.1968 12.6650
-33 -12 -3 -4.9275 -1.2376
-33 -12 -1 6.6644 -21.9553
-33 -11 -32 14.0510 2.0588
-33 -11 -30 15.5744 -6.1804
-33 -11 -28 2.6418 7.7900
-33 -11 -26 -4.5861 14.9521
-33 -11 -24 -7.3832 -6.6040
-33 -11 -22 -7.7231 0.2662
-33 -11 -20 3.9214 -2.3719
-33 -11 -18 0.1518 2.2071
-33 -11 -16 16.3843 4.4699
-33 -11 -14 23.5224 -0.0056
-33 -11 -12 -34.1490 9.1173
-33 -11 -10 -7.7650 4.9394
-33 -11 -8 36.2131 -26.0372
-33 -11 -6 22.6327 -8.0633
-33 -11 -4 43.3252 -10.0160
-33 -11 -2 -7.1638 8.9097
-33 -10 -33 3.0050 -0.0356
-33 -10 -31 -16.2691 8.9624
-33 -10 -29 -4.4629 3.8773
-33 -10 -27 4.1008 -6.4306
-33 -10 -25 20.5395 -0.7814
-33 -10 -23 0.7226 13.5761
-33 -10 -21 3.3179 2.4356
-33 -10 -19 -7.0655 -20.8249
-33 -10 -17 -16.2895 -8.5756
-33 -10 -15 3.5062 3.8907
-33 -10 -13 24.9157 -17.9905
-33 -10 -11 -31.9702 5.9596
-33 -10 -9 0.6316 -17.5446
-33 -10 -7 33.9857 -12.3099
-33 -10 -5 -14.2179 14.2351
-33 -10 -3 -12.9733 -7.7006
-33 -10 -1 -6.9792 -4.0080
-33 -9 -34 0.8029 -19.2796
-33 -9 -32 11.3506 -1.3533
-33 -9 -30 -2.9996 8.6261
-33 -9 -28 -12.2462 -7.9865
-33 -9 -26 -1.4919 0.9065
-33 -9 -24 0.9407 -3.3504
-33 -9 -22 -2.5128 -1.2766
-33 -9 -20 6.4767 8.6481
-33 -9 -18 -2.5145 -4.9067
-33 -9 -16 -21.5497 -21.3096
-33 -9 -14 21.7976 -13.3731
-33 -9 -12 17.7984 7.9960
-33 -9 -10 -33.9923 8.7950
-33 -9 -8 -11.2303 58.5938
-33 -9 -6 -10.6032 5.2364
-33 -9 -4 -22.0886 -51.2036
-33 -9 -2 -0.1160 4.3948
-33 -8 -33 2.6279 3.2921
-33 -8 -31 2.7873 20.9509
-33 -8 -29 2.0071 5.2924
-33 -8 -27 -13.1335 -8.0625
-33 -8 -25 -10.0147 -2.5764
-33 -8 -23 11.9021 -12.9641
-33 -8 -21 -4.5117 -11.1000
-33 -8 -19 27.6515 0.5138
-33 -8 -17 2.9630 16.9691
-33 -8 -15 4.0245 3.7663
-33 -8 -13 -27.4496 -15.1945
-33 -8 -11 18.7928 21.5599
-33 -8 -9 5.0850 -21.2615
-33 -8 -7 1.4334 -20.7681
-33 -8 -5 -19.5792 6.6962
-33 -8 -3 8.1150 -18.3324
-33 -8 -1 -44.3159 13.2424
-33 -7 -34 4.9505 13.8913
-33 -7 -32 -3.0962 2.3409
-33 -7 -30 12.2050 -11.4697
-33 -7 -28 11.4688 -5.2953
-33 -7 -26 9.8648 -14.9179
-33 -7 -24 2.3716 16.8188
-33 -7 -22 1.3172 -5.0615
-33 -7 -20 8.5949 -6.0281
-33 -7 -18 -14.0888 -4.7500
-33 -7 -16 -12.0468 -0.0702
-33 -7 -14 -14.8535 8.4981
-33 -7 -12 -17.6172 -6.0729
-33 -7 -10 -15.8399 18.4172
-33 -7 -8 -6.5056 19.1423
-33 -7 -6 35.5788 9.6367
-33 -7 -4 -17.1024 -47.8497
-33 -7 -2 2.0977 -0.1171
-33 -6 -33 -5.7743 2.5728
-33 -6 -31 6.5472 7.8096
-33 -6 -29 10.7176 -9.6143
-33 -6 -27 -0.0879 -4.4236
-33 -6 -25 -2.5199 2.1246
-33 -6 -23 14.0702 10.6381
-33 -6 -21 6.7364 -12.1793
-33 -6 -19 9.2745 10.1023
-33 -6 -17 11.6424 12.0518
-33 -6 -15 -12.3385 -0.2064
-33 -6 -13 -4.2324 -19.7053
-33 -6 -11 9.3071 -22.2989
-33 -6 -9 4.0826 22.5579
-33 -6 -7 -1.6252 4.6222
-33 -6 -5 -30.9366 -29.5241
-33 -6 -3 -39.6462 1.6529
-33 -6 -1 -39.0878 -19.0529
-33 -5 -34 -2.7676 -0.5009
-33 -5 -32 -12.2603 8.2271
-33 -5 -30 8.1542 -15.4943
-33 -5 -28 -0.9072 2.6185
-33 -5 -26 -4.2325 1.7975
-33 -5 -24 -6.9016 -1.8444
-33 -5 -22 4.6351 27.0121
-33 -5 -20 -4.9047 1.7158
-33 -5 -18 4.1956 11.2923
-33 -5 -16 21.6538 -0.3382
-33 -5 -14 2.2044 21.3421
-33 -5 -12 21.7053 -28.0592
-33 -5 -10 -1.5095 20.9512
-33 -5 -8 32.3788 13.5982
-33 -5 -6 22.3145 -14.4691
-33 -5 -4 -25.6917 -1.9306
-33 -5 -2 -12.3233 -13.8192
-33 -4 -35 -0.4830 -2.7697
-33 -4 -33 -13.2825 0.5458
-33 -4 -31 -0.8893 -2.5096
-33 -4 -29 -3.4524 5.7929
-33 -4 -27 16.9516 4.2732
-33 -4 -25 -0.1310 1.2690
-33 -4 -23 -16.2853 4.9830
-33 -4 -21 -9.7579 1.6536
-33 -4 -19 -4.0116 22.5224
-33 -4 -17 16.0026 8.0525
-33 -4 -15 -23.4948 11.9342
-33 -4 -13 10.9691 16.0186
-33 -4 -11 -33.8983 -17.9541
-33 -4 -9 -17.7369 -8.9354
-33 -4 -7 -13.2336 4.3218
-33 -4 -5 30.9376 6.6495
-33 -4 -3 -27.3241 8.3335
-33 -4 -1 19.7056 0.9038
-33 -3 -34 -2.8185 4.4174
-33 -3 -32 -0.3171 2.7883
-33 -3 -30 12.3680 11.4562
-33 -3 -28 -0.3916 2.2661
-33 -3 -26 3.5594 -0.2183
-33 -3 -24 2.4422 -1.1758
-33 -3 -22 8.9344 -4.4042
-33 -3 -20 8.5012 0.0905
-33 -3 -18 6.0680 -5.2273
-33 -3 -16 -4.2760 3.6360
-33 -3 -14 -28.9664 -7.9316
-33 -3 -12 -11.5073 -3.9799
-33 -3 -10 9.3070 10.4379
-33 -3 -8 17.9347 18.8267
-33 -3 -6 -20.5452 30.5235
-33 -3 -4 9.0773 -21.5426
-33 -3 -2 -5.6941 -49.5152
-33 -2 -35 -3.7825 2.4665
-33 -2 -33 -16.8633 15.6155
-33 -2 -31 19.3584 4.4465
-33 -2 -29 -6.4723 10.1153
-33 -2 -27 -22.5527 -4.2134
-33 -2 -25 7.2105 -2.4167
-33 -2 -23 -11.5914 -3.1999
-33 -2 -21 -2.8310 6.5093
-33 -2 -19 20.1830 -0.2596
-33 -2 -17 -0.4652 -1.9765
-33 -2 -15 -0.0965 15.0510
-33 -2 -13 -2.0293 -8.6084
-33 -2 -11 -8.9161 -6.3761
-33 -2 -9 -11.5354 33.9530
-33 -2 -7 0.3335 3.9720
-33 -2 -5 4.7117 15.0194
-33 -2 -3 10.2816 -11.0681
-33 -2 -1 3.2334 -19.3394
-33 -1 -34 1.1456 0.2305
-33 -1 -32 5.9570 16.7886
-33 -1 -30 3.8048 -19.8407
-33 -1 -28 -9.5525 -7.0361
-33 -1 -26 1.3799 -1.4356
-33 -1 -24 5.6484 1.3177
-33 -1 -22 -7.9706 10.0940
-33 -1 -20 14.0452 7.0493
-33 -1 -18 6.3230 1.6667
-33 -1 -16 -5.7441 -18.7052
-33 -1 -14 -30.1902 -1.1619
-33 -1 -12 -13.1113 -36.4502
-33 -1 -10 21.7165 26.8218
-33 -1 -8 -7.4788 30.9691
-33 -1 -6 0.1652 -18.1625
-33 -1 -4 13.3739 -25.5627
-33 -1 -2 5.1888 1.4279
-32 -31 -23 7.5508 16.3025
-32 -31 -21 11.8909 7.7356
-32 -31 -19 -11.4518 -8.2340
-32 -31 -17 -7.4968 9.9137
-32 -31 -15 9.9785 -5.0520
-32 -31 -13 -5.5311 -6.0187
-32 -31 -11 6.0229 2.5203
-32 -31 -9 6.1230 -16.1566
-32 -31 -7 -14.1422 3.2810
-32 -31 -5 -8.1838 -15.3538
-32 -31 -3 -2.2216 13.0382
-32 -31 -1 -2.0920 3.8141
-32 -30 -24 14.1548 7.2773
-32 -30 -22 -1.6753 -1.7000
-32 -30 -20 -6.4287 -2.0139
-32 -30 -18 -0.5450 -4.7069
-32 -30 -16 -2.2034 1.4809
-32 -30 -14 15.7435 1.9486
-32 -30 -12 18.1545 7.6867
-32 -30 -10 8.2921 -8.7422
-32 -30 -8 -1.7859 -0.2778
-32 -30 -6 -4.3029 11.4313
-32 -30 -4 18.5765 3.2060
-32 -30 -2 1.2449 -4.8187
-32 -29 -25 -12.6412 -12.5592
-32 -29 -23 0.0809 2.0631
-32 -29 -21 15.8297 5.3292
-32 -29 -19 0.3679 7.8431
-32 -29 -17 0.5489 -6.7707
-32 -29 -15 -8.4476 23.3537
-32 -29 -13 5.2856 1.6561
-32 -29 -11 12.5612 -12.2045
-32 -29 -9 -15.6909 -14.6155
-32 -29 -7 4.9398 -5.7299
-32 -29 -5 -2.9334 14.0713
-32 -29 -3 -1.2592 -17.9327
-32 -29 -1 -3.9399 -10.7538
-32 -28 -24 10.5939 10.0094
-32 -28 -22 0.7536 -3.1497
-32 -28 -20 1.7854 -11.0229
-32 -28 -18 4.0627 -6.3333
-32 -28 -16 -6.5674 -6.4215
-32 -28 -14 -11.6296 2.8328
-32 -28 -12 15.7257 -1.9055
-32 -28 -10 1.2129 16.5094
-32 -28 -8 5.5749 3.7580
-32 -28 -6 -4.8952 -29.9287
-32 -28 -4 -24.3724 7.5525
-32 -28 -2 -8.6359 -23.8554
-32 -27 -25 2.2626 2.4067
-32 -27 -23 5.8698 5.2703
-32 -27 -21 -13.1317 7.2439
-32 -27 -19 3.1351 -13.7955
-32 -27 -17 14.2158 8.2207
-32 -27 -15 5.7656 7.9371
-32 -27 -13 8.3584 3.7457
-32 -27 -11 8.9023 -8.0727
-32 -27 -9 -8.5280 -1.7523
-32 -27 -7 -9.0723 1.3334
-32 -27 -5 -5.4215 3.6923
-32 -27 -3 8.3480 -34.1511
-32 -27 -1 1.8398 -7.9408
-32 -26 -26 0.0135 1.3107
-32 -26 -24 -0.9088 4.6152
-32 -26 -22 0.1599 -16.9069
-32 -26 -20 2.8736 9.7972
-32 -26 -18 16.7261 -16.6728
-32 -26 -16 0.7956 8.1944
-32 -26 -14 -35.4087 6.7226
-32 -26 -12 1.2681 2.0984
-32 -26 -10 -51.6429 -31.8925
-32 -26 -8 6.5427 20.7163
-32 -26 -6 11.7834 15.8985
-32 -26 -4 14.5671 15.6935
-32 -26 -2 -0.7495 -21.3639
-32 -25 -27 2.0101 3.3726
-32 -25 -25 3.8493 -5.6780
-32 -25 -23 4.2417 5.5457
-32 -25 -21 4.6922 13.3260
-32 -25 -19 0.3374 0.1435
-32 -25 -17 -11.2603 -2.5278
-32 -25 -15 6.8111 -3.7761
-32 -25 -13 -1.7456 3.7761
-32 -25 -11 -8.0734 1.3931
-32 -25 -9 3.2362 -0.4295
-32 -25 -7 4.6188 -4.4705
-32 -25 -5 -22.4134 -5.2699
-32 -25 -3 -25.2390 21.0932
-32 -25 -1 -9.6396 -0.4447
-32 -24 -28 13.5488 14.8176
-32 -24 -26 8.1978 21.6681
-32 -24 -24 -4.2150 -5.8472
-32 -24 -22 -23.3677 -7.6568
-32 -24 -20 3.1339 -18.5207
-32 -24 -18 11.2726 7.4445
-32 -24 -16 -2.2134 -10.1677
-32 -24 -14 -65.6978 -23.1836
-32 -24 -12 -8.7169 -6.2744
-32 -24 -10 -54.4040 3.5346
-32 -24 -8 -1.2347 -3.9262
-32 -24 -6 -13.0263 36.6437
-32 -24 -4 -14.0283 2.5638
-32 -24 -2 1.5007 8.5137
-32 -23 -29 -13.9890 -8.3213
-32 -23 -27 6.5913 11.6583
-32 -23 -25 11.9162 -16.3199
-32 -23 -23 4.5555 4.4483
-32 -23 -21 9.3489 -0.2372
-32 -23 -19 -7.6105 3.1078
-32 -23 -17 2.2698 -17.4304
-32 -23 -15 -14.0615 -5.0123
-32 -23 -13 2.1847 -1.7629
-32 -23 -11 -22.8574 23.2060
-32 -23 -9 -24.5879 -2.3843
-32 -23 -7 -14.5217 13.2845
-32 -23 -5 31.6799 -3.7350
-32 -23 -3 41.4763 -24.2973
-32 -23 -1 -3.0697 -6.4467
-32 -22 -30 -4.5122 -4.0320
-32 -22 -28 -13.1311 2.5619
-32 -22 -26 -4.6041 -3.3639
-32 -22 -24 -7.8937 0.0725
-32 -22 -22 -6.1251 -8.9141
-32 -22 -20 -17.0464 -5.3759
-32 -22 -18 13.7160 -27.1256
-32 -22 -16 14.1565 9.6729
-32 -22 -14 -8.0847 28.7413
-32 -22 -12 0.1573 -12.3329
-32 -22 -10 -63.5227 3.1726
-32 -22 -8 -0.6991 -14.6738
-32 -22 -6 20.7538 32.9348
-32 -22 -4 9.3313 19.5771
-32 -22 -2 30.0801 -6.6234
-32 -21 -29 -10.2891 24.9506
-32 -21 -27 13.2780 -11.4111
-32 -21 -25 2.9383 -7.1091
-32 -21 -23 -12.8043 3.9936
-32 -21 -21 -2.8534 -12.9621
-32 -21 -19 8.3125 -14.2906
-32 -21 -17 -15.6086 24.3856
-32 -21 -15 19.1355 -1.0914
-32 -21 -13 -0.8959 -2.8454
-32 -21 -11 -1.7235 18.3555
-32 -21 -9 -18.7356 4.6380
-32 -21 -7 -9.3828 -10.6790
-32 -21 -5 -35.0201 11.6801
-32 -21 -3 23.5541 -28.1085
-32 -21 -1 23.7814 -20.7246
-32 -20 -30 8.2929 -10.1904
-32 -20 -28 -19.1123 2.2335
-32 -20 -26 -5.9815 -2.3751
-32 -20 -24 -5.1371 -10.1830
-32 -20 -22 -6.1781 -6.6272
-32 -20 -20 -5.3632 -0.9246
-32 -20 -18 2.7379 18.2459
-32 -20 -16 -19.3146 0.2015
-32 -20 -14 -25.8286 0.3856
-32 -20 -12 1.2806 -11.2957
-32 -20 -10 27.1854 -1.2043
-32 -20 -8 2.4846 -4.0980
-32 -20 -6 27.7443 26.6787
-32 -20 -4 9.7905 -2.5505
-32 -20 -2 10.5787 -58.2136
-32 -19 -31 -3.7671 -21.7764
-32 -19 -29 -6.0332 -3.4387
-32 -19 -27 12.6006 17.1456
-32 -19 -25 -18.8387 -5.0368
-32 -19 -23 10.8086 13.5908
-32 -19 -21 -9.8311 -10.1262
-32 -19 -19 -15.3588 13.6932
-32 -19 -17 6.1922 20.1683
-32 -19 -15 6.7063 -19.3703
-32 -19 -13 14.8402 -18.3376
-32 -19 -11 -13.0713 30.2503
-32 -19 -9 -15.3186 19.5334
-32 -19 -7 -12.2738 -21.8274
-32 -19 -5 7.4766 21.5678
-32 -19 -3 -29.0325 -7.2061
-32 -19 -1 -1.5912 -37.6857
-32 -18 -32 -8.8256 -26.5402
-32 -18 -30 -14.0864 0.5681
-32 -18 -28 -17.3913 -6.9199
-32 -18 -26 -8.6667 0.9598
-32 -18 -24 -9.7268 -15.7542
-32 -18 -22 -17.9985 9.3663
-32 -18 -20 -11.0868 5.2303
-32 -18 -18 18.6350 3.5254
-32 -18 -16 -29.1836 -5.0031
-32 -18 -14 -14.7673 -2.9386
-32 -18 -12 48.4876 -9.7030
-32 -18 -10 44.1438 -6.9218
-32 -18 -8 -10.9421 6.3394
-32 -18 -6 22.6364 -60.4136
-32 -18 -4 -15.6044 -7.5102
-32 -18 -2 -7.0416 -65.1565
-32 -17 -31 -10.0472 19.3727
-32 -17 -29 -8.0904 28.6108
-32 -17 -27 17.2267 2.7613
-32 -17 -25 17.7928 14.4993
-32 -17 -23 -8.3894 -13.2057
-32 -17 -21 7.1197 3.1610
-32 -17 -19 1.5556 10.4992
-32 -17 -17 -7.5147 -3.2923
-32 -17 -15 8.6367 25.6061
-32 -17 -13 2.0905 -3.4048
-32 -17 -11 -7.1526 11.6880
-32 -17 -9 -21.3273 -54.3476
-32 -17 -7 -3.2462 -1.0078
-32 -17 -5 18.9007 19.1916
-32 -17 -3 28.4504 -25.3750
-32 -17 -1 12.4854 25.1249
-32 -16 -32 -3.1701 17.1644
-32 -16 -30 2.4340 -13.9125
-32 -16 -28 4.1607 -1.1744
-32 -16 -26 2.2662 -18.0767
-32 -16 -24 6.8880 0.0374
-32 -16 -22 9.3980 7.2730
-32 -16 -20 -5.9765 5.5268
-32 -16 -18 14.2631 -15.0675
-32 -16 -16 0.1185 1.3348
-32 -16 -14 -18.2144 6.4432
-32 -16 -12 -6.6635 18.6230
-32 -16 -10 -19.6375 13.1875
-32 -16 -8 -8.2994 16.9244
-32 -16 -6 22.6445 42.4025
-32 -16 -4 61.8248 -3.5212
-32 -16 -2 0.6913 47.5987
-32 -15 -33 -0.9915 -12.8622
-32 -15 -31 16.7419 18.0576
-32 -15 -29 -10.7921 -7.9636
-32 -15 -27 -7.9166 -4.4580
-32 -15 -25 -6.9046 -2.8872
-32 -15 -23 -8.0666 7.7886
-32 -15 -21 7.6505 -10.3676
-32 -15 -19 11.3520 22.4465
-32 -15 -17 -7.4770 -5.4204
-32 -15 -15 2.2264 4.1171
-32 -15 -13 -10.6781 10.6821
-32 -15 -11 -2.4130 -3.4015
-32 -15 -9 -5.7413 -5.0438
-32 -15 -7 -3.0256 23.8740
-32 -15 -5 29.3815 37.0452
-32 -15 -3 39.1288 -48.9410
-32 -15 -1 -15.9268 13.7611
-32 -14 -32 6.2743 -21.7411
-32 -14 -30 -2.0702 -11.4446
-32 -14 -28 7.3744 11.3030
-32 -14 -26 16.8700 12.8875
-32 -14 -24 14.7868 2.0074
-32 -14 -22 0.5060 -18.2449
-32 -14 -20 0.6797 -16.2780
-32 -14 -18 -0.8084 10.4482
-32 -14 -16 -14.1876 -3.2065
-32 -14 -14 2.2836 -15.4647
-32 -14 -12 21.7148 1.2289
-32 -14 -10 42.4647 -42.4070
-32 -14 -8 -1.0949 16.1980
-32 -14 -6 -28.4709 -20.8905
-32 -14 -4 58.0699 -15.5260
-32 -14 -2 18.2175 -26.3138
-32 -13 -33 17.4813 17.1401
-32 -13 -31 -12.6085 -14.5416
-32 -13 -29 -7.3293 2.6380
-32 -13 -27 -10.2213 -4.5701
-32 -13 -25 -9.3398 5.8615
-32 -13 -23 -0.2883 -8.4311
-32 -13 -21 10.3945 -4.9997
-32 -13 -19 2.2124 -18.0492
-32 -13 -17 -0.3696 -22.4535
-32 -13 -15 8.5698 5.4047
-32 -13 -13 -0.9818 34.8568
-32 -13 -11 3.6089 -0.6388
-32 -13 -9 -12.2426 1.5061
-32 -13 -7 -1.9538 14.5171
-32 -13 -5 -20.7768 -5.7443
-32 -13 -3 -0.9410 -12.9440
-32 -13 -1 2.3633 -14.5998
-32 -12 -34 -1.9742 -0.3741
-32 -12 -32 -6.6251 -9.1957
-32 -12 -30 5.7717 -6.1353
-32 -12 -28 -8.2726 7.3539
-32 -12 -26 -6.3841 -4.5104
-32 -12 -24 7.7091 -3.1788
-32 -12 -22 -0.6015 -12.6590
-32 -12 -20 3.4059 -3.6683
-32 -12 -18 -19.5502 -8.9679
-32 -12 -16 -0.9306 10.2550
-32 -12 -14 21.8734 -15.7199
-32 -12 -12 -23.2172 3.0956
-32 -12 -10 16.5685 -12.0483
-32 -12 -8 -15.9810 6.6999
-32 -12 -6 -29.1811 -16.0633
-32 -12 -4 -4.5849 13.3787
-32 -12 -2 -7.3395 -18.0903
-32 -11 -33 0.8773 2.5768
-32 -11 -31 13.5422 0.2160
-32 -11 -29 -3.2544 6.4046
-32 -11 -27 5.1795 4.2801
-32 -11 -25 -3.6671 6.6173
-32 -11 -23 9.4375 -8.7129
-32 -11 -21 4.7715 -9.6872
-32 -11 -19 6.3625 -3.4826
-32 -11 -17 -31.0855 1.7771
-32 -11 -15 24.1266 -1.2260
-32 -11 -13 -12.5361 8.5519
-32 -11 -11 9.0844 -8.9487
-32 -11 -9 20.8864 -15.1987
-32 -11 -7 -4.8243 24.8216
-32 -11 -5 46.1583 8.3742
-32 -11 -3 -9.6066 -5.3824
-32 -11 -1 4.5892 -17.7275
-32 -10 -34 5.8202 18.8661
-32 -10 -32 1.6796 -3.8051
-32 -10 -30 14.6136 -17.3889
-32 -10 -28 8.8158 -1.2726
-32 -10 -26 6.2080 -9.8116
-32 -10 -24 8.7806 13.0481
-32 -10 -22 -13.4474 -1.9511
-32 -10 -20 -4.6966 -13.2711
-32 -10 -18 2.2766 -8.3366
-32 -10 -16 13.9738 -8.0238
-32 -10 -14 25.7898 -11.8077
-32 -10 -12 -16.7113 0.1649
-32 -10 -10 33.1193 -6.7359
-32 -10 -8 -33.9975 3.7132
-32 -10 -6 -31.2125 -10.1664
-32 -10 -4 -10.7699 16.9234
-32 -10 -2 -42.1402 0.9292
-32 -9 -35 2.1962 -7.2034
-32 -9 -33 -11.7192 19.1704
-32 -9 -31 -5.6980 9.8849
-32 -9 -29 -5.5011 -7.5054
-32 -9 -27 -6.5539 -5.1635
-32 -9 -25 -0.5121 1.8696
-32 -9 -23 1.1488 6.6757
-32 -9 -21 -6.9960 -10.8838
-32 -9 -19 -13.9761 8.7569
-32 -9 -17 -1.5226 -8.6331
-32 -9 -15 -6.3335 -16.7353
-32 -9 -13 -7.3266 0.4309
-32 -9 -11 -4.9256 37.4103
-32 -9 -9 -23.8818 13.7622
-32 -9 -7 -10.9133 25.2775
-32 -9 -5 28.9795 13.1018
-32 -9 -3 21.5943 11.4402
-32 -9 -1 -8.8215 1.4480
-32 -8 -34 0.7330 -2.4239
-32 -8 -32 -0.2632 23.7292
-32 -8 -30 7.2773 5.2834
-32 -8 -28 8.9100 4.1717
-32 -8 -26 2.3141 -0.7771
-32 -8 -24 13.5441 -9.2367
-32 -8 -22 -2.5164 -3.8989
-32 -8 -20 -7.1141 0.3034
-32 -8 -18 3.9665 17.3739
-32 -8 -16 1.7389 13.8789
-32 -8 -14 1.4088 -6.4445
-32 -8 -12 2.9858 -21.1550
-32 -8 -10 23.1127 -1.1439
-32 -8 -8 -36.7829 -25.7678
-32 -8 -6 -26.8081 44.2944
-32 -8 -4 8.3245 -5.0584
-32 -8 -2 -77.9190 0.0513
-32 -7 -35 -2.3020 11.6054
-32 -7 -33 1.4944 0.5287
-32 -7 -31 -0.5341 -3.9590
-32 -7 -29 12.3091 6.8216
-32 -7 -27 4.8913 7.3204
-32 -7 -25 1.1536 0.2516
-32 -7 -23 4.1176 -5.5924
-32 -7 -21 13.5888 10.8215
-32 -7 -19 -4.3594 7.0350
-32 -7 -17 3.8935 -14.5714
-32 -7 -15 8.3355 15.5376
-32 -7 -13 4.2793 -5.9088
-32 -7 -11 -5.0219 -16.1922
-32 -7 -9 23.2323 -12.9544
-32 -7 -7 -28.5663 2.9819
-32 -7 -5 36.8798 -24.9015
-32 -7 -3 -10.8712 -30.0710
-32 -7 -1 -8.4775 18.0275
-32 -6 -34 -1.1895 2.5212
-32 -6 -32 -11.2811 -1.4609
-32 -6 -30 -0.7162 19.0044
-32 -6 -28 2.0789 -2.9701
-32 -6 -26 5.1121 10.5676
-32 -6 -24 5.9600 -8.3328
-32 -6 -22 0.0652 -10.9420
-32 -6 -20 3.5540 8.7373
-32 -6 -18 -1.5229 21.6239
-32 -6 -16 15.2965 -2.6734
-32 -6 -14 -9.7472 12.3484
-32 -6 -12 -14.3384 -7.6172
-32 -6 -10 15.6956 5.3101
-32 -6 -8 -3.6264 8.0521
-32 -6 -6 23.7509 -3.1563
-32 -6 -4 -11.0729 -10.9002
-32 -6 -2 18.7322 32.4479
-32 -5 -35 0.5710 0.6821
-32 -5 -33 -6.6817 -22.0404
-32 -5 -31 -22.4715 0.7524
-32 -5 -29 12.4881 -4.8246
-32 -5 -27 -4.9950 24.5602
-32 -5 -25 -5.3623 5.0748
-32 -5 -23 5.6214 -6.9576
-32 -5 -21 2.0391 -16.3192
-32 -5 -19 -13.7679 6.1443
-32 -5 -17 -0.1832 -14.4944
-32 -5 -15 4.3571 -6.4964
-32 -5 -13 -14.6687 13.3993
-32 -5 -11 6.4005 -17.4695
-32 -5 -9 -0.5755 2.2235
-32 -5 -7 1.8238 -7.4106
-32 -5 -5 -8.7615 -28.7330
-32 -5 -3 -38.2031 -15.6553
-32 -5 -1 7.0625 -29.0457
-32 -4 -34 -19.4446 6.3012
-32 -4 -32 -19.0479 8.5903
-32 -4 -30 -10.1332 -11.2391
-32 -4 -28 3.8836 1.1787
-32 -4 -26 -4.1181 -2.1719
-32 -4 -24 6.0537 1.8286
-32 -4 -22 -2.8533 -4.1255
-32 -4 -20 11.6060 6.4440
-32 -4 -18 -11.4399 9.4689
-32 -4 -16 -18.2368 18.6702
-32 -4 -14 2.2262 -2.0879
-32 -4 -12 0.9801 2.0780
-32 -4 -10 28.5848 26.2935
-32 -4 -8 14.3485 15.1187
-32 -4 -6 -12.3073 -35.5854
-32 -4 -4 -31.4163 -6.0722
-32 -4 -2 23.1369 -28.0015
-32 -3 -35 10.2532 -8.1510
-32 -3 -33 10.6204 9.3333
-32 -3 -31 3.7411 0.2656
-32 -3 -29 0.8068 5.4428
-32 -3 -27 -7.6792 3.8692
-32 -3 -25 6.4287 7.0631
-32 -3 -23 7.9131 -3.7665
-32 -3 -21 6.0902 -4.8684
-32 -3 -19 7.0841 -4.9466
-32 -3 -17 -5.2680 -13.4143
-32 -3 -15 -28.3579 -14.8047
-32 -3 -13 -36.8349 6.0049
-32 -3 -11 3.0753 1.1465
-32 -3 -9 3.0009 -0.3191
-32 -3 -7 -3.0016 32.2468
-32 -3 -5 4.6143 -6.7452
-32 -3 -3 -44.5290 -8.4398
-32 -3 -1 -3.3188 -6.3831
-32 -2 -34 -3.1678 10.4519
-32 -2 -32 2.3307 -4.2206
-32 -2 -30 9.3396 12.4464
-32 -2 -28 -12.9425 -0.3472
-32 -2 -26 2.3872 -2.0220
-32 -2 -24 -17.1636 0.0696
-32 -2 -22 -5.3180 -15.4573
-32 -2 -20 -1.3682 8.6642
-32 -2 -18 9.9718 -8.0372
-32 -2 -16 16.3720 -17.6641
-32 -2 -14 -3.2090 24.7374
-32 -2 -12 -2.1553 21.1392
-32 -2 -10 -7.5662 5.6912
-32 -2 -8 12.8046 -15.8529
-32 -2 -6 19.3355 -15.8934
-32 -2 -4 -27.9080 -25.5651
-32 -2 -2 -15.2651 19.4397
-32 -1 -35 6.3143 -9.3004
-32 -1 -33 -18.8737 -3.9383
-32 -1 -31 -16.3239 -17.5458
-32 -1 -29 4.0535 11.3742
-32 -1 -27 -5.4239 -5.0311
-32 -1 -25 -8.5358 13.5327
-32 -1 -23 14.3879 -3.0900
-32 -1 -21 -17.1603 -0.6589
-32 -1 -19 -19.5037 20.0817
-32 -1 -17 -13.0998 -5.2506
-32 -1 -15 -8.5587 4.3055
-32 -1 -13 21.4495 22.7129
-32 -1 -11 1.5339 -34.1880
-32 -1 -9 -6.5661 -8.1338
-32 -1 -7 27.1708 26.0361
-32 -1 -5 -6.0560 -10.0461
-32 -1 -3 -28.9000 35.5169
-32 -1 -1 3.7221 -1.6402
-31 -30 -25 -20.7979 4.7254
-31 -30 -23 -12.9337 8.6309
-31 -30 -21 -1.2054 -5.3458
-31 -30 -19 -5.0177 0.3072
-31 -30 -17 -7.8235 -1.4578
-31 -30 -15 -9.0086 1.1003
-31 -30 -13 -1.6454 0.1458
-31 -30 -11 -0.0550 5.7535
-31 -30 -9 -4.8227 -4.1897
-31 -30 -7 8.7333 -5.9374
-31 -30 -5 3.9571 -3.8547
-31 -30 -3 6.3419 -0.2759
-31 -30 -1 16.2551 -21.6209
-31 -29 -26 0.2996 0.8093
-31 -29 -24 -5.1114 22.3515
-31 -29 -22 3.3404 -3.1746
-31 -29 -20 14.7030 -18.7654
-31 -29 -18 13.1471 7.2393
-31 -29 -16 0.1471 18.2519
-31 -29 -14 -8.7351 11.2303
-31 -29 -12 -6.0869 8.0014
-31 -29 -10 -3.6599 2.6247
-31 -29 -8 -8.3860 -2.2013
-31 -29 -6 20.2058 -8.1386
-31 -29 -4 20.5068 -4.3205
-31 -29 -2 12.9047 50.4571
-31 -28 -25 -8.9193 2.1415
-31 -28 -23 -4.1901 -1.4868
-31 -28 -21 -1.4031 -6.7840
-31 -28 -19 1.7458 3.2725
-31 -28 -17 6.2788 12.0580
-31 -28 -15 -0.2104 2.8702
-31 -28 -13 0.9316 -4.4398
-31 -28 -11 -1.7640 -2.4799
-31 -28 -9 -21.3354 -0.1682
-31 -28 -7 -1.7758 7.4958
-31 -28 -5 0.4929 12.0564
-31 -28 -3 0.1703 5.4347
-31 -28 -1 0.7838 -8.9983
-31 -27 -26 9.3180 3.0276
-31 -27 -24 -10.0554 1.7437
-31 -27 -22 -1.2301 2.4636
-31 -27 -20 -10.2033 5.3892
-31 -27 -18 -9.8885 -10.2026
-31 -27 -16 18.4225 17.9253
-31 -27 -14 5.7798 8.3803
-31 -27 -12 21.6235 4.9193
-31 -27 -10 18.5520 8.0801
-31 -27 -8 18.5500 7.0620
-31 -27 -6 9.6345 13.1565
-31 -27 -4 13.9830 -1.3719
-31 -27 -2 -1.3749 0.9096
-31 -26 -27 -0.7967 -2.2617
-31 -26 -25 -2.2388 -3.4926
-31 -26 -23 -21.7656 6.4147
-31 -26 -21 -2.0940 -8.3921
-31 -26 -19 -5.8159 8.7645
-31 -26 -17 1.0264 11.4462
-31 -26 -15 -4.1161 3.8403
-31 -26 -13 -0.2999 6.0449
-31 -26 -11 -14.9355 -1.6447
-31 -26 -9 -20.5535 -7.4867
-31 -26 -7 -14.4751 -9.6151
-31 -26 -5 2.9481 -19.4496
-31 -26 -3 -19.5680 -15.7701
-31 -26 -1 18.9812 -5.1247
-31 -25 -28 -21.4360 -11.5791
-31 -25 -26 1.2405 0.5160
-31 -25 -24 -0.6358 -7.6311
-31 -25 -22 9.7944 0.3417
-31 -25 -20 -6.9277 -12.3665
-31 -25 -18 -10.2634 1.6256
-31 -25 -16 -32.8709 -14.7077
-31 -25 -14 8.9211 3.6522
-31 -25 -12 -67.1894 22.1547
-31 -25 -10 4.3620 -3.5490
-31 -25 -8 3.8829 -33.3386
-31 -25 -6 -9.8737 -0.5771
-31 -25 -4 -29.3693 -14.6344
-31 -25 -2 2.3232 42.0572
-31 -24 -29 -16.3199 0.8214
-31 -24 -27 -0.2733 -17.0241
-31 -24 -25 -6.8375 1.1752
-31 -24 -23 -19.8893 10.3964
-31 -24 -21 -10.5529 10.2383
-31 -24 -19 3.3484 -15.0413
-31 -24 -17 -3.6512 -2.3893
-31 -24 -15 -0.9828 4.8012
-31 -24 -13 -3.2515 9.3752
-31 -24 -11 17.8841 -18.7525
-31 -24 -9 -9.0286 -6.9744
-31 -24 -7 -27.9280 -22.1994
-31 -24 -5 16.3587 -29.7983
-31 -24 -3 -9.9046 3.8472
-31 -24 -1 -23.2086 21.5807
-31 -23 -30 3.5734 14.0232
-31 -23 -28 12.8806 -12.5359
-31 -23 -26 0.3682 2.2680
-31 -23 -24 8.7255 -13.4692
-31 -23 -22 3.1796 1.3090
-31 -23 -20 20.7020 6.8015
-31 -23 -18 -14.4102 -10.7261
-31 -23 -16 -28.6086 -20.9028
-31 -23 -14 0.3532 1.1068
-31 -23 -12 65.6344 4.3593
-31 -23 -10 -18.1437 -10.7301
-31 -23 -8 -71.1595 13.0637
-31 -23 -6 -12.9887 10.7463
-31 -23 -4 -37.8981 41.4502
-31 -23 -2 -2.8898 24.7044
-31 -22 -31 -23.0258 17.7608
-31 -22 -29 12.7082 -15.3740
-31 -22 -27 -2.4616 6.7313
-31 -22 -25 -9.0435 -7.1794
-31 -22 -23 -22.2046 -9.9335
-31 -22 -21 -0.3936 5.8322
-31 -22 -19 -2.3232 1.8017
-31 -22 -17 -12.2648 0.4610
-31 -22 -15 -10.3207 18.3738
-31 -22 -13 28.5874 9.3867
-31 -22 -11 7.5425 -10.6572
-31 -22 -9 21.0483 5.2416
-31 -22 -7 27.8950 30.5968
-31 -22 -5 5.0131 -14.1464
-31 -22 -3 32.9264 15.2966
-31 -22 -1 42.6236 -24.2239
-31 -21 -30 -3.9967 3.6342
-31 -21 -28 -7.9136 13.9124
-31 -21 -26 -3.5088 -17.1796
-31 -21 -24 7.1323 -7.3505
-31 -21 -22 4.7332 -2.5520
-31 -21 -20 8.7108 -2.8432
-31 -21 -18 7.9904 -6.2462
-31 -21 -16 -13.9624 48.8235
-31 -21 -14 15.4147 0.5592
-31 -21 -12 -17.8132 -31.4376
-31 -21 -10 -5.1181 8.5647
-31 -21 -8 51.8577 26.8403
-31 -21 -6 6.9255 -1.1796
-31 -21 -4 -40.4355 64.9376
-31 -21 -2 4.5419 -10.6806
-31 -20 -31 6.0911 11.5960
-31 -20 -29 -9.1179 -2.1173
-31 -20 -27 0.7863 3.0910
-31 -20 -25 -17.8114 3.8257
-31 -20 -23 0.7298 -18.2366
-31 -20 -21 5.2805 8.0243
-31 -20 -19 3.4350 -5.5859
-31 -20 -17 2.5298 -27.4312
-31 -20 -15 -17.8460 24.8609
-31 -20 -13 -17.4936 14.7132
-31 -20 -11 22.5988 5.4853
-31 -20 -9 2.7862 -35.9550
-31 -20 -7 12.0367 -17.8426
-31 -20 -5 1.8190 62.6124
-31 -20 -3 -14.0115 -55.9471
-31 -20 -1 3.4701 -51.1079
-31 -19 -32 -0.4328 -1.7360
-31 -19 -30 -16.0241 -24.0301
-31 -19 -28 -11.2349 -13.5782
-31 -19 -26 -7.6442 5.3946
-31 -19 -24 -4.2355 18.0626
-31 -19 -22 5.6938 -2.5217
-31 -19 -20 -6.3150 7.5714
-31 -19 -18 -13.8913 4.8162
-31 -19 -16 10.5768 -17.2493
-31 -19 -14 27.7693 10.8457
-31 -19 -12 5.6961 33.8717
-31 -19 -10 -4.0208 -10.0966
-31 -19 -8 -49.6563 -37.7956
-31 -19 -6 6.2063 19.7269
-31 -19 -4 30.3702 -12.6585
-31 -19 -2 -14.6969 -6.7160
-31 -18 -33 -18.7024 -18.1104
-31 -18 -31 15.0883 -6.7876
-31 -18 -29 -22.9677 2.0955
-31 -18 -27 12.0640 15.7162
-31 -18 -25 5.8974 6.0323
-31 -18 -23 -3.2031 -6.4512
-31 -18 -21 -2.7982 -0.3294
-31 -18 -19 -0.8230 -0.8396
-31 -18 -17 10.8354 -10.2931
-31 -18 -15 -12.6606 12.5428
-31 -18 -13 -29.6685 14.3561
-31 -18 -11 5.9112 -1.5684
-31 -18 -9 15.4679 58.8220
-31 -18 -7 0.7528 -4.6196
-31 -18 -5 11.3018 3.6906
-31 -18 -3 2.9242 3.9473
-31 -18 -1 -49.3282 33.0871
-31 -17 -32 -21.3198 12.2668
-31 -17 -30 -5.1009 -2.2933
-31 -17 -28 -18.5986 0.6085
-31 -17 -26 -17.0885 -9.6955
-31 -17 -24 -11.6438 -24.0493
-31 -17 -22 12.6521 15.6198
-31 -17 -20 -1.4129 6.8128
-31 -17 -18 0.8264 -6.6057
-31 -17 -16 -15.9871 15.9759
-31 -17 -14 -21.4194 5.7629
-31 -17 -12 6.0702 15.1796
-31 -17 -10 -6.4488 -5.8452
-31 -17 -8 19.4044 -0.7942
-31 -17 -6 9.4933 -18.6822
-31 -17 -4 46.2223 9.8143
-31 -17 -2 10.7027 36.9936
-31 -16 -33 0.6208 4.4729
-31 -16 -31 2.0519 15.9186
-31 -16 -29 2.3872 8.2017
-31 -16 -27 19.4750 13.0862
-31 -16 -25 -13.0438 10.1258
-31 -16 -23 -4.6918 12.9861
-31 -16 -21 -12.8601 -7.4382
-31 -16 -19 -16.3763 -10.8596
-31 -16 -17 -9.1883 6.4467
-31 -16 -15 4.3315 8.7763
-31 -16 -13 -17.4577 -28.2882
-31 -16 -11 0.1116 -7.9470
-31 -16 -9 21.2997 -3.8513
-31 -16 -7 -26.6440 -6.3817
-31 -16 -5 -0.8846 34.1088
-31 -16 -3 7.2414 20.8642
-31 -16 -1 -63.6738 46.6546
-31 -15 -34 1.0521 9.0287
-31 -15 -32 12.1038 -16.1250
-31 -15 -30 -2.8566 -14.3484
-31 -15 -28 11.7535 -17.2230
-31 -15 -26 8.6535 -18.9990
-31 -15 -24 5.4098 -10.6702
-31 -15 -22 -0.2791 -2.4748
-31 -15 -20 3.3687 -10.7042
-31 -15 -18 -7.8624 -3.6058
-31 -15 -16 -5.8572 -26.3391
-31 -15 -14 49.8228 24.7012
-31 -15 -12 -27.4414 5.4982
-31 -15 -10 -48.9428 -2.6713
-31 -15 -8 0.1417 -45.2940
-31 -15 -6 38.1723 -15.7416
-31 -15 -4 -7.0923 -15.1016
-31 -15 -2 0.1392 68.2791
-31 -14 -33 -17.0378 2.2466
-31 -14 -31 8.1460 -2.5409
-31 -14 -29 -18.5237 -5.3480
-31 -14 -27 5.4794 -17.6789
-31 -14 -25 -5.0220 7.0193
-31 -14 -23 -10.1029 5.5984
-31 -14 -21 -1.3044 -8.4257
-31 -14 -19 -19.2280 -9.6403
-31 -14 -17 -22.2685 -14.5462
-31 -14 -15 5.2868 -10.8834
-31 -14 -13 0.2340 -9.0225
-31 -14 -11 -1.2876 6.5943
-31 -14 -9 12.9268 21.2087
-31 -14 -7 -19.4329 -1.4548
-31 -14 -5 32.6348 -12.3109
-31 -14 -3 28.4653 42.0287
-31 -14 -1 -4.4254 15.3469
-31 -13 -34 -32.3128 5.0655
-31 -13 -32 5.3639 -4.4802
-31 -13 -30 24.6479 4.4350
-31 -13 -28 -1.8326 6.4497
-31 -13 -26 -17.4862 -5.5788
-31 -13 -24 9.5609 0.3184
-31 -13 -22 5.4946 3.6217
-31 -13 -20 15.9304 -0.2988
-31 -13 -18 -1.9429 2.7503
-31 -13 -16 1.1258 -22.9611
-31 -13 -14 23.6354 -3.7407
-31 -13 -12 13.7798 3.3931
-31 -13 -10 -30.3237 5.1798
-31 -13 -8 15.1284 37.0252
-31 -13 -6 8.1647 2.4673
-31 -13 -4 3.1912 42.7813
-31 -13 -2 -2.9696 14.1657
-31 -12 -35 -0.4430 -0.9212
-31 -12 -33 1.6260 4.3893
-31 -12 -31 6.7772 18.3555
-31 -12 -29 14.3557 11.1392
-31 -12 -27 5.8476 -5.9201
-31 -12 -25 1.9129 3.4245
-31 -12 -23 6.2747 0.1792
-31 -12 -21 0.3974 -4.5308
-31 -12 -19 6.0233 -23.5658
-31 -12 -17 -9.0564 7.5851
-31 -12 -15 21.7706 5.0475
-31 -12 -13 23.7213 2.1564
-31 -12 -11 -25.0914 -5.7023
-31 -12 -9 -7.5509 13.9171
-31 -12 -7 -2.1849 16.5087
-31 -12 -5 23.1678 -24.6796
-31 -12 -3 -9.7481 -26.6767
-31 -12 -1 1.8072 -12.3948
-31 -11 -34 5.7119 -9.4122
-31 -11 -32 12.2310 6.4219
-31 -11 -30 -9.7125 1.1594
-31 -11 -28 0.5412 2.1993
-31 -11 -26 13.1696 -6.0705
-31 -11 -24 5.7488 0.4445
-31 -11 -22 5.9484 8.6781
-31 -11 -20 6.5830 13.1708
-31 -11 -18 -21.7034 0.7401
-31 -11 -16 15.3036 0.7895
-31 -11 -14 -8.3875 -4.7485
-31 -11 -12 9.9678 -7.4797
-31 -11 -10 1.2160 -9.5117
-31 -11 -8 -4.3704 8.8520
-31 -11 -6 36.6396 21.8596
-31 -11 -4 1.9488 35.3600
-31 -11 -2 0.9872 -16.4594
-31 -10 -35 -5.4282 1.5710
-31 -10 -33 0.0635 4.5764
-31 -10 -31 0.2366 0.9647
-31 -10 -29 -0.6496 6.2237
-31 -10 -27 -2.3296 13.6533
-31 -10 -25 -15.3434 -5.1559
-31 -10 -23 -2.6815 9.1905
-31 -10 -21 2.0380 7.3072
-31 -10 -19 -0.2344 -15.2621
-31 -10 -17 18.0525 20.1913
-31 -10 -15 10.3693 -2.1316
-31 -10 -13 -14.7583 -19.9872
-31 -10 -11 -14.3911 -13.4282
-31 -10 -9 6.3328 22.7912
-31 -10 -7 -25.6365 27.2533
-31 -10 -5 4.4742 10.6101
-31 -10 -3 -44.2157 -7.5512
-31 -10 -1 -4.0397 -2.4561
-31 -9 -34 3.9954 16.6688
-31 -9 -32 11.7565 5.1599
-31 -9 -30 -2.9513 -0.5837
-31 -9 -28 3.7152 3.5127
-31 -9 -26 -6.3865 3.8270
-31 -9 -24 0.4150 2.3491
-31 -9 -22 -5.0806 -15.2269
-31 -9 -20 8.2977 8.2531
-31 -9 -18 -2.6355 21.1851
-31 -9 -16 -0.5818 -22.2384
-31 -9 -14 20.1923 0.4829
-31 -9 -12 9.5733 -23.0251
-31 -9 -10 -41.2237 14.7314
-31 -9 -8 15.7973 -5.7971
-31 -9 -6 15.5837 -2.6371
-31 -9 -4 32.7961 22.4174
-31 -9 -2 -12.9005 6.0253
-31 -8 -35 -4.2264 -0.2446
-31 -8 -33 -7.6204 17.9098
-31 -8 -31 -0.0082 -0.4674
-31 -8 -29 -3.6450 -16.7681
-31 -8 -27 -0.7690 6.4129
-31 -8 -25 2.7193 7.5338
-31 -8 -23 -4.7966 14.5956
-31 -8 -21 0.1542 13.2206
-31 -8 -19 -7.2667 8.8675
-31 -8 -17 -18.0964 6.9504
-31 -8 -15 15.0875 3.5975
-31 -8 -13 -1.5443 12.7741
-31 -8 -11 -13.1253 -29.7651
-31 -8 -9 27.4591 13.8530
-31 -8 -7 -4.1546 6.4412
-31 -8 -5 -3.1874 0.0915
-31 -8 -3 2.5302 22.8800
-31 -8 -1 56.5145 -15.5156
-31 -7 -36 13.0916 23.9905
-31 -7 -34 5.6831 12.1852
-31 -7 -32 -6.6563 -21.7923
-31 -7 -30 -5.6021 -0.7167
-31 -7 -28 3.9957 -1.1024
-31 -7 -26 2.3355 4.8012
-31 -7 -24 8.4495 -3.3576
-31 -7 -22 6.0364 -31.4714
-31 -7 -20 -0.4808 -0.2136
-31 -7 -18 -8.3248 -7.7563
-31 -7 -16 7.4561 -8.1987
-31 -7 -14 -14.6443 13.2778
-31 -7 -12 -22.9604 -10.9125
-31 -7 -10 -1.9116 19.6486
-31 -7 -8 -34.1095 12.4122
-31 -7 -6 -19.0018 -20.5210
-31 -7 -4 21.7899 -19.1830
-31 -7 -2 -17.1588 -19.8574
-31 -6 -35 5.9513 -12.3856
-31 -6 -33 10.0127 -16.3703
-31 -6 -31 -17.7741 -19.7209
-31 -6 -29 1.1291 3.6585
-31 -6 -27 0.0460 -6.4361
-31 -6 -25 -0.1359 5.2665
-31 -6 -23 -8.6116 3.4116
-31 -6 -21 -11.7317 6.5855
-31 -6 -19 -2.9885 -13.1339
-31 -6 -17 20.5305 -14.8565
-31 -6 -15 -4.2030 13.3544
-31 -6 -13 -15.6461 22.1377
-31 -6 -11 -5.8842 -11.9414
-31 -6 -9 22.4532 47.7948
-31 -6 -7 -8.2742 9.0619
-31 -6 -5 46.3121 41.9042
-31 -6 -3 -23.8082 -8.1615
-31 -6 -1 -18.7651 4.0432
-31 -5 -36 27.0218 -16.2662
-31 -5 -34 -9.3880 11.3854
-31 -5 -32 -16.2875 6.9008
-31 -5 -30 2.7709 10.2078
-31 -5 -28 2.8961 1.1855
-31 -5 -26 2.9255 16.6347
-31 -5 -24 -7.2612 11.8759
-31 -5 -22 2.1393 2.2646
-31 -5 -20 23.6409 6.4341
-31 -5 -18 14.1751 1.9446
-31 -5 -16 15.4381 -7.3109
-31 -5 -14 -8.8541 -3.7209
-31 -5 -12 -22.2189 12.6257
-31 -5 -10 -22.5547 7.3415
-31 -5 -8 -27.8098 -36.0154
-31 -5 -6 2.9344 14.1169
-31 -5 -4 1.6651 -31.6133
-31 -5 -2 14.2344 -25.4900
-31 -4 -35 -2.0109 0.1295
-31 -4 -33 -9.9408 0.2963
-31 -4 -31 18.3664 2.1388
-31 -4 -29 -3.9476 2.8336
-31 -4 -27 -12.3459 -0.6031
-31 -4 -25 11.6289 6.6457
-31 -4 -23 -3.0130 -16.2133
-31 -4 -21 1.3110 2.8664
-31 -4 -19 -1.0559 -2.0410
-31 -4 -17 3.2202 3.1570
-31 -4 -15 -6.2851 -29.6555
-31 -4 -13 -11.1145 -13.5694
-31 -4 -11 17.4291 -11.5384
-31 -4 -9 16.9076 -5.5633
-31 -4 -7 -13.8685 39.9045
-31 -4 -5 -46.9193 -7.0705
-31 -4 -3 49.7675 2.2449
-31 -4 -1 12.9985 36.7213
-31 -3 -36 0.1851 -2.3178
-31 -3 -34 0.4919 5.3419
-31 -3 -32 1.8944 0.7475
-31 -3 -30 -9.1481 10.2955
-31 -3 -28 -3.0210 3.9971
-31 -3 -26 8.5087 -4.8250
-31 -3 -24 9.8299 -1.5642
-31 -3 -22 19.1806 0.4148
-31 -3 -20 -16.1279 3.4141
-31 -3 -18 0.4174 -1.0634
-31 -3 -16 -2.8092 -3.5068
-31 -3 -14 6.5109 -4.6177
-31 -3 -12 -15.0236 8.7122
-31 -3 -10 0.3272 -17.6726
-31 -3 -8 38.3688 -21.2210
-31 -3 -6 -2.4353 22.9694
-31 -3 -4 57.0012 23.2968
-31 -3 -2 25.7936 -4.0484
-31 -2 -35 28.3101 -6.4099
-31 -2 -33 9.9986 -21.3881
-31 -2 -31 -3.2795 -0.0497
-31 -2 -29 6.8022 -9.3376
-31 -2 -27 -4.2974 -3.9408
-31 -2 -25 -10.6417 5.6444
-31 -2 -23 11.9506 18.4411
-31 -2 -21 0.0326 5.9356
-31 -2 -19 5.9456 -10.7954
-31 -2 -17 10.0674 0.5395
-31 -2 -15 8.7514 -0.7743
-31 -2 -13 -1.3097 -25.1491
-31 -2 -11 -6.0025 9.6869
-31 -2 -9 -23.5749 -13.2884
-31 -2 -7 -19.1649 31.4138
-31 -2 -5 -24.0778 40.8748
-31 -2 -3 21.9081 -0.8707
-31 -2 -1 20.6714 27.1499
-31 -1 -36 -24.8832 -9.1080
-31 -1 -34 -0.2384 -20.4242
-31 -1 -32 4.2998 2.6804
-31 -1 -30 0.2823 3.9945
-31 -1 -28 4.9988 -14.0478
-31 -1 -26 -1.5794 16.7437
-31 -1 -24 12.2181 -11.3582
-31 -1 -22 -9.8071 4.8827
-31 -1 -20 5.4276 -3.8336
-31 -1 -18 2.6845 -4.0567
-31 -1 -16 9.4277 0.1597
-31 -1 -14 29.7374 2.1263
-31 -1 -12 -3.4594 -21.5091
-31 -1 -10 2.4896 12.7709
-31 -1 -8 -37.5124 16.6785
-31 -1 -6 -8.7798 9.2960
-31 -1 -4 -23.6179 21.4929
-31 -1 -2 -0.6732 2.6181
-30 -29 -25 18.1719 -9.9917
-30 -29 -23 6.1184 -15.2141
-30 -29 -21 -9.0702 19.9554
-30 -29 -19 -2.2582 6.6616
-30 -29 -17 10.7261 -5.0868
-30 -29 -15 -3.3284 -3.2152
-30 -29 -13 8.7135 -6.0451
-30 -29 -11 -8.1783 12.5803
-30 -29 -9 -19.6170 -0.3250
-30 -29 -7 18.7215 13.7589
-30 -29 -5 -10.1674 -2.5355
-30 -29 -3 -22.5688 -24.7849
-30 -29 -1 -6.6420 -2.4291
-30 -28 -26 10.4946 3.2634
-30 -28 -24 5.8044 -16.3300
-30 -28 -22 9.9749 -9.2768
-30 -28 -20 -7.1007 -13.7631
-30 -28 -18 13.9609 17.5181
-30 -28 -16 4.4593 0.8016
-30 -28 -14 9.0367 16.8597
-30 -28 -12 5.2372 -1.1331
-30 -28 -10 -6.9730 -5.9611
-30 -28 -8 -1.3765 11.1423
-30 -28 -6 -2.6552 6.6354
-30 -28 -4 3.7941 -18.4549
-30 -28 -2 -6.5301 36.1999
-30 -27 -27 -1.8339 1.8572
-30 -27 -25 -1.7818 10.3923
-30 -27 -23 -6.1175 -7.7785
-30 -27 -21 -16.6385 -0.0132
-30 -27 -19 -5.5302 -9.7524
-30 -27 -17 3.2945 -7.5068
-30 -27 -15 -11.6853 7.9819
-30 -27 -13 2.4623 -8.9354
-30 -27 -11 0.4721 -4.8231
-30 -27 -9 4.4564 7.8570
-30 -27 -7 8.0229 19.4542
-30 -27 -5 15.8262 17.6199
-30 -27 -3 -8.7074 2.2396
-30 -27 -1 0.7082 30.4206
-30 -26 -28 0.6947 -4.5342
-30 -26 -26 1.5342 -3.4900
-30 -26 -24 0.0169 -0.3287
-30 -26 -22 5.0727 14.2951
-30 -26 -20 -6.1586 4.8718
-30 -26 -18 -2.0931 4.6297
-30 -26 -16 -3.1541 -0.1399
-30 -26 -14 -27.4182 -54.5674
-30 -26 -12 0.9715 7.5415
-30 -26 -10 -17.6710 21.1748
-30 -26 -8 -12.3293 -6.9795
-30 -26 -6 33.6509 -21.0191
-30 -26 -4 8.3342 -12.2439
-30 -26 -2 -2.4972 -28.6687
-30 -25 -29 -0.7739 -0.3668
-30 -25 -27 1.8617 5.5612
-30 -25 -25 3.5116 -3.5852
-30 -25 -23 0.7382 -4.8332
-30 -25 -21 -28.6999 4.8134
-30 -25 -19 -1.1171 3.9781
-30 -25 -17 1.1287 -7.1246
-30 -25 -15 -0.4210 0.5907
-30 -25 -13 -10.3431 9.0779
-30 -25 -11 1.1327 -19.0454
-30 -25 -9 -7.2513 -10.8404
-30 -25 -7 3.4634 6.7399
-30 -25 -5 -0.1166 -5.0062
-30 -25 -3 -31.4891 26.1976
-30 -25 -1 -33.4158 14.0508
-30 -24 -30 -3.5230 34.0731
-30 -24 -28 -2.9199 20.5570
-30 -24 -26 -3.1540 -5.3555
-30 -24 -24 1.5145 -1.1984
-30 -24 -22 -2.1603 -12.3997
-30 -24 -20 7.2056 -4.6509
-30 -24 -18 2.3857 15.1806
-30 -24 -16 0.9181 -11.7891
-30 -24 -14 -19.9985 44.2621
-30 -24 -12 9.9559 9.4342
-30 -24 -10 44.1322 22.2440
-30 -24 -8 3.4781 6.7686
-30 -24 -6 23.2872 24.7306
-30 -24 -4 0.4812 35.5362
-30 -24 -2 -5.2320 10.1763
-30 -23 -31 -13.6427 -11.7960
-30 -23 -29 -1.6046 18.0649
-30 -23 -27 5.0029 3.4644
-30 -23 -25 -6.5214 9.5036
-30 -23 -23 -6.0528 -20.3452
-30 -23 -21 9.8619 11.2537
-30 -23 -19 -1.3704 13.2415
-30 -23 -17 -8.7419 13.5237
-30 -23 -15 23.0660 8.8405
-30 -23 -13 -12.2803 30.8802
-30 -23 -11 8.3522 8.0556
-30 -23 -9 23.7404 -3.5898
-30 -23 -7 20.6270 -0.1296
-30 -23 -5 27.4066 -10.9417
-30 -23 -3 9.3851 26.4723
-30 -23 -1 -10.9775 3.0975
-30 -22 -30 -5.0341 -1.1155
-30 -22 -28 17.2259 13.6974
-30 -22 -26 19.8332 3.3163
-30 -22 -24 10.7669 1.1601
-30 -22 -22 -10.8305 13.1771
-30 -22 -20 -8.5419 -3.0042
-30 -22 -18 15.4104 7.7653
-30 -22 -16 -4.9593 -5.6576
-30 -22 -14 47.6172 -4.2577
-30 -22 -12 -3.0611 -7.8029
-30 -22 -10 4.5133 60.4551
-30 -22 -8 15.1614 0.7580
-30 -22 -6 -34.5418 -66.0891
-30 -22 -4 17.4022 13.9434
-30 -22 -2 -7.1005 -18.8075
-30 -21 -31 -31.7557 7.5094
-30 -21 -29 0.2743 21.7734
-30 -21 -27 8.4602 -16.4846
-30 -21 -25 0.1686 -3.0810
-30 -21 -23 14.7903 5.7313
-30 -21 -21 -4.3604 -6.9237
-30 -21 -19 4.6238 12.5615
-30 -21 -17 -7.8490 21.3977
-30 -21 -15 1.5675 -5.2725
-30 -21 -13 28.5093 -32.3626
-30 -21 -11 40.4820 -6.3456
-30 -21 -9 -21.0313 17.8022
-30 -21 -7 11.7607 16.5761
-30 -21 -5 -24.4651 -6.6237
-30 -21 -3 31.1664 -10.1921
-30 -21 -1 7.6328 44.6418
-30 -20 -32 -9.6289 12.1956
-30 -20 -30 -2.7063 0.2694
-30 -20 -28 3.7943 1.1577
-30 -20 -26 -12.0160 -6.5938
-30 -20 -24 6.7680 -0.7906
-30 -20 -22 7.4473 6.9620
-30 -20 -20 4.2773 6.2280
-30 -20 -18 20.6049 5.4202
-30 -20 -16 -26.4171 -2.6311
-30 -20 -14 -37.6893 -19.4688
-30 -20 -12 4.4437 24.0568
-30 -20 -10 -6.0140 -50.9039
-30 -20 -8 -10.9890 -0.8816
-30 -20 -6 -12.6586 25.0171
-30 -20 -4 24.9142 15.3077
-30 -20 -2 -51.8683 27.6413
-30 -19 -33 -17.3053 9.7487
-30 -19 -31 -15.6819 6.1564
-30 -19 -29 16.3504 1.9594
-30 -19 -27 7.2510 9.5641
-30 -19 -25 -13.5197 11.3079
-30 -19 -23 -6.5722 3.7406
-30 -19 -21 5.8254 7.5506
-30 -19 -19 -18.2233 3.9466
-30 -19 -17 0.5379 -18.5661
-30 -19 -15 -8.1747 -7.8238
-30 -19 -13 -27.5061 3.3042
-30 -19 -11 21.6105 -15.2806
-30 -19 -9 5.6366 5.2002
-30 -19 -7 -22.1440 -10.5469
-30 -19 -5 -7.1377 -15.3182
-30 -19 -3 -19.6884 -30.8166
-30 -19 -1 23.5474 41.4933
-30 -18 -32 -20.8651 17.5104
-30 -18 -30 -3.3856 2.6077
-30 -18 -28 2.6181 -3.7422
-30 -18 -26 -6.0826 -1.2133
-30 -18 -24 4.0615 -0.7510
-30 -18 -22 13.1242 1.1919
-30 -18 -20 6.0727 -13.6014
-30 -18 -18 -4.0713 -8.0332
-30 -18 -16 19.6963 -4.2933
-30 -18 -14 12.0669 6.1524
-30 -18 -12 -15.4233 -3.9108
-30 -18 -10 -31.2236 10.1610
-30 -18 -8 34.9417 1.8630
-30 -18 -6 -9.9688 -44.2369
-30 -18 -4 22.0905 6.0782
-30 -18 -2 -2.3877 15.2576
-30 -17 -33 -10.0369 19.2242
-30 -17 -31 -4.3203 -4.2735
-30 -17 -29 21.3145 5.9485
-30 -17 -27 -17.6224 0.0921
-30 -17 -25 17.9775 5.9300
-30 -17 -23 7.7206 -4.5819
-30 -17 -21 -1.9772 -5.5642
-30 -17 -19 -1.5786 -5.6292
-30 -17 -17 -1.7200 -9.8190
-30 -17 -15 -16.2049 -14.5702
-30 -17 -13 -6.1860 -0.5169
-30 -17 -11 -28.1631 24.8702
-30 -17 -9 -26.7680 -0.0472
-30 -17 -7 -7.7616 48.3640
-30 -17 -5 12.1253 8.7735
-30 -17 -3 98.7438 -3.6139
-30 -17 -1 -9.8849 -1.9822
-30 -16 -34 -2.0888 4.1779
-30 -16 -32 5.3243 0.1739
-30 -16 -30 -15.3260 9.3328
-30 -16 -28 2.5967 -3.6942
-30 -16 -26 -13.6490 -0.7249
-30 -16 -24 4.0111 2.6147
-30 -16 -22 1.9821 1.5492
-30 -16 -20 1.8880 9.5913
-30 -16 -18 -28.4454 -8.8261
-30 -16 -16 -14.9547 -11.3094
-30 -16 -14 15.5307 6.2415
-30 -16 -12 -23.8643 -16.6104
-30 -16 -10 -3.8319 -23.9710
-30 -16 -8 -11.7926 7.8386
-30 -16 -6 -12.3482 24.1729
-30 -16 -4 32.7724 -19.4790
-30 -16 -2 13.9076 -5.3191
-30 -15 -33 7.8326 -27.6538
-30 -15 -31 -14.7679 -12.6723
-30 -15 -29 -5.5184 4.7166
-30 -15 -27 3.9949 9.0079
-30 -15 -25 -12.9771 -8.3676
-30 -15 -23 9.7364 0.1858
-30 -15 -21 -2.6485 8.3696
-30 -15 -19 0.6909 15.0043
-30 -15 -17 -32.0822 -7.7443
-30 -15 -15 2.8106 -3.1922
-30 -15 -13 1.4329 10.4706
-30 -15 -11 -7.7776 -22.5649
-30 -15 -9 36.3699 -11.9678
-30 -15 -7 -14.2326 26.5949
-30 -15 -5 16.6642 2.6434
-30 -15 -3 17.8796 -30.7557
-30 -15 -1 -13.6542 10.7413
-30 -14 -34 6.8448 -24.2960
-30 -14 -32 2.0207 2.4644
-30 -14 -30 -19.9144 -3.6392
-30 -14 -28 5.8006 1.0381
-30 -14 -26 10.1151 -3.5253
-30 -14 -24 -4.8306 -5.6487
-30 -14 -22 9.5337 1.0548
-30 -14 -20 -10.0932 3.7375
-30 -14 -18 0.8114 -6.0319
-30 -14 -16 -4.5116 -5.2907
-30 -14 -14 5.5853 -11.8183
-30 -14 -12 13.3641 -2.7574
-30 -14 -10 14.3700 -35.2160
-30 -14 -8 -30.3141 -17.6446
-30 -14 -6 45.7541 53.2421
-30 -14 -4 1.8769 -21.6622
-30 -14 -2 1.1476 -23.6302
-30 -13 -35 9.7462 7.8863
-30 -13 -33 -4.0955 -0.7888
-30 -13 -31 -19.9984 11.5283
-30 -13 -29 4.5076 -4.4867
-30 -13 -27 -5.6013 10.7544
-30 -13 -25 11.3895 -3.7162
-30 -13 -23 -10.1875 2.6172
-30 -13 -21 -7.0171 -9.9393
-30 -13 -19 11.9047 9.7137
-30 -13 -17 -8.6449 -4.0414
-30 -13 -15 5.0078 -5.6558
-30 -13 -13 -0.6115 14.2810
-30 -13 -11 -12.1527 -5.8461
-30 -13 -9 23.8963 -11.8748
-30 -13 -7 1.7517 7.0739
-30 -13 -5 -9.8575 10.5336
-30 -13 -3 17.9649 -4.1153
-30 -13 -1 -24.1202 -2.8828
-30 -12 -34 6.5119 10.6929
-30 -12 -32 3.7663 -1.7727
-30 -12 -30 13.1024 -14.3520
-30 -12 -28 9.3066 -14.9359
-30 -12 -26 -4.6574 -0.4495
-30 -12 -24 4.0518 2.2401
-30 -12 -22 -7.9516 6.9340
-30 -12 -20 6.3598 3.3311
-30 -12 -18 5.4831 7.8008
-30 -12 -16 12.4066 0.6917
-30 -12 -14 -7.9369 -4.8687
-30 -12 -12 -7.5352 8.1238
-30 -12 -10 -8.7326 11.3892
-30 -12 -8 -35.9275 -8.6977
-30 -12 -6 -3.2067 6.1790
-30 -12 -4 7.3352 2.4271
-30 -12 -2 16.4743 -9.4419
-30 -11 -35 27.7998 11.0240
-30 -11 -33 3.1265 1.1462
-30 -11 -31 -12.5342 -10.8985
-30 -11 -29 -5.7803 16.8998
-30 -11 -27 7.8045 3.6318
-30 -11 -25 7.6722 -9.0798
-30 -11 -23 -1.3860 -11.9593
-30 -11 -21 25.2471 -3.5731
-30 -11 -19 -4.2332 1.5942
-30 -11 -17 -12.7576 -0.5878
-30 -11 -15 -30.7916 -7.5104
-30 -11 -13 4.8783 25.7552
-30 -11 -11 -3.1345 -7.5042
-30 -11 -9 -8.8034 -24.4083
-30 -11 -7 -11.4244 12.8118
-30 -11 -5 43.1672 18.0883
-30 -11 -3 8.0654 -1.7924
-30 -11 -1 13.0727 -9.8403
-30 -10 -36 2.8840 3.6300
-30 -10 -34 0.3331 12.2001
-30 -10 -32 -3.9974 -14.2686
-30 -10 -30 17.5169 -4.6673
-30 -10 -28 -7.8571 12.2464
-30 -10 -26 8.3198 0.3402
-30 -10 -24 -9.8785 -0.4510
-30 -10 -22 -5.8528 12.0009
-30 -10 -20 -7.6858 0.4242
-30 -10 -18 2.2108 3.4996
-30 -10 -16 6.3062 11.0575
-30 -10 -14 -7.2494 -5.7410
-30 -10 -12 -12.7859 6.1359
-30 -10 -10 12.3875 10.4561
-30 -10 -8 -29.5063 -7.2399
-30 -10 -6 33.8373 -3.9097
-30 -10 -4 -45.4114 23.2216
-30 -10 -2 22.9088 29.1720
-30 -9 -35 -5.9493 -7.8029
-30 -9 -33 0.6976 2.4103
-30 -9 -31 -1.7189 -0.1688
-30 -9 -29 1.9330 22.6355
-30 -9 -27 -7.3548 -2.9144
-30 -9 -25 3.6224 12.2487
-30 -9 -23 -18.9311 -9.8725
-30 -9 -21 -9.3105 -4.1805
-30 -9 -19 -16.9938 8.5423
-30 -9 -17 -8.7246 3.3991
-30 -9 -15 17.4636 13.9684
-30 -9 -13 -8.2899 26.1132
-30 -9 -11 15.1353 19.5101
-30 -9 -9 11.3053 -25.7983
-30 -9 -7 -9.3454 -20.3587
-30 -9 -5 12.6194 -22.5001
-30 -9 -3 -28.0360 2.2611
-30 -9 -1 -22.9774 -3.1468
-30 -8 -36 1.4532 1.0692
-30 -8 -34 -2.0034 3.7340
-30 -8 -32 -2.9942 1.4151
-30 -8 -30 8.7038 -2.3295
-30 -8 -28 6.4347 -1.5912
-30 -8 -26 0.4676 0.7459
-30 -8 -24 13.1653 -9.2020
-30 -8 -22 -8.6361 8.9588
-30 -8 -20 -11.6109 3.4868
-30 -8 -18 -9.8447 3.4434
-30 -8 -16 13.9891 6.7623
-30 -8 -14 -5.1391 20.7525
-30 -8 -12 -2.4571 11.6920
-30 -8 -10 24.1599 16.7570
-30 -8 -8 -5.1489 -37.9493
-30 -8 -6 49.0425 24.4299
-30 -8 -4 12.2488 -13.8227
-30 -8 -2 -21.5070 24.4246
-30 -7 -35 10.3379 -19.5877
-30 -7 -33 6.4848 -0.9918
-30 -7 -31 -9.6207 19.4959
-30 -7 -29 -17.3221 -14.0349
-30 -7 -27 -1.0530 -5.7862
-30 -7 -25 13.7090 7.1586
-30 -7 -23 13.2419 12.6118
-30 -7 -21 9.9847 -4.6879
-30 -7 -19 11.1158 -5.7350
-30 -7 -17 2.1775 -13.9865
-30 -7 -15 -1.4544 5.8602
-30 -7 -13 12.4917 -16.8742
-30 -7 -11 11.0962 17.5470
-30 -7 -9 -22.0948 -5.3487
-30 -7 -7 -43.1527 -29.8637
-30 -7 -5 1.9340 -82.7380
-30 -7 -3 -25.3925 -38.0691
-30 -7 -1 12.8616 -2.8008
-30 -6 -36 -9.6546 8.6778
-30 -6 -34 18.1961 -8.0161
-30 -6 -32 7.6255 20.8287
-30 -6 -30 -1.8108 -1.9659
-30 -6 -28 8.9852 -3.8862
-30 -6 -26 -5.1963 -1.7071
-30 -6 -24 13.5165 -9.6599
-30 -6 -22 -14.3919 6.7233
-30 -6 -20 -9.8712 9.8822
-30 -6 -18 5.7066 1.3866
-30 -6 -16 28.0357 3.3907
-30 -6 -14 25.4527 27.0216
-30 -6 -12 -7.5342 6.9970
-30 -6 -10 -7.1937 -39.8303
-30 -6 -8 23.5150 -33.3788
-30 -6 -6 71.5751 27.0315
-30 -6 -4 -7.2391 -18.6691
-30 -6 -2 10.9751 31.6150
-30 -5 -37 -0.7189 2.1962
-30 -5 -35 -0.6061 -0.5761
-30 -5 -33 2.1441 -19.4124
-30 -5 -31 5.1128 0.2835
-30 -5 -29 9.8062 12.5490
-30 -5 -27 -3.5732 12.7394
-30 -5 -25 5.6529 -11.3477
-30 -5 -23 -6.8161 10.8725
-30 -5 -21 -19.9004 -1.0448
-30 -5 -19 -3.8386 4.0572
-30 -5 -17 20.8245 21.1209
-30 -5 -15 6.2510 15.0291
-30 -5 -13 17.7683 2.0514
-30 -5 -11 1.7138 10.3614
-30 -5 -9 27.0826 -36.1860
-30 -5 -7 -85.6437 -34.1332
-30 -5 -5 -15.2352 -20.8905
-30 -5 -3 -22.8578 71.9203
-30 -5 -1 13.0884 17.6663
-30 -4 -36 6.2558 23.0667
-30 -4 -34 15.0742 -17.0936
-30 -4 -32 -9.7579 15.8297
-30 -4 -30 20.9670 5.1131
-30 -4 -28 -11.2592 -9.6977
-30 -4 -26 -10.0832 -12.5887
-30 -4 -24 -4.0729 6.9844
-30 -4 -22 -15.8429 -3.4812
-30 -4 -20 13.2472 -10.1365
-30 -4 -18 -8.1236 -19.9235
-30 -4 -16 8.3951 9.6082
-30 -4 -14 5.5621 -46.8614
-30 -4 -12 13.9099 0.9114
-30 -4 -10 56.7095 41.8091
-30 -4 -8 -8.8358 28.4309
-30 -4 -6 -3.0524 41.1152
-30 -4 -4 -6.7819 24.5554
-30 -4 -2 24.1151 -4.1059
-30 -3 -37 2.3443 -0.8307
-30 -3 -35 -20.8607 4.7437
-30 -3 -33 -14.2673 2.5644
-30 -3 -31 7.9844 12.8863
-30 -3 -29 19.8678 -23.0031
-30 -3 -27 -1.7921 -15.9448
-30 -3 -25 -11.0449 18.0623
-30 -3 -23 -13.0518 -3.9392
-30 -3 -21 5.4608 -2.7387
-30 -3 -19 -3.4384 8.2546
-30 -3 -17 9.9600 13.3674
-30 -3 -15 19.1460 8.0729
-30 -3 -13 20.0097 6.1826
-30 -3 -11 9.2799 4.6429
-30 -3 -9 -14.1550 18.0661
-30 -3 -7 -22.3468 33.9647
-30 -3 -5 0.1547 -7.0041
-30 -3 -3 20.1915 -22.4204
-30 -3 -1 12.4685 22.6074
-30 -2 -36 -1.6365 17.5595
-30 -2 -34 -17.5256 -9.2923
-30 -2 -32 -6.0583 8.7711
-30 -2 -30 -4.6313 -0.6359
-30 -2 -28 7.0454 -7.6965
-30 -2 -26 -8.8598 6.8958
-30 -2 -24 6.6327 -5.1545
-30 -2 -22 -1.8129 15.3563
-30 -2 -20 1.6951 18.1465
-30 -2 -18 -22.1399 -10.0731
-30 -2 -16 -5.6325 -16.3464
-30 -2 -14 9.4479 -24.0498
-30 -2 -12 -26.3953 28.7750
-30 -2 -10 8.2897 -59.3072
-30 -2 -8 17.5086 -49.2629
-30 -2 -6 -28.8992 8.2037
-30 -2 -4 5.4618 -33.2208
-30 -2 -2 -34.6874 -46.1846
-30 -1 -37 -13.2259 3.9548
-30 -1 -35 -9.7719 -24.3668
-30 -1 -33 2.3334 3.5773
-30 -1 -31 2.0769 -2.6066
-30 -1 -29 -18.1889 -14.9633
-30 -1 -27 16.9426 7.8862
-30 -1 -25 -6.9387 -12.5735
-30 -1 -23 -3.4398 -11.1781
-30 -1 -21 8.6712 -13.9549
-30 -1 -19 4.4930 -10.3020
-30 -1 -17 -4.0317 8.9146
-30 -1 -15 15.4036 7.4059
-30 -1 -13 6.1435 7.3983
-30 -1 -11 20.8939 -1.0115
-30 -1 -9 -9.1319 -18.1316
-30 -1 -7 -46.6272 -14.9825
-30 -1 -5 1.9493 6.3078
-30 -1 -3 -3.4693 2.3589
-30 -1 -1 -6.7423 -3.4473
-29 -28 -27 -1.7349 -1.0041
-29 -28 -25 1.9717 -1.5594
-29 -28 -23 -7.1338 18.0611
-29 -28 -21 -3.4545 3.7193
-29 -28 -19 -1.5655 10.2919
-29 -28 -17 4.2131 -4.4250
-29 -28 -15 -5.0593 6.4102
-29 -28 -13 -1.8893 -6.5354
-29 -28 -11 -14.5991 -14.4450
-29 -28 -9 -0.8924 -0.7490
-29 -28 -7 -3.4083 -15.6923
-29 -28 -5 -3.5709 15.9335
-29 -28 -3 -18.3656 -2.0831
-29 -28 -1 16.5803 -8.7164
-29 -27 -28 -15.7385 11.4686
-29 -27 -26 -4.7230 -16.0740
-29 -27 -24 -11.4239 2.9028
-29 -27 -22 -24.0595 -4.9388
-29 -27 -20 3.1093 -3.1246
-29 -27 -18 7.2173 -17.8567
-29 -27 -16 23.2810 17.5022
-29 -27 -14 1.4374 10.4489
-29 -27 -12 -17.2110 -25.0612
-29 -27 -10 -4.8124 11.4806
-29 -27 -8 19.1049 -5.1879
-29 -27 -6 -0.5550 12.0143
-29 -27 -4 -22.0286 17.0990
-29 -27 -2 -6.4869 1.2234
-29 -26 -29 0.7397 0.4690
-29 -26 -27 -0.9107 -5.9950
-29 -26 -25 -2.5666 -7.1595
-29 -26 -23 -5.9486 10.7871
-29 -26 -21 0.7549 13.3048
-29 -26 -19 9.2224 9.2425
-29 -26 -17 5.8325 -5.0184
-29 -26 -15 -2.4832 -3.9749
-29 -26 -13 4.7663 -2.9658
-29 -26 -11 4.3688 -1.3480
-29 -26 -9 -1.4953 11.2450
-29 -26 -7 22.4990 3.7454
-29 -26 -5 7.6021 -19.0431
-29 -26 -3 2.1299 -4.9190
-29 -26 -1 4.8824 -16.9774
-29 -25 -30 3.2046 14.7598
-29 -25 -28 1.3210 24.5631
-29 -25 -26 -3.1928 2.3014
-29 -25 -24 -1.4547 4.9490
-29 -25 -22 -5.5331 24.4765
-29 -25 -20 -7.4821 7.6089
-29 -25 -18 0.1180 4.6587
-29 -25 -16 29.6700 6.3953
-29 -25 -14 -13.9745 -5.7486
-29 -25 -12 -50.4204 7.0650
-29 -25 -10 4.0247 -3.4471
-29 -25 -8 -27.5948 -32.4360
-29 -25 -6 9.5014 2.8402
-29 -25 -4 50.0242 -15.3396
-29 -25 -2 5.2939 34.2198
-29 -24 -31 18.3525 -6.2813
-29 -24 -29 -20.2820 3.0418
-29 -24 -27 -2.9699 1.4667
-29 -24 -25 -0.9064 -7.2690
-29 -24 -23 -6.2024 -15.9881
-29 -24 -21 1.4021 -10.8150
-29 -24 -19 -4.3906 11.3395
-29 -24 -17 -0.5737 -0.4205
-29 -24 -15 0.4275 4.9056
-29 -24 -13 5.5826 17.2904
-29 -24 -11 1.1794 -4.7464
-29 -24 -9 -19.7871 5.9588
-29 -24 -7 6.4546 8.4803
-29 -24 -5 -23.6094 2.3187
-29 -24 -3 -9.5984 -14.2607
-29 -24 -1 -8.3978 -17.1764
-29 -23 -30 -3.6478 21.5620
-29 -23 -28 13.4640 11.5218
-29 -23 -26 1.6990 -11.9253
-29 -23 -24 6.2362 9.4162
-29 -23 -22 -2.3998 -17.7518
-29 -23 -20 4.5711 -3.3870
-29 -23 -18 -6.2568 5.0729
-29 -23 -16 -29.7219 60.4142
-29 -23 -14 -4.7070 -18.2081
-29 -23 -12 -49.7093 -40.9153
-29 -23 -10 -5.0208 -14.9372
-29 -23 -8 56.9920 70.2606
-29 -23 -6 -16.9487 17.7230
-29 -23 -4 24.9489 39.5553
-29 -23 -2 38.2986 38.4723
-29 -22 -31 -18.0309 -2.0935
-29 -22 -29 26.1613 -5.2540
-29 -22 -27 1.3678 11.7164
-29 -22 -25 -1.2928 15.7986
-29 -22 -23 -12.9195 -0.6988
-29 -22 -21 -13.5742 -5.1164
-29 -22 -19 1.2018 -15.2353
-29 -22 -17 -4.8635 1.9041
-29 -22 -15 -18.1140 13.3494
-29 -22 -13 -0.4657 21.5133
-29 -22 -11 -56.8204 28.1977
-29 -22 -9 17.4119 -0.0371
-29 -22 -7 17.4261 -18.5998
-29 -22 -5 61.7900 -13.3640
-29 -22 -3 25.5449 2.6777
-29 -22 -1 18.5084 -35.7849
-29 -21 -32 20.0887 4.3343
-29 -21 -30 -1.9511 30.2519
-29 -21 -28 -9.4873 -9.0954
-29 -21 -26 -1.1848 7.9043
-29 -21 -24 5.4813 -8.5974
-29 -21 -22 -0.9672 7.2191
-29 -21 -20 30.6136 9.3858
-29 -21 -18 6.6858 -12.0932
-29 -21 -16 -33.1537 -25.0789
-29 -21 -14 5.3812 0.8890
-29 -21 -12 30.0726 33.7423
-29 -21 -10 -13.6523 14.9603
-29 -21 -8 -0.2771 -34.2254
-29 -21 -6 26.7851 -11.8371
-29 -21 -4 -39.3782 -67.3931
-29 -21 -2 -5.1981 25.8681
-29 -20 -33 13.3676 18.1390
-29 -20 -31 1.1743 2.7617
-29 -20 -29 -17.7870 -5.8855
-29 -20 -27 7.6727 2.5645
-29 -20 -25 9.8265 -9.3535
-29 -20 -23 8.1600 -5.2497
-29 -20 -21 1.4220 7.3384
-29 -20 -19 14.0959 -14.6593
-29 -20 -17 18.8378 3.7596
-29 -20 -15 0.0128 19.4333
-29 -20 -13 5.1951 13.3404
-29 -20 -11 33.1631 20.3009
-29 -20 -9 -31.6843 10.5462
-29 -20 -7 -8.9705 -37.4099
-29 -20 -5 -34.5335 -73.9714
-29 -20 -3 -13.7886 -27.0416
-29 -20 -1 38.6838 -0.7792
-29 -19 -32 10.9715 -23.2883
-29 -19 -30 -4.2433 -25.3593
-29 -19 -28 -12.9061 14.8237
-29 -19 -26 13.1870 -4.2819
-29 -19 -24 4.6919 11.4579
-29 -19 -22 -5.5070 -10.9366
-29 -19 -20 11.4800 14.8295
-29 -19 -18 -8.9428 -16.1000
-29 -19 -16 3.8724 4.3248
-29 -19 -14 7.1539 10.9972
-29 -19 -12 0.5445 -15.2395
-29 -19 -10 28.0935 -14.8059
-29 -19 -8 23.6273 -42.5984
-29 -19 -6 -6.2814 13.5337
-29 -19 -4 14.6530 15.0029
-29 -19 -2 12.4819 -28.0559
-29 -18 -33 1.0548 3.0146
-29 -18 -31 -2.4463 10.8435
-29 -18 -29 0.9298 11.0775
-29 -18 -27 -14.8398 16.0957
-29 -18 -25 -2.1622 -8.2109
-29 -18 -23 7.0473 -8.6132
-29 -18 -21 3.8788 2.9784
-29 -18 -19 14.4695 -12.0998
-29 -18 -17 -2.8871 -18.9145
-29 -18 -15 -9.6497 14.0306
-29 -18 -13 6.1340 21.9205
-29 -18 -11 -28.5849 -31.7586
-29 -18 -9 7.5045 -18.9745
-29 -18 -7 6.4453 11.9817
-29 -18 -5 33.7647 -27.5115
-29 -18 -3 -13.1648 -20.4224
-29 -18 -1 25.3411 -51.4148
-29 -17 -34 -6.6204 1.8017
-29 -17 -32 -18.2043 0.2302
-29 -17 -30 -10.7765 3.2770
-29 -17 -28 5.0371 -3.0687
-29 -17 -26 -0.3042 4.5144
-29 -17 -24 6.2424 12.8498
-29 -17 -22 5.0871 2.5481
-29 -17 -20 -2.9015 7.0201
-29 -17 -18 -17.0374 -14.9504
-29 -17 -16 -22.0933 -13.3501
-29 -17 -14 -0.8773 0.0143
-29 -17 -12 2.3404 -2.6698
-29 -17 -10 8.7460 21.7596
-29 -17 -8 -13.2131 -28.1538
-29 -17 -6 11.3575 8.6233
-29 -17 -4 -9.5553 18.6175
-29 -17 -2 -1.5899 -14.5762
-29 -16 -35 6.1006 -25.4369
-29 -16 -33 8.4519 -14.6984
-29 -16 -31 -23.5041 -12.8132
-29 -16 -29 0.2938 18.0921
-29 -16 -27 18.6204 -1.6764
-29 -16 -25 -7.8287 -7.3306
-29 -16 -23 -10.4623 13.5747
-29 -16 -21 -10.1934 6.2100
-29 -16 -19 -16.3581 -12.0732
-29 -16 -17 -3.0438 3.0609
-29 -16 -15 11.8413 -10.9190
-29 -16 -13 -20.0306 11.2736
-29 -16 -11 -20.9171 -11.8980
-29 -16 -9 -8.4948 -19.2032
-29 -16 -7 -30.9203 4.9322
-29 -16 -5 16.0057 -44.9868
-29 -16 -3 46.3920 4.6745
-29 -16 -1 -63.5777 -50.2920
-29 -15 -34 -8.2270 -12.4921
-29 -15 -32 1.9026 -4.8892
-29 -15 -30 5.2912 13.0832
-29 -15 -28 1.7641 -3.7455
-29 -15 -26 11.8922 0.9692
-29 -15 -24 15.9054 -3.7168
-29 -15 -22 13.0811 -7.7918
-29 -15 -20 9.6454 -11.7245
-29 -15 -18 -9.5706 -13.6477
-29 -15 -16 -27.3598 10.9417
-29 -15 -14 -22.2141 21.0187
-29 -15 -12 3.6174 -19.7344
-29 -15 -10 -3.4839 -2.5367
-29 -15 -8 14.9893 -23.8649
-29 -15 -6 25.2399 -3.4654
-29 -15 -4 2.8325 -18.1611
-29 -15 -2 4.9431 17.8044
-29 -14 -35 -1.9225 1.2777
-29 -14 -33 -1.2544 8.6403
-29 -14 -31 17.5584 -7.5220
-29 -14 -29 -13.7445 -15.6572
-29 -14 -27 -11.9406 -5.2234
-29 -14 -25 10.5864 19.4709
-29 -14 -23 1.2069 10.9298
-29 -14 -21 5.8578 -17.8800
-29 -14 -19 -21.8488 6.8831
-29 -14 -17 20.0312 -5.6535
-29 -14 -15 0.7962 7.7465
-29 -14 -13 20.3253 -0.0094
-29 -14 -11 -19.7147 12.9732
-29 -14 -9 28.2927 4.3864
-29 -14 -7 3.4544 13.2603
-29 -14 -5 -26.5060 23.3294
-29 -14 -3 11.9390 61.1402
-29 -14 -1 17.5374 8.6201
-29 -13 -36 3.3041 1.8175
-29 -13 -34 -0.0770 -3.1152
-29 -13 -32 2.6621 0.5329
-29 -13 -30 -10.1697 -0.4019
-29 -13 -28 1.8517 0.0547
-29 -13 -26 19.6813 1.3949
-29 -13 -24 3.6179 2.1903
-29 -13 -22 0.2509 7.1892
-29 -13 -20 -8.1161 -10.5604
-29 -13 -18 -11.9646 -11.7224
-29 -13 -16 21.1065 -11.4803
-29 -13 -14 -8.5368 2.5969
-29 -13 -12 -15.6874 5.9276
-29 -13 -10 -40.1708 6.7971
-29 -13 -8 19.1876 -33.1850
-29 -13 -6 -46.7192 -22.6136
-29 -13 -4 -38.6749 -7.8939
-29 -13 -2 26.1716 -1.5797
-29 -12 -35 0.7273 -5.5631
-29 -12 -33 10.3207 13.5959
-29 -12 -31 5.0966 -3.9195
-29 -12 -29 -8.8556 -12.7870
-29 -12 -27 2.2059 -5.5957
-29 -12 -25 9.0962 12.2468
-29 -12 -23 -14.1488 -9.5949
-29 -12 -21 -8.3810 -4.7562
-29 -12 -19 -3.3552 4.2767
-29 -12 -17 -14.6410 -9.1474
-29 -12 -15 2.9638 9.0544
-29 -12 -13 19.2566 0.8322
-29 -12 -11 -26.7808 -3.7347
-29 -12 -9 -20.1095 -5.1304
-29 -12 -7 7.7006 -11.4820
-29 -12 -5 12.9763 2.0086
-29 -12 -3 -9.1895 -33.5611
-29 -12 -1 -7.8681 0.1718
-29 -11 -36 1.5131 -1.5964
-29 -11 -34 -6.8004 14.6714
-29 -11 -32 5.3053 -1.3268
-29 -11 -30 -6.7215 -2.1330
-29 -11 -28 7.2881 -0.9294
-29 -11 -26 -2.0642 4.9283
-29 -11 -24 -5.4457 -6.8915
-29 -11 -22 9.4757 -8.3999
-29 -11 -20 17.1059 -5.2608
-29 -11 -18 -8.3255 7.8264
-29 -11 -16 0.0958 7.7881
-29 -11 -14 -0.7335 1.8125
-29 -11 -12 -17.8584 -12.2322
-29 -11 -10 -32.5398 -21.8700
-29 -11 -8 -0.4931 -4.2422
-29 -11 -6 1.5636 17.7512
-29 -11 -4 -1.8364 8.2179
-29 -11 -2 -8.9615 -8.5582
-29 -10 -35 -4.9235 0.0332
-29 -10 -33 -8.9854 1.3280
-29 -10 -31 1.1141 -2.0834
-29 -10 -29 12.5130 -5.3955
-29 -10 -27 5.2796 8.9017
-29 -10 -25 -3.2210 10.8961
-29 -10 -23 2.6466 4.6020
-29 -10 -21 -5.6137 2.9337
-29 -10 -19 -3.4539 6.5961
-29 -10 -17 -1.9720 7.5701
-29 -10 -15 5.0960 -2.7844
-29 -10 -13 -2.6939 -17.5960
-29 -10 -11 -14.0031 0.2192
-29 -10 -9 12.9813 6.9448
-29 -10 -7 -14.9297 38.8519
-29 -10 -5 -12.2706 -14.4609
-29 -10 -3 8.1556 -38.4041
-29 -10 -1 31.6234 33.8909
-29 -9 -36 -0.2481 -2.0273
-29 -9 -34 12.4489 2.5813
-29 -9 -32 -1.4780 -4.8059
-29 -9 -30 14.6683 -5.1583
-29 -9 -28 2.9546 0.5873
-29 -9 -26 13.0890 -1.9962
-29 -9 -24 11.2225 2.3832
-29 -9 -22 17.8876 -11.9901
-29 -9 -20 -12.5554 -5.4949
-29 -9 -18 -3.2496 -19.1295
-29 -9 -16 0.6502 7.8162
-29 -9 -14 10.1955 -14.6763
-29 -9 -12 1.9758 -2.0601
-29 -9 -10 -13.0494 1.4568
-29 -9 -8 -25.1176 -3.8867
-29 -9 -6 -34.6087 -23.9449
-29 -9 -4 -5.4991 -8.0507
-29 -9 -2 4.8159 56.9540
-29 -8 -37 -1.2271 2.5030
-29 -8 -35 -2.8798 9.8060
-29 -8 -33 -3.4091 1.2172
-29 -8 -31 -2.4920 6.1429
-29 -8 -29 0.0713 3.3131
-29 -8 -27 -7.8863 -2.6952
-29 -8 -25 -6.9847 7.0296
-29 -8 -23 0.3055 -0.3793
-29 -8 -21 0.9401 3.0752
-29 -8 -19 -1.9963 -7.7186
-29 -8 -17 -6.9661 16.1039
-29 -8 -15 -7.4430 -9.9449
-29 -8 -13 10.3057 -0.1156
-29 -8 -11 39.2521 22.1617
-29 -8 -9 4.3232 -19.8638
-29 -8 -7 1.8850 22.1334
-29 -8 -5 -5.7446 25.1625
-29 -8 -3 29.5702 14.5834
-29 -8 -1 -3.0782 -35.2124
-29 -7 -36 1.8616 0.5486
-29 -7 -34 14.5617 1.8175
-29 -7 -32 3.9954 -0.4818
-29 -7 -30 -9.6705 13.8766
-29 -7 -28 2.4297 1.1938
-29 -7 -26 14.7865 -12.2448
-29 -7 -24 -2.9889 -8.8334
-29 -7 -22 -2.7539 8.7288
-29 -7 -20 -13.5268 0.1923
-29 -7 -18 -6.1610 -6.8568
-29 -7 -16 8.8193 5.4612
-29 -7 -14 8.4112 11.4505
-29 -7 -12 -25.1883 6.7711
-29 -7 -10 -35.2753 17.8010
-29 -7 -8 -12.9786 36.4706
-29 -7 -6 1.3111 -7.9748
-29 -7 -4 -17.5574 10.5512
-29 -7 -2 -8.9807 39.6370
-29 -6 -37 -17.4222 -9.5175
-29 -6 -35 14.6027 4.9001
-29 -6 -33 -1.0008 -1.7790
-29 -6 -31 -17.1998 0.7431
-29 -6 -29 -9.6280 -15.1058
-29 -6 -27 -5.4954 -5.6888
-29 -6 -25 -2.0343 12.8216
-29 -6 -23 -0.8972 6.4007
-29 -6 -21 4.2612 0.4213
-29 -6 -19 15.1219 13.4818
-29 -6 -17 -5.3615 2.2674
-29 -6 -15 -20.1629 13.9146
-29 -6 -13 3.7428 24.1713
-29 -6 -11 68.0590 43.8576
-29 -6 -9 -22.6727 -17.1285
-29 -6 -7 7.0602 -21.8052
-29 -6 -5 -49.7395 31.6526
-29 -6 -3 -5.7701 -13.1245
-29 -6 -1 -2.4860 16.9766
-29 -5 -36 -12.3371 -12.1271
-29 -5 -34 -11.4521 10.3745
-29 -5 -32 2.3717 -2.7709
-29 -5 -30 11.6805 14.3317
-29 -5 -28 2.0047 11.2146
-29 -5 -26 -1.2853 11.6707
-29 -5 -24 -5.1302 4.5846
-29 -5 -22 -5.2727 11.6657
-29 -5 -20 -21.7344 13.3403
-29 -5 -18 8.9532 3.2251
-29 -5 -16 -7.5803 29.9458
-29 -5 -14 -7.0664 0.9431
-29 -5 -12 52.0071 -35.5769
-29 -5 -10 8.2729 -37.1838
-29 -5 -8 35.2670 -5.9996
-29 -5 -6 7.7132 -15.3917
-29 -5 -4 14.6331 0.3202
-29 -5 -2 10.3828 -16.3446
-29 -4 -37 11.7638 16.0237
-29 -4 -35 -2.9904 0.4527
-29 -4 -33 7.2605 -3.6170
-29 -4 -31 0.5834 -2.4050
-29 -4 -29 -2.5714 0.3091
-29 -4 -27 -15.3500 -5.1643
-29 -4 -25 4.6680 21.5371
-29 -4 -23 -3.9187 -2.6675
-29 -4 -21 5.1661 7.9635
-29 -4 -19 -12.6636 -8.1435
-29 -4 -17 -9.2082 0.1303
-29 -4 -15 -4.1845 -17.8985
-29 -4 -13 18.0627 12.9069
-29 -4 -11 56.5438 -0.8274
-29 -4 -9 18.2651 -4.6866
-29 -4 -7 -12.0424 20.3108
-29 -4 -5 -44.6446 -19.9160
-29 -4 -3 20.4173 -44.9801
-29 -4 -1 16.7572 -76.5031
-29 -3 -36 -19.5038 10.0389
-29 -3 -34 -14.7812 3.1720
-29 -3 -32 3.3774 -2.7151
-29 -3 -30 9.1583 -19.1046
-29 -3 -28 0.2311 -14.2501
-29 -3 -26 2.8657 4.8428
-29 -3 -24 4.9563 2.6198
-29 -3 -22 -3.3480 -10.3588
-29 -3 -20 -7.3198 -31.4647
-29 -3 -18 17.4735 -16.6092
-29 -3 -16 -16.8889 33.4545
-29 -3 -14 -16.7849 7.0586
-29 -3 -12 8.7572 69.0012
-29 -3 -10 12.2555 -47.4214
-29 -3 -8 62.2093 48.3899
-29 -3 -6 -3.1959 24.2270
-29 -3 -4 -54.4646 11.4905
-29 -3 -2 9.8293 -3.9063
-29 -2 -37 1.9152 -1.8425
-29 -2 -35 -15.6372 -1.5266
-29 -2 -33 6.6734 14.3495
-29 -2 -31 -2.2775 -8.7399
-29 -2 -29 -10.9387 -18.3117
-29 -2 -27 6.3011 12.8637
-29 -2 -25 -0.4317 -4.3535
-29 -2 -23 5.6721 2.3408
-29 -2 -21 -0.4634 -7.4050
-29 -2 -19 -16.5156 7.5603
-29 -2 -17 -7.3280 -25.9545
-29 -2 -15 6.5911 -9.1646
-29 -2 -13 4.7870 4.2859
-29 -2 -11 11.3541 -2.1352
-29 -2 -9 -12.3848 -20.5067
-29 -2 -7 -16.7294 27.9586
-29 -2 -5 -121.0499 34.5793
-29 -2 -3 0.3364 -26.2073
-29 -2 -1 -24.8385 41.4434
-29 -1 -36 24.9443 -0.3106
-29 -1 -34 20.8271 -2.6505
-29 -1 -32 -6.3288 -3.7571
-29 -1 -30 -11.1019 -7.5859
-29 -1 -28 -0.8137 2.4561
-29 -1 -26 1.7656 -19.3306
-29 -1 -24 0.4475 -7.4983
-29 -1 -22 2.0199 -14.3174
-29 -1 -20 13.6806 -2.3982
-29 -1 -18 -11.2086 1.7768
-29 -1 -16 -11.5219 6.7282
-29 -1 -14 15.4760 8.8279
-29 -1 -12 3.8351 31.5734
-29 -1 -10 16.3509 -21.0581
-29 -1 -8 -44.8892 -4.9474
-29 -1 -6 -11.3321 -28.3087
-29 -1 -4 -24.1470 5.4624
-29 -1 -2 6.6801 7.4687
-28 -27 -29 -0.6826 6.9106
-28 -27 -27 -11.1167 -1.8983
-28 -27 -25 -22.5766 5.4331
-28 -27 -23 0.8535 12.7634
-28 -27 -21 6.6660 6.2102
-28 -27 -19 1.1920 -4.5350
-28 -27 -17 11.4966 -8.3763
-28 -27 -15 -6.4482 -2.4544
-28 -27 -13 5.3323 -7.9798
-28 -27 -11 -9.2761 -17.9175
-28 -27 -9 2.4525 5.7438
-28 -27 -7 1.3047 -19.1799
-28 -27 -5 7.8936 9.5493
-28 -27 -3 -3.4776 -24.7262
-28 -27 -1 0.0846 -0.8242
-28 -26 -30 -8.9004 -12.5658
-28 -26 -28 4.9868 -1.5464
-28 -26 -26 -19.4452 -3.8957
-28 -26 -24 4.6060 1.0253
-28 -26 -22 2.1652 -7.5887
-28 -26 -20 6.7756 13.6423
-28 -26 -18 4.4002 15.4200
-28 -26 -16 -2.3820 -1.8707
-28 -26 -14 -11.7464 20.3765
-28 -26 -12 10.4584 16.5272
-28 -26 -10 -10.4840 -48.8693
-28 -26 -8 -11.0450 14.5004
-28 -26 -6 7.3022 -29.1643
-28 -26 -4 -5.3970 -14.8387
-28 -26 -2 -36.8341 -43.3857
-28 -25 -31 1.6643 10.7607
-28 -25 -29 5.3133 0.4414
-28 -25 -27 -11.8657 12.7159
-28 -25 -25 -13.5445 -9.3122
-28 -25 -23 -0.6774 -11.7853
-28 -25 -21 -5.9669 -11.2738
-28 -25 -19 -9.6475 14.6852
-28 -25 -17 -7.2448 -5.2590
-28 -25 -15 1.8641 5.6257
-28 -25 -13 -2.0024 2.8895
-28 -25 -11 2.7400 -2.1289
-28 -25 -9 -10.3131 -9.5333
-28 -25 -7 18.7509 -22.6859
-28 -25 -5 3.5654 8.8765
-28 -25 -3 32.2633 -22.1528
-28 -25 -1 36.5618 30.0646
-28 -24 -32 -1.0253 -0.5009
-28 -24 -30 4.1738 7.7549
-28 -24 -28 -2.4248 17.0527
-28 -24 -26 -2.5457 -3.8573
-28 -24 -24 -18.5482 3.2747
-28 -24 -22 1.1333 -9.3226
-28 -24 -20 16.7912 3.9780
-28 -24 -18 -17.6676 8.4812
-28 -24 -16 3.1746 -8.7451
-28 -24 -14 -20.0229 52.2797
-28 -24 -12 -9.7413 -1.4969
-28 -24 -10 -68.4510 2.0270
-28 -24 -8 0.8296 -2.2448
-28 -24 -6 -59.4011 17.1396
-28 -24 -4 -0.1704 7.7991
-28 -24 -2 34.2186 19.8619
-28 -23 -31 -7.9706 -15.7279
-28 -23 -29 -5.2766 -11.3502
-28 -23 -27 6.2549 -24.1599
-28 -23 -25 4.8044 -5.3494
-28 -23 -23 -3.9374 2.5013
-28 -23 -21 -8.7466 2.3275
-28 -23 -19 -4.3525 16.4525
-28 -23 -17 -0.0841 0.0186
-28 -23 -15 10.8126 5.6273
-28 -23 -13 -9.0312 15.2932
-28 -23 -11 -30.3154 -19.3908
-28 -23 -9 23.0481 -8.5103
-28 -23 -7 -33.5816 1.2910
-28 -23 -5 -19.4251 -52.0077
-28 -23 -3 39.6023 -39.8700
-28 -23 -1 -44.3972 -17.2271
-28 -22 -32 -12.1130 14.5215
-28 -22 -30 2.9988 -3.2653
-28 -22 -28 7.1742 -3.9367
-28 -22 -26 15.6683 -4.9296
-28 -22 -24 0.2273 -8.2415
-28 -22 -22 -14.5107 -6.7218
-28 -22 -20 13.9866 15.0098
-28 -22 -18 11.7208 29.3462
-28 -22 -16 0.0312 -21.9082
-28 -22 -14 46.5145 -29.0617
-28 -22 -12 -3.9162 -1.3917
-28 -22 -10 40.1735 15.7406
-28 -22 -8 -9.6034 1.1269
-28 -22 -6 -38.4245 4.4651
-28 -22 -4 6.2933 15.4140
-28 -22 -2 -4.1692 36.3753
-28 -21 -33 0.8551 14.2435
-28 -21 -31 10.1000 -9.5904
-28 -21 -29 -9.0290 15.3649
-28 -21 -27 3.8977 -2.3420
-28 -21 -25 0.6708 -1.2525
-28 -21 -23 -20.5341 -9.8117
-28 -21 -21 0.3826 -5.6206
-28 -21 -19 8.3987 -0.9643
-28 -21 -17 8.1592 -9.1564
-28 -21 -15 6.6424 -4.7432
-28 -21 -13 -8.2053 -20.9969
-28 -21 -11 16.1525 -6.5823
-28 -21 -9 9.6648 -36.7940
-28 -21 -7 24.3638 26.3503
-28 -21 -5 -11.8525 -6.2872
-28 -21 -3 -4.7809 -62.8913
-28 -21 -1 8.5838 0.4319
-28 -20 -34 1.7481 18.3338
-28 -20 -32 6.7267 -14.9238
-28 -20 -30 4.4577 -13.6750
-28 -20 -28 -15.3523 3.2066
-28 -20 -26 9.3293 9.9313
-28 -20 -24 -5.7420 -9.6031
-28 -20 -22 11.9848 -3.0485
-28 -20 -20 -0.0712 -10.8861
-28 -20 -18 -5.8330 20.6002
-28 -20 -16 0.7285 21.5010
-28 -20 -14 -26.2391 14.4914
-28 -20 -12 -5.3071 22.0814
-28 -20 -10 -5.0434 -36.2183
-28 -20 -8 5.5457 25.5293
-28 -20 -6 -3.2869 -59.6216
-28 -20 -4 -11.5103 18.5586
-28 -20 -2 0.8716 25.1555
-28 -19 -33 -2.8931 -8.1201
-28 -19 -31 2.7554 -12.2694
-28 -19 -29 3.6664 -2.7339
-28 -19 -27 -0.5251 6.4178
-28 -19 -25 1.2437 -2.3789
-28 -19 -23 -3.1713 6.7742
-28 -19 -21 -19.1559 -7.4467
-28 -19 -19 -9.6903 -7.0446
-28 -19 -17 15.2325 -8.1727
-28 -19 -15 10.2150 3.7770
-28 -19 -13 -22.7206 25.9322
-28 -19 -11 17.8653 18.8932
-28 -19 -9 33.8704 18.7098
-28 -19 -7 19.7492 -0.6108
-28 -19 -5 3.3675 -2.8660
-28 -19 -3 -22.2216 -23.5396
-28 -19 -1 1.1735 -16.7486
-28 -18 -34 21.6389 -15.9575
-28 -18 -32 16.5973 -9.5635
-28 -18 -30 0.1098 1.0125
-28 -18 -28 -9.7036 -8.7372
-28 -18 -26 0.0133 -1.1161
-28 -18 -24 1.2138 -10.9839
-28 -18 -22 -4.8023 -0.4953
-28 -18 -20 -9.8034 -0.4358
-28 -18 -18 0.1111 -0.0192
-28 -18 -16 28.0400 -2.2511
-28 -18 -14 6.8435 -7.7630
-28 -18 -12 -15.6884 -33.7493
-28 -18 -10 5.1394 13.7696
-28 -18 -8 32.2144 8.9714
-28 -18 -6 10.6723 -27.7391
-28 -18 -4 -33.2123 -27.4795
-28 -18 -2 28.1520 -21.3583
-28 -17 -35 19.1458 6.8520
-28 -17 -33 16.8225 15.5971
-28 -17 -31 -16.4057 -13.4198
-28 -17 -29 0.2740 0.1967
-28 -17 -27 0.6535 -14.7173
-28 -17 -25 5.2856 11.3388
-28 -17 -23 -8.4784 -5.4425
-28 -17 -21 6.1253 8.2910
-28 -17 -19 -4.1230 7.9648
-28 -17 -17 -19.0254 11.5547
-28 -17 -15 13.4003 8.2444
-28 -17 -13 -12.6891 25.8138
-28 -17 -11 1.3201 11.2777
-28 -17 -9 13.7171 -5.5026
-28 -17 -7 30.3203 -4.0126
-28 -17 -5 -8.4832 -12.4851
-28 -17 -3 -41.2126 64.8163
-28 -17 -1 -14.4070 19.9213
-28 -16 -34 18.7415 -9.5885
-28 -16 -32 6.2941 -1.5214
-28 -16 -30 11.6485 -8.0981
-28 -16 -28 3.8832 -0.4286
-28 -16 -26 -6.5912 -1.7542
-28 -16 -24 4.1099 12.4632
-28 -16 -22 -5.8425 6.5124
-28 -16 -20 6.2904 -8.8744
-28 -16 -18 -8.1663 18.0166
-28 -16 -16 -2.5439 -14.7886
-28 -16 -14 21.8142 31.7139
-28 -16 -12 -15.2571 -12.6920
-28 -16 -10 -14.0340 -25.3829
-28 -16 -8 -29.6148 -4.1941
-28 -16 -6 -27.0775 -1.2660
-28 -16 -4 -47.9639 -5.7311
-28 -16 -2 2.2746 13.9340
-28 -15 -35 -10.3550 15.7129
-28 -15 -33 1.5252 -1.7886
-28 -15 -31 2.8428 -2.7525
-28 -15 -29 24.7793 -19.7399
-28 -15 -27 -14.1755 2.0226
-28 -15 -25 -0.7767 -13.6875
-28 -15 -23 -6.8419 2.1273
-28 -15 -21 -17.4552 14.2145
-28 -15 -19 11.3393 5.7153
-28 -15 -17 -8.7726 2.6006
-28 -15 -15 -7.1724 -4.0275
-28 -15 -13 -12.8301 -2.9308
-28 -15 -11 -3.1839 -29.1813
-28 -15 -9 3.3780 6.6557
-28 -15 -7 18.1411 12.4369
-28 -15 -5 -5.2852 -48.7923
-28 -15 -3 7.0101 6.2937
-28 -15 -1 -40.6304 13.4132
-28 -14 -36 -0.7165 0.6489
-28 -14 -34 16.9863 1.1382
-28 -14 -32 9.2233 11.5478
-28 -14 -30 -1.2644 6.3697
-28 -14 -28 -3.1725 2.3096
-28 -14 -26 22.3045 -5.1764
-28 -14 -24 -6.8327 -6.8518
-28 -14 -22 -4.7968 -4.5592
-28 -14 -20 -3.4092 5.2207
-28 -14 -18 11.5343 -6.9671
-28 -14 -16 3.9669 -2.6626
-28 -14 -14 0.8932 5.3482
-28 -14 -12 7.0858 -29.6291
-28 -14 -10 16.4456 -1.7445
-28 -14 -8 -9.1020 1.5498
-28 -14 -6 -21.2425 26.7014
-28 -14 -4 29.7173 -19.3096
-28 -14 -2 31.6312 32.7172
-28 -13 -35 -20.7913 -4.0212
-28 -13 -33 -0.1621 1.5537
-28 -13 -31 -5.6521 -18.8457
-28 -13 -29 -11.6128 -2.9552
-28 -13 -27 -9.5550 -2.9415
-28 -13 -25 13.7854 2.6894
-28 -13 -23 -9.0655 -10.7819
-28 -13 -21 -15.0886 5.5847
-28 -13 -19 -1.6768 2.8198
-28 -13 -17 -11.5617 1.1606
-28 -13 -15 -12.5941 -8.1635
-28 -13 -13 20.7747 -13.0576
-28 -13 -11 16.4896 -8.8997
-28 -13 -9 -10.8153 -25.4545
-28 -13 -7 -5.7048 13.5579
-28 -13 -5 -21.6129 -28.7714
-28 -13 -3 0.9720 4.2279
-28 -13 -1 -40.6293 38.0316
-28 -12 -36 4.3169 10.9745
-28 -12 -34 6.7189 13.5087
-28 -12 -32 -14.7174 -1.0649
-28 -12 -30 10.0435 -6.9965
-28 -12 -28 -10.0256 -2.9270
-28 -12 -26 10.4780 6.1326
-28 -12 -24 11.6018 -7.7533
-28 -12 -22 -13.4127 -3.5868
-28 -12 -20 1.0177 -2.4494
-28 -12 -18 12.3126 15.3206
-28 -12 -16 -9.8862 13.9790
-28 -12 -14 4.4743 -15.5446
-28 -12 -12 -14.0178 24.3296
-28 -12 -10 4.8673 13.2455
-28 -12 -8 -0.2717 12.0965
-28 -12 -6 10.1032 11.0697
-28 -12 -4 10.7917 -15.4941
-28 -12 -2 13.6616 6.9112
-28 -11 -37 0.3816 3.1582
-28 -11 -35 -3.9442 16.5642
-28 -11 -33 3.5257 -7.7825
-28 -11 -31 12.8545 3.1742
-28 -11 -29 -1.0751 -3.1558
-28 -11 -27 13.4315 -7.3520
-28 -11 -25 -4.8693 -13.8538
-28 -11 -23 11.1991 -0.9369
-28 -11 -21 -6.1003 16.7273
-28 -11 -19 -3.7590 13.2408
-28 -11 -17 -7.9795 -1.4446
-28 -11 -15 1.5080 -15.3992
-28 -11 -13 1.7162 8.5445
-28 -11 -11 7.4204 9.5913
-28 -11 -9 -21.0723 10.0734
-28 -11 -7 23.2632 -1.8300
-28 -11 -5 -4.0692 10.7973
-28 -11 -3 -9.0976 32.1457
-28 -11 -1 -22.6640 9.4651
-28 -10 -36 -1.1940 -15.4491
-28 -10 -34 -10.2762 -4.9453
-28 -10 -32 6.8652 -1.6636
-28 -10 -30 14.2201 -3.8764
-28 -10 -28 15.2063 -6.0818
-28 -10 -26 13.9782 8.4314
-28 -10 -24 -3.3913 18.5995
-28 -10 -22 -8.2381 4.8048
-28 -10 -20 6.1815 -6.2703
-28 -10 -18 0.3420 6.3604
-28 -10 -16 11.7891 3.2846
-28 -10 -14 -29.2689 -2.2050
-28 -10 -12 0.1790 12.3097
-28 -10 -10 -9.6384 -3.5332
-28 -10 -8 -14.9531 -7.1122
-28 -10 -6 4.9872 -23.0688
-28 -10 -4 23.3719 20.0102
-28 -10 -2 3.7686 -19.2088
-28 -9 -37 5.0794 -5.2499
-28 -9 -35 -12.9769 -12.4651
-28 -9 -33 -15.9710 9.0182
-28 -9 -31 -0.0546 14.9610
-28 -9 -29 6.7566 -17.3984
-28 -9 -27 -0.4219 -4.5936
-28 -9 -25 3.9348 -5.7152
-28 -9 -23 0.6452 14.2679
-28 -9 -21 -1.1040 7.4590
-28 -9 -19 6.7884 1.6377
-28 -9 -17 7.5859 20.2772
-28 -9 -15 10.3869 11.9204
-28 -9 -13 -0.4007 2.5379
-28 -9 -11 -18.3941 1.8584
-28 -9 -9 1.2901 -16.8509
-28 -9 -7 -7.3165 18.6452
-28 -9 -5 -20.7248 38.6282
-28 -9 -3 -13.3609 43.9563
-28 -9 -1 27.5818 -28.4372
-28 -8 -36 14.7127 17.4334
-28 -8 -34 15.2378 -14.8680
-28 -8 -32 6.1036 -0.8978
-28 -8 -30 -2.9303 6.5844
-28 -8 -28 -19.1090 -4.6108
-28 -8 -26 -4.6513 -0.1775
-28 -8 -24 16.7069 -1.6020
-28 -8 -22 -3.2720 22.2312
-28 -8 -20 7.0562 -4.1954
-28 -8 -18 10.1702 -27.6417
-28 -8 -16 11.1598 -13.7814
-28 -8 -14 -23.1825 -13.9436
-28 -8 -12 -12.4507 -10.7774
-28 -8 -10 6.4563 -64.0286
-28 -8 -8 -13.8930 -6.1334
-28 -8 -6 2.9370 15.4158
-28 -8 -4 -23.0638 34.3735
-28 -8 -2 1.1037 -20.1309
-28 -7 -37 6.1326 -18.0387
-28 -7 -35 7.3771 -11.2086
-28 -7 -33 0.5572 0.4279
-28 -7 -31 2.2819 2.5943
-28 -7 -29 0.9612 1.9035
-28 -7 -27 -4.1178 -0.6536
-28 -7 -25 4.4047 -1.0119
-28 -7 -23 -10.5579 -0.6729
-28 -7 -21 -6.1733 4.7106
-28 -7 -19 12.3782 9.6054
-28 -7 -17 -4.0294 -5.6734
-28 -7 -15 -2.7217 1.6571
-28 -7 -13 14.8015 -9.5842
-28 -7 -11 54.5329 2.9657
-28 -7 -9 11.3170 5.8598
-28 -7 -7 46.0168 12.5351
-28 -7 -5 -1.2263 -9.0349
-28 -7 -3 -0.3438 -34.0283
-28 -7 -1 22.4601 -19.6208
-28 -6 -38 14.4051 0.2488
-28 -6 -36 1.1485 1.0399
-28 -6 -34 -1.1428 0.7074
-28 -6 -32 3.0753 10.8878
-28 -6 -30 10.6598 -12.3840
-28 -6 -28 2.0181 -2.2335
-28 -6 -26 7.7351 -1.1897
-28 -6 -24 -7.3509 -5.8527
-28 -6 -22 15.6951 1.3940
-28 -6 -20 -5.4272 23.9924
-28 -6 -18 23.3363 19.7502
-28 -6 -16 13.7955 -28.0510
-28 -6 -14 -43.5314 -39.3827
-28 -6 -12 -4.3067 -9.5869
-28 -6 -10 -1.7055 23.4824
-28 -6 -8 -10.2755 -8.5488
-28 -6 -6 7.8606 1.8007
-28 -6 -4 7.8118 13.3098
-28 -6 -2 -23.5802 -7.2139
-28 -5 -37 19.6255 1.8665
-28 -5 -35 2.7138 0.8537
-28 -5 -33 -22.8541 12.3945
-28 -5 -31 1.8630 1.5719
-28 -5 -29 -14.6338 0.9831
-28 -5 -27 6.6189 -8.2264
-28 -5 -25 2.1996 -6.3282
-28 -5 -23 -8.7395 -0.4578
-28 -5 -21 -4.7062 2.8478
-28 -5 -19 -0.3242 -1.7122
-28 -5 -17 -22.5230 -15.1934
-28 -5 -15 12.1804 6.3056
-28 -5 -13 -4.5999 -11.5254
-28 -5 -11 22.8228 20.0227
-28 -5 -9 -2.0871 29.1477
-28 -5 -7 20.9315 31.1484
-28 -5 -5 -28.6509 24.9135
-28 -5 -3 9.3954 6.3498
-28 -5 -1 18.1264 -17.5304
-28 -4 -38 -5.8121 7.0975
-28 -4 -36 26.7251 -13.4828
-28 -4 -34 -5.9962 5.8217
-28 -4 -32 -1.6166 -2.4423
-28 -4 -30 -3.4349 1.4053
-28 -4 -28 -1.7310 -0.7976
-28 -4 -26 12.3087 13.1284
-28 -4 -24 4.5983 -13.5577
-28 -4 -22 14.8261 -9.4575
-28 -4 -20 -8.4617 -14.9959
-28 -4 -18 11.7214 -33.6669
-28 -4 -16 3.1001 3.0664
-28 -4 -14 9.8053 -50.5862
-28 -4 -12 -15.3647 9.1488
-28 -4 -10 8.1143 77.4098
-28 -4 -8 14.2210 -25.8389
-28 -4 -6 -26.7082 6.3382
-28 -4 -4 -17.9669 -3.7352
-28 -4 -2 28.1695 -2.4042
-28 -3 -37 4.4041 -0.0136
-28 -3 -35 -1.4810 2.1269
-28 -3 -33 -2.1519 -10.9510
-28 -3 -31 12.5600 2.3977
-28 -3 -29 1.0401 2.1211
-28 -3 -27 21.8768 -5.2691
-28 -3 -25 -15.1631 2.5099
-28 -3 -23 5.5019 2.1192
-28 -3 -21 13.3709 -9.6702
-28 -3 -19 -6.5108 -1.1881
-28 -3 -17 -1.5647 13.3747
-28 -3 -15 20.0026 -0.8744
-28 -3 -13 -20.8968 10.6396
-28 -3 -11 0.4871 21.7858
-28 -3 -9 56.6990 -73.3760
-28 -3 -7 -8.7863 20.0904
-28 -3 -5 -73.5630 66.6381
-28 -3 -3 0.6111 21.2924
-28 -3 -1 -4.6464 73.3786
-28 -2 -38 -0.1898 -18.2147
-28 -2 -36 -19.2353 2.5042
-28 -2 -34 -2.7840 18.5464
-28 -2 -32 -5.2350 -2.8062
-28 -2 -30 1.0535 -2.8868
-28 -2 -28 -6.0964 0.6361
-28 -2 -26 -9.8218 12.6836
-28 -2 -24 7.9811 -10.2807
-28 -2 -22 4.3988 -24.9870
-28 -2 -20 -2.9821 23.5852
-28 -2 -18 29.6943 2.2751
-28 -2 -16 -17.2486 11.2693
-28 -2 -14 16.2701 -45.3397
-28 -2 -12 -13.6426 7.9338
-28 -2 -10 -57.9049 -39.0070
-28 -2 -8 15.1818 -4.5132
-28 -2 -6 -37.5057 29.9369
-28 -2 -4 -1.3855 -59.5692
-28 -2 -2 -6.9098 4.4428
-28 -1 -37 0.8202 0.1733
-28 -1 -35 -0.8840 0.2018
-28 -1 -33 3.1638 2.5170
-28 -1 -31 -13.7556 -12.8173
-28 -1 -29 2.5024 0.8317
-28 -1 -27 10.7294 -2.6846
-28 -1 -25 -23.6876 2.9270
-28 -1 -23 0.9982 6.9050
-28 -1 -21 -10.7353 5.5528
-28 -1 -19 2.4006 -0.4706
-28 -1 -17 -2.5189 15.8611
-28 -1 -15 25.9864 3.0114
-28 -1 -13 -20.9966 3.7961
-28 -1 -11 29.4897 25.7013
-28 -1 -9 13.9902 -11.7073
-28 -1 -7 40.5103 75.4523
-28 -1 -5 -6.8838 4.4028
-28 -1 -3 58.1756 -59.5442
-28 -1 -1 -27.9124 80.8638
-27 -26 -31 -2.3962 -0.3956
-27 -26 -29 -9.0378 11.6475
-27 -26 -27 16.7659 -3.3691
-27 -26 -25 3.6743 -4.0519
-27 -26 -23 2.6078 -17.5146
-27 -26 -21 1.1273 -8.7322
-27 -26 -19 5.2543 10.7862
-27 -26 -17 1.0410 -7.1246
-27 -26 -15 2.9110 -2.8751
-27 -26 -13 -5.3933 -3.2187
-27 -26 -11 5.1441 -1.0830
-27 -26 -9 -0.7671 16.7506
-27 -26 -7 -14.6612 0.6089
-27 -26 -5 10.7793 -20.1723
-27 -26 -3 6.1658 3.0994
-27 -26 -1 10.4126 14.3530
-27 -25 -32 -13.3118 -14.2103
-27 -25 -30 -2.9094 1.7802
-27 -25 -28 -11.3178 11.0298
-27 -25 -26 -5.8509 3.3940
-27 -25 -24 -20.6148 0.1083
-27 -25 -22 -3.0842 3.1994
-27 -25 -20 -7.0554 -9.4934
-27 -25 -18 2.1540 2.7271
-27 -25 -16 -33.1961 2.2304
-27 -25 -14 2.2736 12.4866
-27 -25 -12 -16.8787 39.6432
-27 -25 -10 -2.8222 3.4388
-27 -25 -8 -11.4193 -43.1685
-27 -25 -6 -1.6323 4.0576
-27 -25 -4 -0.1481 -4.8305
-27 -25 -2 -13.5616 13.0618
-27 -24 -31 -1.2949 -1.3814
-27 -24 -29 -11.3901 -6.1343
-27 -24 -27 -2.3102 -7.8878
-27 -24 -25 9.4777 -7.5388
-27 -24 -23 -14.2311 12.7778
-27 -24 -21 -5.5927 -5.1321
-27 -24 -19 -10.9101 9.1882
-27 -24 -17 -12.2289 0.3242
-27 -24 -15 -10.7862 7.0227
-27 -24 -13 1.0154 -13.0638
-27 -24 -11 7.2063 -0.2831
-27 -24 -9 13.6869 -12.9400
-27 -24 -7 -29.0593 -25.3652
-27 -24 -5 -10.5303 20.5287
-27 -24 -3 29.9620 -12.4376
-27 -24 -1 -32.9278 -11.9707
-27 -23 -32 -3.4223 -0.3452
-27 -23 -30 -19.1831 -18.1603
-27 -23 -28 10.1439 9.5266
-27 -23 -26 -1.7719 13.6087
-27 -23 -24 -2.4969 -10.3841
-27 -23 -22 10.3125 -0.6815
-27 -23 -20 -12.9794 4.7350
-27 -23 -18 -6.2918 -9.1556
-27 -23 -16 26.6393 -17.3475
-27 -23 -14 -11.4421 -8.6845
-27 -23 -12 -1.8788 39.4449
-27 -23 -10 -0.3549 -7.2088
-27 -23 -8 -3.1592 34.5873
-27 -23 -6 -3.2929 12.1768
-27 -23 -4 -17.7828 12.4342
-27 -23 -2 23.5419 23.9936
-27 -22 -33 -4.2736 -23.2203
-27 -22 -31 -2.2004 2.2959
-27 -22 -29 0.0543 1.5049
-27 -22 -27 12.4603 10.5725
-27 -22 -25 17.5406 18.9070
-27 -22 -23 10.0329 7.3094
-27 -22 -21 -4.7153 -5.8499
-27 -22 -19 13.1107 15.9211
-27 -22 -17 -0.4425 -0.2143
-27 -22 -15 -0.4591 7.2371
-27 -22 -13 14.3641 1.8932
-27 -22 -11 11.4565 -8.2218
-27 -22 -9 26.0432 -1.4576
-27 -22 -7 29.4732 -37.1532
-27 -22 -5 -6.0933 -51.5685
-27 -22 -3 -34.4195 1.9885
-27 -22 -1 -14.4564 45.1927
-27 -21 -34 13.9696 -9.9006
-27 -21 -32 0.7864 2.8065
-27 -21 -30 1.6567 22.7397
-27 -21 -28 9.7280 -25.5911
-27 -21 -26 -1.4036 5.5899
-27 -21 -24 -9.1947 8.4888
-27 -21 -22 -3.7858 11.4560
-27 -21 -20 -11.1140 -15.4846
-27 -21 -18 10.6180 -2.8091
-27 -21 -16 25.9061 -10.2822
-27 -21 -14 2.4013 -28.5970
-27 -21 -12 11.5184 -14.4351
-27 -21 -10 0.6432 14.8848
-27 -21 -8 -16.6705 -33.8601
-27 -21 -6 2.3204 11.3826
-27 -21 -4 6.1122 -31.3033
-27 -21 -2 -6.8374 -6.0222
-27 -20 -33 -15.4142 16.6491
-27 -20 -31 -17.9547 -16.7389
-27 -20 -29 3.2140 -10.5349
-27 -20 -27 -3.4314 0.0480
-27 -20 -25 7.8199 -13.7207
-27 -20 -23 12.3057 -3.9065
-27 -20 -21 -1.0818 4.6889
-27 -20 -19 -8.5535 -21.8717
-27 -20 -17 14.6055 12.4251
-27 -20 -15 14.7573 -48.2408
-27 -20 -13 38.0135 0.1678
-27 -20 -11 -20.6387 -24.5130
-27 -20 -9 -23.6616 4.9796
-27 -20 -7 -14.8385 -7.2198
-27 -20 -5 9.4416 -3.7452
-27 -20 -3 -6.0516 7.4444
-27 -20 -1 -13.4495 -21.2729
-27 -19 -34 29.3240 -5.2436
-27 -19 -32 0.9642 -5.1615
-27 -19 -30 -5.6480 -0.0244
-27 -19 -28 -5.1642 -1.2295
-27 -19 -26 -10.8907 14.5930
-27 -19 -24 3.0077 4.4709
-27 -19 -22 5.2255 -7.4571
-27 -19 -20 3.3859 5.6187
-27 -19 -18 1.3406 -7.2261
-27 -19 -16 3.7659 18.0401
-27 -19 -14 -8.6272 20.4286
-27 -19 -12 3.6485 -25.5648
-27 -19 -10 7.5842 -17.2642
-27 -19 -8 26.7174 -3.5027
-27 -19 -6 -18.5413 -24.6852
-27 -19 -4 -13.0894 33.8508
-27 -19 -2 59.9616 -12.4247
-27 -18 -35 0.9703 4.2842
-27 -18 -33 -17.5428 -22.1040
-27 -18 -31 -4.1738 8.8464
-27 -18 -29 -9.4673 1.5066
-27 -18 -27 12.3713 -1.2724
-27 -18 -25 0.5144 -3.7018
-27 -18 -23 5.6072 3.0639
-27 -18 -21 -6.4577 -6.5975
-27 -18 -19 -17.9631 -3.8073
-27 -18 -17 -6.2094 -25.2327
-27 -18 -15 -21.4459 14.4614
-27 -18 -13 6.1879 9.4727
-27 -18 -11 -10.6192 -15.6802
-27 -18 -9 -2.0706 13.2937
-27 -18 -7 28.3292 15.4259
-27 -18 -5 19.6880 -8.2829
-27 -18 -3 -35.1315 -34.8206
-27 -18 -1 -18.0351 -5.5203
-27 -17 -36 -19.4869 -11.8252
-27 -17 -34 17.2900 -12.2824
-27 -17 -32 -0.0230 -1.8777
-27 -17 -30 0.9795 10.4410
-27 -17 -28 11.9446 9.0224
-27 -17 -26 13.3625 4.5984
-27 -17 -24 10.3838 14.8360
-27 -17 -22 11.0426 -9.6758
-27 -17 -20 -7.3223 5.9156
-27 -17 -18 -31.5351 -19.3842
-27 -17 -16 1.2874 -4.0971
-27 -17 -14 4.6367 8.5219
-27 -17 -12 -14.6597 3.5097
-27 -17 -10 -11.5882 13.1187
-27 -17 -8 16.6712 34.0474
-27 -17 -6 -17.5853 19.6524
-27 -17 -4 -6.8375 5.6689
-27 -17 -2 -13.3341 -59.6690
-27 -16 -35 10.3746 8.7773
-27 -16 -33 11.3272 17.8331
-27 -16 -31 -0.8571 1.6180
-27 -16 -29 -5.6973 -11.0875
-27 -16 -27 0.6413 0.9364
-27 -16 -25 3.6416 10.0253
-27 -16 -23 -0.7720 -15.6594
-27 -16 -21 -1.6367 -6.4296
-27 -16 -19 13.7736 3.6897
-27 -16 -17 -20.6737 5.3434
-27 -16 -15 -16.4242 1.9905
-27 -16 -13 4.7162 23.9797
-27 -16 -11 11.7586 -27.4375
-27 -16 -9 -9.0961 -16.2895
-27 -16 -7 9.7527 14.0390
-27 -16 -5 -6.8982 8.2574
-27 -16 -3 53.5435 -9.3692
-27 -16 -1 -3.9535 15.5693
-27 -15 -36 21.5075 -10.4767
-27 -15 -34 -0.6237 -1.3954
-27 -15 -32 14.3483 12.9069
-27 -15 -30 2.7383 -6.2368
-27 -15 -28 4.4978 -10.3636
-27 -15 -26 1.4978 -5.3152
-27 -15 -24 5.9188 2.9217
-27 -15 -22 -13.0839 -11.3864
-27 -15 -20 -2.6354 -5.3763
-27 -15 -18 2.6092 -0.5650
-27 -15 -16 14.8812 5.5006
-27 -15 -14 2.3555 8.4870
-27 -15 -12 -3.8987 -37.5674
-27 -15 -10 -11.9570 -22.9518
-27 -15 -8 7.5423 5.8921
-27 -15 -6 15.1733 5.7053
-27 -15 -4 -5.3742 27.7434
-27 -15 -2 13.1689 34.5487
-27 -14 -37 -17.8668 8.2999
-27 -14 -35 8.4598 3.9043
-27 -14 -33 -17.7828 -17.4761
-27 -14 -31 4.3636 -1.6097
-27 -14 -29 0.8166 4.6525
-27 -14 -27 -0.0550 11.7029
-27 -14 -25 -8.9183 -7.1952
-27 -14 -23 5.3406 2.2848
-27 -14 -21 8.4980 0.8409
-27 -14 -19 4.6637 3.6386
-27 -14 -17 8.2226 9.2272
-27 -14 -15 -12.2306 30.1535
-27 -14 -13 1.3325 -7.9383
-27 -14 -11 22.6745 10.1310
-27 -14 -9 32.6554 45.1653
-27 -14 -7 60.5845 31.6570
-27 -14 -5 -16.1054 0.8188
-27 -14 -3 -43.3807 19.3439
-27 -14 -1 24.4631 37.1623
-27 -13 -36 -8.3194 15.8929
-27 -13 -34 0.8483 -2.1368
-27 -13 -32 -1.7273 -25.7409
-27 -13 -30 15.0703 -3.8049
-27 -13 -28 1.3264 7.5971
-27 -13 -26 -1.4824 2.3270
-27 -13 -24 -3.7600 16.2681
-27 -13 -22 -0.0802 -26.8222
-27 -13 -20 1.5820 -5.2526
-27 -13 -18 -8.2897 -2.3720
-27 -13 -16 -2.5184 7.6618
-27 -13 -14 16.1865 -12.4826
-27 -13 -12 -5.7207 -6.4245
-27 -13 -10 -4.9359 -28.8951
-27 -13 -8 29.1403 -12.2689
-27 -13 -6 -6.5143 5.3641
-27 -13 -4 4.5597 8.0361
-27 -13 -2 12.5905 9.3621
-27 -12 -37 -12.7406 -3.0678
-27 -12 -35 -1.3653 1.4500
-27 -12 -33 12.4173 1.7880
-27 -12 -31 -1.9188 6.1940
-27 -12 -29 -10.5687 -12.4519
-27 -12 -27 0.4343 -19.3165
-27 -12 -25 -17.5289 -0.9418
-27 -12 -23 5.6558 -3.5349
-27 -12 -21 -13.1864 8.5187
-27 -12 -19 -4.0960 -1.3729
-27 -12 -17 9.6193 -5.0802
-27 -12 -15 -3.4074 13.8162
-27 -12 -13 -19.1216 -15.3359
-27 -12 -11 -5.7711 -4.4175
-27 -12 -9 -4.6336 21.0528
-27 -12 -7 -4.6988 -26.3528
-27 -12 -5 16.9000 34.3098
-27 -12 -3 -44.0256 -7.6987
-27 -12 -1 7.7932 -2.4621
-27 -11 -36 0.3142 -0.0176
-27 -11 -34 11.1070 -10.3996
-27 -11 -32 -0.8119 1.9352
-27 -11 -30 -4.4846 3.7235
-27 -11 -28 -6.5635 2.5094
-27 -11 -26 -10.5644 2.6722
-27 -11 -24 -5.8632 -4.4254
-27 -11 -22 23.9422 7.4315
-27 -11 -20 -2.1736 10.9500
-27 -11 -18 19.8655 3.8648
-27 -11 -16 -3.1977 27.8727
-27 -11 -14 -22.2978 -16.3939
-27 -11 -12 -30.8158 -18.1138
-27 -11 -10 -22.0495 -11.2000
-27 -11 -8 10.8965 -33.2771
-27 -11 -6 -11.6810 30.3583
-27 -11 -4 -20.7621 -6.1361
-27 -11 -2 8.8576 -8.3909
-27 -10 -37 -13.7710 -12.8696
-27 -10 -35 12.5515 -21.7413
-27 -10 -33 -9.8162 -12.6479
-27 -10 -31 13.3827 -11.5450
-27 -10 -29 15.9705 3.4988
-27 -10 -27 -3.1835 0.1216
-27 -10 -25 -4.0421 -19.2930
-27 -10 -23 15.5960 2.0713
-27 -10 -21 15.3005 12.0145
-27 -10 -19 -0.7197 2.6423
-27 -10 -17 5.1318 -13.0562
-27 -10 -15 3.9173 -17.1617
-27 -10 -13 -23.1826 -19.9124
-27 -10 -11 -15.1398 -19.0896
-27 -10 -9 -18.3690 7.5019
-27 -10 -7 21.5474 -33.0903
-27 -10 -5 -5.8857 -26.0320
-27 -10 -3 -37.5297 6.4140
-27 -10 -1 9.2498 56.5357
-27 -9 -38 10.2882 12.9083
-27 -9 -36 -10.2202 0.0645
-27 -9 -34 -3.9602 -2.0214
-27 -9 -32 2.3225 -3.0115
-27 -9 -30 -8.7987 -2.3861
-27 -9 -28 4.1354 -4.5099
-27 -9 -26 2.1921 1.5685
-27 -9 -24 10.1382 0.1424
-27 -9 -22 -7.9949 -12.9934
-27 -9 -20 -12.3877 -13.0133
-27 -9 -18 2.1200 -5.2182
-27 -9 -16 8.5075 -20.5007
-27 -9 -14 26.8792 6.8269
-27 -9 -12 45.8279 -5.1901
-27 -9 -10 -25.6958 15.7543
-27 -9 -8 32.1976 52.5291
-27 -9 -6 50.9935 -20.7100
-27 -9 -4 3.7819 7.1059
-27 -9 -2 -26.5703 -2.2728
-27 -8 -37 0.8055 -9.0039
-27 -8 -35 10.7144 20.3392
-27 -8 -33 -14.3975 -4.7931
-27 -8 -31 -0.7309 -17.6120
-27 -8 -29 -2.0437 3.2847
-27 -8 -27 0.2382 9.0350
-27 -8 -25 -3.7935 -1.5380
-27 -8 -23 9.4243 -0.0639
-27 -8 -21 12.9678 -17.7601
-27 -8 -19 -8.6424 -18.6844
-27 -8 -17 2.9773 -1.1256
-27 -8 -15 -8.1599 -36.5011
-27 -8 -13 11.6746 -10.4543
-27 -8 -11 3.9564 -21.8617
-27 -8 -9 -26.1984 -11.2802
-27 -8 -7 39.2310 -34.8359
-27 -8 -5 -42.4024 37.2629
-27 -8 -3 -26.0259 20.3471
-27 -8 -1 56.1474 -77.1891
-27 -7 -38 -15.4782 9.2575
-27 -7 -36 9.2664 -13.2183
-27 -7 -34 -1.0668 1.2265
-27 -7 -32 6.1006 15.8659
-27 -7 -30 -9.2019 3.7315
-27 -7 -28 -7.5705 -3.3998
-27 -7 -26 -9.5302 -1.5447
-27 -7 -24 9.0170 6.3509
-27 -7 -22 19.3637 -22.1817
-27 -7 -20 1.5178 -22.5545
-27 -7 -18 -0.3478 5.1668
-27 -7 -16 4.0314 31.9741
-27 -7 -14 -9.1470 -5.9366
-27 -7 -12 26.7755 -11.5452
-27 -7 -10 -4.1767 9.1907
-27 -7 -8 26.7146 96.5431
-27 -7 -6 -11.4000 -81.9950
-27 -7 -4 -43.6224 30.6517
-27 -7 -2 23.6995 -6.6185
-27 -6 -37 -2.3194 -8.5938
-27 -6 -35 -5.7039 -17.0297
-27 -6 -33 12.1356 -0.2671
-27 -6 -31 -1.1367 2.2962
-27 -6 -29 7.2753 -1.7242
-27 -6 -27 7.9224 -7.5093
-27 -6 -25 15.6654 9.6991
-27 -6 -23 16.7816 -1.6611
-27 -6 -21 10.6635 -5.3559
-27 -6 -19 12.8518 15.9698
-27 -6 -17 -18.4195 0.2143
-27 -6 -15 -18.2702 6.9926
-27 -6 -13 19.3872 -11.1918
-27 -6 -11 14.4299 -17.1148
-27 -6 -9 18.6847 -8.1479
-27 -6 -7 68.1927 -74.0585
-27 -6 -5 38.4394 -8.9510
-27 -6 -3 -9.8741 18.9088
-27 -6 -1 -17.8034 66.9992
-27 -5 -38 9.1882 -8.9648
-27 -5 -36 0.4908 -1.8231
-27 -5 -34 7.8540 2.2099
-27 -5 -32 6.0685 10.6558
-27 -5 -30 -4.6517 2.0195
-27 -5 -28 20.7170 -4.7243
-27 -5 -26 -15.0516 1.5735
-27 -5 -24 2.4190 -1.7283
-27 -5 -22 13.6502 1.6163
-27 -5 -20 -38.3468 7.2977
-27 -5 -18 -4.4933 5.3759
-27 -5 -16 19.0226 -31.8194
-27 -5 -14 -4.5164 -5.3328
-27 -5 -12 36.0077 -24.0643
-27 -5 -10 2.9951 16.7848
-27 -5 -8 9.6638 -45.0215
-27 -5 -6 -40.2729 -130.2705
-27 -5 -4 49.4101 32.6002
-27 -5 -2 -18.8440 41.0857
-27 -4 -37 0.5120 -0.6396
-27 -4 -35 -17.4245 2.5193
-27 -4 -33 -2.9056 0.1247
-27 -4 -31 2.8455 8.5400
-27 -4 -29 -5.8515 -10.4347
-27 -4 -27 5.6619 -14.5547
-27 -4 -25 -1.6400 5.3443
-27 -4 -23 10.5607 -14.0461
-27 -4 -21 15.1553 -7.7665
-27 -4 -19 -13.8198 20.1503
-27 -4 -17 17.8511 7.8142
-27 -4 -15 -16.9919 28.1306
-27 -4 -13 12.9769 41.1010
-27 -4 -11 -29.8149 -0.5700
-27 -4 -9 36.6527 28.9255
-27 -4 -7 -26.7632 0.3222
-27 -4 -5 -75.9576 4.0576
-27 -4 -3 -23.9284 -4.5006
-27 -4 -1 63.8442 -62.2050
-27 -3 -38 -15.6972 -20.1410
-27 -3 -36 -20.8844 4.5169
-27 -3 -34 7.7232 2.5154
-27 -3 -32 1.0852 -1.3760
-27 -3 -30 1.4837 1.3379
-27 -3 -28 -2.0000 1.8035
-27 -3 -26 7.1156 5.1731
-27 -3 -24 -8.6273 5.2421
-27 -3 -22 -12.6263 6.1598
-27 -3 -20 8.1448 -21.7719
-27 -3 -18 -14.0216 -11.1433
-27 -3 -16 3.1376 -25.0169
-27 -3 -14 -6.2261 2.9356
-27 -3 -12 60.4309 -19.1072
-27 -3 -10 16.9716 0.4509
-27 -3 -8 69.1704 -15.7466
-27 -3 -6 -0.1009 72.3965
-27 -3 -4 21.0775 -42.8681
-27 -3 -2 -9.5193 31.0200
-27 -2 -39 18.2896 -24.3417
-27 -2 -37 0.6274 -5.6467
-27 -2 -35 20.7823 -2.8127
-27 -2 -33 -1.9972 -2.1983
-27 -2 -31 0.1793 -4.5513
-27 -2 -29 -1.7009 -7.8703
-27 -2 -27 -10.0973 9.4362
-27 -2 -25 8.6572 -5.7894
-27 -2 -23 17.1851 -21.2932
-27 -2 -21 0.3677 4.2796
-27 -2 -19 0.4103 -3.6776
-27 -2 -17 -15.6936 -2.6146
-27 -2 -15 15.1751 -13.2886
-27 -2 -13 21.5561 -7.3344
-27 -2 -11 -23.2495 13.4261
-27 -2 -9 -24.2748 -46.0379
-27 -2 -7 -37.9886 39.3099
-27 -2 -5 -74.5685 -49.0383
-27 -2 -3 -4.8120 -23.5911
-27 -2 -1 64.4664 -50.6833
-27 -1 -38 -12.8082 4.7832
-27 -1 -36 -1.2084 -2.1880
-27 -1 -34 6.2854 -1.0485
-27 -1 -32 0.6724 -0.4597
-27 -1 -30 8.4821 -2.0981
-27 -1 -28 3.8912 10.2531
-27 -1 -26 3.0656 8.9376
-27 -1 -24 -8.4042 -0.6076
-27 -1 -22 -2.7558 -1.1563
-27 -1 -20 -7.1362 22.4725
-27 -1 -18 -11.8307 16.4594
-27 -1 -16 -21.8111 0.0405
-27 -1 -14 -4.7298 8.5082
-27 -1 -12 22.6415 -51.3415
-27 -1 -10 -19.4519 -16.2247
-27 -1 -8 -42.6472 -29.1920
-27 -1 -6 -3.7764 16.9520
-27 -1 -4 73.8961 77.6511
-27 -1 -2 -7.7909 -82.8099
-26 -25 -31 12.0547 10.9475
-26 -25 -29 8.8804 -7.9564
-26 -25 -27 -17.4189 -21.7710
-26 -25 -25 -14.9664 0.9879
-26 -25 -23 -14.6244 5.4132
-26 -25 -21 3.2063 -0.7670
-26 -25 -19 4.2393 -1.2185
-26 -25 -17 -2.6216 -2.7249
-26 -25 -15 6.6747 9.8519
-26 -25 -13 -7.7730 5.6573
-26 -25 -11 8.3114 -0.0653
-26 -25 -9 -21.9072 28.0537
-26 -25 -7 7.4535 0.5175
-26 -25 -5 -21.2647 -3.6673
-26 -25 -3 -3.1942 1.3058
-26 -25 -1 10.6828 21.6785
-26 -24 -32 -17.3893 11.9277
-26 -24 -30 23.3471 2.4768
-26 -24 -28 10.7779 -1.9236
-26 -24 -26 3.4469 -12.3626
-26 -24 -24 10.9137 -0.4073
-26 -24 -22 -0.1469 -2.5673
-26 -24 -20 3.6070 7.3365
-26 -24 -18 4.3303 19.5892
-26 -24 -16 -9.6784 -12.9534
-26 -24 -14 -25.4956 -24.3057
-26 -24 -12 -4.5938 1.7397
-26 -24 -10 -12.9003 -24.8725
-26 -24 -8 10.1217 -15.8335
-26 -24 -6 10.5083 -21.7218
-26 -24 -4 3.2393 12.3965
-26 -24 -2 -31.0255 -16.6834
-26 -23 -33 -23.5988 7.4048
-26 -23 -31 -1.1636 -0.0778
-26 -23 -29 18.9784 -13.8866
-26 -23 -27 -0.4245 -0.6938
-26 -23 -25 0.3306 1.2520
-26 -23 -23 1.3441 -2.6845
-26 -23 -21 -2.8606 -3.8465
-26 -23 -19 -7.8746 -2.7425
-26 -23 -17 5.0327 -1.6865
-26 -23 -15 -7.2991 -0.0327
-26 -23 -13 3.3139 23.0251
-26 -23 -11 9.5056 -16.9671
-26 -23 -9 19.5940 -2.2149
-26 -23 -7 7.8444 -29.1531
-26 -23 -5 1.1855 -8.0876
-26 -23 -3 0.5809 18.0646
-26 -23 -1 5.9020 14.5310
-26 -22 -34 -19.7757 -8.1993
-26 -22 -32 18.2195 5.8862
-26 -22 -30 6.5966 -15.9659
-26 -22 -28 -13.2108 9.4838
-26 -22 -26 -0.0796 -9.7943
-26 -22 -24 -7.4602 -7.3831
-26 -22 -22 -3.2837 -1.1994
-26 -22 -20 -3.7754 -8.6631
-26 -22 -18 -4.4680 -32.3934
-26 -22 -16 9.3253 -12.4608
-26 -22 -14 -37.2497 -23.8768
-26 -22 -12 2.5264 -20.7714
-26 -22 -10 11.3664 10.6523
-26 -22 -8 -29.1254 -7.0333
-26 -22 -6 40.6199 -1.9489
-26 -22 -4 20.8238 -9.3145
-26 -22 -2 31.2683 -8.7124
-26 -21 -33 10.2478 -2.7749
-26 -21 -31 -0.3115 21.0328
-26 -21 -29 -14.8940 -19.5788
-26 -21 -27 -1.0577 -4.1623
-26 -21 -25 9.1393 4.6818
-26 -21 -23 -3.3673 13.9715
-26 -21 -21 -3.7085 -2.5259
-26 -21 -19 7.8227 -8.8817
-26 -21 -17 -8.8600 -13.0060
-26 -21 -15 -10.0154 1.2026
-26 -21 -13 -10.5921 -5.6440
-26 -21 -11 -23.7114 11.7952
-26 -21 -9 23.9266 -19.6936
-26 -21 -7 -3.1515 -21.1309
-26 -21 -5 -11.1459 -24.0005
-26 -21 -3 -6.3309 34.4761
-26 -21 -1 -11.4463 -7.7700
-26 -20 -34 -17.9236 2.9236
-26 -20 -32 2.6385 -2.6970
-26 -20 -30 6.5509 -8.6193
-26 -20 -28 -8.6211 -19.4727
-26 -20 -26 -9.9120 -13.1548
-26 -20 -24 1.0379 -17.4413
-26 -20 -22 -12.3928 6.0317
-26 -20 -20 -10.4109 4.5244
-26 -20 -18 5.1856 4.9988
-26 -20 -16 -11.0768 -11.7968
-26 -20 -14 23.5000 -2.8328
-26 -20 -12 -1.8735 35.8490
-26 -20 -10 26.6341 -0.6994
-26 -20 -8 1.0024 1.5338
-26 -20 -6 11.4317 42.0180
-26 -20 -4 -21.6695 15.1273
-26 -20 -2 27.4809 -16.5625
-26 -19 -35 1.5745 -17.6197
-26 -19 -33 -4.6802 0.2118
-26 -19 -31 9.4153 29.4417
-26 -19 -29 0.8037 -0.4172
-26 -19 -27 -1.6404 -3.9752
-26 -19 -25 -1.1047 3.2577
-26 -19 -23 1.2676 -12.7853
-26 -19 -21 -5.5340 -15.1753
-26 -19 -19 0.1338 0.2970
-26 -19 -17 9.0900 -13.8278
-26 -19 -15 2.8416 -11.2468
-26 -19 -13 25.1807 -11.0770
-26 -19 -11 -0.2987 10.1195
-26 -19 -9 -14.1255 3.1915
-26 -19 -7 19.3933 -12.6359
-26 -19 -5 -28.9377 -3.0118
-26 -19 -3 -18.6598 -24.7979
-26 -19 -1 3.4770 -11.7399
-26 -18 -36 13.6262 -11.1112
-26 -18 -34 22.4911 -1.8058
-26 -18 -32 -12.3746 11.9394
-26 -18 -30 -1.5557 1.5136
-26 -18 -28 -7.4097 -8.2544
-26 -18 -26 -3.4868 9.2103
-26 -18 -24 9.1042 0.6385
-26 -18 -22 15.9757 1.0886
-26 -18 -20 -7.3810 -3.2017
-26 -18 -18 -2.6915 14.9096
-26 -18 -16 -1.4307 22.2073
-26 -18 -14 17.9129 -5.1027
-26 -18 -12 -7.3164 -1.7647
-26 -18 -10 -6.9861 -8.6605
-26 -18 -8 10.3658 1.1142
-26 -18 -6 -8.3290 -29.1642
-26 -18 -4 21.1115 23.1912
-26 -18 -2 2.0360 2.6925
-26 -17 -35 -8.0818 -23.4975
-26 -17 -33 -20.6513 0.1675
-26 -17 -31 1.8946 -2.1686
-26 -17 -29 12.1793 -4.4497
-26 -17 -27 6.2797 7.3159
-26 -17 -25 0.4228 -3.1527
-26 -17 -23 -1.5649 -11.0461
-26 -17 -21 16.8067 -4.8038
-26 -17 -19 8.2422 -1.3015
-26 -17 -17 -6.7299 -11.1896
-26 -17 -15 12.3487 -9.8604
-26 -17 -13 -21.9695 37.5242
-26 -17 -11 2.0447 -20.3073
-26 -17 -9 3.3382 -5.6509
-26 -17 -7 8.8980 3.4340
-26 -17 -5 -27.7114 17.7598
-26 -17 -3 -85.3861 50.2304
-26 -17 -1 30.9108 -16.3701
-26 -16 -36 33.0557 -7.0284
-26 -16 -34 -2.4051 2.4107
-26 -16 -32 -4.2613 15.2751
-26 -16 -30 -8.5254 -14.3423
-26 -16 -28 1.6680 1.2885
-26 -16 -26 -9.0889 2.4920
-26 -16 -24 7.2175 -2.5143
-26 -16 -22 10.5332 -5.6158
-26 -16 -20 13.3903 8.6170
-26 -16 -18 -8.0496 -5.4715
-26 -16 -16 18.4381 -31.5318
-26 -16 -14 -2.7502 -1.9930
-26 -16 -12 -8.9162 24.7041
-26 -16 -10 -18.0711 -3.6987
-26 -16 -8 10.5614 -18.2742
-26 -16 -6 -27.2292 3.1936
-26 -16 -4 7.4725 -1.2075
-26 -16 -2 -7.5811 7.7706
-26 -15 -37 -0.2929 1.5143
-26 -15 -35 -1.8012 1.7685
-26 -15 -33 -1.4213 -3.3209
-26 -15 -31 13.1951 16.4641
-26 -15 -29 -0.5484 -14.1240
-26 -15 -27 -3.1196 -3.7474
-26 -15 -25 -4.0771 -7.6461
-26 -15 -23 -1.7097 -1.8506
-26 -15 -21 -18.7241 -12.4696
-26 -15 -19 -17.5524 -15.6556
-26 -15 -17 1.3265 5.9528
-26 -15 -15 -26.4892 -13.5753
-26 -15 -13 7.6564 -15.3826
-26 -15 -11 18.7232 15.7170
-26 -15 -9 31.4101 -3.3107
-26 -15 -7 26.5140 -2.6323
-26 -15 -5 7.3295 52.7220
-26 -15 -3 -6.2145 43.8182
-26 -15 -1 5.3802 -49.8990
-26 -14 -36 -2.7671 0.0572
-26 -14 -34 -2.6029 -19.5315
-26 -14 -32 -5.7138 -0.8739
-26 -14 -30 -3.7989 9.6295
-26 -14 -28 -19.3109 1.4027
-26 -14 -26 3.6642 -3.5673
-26 -14 -24 -0.8295 -9.6973
-26 -14 -22 4.9576 -9.3896
-26 -14 -20 -27.4897 -5.3979
-26 -14 -18 9.8737 -7.6631
-26 -14 -16 -11.3889 9.4192
-26 -14 -14 30.4620 18.9988
-26 -14 -12 27.1575 11.7044
-26 -14 -10 -17.6306 -5.1142
-26 -14 -8 0.3548 -48.5139
-26 -14 -6 0.2512 -42.8251
-26 -14 -4 15.5097 55.7294
-26 -14 -2 -9.6963 33.3362
-26 -13 -37 2.2586 25.7335
-26 -13 -35 -19.6440 1.3717
-26 -13 -33 1.1499 -2.4056
-26 -13 -31 -13.0950 -5.9073
-26 -13 -29 -9.1952 -10.1460
-26 -13 -27 2.2321 -4.7003
-26 -13 -25 3.3169 0.3828
-26 -13 -23 3.1188 6.2327
-26 -13 -21 -9.6397 -3.0203
-26 -13 -19 2.7220 2.5617
-26 -13 -17 5.4796 -12.4758
-26 -13 -15 -28.3716 9.7928
-26 -13 -13 1.7545 -14.4819
-26 -13 -11 10.4456 14.4913
-26 -13 -9 -6.3325 28.8947
-26 -13 -7 -20.5752 -2.2198
-26 -13 -5 34.2775 -33.5712
-26 -13 -3 -13.2808 -57.5432
-26 -13 -1 -118.1738 7.7764
-26 -12 -38 2.8954 -0.2171
-26 -12 -36 1.9758 -0.0445
-26 -12 -34 -10.6391 13.6008
-26 -12 -32 8.8945 -0.6015
-26 -12 -30 0.2897 -0.4421
-26 -12 -28 12.4671 1.7083
-26 -12 -26 -8.6958 9.1696
-26 -12 -24 -4.0871 8.2716
-26 -12 -22 -7.7120 -4.7166
-26 -12 -20 -16.1383 -0.4259
-26 -12 -18 9.3592 12.3863
-26 -12 -16 -14.6051 14.4929
-26 -12 -14 0.8760 1.4563
-26 -12 -12 -9.4389 4.2779
-26 -12 -10 -12.9717 40.8783
-26 -12 -8 5.7804 -52.7833
-26 -12 -6 -15.3150 -1.7890
-26 -12 -4 42.7731 -4.8280
-26 -12 -2 13.9458 -13.7442
-26 -11 -37 -10.2992 -13.3693
-26 -11 -35 -4.7078 21.4148
-26 -11 -33 -4.9400 6.1409
-26 -11 -31 5.1563 4.5658
-26 -11 -29 9.8402 -1.2402
-26 -11 -27 3.2388 -11.8691
-26 -11 -25 17.0788 -0.0073
-26 -11 -23 -8.9303 1.7660
-26 -11 -21 6.9793 4.4357
-26 -11 -19 -6.7084 11.9121
-26 -11 -17 7.2395 -18.7673
-26 -11 -15 13.1312 14.4910
-26 -11 -13 -0.9627 17.0390
-26 -11 -11 -9.5866 17.9966
-26 -11 -9 -42.7042 -24.9323
-26 -11 -7 12.8013 -40.9336
-26 -11 -5 35.4389 32.2206
-26 -11 -3 14.7536 -0.9627
-26 -11 -1 -28.7074 7.1251
-26 -10 -38 -26.0239 -5.5132
-26 -10 -36 -2.9545 1.2449
-26 -10 -34 5.7786 -23.8109
-26 -10 -32 -13.3331 -6.3132
-26 -10 -30 -1.1858 1.0308
-26 -10 -28 8.1980 0.6379
-26 -10 -26 -4.5129 -2.9728
-26 -10 -24 -0.5136 -4.4566
-26 -10 -22 -9.4633 -10.1578
-26 -10 -20 -7.7992 -17.1228
-26 -10 -18 -7.7296 6.2551
-26 -10 -16 -27.9378 -9.7594
-26 -10 -14 11.7665 -17.3768
-26 -10 -12 18.2802 35.4507
-26 -10 -10 13.7322 -31.9360
-26 -10 -8 -35.0833 -10.8359
-26 -10 -6 -21.1390 2.7919
-26 -10 -4 28.2207 11.1082
-26 -10 -2 -31.4955 -38.2660
-26 -9 -37 -20.2018 11.1636
-26 -9 -35 -28.1803 0.0145
-26 -9 -33 8.2466 -3.4256
-26 -9 -31 3.1326 3.1473
-26 -9 -29 6.8368 12.8956
-26 -9 -27 9.9438 -13.2507
-26 -9 -25 3.5458 -11.9423
-26 -9 -23 13.2099 17.8360
-26 -9 -21 17.0073 3.1071
-26 -9 -19 28.0020 -11.7111
-26 -9 -17 4.6774 18.5000
-26 -9 -15 7.0377 -21.4461
-26 -9 -13 5.0413 10.4492
-26 -9 -11 -12.9074 -9.1803
-26 -9 -9 3.7141 40.8261
-26 -9 -7 30.7481 -40.9367
-26 -9 -5 -62.7567 -11.2345
-26 -9 -3 31.1813 1.6727
-26 -9 -1 16.1268 6.0040
-26 -8 -38 17.4460 5.8450
-26 -8 -36 -1.0270 0.2831
-26 -8 -34 -13.1710 -1.5441
-26 -8 -32 -3.8024 -8.7218
-26 -8 -30 -4.8294 15.5944
-26 -8 -28 2.4856 9.7019
-26 -8 -26 -1.0145 2.5785
-26 -8 -24 -1.8217 8.6843
-26 -8 -22 -3.0988 -3.7851
-26 -8 -20 6.4121 -11.3799
-26 -8 -18 -2.1899 -12.2683
-26 -8 -16 -16.4039 -31.3538
-26 -8 -14 39.9276 -7.8386
-26 -8 -12 1.6486 1.6134
-26 -8 -10 19.7039 38.1767
-26 -8 -8 -42.3119 -7.1713
-26 -8 -6 -5.1327 3.3301
-26 -8 -4 50.1280 8.6242
-26 -8 -2 10.4845 -76.5029
-26 -7 -39 6.8806 -25.6244
-26 -7 -37 2.8779 -18.0269
-26 -7 -35 1.8641 0.6828
-26 -7 -33 8.8595 -1.4453
-26 -7 -31 10.4883 -10.1723
-26 -7 -29 7.6978 -11.6232
-26 -7 -27 -0.8884 0.4724
-26 -7 -25 16.2302 -7.4092
-26 -7 -23 13.6814 -17.2800
-26 -7 -21 -19.1377 7.2722
-26 -7 -19 -5.1007 6.4416
-26 -7 -17 -7.1736 12.0383
-26 -7 -15 -19.2306 -3.5294
-26 -7 -13 -9.5748 -18.5874
-26 -7 -11 31.1530 8.4819
-26 -7 -9 26.7747 -16.7873
-26 -7 -7 -23.5065 10.6871
-26 -7 -5 19.5542 81.3418
-26 -7 -3 24.4694 -24.5609
-26 -7 -1 -1.1858 -17.6536
-26 -6 -38 1.3372 10.0542
-26 -6 -36 -13.4639 -0.7732
-26 -6 -34 -6.6844 -3.7547
-26 -6 -32 2.4275 -4.1714
-26 -6 -30 -7.1763 -7.7312
-26 -6 -28 -7.6936 -2.6381
-26 -6 -26 0.9252 -1.0834
-26 -6 -24 -12.0805 -20.4487
-26 -6 -22 1.4331 -17.9368
-26 -6 -20 3.3602 0.6854
-26 -6 -18 -9.8134 29.2588
-26 -6 -16 -9.6008 1.9999
-26 -6 -14 68.7460 -10.1253
-26 -6 -12 -24.6745 0.8500
-26 -6 -10 -19.1264 35.2981
-26 -6 -8 -54.5879 46.3170
-26 -6 -6 -25.0814 16.1337
-26 -6 -4 -7.6855 -17.7116
-26 -6 -2 36.7230 8.6363
-26 -5 -39 21.3485 -8.3568
-26 -5 -37 6.0738 -1.8797
-26 -5 -35 -5.7757 -22.0589
-26 -5 -33 17.8550 -5.9143
-26 -5 -31 -0.3697 16.8463
-26 -5 -29 3.3400 0.2340
-26 -5 -27 8.3037 -0.1862
-26 -5 -25 -6.4524 7.1256
-26 -5 -23 -6.9417 10.7235
-26 -5 -21 3.7887 -5.2010
-26 -5 -19 -3.9461 -29.9441
-26 -5 -17 -5.6379 2.8169
-26 -5 -15 -11.0934 1.4318
-26 -5 -13 11.6274 -2.4366
-26 -5 -11 -15.9690 -51.2498
-26 -5 -9 40.5584 21.6495
-26 -5 -7 -67.3517 -59.6529
-26 -5 -5 34.2992 -24.1335
-26 -5 -3 31.0067 -44.0655
-26 -5 -1 45.1678 71.7621
-26 -4 -38 20.3023 -8.7808
-26 -4 -36 3.9294 -13.7176
-26 -4 -34 -15.2989 -12.0131
-26 -4 -32 16.6370 1.6078
-26 -4 -30 -0.2420 -0.1266
-26 -4 -28 -1.5277 5.4696
-26 -4 -26 -3.1086 -6.5520
-26 -4 -24 10.4035 5.4066
-26 -4 -22 21.6453 -7.1069
-26 -4 -20 7.1092 15.9771
-26 -4 -18 -42.3800 -6.2470
-26 -4 -16 17.9030 -4.2228
-26 -4 -14 24.2012 34.1709
-26 -4 -12 -17.3318 40.3592
-26 -4 -10 -9.7507 32.1836
-26 -4 -8 -9.7500 37.2688
-26 -4 -6 -36.5448 34.5495
-26 -4 -4 33.2296 -103.1470
-26 -4 -2 23.0911 -23.7098
-26 -3 -39 -1.8815 -13.9310
-26 -3 -37 14.5188 -10.5649
-26 -3 -35 -14.1630 6.1666
-26 -3 -33 5.0258 1.9315
-26 -3 -31 10.6986 -12.0589
-26 -3 -29 8.8988 -0.7538
-26 -3 -27 1.8919 -0.7549
-26 -3 -25 -2.6516 18.5819
-26 -3 -23 -0.1386 23.0097
-26 -3 -21 2.8922 -0.8652
-26 -3 -19 -0.7792 -13.3689
-26 -3 -17 24.5942 4.4242
-26 -3 -15 -7.0299 -12.7372
-26 -3 -13 -33.1056 13.9815
-26 -3 -11 -6.3974 17.0356
-26 -3 -9 23.0597 -25.4012
-26 -3 -7 2.9834 36.7378
-26 -3 -5 2.3007 -33.5299
-26 -3 -3 -82.9602 39.2659
-26 -3 -1 60.7461 112.5299
-26 -2 -38 17.2662 14.0688
-26 -2 -36 6.6204 -19.6795
-26 -2 -34 -22.5633 6.8225
-26 -2 -32 2.5419 -12.8011
-26 -2 -30 -0.4830 -1.0977
-26 -2 -28 -1.5024 -4.0523
-26 -2 -26 4.0876 -6.3451
-26 -2 -24 -11.9230 35.9350
-26 -2 -22 -10.5292 17.4379
-26 -2 -20 8.0657 0.9777
-26 -2 -18 -7.0757 15.7251
-26 -2 -16 -15.0978 7.4041
-26 -2 -14 4.7218 35.0070
-26 -2 -12 -23.2698 14.8793
-26 -2 -10 0.8682 31.3169
-26 -2 -8 35.0455 -64.3215
-26 -2 -6 51.9943 22.8331
-26 -2 -4 -20.4664 -39.8760
-26 -2 -2 14.5710 7.5328
-26 -1 -39 -1.1190 1.3396
-26 -1 -37 2.9863 0.4169
-26 -1 -35 -3.6701 -7.2658
-26 -1 -33 3.9845 2.1551
-26 -1 -31 2.6143 -3.8428
-26 -1 -29 2.6876 -1.7106
-26 -1 -27 7.6344 -9.6643
-26 -1 -25 -5.8707 -21.8490
-26 -1 -23 -2.9995 11.8558
-26 -1 -21 -10.4954 3.4162
-26 -1 -19 1.2648 13.4325
-26 -1 -17 15.6615 9.3844
-26 -1 -15 30.7010 47.4749
-26 -1 -13 9.4483 -18.7280
-26 -1 -11 9.6619 31.6447
-26 -1 -9 -22.4908 39.7576
-26 -1 -7 75.5515 39.2713
-26 -1 -5 -130.7465 38.3034
-26 -1 -3 -45.7434 9.3344
-26 -1 -1 10.5817 29.3765
-25 -24 -33 6.9375 11.3094
-25 -24 -31 -5.2486 0.3383
-25 -24 -29 -8.7565 -12.9451
-25 -24 -27 -4.9297 1.0751
-25 -24 -25 9.6976 -3.9682
-25 -24 -23 4.1693 2.7103
-25 -24 -21 -13.8360 -2.8489
-25 -24 -19 10.4142 3.3875
-25 -24 -17 8.8643 -10.3010
-25 -24 -15 -3.5742 -15.9927
-25 -24 -13 5.8714 -9.7510
-25 -24 -11 3.3753 7.8190
-25 -24 -9 -13.6807 -16.1335
-25 -24 -7 -17.6334 0.4590
-25 -24 -5 -3.0780 23.5388
-25 -24 -3 10.1148 -1.4561
-25 -24 -1 -12.2004 -3.8594
-25 -23 -34 -10.7343 -0.2917
-25 -23 -32 -12.8396 -6.0428
-25 -23 -30 19.7594 -8.4942
-25 -23 -28 13.7988 5.7650
-25 -23 -26 19.1447 -7.7433
-25 -23 -24 -3.7530 4.4008
-25 -23 -22 2.6502 -3.9258
-25 -23 -20 13.0634 -6.5596
-25 -23 -18 5.7666 13.5085
-25 -23 -16 10.3002 15.7665
-25 -23 -14 0.1490 8.4887
-25 -23 -12 12.5450 -31.3156
-25 -23 -10 -23.5955 27.8345
-25 -23 -8 7.2508 -9.1496
-25 -23 -6 35.7355 2.7052
-25 -23 -4 -2.8512 -2.1682
-25 -23 -2 32.7714 25.2735
-25 -22 -35 -1.5885 -3.8854
-25 -22 -33 -3.6985 22.8822
-25 -22 -31 -16.1655 9.4296
-25 -22 -29 11.3122 0.6569
-25 -22 -27 -3.5216 2.0838
-25 -22 -25 -8.0700 -2.9457
-25 -22 -23 -2.8596 -3.6851
-25 -22 -21 2.6622 4.3068
-25 -22 -19 -8.3123 -8.8630
-25 -22 -17 6.0018 10.1121
-25 -22 -15 18.6502 -8.2112
-25 -22 -13 12.5913 4.4629
-25 -22 -11 -22.5854 2.3280
-25 -22 -9 28.0185 9.4007
-25 -22 -7 -15.1944 20.8952
-25 -22 -5 19.5602 -7.5504
-25 -22 -3 -36.3724 49.4303
-25 -22 -1 -16.7983 -4.6428
-25 -21 -34 0.7560 5.1125
-25 -21 -32 10.2623 15.4475
-25 -21 -30 -3.9102 -10.0803
-25 -21 -28 -2.1127 -0.4573
-25 -21 -26 6.9965 -19.4657
-25 -21 -24 5.2286 -12.0465
-25 -21 -22 -3.0607 -18.1891
-25 -21 -20 -1.8840 -9.3511
-25 -21 -18 7.7414 7.4220
-25 -21 -16 24.7931 -26.0796
-25 -21 -14 -18.0391 4.0883
-25 -21 -12 -1.5195 8.3667
-25 -21 -10 25.4569 -9.9507
-25 -21 -8 -19.4337 0.4208
-25 -21 -6 -28.9952 34.8222
-25 -21 -4 -35.0337 9.0813
-25 -21 -2 -3.9969 -3.8081
-25 -20 -35 -22.2903 -9.7669
-25 -20 -33 -8.8418 16.0103
-25 -20 -31 -5.5205 -16.6556
-25 -20 -29 -26.9217 4.4930
-25 -20 -27 -2.4661 0.8549
-25 -20 -25 6.9994 -9.2905
-25 -20 -23 14.4514 -9.0014
-25 -20 -21 -6.3828 -6.1719
-25 -20 -19 -10.8671 0.6837
-25 -20 -17 -10.8723 -5.0936
-25 -20 -15 -14.1849 16.6472
-25 -20 -13 -2.5729 -0.3484
-25 -20 -11 -18.6744 -3.4743
-25 -20 -9 -8.2161 1.8134
-25 -20 -7 22.6513 1.0615
-25 -20 -5 -4.7002 40.9214
-25 -20 -3 -9.0208 32.9073
-25 -20 -1 -3.1428 33.9225
-25 -19 -36 20.5551 -1.9404
-25 -19 -34 1.2231 14.8686
-25 -19 -32 -2.1856 0.6560
-25 -19 -30 -4.8031 1.9633
-25 -19 -28 1.2100 -19.2064
-25 -19 -26 -5.2798 2.9149
-25 -19 -24 -13.2129 -2.1252
-25 -19 -22 -2.6904 -16.4438
-25 -19 -20 -6.0115 -4.1839
-25 -19 -18 7.4669 4.1942
-25 -19 -16 14.4231 0.8056
-25 -19 -14 -18.3863 6.5013
-25 -19 -12 4.9966 25.3766
-25 -19 -10 10.7061 -12.5961
-25 -19 -8 1.8124 15.8452
-25 -19 -6 -1.8027 -30.1535
-25 -19 -4 -15.2180 -3.9796
-25 -19 -2 -0.6522 14.1169
-25 -18 -35 3.7106 -0.6479
-25 -18 -33 -2.8522 -3.6721
-25 -18 -31 -1.3067 1.4369
-25 -18 -29 4.0106 -1.6908
-25 -18 -27 -2.0382 4.3710
-25 -18 -25 10.2234 -3.4338
-25 -18 -23 -0.0288 -13.0593
-25 -18 -21 -2.2264 2.0318
-25 -18 -19 -9.4665 5.2886
-25 -18 -17 4.9580 -12.8693
-25 -18 -15 -3.9823 -19.3702
-25 -18 -13 -0.6730 -13.6748
-25 -18 -11 -13.6322 34.5272
-25 -18 -9 -16.1873 0.6583
-25 -18 -7 -12.4983 14.6458
-25 -18 -5 7.9834 -7.5310
-25 -18 -3 -15.3963 -12.2047
-25 -18 -1 39.8773 -19.0038
-25 -17 -36 2.9244 12.0964
-25 -17 -34 10.9633 13.8543
-25 -17 -32 2.5609 4.0151
-25 -17 -30 11.1581 -4.6157
-25 -17 -28 1.3272 0.1778
-25 -17 -26 -2.2279 7.9668
-25 -17 -24 -4.2396 -15.5491
-25 -17 -22 -8.2585 -9.0601
-25 -17 -20 -1.3564 5.5600
-25 -17 -18 -2.8577 6.6538
-25 -17 -16 3.3438 -2.5996
-25 -17 -14 4.4804 -7.9930
-25 -17 -12 17.1064 -10.4024
-25 -17 -10 -5.9532 -36.2801
-25 -17 -8 -30.7166 47.0684
-25 -17 -6 -5.7214 -8.0883
-25 -17 -4 -6.9217 12.1827
-25 -17 -2 31.1843 -4.3585
-25 -16 -37 15.7836 11.7337
-25 -16 -35 9.3033 -7.3556
-25 -16 -33 -2.0355 3.0784
-25 -16 -31 -19.0698 5.0573
-25 -16 -29 12.1180 -4.7509
-25 -16 -27 -1.7798 -0.8461
-25 -16 -25 -2.3025 2.2654
-25 -16 -23 -4.7234 -10.5217
-25 -16 -21 2.7891 -4.2773
-25 -16 -19 5.4768 0.9297
-25 -16 -17 12.7213 11.1477
-25 -16 -15 -11.6337 8.6922
-25 -16 -13 14.8566 10.8851
-25 -16 -11 15.7873 -19.7289
-25 -16 -9 -23.7012 -0.8596
-25 -16 -7 61.8929 -39.6882
-25 -16 -5 -24.3779 7.7779
-25 -16 -3 -71.6007 34.7794
-25 -16 -1 -11.9321 -6.2982
-25 -15 -36 14.7538 7.8391
-25 -15 -34 -8.8179 12.9990
-25 -15 -32 4.4984 -8.6612
-25 -15 -30 14.5199 3.2702
-25 -15 -28 8.4809 -0.9272
-25 -15 -26 2.6978 13.7164
-25 -15 -24 12.1164 11.5014
-25 -15 -22 -2.9202 7.9037
-25 -15 -20 -2.7813 6.4133
-25 -15 -18 11.7374 8.1616
-25 -15 -16 8.8635 -2.3642
-25 -15 -14 34.3378 1.4233
-25 -15 -12 32.5342 -13.5473
-25 -15 -10 -13.3326 22.9822
-25 -15 -8 -4.0344 41.1979
-25 -15 -6 4.8727 -55.5832
-25 -15 -4 28.4087 40.5917
-25 -15 -2 21.6184 31.5853
-25 -14 -37 5.7568 13.6139
-25 -14 -35 -12.8380 13.5738
-25 -14 -33 -18.3350 15.3118
-25 -14 -31 -8.6717 -11.5314
-25 -14 -29 -1.8232 15.5965
-25 -14 -27 1.2606 3.1962
-25 -14 -25 15.5336 4.9600
-25 -14 -23 6.1744 -4.0156
-25 -14 -21 -0.1684 -5.5613
-25 -14 -19 7.4843 -1.3579
-25 -14 -17 11.7827 14.0716
-25 -14 -15 0.9871 -6.1097
-25 -14 -13 -19.2743 -9.2369
-25 -14 -11 -10.6503 39.1316
-25 -14 -9 -55.7789 9.9657
-25 -14 -7 -28.6948 -28.2955
-25 -14 -5 33.3560 -12.2053
-25 -14 -3 56.3991 40.2411
-25 -14 -1 2.0979 -5.8445
-25 -13 -38 -7.6007 -3.4155
-25 -13 -36 0.6485 22.1641
-25 -13 -34 21.8000 -12.3991
-25 -13 -32 4.5495 6.1040
-25 -13 -30 -6.6721 -2.0794
-25 -13 -28 -2.6734 1.8716
-25 -13 -26 11.4109 14.1678
-25 -13 -24 -3.0645 -9.0175
-25 -13 -22 -11.7607 -8.4527
-25 -13 -20 -16.1472 19.6633
-25 -13 -18 -8.9467 11.5464
-25 -13 -16 -8.0660 5.5655
-25 -13 -14 -29.6725 -47.9736
-25 -13 -12 -4.1741 -27.0640
-25 -13 -10 1.6659 12.8693
-25 -13 -8 -80.7270 -40.1766
-25 -13 -6 30.7614 -38.8006
-25 -13 -4 20.6402 44.5666
-25 -13 -2 17.3642 16.0602
-25 -12 -37 10.4425 25.3546
-25 -12 -35 -0.5542 -16.5853
-25 -12 -33 -2.6378 -4.1712
-25 -12 -31 -11.0023 -8.7136
-25 -12 -29 1.4927 -4.1344
-25 -12 -27 -2.9737 -6.9722
-25 -12 -25 -6.9415 4.6585
-25 -12 -23 -8.5048 -5.3266
-25 -12 -21 -12.8684 8.1486
-25 -12 -19 -0.9055 3.2123
-25 -12 -17 9.1930 1.6618
-25 -12 -15 -23.6832 27.7710
-25 -12 -13 -24.3610 -18.3335
-25 -12 -11 9.2124 26.2274
-25 -12 -9 -0.1902 -6.6416
-25 -12 -7 -64.0328 -14.5589
-25 -12 -5 -10.4488 27.3850
-25 -12 -3 9.9195 15.5991
-25 -12 -1 -25.4397 20.2980
-25 -11 -38 4.0869 -6.3191
-25 -11 -36 1.2742 0.2014
-25 -11 -34 -2.8254 0.0105
-25 -11 -32 -11.1655 -9.8996
-25 -11 -30 -12.9241 2.0697
-25 -11 -28 2.0843 2.9712
-25 -11 -26 -9.0645 0.0405
-25 -11 -24 3.4081 4.4454
-25 -11 -22 -0.6425 16.3346
-25 -11 -20 2.2230 -1.1272
-25 -11 -18 -8.0286 22.0902
-25 -11 -16 10.0272 14.1468
-25 -11 -14 34.9427 5.2190
-25 -11 -12 -9.5933 12.3820
-25 -11 -10 0.9227 5.0326
-25 -11 -8 23.5077 -31.6563
-25 -11 -6 -24.7737 21.7170
-25 -11 -4 5.1381 19.0789
-25 -11 -2 33.5151 20.4610
-25 -10 -39 -5.4191 24.3747
-25 -10 -37 -9.0996 5.7919
-25 -10 -35 10.6622 -9.4251
-25 -10 -33 -14.1216 4.6229
-25 -10 -31 -3.2868 9.2413
-25 -10 -29 9.0773 6.8834
-25 -10 -27 3.5707 -6.0723
-25 -10 -25 10.1083 -8.9605
-25 -10 -23 5.6976 13.9915
-25 -10 -21 -12.8748 -22.5734
-25 -10 -19 7.5331 14.7918
-25 -10 -17 11.1999 2.2157
-25 -10 -15 10.1965 0.0967
-25 -10 -13 14.4831 -9.8944
-25 -10 -11 -5.0684 18.1569
-25 -10 -9 -26.1949 41.0902
-25 -10 -7 33.9740 31.0518
-25 -10 -5 -15.6458 9.6193
-25 -10 -3 -36.1045 -1.8435
-25 -10 -1 33.7349 -16.6469
-25 -9 -38 -5.3504 14.5136
-25 -9 -36 3.5988 16.9824
-25 -9 -34 3.2916 -15.5434
-25 -9 -32 -1.4521 2.8425
-25 -9 -30 6.3901 -3.5572
-25 -9 -28 6.5764 5.9292
-25 -9 -26 -0.4983 -10.7833
-25 -9 -24 -5.7948 -17.1455
-25 -9 -22 -23.7175 -4.3731
-25 -9 -20 -1.3201 -12.3411
-25 -9 -18 0.1296 21.3357
-25 -9 -16 -32.5739 -20.0964
-25 -9 -14 10.5384 20.0877
-25 -9 -12 35.5931 57.3019
-25 -9 -10 -13.7852 -0.0869
-25 -9 -8 43.4152 -28.3857
-25 -9 -6 -64.9750 47.2207
-25 -9 -4 11.4111 13.7491
-25 -9 -2 -1.8160 -15.6363
-25 -8 -39 4.3269 -23.8025
-25 -8 -37 3.6986 -2.3355
-25 -8 -35 -1.6339 5.1521
-25 -8 -33 9.6276 -6.6405
-25 -8 -31 -1.8931 -6.0758
-25 -8 -29 5.5627 -1.1676
-25 -8 -27 14.2769 6.5830
-25 -8 -25 15.7432 -4.5124
-25 -8 -23 -5.4133 -2.0232
-25 -8 -21 -5.1485 4.5737
-25 -8 -19 24.6188 3.7538
-25 -8 -17 -0.6290 -0.6138
-25 -8 -15 -3.3825 -0.4028
-25 -8 -13 24.0386 18.9041
-25 -8 -11 -50.5264 26.1940
-25 -8 -9 16.2363 -10.4849
-25 -8 -7 -46.1914 -27.8858
-25 -8 -5 -17.2768 -39.8919
-25 -8 -3 48.5101 47.0288
-25 -8 -1 -27.7617 35.0420
-25 -7 -38 -1.5065 -25.0773
-25 -7 -36 0.1284 -1.5581
-25 -7 -34 15.7945 -1.9973
-25 -7 -32 8.4531 -1.9891
-25 -7 -30 -12.1039 1.3398
-25 -7 -28 -3.3876 0.9358
-25 -7 -26 -7.7781 -9.5515
-25 -7 -24 2.7008 -14.8615
-25 -7 -22 -15.1735 -10.7721
-25 -7 -20 -10.6821 10.0265
-25 -7 -18 -13.7654 6.0822
-25 -7 -16 20.9350 -5.2240
-25 -7 -14 -0.4042 9.4329
-25 -7 -12 -92.5121 -21.6199
-25 -7 -10 -0.9786 22.5368
-25 -7 -8 96.0378 72.3105
-25 -7 -6 36.7388 23.2672
-25 -7 -4 -31.5987 -25.8811
-25 -7 -2 -13.8868 -89.4273
-25 -6 -39 9.7605 13.3638
-25 -6 -37 3.4192 -7.3958
-25 -6 -35 15.9997 2.6518
-25 -6 -33 12.4779 -10.1800
-25 -6 -31 13.7443 -4.3298
-25 -6 -29 3.2288 3.7898
-25 -6 -27 -2.5903 22.4695
-25 -6 -25 -7.4917 7.1248
-25 -6 -23 15.1425 0.1983
-25 -6 -21 21.1152 5.4160
-25 -6 -19 0.5949 -13.3207
-25 -6 -17 -15.2010 17.2052
-25 -6 -15 8.0070 14.2281
-25 -6 -13 -10.8862 -6.3521
-25 -6 -11 30.8486 27.6103
-25 -6 -9 51.4921 67.5082
-25 -6 -7 -23.5690 -56.7279
-25 -6 -5 -41.5360 -8.6033
-25 -6 -3 -50.5963 8.0928
-25 -6 -1 40.0137 -55.2204
-25 -5 -38 -0.0703 1.5706
-25 -5 -36 -0.8202 -2.1691
-25 -5 -34 1.4945 1.2718
-25 -5 -32 1.2774 -9.8423
-25 -5 -30 4.2903 -19.6587
-25 -5 -28 -0.8338 2.9350
-25 -5 -26 -2.7161 7.4791
-25 -5 -24 5.3594 -11.9808
-25 -5 -22 -8.0654 1.9870
-25 -5 -20 31.8374 1.4766
-25 -5 -18 -3.3852 0.6674
-25 -5 -16 52.2443 -2.8170
-25 -5 -14 0.9459 -15.0000
-25 -5 -12 -104.5479 16.2478
-25 -5 -10 30.1633 -21.9431
-25 -5 -8 -70.7948 -25.3228
-25 -5 -6 -13.2734 -118.8559
-25 -5 -4 26.7164 -26.1611
-25 -5 -2 60.2302 6.8171
-25 -4 -39 18.3170 -9.4511
-25 -4 -37 7.6256 -19.5549
-25 -4 -35 -12.1765 5.4901
-25 -4 -33 6.3034 8.2377
-25 -4 -31 -3.9256 -16.4996
-25 -4 -29 7.6633 16.3331
-25 -4 -27 -1.9702 2.9370
-25 -4 -25 -2.8305 -16.9929
-25 -4 -23 9.3148 -8.0627
-25 -4 -21 12.9116 1.4876
-25 -4 -19 2.8141 4.5146
-25 -4 -17 -11.2295 -8.0005
-25 -4 -15 9.7037 16.3703
-25 -4 -13 19.9560 18.4351
-25 -4 -11 -23.2138 21.3203
-25 -4 -9 18.1657 2.5825
-25 -4 -7 -26.5965 -53.9991
-25 -4 -5 58.5409 -18.4267
-25 -4 -3 41.8387 65.0390
-25 -4 -1 11.0430 6.0617
-25 -3 -40 -9.4164 -10.1299
-25 -3 -38 18.7493 7.6312
-25 -3 -36 -2.5740 0.3575
-25 -3 -34 14.6662 -5.2719
-25 -3 -32 7.9108 -2.7000
-25 -3 -30 0.4270 0.8548
-25 -3 -28 2.2035 11.0994
-25 -3 -26 -8.3990 2.0456
-25 -3 -24 -0.3498 -0.4101
-25 -3 -22 3.1588 13.1966
-25 -3 -20 -27.7906 -9.8998
-25 -3 -18 11.8957 11.9867
-25 -3 -16 40.0991 -24.8080
-25 -3 -14 8.9537 9.2108
-25 -3 -12 26.0028 -55.2571
-25 -3 -10 -22.4309 -8.6001
-25 -3 -8 -90.4375 44.0941
-25 -3 -6 7.3705 5.6713
-25 -3 -4 -74.4051 96.9084
-25 -3 -2 -22.3990 4.8898
-25 -2 -39 19.2784 1.2553
-25 -2 -37 0.8237 -1.8482
-25 -2 -35 -4.6823 -20.1215
-25 -2 -33 -0.2936 0.5703
-25 -2 -31 18.2346 8.7786
-25 -2 -29 -9.2694 -0.4544
-25 -2 -27 -7.2779 0.4947
-25 -2 -25 -1.2975 -8.4312
-25 -2 -23 4.7318 -20.0257
-25 -2 -21 6.3246 -11.9520
-25 -2 -19 -10.0339 4.6343
-25 -2 -17 -8.3241 15.9528
-25 -2 -15 32.7666 -12.4602
-25 -2 -13 1.6708 -12.9262
-25 -2 -11 -10.1026 -7.5657
-25 -2 -9 -87.4713 -46.3486
-25 -2 -7 -45.4316 47.0552
-25 -2 -5 29.5032 8.8711
-25 -2 -3 -18.2886 -34.3403
-25 -2 -1 36.2152 -43.9520
-25 -1 -40 -19.8856 -4.1075
-25 -1 -38 -2.1548 -7.7891
-25 -1 -36 0.8658 -4.7972
-25 -1 -34 14.5227 24.3088
-25 -1 -32 -2.0632 -3.8054
-25 -1 -30 -9.9752 2.7053
-25 -1 -28 -0.8928 3.8914
-25 -1 -26 6.5722 -38.6352
-25 -1 -24 -7.9533 -9.8919
-25 -1 -22 -0.3907 18.8044
-25 -1 -20 -14.1805 -5.9961
-25 -1 -18 24.4439 22.9125
-25 -1 -16 -13.1689 13.7412
-25 -1 -14 -10.4033 -20.3141
-25 -1 -12 3.4849 38.6796
-25 -1 -10 -20.4841 16.8204
-25 -1 -8 47.1745 -3.8293
-25 -1 -6 13.7723 116.2560
-25 -1 -4 -79.6432 46.3790
-25 -1 -2 8.7986 -20.0004
-24 -23 -35 -22.3178 16.6924
-24 -23 -33 -8.8863 -12.5152
-24 -23 -31 2.1484 11.2686
-24 -23 -29 -9.1944 -10.9821
-24 -23 -27 -2.9569 -2.2208
-24 -23 -25 -7.9990 -3.9648
-24 -23 -23 3.9896 13.9149
-24 -23 -21 -6.9473 6.4149
-24 -23 -19 -13.0555 -3.6197
-24 -23 -17 4.6428 4.7704
-24 -23 -15 13.3740 11.2540
-24 -23 -13 -21.8397 13.3634
-24 -23 -11 8.7738 10.2275
-24 -23 -9 1.3186 -20.6857
-24 -23 -7 -19.1269 16.9108
-24 -23 -5 21.2041 -21.2160
-24 -23 -3 30.4514 19.7652
-24 -23 -1 -4.2905 6.5320
-24 -22 -34 3.2911 -0.2540
-24 -22 -32 1.1614 0.0115
-24 -22 -30 -10.2181 -7.9081
-24 -22 -28 6.2838 -0.9043
-24 -22 -26 -17.4824 -1.6525
-24 -22 -24 2.6859 10.3631
-24 -22 -22 17.3620 1.3927
-24 -22 -20 -0.8365 -12.1504
-24 -22 -18 3.9156 -1.6351
-24 -22 -16 -15.5102 -16.8288
-24 -22 -14 1.4910 2.0838
-24 -22 -12 11.3516 -9.3025
-24 -22 -10 12.3633 -12.9232
-24 -22 -8 -8.3260 -21.6877
-24 -22 -6 8.0500 3.7682
-24 -22 -4 28.7908 -3.6021
-24 -22 -2 -58.2732 29.4381
-24 -21 -35 8.0014 14.5925
-24 -21 -33 6.2461 4.4726
-24 -21 -31 -2.4535 0.0154
-24 -21 -29 -7.8477 -4.4562
-24 -21 -27 -1.0115 -6.6749
-24 -21 -25 -4.1021 -6.4331
-24 -21 -23 1.9417 6.6169
-24 -21 -21 9.5863 -6.8645
-24 -21 -19 -8.3813 -11.8517
-24 -21 -17 -6.6944 -1.5045
-24 -21 -15 5.0668 -4.7210
-24 -21 -13 -5.3072 10.0742
-24 -21 -11 15.3486 8.1044
-24 -21 -9 -21.1695 -3.5900
-24 -21 -7 -18.0871 -11.8359
-24 -21 -5 -4.4153 25.5124
-24 -21 -3 -6.9749 -24.1069
-24 -21 -1 4.2712 25.6677
-24 -20 -36 -1.2887 -3.9280
-24 -20 -34 9.0943 -12.9985
-24 -20 -32 6.1568 -10.2416
-24 -20 -30 5.3960 -1.4822
-24 -20 -28 9.2141 13.4307
-24 -20 -26 -8.0063 -3.0568
-24 -20 -24 -1.6762 22.4712
-24 -20 -22 -3.8363 18.0318
-24 -20 -20 -0.9963 -20.0177
-24 -20 -18 -3.6624 7.5729
-24 -20 -16 7.9455 3.5194
-24 -20 -14 25.6450 -5.2979
-24 -20 -12 6.0470 12.8313
-24 -20 -10 24.8054 -6.7655
-24 -20 -8 5.2572 -25.4118
-24 -20 -6 20.7964 -2.8411
-24 -20 -4 12.5279 -17.2654
-24 -20 -2 29.0527 22.3467
-24 -19 -35 3.1421 -12.3885
-24 -19 -33 0.1780 0.6393
-24 -19 -31 -12.5797 26.5964
-24 -19 -29 -7.3780 9.1512
-24 -19 -27 0.1036 -4.5812
-24 -19 -25 -5.8785 2.5479
-24 -19 -23 0.6089 5.0781
-24 -19 -21 1.2327 -20.4549
-24 -19 -19 3.6967 -3.7431
-24 -19 -17 9.6920 10.6914
-24 -19 -15 -2.6812 -13.4582
-24 -19 -13 -10.1058 -13.6826
-24 -19 -11 -19.1394 -4.3725
-24 -19 -9 -12.1194 -16.4880
-24 -19 -7 0.2452 7.9468
-24 -19 -5 32.0485 -38.6135
-24 -19 -3 -2.8936 -57.4875
-24 -19 -1 8.8987 -7.5428
-24 -18 -36 12.5876 15.6485
-24 -18 -34 -1.1157 12.4108
-24 -18 -32 2.6702 11.4202
-24 -18 -30 2.5037 1.0792
-24 -18 -28 0.6795 1.4834
-24 -18 -26 0.5037 16.8166
-24 -18 -24 9.7194 17.8890
-24 -18 -22 23.9055 16.1546
-24 -18 -20 6.9780 -6.5473
-24 -18 -18 12.1840 12.7106
-24 -18 -16 0.5516 -5.5420
-24 -18 -14 -4.2469 14.7282
-24 -18 -12 3.6966 9.7094
-24 -18 -10 1.6266 -16.9159
-24 -18 -8 9.1638 -4.2595
-24 -18 -6 12.4150 29.3449
-24 -18 -4 5.3875 -50.9843
-24 -18 -2 10.6046 14.7146
-24 -17 -37 18.7855 -12.3737
-24 -17 -35 3.0524 3.7365
-24 -17 -33 -2.2906 -0.0758
-24 -17 -31 -21.4889 9.2603
-24 -17 -29 -1.0376 -0.1524
-24 -17 -27 2.7939 1.3500
-24 -17 -25 -1.0659 15.9591
-24 -17 -23 4.9188 4.3111
-24 -17 -21 0.2681 -4.4302
-24 -17 -19 11.5797 6.8021
-24 -17 -17 20.2558 -0.5839
-24 -17 -15 -2.8934 -9.8235
-24 -17 -13 6.9555 -2.2041
-24 -17 -11 -7.0776 5.5958
-24 -17 -9 -30.4647 33.7970
-24 -17 -7 67.1544 -34.1606
-24 -17 -5 -4.7269 51.1967
-24 -17 -3 20.2266 -40.2029
-24 -17 -1 -2.4665 -42.1569
-24 -16 -38 1.8423 19.8130
-24 -16 -36 -1.2555 -1.1096
-24 -16 -34 -0.1740 -10.3129
-24 -16 -32 4.7809 -2.4230
-24 -16 -30 10.3622 4.2806
-24 -16 -28 7.6712 4.9272
-24 -16 -26 9.3152 -0.7923
-24 -16 -24 5.7138 4.0159
-24 -16 -22 -18.8096 11.4774
-24 -16 -20 1.5115 -6.0880
-24 -16 -18 -8.3042 -1.9864
-24 -16 -16 -16.8789 -13.2605
-24 -16 -14 -20.7481 11.7091
-24 -16 -12 12.2270 -9.1414
-24 -16 -10 -23.4006 -3.2899
-24 -16 -8 -8.5057 -12.4136
-24 -16 -6 -26.4398 -20.7337
-24 -16 -4 2.5394 6.9246
-24 -16 -2 -19.8119 -8.8809
-24 -15 -37 -1.9275 9.8225
-24 -15 -35 2.2388 13.0025
-24 -15 -33 0.9577 1.5463
-24 -15 -31 5.9190 -1.3565
-24 -15 -29 -19.6451 -8.6395
-24 -15 -27 11.4655 -4.9152
-24 -15 -25 8.9534 1.6645
-24 -15 -23 1.3302 -5.1896
-24 -15 -21 -16.5113 -10.1962
-24 -15 -19 -4.0892 -6.1456
-24 -15 -17 -12.8383 -6.5934
-24 -15 -15 -16.9988 -20.2640
-24 -15 -13 -3.3049 39.5566
-24 -15 -11 -3.9318 16.6801
-24 -15 -9 14.0471 18.4688
-24 -15 -7 16.7623 4.8101
-24 -15 -5 41.9930 60.6412
-24 -15 -3 -7.4906 26.2131
-24 -15 -1 48.8458 48.1330
-24 -14 -38 11.3318 5.4368
-24 -14 -36 -18.9576 18.2104
-24 -14 -34 -2.8844 -0.2272
-24 -14 -32 13.8369 -16.7849
-24 -14 -30 -5.5912 12.7885
-24 -14 -28 6.7091 3.4444
-24 -14 -26 12.0113 -7.1743
-24 -14 -24 8.9690 -8.0429
-24 -14 -22 0.0448 -13.1861
-24 -14 -20 10.0697 -4.5768
-24 -14 -18 -8.7744 -7.0485
-24 -14 -16 -3.1848 0.6530
-24 -14 -14 -8.4639 10.2982
-24 -14 -12 -29.0326 7.3919
-24 -14 -10 -35.5263 -14.5531
-24 -14 -8 13.9368 -36.9548
-24 -14 -6 28.0822 -25.2407
-24 -14 -4 -23.6003 9.3266
-24 -14 -2 60.5724 19.3721
-24 -13 -37 9.0489 -2.2587
-24 -13 -35 -7.3162 17.0610
-24 -13 -33 -3.5324 -1.9121
-24 -13 -31 -5.5494 -2.5848
-24 -13 -29 -0.1941 8.4208
-24 -13 -27 -0.5854 -3.6890
-24 -13 -25 1.3955 -2.3442
-24 -13 -23 4.3818 10.7803
-24 -13 -21 6.1194 0.2575
-24 -13 -19 -6.9626 -0.1994
-24 -13 -17 5.1024 -0.5779
-24 -13 -15 5.1278 0.4995
-24 -13 -13 -27.5695 14.8468
-24 -13 -11 -18.6644 23.6480
-24 -13 -9 36.3140 -22.3961
-24 -13 -7 47.3998 -35.3566
-24 -13 -5 34.7240 -35.9421
-24 -13 -3 -29.1836 39.1754
-24 -13 -1 -61.1652 -36.9474
-24 -12 -38 15.9844 3.3379
-24 -12 -36 11.1017 -16.6524
-24 -12 -34 -0.8544 24.2739
-24 -12 -32 -2.4143 -0.3315
-24 -12 -30 5.9541 -3.6520
-24 -12 -28 -3.9315 5.5681
-24 -12 -26 9.5055 1.6894
-24 -12 -24 -3.3639 10.2071
-24 -12 -22 -8.1455 16.7531
-24 -12 -20 6.6023 -14.6484
-24 -12 -18 12.2980 -16.5775
-24 -12 -16 35.2497 5.2528
-24 -12 -14 14.5235 -3.4237
-24 -12 -12 0.9996 -0.7411
-24 -12 -10 17.4101 1.2443
-24 -12 -8 7.8587 -24.6495
-24 -12 -6 -27.9626 -38.2520
-24 -12 -4 90.9076 90.6846
-24 -12 -2 14.6624 53.0619
-24 -11 -39 4.0580 16.3511
-24 -11 -37 16.9677 1.5549
-24 -11 -35 4.9418 2.4619
-24 -11 -33 4.8093 -23.1033
-24 -11 -31 -10.1283 -7.0533
-24 -11 -29 -7.1413 1.7558
-24 -11 -27 4.9280 6.5515
-24 -11 -25 -2.7725 -2.6413
-24 -11 -23 0.3857 -13.1987
-24 -11 -21 4.7824 15.0738
-24 -11 -19 6.1441 6.3448
-24 -11 -17 19.1516 -2.4473
-24 -11 -15 0.3228 -18.4031
-24 -11 -13 -10.0777 17.1603
-24 -11 -11 -9.7028 -9.1100
-24 -11 -9 -24.4466 -37.7797
-24 -11 -7 -41.0009 -5.4085
-24 -11 -5 40.3164 -2.1119
-24 -11 -3 3.3842 50.9977
-24 -11 -1 -59.2185 -41.9424
-24 -10 -38 4.0159 11.8191
-24 -10 -36 -2.3231 -3.1390
-24 -10 -34 -3.2396 -1.5015
-24 -10 -32 7.3670 -14.1070
-24 -10 -30 3.7923 -2.6230
-24 -10 -28 -8.2376 8.1822
-24 -10 -26 3.1730 -1.8692
-24 -10 -24 -2.4434 5.7418
-24 -10 -22 -7.3943 -5.0670
-24 -10 -20 5.9262 -15.0385
-24 -10 -18 12.0262 -22.0117
-24 -10 -16 0.5698 -14.9690
-24 -10 -14 22.1126 -4.9337
-24 -10 -12 -31.3817 15.0859
-24 -10 -10 -35.1703 2.7933
-24 -10 -8 20.5533 -59.1906
-24 -10 -6 -39.6862 33.1153
-24 -10 -4 22.5638 -7.0425
-24 -10 -2 -38.8423 47.1660
-24 -9 -39 7.8365 15.2157
-24 -9 -37 2.1034 0.3685
-24 -9 -35 -16.9941 -15.9785
-24 -9 -33 3.7773 -2.7481
-24 -9 -31 7.6422 4.4934
-24 -9 -29 13.6276 11.5516
-24 -9 -27 -5.6898 5.6854
-24 -9 -25 -12.0842 -2.5259
-24 -9 -23 12.6295 8.3393
-24 -9 -21 -2.0946 19.7088
-24 -9 -19 -25.2312 17.9553
-24 -9 -17 25.0413 -23.1614
-24 -9 -15 -4.2875 -6.5979
-24 -9 -13 -33.8353 40.0571
-24 -9 -11 -11.3994 15.1966
-24 -9 -9 -28.7171 -1.6856
-24 -9 -7 -31.5257 -0.5197
-24 -9 -5 57.1847 -2.2090
-24 -9 -3 3.5866 26.1422
-24 -9 -1 55.6445 67.6356
-24 -8 -40 -1.4221 0.5631
-24 -8 -38 15.8035 -5.9821
-24 -8 -36 -4.0873 -8.1768
-24 -8 -34 -2.4390 -1.1593
-24 -8 -32 13.8323 -3.6313
-24 -8 -30 0.3994 0.0706
-24 -8 -28 -13.0786 2.6908
-24 -8 -26 -3.8534 0.8106
-24 -8 -24 -8.0357 4.5678
-24 -8 -22 3.0312 -5.9411
-24 -8 -20 15.8550 4.3000
-24 -8 -18 -9.9504 3.1031
-24 -8 -16 -20.0045 -4.9465
-24 -8 -14 -64.1062 -9.5104
-24 -8 -12 8.8712 -0.4121
-24 -8 -10 60.5311 55.0645
-24 -8 -8 -0.0645 -44.4603
-24 -8 -6 -36.7019 7.3959
-24 -8 -4 25.1688 -1.8923
-24 -8 -2 -7.7044 37.1140
-24 -7 -39 -1.1853 2.9179
-24 -7 -37 2.8376 -1.7385
-24 -7 -35 0.7417 3.0755
-24 -7 -33 -0.0485 -3.6613
-24 -7 -31 -6.3972 7.2288
-24 -7 -29 -1.0697 -4.4843
-24 -7 -27 -0.6185 1.5277
-24 -7 -25 -15.1910 2.0259
-24 -7 -23 -0.4895 -33.2099
-24 -7 -21 -8.9942 3.2854
-24 -7 -19 17.3281 9.6065
-24 -7 -17 -0.2180 1.7053
-24 -7 -15 3.8005 17.1313
-24 -7 -13 3.7795 -5.1395
-24 -7 -11 6.3748 32.9343
-24 -7 -9 8.0490 -13.3289
-24 -7 -7 -20.0042 -8.9390
-24 -7 -5 -2.8462 -81.0318
-24 -7 -3 4.9759 26.4425
-24 -7 -1 50.1272 79.9096
-24 -6 -40 -11.8992 1.2350
-24 -6 -38 -4.3193 -21.3147
-24 -6 -36 11.2718 -13.0500
-24 -6 -34 9.7517 13.2339
-24 -6 -32 -11.7035 7.5200
-24 -6 -30 -14.4595 14.9211
-24 -6 -28 -1.3644 -13.1513
-24 -6 -26 -2.0615 -9.5036
-24 -6 -24 -12.8897 1.9815
-24 -6 -22 1.8105 -7.4553
-24 -6 -20 -3.2336 4.5109
-24 -6 -18 -13.6469 -39.3537
-24 -6 -16 -0.8494 -20.8851
-24 -6 -14 -62.0227 0.9049
-24 -6 -12 -47.9633 -7.9827
-24 -6 -10 140.7701 -44.2774
-24 -6 -8 -33.1322 17.5351
-24 -6 -6 76.4148 -25.3666
-24 -6 -4 33.8569 22.6716
-24 -6 -2 -16.8216 3.4369
-24 -5 -39 -2.8630 1.9313
-24 -5 -37 4.7771 1.3590
-24 -5 -35 9.0642 -0.9626
-24 -5 -33 4.9085 14.3876
-24 -5 -31 1.5085 3.3874
-24 -5 -29 -6.6807 -3.4847
-24 -5 -27 -11.4836 -10.1441
-24 -5 -25 -13.4648 -7.6113
-24 -5 -23 1.1208 28.8314
-24 -5 -21 28.2976 -9.4066
-24 -5 -19 23.7676 -25.4598
-24 -5 -17 -7.6658 -5.9423
-24 -5 -15 -18.2451 3.7318
-24 -5 -13 -7.3167 11.0728
-24 -5 -11 -13.5594 -7.4972
-24 -5 -9 -8.1636 -72.4286
-24 -5 -7 -52.8660 -9.4304
-24 -5 -5 19.2304 -55.9934
-24 -5 -3 -4.4964 56.3995
-24 -5 -1 -83.2942 -35.8181
-24 -4 -40 1.5340 -1.5363
-24 -4 -38 -18.8005 5.8323
-24 -4 -36 -1.7455 -2.1418
-24 -4 -34 -20.6311 12.0613
-24 -4 -32 7.0475 4.9544
-24 -4 -30 2.9724 -0.4704
-24 -4 -28 4.2236 -3.5469
-24 -4 -26 1.9925 0.1216
-24 -4 -24 -1.4959 -17.3366
-24 -4 -22 9.3422 3.8662
-24 -4 -20 -13.3217 10.9328
-24 -4 -18 39.5383 -9.3745
-24 -4 -16 5.1059 13.6019
-24 -4 -14 59.4428 -27.1645
-24 -4 -12 -32.8935 7.8961
-24 -4 -10 -81.3973 -9.5753
-24 -4 -8 -30.5106 0.4806
-24 -4 -6 79.9210 -71.7464
-24 -4 -4 54.5706 -26.7387
-24 -4 -2 -2.5125 -48.8215
-24 -3 -39 -12.0536 10.6557
-24 -3 -37 -17.3822 -14.8496
-24 -3 -35 20.8940 15.1181
-24 -3 -33 18.5057 -1.3274
-24 -3 -31 2.8339 -17.5578
-24 -3 -29 -9.9984 -8.2167
-24 -3 -27 -2.6446 10.7849
-24 -3 -25 -5.0560 -8.4615
-24 -3 -23 -15.5209 4.8270
-24 -3 -21 5.2072 12.1297
-24 -3 -19 11.1990 -20.2871
-24 -3 -17 -1.2043 -13.1916
-24 -3 -15 17.9137 -22.1869
-24 -3 -13 -11.5487 -23.8014
-24 -3 -11 -20.6820 -52.6643
-24 -3 -9 7.6300 60.3497
-24 -3 -7 7.6632 -11.4988
-24 -3 -5 35.2647 52.9655
-24 -3 -3 -134.2498 51.9808
-24 -3 -1 -0.5403 -35.5856
-24 -2 -40 -5.1664 -14.3666
-24 -2 -38 4.0021 4.3438
-24 -2 -36 -15.2775 6.2418
-24 -2 -34 2.2483 2.2999
-24 -2 -32 -5.7635 -10.2910
-24 -2 -30 11.9595 7.6758
-24 -2 -28 -1.3840 5.2264
-24 -2 -26 4.2503 -9.7906
-24 -2 -24 6.4078 -0.8443
-24 -2 -22 0.7827 -0.0105
-24 -2 -20 18.1810 -18.0827
-24 -2 -18 22.6777 -12.0650
-24 -2 -16 -6.9386 -0.7663
-24 -2 -14 -9.9348 -9.1129
-24 -2 -12 11.4902 -16.9226
-24 -2 -10 -30.9146 17.2421
-24 -2 -8 -14.9489 7.2520
-24 -2 -6 61.1666 31.6445
-24 -2 -4 -21.3376 -6.0494
-24 -2 -2 -56.6416 -8.3616
-24 -1 -39 -2.8702 1.6964
-24 -1 -37 10.9876 -7.7213
-24 -1 -35 -2.8129 -13.3206
-24 -1 -33 14.5103 -14.8757
-24 -1 -31 -3.8238 -12.6772
-24 -1 -29 3.4976 -4.1560
-24 -1 -27 -10.4667 0.0827
-24 -1 -25 -3.1685 0.0208
-24 -1 -23 -6.6558 0.1981
-24 -1 -21 13.0191 -10.1248
-24 -1 -19 13.9510 -11.2858
-24 -1 -17 21.8268 -24.4606
-24 -1 -15 -4.6885 -3.1016
-24 -1 -13 -22.0773 -39.0312
-24 -1 -11 -25.5797 -13.3972
-24 -1 -9 67.8227 -56.2336
-24 -1 -7 89.9129 42.7507
-24 -1 -5 -47.8893 44.5717
-24 -1 -3 57.0587 -12.1168
-24 -1 -1 68.5979 22.7116
-23 -22 -35 19.1120 6.0271
-23 -22 -33 8.2874 0.9108
-23 -22 -31 -11.1749 -10.6712
-23 -22 -29 3.1133 9.8601
-23 -22 -27 -7.3686 -22.6880
-23 -22 -25 -2.1595 8.2586
-23 -22 -23 -1.2542 2.7207
-23 -22 -21 3.0989 2.7693
-23 -22 -19 1.7635 13.7862
-23 -22 -17 -0.8722 1.4458
-23 -22 -15 7.2748 -5.7055
-23 -22 -13 -15.5203 5.2105
-23 -22 -11 4.7235 -6.6524
-23 -22 -9 -31.1159 -1.7707
-23 -22 -7 17.2214 -13.8058
-23 -22 -5 18.5918 -9.1564
-23 -22 -3 24.1314 3.6086
-23 -22 -1 19.6791 5.5348
-23 -21 -36 -13.6502 4.3900
-23 -21 -34 20.9938 -3.3419
-23 -21 -32 -16.3880 -6.4308
-23 -21 -30 -5.7926 3.7188
-23 -21 -28 -1.7853 -2.8327
-23 -21 -26 5.7539 2.7462
-23 -21 -24 3.7044 -7.0770
-23 -21 -22 2.2334 -18.5213
-23 -21 -20 -0.9528 11.2542
-23 -21 -18 -14.9049 5.8479
-23 -21 -16 8.9641 19.6757
-23 -21 -14 -4.4935 -7.0024
-23 -21 -12 10.4408 -19.2279
-23 -21 -10 -3.3778 -19.9308
-23 -21 -8 17.2908 -21.9674
-23 -21 -6 22.0579 26.7643
-23 -21 -4 5.4367 -43.8407
-23 -21 -2 -1.3459 -71.7593
-23 -20 -37 -3.7176 -0.4035
-23 -20 -35 2.6649 -3.6781
-23 -20 -33 9.7171 15.4087
-23 -20 -31 0.3202 -1.6996
-23 -20 -29 -12.5288 13.7730
-23 -20 -27 0.3091 2.7075
-23 -20 -25 -1.9776 2.9135
-23 -20 -23 -1.8550 -5.5680
-23 -20 -21 -9.9443 1.6697
-23 -20 -19 -4.7862 3.1529
-23 -20 -17 4.8790 -13.8555
-23 -20 -15 10.1920 10.7558
-23 -20 -13 -26.9636 -6.7325
-23 -20 -11 12.2644 0.8750
-23 -20 -9 24.0705 5.1316
-23 -20 -7 -22.8198 -5.9463
-23 -20 -5 8.3572 -13.2400
-23 -20 -3 18.6502 11.3331
-23 -20 -1 1.6884 -6.9894
-23 -19 -36 4.8067 -29.6627
-23 -19 -34 4.4658 3.2949
-23 -19 -32 15.3832 3.8126
-23 -19 -30 -3.2387 0.1368
-23 -19 -28 -6.4661 -4.2319
-23 -19 -26 -10.5036 1.5565
-23 -19 -24 -21.0589 21.9020
-23 -19 -22 4.1881 9.6639
-23 -19 -20 -9.4403 16.1835
-23 -19 -18 21.5126 -2.4020
-23 -19 -16 17.6742 -7.6227
-23 -19 -14 1.1113 3.1793
-23 -19 -12 22.0690 -14.8905
-23 -19 -10 -1.9307 -24.7486
-23 -19 -8 22.0262 20.0225
-23 -19 -6 -4.8231 15.7154
-23 -19 -4 37.6052 -39.4931
-23 -19 -2 -29.7878 -53.7911
-23 -18 -37 12.2626 10.3128
-23 -18 -35 4.2846 16.0797
-23 -18 -33 -4.5841 -10.7468
-23 -18 -31 13.7356 5.7660
-23 -18 -29 -3.0274 1.2665
-23 -18 -27 0.1926 -14.6859
-23 -18 -25 9.2807 -0.7069
-23 -18 -23 -2.8819 6.1361
-23 -18 -21 -4.1760 -6.1747
-23 -18 -19 -4.6527 3.5622
-23 -18 -17 -2.3714 -4.1929
-23 -18 -15 -6.6219 -11.1353
-23 -18 -13 -4.0154 -4.5900
-23 -18 -11 -2.4153 48.1268
-23 -18 -9 19.7061 -2.8619
-23 -18 -7 15.3256 -14.3300
-23 -18 -5 -61.1859 51.8051
-23 -18 -3 -3.1552 -26.0617
-23 -18 -1 -12.5503 74.1951
-23 -17 -38 3.8135 16.7106
-23 -17 -36 14.4745 12.3704
-23 -17 -34 11.1637 -12.4517
-23 -17 -32 -1.6209 -0.0120
-23 -17 -30 -8.5930 -7.0578
-23 -17 -28 16.6938 -7.2106
-23 -17 -26 -2.3062 0.3338
-23 -17 -24 -20.7120 11.8513
-23 -17 -22 2.8822 13.8168
-23 -17 -20 5.4548 8.4357
-23 -17 -18 27.6238 1.1065
-23 -17 -16 -7.1142 8.5716
-23 -17 -14 -46.0014 -5.5621
-23 -17 -12 -33.2843 16.8757
-23 -17 -10 17.4817 -14.4710
-23 -17 -8 -16.2178 2.3824
-23 -17 -6 12.2553 7.9939
-23 -17 -4 6.0308 -40.9404
-23 -17 -2 -18.4893 17.3117
-23 -16 -37 -24.1035 -4.2698
-23 -16 -35 14.0367 -9.4480
-23 -16 -33 -0.5882 -15.2042
-23 -16 -31 -2.2999 4.1092
-23 -16 -29 4.3340 9.8085
-23 -16 -27 12.4847 -7.9916
-23 -16 -25 1.9629 -4.3836
-23 -16 -23 -7.4103 1.5111
-23 -16 -21 -0.9061 -12.1913
-23 -16 -19 0.8932 6.4843
-23 -16 -17 -6.9139 7.2844
-23 -16 -15 11.8305 10.1161
-23 -16 -13 3.4419 -9.9354
-23 -16 -11 16.7922 -14.0615
-23 -16 -9 -8.8242 -13.9574
-23 -16 -7 -35.5500 0.6663
-23 -16 -5 -27.3089 6.3158
-23 -16 -3 29.5406 58.4745
-23 -16 -1 11.2042 -18.3049
-23 -15 -38 -19.4800 13.1526
-23 -15 -36 -17.8804 -0.1773
-23 -15 -34 -0.6989 4.0357
-23 -15 -32 5.6364 8.0370
-23 -15 -30 2.1173 0.4513
-23 -15 -28 5.3208 5.4908
-23 -15 -26 3.0747 -4.3858
-23 -15 -24 14.9726 -18.7715
-23 -15 -22 -0.2792 1.8808
-23 -15 -20 -4.8471 10.9667
-23 -15 -18 5.6805 -6.7775
-23 -15 -16 -2.9866 0.0633
-23 -15 -14 -9.4642 -4.7901
-23 -15 -12 38.6344 -3.6197
-23 -15 -10 2.5257 10.5066
-23 -15 -8 34.5237 9.6340
-23 -15 -6 11.0187 -30.6004
-23 -15 -4 -26.1276 -28.4157
-23 -15 -2 23.0683 -13.4305
-23 -14 -39 3.9463 17.0407
-23 -14 -37 4.8318 -17.9976
-23 -14 -35 7.2550 -1.4660
-23 -14 -33 11.3175 12.2976
-23 -14 -31 -4.3566 -1.6457
-23 -14 -29 -3.4089 -2.9976
-23 -14 -27 2.3970 -9.1120
-23 -14 -25 -3.8549 -7.9573
-23 -14 -23 -0.8728 -12.2505
-23 -14 -21 14.0648 -4.9505
-23 -14 -19 -7.0739 -15.5661
-23 -14 -17 12.3014 6.0166
-23 -14 -15 10.6066 -11.4183
-23 -14 -13 -18.2688 -7.3404
-23 -14 -11 -45.9065 -7.0931
-23 -14 -9 20.4574 -9.5719
-23 -14 -7 138.2647 -79.0310
-23 -14 -5 31.8333 -25.2356
-23 -14 -3 -80.2320 22.5046
-23 -14 -1 -11.5139 60.4052
-23 -13 -38 11.3180 -2.6019
-23 -13 -36 -6.1788 -14.0334
-23 -13 -34 11.3515 -10.8375
-23 -13 -32 -0.6855 2.2212
-23 -13 -30 -13.8906 -0.0789
-23 -13 -28 -5.2864 2.2142
-23 -13 -26 -12.8760 -9.2533
-23 -13 -24 -14.0424 -11.5750
-23 -13 -22 -6.1261 -7.4522
-23 -13 -20 -15.4173 10.5746
-23 -13 -18 -21.9253 5.0271
-23 -13 -16 26.5157 11.5067
-23 -13 -14 -9.4826 -12.5817
-23 -13 -12 7.2434 17.6108
-23 -13 -10 -6.7951 9.6363
-23 -13 -8 -63.3431 -25.5016
-23 -13 -6 64.8920 -115.4466
-23 -13 -4 -62.1868 58.7481
-23 -13 -2 -2.5348 63.0682
-23 -12 -39 15.8041 0.0359
-23 -12 -37 0.9067 -3.7988
-23 -12 -35 -2.5721 3.2704
-23 -12 -33 -14.6341 20.6205
-23 -12 -31 -4.9958 5.6767
-23 -12 -29 -5.7356 -2.8195
-23 -12 -27 3.6826 -4.6583
-23 -12 -25 -2.7641 -10.7794
-23 -12 -23 4.0357 -0.5117
-23 -12 -21 -10.3385 18.7808
-23 -12 -19 -21.3208 13.3348
-23 -12 -17 14.2317 11.3316
-23 -12 -15 27.5528 -22.6472
-23 -12 -13 6.6846 -22.8012
-23 -12 -11 16.6120 15.5854
-23 -12 -9 27.1362 -2.4840
-23 -12 -7 -61.6716 1.0434
-23 -12 -5 -18.9190 -7.8912
-23 -12 -3 130.3450 22.6639
-23 -12 -1 -40.4147 63.3336
-23 -11 -38 -11.7816 -16.5796
-23 -11 -36 -1.1894 2.4633
-23 -11 -34 -0.5948 9.7043
-23 -11 -32 -4.0896 0.6588
-23 -11 -30 6.9800 -1.1054
-23 -11 -28 6.4317 2.3729
-23 -11 -26 -1.2924 -10.0855
-23 -11 -24 -11.7358 4.0818
-23 -11 -22 0.4118 5.0156
-23 -11 -20 24.3776 -6.8738
-23 -11 -18 13.3913 14.1206
-23 -11 -16 -29.6520 20.8428
-23 -11 -14 -45.8330 -16.8690
-23 -11 -12 18.1748 -33.4214
-23 -11 -10 -8.3718 1.3857
-23 -11 -8 -14.5468 8.1917
-23 -11 -6 38.6484 17.3901
-23 -11 -4 -32.4257 -72.4032
-23 -11 -2 15.5192 52.3955
-23 -10 -39 -2.4201 1.6359
-23 -10 -37 -8.7768 24.4529
-23 -10 -35 -1.2494 4.1225
-23 -10 -33 13.6136 -0.0249
-23 -10 -31 11.8906 6.9838
-23 -10 -29 5.2986 12.3078
-23 -10 -27 15.9992 -0.1961
-23 -10 -25 4.5219 -12.4849
-23 -10 -23 -7.2608 2.5841
-23 -10 -21 8.1251 0.2032
-23 -10 -19 -7.6842 2.5417
-23 -10 -17 -21.2808 -13.2816
-23 -10 -15 -10.0266 -1.1250
-23 -10 -13 -15.4030 -15.1125
-23 -10 -11 -38.4089 39.1753
-23 -10 -9 6.6937 0.9281
-23 -10 -7 92.4696 46.6316
-23 -10 -5 1.2223 -35.9155
-23 -10 -3 -5.5493 -1.9883
-23 -10 -1 -26.9215 25.9342
-23 -9 -40 -19.5246 6.7835
-23 -9 -38 3.0154 -1.4823
-23 -9 -36 1.5839 -10.1467
-23 -9 -34 -0.6446 4.8544
-23 -9 -32 0.8073 -2.4700
-23 -9 -30 -16.8535 4.3061
-23 -9 -28 -2.5611 5.6684
-23 -9 -26 6.6551 -5.1686
-23 -9 -24 5.9904 10.8412
-23 -9 -22 -0.4141 9.4687
-23 -9 -20 -16.4426 22.9935
-23 -9 -18 25.9723 5.4963
-23 -9 -16 -15.0643 -32.6982
-23 -9 -14 -2.1985 16.9489
-23 -9 -12 -1.0985 -24.1458
-23 -9 -10 -20.8468 -31.1267
-23 -9 -8 76.6161 -33.9119
-23 -9 -6 -11.9311 9.1073
-23 -9 -4 -34.7654 -25.4988
-23 -9 -2 55.1436 36.1218
-23 -8 -39 3.4243 -8.6719
-23 -8 -37 -7.3403 -18.3088
-23 -8 -35 -2.9716 -0.6707
-23 -8 -33 -4.8026 -1.3617
-23 -8 -31 -5.9639 0.4679
-23 -8 -29 -7.8999 16.2537
-23 -8 -27 2.5986 2.2884
-23 -8 -25 1.3051 -3.1732
-23 -8 -23 -11.5644 -24.3800
-23 -8 -21 -10.0170 22.4174
-23 -8 -19 -10.8008 5.9548
-23 -8 -17 -7.6835 -1.7710
-23 -8 -15 5.8839 3.9881
-23 -8 -13 -0.3139 13.9526
-23 -8 -11 -17.0802 27.4863
-23 -8 -9 -48.5700 4.6464
-23 -8 -7 25.4718 5.4071
-23 -8 -5 -19.1261 1.2384
-23 -8 -3 23.1949 8.4731
-23 -8 -1 -1.9022 24.3487
-23 -7 -40 19.9392 14.5869
-23 -7 -38 -19.8012 -7.0262
-23 -7 -36 -8.5785 16.0485
-23 -7 -34 -4.1657 -10.1766
-23 -7 -32 -13.2899 4.2581
-23 -7 -30 -2.9982 -14.5656
-23 -7 -28 12.5567 -13.3287
-23 -7 -26 5.3187 3.5681
-23 -7 -24 -5.7037 -3.3622
-23 -7 -22 2.8336 11.1627
-23 -7 -20 3.6378 27.0411
-23 -7 -18 -0.3265 -13.7659
-23 -7 -16 -23.5585 -30.0464
-23 -7 -14 -19.1747 3.4256
-23 -7 -12 22.6756 -24.0801
-23 -7 -10 -15.2738 5.4894
-23 -7 -8 -62.0231 -6.6177
-23 -7 -6 35.2545 16.1944
-23 -7 -4 1.6878 12.9038
-23 -7 -2 8.0999 78.9580
-23 -6 -39 -1.5984 0.5716
-23 -6 -37 16.9783 -3.9271
-23 -6 -35 -0.2327 1.9534
-23 -6 -33 -4.7473 0.2883
-23 -6 -31 4.2159 6.7804
-23 -6 -29 0.0392 15.2838
-23 -6 -27 -6.3557 1.3324
-23 -6 -25 3.1969 3.2903
-23 -6 -23 10.4013 -4.9362
-23 -6 -21 -10.9744 -15.6497
-23 -6 -19 -2.8016 11.4535
-23 -6 -17 6.3004 -17.7769
-23 -6 -15 13.8365 -5.4005
-23 -6 -13 65.9754 16.9606
-23 -6 -11 9.8128 -18.5584
-23 -6 -9 -60.8007 -11.6874
-23 -6 -7 12.6118 -103.4639
-23 -6 -5 15.8417 -67.9842
-23 -6 -3 88.0422 44.5785
-23 -6 -1 9.8587 -10.3186
-23 -5 -40 -4.8747 -3.0910
-23 -5 -38 13.6664 -0.8163
-23 -5 -36 -3.5954 -0.0819
-23 -5 -34 -7.6177 -4.5131
-23 -5 -32 -10.4512 -15.0851
-23 -5 -30 5.7899 -10.8826
-23 -5 -28 0.5927 6.9669
-23 -5 -26 -3.2979 -7.8578
-23 -5 -24 -6.7770 -15.1254
-23 -5 -22 -13.7494 2.0959
-23 -5 -20 21.6255 23.6351
-23 -5 -18 -10.5773 -9.6855
-23 -5 -16 0.5807 -26.9090
-23 -5 -14 -9.2248 1.8299
-23 -5 -12 78.6431 0.7131
-23 -5 -10 1.0753 14.8314
-23 -5 -8 23.6650 -36.9684
-23 -5 -6 60.4803 -36.6262
-23 -5 -4 0.0179 106.5354
-23 -5 -2 -42.5244 49.3359
-23 -4 -39 -3.7258 -1.3813
-23 -4 -37 -16.7509 -10.5517
-23 -4 -35 -2.4783 2.5191
-23 -4 -33 8.5298 -5.0681
-23 -4 -31 -0.6780 2.8988
-23 -4 -29 -6.0157 -2.5232
-23 -4 -27 -0.3010 5.3274
-23 -4 -25 16.2504 -6.3509
-23 -4 -23 -21.6222 -4.5097
-23 -4 -21 -0.6697 27.6681
-23 -4 -19 -9.4958 -0.3421
-23 -4 -17 0.4685 9.2999
-23 -4 -15 4.6609 7.1588
-23 -4 -13 -12.6489 -11.2017
-23 -4 -11 41.4131 23.4143
-23 -4 -9 -36.5891 -1.7788
-23 -4 -7 -4.6420 -81.2342
-23 -4 -5 34.7262 7.2558
-23 -4 -3 -92.6198 15.8651
-23 -4 -1 5.1419 -2.4348
-23 -3 -40 11.5093 3.8682
-23 -3 -38 -19.6838 11.3585
-23 -3 -36 -0.2190 -12.3462
-23 -3 -34 1.2563 1.9431
-23 -3 -32 -6.5268 13.3580
-23 -3 -30 11.0794 -8.1929
-23 -3 -28 -2.6984 -16.4142
-23 -3 -26 -8.7949 2.1413
-23 -3 -24 7.0148 9.5790
-23 -3 -22 -12.5852 8.9597
-23 -3 -20 0.5620 -0.9497
-23 -3 -18 6.3947 -0.7918
-23 -3 -16 4.3130 -2.5367
-23 -3 -14 -8.0905 9.3424
-23 -3 -12 67.2044 18.6616
-23 -3 -10 -54.5726 -3.8348
-23 -3 -8 84.0364 -28.6309
-23 -3 -6 0.1280 89.6862
-23 -3 -4 -32.6527 -51.2292
-23 -3 -2 -17.6701 -14.5027
-23 -2 -41 -0.3495 0.5684
-23 -2 -39 -2.4551 -3.6301
-23 -2 -37 -18.9779 -3.1937
-23 -2 -35 23.3260 -4.5339
-23 -2 -33 2.7765 -1.4437
-23 -2 -31 1.0168 -5.7031
-23 -2 -29 -0.8524 -5.3848
-23 -2 -27 -1.9542 0.7481
-23 -2 -25 12.6959 -13.0070
-23 -2 -23 -12.5645 -13.5579
-23 -2 -21 3.9389 30.9272
-23 -2 -19 11.4547 -2.5467
-23 -2 -17 1.2030 11.8225
-23 -2 -15 -32.4875 16.6974
-23 -2 -13 -1.1653 21.3911
-23 -2 -11 -15.2961 40.6931
-23 -2 -9 33.1746 36.2146
-23 -2 -7 140.9186 -42.0536
-23 -2 -5 -31.2999 12.9521
-23 -2 -3 -40.6656 12.6332
-23 -2 -1 -44.0981 56.4329
-23 -1 -40 -0.6887 21.0423
-23 -1 -38 -7.7879 -12.2585
-23 -1 -36 -0.9437 -2.7607
-23 -1 -34 -31.2185 7.9146
-23 -1 -32 16.9158 -2.8628
-23 -1 -30 4.3588 -2.5155
-23 -1 -28 -12.3079 10.7274
-23 -1 -26 25.7219 -11.9341
-23 -1 -24 3.5804 2.8531
-23 -1 -22 -2.0638 20.8917
-23 -1 -20 13.3619 5.9663
-23 -1 -18 0.5139 -13.9076
-23 -1 -16 -5.4375 9.4687
-23 -1 -14 -11.5572 -15.8389
-23 -1 -12 12.8983 26.8717
-23 -1 -10 -0.4007 69.5002
-23 -1 -8 61.5603 33.3809
-23 -1 -6 39.0443 -1.2699
-23 -1 -4 24.3940 -91.0142
-23 -1 -2 -3.6177 83.8976
-22 -21 -37 15.6013 -9.3899
-22 -21 -35 4.6846 -13.5375
-22 -21 -33 2.5354 -20.5883
-22 -21 -31 -3.3647 1.9606
-22 -21 -29 0.8111 2.0444
-22 -21 -27 1.4673 -1.1814
-22 -21 -25 8.0891 1.5743
-22 -21 -23 7.6028 16.2956
-22 -21 -21 -3.8955 -5.3023
-22 -21 -19 -7.9397 0.5304
-22 -21 -17 18.5597 -9.9532
-22 -21 -15 21.0371 -24.8029
-22 -21 -13 -5.3944 30.7948
-22 -21 -11 -13.0921 9.0848
-22 -21 -9 -6.0029 9.2140
-22 -21 -7 -14.7229 21.5108
-22 -21 -5 -4.7733 28.4319
-22 -21 -3 -0.7719 13.9421
-22 -21 -1 5.6392 -9.1065
-22 -20 -36 -4.3130 -4.0476
-22 -20 -34 -6.4944 3.6932
-22 -20 -32 6.0543 11.8201
-22 -20 -30 4.2420 1.6913
-22 -20 -28 -0.4608 0.7382
-22 -20 -26 15.3323 2.2583
-22 -20 -24 12.1185 16.7779
-22 -20 -22 -11.1042 8.1417
-22 -20 -20 11.6343 2.4880
-22 -20 -18 -16.1408 3.1579
-22 -20 -16 -5.4239 -11.7435
-22 -20 -14 23.8648 -9.3578
-22 -20 -12 24.4644 4.7958
-22 -20 -10 2.4731 -11.5889
-22 -20 -8 4.2603 8.3470
-22 -20 -6 -14.4796 6.2399
-22 -20 -4 -13.2459 -2.2160
-22 -20 -2 -44.3342 54.5512
-22 -19 -37 3.0066 15.7689
-22 -19 -35 5.5885 2.8885
-22 -19 -33 5.0312 2.8566
-22 -19 -31 0.0208 1.0180
-22 -19 -29 -0.9937 5.2924
-22 -19 -27 1.4107 -3.3985
-22 -19 -25 -6.8339 4.6223
-22 -19 -23 -0.3719 5.1589
-22 -19 -21 5.9282 -4.4433
-22 -19 -19 7.3756 2.0437
-22 -19 -17 13.5740 5.0017
-22 -19 -15 -10.5754 -21.5556
-22 -19 -13 -17.5065 15.3641
-22 -19 -11 -13.9281 6.3764
-22 -19 -9 27.9920 -58.1948
-22 -19 -7 -47.7148 -13.7905
-22 -19 -5 4.8395 -23.7249
-22 -19 -3 28.9949 5.6556
-22 -19 -1 -46.2031 -25.7680
-22 -18 -38 -9.8046 -21.3184
-22 -18 -36 24.6778 -3.7132
-22 -18 -34 -0.5639 -2.6690
-22 -18 -32 -1.5040 18.2455
-22 -18 -30 0.3431 -9.0799
-22 -18 -28 1.1450 -6.1488
-22 -18 -26 18.8136 -16.7184
-22 -18 -24 -9.0562 38.0836
-22 -18 -22 -3.5097 37.2162
-22 -18 -20 -20.9297 -25.2778
-22 -18 -18 10.5572 1.8972
-22 -18 -16 -6.4558 37.6162
-22 -18 -14 9.4585 -18.1248
-22 -18 -12 -5.4885 -6.2907
-22 -18 -10 26.6018 6.2184
-22 -18 -8 -7.5542 19.8999
-22 -18 -6 -2.7738 -9.2842
-22 -18 -4 -5.7515 -30.9939
-22 -18 -2 -16.9596 66.5964
-22 -17 -37 -4.7103 12.8693
-22 -17 -35 1.3089 3.1116
-22 -17 -33 -18.2910 -12.6131
-22 -17 -31 -10.0711 -3.3602
-22 -17 -29 -2.2587 17.2115
-22 -17 -27 8.3713 10.2988
-22 -17 -25 7.0613 1.9769
-22 -17 -23 3.3129 -5.0165
-22 -17 -21 -12.8930 -13.1052
-22 -17 -19 -6.7239 -3.3444
-22 -17 -17 -9.5383 13.4325
-22 -17 -15 26.1197 -1.8270
-22 -17 -13 16.0935 8.8140
-22 -17 -11 -1.3229 9.2246
-22 -17 -9 6.2423 -6.1152
-22 -17 -7 -47.7896 -11.2754
-22 -17 -5 -39.4032 -162.4061
-22 -17 -3 11.2580 15.8914
-22 -17 -1 14.6258 61.4414
-22 -16 -38 0.7474 -15.4505
-22 -16 -36 0.0407 -19.8873
-22 -16 -34 -2.6669 -0.3969
-22 -16 -32 2.4212 0.0170
-22 -16 -30 0.3284 2.2958
-22 -16 -28 -5.0594 -13.1864
-22 -16 -26 -13.0944 -2.5167
-22 -16 -24 -8.0734 -5.9720
-22 -16 -22 16.2703 -17.8164
-22 -16 -20 1.0650 -1.6385
-22 -16 -18 22.1237 44.2962
-22 -16 -16 -17.3624 -3.8197
-22 -16 -14 -2.1533 -9.9467
-22 -16 -12 -2.3285 -1.9410
-22 -16 -10 45.6680 35.4040
-22 -16 -8 1.4263 -17.8159
-22 -16 -6 24.6319 -22.4408
-22 -16 -4 4.9563 -5.2731
-22 -16 -2 -11.7556 -32.9533
-22 -15 -39 11.9100 -22.0913
-22 -15 -37 -0.7491 12.9411
-22 -15 -35 -12.3232 12.5197
-22 -15 -33 -15.0507 -5.6229
-22 -15 -31 2.4507 -9.3482
-22 -15 -29 6.0311 -3.6597
-22 -15 -27 -6.5564 -1.5588
-22 -15 -25 5.9374 1.3559
-22 -15 -23 6.4465 19.8129
-22 -15 -21 6.0495 -5.4805
-22 -15 -19 0.8170 -3.6277
-22 -15 -17 -18.2378 6.9664
-22 -15 -15 24.2573 18.0080
-22 -15 -13 -4.6424 -26.2041
-22 -15 -11 -8.0375 24.8197
-22 -15 -9 12.3565 -2.5505
-22 -15 -7 -31.7083 4.6305
-22 -15 -5 23.2593 105.3619
-22 -15 -3 55.2124 -147.9218
-22 -15 -1 43.2248 -1.3286
-22 -14 -38 7.9418 -6.2554
-22 -14 -36 6.9284 14.7045
-22 -14 -34 -16.3556 14.8182
-22 -14 -32 -12.7963 3.6129
-22 -14 -30 8.4597 3.2151
-22 -14 -28 -9.3048 11.2120
-22 -14 -26 0.4934 1.6913
-22 -14 -24 -8.8630 2.6253
-22 -14 -22 -15.4549 11.0290
-22 -14 -20 0.1596 6.3353
-22 -14 -18 -10.6221 -10.7130
-22 -14 -16 25.7235 -16.7733
-22 -14 -14 -44.5945 9.1423
-22 -14 -12 -47.1765 -7.3468
-22 -14 -10 25.9676 -17.8230
-22 -14 -8 -45.3964 -3.4929
-22 -14 -6 47.8585 68.1830
-22 -14 -4 37.0884 -11.4034
-22 -14 -2 -67.9767 -24.2208
-22 -13 -39 13.6117 -8.8496
-22 -13 -37 10.7221 -7.0731
-22 -13 -35 14.8165 -18.7566
-22 -13 -33 3.9330 13.0141
-22 -13 -31 -12.6313 1.1813
-22 -13 -29 -2.8995 6.2250
-22 -13 -27 9.8537 2.1204
-22 -13 -25 2.3174 13.1288
-22 -13 -23 0.5336 14.8239
-22 -13 -21 16.3504 -1.9968
-22 -13 -19 6.7313 2.0261
-22 -13 -17 31.9744 -11.2861
-22 -13 -15 4.0764 -22.0422
-22 -13 -13 -18.2832 29.3596
-22 -13 -11 34.9188 16.2445
-22 -13 -9 47.3918 -2.5765
-22 -13 -7 -131.9497 -32.7297
-22 -13 -5 66.2187 -70.3086
-22 -13 -3 32.8831 44.7400
-22 -13 -1 99.8489 48.2854
-22 -12 -40 18.8264 -14.2216
-22 -12 -38 -23.1691 -2.9399
-22 -12 -36 -6.5067 -0.7229
-22 -12 -34 -3.7556 3.2791
-22 -12 -32 5.3502 -13.7094
-22 -12 -30 1.8687 6.4325
-22 -12 -28 -5.9265 1.7145
-22 -12 -26 -2.8710 -2.1694
-22 -12 -24 -2.6200 5.9496
-22 -12 -22 -0.9939 -13.1941
-22 -12 -20 9.4594 -1.9133
-22 -12 -18 32.9868 -5.1352
-22 -12 -16 -11.0870 -4.4732
-22 -12 -14 -39.8907 15.0828
-22 -12 -12 5.9340 -2.5489
-22 -12 -10 2.5056 -27.7990
-22 -12 -8 -34.5532 -8.9353
-22 -12 -6 49.8525 33.9595
-22 -12 -4 32.2180 39.0742
-22 -12 -2 86.9507 32.8071
-22 -11 -39 4.7930 -24.2857
-22 -11 -37 -0.3335 17.6975
-22 -11 -35 -13.1607 -2.9274
-22 -11 -33 -2.3564 -22.8537
-22 -11 -31 4.4370 2.9159
-22 -11 -29 16.1711 0.2205
-22 -11 -27 -4.3280 9.3160
-22 -11 -25 -2.9577 -8.1227
-22 -11 -23 9.6337 -7.6924
-22 -11 -21 -0.4035 0.9161
-22 -11 -19 -17.0202 4.1433
-22 -11 -17 -3.8444 11.3626
-22 -11 -15 32.4834 24.6783
-22 -11 -13 -68.6674 55.1322
-22 -11 -11 3.7422 -19.4887
-22 -11 -9 -31.7301 -30.8004
-22 -11 -7 -36.3335 31.4678
-22 -11 -5 -85.2621 -52.9462
-22 -11 -3 16.0515 10.1101
-22 -11 -1 73.8577 -22.1293
-22 -10 -40 -2.1146 0.5390
-22 -10 -38 -18.3140 -17.7011
-22 -10 -36 0.0634 -0.7796
-22 -10 -34 1.0525 -10.6128
-22 -10 -32 8.2636 -3.9246
-22 -10 -30 4.7525 14.7758
-22 -10 -28 16.3089 3.0960
-22 -10 -26 -2.9409 5.2237
-22 -10 -24 9.8643 0.5782
-22 -10 -22 -17.5385 -16.0883
-22 -10 -20 -19.3567 -18.7435
-22 -10 -18 -27.5867 -3.7661
-22 -10 -16 -26.6863 26.7725
-22 -10 -14 -13.1989 16.2907
-22 -10 -12 12.5245 -2.0454
-22 -10 -10 42.9329 5.4778
-22 -10 -8 85.7034 6.4740
-22 -10 -6 -45.9229 -40.0862
-22 -10 -4 -18.2541 21.6016
-22 -10 -2 83.4290 48.8484
-22 -9 -39 -8.7631 8.9858
-22 -9 -37 0.1925 -1.5677
-22 -9 -35 9.6305 -13.6808
-22 -9 -33 12.2325 -2.1901
-22 -9 -31 1.7997 -11.7009
-22 -9 -29 5.7895 13.0628
-22 -9 -27 -2.2648 -9.1562
-22 -9 -25 -0.3057 -3.4076
-22 -9 -23 12.9316 -6.4225
-22 -9 -21 12.9073 -7.5038
-22 -9 -19 -21.9192 -7.6759
-22 -9 -17 19.3064 -4.8735
-22 -9 -15 -11.7776 -23.5945
-22 -9 -13 23.2195 -17.1667
-22 -9 -11 -36.8540 -7.9220
-22 -9 -9 -2.6837 16.3494
-22 -9 -7 -25.2673 15.8736
-22 -9 -5 23.4454 -0.6687
-22 -9 -3 21.8845 -41.6797
-22 -9 -1 46.5447 -37.5660
-22 -8 -40 -1.6598 2.1036
-22 -8 -38 0.6063 2.6081
-22 -8 -36 20.7001 4.7843
-22 -8 -34 17.0497 -16.6465
-22 -8 -32 -7.9204 0.5891
-22 -8 -30 -13.3035 3.6608
-22 -8 -28 -9.7780 -10.9061
-22 -8 -26 7.0379 13.1115
-22 -8 -24 1.9779 4.5632
-22 -8 -22 0.9382 -10.0702
-22 -8 -20 -13.7085 2.3868
-22 -8 -18 19.2474 18.4110
-22 -8 -16 14.5401 28.6146
-22 -8 -14 -26.8096 -8.6664
-22 -8 -12 3.5304 15.3079
-22 -8 -10 -30.8169 -31.3267
-22 -8 -8 109.4357 22.5282
-22 -8 -6 -41.5776 23.1336
-22 -8 -4 4.5337 -32.3310
-22 -8 -2 15.9329 -15.3239
-22 -7 -41 1.6128 0.2281
-22 -7 -39 -1.1424 -1.8838
-22 -7 -37 5.3029 -1.1273
-22 -7 -35 11.3611 9.0681
-22 -7 -33 -5.4863 -0.5917
-22 -7 -31 12.7810 10.6120
-22 -7 -29 3.0537 -0.5483
-22 -7 -27 0.1773 5.3408
-22 -7 -25 4.5121 -14.0474
-22 -7 -23 10.5798 -18.1159
-22 -7 -21 -0.4435 -10.0607
-22 -7 -19 -8.2926 5.4348
-22 -7 -17 -1.9278 -10.1619
-22 -7 -15 -16.2877 -17.7954
-22 -7 -13 54.3239 0.6622
-22 -7 -11 25.0576 -0.7829
-22 -7 -9 24.2888 -15.5190
-22 -7 -7 11.6652 -20.6258
-22 -7 -5 -102.0796 46.3687
-22 -7 -3 7.1677 3.4083
-22 -7 -1 68.8440 36.4833
-22 -6 -40 9.2201 -14.8467
-22 -6 -38 0.1523 -10.0595
-22 -6 -36 -15.1287 5.2320
-22 -6 -34 13.1338 8.2055
-22 -6 -32 7.5208 -7.1364
-22 -6 -30 3.4819 4.2140
-22 -6 -28 -5.7559 5.2537
-22 -6 -26 11.9190 2.4723
-22 -6 -24 -11.3877 -6.5436
-22 -6 -22 -4.2831 -0.1699
-22 -6 -20 1.6321 11.7097
-22 -6 -18 27.0197 -0.1239
-22 -6 -16 23.0519 -26.4647
-22 -6 -14 56.0489 -76.5645
-22 -6 -12 1.2273 2.0528
-22 -6 -10 -29.9396 6.5099
-22 -6 -8 35.7745 -12.3895
-22 -6 -6 53.5588 -37.0754
-22 -6 -4 -2.4682 5.8597
-22 -6 -2 -52.2978 41.4998
-22 -5 -41 10.2220 -8.2187
-22 -5 -39 -16.5714 -11.2318
-22 -5 -37 3.6467 20.6454
-22 -5 -35 8.0332 -2.6303
-22 -5 -33 -0.8548 -1.2781
-22 -5 -31 7.4682 3.2622
-22 -5 -29 -12.5880 3.2611
-22 -5 -27 -1.6382 3.5759
-22 -5 -25 12.7295 18.9105
-22 -5 -23 23.8820 1.1969
-22 -5 -21 -7.2006 -13.6341
-22 -5 -19 9.1387 18.6240
-22 -5 -17 -17.4877 12.1593
-22 -5 -15 37.5144 51.8227
-22 -5 -13 -26.2861 48.4981
-22 -5 -11 -9.4239 -1.4799
-22 -5 -9 -11.9813 -59.9798
-22 -5 -7 -44.6372 -15.2876
-22 -5 -5 -72.7500 -29.9474
-22 -5 -3 -35.7195 43.8173
-22 -5 -1 85.0936 -2.5227
-22 -4 -40 -4.2208 1.5557
-22 -4 -38 -15.2051 10.3284
-22 -4 -36 -3.5667 20.3746
-22 -4 -34 -17.2108 2.3962
-22 -4 -32 -18.4236 1.5012
-22 -4 -30 2.2559 -0.9535
-22 -4 -28 6.6213 -0.3935
-22 -4 -26 13.4462 2.1139
-22 -4 -24 -0.0870 13.9211
-22 -4 -22 10.9174 7.4916
-22 -4 -20 -12.9443 15.5450
-22 -4 -18 -8.7845 22.5441
-22 -4 -16 12.8310 -2.6246
-22 -4 -14 46.6540 13.4069
-22 -4 -12 -32.2443 -4.1489
-22 -4 -10 6.7377 36.3623
-22 -4 -8 13.8104 16.0121
-22 -4 -6 56.6687 20.3314
-22 -4 -4 16.4634 -5.9449
-22 -4 -2 14.3638 59.1238
-22 -3 -41 7.3948 8.3884
-22 -3 -39 -7.9286 -16.2536
-22 -3 -37 0.3005 4.5690
-22 -3 -35 -0.8395 -21.4498
-22 -3 -33 -1.5489 1.4873
-22 -3 -31 -4.2043 -9.6412
-22 -3 -29 -3.4428 3.0403
-22 -3 -27 -0.2094 -3.7008
-22 -3 -25 10.4778 -8.8145
-22 -3 -23 -5.4813 9.6345
-22 -3 -21 14.6733 3.9672
-22 -3 -19 30.0206 15.8469
-22 -3 -17 -11.9779 11.3081
-22 -3 -15 -27.3021 12.1817
-22 -3 -13 -12.1516 7.6297
-22 -3 -11 26.3783 -1.1867
-22 -3 -9 -108.8334 -2.1621
-22 -3 -7 13.3484 -19.8883
-22 -3 -5 77.6479 16.4062
-22 -3 -3 14.8325 -27.8302
-22 -3 -1 -65.7292 -50.5087
-22 -2 -40 -11.0795 13.4194
-22 -2 -38 -7.2721 17.8119
-22 -2 -36 -3.7297 -0.9657
-22 -2 -34 -13.6366 -2.1988
-22 -2 -32 4.2264 -3.1859
-22 -2 -30 18.6763 -0.0277
-22 -2 -28 -15.5809 -6.5847
-22 -2 -26 2.8618 2.7065
-22 -2 -24 -6.9101 -15.4407
-22 -2 -22 -15.5935 -19.4343
-22 -2 -20 -25.8496 17.4075
-22 -2 -18 -26.1389 4.4354
-22 -2 -16 -4.7242 -2.0337
-22 -2 -14 -30.1415 -10.4665
-22 -2 -12 18.6606 -15.5948
-22 -2 -10 0.6571 -20.2823
-22 -2 -8 49.4963 -68.8689
-22 -2 -6 -67.0961 -2.1746
-22 -2 -4 13.3939 2.5839
-22 -2 -2 21.0819 8.7129
-22 -1 -41 6.1512 -29.3675
-22 -1 -39 -1.5608 1.5884
-22 -1 -37 -8.3434 13.1322
-22 -1 -35 -9.5571 -5.6435
-22 -1 -33 0.4441 -4.8860
-22 -1 -31 -13.1415 23.7990
-22 -1 -29 -1.3973 -4.4645
-22 -1 -27 -10.7598 -4.3060
-22 -1 -25 12.6281 15.1681
-22 -1 -23 9.1920 0.2630
-22 -1 -21 4.0817 -17.1701
-22 -1 -19 -3.2536 -6.8411
-22 -1 -17 5.9644 -8.9684
-22 -1 -15 -22.5449 -7.3906
-22 -1 -13 92.1557 3.3869
-22 -1 -11 5.8805 -2.4214
-22 -1 -9 11.3982 -6.4580
-22 -1 -7 -31.6431 6.6209
-22 -1 -5 -71.7267 -59.0488
-22 -1 -3 38.5028 -44.6652
-22 -1 -1 -21.7434 18.3518
-21 -20 -37 1.0103 -3.3313
-21 -20 -35 12.6601 -13.4120
-21 -20 -33 2.6455 -3.4039
-21 -20 -31 5.4903 -8.9283
-21 -20 -29 0.5229 2.3061
-21 -20 -27 1.0296 3.7706
-21 -20 -25 -9.4173 -7.6365
-21 -20 -23 -4.8071 2.1336
-21 -20 -21 0.0388 8.9169
-21 -20 -19 1.4934 7.4310
-21 -20 -17 -4.9934 -22.3555
-21 -20 -15 44.3999 -22.5521
-21 -20 -13 25.0505 -9.7567
-21 -20 -11 -23.9416 35.3383
-21 -20 -9 -4.8233 -25.4251
-21 -20 -7 -13.2051 -13.1496
-21 -20 -5 12.3088 -27.4568
-21 -20 -3 23.9875 -34.1402
-21 -20 -1 7.4759 -15.7332
-21 -19 -38 5.5105 1.8642
-21 -19 -36 4.4808 11.8661
-21 -19 -34 17.6364 -1.8815
-21 -19 -32 -7.0891 1.7783
-21 -19 -30 -16.9217 11.3792
-21 -19 -28 -6.0354 1.1639
-21 -19 -26 -7.2762 7.7977
-21 -19 -24 10.4606 15.6161
-21 -19 -22 -1.3130 -21.9850
-21 -19 -20 -11.6705 31.8455
-21 -19 -18 7.7075 30.9971
-21 -19 -16 19.5022 -16.9506
-21 -19 -14 -4.8932 -12.9384
-21 -19 -12 -24.4940 -14.0934
-21 -19 -10 -8.8709 6.4507
-21 -19 -8 12.0821 -44.5893
-21 -19 -6 15.6016 79.8856
-21 -19 -4 -9.5431 68.2644
-21 -19 -2 26.5539 -71.8903
-21 -18 -37 21.1360 8.3098
-21 -18 -35 -0.3393 -4.8426
-21 -18 -33 1.8973 -1.8356
-21 -18 -31 2.0380 -4.5044
-21 -18 -29 -2.9646 4.1934
-21 -18 -27 7.1639 -9.9758
-21 -18 -25 21.5977 1.2509
-21 -18 -23 -3.7725 -2.9691
-21 -18 -21 0.4012 -3.5419
-21 -18 -19 7.5256 -3.9894
-21 -18 -17 7.0768 -5.4715
-21 -18 -15 -8.3589 37.9287
-21 -18 -13 29.1967 34.6811
-21 -18 -11 -6.5588 13.3258
-21 -18 -9 0.5861 -6.8574
-21 -18 -7 -23.5020 -2.6594
-21 -18 -5 14.8465 -4.9652
-21 -18 -3 28.0458 44.3898
-21 -18 -1 49.3546 -18.8437
-21 -17 -38 23.9252 -4.6785
-21 -17 -36 -15.2767 -12.6893
-21 -17 -34 -20.9691 1.3084
-21 -17 -32 -2.5517 -3.1429
-21 -17 -30 -1.3615 -3.0550
-21 -17 -28 11.7077 5.8440
-21 -17 -26 5.8019 11.0504
-21 -17 -24 -38.9687 21.4547
-21 -17 -22 1.5111 -4.0488
-21 -17 -20 20.4277 -11.1721
-21 -17 -18 -9.0384 -2.9027
-21 -17 -16 -4.1247 3.8731
-21 -17 -14 10.3513 5.8954
-21 -17 -12 -19.8731 11.1608
-21 -17 -10 6.5035 -7.9525
-21 -17 -8 0.6217 -55.7999
-21 -17 -6 -19.0122 53.9232
-21 -17 -4 -0.5863 -44.4155
-21 -17 -2 -19.9876 -51.5009
-21 -16 -39 -6.1164 11.3412
-21 -16 -37 13.1440 -1.7506
-21 -16 -35 -11.9429 3.7888
-21 -16 -33 3.7257 20.9581
-21 -16 -31 -5.5066 2.2659
-21 -16 -29 -3.8741 -5.0762
-21 -16 -27 8.7598 18.0326
-21 -16 -25 10.7843 -0.8324
-21 -16 -23 -14.2487 -5.9983
-21 -16 -21 -2.5497 4.8066
-21 -16 -19 -2.5261 -8.9607
-21 -16 -17 -13.7990 -5.1280
-21 -16 -15 -7.7943 -4.6519
-21 -16 -13 -18.8950 -13.8039
-21 -16 -11 10.3736 -1.2493
-21 -16 -9 -2.6545 -10.3765
-21 -16 -7 -4.2736 -27.9054
-21 -16 -5 11.0656 -17.5174
-21 -16 -3 -7.5999 -36.4483
-21 -16 -1 33.0032 -98.8273
-21 -15 -38 8.3330 -26.0010
-21 -15 -36 17.1892 -16.1941
-21 -15 -34 -3.7392 1.7406
-21 -15 -32 -1.6048 1.1855
-21 -15 -30 -9.0057 -1.9195
-21 -15 -28 6.6387 -6.0297
-21 -15 -26 4.7203 9.7541
-21 -15 -24 -10.0662 -26.6045
-21 -15 -22 0.6633 -4.9124
-21 -15 -20 25.0527 -21.6382
-21 -15 -18 -20.1089 -11.8232
-21 -15 -16 16.1629 16.5328
-21 -15 -14 10.1447 20.5990
-21 -15 -12 16.8615 50.5469
-21 -15 -10 10.5404 18.4450
-21 -15 -8 -22.9797 -27.1780
-21 -15 -6 13.3891 -26.2254
-21 -15 -4 -15.5756 24.5291
-21 -15 -2 21.8190 30.4365
-21 -14 -39 5.4936 -17.4145
-21 -14 -37 -1.0062 -13.8492
-21 -14 -35 -5.8994 1.4792
-21 -14 -33 -3.2990 -1.2217
-21 -14 -31 -4.7980 5.6742
-21 -14 -29 -1.5481 -1.2237
-21 -14 -27 -4.2524 -4.7911
-21 -14 -25 -4.9711 -2.2418
-21 -14 -23 -3.8673 11.1594
-21 -14 -21 6.7923 -0.4901
-21 -14 -19 23.0332 -5.2077
-21 -14 -17 -8.2215 7.2909
-21 -14 -15 -17.7639 3.7236
-21 -14 -13 -10.2010 30.4131
-21 -14 -11 -5.9843 31.2352
-21 -14 -9 50.5583 29.1166
-21 -14 -7 43.6273 -103.9171
-21 -14 -5 31.3385 -18.8531
-21 -14 -3 -113.6806 -47.1305
-21 -14 -1 0.3656 -66.4528
-21 -13 -40 -2.0508 -0.0823
-21 -13 -38 20.3036 -7.0372
-21 -13 -36 0.9781 -2.5325
-21 -13 -34 -4.9908 2.2820
-21 -13 -32 -0.6016 -0.2055
-21 -13 -30 -4.6359 -5.2211
-21 -13 -28 -11.9056 -1.6168
-21 -13 -26 0.2698 13.0777
-21 -13 -24 -14.2862 -21.2682
-21 -13 -22 -0.4052 5.6585
-21 -13 -20 -31.3553 -3.6795
-21 -13 -18 -28.6396 -14.0592
-21 -13 -16 12.9563 24.5095
-21 -13 -14 10.4169 14.1660
-21 -13 -12 -5.4500 63.2663
-21 -13 -10 31.6419 5.0521
-21 -13 -8 -11.2731 30.8082
-21 -13 -6 3.3691 -2.9838
-21 -13 -4 -13.3604 -23.8895
-21 -13 -2 39.9463 47.1289
-21 -12 -39 -17.9736 1.5244
-21 -12 -37 -0.2952 -5.4301
-21 -12 -35 -0.3955 3.0000
-21 -12 -33 -5.3638 -3.5069
-21 -12 -31 12.5802 -10.3021
-21 -12 -29 -4.4630 -4.2142
-21 -12 -27 9.4596 2.5579
-21 -12 -25 6.6512 -3.0493
-21 -12 -23 0.9704 0.4996
-21 -12 -21 -0.3110 9.8723
-21 -12 -19 0.2366 -13.0310
-21 -12 -17 -10.5567 1.5828
-21 -12 -15 -15.2616 11.5790
-21 -12 -13 11.5667 7.8898
-21 -12 -11 2.3087 34.4412
-21 -12 -9 47.4978 -27.6677
-21 -12 -7 22.3995 -134.5560
-21 -12 -5 -23.5518 -52.3599
-21 -12 -3 191.9172 23.4186
-21 -12 -1 -61.0381 -5.0069
-21 -11 -40 -24.4425 -4.7650
-21 -11 -38 20.2449 -0.1378
-21 -11 -36 4.1159 -2.2412
-21 -11 -34 -0.5387 2.7293
-21 -11 -32 10.5800 4.9913
-21 -11 -30 9.0586 -3.0695
-21 -11 -28 11.8299 6.3376
-21 -11 -26 3.1072 -3.3487
-21 -11 -24 -6.1814 -17.7341
-21 -11 -22 -5.6871 10.0684
-21 -11 -20 -2.0029 -34.1871
-21 -11 -18 25.4897 -40.4293
-21 -11 -16 17.7619 -37.5635
-21 -11 -14 -24.7188 4.7642
-21 -11 -12 -2.2828 43.3238
-21 -11 -10 -25.7808 -27.3690
-21 -11 -8 -2.7639 -23.4249
-21 -11 -6 29.7477 -3.8626
-21 -11 -4 48.8546 70.5067
-21 -11 -2 -12.5025 42.3299
-21 -10 -39 27.0313 -7.8851
-21 -10 -37 5.9242 -12.7610
-21 -10 -35 -12.8860 3.4761
-21 -10 -33 -18.3459 -5.1766
-21 -10 -31 6.9201 17.9623
-21 -10 -29 3.6793 -24.0787
-21 -10 -27 -7.2597 2.6725
-21 -10 -25 -6.4833 5.7481
-21 -10 -23 8.3330 6.4559
-21 -10 -21 -2.6820 22.5587
-21 -10 -19 17.1186 -3.6829
-21 -10 -17 9.2761 16.2352
-21 -10 -15 9.9353 -0.6454
-21 -10 -13 -11.7460 20.1869
-21 -10 -11 -2.0751 -18.3982
-21 -10 -9 -6.9444 61.5164
-21 -10 -7 55.8718 22.9501
-21 -10 -5 -19.1462 -68.7795
-21 -10 -3 139.8947 -19.2857
-21 -10 -1 4.2160 81.3753
-21 -9 -40 -1.5267 2.9397
-21 -9 -38 12.8861 7.7840
-21 -9 -36 0.5956 1.2334
-21 -9 -34 -16.1306 -1.4947
-21 -9 -32 1.4564 27.6136
-21 -9 -30 19.7366 4.7196
-21 -9 -28 -3.8414 1.6386
-21 -9 -26 2.4762 8.9782
-21 -9 -24 -2.2860 -7.8267
-21 -9 -22 13.3056 10.3471
-21 -9 -20 -14.3886 -16.5762
-21 -9 -18 -2.4769 -28.9178
-21 -9 -16 2.5640 -55.1057
-21 -9 -14 3.7387 0.2501
-21 -9 -12 -29.0603 -26.8614
-21 -9 -10 -4.2050 -56.2161
-21 -9 -8 -20.6073 -9.6544
-21 -9 -6 2.2550 -15.8737
-21 -9 -4 -76.1387 -15.7400
-21 -9 -2 29.8756 -0.6688
-21 -8 -41 3.2827 -1.8950
-21 -8 -39 -25.7510 -6.5509
-21 -8 -37 -1.5083 -0.7609
-21 -8 -35 -14.6704 10.2765
-21 -8 -33 -7.0420 -0.8109
-21 -8 -31 9.5011 -9.0105
-21 -8 -29 13.5885 7.5737
-21 -8 -27 9.6683 -12.1396
-21 -8 -25 9.8359 0.9470
-21 -8 -23 8.5268 -7.7735
-21 -8 -21 4.9269 -15.4797
-21 -8 -19 -6.7931 -5.6509
-21 -8 -17 -4.7960 -45.3704
-21 -8 -15 13.6220 -15.4462
-21 -8 -13 4.2244 -1.6700
-21 -8 -11 -18.1780 1.4846
-21 -8 -9 -44.8125 -4.2653
-21 -8 -7 -66.3284 -42.1799
-21 -8 -5 -33.1312 -29.6288
-21 -8 -3 -10.4573 12.8681
-21 -8 -1 -2.9582 -42.3029
-21 -7 -40 10.2008 0.0860
-21 -7 -38 12.3625 14.9693
-21 -7 -36 -1.8638 -2.4377
-21 -7 -34 -1.2706 2.8586
-21 -7 -32 5.0902 -8.0453
-21 -7 -30 8.5006 6.3325
-21 -7 -28 19.1897 11.6643
-21 -7 -26 -5.4817 10.6791
-21 -7 -24 0.9071 -18.0222
-21 -7 -22 9.5265 -5.5845
-21 -7 -20 11.9108 17.5593
-21 -7 -18 -8.4919 -39.6143
-21 -7 -16 -16.7325 62.3331
-21 -7 -14 4.9166 -8.0686
-21 -7 -12 26.9213 1.1364
-21 -7 -10 -7.2626 21.8786
-21 -7 -8 -11.5998 82.6242
-21 -7 -6 95.0749 34.8287
-21 -7 -4 62.5787 25.4261
-21 -7 -2 71.3310 51.1840
-21 -6 -41 -22.6868 -8.4792
-21 -6 -39 22.4110 3.1317
-21 -6 -37 1.8252 -2.3938
-21 -6 -35 -12.8299 6.4602
-21 -6 -33 8.7862 7.0834
-21 -6 -31 4.5635 4.3444
-21 -6 -29 3.4379 -5.3300
-21 -6 -27 3.5724 -10.7283
-21 -6 -25 -15.4641 -5.5954
-21 -6 -23 -2.9628 8.0590
-21 -6 -21 -21.8534 1.7400
-21 -6 -19 -9.9057 2.6279
-21 -6 -17 -26.8946 -40.0548
-21 -6 -15 3.3602 -22.5038
-21 -6 -13 5.1229 -14.5236
-21 -6 -11 -13.3113 5.8052
-21 -6 -9 -22.4543 -14.4184
-21 -6 -7 -0.3780 -49.8024
-21 -6 -5 85.9554 18.8984
-21 -6 -3 14.8481 -40.0649
-21 -6 -1 4.1791 -49.4690
-21 -5 -40 3.1741 -4.0916
-21 -5 -38 -20.0908 1.1678
-21 -5 -36 0.5870 -4.8755
-21 -5 -34 0.5423 4.6581
-21 -5 -32 -2.2586 -6.7094
-21 -5 -30 -6.4331 -5.9021
-21 -5 -28 2.5366 9.4216
-21 -5 -26 -11.5663 -0.3564
-21 -5 -24 11.6435 12.3375
-21 -5 -22 -4.2039 -0.0227
-21 -5 -20 -8.7185 24.8809
-21 -5 -18 0.2763 33.8203
-21 -5 -16 7.8976 -49.0515
-21 -5 -14 -29.2985 2.2280
-21 -5 -12 -31.9395 -24.2853
-21 -5 -10 -50.2719 1.6445
-21 -5 -8 -21.7701 -18.3057
-21 -5 -6 111.9121 -54.6764
-21 -5 -4 38.0100 -24.2075
-21 -5 -2 -64.3861 -103.7423
-21 -4 -41 -1.4781 3.5199
-21 -4 -39 7.1907 18.4499
-21 -4 -37 2.4061 2.5564
-21 -4 -35 -1.9125 -0.1378
-21 -4 -33 -3.4720 12.9989
-21 -4 -31 7.7219 -18.0587
-21 -4 -29 -1.4983 -3.0196
-21 -4 -27 -13.1910 -11.9927
-21 -4 -25 10.5738 -1.9104
-21 -4 -23 -22.8937 -3.6454
-21 -4 -21 -23.4321 1.0084
-21 -4 -19 -0.3976 24.2929
-21 -4 -17 2.8012 12.0014
-21 -4 -15 -15.1616 1.3418
-21 -4 -13 -1.3104 33.5760
-21 -4 -11 14.2493 -52.3963
-21 -4 -9 -22.9810 22.2360
-21 -4 -7 -44.6079 4.7721
-21 -4 -5 -36.0843 -16.0681
-21 -4 -3 26.3181 110.4204
-21 -4 -1 -59.3494 61.7484
-21 -3 -40 -6.4471 -1.0518
-21 -3 -38 8.1517 11.4341
-21 -3 -36 -0.2895 2.9167
-21 -3 -34 -0.4633 1.1142
-21 -3 -32 -1.5304 3.0010
-21 -3 -30 -10.2907 21.9676
-21 -3 -28 -8.1652 4.5947
-21 -3 -26 -11.9170 -11.5746
-21 -3 -24 -10.5494 -5.0506
-21 -3 -22 4.2547 -17.6040
-21 -3 -20 41.1106 -3.0388
-21 -3 -18 19.8096 -16.0928
-21 -3 -16 58.4368 -24.2561
-21 -3 -14 -28.4498 -22.9634
-21 -3 -12 -25.7882 -52.9822
-21 -3 -10 27.3005 23.3698
-21 -3 -8 -30.6025 30.9605
-21 -3 -6 79.7204 -36.5555
-21 -3 -4 51.6155 -125.7821
-21 -3 -2 -45.7101 -11.7895
-21 -2 -41 -0.7825 -2.0106
-21 -2 -39 14.5747 -15.0306
-21 -2 -37 -2.4228 -16.0288
-21 -2 -35 2.9850 3.4919
-21 -2 -33 17.8789 -0.3170
-21 -2 -31 5.8567 0.4008
-21 -2 -29 -7.1096 1.5616
-21 -2 -27 0.3764 6.9983
-21 -2 -25 1.0477 -0.1002
-21 -2 -23 -4.1267 14.4261
-21 -2 -21 -22.3493 10.5325
-21 -2 -19 21.3024 1.9512
-21 -2 -17 7.4000 -15.7976
-21 -2 -15 -15.4239 36.9522
-21 -2 -13 -6.7312 21.7864
-21 -2 -11 11.0533 -72.3629
-21 -2 -9 -37.5180 -45.3712
-21 -2 -7 -2.2519 34.1036
-21 -2 -5 -60.7047 43.8996
-21 -2 -3 98.6524 -11.9445
-21 -2 -1 36.1352 -55.2787
-21 -1 -40 -18.4912 -9.7953
-21 -1 -38 2.5909 -0.0112
-21 -1 -36 11.9002 20.2025
-21 -1 -34 7.3824 -6.7114
-21 -1 -32 -15.0988 5.5429
-21 -1 -30 -17.8287 -1.1047
-21 -1 -28 -9.5985 13.0818
-21 -1 -26 18.1421 -1.7458
-21 -1 -24 3.7099 8.4290
-21 -1 -22 -20.8632 -1.7296
-21 -1 -20 12.8091 -11.8864
-21 -1 -18 5.4852 -5.8294
-21 -1 -16 -4.2191 -29.1496
-21 -1 -14 12.8906 -6.9229
-21 -1 -12 -12.8368 23.4302
-21 -1 -10 -9.8371 -47.6540
-21 -1 -8 -43.5579 43.3824
-21 -1 -6 69.1831 -3.1545
-21 -1 -4 -60.6305 -25.7257
-21 -1 -2 0.9794 35.1122
-20 -19 -37 15.2468 -12.9243
-20 -19 -35 7.0665 1.3270
-20 -19 -33 10.8638 -1.4369
-20 -19 -31 0.2512 12.2354
-20 -19 -29 -0.2935 2.0258
-20 -19 -27 -0.4444 -11.9354
-20 -19 -25 0.9564 -7.9595
-20 -19 -23 -11.9180 3.0286
-20 -19 -21 -1.0846 7.1507
-20 -19 -19 1.9297 -1.3889
-20 -19 -17 -8.5050 5.6176
-20 -19 -15 -13.0947 20.1586
-20 -19 -13 -25.1720 26.5792
-20 -19 -11 -24.3818 -24.0899
-20 -19 -9 16.7899 -27.0326
-20 -19 -7 93.9263 45.9039
-20 -19 -5 36.7904 -25.3787
-20 -19 -3 -17.8643 7.0241
-20 -19 -1 -48.2339 -33.2294
-20 -18 -38 2.1464 -0.3874
-20 -18 -36 -6.6454 14.2927
-20 -18 -34 -19.9154 14.1766
-20 -18 -32 -0.5790 0.2796
-20 -18 -30 6.9266 1.6017
-20 -18 -28 -14.1694 -7.2579
-20 -18 -26 4.1236 -12.5783
-20 -18 -24 -4.0609 -6.4207
-20 -18 -22 -7.7953 -26.9467
-20 -18 -20 1.5794 -5.1803
-20 -18 -18 -4.9828 -19.6325
-20 -18 -16 -21.3208 9.9266
-20 -18 -14 2.6746 -8.8930
-20 -18 -12 13.5966 -8.3136
-20 -18 -10 -78.9353 34.7143
-20 -18 -8 28.4948 -28.5605
-20 -18 -6 -17.9580 91.3712
-20 -18 -4 25.0312 -10.8116
-20 -18 -2 41.8756 -46.2394
-20 -17 -39 18.9692 -4.5946
-20 -17 -37 16.0504 -12.9289
-20 -17 -35 2.2897 0.9102
-20 -17 -33 -8.2075 -6.6246
-20 -17 -31 -7.2143 2.1759
-20 -17 -29 3.4412 -3.9075
-20 -17 -27 5.1305 3.8498
-20 -17 -25 -3.2352 -2.1344
-20 -17 -23 -5.7645 -10.1739
-20 -17 -21 -2.5286 -6.2512
-20 -17 -19 5.7069 3.7092
-20 -17 -17 5.3818 23.5440
-20 -17 -15 -12.3417 -25.3036
-20 -17 -13 21.5256 -32.6677
-20 -17 -11 3.7016 13.5645
-20 -17 -9 33.3268 -84.2709
-20 -17 -7 10.0035 -3.8317
-20 -17 -5 -67.9707 61.8059
-20 -17 -3 -54.1103 47.9442
-20 -17 -1 -10.2592 122.6858
-20 -16 -38 -20.5691 -5.1632
-20 -16 -36 2.6278 -8.7975
-20 -16 -34 -8.4305 -15.4200
-20 -16 -32 1.5767 1.1341
-20 -16 -30 -10.1857 4.3069
-20 -16 -28 -5.1437 3.9283
-20 -16 -26 -13.2567 -5.8625
-20 -16 -24 -7.2385 -15.4769
-20 -16 -22 -13.3605 -3.1451
-20 -16 -20 -7.4514 8.5210
-20 -16 -18 22.1380 5.9698
-20 -16 -16 28.1492 5.1972
-20 -16 -14 -32.0957 -5.5934
-20 -16 -12 -36.5109 12.7506
-20 -16 -10 37.5053 -11.3216
-20 -16 -8 16.6054 -29.0815
-20 -16 -6 12.2346 -67.4102
-20 -16 -4 11.6572 -14.0276
-20 -16 -2 -49.6526 -102.7104
-20 -15 -39 9.7421 10.1276
-20 -15 -37 3.7903 -1.2825
-20 -15 -35 0.0589 20.7725
-20 -15 -33 4.5206 -4.3651
-20 -15 -31 18.7074 -14.8133
-20 -15 -29 -1.2618 8.0253
-20 -15 -27 -0.5338 7.5154
-20 -15 -25 -4.5414 13.4603
-20 -15 -23 4.9655 2.2610
-20 -15 -21 -12.9453 -3.6897
-20 -15 -19 5.6301 -8.5094
-20 -15 -17 -20.3441 20.3784
-20 -15 -15 18.9604 8.0914
-20 -15 -13 -6.8379 17.8153
-20 -15 -11 18.2638 20.6878
-20 -15 -9 3.7517 4.2359
-20 -15 -7 -45.3690 -46.4065
-20 -15 -5 4.3118 -30.3625
-20 -15 -3 8.1096 39.9236
-20 -15 -1 -28.6307 4.0613
-20 -14 -40 -0.6199 3.0253
-20 -14 -38 3.5218 -19.5122
-20 -14 -36 17.4824 5.1515
-20 -14 -34 6.7325 -0.4479
-20 -14 -32 2.7105 0.7177
-20 -14 -30 2.8040 0.4702
-20 -14 -28 5.1797 9.0286
-20 -14 -26 -10.7087 -16.2424
-20 -14 -24 0.9530 -9.3562
-20 -14 -22 -10.1991 -22.5404
-20 -14 -20 -12.2883 -1.8840
-20 -14 -18 29.9349 19.3267
-20 -14 -16 5.6491 -3.6189
-20 -14 -14 23.7134 -41.4958
-20 -14 -12 -24.8259 4.9796
-20 -14 -10 45.1279 -33.9184
-20 -14 -8 -9.1969 -19.7821
-20 -14 -6 -0.4064 -27.3487
-20 -14 -4 137.0494 39.4122
-20 -14 -2 -94.2702 4.8135
-20 -13 -39 -2.5656 15.6289
-20 -13 -37 -9.5929 -16.4565
-20 -13 -35 -6.1969 12.7970
-20 -13 -33 -8.6187 0.8466
-20 -13 -31 10.1052 0.2685
-20 -13 -29 -8.0100 -6.0922
-20 -13 -27 9.9973 5.5511
-20 -13 -25 11.6707 -6.7678
-20 -13 -23 7.3814 -19.2893
-20 -13 -21 15.9535 -1.9059
-20 -13 -19 5.4790 -17.4475
-20 -13 -17 14.4629 -18.0400
-20 -13 -15 15.2019 -10.7255
-20 -13 -13 39.0970 12.0005
-20 -13 -11 -35.2111 59.8966
-20 -13 -9 9.1800 -57.1693
-20 -13 -7 -22.1654 6.9920
-20 -13 -5 116.5509 87.1216
-20 -13 -3 69.1609 -42.5279
-20 -13 -1 72.4540 35.1170
-20 -12 -40 -2.8128 -22.8786
-20 -12 -38 -1.5725 24.8050
-20 -12 -36 -2.3651 -1.7258
-20 -12 -34 8.7548 -8.8667
-20 -12 -32 -10.5136 -1.1770
-20 -12 -30 4.0655 2.6142
-20 -12 -28 9.3854 5.3590
-20 -12 -26 -12.4963 6.7372
-20 -12 -24 3.0373 -5.0639
-20 -12 -22 -20.6176 2.6089
-20 -12 -20 1.1276 24.9982
-20 -12 -18 -13.9490 29.2764
-20 -12 -16 -6.1742 -9.8382
-20 -12 -14 -43.1526 35.3683
-20 -12 -12 -1.8508 -2.6261
-20 -12 -10 -49.4225 12.5064
-20 -12 -8 -34.8503 -16.5984
-20 -12 -6 56.9178 63.4209
-20 -12 -4 71.3292 42.1005
-20 -12 -2 51.1423 12.1719
-20 -11 -41 -11.5949 12.8033
-20 -11 -39 -9.3495 -22.6583
-20 -11 -37 -12.4236 6.1722
-20 -11 -35 21.9898 0.8308
-20 -11 -33 -10.4756 -9.9765
-20 -11 -31 -12.7409 14.6100
-20 -11 -29 -14.5483 -1.6958
-20 -11 -27 8.7337 12.2245
-20 -11 -25 -7.4882 -9.8515
-20 -11 -23 -8.9166 7.4424
-20 -11 -21 -1.2483 0.3646
-20 -11 -19 -16.5486 -15.0073
-20 -11 -17 -13.7155 5.4345
-20 -11 -15 -11.7076 -10.0610
-20 -11 -13 -8.3575 5.3209
-20 -11 -11 -26.5372 -43.2955
-20 -11 -9 26.4533 -17.5088
-20 -11 -7 2.5756 49.2972
-20 -11 -5 -72.5358 -81.8322
-20 -11 -3 8.7988 -108.6234
-20 -11 -1 35.9360 -86.0542
-20 -10 -40 14.2140 -19.7507
-20 -10 -38 -1.3928 -0.5704
-20 -10 -36 -12.7013 17.6674
-20 -10 -34 0.1771 2.9015
-20 -10 -32 3.5805 -0.3986
-20 -10 -30 16.4179 -3.2023
-20 -10 -28 -4.0939 -6.3623
-20 -10 -26 14.0414 0.9350
-20 -10 -24 -7.8435 -1.9494
-20 -10 -22 14.7485 -8.5930
-20 -10 -20 -5.7971 -3.2145
-20 -10 -18 -15.4768 -30.9738
-20 -10 -16 -31.0418 9.0881
-20 -10 -14 8.3798 -35.5117
-20 -10 -12 22.4672 5.4678
-20 -10 -10 12.7103 -11.1723
-20 -10 -8 10.6194 19.8045
-20 -10 -6 -18.6004 -28.0828
-20 -10 -4 -37.4691 -12.5820
-20 -10 -2 10.8659 105.4594
-20 -9 -41 19.5070 21.3030
-20 -9 -39 12.2383 -6.5275
-20 -9 -37 3.8628 -2.7490
-20 -9 -35 -24.8651 -5.1055
-20 -9 -33 -4.3836 7.6352
-20 -9 -31 -11.8200 13.7492
-20 -9 -29 -1.0883 0.4420
-20 -9 -27 -11.9740 -4.1322
-20 -9 -25 7.8791 -8.0108
-20 -9 -23 -10.9093 -3.5861
-20 -9 -21 -11.4961 5.8043
-20 -9 -19 0.1234 16.6222
-20 -9 -17 -17.6254 23.4948
-20 -9 -15 -7.7104 12.2475
-20 -9 -13 11.0408 0.5001
-20 -9 -11 -3.2182 38.4806
-20 -9 -9 -35.4335 37.6456
-20 -9 -7 66.1050 -7.6980
-20 -9 -5 68.3838 9.2331
-20 -9 -3 -5.0237 74.8459
-20 -9 -1 97.6259 -56.0878
-20 -8 -40 -3.8458 1.4416
-20 -8 -38 3.2155 19.8147
-20 -8 -36 -0.7164 -2.1187
-20 -8 -34 -1.0025 5.4977
-20 -8 -32 3.5016 -4.2619
-20 -8 -30 0.8520 4.5737
-20 -8 -28 -8.8843 3.9702
-20 -8 -26 12.4673 -2.4068
-20 -8 -24 10.3631 4.1889
-20 -8 -22 -20.0862 -12.6435
-20 -8 -20 -3.2512 11.3417
-20 -8 -18 -18.8361 28.1941
-20 -8 -16 -21.4235 -3.1764
-20 -8 -14 -20.3956 -45.3894
-20 -8 -12 -6.4903 -10.6732
-20 -8 -10 25.0035 -17.8900
-20 -8 -8 48.2649 29.1497
-20 -8 -6 -35.8886 10.6723
-20 -8 -4 -65.3226 -70.2265
-20 -8 -2 27.5148 5.2149
-20 -7 -41 12.6005 -15.1849
-20 -7 -39 -11.1287 -13.0782
-20 -7 -37 -14.7708 1.0580
-20 -7 -35 3.8681 8.8156
-20 -7 -33 -10.7351 14.5859
-20 -7 -31 -0.2584 -17.7620
-20 -7 -29 -10.2043 7.8968
-20 -7 -27 -7.0939 -1.8242
-20 -7 -25 18.2720 11.5490
-20 -7 -23 -0.8897 8.4656
-20 -7 -21 -2.8500 -10.1270
-20 -7 -19 -40.1143 -3.7423
-20 -7 -17 2.2539 -12.2737
-20 -7 -15 27.7816 -6.1472
-20 -7 -13 21.8799 7.6884
-20 -7 -11 52.4479 17.8903
-20 -7 -9 66.6780 -64.3812
-20 -7 -7 18.4447 -14.1939
-20 -7 -5 111.0756 100.7481
-20 -7 -3 4.4112 -24.0372
-20 -7 -1 -31.5224 5.0823
-20 -6 -40 -4.7617 0.8921
-20 -6 -38 2.5049 -2.8986
-20 -6 -36 -3.4812 2.2562
-20 -6 -34 -0.2496 -2.4096
-20 -6 -32 16.2143 14.7444
-20 -6 -30 8.8425 -14.2216
-20 -6 -28 -18.4898 -3.2225
-20 -6 -26 -8.1292 -7.6098
-20 -6 -24 0.9824 -2.8512
-20 -6 -22 10.6676 -10.5128
-20 -6 -20 4.3312 -16.2566
-20 -6 -18 -6.2689 46.2897
-20 -6 -16 -12.0645 16.4212
-20 -6 -14 8.3332 60.9804
-20 -6 -12 12.2866 4.5382
-20 -6 -10 -3.0883 -26.0206
-20 -6 -8 -50.7362 -17.5131
-20 -6 -6 -16.8107 20.1027
-20 -6 -4 140.9084 95.2541
-20 -6 -2 -32.9999 -30.9930
-20 -5 -41 16.6822 -4.5799
-20 -5 -39 -2.0516 -1.0180
-20 -5 -37 9.2000 17.3246
-20 -5 -35 -1.1581 -0.2591
-20 -5 -33 -22.4103 -0.6101
-20 -5 -31 10.1813 0.7329
-20 -5 -29 -5.3689 -4.6149
-20 -5 -27 -4.9767 6.8180
-20 -5 -25 2.0545 -9.8763
-20 -5 -23 9.4123 19.5237
-20 -5 -21 -22.6192 1.5189
-20 -5 -19 -5.1012 1.8753
-20 -5 -17 -6.6285 -13.7086
-20 -5 -15 -34.5133 -31.5284
-20 -5 -13 8.6677 -16.7032
-20 -5 -11 -75.7999 59.0572
-20 -5 -9 -32.4501 -8.1345
-20 -5 -7 -20.9610 22.7414
-20 -5 -5 107.7341 -0.9645
-20 -5 -3 -31.9486 -145.5006
-20 -5 -1 43.1409 -129.6933
-20 -4 -42 0.8752 1.2120
-20 -4 -40 3.9001 12.1965
-20 -4 -38 6.3122 -0.0134
-20 -4 -36 -1.2937 -3.8706
-20 -4 -34 0.5673 0.7177
-20 -4 -32 -2.5292 5.9265
-20 -4 -30 3.4094 -1.3128
-20 -4 -28 -2.6613 -13.9380
-20 -4 -26 4.7903 -8.6007
-20 -4 -24 -1.1633 11.3936
-20 -4 -22 -1.1126 6.4853
-20 -4 -20 -5.9478 -9.9204
-20 -4 -18 24.0504 31.8133
-20 -4 -16 8.1406 -69.4151
-20 -4 -14 71.7314 42.5384
-20 -4 -12 -2.0096 -16.5701
-20 -4 -10 -37.6941 -41.8248
-20 -4 -8 -32.2085 13.9321
-20 -4 -6 -1.6460 -39.0448
-20 -4 -4 86.5239 68.5030
-20 -4 -2 -16.7614 57.5635
-20 -3 -41 14.0229 9.1847
-20 -3 -39 -4.6327 23.6215
-20 -3 -37 5.3573 -0.1422
-20 -3 -35 -5.8372 -4.6096
-20 -3 -33 2.4735 -2.6299
-20 -3 -31 22.4908 -8.2088
-20 -3 -29 1.9503 1.4479
-20 -3 -27 -4.3006 -13.5564
-20 -3 -25 -29.9060 -11.0528
-20 -3 -23 17.0930 -1.6887
-20 -3 -21 6.4549 -3.2133
-20 -3 -19 -2.3429 -8.4096
-20 -3 -17 -9.2403 -6.7368
-20 -3 -15 -14.8303 1.2316
-20 -3 -13 -36.2275 23.9646
-20 -3 -11 -18.7154 3.5077
-20 -3 -9 21.8790 -49.9524
-20 -3 -7 -22.8243 65.3574
-20 -3 -5 26.7699 -64.4541
-20 -3 -3 9.0489 -34.2851
-20 -3 -1 -64.5536 -54.5525
-20 -2 -42 -1.7517 0.5864
-20 -2 -40 -19.5938 -17.8909
-20 -2 -38 -0.4132 1.3147
-20 -2 -36 -3.2164 1.7275
-20 -2 -34 9.5148 3.7333
-20 -2 -32 6.0199 0.8903
-20 -2 -30 9.9983 7.4594
-20 -2 -28 12.4189 2.4941
-20 -2 -26 11.5834 0.8586
-20 -2 -24 -3.0872 5.9668
-20 -2 -22 -6.3913 30.5204
-20 -2 -20 2.2736 8.6818
-20 -2 -18 -6.0917 -23.5943
-20 -2 -16 -11.3078 -4.5229
-20 -2 -14 9.4453 -53.7745
-20 -2 -12 -14.4247 -4.0720
-20 -2 -10 -4.1166 -16.1394
-20 -2 -8 49.9347 35.6923
-20 -2 -6 -9.8590 31.2163
-20 -2 -4 39.4506 -27.2841
-20 -2 -2 -26.7745 -20.6664
-20 -1 -41 21.9883 10.1619
-20 -1 -39 17.2299 5.2931
-20 -1 -37 -0.3407 -0.0372
-20 -1 -35 11.5327 -12.5378
-20 -1 -33 0.1239 -0.0661
-20 -1 -31 -17.5539 -4.6454
-20 -1 -29 5.7399 13.3242
-20 -1 -27 -3.2992 -0.3949
-20 -1 -25 5.4458 -9.0390
-20 -1 -23 27.0609 -6.6126
-20 -1 -21 1.8612 -13.0106
-20 -1 -19 -9.9449 11.3793
-20 -1 -17 -43.6221 12.0399
-20 -1 -15 -24.1640 35.1846
-20 -1 -13 -1.8620 39.5501
-20 -1 -11 -0.2916 5.0828
-20 -1 -9 27.1336 30.9992
-20 -1 -7 27.7051 -0.6197
-20 -1 -5 10.5566 55.6210
-20 -1 -3 43.2424 -72.1548
-20 -1 -1 44.6739 -26.9077
-19 -18 -39 -7.5662 -22.6101
-19 -18 -37 -8.6596 14.3514
-19 -18 -35 -4.3294 -1.1613
-19 -18 -33 -12.5509 6.0603
-19 -18 -31 -4.0168 0.2883
-19 -18 -29 0.8349 -12.2222
-19 -18 -27 5.4688 9.1671
-19 -18 -25 3.0661 27.0172
-19 -18 -23 -13.9772 1.7739
-19 -18 -21 1.9492 11.2362
-19 -18 -19 12.3087 -5.7968
-19 -18 -17 10.5774 -5.1679
-19 -18 -15 -32.8658 27.9240
-19 -18 -13 -5.2382 -25.4256
-19 -18 -11 51.9785 -25.4122
-19 -18 -9 -40.8511 -19.4085
-19 -18 -7 60.4662 -61.3596
-19 -18 -5 64.3262 18.5203
-19 -18 -3 67.8476 -48.9105
-19 -18 -1 21.6069 -19.6008
-19 -17 -38 3.4704 1.9830
-19 -17 -36 -12.3853 -1.2550
-19 -17 -34 2.9867 -0.3214
-19 -17 -32 -7.4590 0.5608
-19 -17 -30 -17.0145 -3.2605
-19 -17 -28 -11.1585 -1.2941
-19 -17 -26 -2.0236 17.7901
-19 -17 -24 11.9095 19.4214
-19 -17 -22 -5.6766 -6.2623
-19 -17 -20 -27.0803 13.4301
-19 -17 -18 8.4164 4.0445
-19 -17 -16 6.9523 -9.0857
-19 -17 -14 9.0442 -5.1987
-19 -17 -12 6.8854 -49.8588
-19 -17 -10 2.9395 3.1772
-19 -17 -8 48.3891 -61.1270
-19 -17 -6 8.8192 -2.7220
-19 -17 -4 -2.8217 -127.2554
-19 -17 -2 17.0422 -19.5803
-19 -16 -39 -15.8040 3.5105
-19 -16 -37 21.8186 -15.6162
-19 -16 -35 10.5773 -11.7267
-19 -16 -33 -1.0492 15.7332
-19 -16 -31 9.3253 -0.8511
-19 -16 -29 6.1257 -6.1937
-19 -16 -27 -1.7471 3.3232
-19 -16 -25 -7.0786 2.1522
-19 -16 -23 8.7823 15.9546
-19 -16 -21 -2.3171 8.3058
-19 -16 -19 17.5550 0.2378
-19 -16 -17 19.0686 -9.7441
-19 -16 -15 10.1298 -14.0239
-19 -16 -13 33.5232 0.7310
-19 -16 -11 9.7442 22.7267
-19 -16 -9 -61.7514 -27.4832
-19 -16 -7 -27.1224 46.7305
-19 -16 -5 -1.2530 10.1032
-19 -16 -3 -15.2590 12.1309
-19 -16 -1 64.1078 -80.8369
-19 -15 -40 -3.1863 -0.3325
-19 -15 -38 -22.4731 2.5736
-19 -15 -36 -9.5670 -7.2247
-19 -15 -34 -0.2431 -2.8084
-19 -15 -32 -3.5628 -1.4797
-19 -15 -30 19.2870 7.3523
-19 -15 -28 6.2405 4.5409
-19 -15 -26 -12.2553 -7.4482
-19 -15 -24 10.7478 -26.5793
-19 -15 -22 10.5988 21.5151
-19 -15 -20 25.3941 -13.8348
-19 -15 -18 -4.4129 0.7595
-19 -15 -16 -26.1316 -10.5374
-19 -15 -14 3.0602 -0.0759
-19 -15 -12 1.1958 32.4278
-19 -15 -10 -18.2142 -7.6227
-19 -15 -8 10.2940 16.2194
-19 -15 -6 -18.1562 -2.7516
-19 -15 -4 96.5943 87.8024
-19 -15 -2 110.1882 -43.9020
-19 -14 -39 -0.5416 -0.0579
-19 -14 -37 9.6805 12.4467
-19 -14 -35 -6.6729 10.9051
-19 -14 -33 4.4070 0.4679
-19 -14 -31 -10.0470 -0.9257
-19 -14 -29 13.5323 -3.0849
-19 -14 -27 -7.3763 7.8216
-19 -14 -25 -4.3722 -1.8224
-19 -14 -23 1.3785 -4.9568
-19 -14 -21 -6.3511 4.6840
-19 -14 -19 -6.7619 -8.7369
-19 -14 -17 8.1695 -16.6079
-19 -14 -15 30.8554 -14.6819
-19 -14 -13 14.7740 28.6700
-19 -14 -11 2.9867 3.3497
-19 -14 -9 -50.8396 -2.9703
-19 -14 -7 -1.9626 5.9152
-19 -14 -5 -56.4922 84.3194
-19 -14 -3 -22.5272 -40.1964
-19 -14 -1 97.7063 -82.0303
-19 -13 -40 25.1270 -0.5759
-19 -13 -38 -11.2641 -6.2377
-19 -13 -36 23.1623 5.7868
-19 -13 -34 0.2508 0.5261
-19 -13 -32 -4.1830 -17.5149
-19 -13 -30 3.0608 3.1516
-19 -13 -28 8.1206 12.2943
-19 -13 -26 0.9878 -8.6486
-19 -13 -24 -7.5055 -10.6841
-19 -13 -22 27.2442 5.4966
-19 -13 -20 -13.2883 -1.8332
-19 -13 -18 -8.1742 16.9717
-19 -13 -16 -27.8079 25.5961
-19 -13 -14 0.1167 -2.0728
-19 -13 -12 49.5348 -58.7982
-19 -13 -10 -14.9050 -47.3474
-19 -13 -8 46.4558 -43.5152
-19 -13 -6 27.7636 -36.4848
-19 -13 -4 75.6496 -76.3402
-19 -13 -2 50.3047 141.9950
-19 -12 -41 -1.3063 -2.8942
-19 -12 -39 -1.5115 -0.2800
-19 -12 -37 17.0780 12.0331
-19 -12 -35 8.1984 -0.2269
-19 -12 -33 -2.9590 -1.7686
-19 -12 -31 -16.7540 2.7877
-19 -12 -29 -5.8391 1.3298
-19 -12 -27 -3.3921 4.7068
-19 -12 -25 -2.4846 -1.5323
-19 -12 -23 5.6340 -0.7913
-19 -12 -21 6.0407 2.2487
-19 -12 -19 15.7390 -0.9622
-19 -12 -17 -17.2011 -9.2890
-19 -12 -15 23.8870 21.5518
-19 -12 -13 1.8126 -1.9281
-19 -12 -11 36.8519 15.8425
-19 -12 -9 -9.0998 -51.7749
-19 -12 -7 -19.5233 26.8017
-19 -12 -5 -18.1508 9.0576
-19 -12 -3 93.5401 26.4319
-19 -12 -1 -29.1102 -66.6427
-19 -11 -40 13.5621 -21.9541
-19 -11 -38 2.1979 10.0459
-19 -11 -36 1.8138 -0.7187
-19 -11 -34 0.5728 4.3803
-19 -11 -32 3.2668 -3.0344
-19 -11 -30 -0.7619 -2.3128
-19 -11 -28 0.9183 3.6519
-19 -11 -26 -6.8797 -1.2580
-19 -11 -24 4.5791 7.3433
-19 -11 -22 16.4565 -3.9708
-19 -11 -20 -30.2854 5.8423
-19 -11 -18 -15.8879 10.6625
-19 -11 -16 47.8270 13.5325
-19 -11 -14 7.5694 16.8331
-19 -11 -12 -84.1470 13.9602
-19 -11 -10 2.4630 34.2876
-19 -11 -8 57.6626 -4.1138
-19 -11 -6 34.8428 -45.5986
-19 -11 -4 -15.6553 25.6539
-19 -11 -2 22.3474 -73.1903
-19 -10 -41 5.1743 -12.1999
-19 -10 -39 15.2140 13.1459
-19 -10 -37 -2.4366 -3.6967
-19 -10 -35 -11.8636 -1.6087
-19 -10 -33 1.3384 20.7130
-19 -10 -31 -19.5951 -5.6917
-19 -10 -29 7.5854 11.5871
-19 -10 -27 6.0775 -0.6661
-19 -10 -25 1.1160 -7.9067
-19 -10 -23 7.0620 1.9675
-19 -10 -21 -4.2337 5.8225
-19 -10 -19 5.9352 -17.2512
-19 -10 -17 5.4364 2.4302
-19 -10 -15 11.0801 -5.2580
-19 -10 -13 -6.7099 -33.4544
-19 -10 -11 -1.9717 -43.5933
-19 -10 -9 -32.3212 44.8701
-19 -10 -7 82.1612 6.4415
-19 -10 -5 -30.1660 -25.6869
-19 -10 -3 -145.9647 -13.6635
-19 -10 -1 41.1210 102.3658
-19 -9 -40 -15.9636 -2.2457
-19 -9 -38 1.4193 -1.4224
-19 -9 -36 -6.2141 7.1655
-19 -9 -34 7.4532 -2.8919
-19 -9 -32 7.4475 -17.8870
-19 -9 -30 -2.4432 -3.7256
-19 -9 -28 4.8225 13.7180
-19 -9 -26 -7.5156 -4.6136
-19 -9 -24 -4.9667 0.4684
-19 -9 -22 -12.0899 2.8085
-19 -9 -20 -3.0842 17.6916
-19 -9 -18 -18.1997 -45.8405
-19 -9 -16 32.8365 -24.6720
-19 -9 -14 20.3766 10.8637
-19 -9 -12 -40.7922 29.7150
-19 -9 -10 10.4505 26.8442
-19 -9 -8 36.9560 31.7253
-19 -9 -6 43.4404 -10.6804
-19 -9 -4 -62.6648 -34.8617
-19 -9 -2 -33.4245 -37.2216
-19 -8 -41 -17.0449 -4.9497
-19 -8 -39 11.0910 10.5420
-19 -8 -37 -4.0080 19.0871
-19 -8 -35 7.6197 -11.9598
-19 -8 -33 -2.9028 -0.2935
-19 -8 -31 5.9084 -8.8111
-19 -8 -29 8.5353 27.3642
-19 -8 -27 -3.8213 0.4692
-19 -8 -25 -2.6296 -9.5194
-19 -8 -23 -3.1345 -6.2430
-19 -8 -21 5.1667 10.2987
-19 -8 -19 2.6921 7.9011
-19 -8 -17 14.3195 30.1915
-19 -8 -15 -46.2563 67.1566
-19 -8 -13 31.1551 15.7922
-19 -8 -11 -46.7412 34.7019
-19 -8 -9 -15.2264 34.0525
-19 -8 -7 59.5138 1.0484
-19 -8 -5 131.6847 20.4972
-19 -8 -3 77.5840 30.2014
-19 -8 -1 122.9415 105.4843
-19 -7 -42 13.4130 3.7890
-19 -7 -40 1.4826 3.3112
-19 -7 -38 -19.0090 -5.4109
-19 -7 -36 -21.0653 -10.6482
-19 -7 -34 0.0760 5.0891
-19 -7 -32 21.4682 -11.6463
-19 -7 -30 -14.0985 -15.5556
-19 -7 -28 -2.2392 12.9061
-19 -7 -26 8.4581 -9.0569
-19 -7 -24 22.5567 4.0444
-19 -7 -22 -29.0372 6.4028
-19 -7 -20 -9.2402 -12.8820
-19 -7 -18 -1.9896 -14.1324
-19 -7 -16 0.2906 -79.3961
-19 -7 -14 -12.9963 -15.3534
-19 -7 -12 4.0280 14.3469
-19 -7 -10 12.8327 100.7228
-19 -7 -8 53.7410 19.8724
-19 -7 -6 153.0315 92.3535
-19 -7 -4 38.6450 -43.9922
-19 -7 -2 -75.2432 -50.2488
-19 -6 -41 3.8300 -2.1239
-19 -6 -39 13.9498 9.7647
-19 -6 -37 -9.5172 0.1836
-19 -6 -35 -15.1109 -7.0115
-19 -6 -33 13.5068 7.0715
-19 -6 -31 5.0123 -14.3352
-19 -6 -29 -5.9276 -10.9505
-19 -6 -27 -9.1034 26.6124
-19 -6 -25 10.8201 -0.0850
-19 -6 -23 1.6431 0.4639
-19 -6 -21 8.8458 -14.0404
-19 -6 -19 13.4688 -17.5319
-19 -6 -17 -15.9327 6.1551
-19 -6 -15 -24.0005 9.6794
-19 -6 -13 2.2224 32.7980
-19 -6 -11 -21.6243 28.3481
-19 -6 -9 -121.7494 -9.8650
-19 -6 -7 -9.7448 -109.2304
-19 -6 -5 99.3830 49.1358
-19 -6 -3 69.8755 -41.0321
-19 -6 -1 19.2226 109.9143
-19 -5 -42 1.0471 -3.3136
-19 -5 -40 11.9901 -2.6650
-19 -5 -38 2.0480 -2.7962
-19 -5 -36 -14.7550 11.2021
-19 -5 -34 1.8292 1.1056
-19 -5 -32 -5.9207 1.8609
-19 -5 -30 -1.0846 10.2130
-19 -5 -28 -1.0244 -3.2823
-19 -5 -26 9.0341 6.7600
-19 -5 -24 3.8827 6.7898
-19 -5 -22 7.8576 8.6393
-19 -5 -20 17.4552 21.2927
-19 -5 -18 12.0730 -2.6381
-19 -5 -16 -60.4784 23.0351
-19 -5 -14 0.7538 -21.7717
-19 -5 -12 51.7694 -31.3381
-19 -5 -10 -21.9685 7.3876
-19 -5 -8 46.5243 16.1112
-19 -5 -6 12.1851 28.8998
-19 -5 -4 10.8652 9.1611
-19 -5 -2 -63.8618 -26.9295
-19 -4 -41 -5.4936 23.7086
-19 -4 -39 -3.1437 -0.2045
-19 -4 -37 -6.8997 -9.5451
-19 -4 -35 2.5718 -1.9528
-19 -4 -33 -10.7859 16.5250
-19 -4 -31 -8.7254 13.0756
-19 -4 -29 7.2469 -7.7469
-19 -4 -27 8.3395 -13.0412
-19 -4 -25 -10.8477 -23.6452
-19 -4 -23 3.2212 8.5912
-19 -4 -21 23.6096 -8.2126
-19 -4 -19 -0.3766 3.3388
-19 -4 -17 78.7030 -4.9472
-19 -4 -15 40.5824 -59.8075
-19 -4 -13 -5.5552 17.4427
-19 -4 -11 3.7612 -70.7078
-19 -4 -9 -85.7343 55.3900
-19 -4 -7 55.2268 21.8891
-19 -4 -5 -12.9224 -17.7107
-19 -4 -3 11.1522 8.5269
-19 -4 -1 -71.3799 16.9134
-19 -3 -42 -20.3969 -5.6087
-19 -3 -40 9.6512 25.7501
-19 -3 -38 -13.1667 -12.6468
-19 -3 -36 -4.1714 -0.8021
-19 -3 -34 6.3210 -11.1754
-19 -3 -32 12.7271 11.6209
-19 -3 -30 -18.0746 -2.5898
-19 -3 -28 -3.1695 -1.2529
-19 -3 -26 3.6336 8.6772
-19 -3 -24 -3.9732 -17.7375
-19 -3 -22 -6.7265 -0.1264
-19 -3 -20 4.6120 9.5579
-19 -3 -18 32.7336 45.0192
-19 -3 -16 -4.0808 62.9190
-19 -3 -14 -44.2491 -21.3392
-19 -3 -12 0.1890 -25.2259
-19 -3 -10 -5.1761 -16.3705
-19 -3 -8 3.3362 -13.5185
-19 -3 -6 2.9323 -72.7209
-19 -3 -4 -43.6699 17.1192
-19 -3 -2 24.7583 36.9798
-19 -2 -41 -1.6854 15.6510
-19 -2 -39 -6.0655 0.2496
-19 -2 -37 14.3854 12.1875
-19 -2 -35 -5.8900 2.3304
-19 -2 -33 -5.4804 -14.0670
-19 -2 -31 9.4828 2.6273
-19 -2 -29 -21.3479 -4.4052
-19 -2 -27 1.8288 15.4573
-19 -2 -25 -0.2058 10.4335
-19 -2 -23 16.5870 -0.8697
-19 -2 -21 -11.2369 -4.7727
-19 -2 -19 -12.0714 -2.2702
-19 -2 -17 13.0264 -7.5350
-19 -2 -15 -21.2119 12.9232
-19 -2 -13 -49.5012 -6.1256
-19 -2 -11 40.0916 4.2538
-19 -2 -9 17.6314 -45.8010
-19 -2 -7 13.6086 -32.6658
-19 -2 -5 -54.1838 -37.5785
-19 -2 -3 15.7974 -61.6789
-19 -2 -1 82.3919 0.2519
-19 -1 -42 -4.7582 17.4032
-19 -1 -40 5.6527 -17.8641
-19 -1 -38 -8.1027 -26.8498
-19 -1 -36 18.5290 -8.3893
-19 -1 -34 5.3503 -13.6389
-19 -1 -32 -6.9922 13.5519
-19 -1 -30 10.3271 -2.9592
-19 -1 -28 1.3743 -3.8030
-19 -1 -26 9.1671 -6.1705
-19 -1 -24 -12.9874 -19.5494
-19 -1 -22 -11.2143 -12.4566
-19 -1 -20 0.4153 21.0345
-19 -1 -18 17.3391 -2.3790
-19 -1 -16 -40.7191 26.7583
-19 -1 -14 38.1506 -2.4700
-19 -1 -12 52.8563 -42.9237
-19 -1 -10 76.0461 -34.9208
-19 -1 -8 16.9614 52.4824
-19 -1 -6 -76.6196 53.9721
-19 -1 -4 -55.0943 49.6584
-19 -1 -2 23.6525 -58.0397
-18 -17 -39 -3.5352 5.3205
-18 -17 -37 -21.4664 -11.4071
-18 -17 -35 7.3712 12.6200
-18 -17 -33 2.0995 0.5710
-18 -17 -31 2.0128 -19.3267
-18 -17 -29 1.3749 -0.3396
-18 -17 -27 2.9068 7.6025
-18 -17 -25 11.5504 -1.4613
-18 -17 -23 -3.8151 5.6794
-18 -17 -21 -0.0626 -8.6255
-18 -17 -19 -3.0692 -13.3282
-18 -17 -17 -7.6245 12.2629
-18 -17 -15 1.1035 31.2810
-18 -17 -13 27.3228 -34.5872
-18 -17 -11 1.4230 -16.1209
-18 -17 -9 -52.8212 36.9025
-18 -17 -7 30.2551 35.1959
-18 -17 -5 -17.3855 35.0776
-18 -17 -3 -3.1248 19.4145
-18 -17 -1 31.9012 34.7469
-18 -16 -40 -8.9832 5.6225
-18 -16 -38 8.5667 -3.1748
-18 -16 -36 -8.4509 3.7854
-18 -16 -34 6.3842 1.7004
-18 -16 -32 1.0143 -0.8262
-18 -16 -30 12.7993 -2.9740
-18 -16 -28 -10.6138 4.7610
-18 -16 -26 8.1168 8.7395
-18 -16 -24 1.3994 -14.6393
-18 -16 -22 -8.8888 -31.8471
-18 -16 -20 -17.7424 -13.6542
-18 -16 -18 6.0472 -22.9358
-18 -16 -16 -13.4708 19.0047
-18 -16 -14 5.3265 11.3516
-18 -16 -12 3.3182 18.2938
-18 -16 -10 -30.0949 15.4928
-18 -16 -8 -29.4999 58.6981
-18 -16 -6 -18.1111 -81.0923
-18 -16 -4 6.5337 -31.3212
-18 -16 -2 28.7863 -93.7075
-18 -15 -39 24.2169 -22.4361
-18 -15 -37 14.4126 12.9976
-18 -15 -35 8.0106 11.5716
-18 -15 -33 2.5641 -5.5816
-18 -15 -31 2.5775 0.5891
-18 -15 -29 -0.9805 1.7019
-18 -15 -27 4.7498 -6.5101
-18 -15 -25 5.8719 -4.3324
-18 -15 -23 -8.7762 -7.6875
-18 -15 -21 -0.3048 -0.7968
-18 -15 -19 -1.0816 8.3546
-18 -15 -17 40.4122 -18.3532
-18 -15 -15 -2.1581 -42.9909
-18 -15 -13 5.3970 5.3318
-18 -15 -11 -16.3083 -33.5542
-18 -15 -9 26.3933 -12.2559
-18 -15 -7 36.7777 -9.9154
-18 -15 -5 -24.2553 -109.0672
-18 -15 -3 52.0524 -6.4956
-18 -15 -1 19.1870 93.0751
-18 -14 -40 6.9327 18.6306
-18 -14 -38 2.1548 -0.7140
-18 -14 -36 -2.3206 -2.1867
-18 -14 -34 19.8984 -10.4574
-18 -14 -32 -2.1141 -12.1556
-18 -14 -30 -16.7494 -9.7494
-18 -14 -28 2.9123 3.4705
-18 -14 -26 2.0072 -0.1163
-18 -14 -24 4.9587 12.3282
-18 -14 -22 -2.0720 -20.0071
-18 -14 -20 1.5953 3.2302
-18 -14 -18 22.1043 21.8249
-18 -14 -16 17.0401 17.7946
-18 -14 -14 36.9990 -19.6859
-18 -14 -12 -6.2568 3.9746
-18 -14 -10 36.5927 5.5177
-18 -14 -8 54.2642 1.0333
-18 -14 -6 25.4489 -68.5441
-18 -14 -4 67.4509 53.0677
-18 -14 -2 -30.0381 -139.3119
-18 -13 -41 -6.2075 -31.5757
-18 -13 -39 7.6092 11.2655
-18 -13 -37 2.2136 1.2525
-18 -13 -35 2.8502 -4.6741
-18 -13 -33 -2.5485 19.5256
-18 -13 -31 5.8524 -3.5677
-18 -13 -29 1.9223 -8.9370
-18 -13 -27 3.5285 -9.7222
-18 -13 -25 -0.7596 -15.2370
-18 -13 -23 5.1550 4.0516
-18 -13 -21 -12.5858 -4.5088
-18 -13 -19 -33.4030 15.6484
-18 -13 -17 31.4133 -11.2579
-18 -13 -15 -5.5308 -3.2926
-18 -13 -13 -37.3737 -26.1891
-18 -13 -11 40.4832 21.9659
-18 -13 -9 -7.7832 -26.0409
-18 -13 -7 -21.7693 -4.1856
-18 -13 -5 37.9212 -9.3124
-18 -13 -3 7.9949 -45.9638
-18 -13 -1 18.3590 -17.7873
-18 -12 -40 13.0492 6.9217
-18 -12 -38 18.0042 -4.4621
-18 -12 -36 -3.7637 -1.6965
-18 -12 -34 17.3649 -1.6152
-18 -12 -32 5.1986 2.4886
-18 -12 -30 -5.2477 -4.8072
-18 -12 -28 10.0927 -0.9932
-18 -12 -26 4.5294 1.9936
-18 -12 -24 12.9358 -3.0303
-18 -12 -22 14.0434 6.7306
-18 -12 -20 -17.0168 0.4026
-18 -12 -18 10.5007 -0.9377
-18 -12 -16 25.9664 -5.5092
-18 -12 -14 54.5481 14.4011
-18 -12 -12 -32.8497 -35.6002
-18 -12 -10 -47.4729 4.9657
-18 -12 -8 14.8278 36.4991
-18 -12 -6 -11.4975 58.8506
-18 -12 -4 -77.9473 -59.8848
-18 -12 -2 -128.3384 -10.1285
-18 -11 -41 15.7373 -14.6902
-18 -11 -39 -1.4299 8.1405
-18 -11 -37 3.1148 -14.0891
-18 -11 -35 1.5716 3.3197
-18 -11 -33 21.1861 6.2076
-18 -11 -31 -5.6494 25.5793
-18 -11 -29 -1.7504 -4.9365
-18 -11 -27 0.8885 -17.3790
-18 -11 -25 7.9693 -3.5124
-18 -11 -23 -1.8243 -8.4772
-18 -11 -21 -0.0395 9.8226
-18 -11 -19 -16.7691 2.5715
-18 -11 -17 25.7092 -40.4083
-18 -11 -15 -12.7280 -11.3578
-18 -11 -13 9.1228 -9.6890
-18 -11 -11 13.9900 -24.7163
-18 -11 -9 -37.4877 18.2401
-18 -11 -7 -71.8266 -16.4621
-18 -11 -5 5.5123 -63.3851
-18 -11 -3 49.8355 72.2352
-18 -11 -1 -46.0635 -60.5387
-18 -10 -42 -3.9681 -3.8252
-18 -10 -40 5.1553 24.4209
-18 -10 -38 -1.1845 -10.8896
-18 -10 -36 18.6506 12.8464
-18 -10 -34 0.8219 18.7670
-18 -10 -32 -3.7126 2.1242
-18 -10 -30 12.9952 -6.5613
-18 -10 -28 1.7472 -10.7423
-18 -10 -26 7.8536 -5.5267
-18 -10 -24 7.1639 -0.9703
-18 -10 -22 -3.1223 -16.9984
-18 -10 -20 7.6905 25.5075
-18 -10 -18 -25.3594 -17.1602
-18 -10 -16 -36.1080 -53.1043
-18 -10 -14 -19.0964 10.6289
-18 -10 -12 22.2491 -29.2620
-18 -10 -10 3.5936 34.7051
-18 -10 -8 49.8135 -13.0165
-18 -10 -6 44.2123 -20.6697
-18 -10 -4 140.7214 116.4908
-18 -10 -2 -84.7281 97.1021
-18 -9 -41 9.4068 0.7900
-18 -9 -39 -11.5716 7.1248
-18 -9 -37 -22.2421 -3.7659
-18 -9 -35 5.8398 14.4039
-18 -9 -33 5.3241 3.6520
-18 -9 -31 18.0289 3.9125
-18 -9 -29 20.8502 -2.5951
-18 -9 -27 0.6024 7.1559
-18 -9 -25 17.3675 5.1065
-18 -9 -23 9.7709 3.2368
-18 -9 -21 0.7597 -7.4774
-18 -9 -19 1.7684 32.3661
-18 -9 -17 -5.2702 -27.5734
-18 -9 -15 1.6823 -14.0068
-18 -9 -13 30.9109 -24.7532
-18 -9 -11 -24.5424 -12.2739
-18 -9 -9 -28.8844 94.4894
-18 -9 -7 -20.0533 -64.0655
-18 -9 -5 129.0736 -9.7109
-18 -9 -3 -149.2976 -39.1916
-18 -9 -1 -93.7831 114.4542
-18 -8 -42 0.4327 -2.6695
-18 -8 -40 17.7771 -13.3940
-18 -8 -38 -3.1683 20.2639
-18 -8 -36 -0.2173 -0.8036
-18 -8 -34 0.7435 -1.1446
-18 -8 -32 4.9756 3.8382
-18 -8 -30 -0.6305 -2.3910
-18 -8 -28 -8.4029 -10.9115
-18 -8 -26 -6.3923 -10.8760
-18 -8 -24 1.3115 -8.1281
-18 -8 -22 -2.4502 6.5157
-18 -8 -20 4.9387 -6.1254
-18 -8 -18 -27.9499 17.7318
-18 -8 -16 34.6060 16.8287
-18 -8 -14 14.3847 -37.7090
-18 -8 -12 -2.8086 -10.7543
-18 -8 -10 76.9362 42.3722
-18 -8 -8 0.6215 -11.3380
-18 -8 -6 -14.7507 -30.7589
-18 -8 -4 84.2026 100.0484
-18 -8 -2 70.5299 -22.5130
-18 -7 -41 4.1969 -10.6479
-18 -7 -39 7.1711 -10.3414
-18 -7 -37 0.3899 -0.0633
-18 -7 -35 -12.0475 6.7884
-18 -7 -33 7.1427 -14.2102
-18 -7 -31 -6.8520 14.6195
-18 -7 -29 4.7475 17.2711
-18 -7 -27 -13.5135 -8.5331
-18 -7 -25 9.1183 -7.9178
-18 -7 -23 -0.8638 -27.9899
-18 -7 -21 -1.4422 -0.8590
-18 -7 -19 19.7409 16.5907
-18 -7 -17 -0.9695 14.7384
-18 -7 -15 56.4485 62.2530
-18 -7 -13 -16.3865 12.4369
-18 -7 -11 -15.3761 -2.3510
-18 -7 -9 3.3765 -10.9352
-18 -7 -7 -0.3930 -5.9743
-18 -7 -5 12.5544 32.8448
-18 -7 -3 -45.1629 56.0605
-18 -7 -1 154.3542 6.6441
-18 -6 -42 0.7728 -1.7140
-18 -6 -40 -17.3771 -9.1408
-18 -6 -38 17.4406 -2.7730
-18 -6 -36 -0.8160 -0.9679
-18 -6 -34 -13.5553 15.4642
-18 -6 -32 -8.9501 -11.0250
-18 -6 -30 -3.3266 -4.5484
-18 -6 -28 -3.3139 -1.1673
-18 -6 -26 -3.5882 3.3923
-18 -6 -24 15.1446 -3.8605
-18 -6 -22 -21.2185 0.4137
-18 -6 -20 9.4596 -5.3241
-18 -6 -18 34.9365 8.4525
-18 -6 -16 -11.3300 -1.8448
-18 -6 -14 1.9050 -49.0811
-18 -6 -12 3.7663 -14.5235
-18 -6 -10 -25.6508 32.5528
-18 -6 -8 -86.5634 -5.0217
-18 -6 -6 8.5618 -47.3673
-18 -6 -4 18.2639 56.1112
-18 -6 -2 -43.7342 -43.8976
-18 -5 -41 -2.8556 1.6916
-18 -5 -39 -16.0914 -1.3292
-18 -5 -37 11.1259 13.6137
-18 -5 -35 15.4993 3.0439
-18 -5 -33 -15.7326 8.1026
-18 -5 -31 4.7539 1.6727
-18 -5 -29 -10.1715 -11.2720
-18 -5 -27 0.2599 -15.6253
-18 -5 -25 20.9613 3.5320
-18 -5 -23 -2.7666 -2.0795
-18 -5 -21 -0.7638 16.9694
-18 -5 -19 8.4846 24.8344
-18 -5 -17 -38.3830 40.8439
-18 -5 -15 17.7078 -24.8655
-18 -5 -13 21.4490 -12.4182
-18 -5 -11 32.1995 -16.0009
-18 -5 -9 -64.6915 -70.3072
-18 -5 -7 -6.6342 -12.3541
-18 -5 -5 8.7071 -53.4256
-18 -5 -3 72.4210 107.3020
-18 -5 -1 18.4019 46.3197
-18 -4 -42 0.8359 0.1887
-18 -4 -40 -14.2125 20.3308
-18 -4 -38 -5.2803 20.0291
-18 -4 -36 -9.4833 -13.7954
-18 -4 -34 -4.5949 -11.2644
-18 -4 -32 6.8254 -0.4068
-18 -4 -30 -6.5839 -15.2217
-18 -4 -28 -2.8414 5.0554
-18 -4 -26 6.4566 5.2429
-18 -4 -24 0.8894 -2.2951
-18 -4 -22 1.3575 -5.3392
-18 -4 -20 -5.7390 -3.3930
-18 -4 -18 11.7361 53.3180
-18 -4 -16 8.5006 14.8646
-18 -4 -14 32.5307 -46.5877
-18 -4 -12 -13.6401 20.9673
-18 -4 -10 36.3145 -21.9682
-18 -4 -8 88.6374 79.2348
-18 -4 -6 -32.0019 -43.9993
-18 -4 -4 1.5652 72.9500
-18 -4 -2 -28.7858 62.3425
-18 -3 -41 13.3628 1.9457
-18 -3 -39 -15.0919 -0.3387
-18 -3 -37 -8.7884 -1.7822
-18 -3 -35 7.4340 15.5080
-18 -3 -33 8.0481 12.1277
-18 -3 -31 -3.7379 16.1943
-18 -3 -29 3.9915 -11.0096
-18 -3 -27 4.0663 -2.6800
-18 -3 -25 12.1577 -5.2215
-18 -3 -23 5.8714 -21.4381
-18 -3 -21 -7.1492 -34.6156
-18 -3 -19 -41.6529 -33.9706
-18 -3 -17 -8.0443 -13.4382
-18 -3 -15 34.5415 28.2910
-18 -3 -13 123.3238 -55.6777
-18 -3 -11 -65.3358 64.3402
-18 -3 -9 19.3687 12.8850
-18 -3 -7 -79.1128 1.7726
-18 -3 -5 -8.5708 -82.8174
-18 -3 -3 -17.1558 -5.9541
-18 -3 -1 7.8594 -20.1999
-18 -2 -42 18.2631 14.5122
-18 -2 -40 8.2549 8.7610
-18 -2 -38 2.4589 -6.9645
-18 -2 -36 -3.1483 1.1842
-18 -2 -34 -1.9824 -7.7332
-18 -2 -32 -17.3617 -9.3896
-18 -2 -30 -0.1016 -3.6828
-18 -2 -28 2.2857 3.6573
-18 -2 -26 -0.1911 -0.1005
-18 -2 -24 5.6674 17.0837
-18 -2 -22 22.3899 6.0540
-18 -2 -20 9.6799 -8.8586
-18 -2 -18 3.5715 -20.6528
-18 -2 -16 -6.2737 37.0389
-18 -2 -14 -74.0980 18.9130
-18 -2 -12 -21.4237 -0.6462
-18 -2 -10 -3.2481 87.1286
-18 -2 -8 65.7230 -47.0223
-18 -2 -6 53.5774 79.6910
-18 -2 -4 41.1108 -13.2671
-18 -2 -2 23.4317 8.1983
-18 -1 -43 -25.0456 18.0829
-18 -1 -41 13.6237 -13.4367
-18 -1 -39 -0.8977 0.5169
-18 -1 -37 16.5663 -11.2738
-18 -1 -35 -0.0979 10.3021
-18 -1 -33 -1.0349 5.6700
-18 -1 -31 -8.0623 5.6083
-18 -1 -29 1.9192 8.0194
-18 -1 -27 -2.5635 1.3479
-18 -1 -25 8.1942 -1.6832
-18 -1 -23 11.5233 -7.4640
-18 -1 -21 -10.8751 -0.2935
-18 -1 -19 30.4494 10.8914
-18 -1 -17 88.1381 -28.7144
-18 -1 -15 -13.6852 -21.0653
-18 -1 -13 -7.4102 -9.7905
-18 -1 -11 -35.6226 -29.5367
-18 -1 -9 49.4718 -7.4485
-18 -1 -7 24.4523 62.5736
-18 -1 -5 76.6222 44.0597
-18 -1 -3 19.2184 -24.7468
-18 -1 -1 -1.9741 22.7462
-17 -16 -39 -9.5010 1.8610
-17 -16 -37 15.2192 4.7421
-17 -16 -35 -0.9336 -0.7244
-17 -16 -33 -0.8511 -0.9514
-17 -16 -31 -9.5721 -16.4615
-17 -16 -29 15.8134 6.1136
-17 -16 -27 0.9425 2.4024
-17 -16 -25 -4.6503 -5.0205
-17 -16 -23 6.2437 11.7311
-17 -16 -21 -3.5989 -10.2291
-17 -16 -19 10.4923 -2.0861
-17 -16 -17 -13.5822 7.6669
-17 -16 -15 -34.1042 16.1424
-17 -16 -13 10.1361 -15.3185
-17 -16 -11 17.9886 12.9437
-17 -16 -9 4.6891 20.5300
-17 -16 -7 -45.4536 35.9770
-17 -16 -5 103.7019 -19.3176
-17 -16 -3 52.3700 37.1390
-17 -16 -1 46.8947 -22.2305
-17 -15 -40 -7.2844 -21.3594
-17 -15 -38 4.7194 2.3197
-17 -15 -36 -2.5368 -1.1125
-17 -15 -34 -17.7363 9.4797
-17 -15 -32 -7.6522 -2.1336
-17 -15 -30 12.4678 5.4174
-17 -15 -28 14.7877 -4.7045
-17 -15 -26 -3.8731 -3.3490
-17 -15 -24 -27.1325 -12.7780
-17 -15 -22 -6.2478 -3.7212
-17 -15 -20 -18.3087 -13.9312
-17 -15 -18 -27.3680 -12.0004
-17 -15 -16 38.9842 -19.0564
-17 -15 -14 -23.4461 -22.5611
-17 -15 -12 -24.4685 -7.8427
-17 -15 -10 18.9811 0.4164
-17 -15 -8 -44.5839 -10.3116
-17 -15 -6 -1.1424 28.9984
-17 -15 -4 5.5795 -165.9490
-17 -15 -2 97.2647 92.1396
-17 -14 -41 12.8743 20.3845
-17 -14 -39 22.6941 -11.9038
-17 -14 -37 -0.8450 -4.4164
-17 -14 -35 15.8736 -8.2161
-17 -14 -33 -0.0997 -4.8213
-17 -14 -31 -0.7374 -9.0098
-17 -14 -29 3.8545 -0.8737
-17 -14 -27 12.2256 -4.9280
-17 -14 -25 11.4744 -6.6389
-17 -14 -23 0.8961 3.7185
-17 -14 -21 2.6452 8.3737
-17 -14 -19 22.1281 -33.6300
-17 -14 -17 -9.6843 -33.8974
-17 -14 -15 13.9338 26.2270
-17 -14 -13 0.1788 33.9271
-17 -14 -11 48.6353 -54.5662
-17 -14 -9 43.3384 58.9835
-17 -14 -7 -44.9330 37.8641
-17 -14 -5 -11.9052 -54.8168
-17 -14 -3 -18.4844 37.1782
-17 -14 -1 -23.0698 48.4937
-17 -13 -40 4.3972 3.3586
-17 -13 -38 17.3541 16.8173
-17 -13 -36 -1.6101 7.4361
-17 -13 -34 -0.7414 1.4162
-17 -13 -32 -1.6804 -3.0278
-17 -13 -30 -1.7734 -0.2549
-17 -13 -28 4.2931 1.5456
-17 -13 -26 -3.9731 -9.0585
-17 -13 -24 4.6615 -10.9402
-17 -13 -22 14.8914 6.7658
-17 -13 -20 7.9783 3.2600
-17 -13 -18 -31.9556 12.0133
-17 -13 -16 11.6320 8.0873
-17 -13 -14 -20.5207 -29.3912
-17 -13 -12 -18.6645 -33.2482
-17 -13 -10 -57.1131 2.0473
-17 -13 -8 -21.0473 -22.4449
-17 -13 -6 82.0422 -23.1672
-17 -13 -4 136.5126 -15.8529
-17 -13 -2 53.6660 203.2406
-17 -12 -41 -20.9300 7.1606
-17 -12 -39 0.8973 -2.2240
-17 -12 -37 -13.1491 14.1594
-17 -12 -35 -10.9646 -10.4796
-17 -12 -33 -4.9000 9.1450
-17 -12 -31 2.4845 2.2782
-17 -12 -29 17.9559 0.6112
-17 -12 -27 16.8295 -10.4948
-17 -12 -25 -11.6350 -6.5637
-17 -12 -23 -1.7839 -19.7441
-17 -12 -21 -4.5133 5.4367
-17 -12 -19 -24.1385 -13.5038
-17 -12 -17 -24.1826 -6.7282
-17 -12 -15 43.3475 6.6346
-17 -12 -13 -40.7944 -21.4281
-17 -12 -11 -6.4696 -53.3936
-17 -12 -9 -2.7386 -1.4836
-17 -12 -7 -44.7116 -51.2795
-17 -12 -5 -9.4942 32.0911
-17 -12 -3 6.7872 87.4080
-17 -12 -1 -35.8962 78.3990
-17 -11 -42 -2.2873 -4.2403
-17 -11 -40 1.4674 5.8164
-17 -11 -38 4.2345 -3.4707
-17 -11 -36 6.9053 16.9443
-17 -11 -34 3.5078 3.5425
-17 -11 -32 2.4300 7.6833
-17 -11 -30 6.2317 6.1769
-17 -11 -28 5.2007 5.9380
-17 -11 -26 0.2643 -7.2736
-17 -11 -24 7.6040 0.8746
-17 -11 -22 4.7111 4.6173
-17 -11 -20 -25.0857 5.3352
-17 -11 -18 27.8033 -37.3736
-17 -11 -16 9.7763 10.6894
-17 -11 -14 35.7162 -1.9224
-17 -11 -12 -0.5453 -61.1169
-17 -11 -10 -15.9694 71.2673
-17 -11 -8 2.3743 -57.6662
-17 -11 -6 8.9763 4.4297
-17 -11 -4 -39.5005 -6.5468
-17 -11 -2 -92.7504 55.1450
-17 -10 -41 -15.1688 19.8264
-17 -10 -39 23.6456 -6.1221
-17 -10 -37 5.8268 -16.1098
-17 -10 -35 0.4050 0.0555
-17 -10 -33 -1.9887 0.9843
-17 -10 -31 0.0674 -3.5471
-17 -10 -29 -15.2218 -12.5921
-17 -10 -27 -10.3159 -10.2931
-17 -10 -25 -7.9680 14.5329
-17 -10 -23 13.9823 -18.9309
-17 -10 -21 14.8590 -3.3664
-17 -10 -19 -35.8061 -16.0457
-17 -10 -17 -7.4801 4.4343
-17 -10 -15 -0.1320 75.3427
-17 -10 -13 29.0081 -19.6482
-17 -10 -11 -18.2476 -56.8810
-17 -10 -9 18.9880 -67.6758
-17 -10 -7 -35.2127 -22.2540
-17 -10 -5 -47.6233 9.5195
-17 -10 -3 149.3094 -1.3507
-17 -10 -1 119.8533 16.6777
-17 -9 -42 -3.6901 6.1277
-17 -9 -40 22.0175 -4.5240
-17 -9 -38 0.1865 1.0085
-17 -9 -36 3.3504 17.3440
-17 -9 -34 16.0688 -13.5014
-17 -9 -32 -8.5147 -0.8661
-17 -9 -30 13.3471 -6.6602
-17 -9 -28 5.5959 -7.7958
-17 -9 -26 -4.6259 7.9990
-17 -9 -24 -0.8183 0.9117
-17 -9 -22 -19.4783 14.0052
-17 -9 -20 -9.7931 18.5642
-17 -9 -18 16.7046 -21.7552
-17 -9 -16 37.6404 48.5366
-17 -9 -14 -39.0855 12.6514
-17 -9 -12 -16.8912 -17.8287
-17 -9 -10 -52.0190 95.7991
-17 -9 -8 -10.8557 39.3527
-17 -9 -6 103.5433 84.0885
-17 -9 -4 27.6832 52.0758
-17 -9 -2 -1.9624 -43.3915
-17 -8 -41 -6.7949 -19.9862
-17 -8 -39 1.1437 -0.9588
-17 -8 -37 5.6107 6.5336
-17 -8 -35 0.2622 0.1057
-17 -8 -33 11.0430 -13.1761
-17 -8 -31 11.9010 15.1615
-17 -8 -29 -5.0935 -6.2899
-17 -8 -27 3.6782 -9.4322
-17 -8 -25 12.3085 0.0464
-17 -8 -23 -5.8593 -2.0679
-17 -8 -21 17.5796 -18.6764
-17 -8 -19 15.1719 6.8911
-17 -8 -17 -23.1440 21.3402
-17 -8 -15 10.1146 1.5357
-17 -8 -13 42.2800 20.2209
-17 -8 -11 -31.4903 -8.0666
-17 -8 -9 -34.4719 48.8726
-17 -8 -7 -69.7351 75.7739
-17 -8 -5 -9.3731 -74.1194
-17 -8 -3 13.3033 -40.8525
-17 -8 -1 -8.4443 -134.1741
-17 -7 -42 0.5394 -2.4812
-17 -7 -40 19.5951 18.1404
-17 -7 -38 2.0495 13.6288
-17 -7 -36 -1.4102 2.8232
-17 -7 -34 4.5062 -13.1139
-17 -7 -32 -0.3831 -13.3951
-17 -7 -30 -4.6746 -6.8090
-17 -7 -28 17.1931 -6.0306
-17 -7 -26 7.9928 -1.7054
-17 -7 -24 6.6394 -8.6263
-17 -7 -22 -3.2920 20.1404
-17 -7 -20 -13.9321 -5.8534
-17 -7 -18 -26.3875 2.3305
-17 -7 -16 3.7776 29.0255
-17 -7 -14 3.4399 -0.0469
-17 -7 -12 13.1439 -15.6776
-17 -7 -10 -42.1448 -39.9044
-17 -7 -8 6.1887 89.1735
-17 -7 -6 116.4050 63.0732
-17 -7 -4 29.9350 84.6640
-17 -7 -2 76.3257 16.3317
-17 -6 -43 1.7647 1.3115
-17 -6 -41 -16.1804 8.6663
-17 -6 -39 15.3159 -4.3808
-17 -6 -37 -0.0458 -2.6044
-17 -6 -35 3.8753 13.8250
-17 -6 -33 13.3961 10.8476
-17 -6 -31 -6.8376 -9.2359
-17 -6 -29 -1.7117 -6.4348
-17 -6 -27 -14.6635 -14.8919
-17 -6 -25 -2.5177 -1.2939
-17 -6 -23 -9.3588 -14.4306
-17 -6 -21 6.8786 30.3672
-17 -6 -19 0.4002 1.2126
-17 -6 -17 25.1776 35.0684
-17 -6 -15 -0.3326 -39.4236
-17 -6 -13 -79.5056 -33.9172
-17 -6 -11 22.3743 -5.8267
-17 -6 -9 19.4578 48.3695
-17 -6 -7 76.9443 22.6764
-17 -6 -5 -76.8017 19.8042
-17 -6 -3 32.7571 4.3485
-17 -6 -1 -40.0650 -28.1349
-17 -5 -42 9.4270 24.5179
-17 -5 -40 0.0002 1.7186
-17 -5 -38 -2.3120 -0.2628
-17 -5 -36 -1.1164 1.7288
-17 -5 -34 -5.5073 12.4147
-17 -5 -32 -7.5011 -3.2232
-17 -5 -30 11.5158 10.0352
-17 -5 -28 0.1048 -1.6370
-17 -5 -26 0.7295 8.3140
-17 -5 -24 28.2469 0.9059
-17 -5 -22 10.6152 -10.2116
-17 -5 -20 25.0265 -9.2439
-17 -5 -18 -5.3843 4.8696
-17 -5 -16 -42.9894 22.7442
-17 -5 -14 -28.5789 14.8743
-17 -5 -12 43.4722 10.7174
-17 -5 -10 -27.5063 -1.1974
-17 -5 -8 -67.9531 42.7077
-17 -5 -6 49.3574 62.0394
-17 -5 -4 -24.2992 -36.2366
-17 -5 -2 24.3156 1.8078
-17 -4 -43 -23.2998 9.0013
-17 -4 -41 1.2484 -1.7169
-17 -4 -39 -5.1011 -0.1594
-17 -4 -37 11.6291 -14.4820
-17 -4 -35 16.7644 -9.9199
-17 -4 -33 17.1101 12.6783
-17 -4 -31 -7.9869 8.1509
-17 -4 -29 -14.1675 -2.8582
-17 -4 -27 -10.2784 1.1251
-17 -4 -25 -4.4250 16.4412
-17 -4 -23 6.0484 -23.1056
-17 -4 -21 25.7139 -8.7160
-17 -4 -19 -18.3494 -6.7340
-17 -4 -17 -27.4052 -25.6244
-17 -4 -15 25.6856 -33.5199
-17 -4 -13 -37.0319 44.0371
-17 -4 -11 102.7274 -16.6567
-17 -4 -9 19.9820 22.8742
-17 -4 -7 -5.1335 52.3965
-17 -4 -5 52.3256 48.9519
-17 -4 -3 -10.0004 -35.3696
-17 -4 -1 -10.4089 -15.7762
-17 -3 -42 17.0539 15.7862
-17 -3 -40 -12.5670 15.4480
-17 -3 -38 -8.4989 1.7687
-17 -3 -36 26.1745 -16.7459
-17 -3 -34 2.3977 -0.2028
-17 -3 -32 -11.3034 -0.8153
-17 -3 -30 -11.8906 -6.7328
-17 -3 -28 -7.2950 10.4014
-17 -3 -26 -8.9490 0.2066
-17 -3 -24 -3.0212 11.5559
-17 -3 -22 2.1396 -10.8345
-17 -3 -20 17.8540 7.6322
-17 -3 -18 -2.8914 -1.9049
-17 -3 -16 77.7868 -25.6256
-17 -3 -14 47.9959 30.6789
-17 -3 -12 -62.8622 -11.4032
-17 -3 -10 52.2900 -6.0286
-17 -3 -8 -39.1885 -51.6348
-17 -3 -6 -140.1259 8.9841
-17 -3 -4 1.3691 -47.5736
-17 -3 -2 52.7980 20.6632
-17 -2 -43 6.2121 -18.5606
-17 -2 -41 -10.6384 20.9492
-17 -2 -39 0.0744 -3.0611
-17 -2 -37 -11.9214 -9.1759
-17 -2 -35 -13.2786 17.1724
-17 -2 -33 4.7962 -12.2215
-17 -2 -31 -19.7970 13.2753
-17 -2 -29 -2.6669 -3.2167
-17 -2 -27 -2.8548 14.9534
-17 -2 -25 4.1018 -7.8471
-17 -2 -23 24.6989 14.7011
-17 -2 -21 5.6732 2.0515
-17 -2 -19 -19.6867 -2.8858
-17 -2 -17 29.2765 10.6453
-17 -2 -15 5.5346 -35.9129
-17 -2 -13 -8.1894 15.6694
-17 -2 -11 22.0034 -53.1109
-17 -2 -9 29.9635 -20.9659
-17 -2 -7 -114.2077 35.4021
-17 -2 -5 -7.5192 -31.6095
-17 -2 -3 59.0339 78.7041
-17 -2 -1 26.8373 54.1807
-17 -1 -42 -18.6920 -2.3741
-17 -1 -40 5.9903 5.9825
-17 -1 -38 4.2061 -6.1750
-17 -1 -36 -4.9072 -16.5510
-17 -1 -34 -1.7367 -6.6919
-17 -1 -32 -8.9964 0.2619
-17 -1 -30 -5.3897 -6.3646
-17 -1 -28 2.5084 -17.0894
-17 -1 -26 -0.8687 -3.0212
-17 -1 -24 29.0683 -22.7638
-17 -1 -22 10.3576 -17.3218
-17 -1 -20 3.8148 6.8879
-17 -1 -18 -30.4212 8.8932
-17 -1 -16 9.2443 16.6649
-17 -1 -14 -19.2014 83.9241
-17 -1 -12 -47.7078 36.1070
-17 -1 -10 -7.0326 -39.7122
-17 -1 -8 32.9893 39.0745
-17 -1 -6 20.6402 -22.3775
-17 -1 -4 47.1718 76.8047
-17 -1 -2 31.4081 -1.3944
-16 -15 -41 4.0820 3.4404
-16 -15 -39 -1.4839 1.8168
-16 -15 -37 -20.4103 0.6306
-16 -15 -35 4.7978 -2.4122
-16 -15 -33 -5.4938 -2.6092
-16 -15 -31 -10.7826 11.4752
-16 -15 -29 -1.8351 -5.6493
-16 -15 -27 0.2183 16.3322
-16 -15 -25 -4.4468 -5.1578
-16 -15 -23 4.3637 10.1596
-16 -15 -21 -6.5872 -3.0584
-16 -15 -19 11.0199 20.6537
-16 -15 -17 47.0134 22.7634
-16 -15 -15 13.0088 -29.9763
-16 -15 -13 59.1514 33.6000
-16 -15 -11 -11.9537 -14.0894
-16 -15 -9 -51.7495 -56.3076
-16 -15 -7 19.2462 25.3802
-16 -15 -5 -14.4820 -31.6229
-16 -15 -3 -89.2528 11.7612
-16 -15 -1 -18.4600 -28.3874
-16 -14 -40 -3.7740 -14.6120
-16 -14 -38 -10.3653 -23.3301
-16 -14 -36 -17.2998 1.3139
-16 -14 -34 8.0494 5.2772
-16 -14 -32 4.9909 0.2270
-16 -14 -30 -6.0420 -1.4367
-16 -14 -28 7.0290 -9.9320
-16 -14 -26 3.0454 3.1245
-16 -14 -24 1.8174 10.8830
-16 -14 -22 -23.2303 7.7119
-16 -14 -20 7.1845 12.7734
-16 -14 -18 -26.3519 14.2375
-16 -14 -16 2.3764 -48.3825
-16 -14 -14 30.2085 30.4987
-16 -14 -12 13.7645 -21.6412
-16 -14 -10 2.5584 -20.6151
-16 -14 -8 -34.2583 9.4982
-16 -14 -6 -57.5426 -18.8306
-16 -14 -4 -59.4577 75.3915
-16 -14 -2 -90.3299 -199.8178
-16 -13 -41 -16.0673 2.8816
-16 -13 -39 13.5118 -0.3945
-16 -13 -37 -13.5087 10.5340
-16 -13 -35 1.5757 5.2175
-16 -13 -33 -0.0382 10.5619
-16 -13 -31 -6.3628 -13.7953
-16 -13 -29 -6.2271 6.6087
-16 -13 -27 -10.7950 -11.8688
-16 -13 -25 -1.5258 -0.6752
-16 -13 -23 -15.7407 -0.0116
-16 -13 -21 20.5486 7.4532
-16 -13 -19 9.0001 -7.2438
-16 -13 -17 -7.8378 -4.6782
-16 -13 -15 58.6899 11.6378
-16 -13 -13 -30.5837 60.9705
-16 -13 -11 -14.8145 45.1807
-16 -13 -9 37.8994 24.4160
-16 -13 -7 14.9688 -25.8415
-16 -13 -5 14.5389 -55.9664
-16 -13 -3 -62.5414 -59.4442
-16 -13 -1 -123.3219 -23.1180
-16 -12 -42 25.5133 -4.8640
-16 -12 -40 -10.0466 8.8136
-16 -12 -38 -11.5037 15.8062
-16 -12 -36 -14.0777 -16.8079
-16 -12 -34 1.1070 1.9976
-16 -12 -32 1.4563 0.4341
-16 -12 -30 -2.3825 5.1749
-16 -12 -28 -8.8265 -7.2657
-16 -12 -26 -6.1437 -0.5546
-16 -12 -24 18.0434 -9.7596
-16 -12 -22 -4.7333 2.4437
-16 -12 -20 -5.7211 -3.8132
-16 -12 -18 8.2702 -11.3650
-16 -12 -16 -29.9891 -9.9013
-16 -12 -14 8.0351 -30.7608
-16 -12 -12 0.5944 -1.9961
-16 -12 -10 -36.2837 -23.5412
-16 -12 -8 20.2997 -59.9635
-16 -12 -6 130.6512 44.6215
-16 -12 -4 89.1782 27.9292
-16 -12 -2 7.8798 -62.3119
-16 -11 -41 13.5325 -4.2282
-16 -11 -39 -6.7020 -23.1290
-16 -11 -37 0.9057 2.8779
-16 -11 -35 -22.0346 15.0762
-16 -11 -33 -3.7397 0.4299
-16 -11 -31 22.6929 -1.4911
-16 -11 -29 -4.0488 -3.4628
-16 -11 -27 2.5977 -6.7594
-16 -11 -25 1.3405 -7.0930
-16 -11 -23 7.8263 -7.9318
-16 -11 -21 1.2161 24.6347
-16 -11 -19 -2.4707 13.9571
-16 -11 -17 35.0284 -34.2662
-16 -11 -15 -25.2858 3.3746
-16 -11 -13 -27.0271 10.8989
-16 -11 -11 -49.8608 26.6682
-16 -11 -9 -57.8618 27.4862
-16 -11 -7 30.9726 73.8275
-16 -11 -5 48.4015 13.4895
-16 -11 -3 26.9367 -56.3363
-16 -11 -1 -51.0234 -57.7050
-16 -10 -42 19.6706 -11.7137
-16 -10 -40 -4.2664 -6.7218
-16 -10 -38 3.7988 9.3673
-16 -10 -36 0.9342 1.0260
-16 -10 -34 -2.4049 1.0143
-16 -10 -32 14.7328 2.9678
-16 -10 -30 13.1084 19.4190
-16 -10 -28 1.0312 -6.5937
-16 -10 -26 14.8917 1.5776
-16 -10 -24 0.9417 10.7919
-16 -10 -22 15.7218 -4.6749
-16 -10 -20 -7.6687 -15.7657
-16 -10 -18 25.4874 -7.9381
-16 -10 -16 48.4049 1.8232
-16 -10 -14 -6.2702 6.0481
-16 -10 -12 -35.2388 11.6669
-16 -10 -10 -31.2221 64.5623
-16 -10 -8 26.4796 116.9556
-16 -10 -6 44.4385 -27.6101
-16 -10 -4 53.7848 -1.1895
-16 -10 -2 -36.2804 8.4253
-16 -9 -41 10.7178 15.8284
-16 -9 -39 -9.9986 -5.8338
-16 -9 -37 19.7482 -4.1770
-16 -9 -35 -1.2701 -2.7081
-16 -9 -33 2.7894 -19.4017
-16 -9 -31 -15.2336 9.3334
-16 -9 -29 -9.1284 12.6083
-16 -9 -27 7.3496 10.1990
-16 -9 -25 5.9011 -1.1109
-16 -9 -23 -4.7562 -17.3487
-16 -9 -21 -17.2638 -20.3312
-16 -9 -19 25.0371 -4.1832
-16 -9 -17 -13.1946 -7.6815
-16 -9 -15 -17.1024 -12.0446
-16 -9 -13 11.6203 -1.3466
-16 -9 -11 62.8581 15.8066
-16 -9 -9 -64.9664 3.1867
-16 -9 -7 -79.1515 4.2076
-16 -9 -5 -8.2982 33.4523
-16 -9 -3 -4.1324 7.3273
-16 -9 -1 -46.6881 -32.4237
-16 -8 -42 8.8835 23.8164
-16 -8 -40 -17.8604 1.8980
-16 -8 -38 -1.8045 -1.1567
-16 -8 -36 16.0220 -7.9726
-16 -8 -34 -10.2217 2.4146
-16 -8 -32 6.9403 3.7675
-16 -8 -30 -21.5679 -7.4717
-16 -8 -28 -3.5351 -6.6976
-16 -8 -26 -0.7772 16.3547
-16 -8 -24 -4.4001 -5.1926
-16 -8 -22 -2.6319 22.3938
-16 -8 -20 33.5073 -12.2681
-16 -8 -18 30.9463 -8.6778
-16 -8 -16 -30.6155 22.6925
-16 -8 -14 -46.9593 6.4084
-16 -8 -12 0.9134 33.5228
-16 -8 -10 -27.5116 14.6413
-16 -8 -8 -114.8410 67.8991
-16 -8 -6 -60.2002 19.0346
-16 -8 -4 124.1679 -39.6369
-16 -8 -2 7.5993 -46.6171
-16 -7 -43 -14.9208 -7.9423
-16 -7 -41 1.1747 1.9269
-16 -7 -39 15.5530 -4.3593
-16 -7 -37 1.8891 1.7960
-16 -7 -35 -2.6497 0.4625
-16 -7 -33 5.1515 -9.2322
-16 -7 -31 14.7307 -4.4840
-16 -7 -29 -7.0605 -10.8495
-16 -7 -27 -1.3738 6.3264
-16 -7 -25 -11.9802 -8.8234
-16 -7 -23 -5.2279 9.7082
-16 -7 -21 -7.8010 5.5934
-16 -7 -19 6.8292 40.5787
-16 -7 -17 -17.0859 -27.5794
-16 -7 -15 -11.8474 -26.4957
-16 -7 -13 -8.8802 -4.2383
-16 -7 -11 30.3221 -43.9412
-16 -7 -9 -58.7086 -34.7260
-16 -7 -7 20.6612 31.4976
-16 -7 -5 9.3003 -5.0770
-16 -7 -3 24.4191 17.2713
-16 -7 -1 45.4779 18.5402
-16 -6 -42 10.8188 17.9694
-16 -6 -40 2.6800 3.8570
-16 -6 -38 -3.1184 -21.4261
-16 -6 -36 -0.6989 1.4447
-16 -6 -34 3.1942 -1.9620
-16 -6 -32 -13.2048 -5.6035
-16 -6 -30 15.3990 2.2659
-16 -6 -28 11.2154 21.8730
-16 -6 -26 -7.4981 6.1485
-16 -6 -24 1.8044 4.2704
-16 -6 -22 -8.0088 -31.8175
-16 -6 -20 -34.7201 -6.9969
-16 -6 -18 32.9831 19.2038
-16 -6 -16 45.9265 -12.3342
-16 -6 -14 13.6757 -22.8481
-16 -6 -12 -120.5473 12.9485
-16 -6 -10 68.1331 0.7101
-16 -6 -8 78.0232 -4.5831
-16 -6 -6 41.3140 15.6914
-16 -6 -4 17.0798 -25.4226
-16 -6 -2 7.0804 39.7654
-16 -5 -43 -5.7776 24.3226
-16 -5 -41 1.5255 0.0932
-16 -5 -39 7.6886 -0.4240
-16 -5 -37 -2.0906 -0.0481
-16 -5 -35 -16.7578 -2.8622
-16 -5 -33 -2.4041 -9.6118
-16 -5 -31 13.6522 -10.4055
-16 -5 -29 -6.2443 -20.2755
-16 -5 -27 3.9436 -0.0676
-16 -5 -25 2.2816 12.5990
-16 -5 -23 -22.3345 24.5887
-16 -5 -21 -11.0956 -9.5076
-16 -5 -19 30.1800 -8.0573
-16 -5 -17 -34.8721 49.4271
-16 -5 -15 28.3996 9.6036
-16 -5 -13 40.5608 -62.4331
-16 -5 -11 -51.4612 70.5420
-16 -5 -9 -0.7662 -41.1753
-16 -5 -7 47.5007 -36.6737
-16 -5 -5 -28.8538 27.6913
-16 -5 -3 -53.3228 92.3391
-16 -5 -1 57.7725 53.8899
-16 -4 -42 7.9440 6.7205
-16 -4 -40 22.9503 4.5989
-16 -4 -38 1.9076 -1.5639
-16 -4 -36 17.4406 -6.8194
-16 -4 -34 12.9243 12.6039
-16 -4 -32 2.4561 11.5720
-16 -4 -30 -13.1989 -0.4349
-16 -4 -28 -9.5408 6.1309
-16 -4 -26 -5.0310 6.2157
-16 -4 -24 10.1138 12.7802
-16 -4 -22 19.1290 2.4644
-16 -4 -20 -30.8996 -4.9882
-16 -4 -18 -17.9098 25.9844
-16 -4 -16 46.4173 4.4630
-16 -4 -14 28.3011 7.3383
-16 -4 -12 -90.8351 -7.7530
-16 -4 -10 -84.3443 -52.2174
-16 -4 -8 88.6141 73.0202
-16 -4 -6 -52.3998 10.7731
-16 -4 -4 -42.7127 -17.8684
-16 -4 -2 -20.7166 38.0845
-16 -3 -43 24.0894 -7.4658
-16 -3 -41 -8.6040 -14.8433
-16 -3 -39 -6.3670 17.5188
-16 -3 -37 3.8783 3.2650
-16 -3 -35 5.1400 -15.0469
-16 -3 -33 -1.1636 12.1385
-16 -3 -31 -8.0675 9.8014
-16 -3 -29 1.7994 9.9290
-16 -3 -27 14.6858 -3.7412
-16 -3 -25 1.1367 13.3455
-16 -3 -23 12.8872 8.1631
-16 -3 -21 -6.4426 9.7963
-16 -3 -19 -4.0938 30.0617
-16 -3 -17 -13.4436 -8.7845
-16 -3 -15 51.2295 24.3677
-16 -3 -13 -15.9534 -5.4744
-16 -3 -11 -49.8034 -12.6875
-16 -3 -9 -41.6815 -22.7140
-16 -3 -7 48.7490 -81.0603
-16 -3 -5 -50.2607 5.6072
-16 -3 -3 -2.2531 -27.9852
-16 -3 -1 -39.5048 55.4171
-16 -2 -42 13.1458 -1.5975
-16 -2 -40 -5.2616 12.9868
-16 -2 -38 -16.2980 -12.8042
-16 -2 -36 1.5698 -0.1586
-16 -2 -34 -12.0988 -9.1362
-16 -2 -32 -9.8478 -16.8500
-16 -2 -30 16.2704 -3.6913
-16 -2 -28 -0.8116 -0.3572
-16 -2 -26 -11.8672 -1.2517
-16 -2 -24 1.8148 -22.0204
-16 -2 -22 27.6730 -2.6821
-16 -2 -20 -11.5348 -20.4812
-16 -2 -18 8.5378 -11.9818
-16 -2 -16 27.6497 4.2939
-16 -2 -14 24.6525 19.3765
-16 -2 -12 -13.3863 4.5571
-16 -2 -10 92.3093 -34.8120
-16 -2 -8 -12.5666 55.2994
-16 -2 -6 29.4164 21.6935
-16 -2 -4 24.7305 -80.5617
-16 -2 -2 -47.3965 -72.4279
-16 -1 -43 -13.1500 3.8126
-16 -1 -41 -3.3425 -21.1185
-16 -1 -39 15.0719 7.2659
-16 -1 -37 2.6136 -3.5029
-16 -1 -35 12.2578 8.1407
-16 -1 -33 2.1431 -0.0703
-16 -1 -31 -5.5563 -5.8444
-16 -1 -29 10.0861 -5.6463
-16 -1 -27 -5.7181 -0.6992
-16 -1 -25 3.2758 2.5496
-16 -1 -23 -1.0573 1.5752
-16 -1 -21 -11.6847 -19.9907
-16 -1 -19 -27.8024 19.3777
-16 -1 -17 -39.3632 88.9586
-16 -1 -15 34.1161 -17.1200
-16 -1 -13 -42.5088 -22.4679
-16 -1 -11 -85.2903 -7.0002
-16 -1 -9 45.9464 5.2587
-16 -1 -7 46.7880 74.6691
-16 -1 -5 53.1851 47.4600
-16 -1 -3 -26.7052 6.8491
-16 -1 -1 -6.2804 -62.3939
-15 -14 -41 16.3518 -6.0313
-15 -14 -39 -1.8804 16.9994
-15 -14 -37 7.6247 16.2989
-15 -14 -35 1.3519 -2.4791
-15 -14 -33 12.0103 0.2454
-15 -14 -31 5.4664 2.1086
-15 -14 -29 5.3812 2.1013
-15 -14 -27 3.9759 4.5598
-15 -14 -25 -5.9921 -13.8951
-15 -14 -23 -2.9695 -2.3667
-15 -14 -21 -6.0768 -11.9994
-15 -14 -19 -8.5111 -8.4780
-15 -14 -17 -29.8020 8.2317
-15 -14 -15 29.5433 15.5716
-15 -14 -13 -34.3423 6.6029
-15 -14 -11 -129.5708 -67.4994
-15 -14 -9 -0.6543 -11.6486
-15 -14 -7 14.5867 -69.1523
-15 -14 -5 -26.2545 47.9036
-15 -14 -3 -54.1820 -53.4860
-15 -14 -1 44.0486 16.4450
-15 -13 -42 -4.0252 11.5762
-15 -13 -40 1.0607 0.9813
-15 -13 -38 -15.7216 -9.0293
-15 -13 -36 -20.6829 -2.3922
-15 -13 -34 17.0831 -4.1630
-15 -13 -32 1.8797 15.2409
-15 -13 -30 1.2729 -8.5426
-15 -13 -28 2.1478 17.1660
-15 -13 -26 10.0635 -5.2133
-15 -13 -24 -2.6007 -22.2504
-15 -13 -22 18.0268 -47.3149
-15 -13 -20 9.9554 -16.5087
-15 -13 -18 1.8777 -13.2335
-15 -13 -16 -10.6920 -12.7630
-15 -13 -14 -15.0095 19.3202
-15 -13 -12 -25.0189 3.3762
-15 -13 -10 1.9139 17.3646
-15 -13 -8 17.7218 29.8495
-15 -13 -6 13.4301 27.4927
-15 -13 -4 104.8020 77.5383
-15 -13 -2 -21.9635 22.9009
-15 -12 -41 9.2083 -2.8190
-15 -12 -39 -0.4003 -1.3388
-15 -12 -37 5.0306 -5.5646
-15 -12 -35 -11.3324 2.5354
-15 -12 -33 -10.4932 16.6896
-15 -12 -31 -0.2127 19.7187
-15 -12 -29 -5.6113 -4.8711
-15 -12 -27 -1.6480 2.2204
-15 -12 -25 17.1308 8.8940
-15 -12 -23 -10.5703 -6.9857
-15 -12 -21 15.2874 5.2144
-15 -12 -19 17.2095 -42.5257
-15 -12 -17 17.6603 7.7003
-15 -12 -15 -3.9176 8.2282
-15 -12 -13 38.3594 19.2724
-15 -12 -11 33.2172 -29.8903
-15 -12 -9 11.1549 25.2274
-15 -12 -7 8.4824 17.4550
-15 -12 -5 -18.4450 30.1680
-15 -12 -3 -50.8054 -86.7778
-15 -12 -1 -6.9744 15.5121
-15 -11 -42 0.4735 18.3907
-15 -11 -40 -5.3983 -13.6195
-15 -11 -38 -8.4830 -12.4709
-15 -11 -36 11.5451 10.4947
-15 -11 -34 13.1144 3.4490
-15 -11 -32 -12.8927 -0.9777
-15 -11 -30 1.6698 13.3428
-15 -11 -28 -3.6108 2.8389
-15 -11 -26 -0.4382 -6.9880
-15 -11 -24 4.0735 -9.8000
-15 -11 -22 12.2435 -12.3671
-15 -11 -20 7.0274 -5.5657
-15 -11 -18 27.3491 14.1208
-15 -11 -16 20.8094 24.8541
-15 -11 -14 -8.8263 9.9139
-15 -11 -12 30.1621 -5.8145
-15 -11 -10 -8.3149 24.9770
-15 -11 -8 23.8647 2.3500
-15 -11 -6 83.9938 -37.9233
-15 -11 -4 20.8372 2.3825
-15 -11 -2 57.0454 1.3698
-15 -10 -43 0.9144 1.3255
-15 -10 -41 13.1010 -12.5791
-15 -10 -39 0.0169 -1.3813
-15 -10 -37 -17.1635 -3.6618
-15 -10 -35 1.7913 -0.8065
-15 -10 -33 6.8327 5.8770
-15 -10 -31 -10.9395 -2.7268
-15 -10 -29 7.0506 3.3962
-15 -10 -27 11.9643 9.3274
-15 -10 -25 -11.2547 0.7143
-15 -10 -23 8.8828 21.2570
-15 -10 -21 -9.1821 -6.9938
-15 -10 -19 -23.4415 5.6773
-15 -10 -17 -8.8836 -2.0515
-15 -10 -15 -14.0973 10.7297
-15 -10 -13 -17.5505 -56.7210
-15 -10 -11 1.4528 53.6365
-15 -10 -9 -43.9382 65.3078
-15 -10 -7 -86.5695 8.8621
-15 -10 -5 -155.4728 -37.9320
-15 -10 -3 -47.7171 -67.7765
-15 -10 -1 -25.2892 80.5666
-15 -9 -42 -18.6207 -4.3773
-15 -9 -40 3.3602 20.9406
-15 -9 -38 -5.3679 -5.9109
-15 -9 -36 4.7566 -15.1249
-15 -9 -34 -2.5455 -5.6223
-15 -9 -32 23.0287 -0.5740
-15 -9 -30 14.0364 4.8044
-15 -9 -28 -5.2713 -5.8226
-15 -9 -26 -3.1726 -9.5882
-15 -9 -24 -3.4349 3.1289
-15 -9 -22 -2.2328 -6.9778
-15 -9 -20 -21.5366 -3.6691
-15 -9 -18 -0.0349 -2.5054
-15 -9 -16 -24.7438 36.9928
-15 -9 -14 22.1905 -10.3612
-15 -9 -12 48.0702 -59.5611
-15 -9 -10 0.4846 -74.9994
-15 -9 -8 11.4399 61.5260
-15 -9 -6 40.1066 -9.9541
-15 -9 -4 6.0463 -11.0880
-15 -9 -2 -7.4165 5.0029
-15 -8 -43 -2.1044 -0.8448
-15 -8 -41 6.3054 -7.4392
-15 -8 -39 -0.9059 -2.2056
-15 -8 -37 7.7099 7.3987
-15 -8 -35 -11.4003 6.1800
-15 -8 -33 -7.9614 -20.7413
-15 -8 -31 -8.5535 -13.6341
-15 -8 -29 -11.9340 -11.3281
-15 -8 -27 7.5579 -3.8107
-15 -8 -25 -7.9375 6.3618
-15 -8 -23 -0.3588 -18.5312
-15 -8 -21 -24.9206 -10.6156
-15 -8 -19 20.2413 17.6857
-15 -8 -17 22.6315 37.7668
-15 -8 -15 7.7865 -14.1415
-15 -8 -13 -19.6531 -19.3091
-15 -8 -11 2.1568 -93.0700
-15 -8 -9 54.3970 -8.2571
-15 -8 -7 -154.7198 76.3708
-15 -8 -5 41.3969 -32.4376
-15 -8 -3 53.9423 -4.1457
-15 -8 -1 -52.0336 -37.9348
-15 -7 -42 13.2683 -9.6359
-15 -7 -40 -13.8074 8.1978
-15 -7 -38 11.5686 5.2763
-15 -7 -36 -17.7293 -2.1769
-15 -7 -34 0.8358 -5.3917
-15 -7 -32 -10.8193 14.0158
-15 -7 -30 -4.8046 -8.0894
-15 -7 -28 -22.4091 19.1975
-15 -7 -26 19.0837 7.3662
-15 -7 -24 14.2856 -7.6126
-15 -7 -22 13.1675 -7.8344
-15 -7 -20 -12.9617 -20.1737
-15 -7 -18 -32.6172 -1.8963
-15 -7 -16 2.9741 -5.3313
-15 -7 -14 10.2924 -12.1009
-15 -7 -12 51.8577 -78.8619
-15 -7 -10 30.9993 -89.9393
-15 -7 -8 22.2471 -101.4460
-15 -7 -6 44.0288 169.0843
-15 -7 -4 -44.9518 54.3485
-15 -7 -2 -53.2110 -21.1832
-15 -6 -43 6.9364 0.3044
-15 -6 -41 3.4283 15.1708
-15 -6 -39 -0.4850 -1.9669
-15 -6 -37 4.7799 1.1478
-15 -6 -35 6.8689 5.6420
-15 -6 -33 -7.9525 12.5774
-15 -6 -31 13.5639 4.4688
-15 -6 -29 -2.9944 5.6242
-15 -6 -27 -4.7451 13.3756
-15 -6 -25 -5.9698 15.6256
-15 -6 -23 37.3183 26.9026
-15 -6 -21 41.7686 -24.5857
-15 -6 -19 -36.1661 -19.5151
-15 -6 -17 -3.5319 29.7191
-15 -6 -15 4.7409 30.0618
-15 -6 -13 7.2384 26.9031
-15 -6 -11 -62.0620 -45.7000
-15 -6 -9 25.1336 -92.1857
-15 -6 -7 -110.6796 63.5993
-15 -6 -5 -50.3651 41.5807
-15 -6 -3 103.2204 -45.3890
-15 -6 -1 0.5544 -78.8585
-15 -5 -42 1.6760 -17.6533
-15 -5 -40 12.7098 -6.0430
-15 -5 -38 -0.3895 -1.4702
-15 -5 -36 16.6709 -1.6708
-15 -5 -34 -14.0099 8.5655
-15 -5 -32 -5.9901 13.4127
-15 -5 -30 2.9575 18.1837
-15 -5 -28 0.3931 -0.1334
-15 -5 -26 -2.1296 -1.7803
-15 -5 -24 0.7575 4.3346
-15 -5 -22 -3.3316 -16.7171
-15 -5 -20 -1.9916 11.9104
-15 -5 -18 -22.1521 1.5359
-15 -5 -16 49.0093 -20.3728
-15 -5 -14 21.1914 16.2048
-15 -5 -12 -4.8986 37.1649
-15 -5 -10 -44.9167 -24.9749
-15 -5 -8 94.1307 -48.9845
-15 -5 -6 63.6886 133.6088
-15 -5 -4 -53.3461 49.3927
-15 -5 -2 99.1669 -69.3560
-15 -4 -43 -10.5029 -12.2444
-15 -4 -41 -1.5653 22.4397
-15 -4 -39 2.7131 -12.0993
-15 -4 -37 -1.0078 -2.7079
-15 -4 -35 4.2898 -5.9580
-15 -4 -33 0.1222 18.2715
-15 -4 -31 1.3606 -5.5551
-15 -4 -29 -1.4869 -1.1552
-15 -4 -27 6.7377 11.0066
-15 -4 -25 -1.3126 18.4702
-15 -4 -23 2.3022 8.7271
-15 -4 -21 -6.3315 -14.6846
-15 -4 -19 -28.0372 11.6222
-15 -4 -17 64.5014 59.4274
-15 -4 -15 -54.6268 47.8838
-15 -4 -13 34.4815 23.8066
-15 -4 -11 -24.7578 -69.4067
-15 -4 -9 3.2635 -29.4646
-15 -4 -7 33.7472 20.9851
-15 -4 -5 -41.0375 -36.1184
-15 -4 -3 24.1556 -36.6559
-15 -4 -1 -40.4765 8.7355
-15 -3 -42 17.4391 19.1269
-15 -3 -40 1.1895 3.3929
-15 -3 -38 2.4100 22.0059
-15 -3 -36 -2.9619 4.4306
-15 -3 -34 -3.4439 0.6179
-15 -3 -32 10.1569 -1.1678
-15 -3 -30 -24.1788 -13.1279
-15 -3 -28 -5.2991 16.3462
-15 -3 -26 -0.6085 5.2605
-15 -3 -24 -4.1438 22.3214
-15 -3 -22 19.4129 -28.8627
-15 -3 -20 -11.9720 -24.7326
-15 -3 -18 -1.2819 22.5129
-15 -3 -16 0.9759 54.1086
-15 -3 -14 -0.6561 -29.7796
-15 -3 -12 -9.1538 67.7571
-15 -3 -10 -22.7411 74.7656
-15 -3 -8 27.6033 39.5383
-15 -3 -6 -58.7961 -28.1536
-15 -3 -4 -0.2928 -113.3128
-15 -3 -2 -5.7740 76.7709
-15 -2 -43 -3.5765 3.3215
-15 -2 -41 2.9437 0.2348
-15 -2 -39 1.3037 -22.8661
-15 -2 -37 1.5959 1.6518
-15 -2 -35 -13.6109 -6.1771
-15 -2 -33 3.4489 -12.1309
-15 -2 -31 -3.0246 -1.0417
-15 -2 -29 -13.3849 9.5599
-15 -2 -27 7.2481 3.0881
-15 -2 -25 12.7341 4.2430
-15 -2 -23 -5.4483 13.0900
-15 -2 -21 15.3011 2.1342
-15 -2 -19 -39.3075 -13.3095
-15 -2 -17 26.5127 35.4149
-15 -2 -15 22.8546 -12.1217
-15 -2 -13 -14.6263 37.6005
-15 -2 -11 9.7660 135.6673
-15 -2 -9 -7.5902 52.9073
-15 -2 -7 12.3371 46.6024
-15 -2 -5 24.8349 30.7882
-15 -2 -3 -28.0742 12.8358
-15 -2 -1 33.7142 -56.2818
-15 -1 -42 -16.7399 -0.1508
-15 -1 -40 19.1875 -25.8217
-15 -1 -38 19.5654 -3.2592
-15 -1 -36 2.4930 -2.6842
-15 -1 -34 -3.6388 16.3943
-15 -1 -32 7.0921 -15.2575
-15 -1 -30 -6.9153 -1.3909
-15 -1 -28 9.5423 -19.4554
-15 -1 -26 2.5589 0.4501
-15 -1 -24 -30.2716 4.0271
-15 -1 -22 -3.8870 6.5781
-15 -1 -20 -8.7884 -19.3679
-15 -1 -18 -27.7895 20.1934
-15 -1 -16 2.2766 7.6838
-15 -1 -14 -55.4576 34.8621
-15 -1 -12 57.7522 12.8714
-15 -1 -10 -33.5732 -16.3525
-15 -1 -8 -4.3109 -51.7028
-15 -1 -6 23.3874 93.4501
-15 -1 -4 4.9648 32.9363
-15 -1 -2 46.3430 116.6568
-14 -13 -41 0.3724 1.5354
-14 -13 -39 -0.3765 2.2693
-14 -13 -37 0.4809 1.8794
-14 -13 -35 3.2640 9.2110
-14 -13 -33 -5.3241 -2.3607
-14 -13 -31 -19.6940 -8.4396
-14 -13 -29 16.8354 3.7940
-14 -13 -27 1.7762 -5.2084
-14 -13 -25 0.7811 9.8034
-14 -13 -23 9.8243 5.5561
-14 -13 -21 -1.9664 0.7170
-14 -13 -19 -13.2296 27.1745
-14 -13 -17 4.5222 -0.3073
-14 -13 -15 30.3303 -2.7130
-14 -13 -13 18.4003 -6.7555
-14 -13 -11 38.3497 9.3621
-14 -13 -9 15.5424 -64.3283
-14 -13 -7 124.0909 -16.6522
-14 -13 -5 42.3447 71.7382
-14 -13 -3 96.7987 33.1407
-14 -13 -1 14.5369 -28.2903
-14 -12 -42 -1.0800 10.4509
-14 -12 -40 -1.8657 -21.5515
-14 -12 -38 -1.0324 -2.3674
-14 -12 -36 12.6140 18.3968
-14 -12 -34 -1.8197 1.1985
-14 -12 -32 6.7055 0.1605
-14 -12 -30 16.8154 -3.7225
-14 -12 -28 8.6306 -12.9107
-14 -12 -26 5.6161 -6.4591
-14 -12 -24 11.1099 3.2015
-14 -12 -22 10.8734 -9.9113
-14 -12 -20 -2.0934 8.5524
-14 -12 -18 -4.3521 -9.8918
-14 -12 -16 -31.5005 11.8272
-14 -12 -14 -6.3486 -65.5136
-14 -12 -12 -23.2261 25.2545
-14 -12 -10 75.7159 -29.7670
-14 -12 -8 13.0082 85.1323
-14 -12 -6 -9.0100 67.8722
-14 -12 -4 -8.5592 -49.6932
-14 -12 -2 -8.6316 59.9206
-14 -11 -43 0.3805 -0.8637
-14 -11 -41 -0.9776 0.8369
-14 -11 -39 -8.6257 6.8083
-14 -11 -37 9.9437 12.9538
-14 -11 -35 0.1724 -0.6282
-14 -11 -33 -6.8028 2.3944
-14 -11 -31 -3.1738 -18.9457
-14 -11 -29 3.3407 -12.8606
-14 -11 -27 2.6450 2.9768
-14 -11 -25 -8.6794 5.2978
-14 -11 -23 -6.3941 -6.4063
-14 -11 -21 16.0253 -25.2008
-14 -11 -19 23.2214 -21.0595
-14 -11 -17 30.0999 -25.8315
-14 -11 -15 -18.0590 28.7276
-14 -11 -13 -14.9448 21.8715
-14 -11 -11 24.0800 -23.1638
-14 -11 -9 -30.0580 -25.7733
-14 -11 -7 -49.0370 -25.9331
-14 -11 -5 -55.5416 -47.6080
-14 -11 -3 90.6325 76.7480
-14 -11 -1 17.2682 -17.3181
-14 -10 -42 18.3930 6.4827
-14 -10 -40 -5.9258 9.3561
-14 -10 -38 6.0965 -9.9574
-14 -10 -36 -0.0714 2.7781
-14 -10 -34 10.1078 -3.5365
-14 -10 -32 1.7271 -13.0610
-14 -10 -30 -7.7144 2.6548
-14 -10 -28 19.1793 -1.8975
-14 -10 -26 10.1599 4.8665
-14 -10 -24 2.7648 14.9663
-14 -10 -22 -7.7112 12.3637
-14 -10 -20 1.6156 -9.2231
-14 -10 -18 18.8526 10.4471
-14 -10 -16 -64.6923 -43.2370
-14 -10 -14 -19.9505 -39.3208
-14 -10 -12 -68.8312 -5.9548
-14 -10 -10 6.4972 -63.6118
-14 -10 -8 180.3456 112.6602
-14 -10 -6 -7.5458 -4.8600
-14 -10 -4 -0.6066 -71.3637
-14 -10 -2 58.6345 -26.6808
-14 -9 -43 -3.3769 18.5791
-14 -9 -41 11.4397 3.5621
-14 -9 -39 17.4298 -0.8216
-14 -9 -37 -19.2761 -12.9946
-14 -9 -35 -9.0346 6.6340
-14 -9 -33 -18.8705 -4.4463
-14 -9 -31 -1.8789 -6.6882
-14 -9 -29 -12.5344 5.3072
-14 -9 -27 11.2828 6.2862
-14 -9 -25 6.8904 -0.2015
-14 -9 -23 -11.6942 15.9000
-14 -9 -21 -4.4033 -26.5734
-14 -9 -19 9.9038 -62.7547
-14 -9 -17 -51.8525 0.1090
-14 -9 -15 -28.1701 16.1145
-14 -9 -13 6.8954 -19.5113
-14 -9 -11 29.6125 7.1705
-14 -9 -9 -41.8621 5.4402
-14 -9 -7 -20.2494 -40.8937
-14 -9 -5 -39.0530 -33.3221
-14 -9 -3 -24.2492 12.2595
-14 -9 -1 34.0397 27.7426
-14 -8 -42 -15.2071 -14.8440
-14 -8 -40 2.6092 -23.6464
-14 -8 -38 -5.1134 19.5139
-14 -8 -36 -1.5819 3.5188
-14 -8 -34 -0.4310 21.7415
-14 -8 -32 5.8374 3.4651
-14 -8 -30 12.4436 -3.6727
-14 -8 -28 -2.2822 2.5414
-14 -8 -26 -4.2087 5.0732
-14 -8 -24 10.5104 -13.7442
-14 -8 -22 -2.0517 -5.8631
-14 -8 -20 -29.5586 -18.0046
-14 -8 -18 15.8605 10.7422
-14 -8 -16 67.3824 -21.5231
-14 -8 -14 -14.7944 27.9589
-14 -8 -12 -66.9510 4.4852
-14 -8 -10 160.8811 -50.7421
-14 -8 -8 -14.6217 24.0960
-14 -8 -6 78.6134 28.9586
-14 -8 -4 191.2253 -95.8044
-14 -8 -2 35.0949 36.0753
-14 -7 -43 0.3475 -3.1638
-14 -7 -41 5.7136 -14.8017
-14 -7 -39 -2.4086 -5.6403
-14 -7 -37 20.1419 9.2822
-14 -7 -35 -2.6360 -2.1042
-14 -7 -33 -5.4325 5.3489
-14 -7 -31 9.3930 -12.5437
-14 -7 -29 5.3856 -12.9712
-14 -7 -27 -8.4075 6.6924
-14 -7 -25 6.7270 3.4184
-14 -7 -23 20.3537 13.5033
-14 -7 -21 -2.7277 -16.3382
-14 -7 -19 5.0996 -46.6975
-14 -7 -17 -21.0203 66.2253
-14 -7 -15 17.0247 -19.4432
-14 -7 -13 44.1759 71.0002
-14 -7 -11 -61.3458 31.6431
-14 -7 -9 3.2394 -38.0594
-14 -7 -7 62.5552 85.4220
-14 -7 -5 -0.7255 67.3356
-14 -7 -3 6.1273 37.6465
-14 -7 -1 10.9996 -22.4200
-14 -6 -42 -2.5067 -1.6831
-14 -6 -40 0.4378 3.8280
-14 -6 -38 4.9017 8.8333
-14 -6 -36 -1.1871 6.4687
-14 -6 -34 -10.3929 -18.8161
-14 -6 -32 -3.8658 -3.0610
-14 -6 -30 -4.8957 -7.5860
-14 -6 -28 -15.4844 16.3992
-14 -6 -26 -5.5889 10.8288
-14 -6 -24 3.3213 -6.5917
-14 -6 -22 4.3925 -14.5757
-14 -6 -20 7.2866 -20.5816
-14 -6 -18 29.0742 29.9378
-14 -6 -16 -29.7651 21.0328
-14 -6 -14 -26.3598 19.4027
-14 -6 -12 -37.8021 48.3404
-14 -6 -10 29.4434 8.4806
-14 -6 -8 74.9669 20.3170
-14 -6 -6 -41.2537 -34.8801
-14 -6 -4 100.9479 -63.5268
-14 -6 -2 4.3055 40.6779
-14 -5 -43 0.9387 1.5029
-14 -5 -41 10.4751 15.4310
-14 -5 -39 -1.3863 15.4606
-14 -5 -37 -1.4485 -6.6923
-14 -5 -35 11.7691 -5.9679
-14 -5 -33 -4.3834 9.4310
-14 -5 -31 -2.3889 -4.3384
-14 -5 -29 0.0434 -14.5396
-14 -5 -27 -8.1548 9.4336
-14 -5 -25 13.5246 13.4241
-14 -5 -23 -22.0043 20.4018
-14 -5 -21 6.7183 -20.4192
-14 -5 -19 -27.8776 38.3397
-14 -5 -17 -47.3091 13.8358
-14 -5 -15 38.8027 46.3424
-14 -5 -13 -52.9271 110.2538
-14 -5 -11 -30.4634 87.0880
-14 -5 -9 -10.3301 -92.8206
-14 -5 -7 40.2792 -48.5616
-14 -5 -5 -92.3998 20.0618
-14 -5 -3 -40.3014 43.7668
-14 -5 -1 137.5987 -30.6472
-14 -4 -44 3.0151 3.9307
-14 -4 -42 -1.6386 -4.2673
-14 -4 -40 8.6568 6.1119
-14 -4 -38 -1.5067 -0.2079
-14 -4 -36 3.1205 -10.8374
-14 -4 -34 -2.6576 0.9030
-14 -4 -32 -0.7047 5.6601
-14 -4 -30 11.7537 4.9006
-14 -4 -28 -8.2446 5.5312
-14 -4 -26 -5.5138 -9.8786
-14 -4 -24 4.7051 21.7416
-14 -4 -22 8.3084 31.3507
-14 -4 -20 -2.6906 -12.9987
-14 -4 -18 -1.8390 -0.2669
-14 -4 -16 44.8933 -4.8346
-14 -4 -14 47.3391 -23.3026
-14 -4 -12 -74.0637 3.8971
-14 -4 -10 -9.5862 -27.8574
-14 -4 -8 83.4109 23.7663
-14 -4 -6 21.1950 18.7002
-14 -4 -4 -5.6179 -1.0439
-14 -4 -2 -33.5346 -47.9268
-14 -3 -43 0.5599 0.1281
-14 -3 -41 -0.5977 -8.3346
-14 -3 -39 -6.4031 27.4325
-14 -3 -37 -24.6756 -1.2446
-14 -3 -35 -6.5459 -12.6992
-14 -3 -33 4.7656 -7.1808
-14 -3 -31 -2.6714 -0.2526
-14 -3 -29 0.6135 -13.2359
-14 -3 -27 -15.2873 -5.1938
-14 -3 -25 9.2711 6.5623
-14 -3 -23 -5.8957 4.9539
-14 -3 -21 -13.0436 -11.8053
-14 -3 -19 38.5357 3.5058
-14 -3 -17 41.2150 10.9886
-14 -3 -15 6.0689 1.6169
-14 -3 -13 24.3555 -43.3998
-14 -3 -11 12.8964 17.8794
-14 -3 -9 28.4290 51.3187
-14 -3 -7 -4.1512 -29.8200
-14 -3 -5 -24.2653 -11.3588
-14 -3 -3 3.4605 -41.1063
-14 -3 -1 10.5928 47.2966
-14 -2 -44 -0.4299 -14.7640
-14 -2 -42 7.3551 -13.4137
-14 -2 -40 11.9069 21.2789
-14 -2 -38 12.2593 2.7788
-14 -2 -36 1.6614 -13.7169
-14 -2 -34 11.9556 -16.2656
-14 -2 -32 7.9853 -13.5269
-14 -2 -30 -3.4306 -3.2213
-14 -2 -28 3.9883 -1.2801
-14 -2 -26 9.2290 -5.4975
-14 -2 -24 21.3896 -14.1169
-14 -2 -22 -38.2527 -21.6443
-14 -2 -20 -63.3827 13.2000
-14 -2 -18 8.6464 17.0645
-14 -2 -16 37.1618 -0.5623
-14 -2 -14 17.3387 -4.5141
-14 -2 -12 -48.7504 78.8226
-14 -2 -10 -4.1212 105.9591
-14 -2 -8 1.1291 38.2728
-14 -2 -6 36.9342 32.1556
-14 -2 -4 -37.9386 48.2875
-14 -2 -2 -54.6981 -59.4383
-14 -1 -43 -1.8165 1.2447
-14 -1 -41 0.0947 -6.6148
-14 -1 -39 0.0696 0.7952
-14 -1 -37 -7.8351 -26.8410
-14 -1 -35 4.0074 3.3363
-14 -1 -33 -11.3532 5.3852
-14 -1 -31 9.9344 12.5907
-14 -1 -29 -13.1954 -9.7384
-14 -1 -27 5.6273 -5.6217
-14 -1 -25 8.5503 19.5012
-14 -1 -23 -7.1090 3.8287
-14 -1 -21 -15.7585 -2.0283
-14 -1 -19 -15.7104 10.8697
-14 -1 -17 -43.0129 39.6588
-14 -1 -15 40.8052 15.6199
-14 -1 -13 -45.7343 -37.5992
-14 -1 -11 -61.6083 -31.1818
-14 -1 -9 -27.6706 42.9743
-14 -1 -7 -10.1499 -30.0153
-14 -1 -5 55.6519 -35.0719
-14 -1 -3 3.5900 -41.4782
-14 -1 -1 78.6481 78.8548
-13 -12 -43 11.9796 11.2072
-13 -12 -41 1.4866 -15.3311
-13 -12 -39 -0.2515 -2.9006
-13 -12 -37 8.1011 17.2188
-13 -12 -35 1.9813 -2.5062
-13 -12 -33 1.1401 2.1297
-13 -12 -31 8.7529 1.1443
-13 -12 -29 18.0145 9.7503
-13 -12 -27 7.7530 -3.1640
-13 -12 -25 6.7291 3.5621
-13 -12 -23 6.9377 22.4015
-13 -12 -21 -19.4056 -4.8851
-13 -12 -19 -10.4868 28.3040
-13 -12 -17 -12.7109 -8.2523
-13 -12 -15 -20.4137 0.4425
-13 -12 -13 -0.4967 -35.3632
-13 -12 -11 11.7577 62.8485
-13 -12 -9 74.0222 -66.4876
-13 -12 -7 23.5733 -30.8803
-13 -12 -5 20.8644 -35.9843
-13 -12 -3 -13.8144 2.2430
-13 -12 -1 -0.5000 8.9493
-13 -11 -42 10.9609 -0.4290
-13 -11 -40 -7.8886 -18.3783
-13 -11 -38 -0.3546 -0.9270
-13 -11 -36 -5.5166 -5.7827
-13 -11 -34 4.1432 -9.6148
-13 -11 -32 10.8840 7.8827
-13 -11 -30 -24.1186 6.5535
-13 -11 -28 -6.9412 -4.1514
-13 -11 -26 4.2540 -5.3267
-13 -11 -24 3.7507 3.9175
-13 -11 -22 -9.9282 -6.0564
-13 -11 -20 24.7890 8.0080
-13 -11 -18 -19.9810 -10.0925
-13 -11 -16 -26.4498 -33.5042
-13 -11 -14 -70.5514 87.8608
-13 -11 -12 -0.4095 52.5585
-13 -11 -10 -4.6780 -5.0018
-13 -11 -8 59.5184 2.0742
-13 -11 -6 -14.9255 42.9763
-13 -11 -4 5.3212 -5.9109
-13 -11 -2 122.1003 39.5150
-13 -10 -43 20.6092 -6.5679
-13 -10 -41 -15.6669 -4.1823
-13 -10 -39 -10.6457 2.1739
-13 -10 -37 -14.7922 -12.9919
-13 -10 -35 0.8417 -1.9131
-13 -10 -33 -1.6000 6.5690
-13 -10 -31 -6.1687 -3.2143
-13 -10 -29 1.4567 -10.9703
-13 -10 -27 -0.7016 -8.1996
-13 -10 -25 19.1749 -8.1570
-13 -10 -23 10.2516 9.9784
-13 -10 -21 -42.9183 15.4688
-13 -10 -19 7.2917 -27.0300
-13 -10 -17 30.2857 24.1264
-13 -10 -15 -30.3744 -27.0134
-13 -10 -13 28.4761 1.8361
-13 -10 -11 18.9675 73.7014
-13 -10 -9 124.9694 28.2825
-13 -10 -7 -3.7481 -32.2250
-13 -10 -5 -57.9165 -18.3759
-13 -10 -3 -26.6302 32.2466
-13 -10 -1 78.9915 45.1348
-13 -9 -42 -10.4961 -6.5694
-13 -9 -40 11.6202 -10.4611
-13 -9 -38 -8.0368 5.8266
-13 -9 -36 0.6383 0.4866
-13 -9 -34 -2.8472 -0.9892
-13 -9 -32 3.1551 3.8331
-13 -9 -30 9.0419 -11.9962
-13 -9 -28 5.2818 -0.2897
-13 -9 -26 4.2602 0.7044
-13 -9 -24 -10.3954 -5.5225
-13 -9 -22 13.8116 -23.2198
-13 -9 -20 7.0557 -11.8341
-13 -9 -18 -15.7650 -7.1667
-13 -9 -16 35.3273 -0.1840
-13 -9 -14 -29.2742 21.9528
-13 -9 -12 -21.8336 30.2430
-13 -9 -10 40.8667 -49.6531
-13 -9 -8 -53.0244 81.0570
-13 -9 -6 -47.9729 -16.0532
-13 -9 -4 20.4189 -8.3471
-13 -9 -2 93.6240 13.5481
-13 -8 -43 7.7872 -29.4296
-13 -8 -41 5.9739 6.5209
-13 -8 -39 -1.0898 0.7297
-13 -8 -37 2.4274 -0.2218
-13 -8 -35 -0.2954 -1.4258
-13 -8 -33 -7.8157 6.1841
-13 -8 -31 -4.8458 -18.4050
-13 -8 -29 -3.5485 -2.5303
-13 -8 -27 9.9385 -12.9871
-13 -8 -25 -3.9087 7.9852
-13 -8 -23 10.2086 29.8523
-13 -8 -21 -16.5716 -11.7298
-13 -8 -19 -22.4641 27.7028
-13 -8 -17 35.5424 -4.2333
-13 -8 -15 25.2916 -24.2399
-13 -8 -13 -91.9087 -21.5436
-13 -8 -11 0.2527 -33.4411
-13 -8 -9 26.5695 7.3024
-13 -8 -7 -23.5149 46.4712
-13 -8 -5 30.3727 112.5546
-13 -8 -3 -69.0901 38.0619
-13 -8 -1 -61.2790 72.6581
-13 -7 -42 3.1424 -8.2092
-13 -7 -40 -6.0454 23.9518
-13 -7 -38 -0.7345 -2.7693
-13 -7 -36 -0.7200 -0.0286
-13 -7 -34 1.4492 -4.1915
-13 -7 -32 16.4294 7.4532
-13 -7 -30 -10.9407 -0.9312
-13 -7 -28 -11.7957 3.0109
-13 -7 -26 15.1567 3.3341
-13 -7 -24 -4.9319 -8.2505
-13 -7 -22 -8.1996 1.2205
-13 -7 -20 1.0685 6.9967
-13 -7 -18 21.6134 11.0095
-13 -7 -16 9.1560 -54.4741
-13 -7 -14 22.9091 -30.9268
-13 -7 -12 48.7172 24.7199
-13 -7 -10 -59.9161 45.8544
-13 -7 -8 -11.5031 -70.0940
-13 -7 -6 91.0189 80.7238
-13 -7 -4 -25.3523 1.5788
-13 -7 -2 -31.4989 49.4994
-13 -6 -43 8.4307 -11.6532
-13 -6 -41 -0.1746 2.8859
-13 -6 -39 -0.3146 -0.4112
-13 -6 -37 0.0656 -16.7197
-13 -6 -35 -17.5438 -0.3519
-13 -6 -33 4.8322 2.3904
-13 -6 -31 -3.1586 7.2713
-13 -6 -29 -3.1071 -17.5642
-13 -6 -27 -9.0022 -2.9909
-13 -6 -25 -0.8235 -3.6092
-13 -6 -23 3.3508 -46.2768
-13 -6 -21 35.1241 -6.9746
-13 -6 -19 -15.0012 30.5794
-13 -6 -17 7.3113 21.8994
-13 -6 -15 9.6988 -4.3456
-13 -6 -13 -31.4855 33.5419
-13 -6 -11 -3.7181 2.5598
-13 -6 -9 -10.0097 -26.0033
-13 -6 -7 -109.6836 34.0619
-13 -6 -5 -39.3476 -98.0642
-13 -6 -3 81.5553 -75.0150
-13 -6 -1 49.2138 -102.7136
-13 -5 -44 -3.7543 -19.3753
-13 -5 -42 7.9477 -11.5333
-13 -5 -40 -5.9043 12.6892
-13 -5 -38 1.5288 -4.9883
-13 -5 -36 -23.6321 -13.0481
-13 -5 -34 17.5254 -3.4451
-13 -5 -32 -13.2147 9.1901
-13 -5 -30 -20.9421 -3.6201
-13 -5 -28 19.8529 -12.4991
-13 -5 -26 20.6635 34.0722
-13 -5 -24 -14.8430 18.4253
-13 -5 -22 -13.1245 -7.8148
-13 -5 -20 10.5149 18.6962
-13 -5 -18 -27.8907 13.4680
-13 -5 -16 72.6192 -25.7297
-13 -5 -14 42.8621 -29.8920
-13 -5 -12 -24.1338 -42.3488
-13 -5 -10 -50.5713 93.0226
-13 -5 -8 20.5723 -92.6189
-13 -5 -6 169.6931 -7.8022
-13 -5 -4 32.4199 55.2688
-13 -5 -2 239.5571 -54.9252
-13 -4 -43 -9.8852 14.4583
-13 -4 -41 -0.8657 -0.5856
-13 -4 -39 13.6724 -0.0340
-13 -4 -37 -8.6335 -10.1270
-13 -4 -35 -15.6567 8.6644
-13 -4 -33 0.4838 0.8944
-13 -4 -31 6.3031 -3.9505
-13 -4 -29 9.7735 1.8307
-13 -4 -27 -8.1981 -2.1962
-13 -4 -25 -11.2268 25.1694
-13 -4 -23 -5.5124 -36.1707
-13 -4 -21 17.1319 -6.7727
-13 -4 -19 -8.1272 13.8384
-13 -4 -17 11.5662 7.2065
-13 -4 -15 -35.0324 24.6440
-13 -4 -13 117.5088 2.5976
-13 -4 -11 11.5548 -54.6402
-13 -4 -9 -11.8057 105.8437
-13 -4 -7 32.9680 30.3636
-13 -4 -5 7.6925 14.9207
-13 -4 -3 31.3610 -144.5460
-13 -4 -1 -46.8595 -77.1569
-13 -3 -44 2.8027 1.7427
-13 -3 -42 -1.5200 -2.1369
-13 -3 -40 2.6263 2.9609
-13 -3 -38 -8.5951 -11.2352
-13 -3 -36 1.2265 -2.1368
-13 -3 -34 -3.6664 -7.4176
-13 -3 -32 3.1201 -0.9761
-13 -3 -30 15.7346 11.1301
-13 -3 -28 -0.3251 -4.4778
-13 -3 -26 17.0465 -14.4188
-13 -3 -24 11.0920 31.0746
-13 -3 -22 10.3909 -4.2789
-13 -3 -20 41.7150 3.2918
-13 -3 -18 -19.6103 18.4468
-13 -3 -16 33.8786 25.8065
-13 -3 -14 19.4177 -35.7686
-13 -3 -12 17.4415 -23.7513
-13 -3 -10 -100.6781 -27.5738
-13 -3 -8 24.9267 5.6121
-13 -3 -6 92.7467 136.1481
-13 -3 -4 20.3968 49.5521
-13 -3 -2 -169.3048 60.6442
-13 -2 -43 9.2143 -25.0944
-13 -2 -41 0.3108 1.2850
-13 -2 -39 0.0210 0.1006
-13 -2 -37 -1.0956 -10.1321
-13 -2 -35 -0.2573 -13.1665
-13 -2 -33 -7.5250 8.3451
-13 -2 -31 -7.4111 10.1456
-13 -2 -29 3.3202 -3.7860
-13 -2 -27 -12.9985 -11.4637
-13 -2 -25 1.6850 1.3403
-13 -2 -23 7.8957 -46.6669
-13 -2 -21 -21.4276 6.0893
-13 -2 -19 -35.2570 4.7855
-13 -2 -17 -25.9637 -0.5792
-13 -2 -15 -29.0557 43.9722
-13 -2 -13 36.5106 -80.9841
-13 -2 -11 22.5005 -13.6159
-13 -2 -9 -53.6493 75.2870
-13 -2 -7 22.3736 2.8571
-13 -2 -5 64.3178 26.8432
-13 -2 -3 4.8983 -40.6222
-13 -2 -1 30.7762 14.8436
-13 -1 -44 16.9724 -10.8160
-13 -1 -42 20.4855 -9.5023
-13 -1 -40 -4.4723 15.1375
-13 -1 -38 -0.9604 0.8817
-13 -1 -36 -10.8014 -13.0608
-13 -1 -34 6.2191 1.4039
-13 -1 -32 12.3544 -10.7974
-13 -1 -30 -15.6899 3.0705
-13 -1 -28 -4.6115 -20.4724
-13 -1 -26 5.3006 18.9523
-13 -1 -24 36.7623 -18.6707
-13 -1 -22 -9.8132 23.2090
-13 -1 -20 7.2197 31.3321
-13 -1 -18 14.4033 -0.4544
-13 -1 -16 35.9404 30.8493
-13 -1 -14 5.1698 -31.6125
-13 -1 -12 -77.0756 -25.2720
-13 -1 -10 -92.9097 75.3657
-13 -1 -8 6.2468 89.3519
-13 -1 -6 -39.8729 -128.4096
-13 -1 -4 21.0232 -53.2313
-13 -1 -2 -10.9199 -138.3656
-12 -11 -43 1.0159 -0.8349
-12 -11 -41 9.3260 -2.0081
-12 -11 -39 -13.0174 8.2089
-12 -11 -37 -2.0657 -2.6183
-12 -11 -35 -6.0051 2.9974
-12 -11 -33 -7.7665 -2.3963
-12 -11 -31 4.1271 -8.5863
-12 -11 -29 -7.4920 2.1210
-12 -11 -27 9.3173 6.5850
-12 -11 -25 -10.7680 -10.6891
-12 -11 -23 2.4906 12.0452
-12 -11 -21 11.6790 -0.7689
-12 -11 -19 12.4376 -41.5364
-12 -11 -17 -8.4204 -12.9498
-12 -11 -15 -2.6468 61.9066
-12 -11 -13 45.4173 -19.0654
-12 -11 -11 44.8248 -79.3295
-12 -11 -9 31.2988 28.8536
-12 -11 -7 13.2644 17.1136
-12 -11 -5 -36.1128 -1.4037
-12 -11 -3 8.3074 -7.1643
-12 -11 -1 16.3074 28.6966
-12 -10 -42 -0.7154 -0.0558
-12 -10 -40 -1.0811 12.8306
-12 -10 -38 -2.6567 -0.9377
-12 -10 -36 -0.3145 -0.8880
-12 -10 -34 0.2614 -1.4144
-12 -10 -32 -6.3798 5.1698
-12 -10 -30 -2.8921 -1.0648
-12 -10 -28 5.5372 0.3474
-12 -10 -26 3.6305 3.6139
-12 -10 -24 -3.7688 -4.8722
-12 -10 -22 -13.2197 -4.1678
-12 -10 -20 22.6572 -6.4562
-12 -10 -18 -3.5924 -6.5993
-12 -10 -16 -38.2081 -4.0905
-12 -10 -14 23.6738 63.5824
-12 -10 -12 27.0490 -27.5620
-12 -10 -10 -14.5219 -83.1472
-12 -10 -8 95.3914 86.1618
-12 -10 -6 45.6448 100.2288
-12 -10 -4 18.9035 15.7747
-12 -10 -2 22.7990 -53.9951
-12 -9 -43 -0.2308 -1.3558
-12 -9 -41 -17.4408 -9.0685
-12 -9 -39 -2.0708 -2.0576
-12 -9 -37 9.6527 -14.8983
-12 -9 -35 0.8517 -1.6852
-12 -9 -33 -5.5838 3.7020
-12 -9 -31 8.4742 9.7679
-12 -9 -29 1.2385 10.7970
-12 -9 -27 -6.0654 10.1956
-12 -9 -25 -0.8575 -2.2376
-12 -9 -23 -33.8838 -19.4712
-12 -9 -21 14.8300 -18.9010
-12 -9 -19 12.6131 21.4023
-12 -9 -17 -16.4950 38.2873
-12 -9 -15 -11.5858 10.6153
-12 -9 -13 -17.4636 -11.3474
-12 -9 -11 -4.5260 -54.9724
-12 -9 -9 1.6368 37.0981
-12 -9 -7 -35.3595 99.6760
-12 -9 -5 -40.7236 -40.7494
-12 -9 -3 -40.5357 -79.6183
-12 -9 -1 22.7812 7.0817
-12 -8 -44 10.8873 -14.3899
-12 -8 -42 -5.2307 11.7065
-12 -8 -40 -6.7967 15.0161
-12 -8 -38 0.1037 1.7290
-12 -8 -36 15.1198 -9.5771
-12 -8 -34 -2.0586 3.0632
-12 -8 -32 -9.7520 -11.6269
-12 -8 -30 -8.1653 6.2705
-12 -8 -28 -10.8811 11.8879
-12 -8 -26 7.9180 1.8978
-12 -8 -24 4.3597 -10.8632
-12 -8 -22 21.3385 -8.1953
-12 -8 -20 -3.8633 -21.8931
-12 -8 -18 37.5162 10.6573
-12 -8 -16 -5.0486 22.4502
-12 -8 -14 14.4258 -41.6363
-12 -8 -12 -31.4759 15.6671
-12 -8 -10 26.3129 -11.4337
-12 -8 -8 -39.1209 2.4307
-12 -8 -6 -15.0027 81.5003
-12 -8 -4 103.9244 -3.0170
-12 -8 -2 -36.6368 -55.4728
-12 -7 -43 -1.4675 -1.3773
-12 -7 -41 -2.1495 -0.3401
-12 -7 -39 -2.6514 -1.5076
-12 -7 -37 -13.1489 -3.6202
-12 -7 -35 -3.0107 0.6739
-12 -7 -33 3.3464 -2.1974
-12 -7 -31 0.1621 -1.1952
-12 -7 -29 5.0648 9.6313
-12 -7 -27 -22.2141 0.3155
-12 -7 -25 -13.8027 -27.2357
-12 -7 -23 30.5614 -12.3110
-12 -7 -21 -3.2740 42.1453
-12 -7 -19 32.5429 -0.4271
-12 -7 -17 -54.0900 -7.2681
-12 -7 -15 2.6543 38.6649
-12 -7 -13 6.5306 -43.2688
-12 -7 -11 -66.1221 28.8384
-12 -7 -9 81.3794 -64.7617
-12 -7 -7 -39.4321 -20.3571
-12 -7 -5 -71.4658 -3.3284
-12 -7 -3 70.0384 -3.2730
-12 -7 -1 -54.4729 26.1291
-12 -6 -44 -18.2830 -10.5154
-12 -6 -42 -4.8689 15.7302
-12 -6 -40 5.9144 -17.3862
-12 -6 -38 16.1354 -12.6885
-12 -6 -36 -10.4159 -15.4941
-12 -6 -34 11.7614 0.1189
-12 -6 -32 -4.7764 9.4431
-12 -6 -30 -17.6851 12.9842
-12 -6 -28 -4.4347 5.9284
-12 -6 -26 8.5682 -3.4038
-12 -6 -24 26.2456 -6.2851
-12 -6 -22 5.0525 -2.4550
-12 -6 -20 -1.6278 -8.9988
-12 -6 -18 -20.2572 -25.4304
-12 -6 -16 30.3013 -7.4663
-12 -6 -14 -26.9678 49.8222
-12 -6 -12 51.8159 -5.5374
-12 -6 -10 -23.5534 19.6924
-12 -6 -8 -13.1408 48.5818
-12 -6 -6 77.2597 19.3378
-12 -6 -4 131.8457 26.8759
-12 -6 -2 -71.3669 43.6659
-12 -5 -43 2.3170 0.0256
-12 -5 -41 6.0860 -22.4931
-12 -5 -39 11.5508 -12.9931
-12 -5 -37 -12.8784 3.7350
-12 -5 -35 9.7863 -9.2198
-12 -5 -33 14.3032 5.7864
-12 -5 -31 -9.8753 8.7562
-12 -5 -29 7.7000 2.5681
-12 -5 -27 -8.7819 21.0151
-12 -5 -25 16.9828 20.1250
-12 -5 -23 -7.9671 -1.4382
-12 -5 -21 2.8918 0.7943
-12 -5 -19 26.5382 -12.8434
-12 -5 -17 -31.1415 -22.0182
-12 -5 -15 -9.1636 -13.2937
-12 -5 -13 -24.5987 -22.6438
-12 -5 -11 15.0594 -37.1851
-12 -5 -9 11.5769 -94.2473
-12 -5 -7 12.9046 37.1943
-12 -5 -5 -12.7989 106.6728
-12 -5 -3 -36.0915 -25.5549
-12 -5 -1 -22.7758 -25.9407
-12 -4 -44 3.7604 -22.1135
-12 -4 -42 -0.8039 0.2105
-12 -4 -40 8.0508 15.1015
-12 -4 -38 -17.8969 16.7134
-12 -4 -36 -1.8876 3.6113
-12 -4 -34 -2.5340 -17.8979
-12 -4 -32 -3.6284 7.0223
-12 -4 -30 -1.0288 0.6935
-12 -4 -28 -9.4375 -8.2405
-12 -4 -26 14.1549 10.8596
-12 -4 -24 19.0047 -18.9207
-12 -4 -22 49.8176 -16.2659
-12 -4 -20 -17.9991 -12.6480
-12 -4 -18 28.9505 -8.6162
-12 -4 -16 27.3001 38.6344
-12 -4 -14 -11.7845 12.2322
-12 -4 -12 -45.5834 -41.8241
-12 -4 -10 49.5470 -30.2598
-12 -4 -8 92.8056 9.5924
-12 -4 -6 -41.0638 -35.2790
-12 -4 -4 61.5082 30.8709
-12 -4 -2 -73.0377 -18.6259
-12 -3 -43 0.3974 1.3545
-12 -3 -41 -21.5029 -5.7404
-12 -3 -39 -5.8129 -31.8786
-12 -3 -37 -2.8720 -1.2369
-12 -3 -35 16.9914 0.5594
-12 -3 -33 -0.1945 1.0695
-12 -3 -31 6.4625 -4.8235
-12 -3 -29 7.7065 16.9731
-12 -3 -27 -8.3153 -0.8151
-12 -3 -25 -38.7830 13.6350
-12 -3 -23 -8.8838 6.9811
-12 -3 -21 9.9281 -19.9021
-12 -3 -19 4.1547 23.0960
-12 -3 -17 -30.1391 20.0262
-12 -3 -15 9.9447 48.4279
-12 -3 -13 -15.0609 -26.1731
-12 -3 -11 23.8893 40.2010
-12 -3 -9 27.8504 61.8359
-12 -3 -7 37.0626 -50.0997
-12 -3 -5 17.1169 73.1944
-12 -3 -3 -43.9438 -158.1946
-12 -3 -1 -17.1935 -29.0871
-12 -2 -44 11.8733 -23.3549
-12 -2 -42 -10.2075 -20.0963
-12 -2 -40 -16.5514 0.9439
-12 -2 -38 5.3917 -6.8721
-12 -2 -36 14.9374 3.1211
-12 -2 -34 -8.9433 16.2244
-12 -2 -32 -2.5129 1.7260
-12 -2 -30 8.1245 -2.2992
-12 -2 -28 -1.1423 -5.9234
-12 -2 -26 18.6634 -7.3570
-12 -2 -24 18.9775 8.4207
-12 -2 -22 -37.2294 30.0126
-12 -2 -20 -27.9912 -6.9075
-12 -2 -18 22.4650 6.1829
-12 -2 -16 -36.1126 6.6086
-12 -2 -14 33.1607 -35.4858
-12 -2 -12 23.0982 4.1753
-12 -2 -10 -28.6065 -2.6396
-12 -2 -8 -122.0167 47.7911
-12 -2 -6 36.4617 -105.6662
-12 -2 -4 -17.3746 67.0979
-12 -2 -2 -47.7900 -43.1426
-12 -1 -43 6.4223 22.6197
-12 -1 -41 -14.7751 -1.7778
-12 -1 -39 -7.9900 17.8462
-12 -1 -37 -7.0574 21.7370
-12 -1 -35 -5.6497 -3.1171
-12 -1 -33 2.4599 6.1393
-12 -1 -31 -24.6911 -4.2223
-12 -1 -29 14.7556 -15.3368
-12 -1 -27 5.7017 -12.7962
-12 -1 -25 -30.4217 2.9116
-12 -1 -23 -8.9916 -5.4674
-12 -1 -21 14.4292 -9.4929
-12 -1 -19 22.5040 -18.2300
-12 -1 -17 -29.9660 -25.4321
-12 -1 -15 -29.4535 34.9429
-12 -1 -13 -7.4923 -27.5062
-12 -1 -11 43.4130 -16.0623
-12 -1 -9 -20.9462 97.1370
-12 -1 -7 -44.8361 19.7902
-12 -1 -5 -135.8745 -5.1160
-12 -1 -3 -28.9892 12.2215
-12 -1 -1 54.7301 -72.3369
-11 -10 -43 -0.3576 1.3091
-11 -10 -41 0.0970 -0.1411
-11 -10 -39 1.2400 3.5991
-11 -10 -37 -20.4079 -1.2862
-11 -10 -35 -3.0044 -0.3941
-11 -10 -33 11.9076 5.4438
-11 -10 -31 -6.1730 -11.3052
-11 -10 -29 -5.7637 -7.6957
-11 -10 -27 7.5761 -13.4423
-11 -10 -25 9.1632 14.8492
-11 -10 -23 -13.8003 -7.0829
-11 -10 -21 -11.2846 -19.1838
-11 -10 -19 18.2499 -8.3485
-11 -10 -17 11.4694 -26.3516
-11 -10 -15 -16.6489 -12.0827
-11 -10 -13 -34.7131 -6.2145
-11 -10 -11 -72.9409 24.2133
-11 -10 -9 27.6172 13.6604
-11 -10 -7 25.6227 20.0545
-11 -10 -5 -51.4615 -62.1487
-11 -10 -3 12.5518 -2.6364
-11 -10 -1 42.0295 31.0429
-11 -9 -44 -11.5167 -9.1320
-11 -9 -42 5.5388 -9.5194
-11 -9 -40 10.9214 16.7302
-11 -9 -38 1.4163 0.3443
-11 -9 -36 -0.0265 0.5729
-11 -9 -34 -1.8742 14.8003
-11 -9 -32 6.0719 9.3232
-11 -9 -30 8.1133 11.9580
-11 -9 -28 -7.3825 2.3480
-11 -9 -26 23.1571 4.1128
-11 -9 -24 14.1292 0.7773
-11 -9 -22 -4.5959 3.0407
-11 -9 -20 20.6572 7.3843
-11 -9 -18 -55.2932 -2.0239
-11 -9 -16 -24.7376 90.9431
-11 -9 -14 -89.0007 20.1158
-11 -9 -12 -0.2980 -30.3660
-11 -9 -10 -93.6505 -124.6097
-11 -9 -8 44.2056 -94.6228
-11 -9 -6 -24.5354 -13.3630
-11 -9 -4 -77.9222 -25.5906
-11 -9 -2 -7.0660 -36.1131
-11 -8 -43 -21.8756 -19.2059
-11 -8 -41 14.1471 -23.5216
-11 -8 -39 -0.0934 2.0011
-11 -8 -37 3.3885 2.2839
-11 -8 -35 8.6164 6.6923
-11 -8 -33 -5.1376 4.7406
-11 -8 -31 8.5545 -3.1716
-11 -8 -29 -0.1661 0.2988
-11 -8 -27 -7.5391 0.4482
-11 -8 -25 -20.4022 19.0023
-11 -8 -23 -7.1918 -11.4133
-11 -8 -21 28.8337 -4.1758
-11 -8 -19 -17.8021 -25.5483
-11 -8 -17 7.7167 7.3429
-11 -8 -15 -15.2959 -7.2040
-11 -8 -13 2.0664 57.0510
-11 -8 -11 59.5944 -10.8117
-11 -8 -9 -53.2517 103.1549
-11 -8 -7 -44.6375 -3.1699
-11 -8 -5 99.2712 -37.6693
-11 -8 -3 -59.9124 59.9279
-11 -8 -1 32.3074 13.4273
-11 -7 -44 1.6873 16.0353
-11 -7 -42 20.4862 -7.1019
-11 -7 -40 6.1622 -20.2015
-11 -7 -38 -0.1383 -1.1426
-11 -7 -36 1.1057 6.5795
-11 -7 -34 0.7958 11.0224
-11 -7 -32 3.3947 2.1393
-11 -7 -30 -8.6455 -6.8842
-11 -7 -28 -15.6750 -11.3491
-11 -7 -26 -0.5956 11.9710
-11 -7 -24 -4.3678 0.8851
-11 -7 -22 -3.5068 5.4986
-11 -7 -20 9.3555 10.9062
-11 -7 -18 15.2728 -12.1307
-11 -7 -16 8.6606 -9.8390
-11 -7 -14 51.1508 -34.2707
-11 -7 -12 -88.8815 -0.3251
-11 -7 -10 -41.3236 91.2999
-11 -7 -8 24.4343 -41.1627
-11 -7 -6 18.5596 -67.6193
-11 -7 -4 112.3674 53.0349
-11 -7 -2 -109.6186 -6.6675
-11 -6 -43 3.5410 -14.6683
-11 -6 -41 -18.7071 0.6329
-11 -6 -39 -8.0756 -14.2343
-11 -6 -37 -17.3613 -9.6021
-11 -6 -35 -1.1761 -9.3679
-11 -6 -33 0.7265 2.4535
-11 -6 -31 7.9085 -0.5943
-11 -6 -29 1.5694 -2.1354
-11 -6 -27 -12.1850 6.4271
-11 -6 -25 -23.7121 25.7618
-11 -6 -23 4.6992 49.2151
-11 -6 -21 -16.0423 2.2480
-11 -6 -19 -27.2183 -25.8265
-11 -6 -17 5.7986 50.6859
-11 -6 -15 7.7427 -4.7957
-11 -6 -13 -37.0501 -31.4454
-11 -6 -11 37.4236 -40.7083
-11 -6 -9 5.4988 66.1734
-11 -6 -7 17.4652 -26.2632
-11 -6 -5 28.6739 -117.0050
-11 -6 -3 -124.1030 16.8582
-11 -6 -1 193.4674 38.7091
-11 -5 -44 0.4728 2.3928
-11 -5 -42 -18.6727 -19.4839
-11 -5 -40 21.1815 -9.8976
-11 -5 -38 -19.9831 7.5780
-11 -5 -36 -0.2133 1.7188
-11 -5 -34 19.3777 -2.9339
-11 -5 -32 15.8766 -8.2511
-11 -5 -30 -18.0015 -1.3990
-11 -5 -28 -11.5126 -4.0828
-11 -5 -26 -2.5982 4.1335
-11 -5 -24 4.1818 14.5581
-11 -5 -22 7.9694 -3.8933
-11 -5 -20 0.9622 0.6039
-11 -5 -18 -16.6637 8.6044
-11 -5 -16 37.7204 7.5147
-11 -5 -14 -22.0916 -46.8313
-11 -5 -12 41.4360 -43.2838
-11 -5 -10 -126.0725 71.6371
-11 -5 -8 -11.1702 45.8204
-11 -5 -6 225.1226 85.5073
-11 -5 -4 -34.6230 -43.8443
-11 -5 -2 -29.0782 -77.9104
-11 -4 -43 26.5595 -1.9919
-11 -4 -41 22.9032 8.3910
-11 -4 -39 -31.9295 11.0599
-11 -4 -37 3.3375 2.5561
-11 -4 -35 -19.9953 7.9679
-11 -4 -33 -2.0531 10.0805
-11 -4 -31 22.1146 -0.6415
-11 -4 -29 -0.5161 5.2920
-11 -4 -27 5.7239 -3.2712
-11 -4 -25 -7.6562 11.5558
-11 -4 -23 3.2655 -45.5697
-11 -4 -21 0.8563 2.8481
-11 -4 -19 -5.5895 36.4481
-11 -4 -17 -8.7015 -1.8591
-11 -4 -15 -38.3775 17.5569
-11 -4 -13 47.6736 0.1819
-11 -4 -11 -18.3384 -28.8765
-11 -4 -9 -83.5025 50.7003
-11 -4 -7 -40.0348 29.7438
-11 -4 -5 67.9551 55.3763
-11 -4 -3 -107.5896 -114.0886
-11 -4 -1 98.5751 -266.9867
-11 -3 -44 -16.6276 -14.3052
-11 -3 -42 1.4934 -1.1975
-11 -3 -40 -6.2454 -17.5532
-11 -3 -38 -11.7400 7.2381
-11 -3 -36 1.5413 -14.3163
-11 -3 -34 0.4487 -6.7978
-11 -3 -32 -10.7761 7.7598
-11 -3 -30 0.9577 -10.8150
-11 -3 -28 12.5466 -11.9560
-11 -3 -26 4.5199 -23.1724
-11 -3 -24 -14.1324 -4.9867
-11 -3 -22 6.0055 -40.6161
-11 -3 -20 4.2778 -14.6380
-11 -3 -18 -4.9440 26.3709
-11 -3 -16 13.8451 -26.2189
-11 -3 -14 -16.0604 -31.3664
-11 -3 -12 -53.5877 -40.2142
-11 -3 -10 -62.9472 -19.5121
-11 -3 -8 -50.0088 49.2344
-11 -3 -6 129.5008 19.9146
-11 -3 -4 -3.7092 -64.9526
-11 -3 -2 88.3286 -80.6236
-11 -2 -43 -10.6005 -21.0365
-11 -2 -41 -14.5536 10.7069
-11 -2 -39 -2.1809 -22.6469
-11 -2 -37 1.8240 -4.2598
-11 -2 -35 15.8537 -1.1025
-11 -2 -33 2.3186 -6.3289
-11 -2 -31 2.5732 6.3116
-11 -2 -29 11.8049 -13.2300
-11 -2 -27 -7.0074 3.4241
-11 -2 -25 2.4947 13.9687
-11 -2 -23 -13.1853 -6.3144
-11 -2 -21 -10.3815 -7.5866
-11 -2 -19 4.0175 5.4030
-11 -2 -17 24.5326 8.2341
-11 -2 -15 19.6313 -1.6575
-11 -2 -13 -36.3520 -86.0436
-11 -2 -11 38.8940 -62.3163
-11 -2 -9 -12.2628 -38.9468
-11 -2 -7 -46.3720 143.3684
-11 -2 -5 98.8212 81.4252
-11 -2 -3 -22.1735 -120.7772
-11 -2 -1 -64.4991 0.2678
-11 -1 -44 22.5258 -6.7544
-11 -1 -42 -7.8074 -1.4287
-11 -1 -40 -7.4943 14.6678
-11 -1 -38 -13.0372 14.5578
-11 -1 -36 -12.3035 14.2540
-11 -1 -34 2.5590 -4.4809
-11 -1 -32 -0.5578 5.3188
-11 -1 -30 -10.9472 4.2701
-11 -1 -28 9.0614 8.9871
-11 -1 -26 34.8376 -7.6472
-11 -1 -24 -8.3744 44.0885
-11 -1 -22 -19.6552 32.8408
-11 -1 -20 42.8012 -5.0353
-11 -1 -18 0.2967 -32.5994
-11 -1 -16 47.3004 14.8498
-11 -1 -14 71.4220 36.5909
-11 -1 -12 23.3179 -12.4631
-11 -1 -10 1.5865 -13.2008
-11 -1 -8 -96.4728 -29.9529
-11 -1 -6 58.2351 -32.8759
-11 -1 -4 5.1698 -93.1127
-11 -1 -2 10.4694 -34.8675
-10 -9 -43 3.3798 8.6036
-10 -9 -41 6.2485 -23.8359
-10 -9 -39 -4.1587 -0.3753
-10 -9 -37 -2.5950 17.2532
-10 -9 -35 2.1632 -0.8143
-10 -9 -33 -1.0244 -6.0519
-10 -9 -31 5.4816 -1.4399
-10 -9 -29 0.8830 -9.4214
-10 -9 -27 -13.8040 11.7487
-10 -9 -25 12.9415 17.1559
-10 -9 -23 -29.2646 26.8170
-10 -9 -21 10.7746 -4.4982
-10 -9 -19 30.8236 -3.8581
-10 -9 -17 45.8468 37.1247
-10 -9 -15 -17.0698 6.7384
-10 -9 -13 -42.5911 -47.3719
-10 -9 -11 -76.1873 36.3604
-10 -9 -9 -102.8515 62.4115
-10 -9 -7 23.1803 45.5341
-10 -9 -5 -6.1262 39.8415
-10 -9 -3 52.1677 -132.2680
-10 -9 -1 68.7495 1.7929
-10 -8 -44 -14.8262 6.4819
-10 -8 -42 -7.2929 -9.2186
-10 -8 -40 -0.6865 -14.4282
-10 -8 -38 -1.5687 -0.5402
-10 -8 -36 -1.0138 -0.4872
-10 -8 -34 -3.7680 -12.8154
-10 -8 -32 -4.1528 -18.8936
-10 -8 -30 10.6492 -5.5928
-10 -8 -28 -0.0472 4.0213
-10 -8 -26 -5.2811 2.7414
-10 -8 -24 -3.5031 -8.5139
-10 -8 -22 13.6718 -1.9577
-10 -8 -20 -10.3379 -4.8770
-10 -8 -18 0.9769 17.5427
-10 -8 -16 -19.5478 0.4136
-10 -8 -14 -25.5292 -33.9134
-10 -8 -12 84.0732 49.4457
-10 -8 -10 -5.7764 -113.8612
-10 -8 -8 -40.6593 -95.7733
-10 -8 -6 6.3303 88.4475
-10 -8 -4 45.8444 -89.2179
-10 -8 -2 -13.5122 0.0035
-10 -7 -43 -0.6300 -1.6458
-10 -7 -41 8.8402 -2.9133
-10 -7 -39 -9.0256 -8.2448
-10 -7 -37 7.3259 10.8537
-10 -7 -35 -2.7528 -1.4296
-10 -7 -33 1.1916 1.9703
-10 -7 -31 4.3168 0.5245
-10 -7 -29 -8.3130 3.1415
-10 -7 -27 7.6127 19.0736
-10 -7 -25 -11.3580 -40.5666
-10 -7 -23 25.5350 8.4163
-10 -7 -21 19.8814 23.4144
-10 -7 -19 -25.8382 4.3051
-10 -7 -17 45.5390 -59.9256
-10 -7 -15 -2.9287 7.2871
-10 -7 -13 -27.4051 -31.0537
-10 -7 -11 3.9315 -71.2771
-10 -7 -9 -39.0379 11.7814
-10 -7 -7 -8.3704 25.1695
-10 -7 -5 -25.3977 -32.9202
-10 -7 -3 7.3862 4.2005
-10 -7 -1 -69.1019 35.0849
-10 -6 -44 27.9134 -7.5205
-10 -6 -42 13.7987 -1.2715
-10 -6 -40 13.8804 -11.9675
-10 -6 -38 0.7828 -1.1747
-10 -6 -36 -3.9005 1.0691
-10 -6 -34 -13.9648 -0.3216
-10 -6 -32 18.5610 3.9602
-10 -6 -30 -2.2168 2.4391
-10 -6 -28 16.0667 14.9851
-10 -6 -26 -13.9604 4.8301
-10 -6 -24 12.2689 -30.2151
-10 -6 -22 24.4821 -12.3958
-10 -6 -20 -7.4670 0.8207
-10 -6 -18 10.8410 -25.7135
-10 -6 -16 -41.1802 -16.9080
-10 -6 -14 -4.1587 -35.9424
-10 -6 -12 6.2204 -59.5162
-10 -6 -10 8.0476 -41.8769
-10 -6 -8 -32.3950 11.2901
-10 -6 -6 -53.6970 -68.1367
-10 -6 -4 -172.4939 207.9801
-10 -6 -2 -74.1616 45.8612
-10 -5 -43 -6.9857 -0.6967
-10 -5 -41 1.4854 -3.1572
-10 -5 -39 -16.0633 11.8242
-10 -5 -37 -6.6178 4.0492
-10 -5 -35 -4.2524 16.7413
-10 -5 -33 1.2024 0.0662
-10 -5 -31 -1.4963 0.4034
-10 -5 -29 -5.4885 5.3918
-10 -5 -27 12.4244 -13.1170
-10 -5 -25 8.5624 -28.1610
-10 -5 -23 -11.8501 3.9297
-10 -5 -21 7.7347 -29.9228
-10 -5 -19 12.0245 24.8270
-10 -5 -17 43.7305 16.1748
-10 -5 -15 3.1931 15.2626
-10 -5 -13 61.6244 -27.4265
-10 -5 -11 7.9968 55.0663
-10 -5 -9 -61.5623 -5.1062
-10 -5 -7 126.2205 -159.4155
-10 -5 -5 -6.7359 -10.8561
-10 -5 -3 -22.9120 115.8979
-10 -5 -1 78.1029 138.3767
-10 -4 -44 -4.6581 8.4326
-10 -4 -42 11.9838 -8.4026
-10 -4 -40 -16.6109 12.2675
-10 -4 -38 -12.7139 23.9870
-10 -4 -36 -7.1147 7.2696
-10 -4 -34 1.8494 0.8100
-10 -4 -32 -3.8948 -1.8866
-10 -4 -30 -2.3766 -0.0088
-10 -4 -28 -4.0451 -9.1091
-10 -4 -26 0.5583 -11.8986
-10 -4 -24 11.9760 16.0936
-10 -4 -22 1.6025 17.3123
-10 -4 -20 -24.5593 7.5472
-10 -4 -18 24.7676 31.1916
-10 -4 -16 29.3379 0.4472
-10 -4 -14 16.3526 41.1498
-10 -4 -12 -32.7503 -37.1491
-10 -4 -10 -20.7811 -10.4875
-10 -4 -8 -74.2841 2.5150
-10 -4 -6 74.5910 -79.9410
-10 -4 -4 -137.3478 103.0565
-10 -4 -2 -45.7574 46.3607
-10 -3 -43 5.2272 -4.6832
-10 -3 -41 -11.5442 -18.9498
-10 -3 -39 3.6025 -1.7064
-10 -3 -37 11.5417 9.5980
-10 -3 -35 -0.4069 -2.0048
-10 -3 -33 -13.4410 -7.9248
-10 -3 -31 -4.5209 1.3558
-10 -3 -29 -5.6838 -9.2795
-10 -3 -27 -7.3347 7.4678
-10 -3 -25 -32.7827 4.3575
-10 -3 -23 -18.3283 3.5738
-10 -3 -21 15.6111 18.7940
-10 -3 -19 25.8735 3.6454
-10 -3 -17 -15.9246 -9.2944
-10 -3 -15 33.5774 -8.8736
-10 -3 -13 -8.6432 -29.1362
-10 -3 -11 89.4728 32.2717
-10 -3 -9 18.9043 -24.0034
-10 -3 -7 109.6614 22.2924
-10 -3 -5 -1.9247 -19.5910
-10 -3 -3 -66.5223 -111.8054
-10 -3 -1 192.9799 -94.2191
-10 -2 -44 0.0867 -25.8857
-10 -2 -42 -0.5057 0.4566
-10 -2 -40 1.9962 -2.0276
-10 -2 -38 12.2728 -11.5345
-10 -2 -36 -16.6865 6.4628
-10 -2 -34 25.9352 -5.8488
-10 -2 -32 -13.6505 -2.5365
-10 -2 -30 -3.8004 -6.3803
-10 -2 -28 -19.2774 -6.3885
-10 -2 -26 6.9157 1.2346
-10 -2 -24 16.9199 -5.4216
-10 -2 -22 -4.0880 44.8684
-10 -2 -20 6.2974 18.9649
-10 -2 -18 -11.8510 -1.0198
-10 -2 -16 -7.8505 29.6383
-10 -2 -14 2.6629 -22.5606
-10 -2 -12 -1.3103 -20.1370
-10 -2 -10 27.4073 -57.2938
-10 -2 -8 30.4293 -135.4802
-10 -2 -6 -100.4863 84.4099
-10 -2 -4 18.7359 90.9553
-10 -2 -2 -89.9117 -34.2665
-10 -1 -45 -0.9562 -2.5752
-10 -1 -43 2.6974 22.6422
-10 -1 -41 -8.2779 -10.3554
-10 -1 -39 14.9672 -3.0925
-10 -1 -37 -28.1618 17.0180
-10 -1 -35 2.8363 16.0671
-10 -1 -33 1.5658 -2.8689
-10 -1 -31 11.3216 -19.3519
-10 -1 -29 -0.4753 -7.6717
-10 -1 -27 0.6120 -1.4670
-10 -1 -25 14.5783 13.7213
-10 -1 -23 5.2012 -16.2498
-10 -1 -21 -0.8165 -35.8908
-10 -1 -19 36.2338 -3.4532
-10 -1 -17 -14.3593 -17.3526
-10 -1 -15 3.9596 24.8999
-10 -1 -13 57.3484 2.5401
-10 -1 -11 120.4874 55.7046
-10 -1 -9 61.7685 26.0511
-10 -1 -7 -20.5561 220.3817
-10 -1 -5 101.5869 81.7788
-10 -1 -3 21.7736 -62.5331
-10 -1 -1 -63.0170 -51.7987
-9 -8 -43 -7.9816 18.3307
-9 -8 -41 -9.6461 -4.3801
-9 -8 -39 14.3347 20.9911
-9 -8 -37 2.3254 -1.1334
-9 -8 -35 -8.5912 -1.8078
-9 -8 -33 11.1371 14.2186
-9 -8 -31 3.2098 -3.5953
-9 -8 -29 -0.0297 -9.3122
-9 -8 -27 4.8259 2.8081
-9 -8 -25 26.9983 32.5745
-9 -8 -23 9.0489 -13.9374
-9 -8 -21 14.5256 -11.9445
-9 -8 -19 14.8037 0.9208
-9 -8 -17 -9.7734 39.2038
-9 -8 -15 22.3156 -22.7426
-9 -8 -13 3.2365 -9.6144
-9 -8 -11 -16.6401 -28.7977
-9 -8 -9 18.9871 6.7596
-9 -8 -7 121.4001 -76.6116
-9 -8 -5 44.5670 -11.2627
-9 -8 -3 14.1152 142.9223
-9 -8 -1 10.1290 77.6890
-9 -7 -44 4.2837 -24.4650
-9 -7 -42 2.9234 28.6531
-9 -7 -40 -10.6770 -8.9333
-9 -7 -38 2.4570 0.2191
-9 -7 -36 -0.6698 3.9365
-9 -7 -34 5.5322 -15.5661
-9 -7 -32 -6.1511 -17.2182
-9 -7 -30 -0.3683 -2.2900
-9 -7 -28 -8.7097 -2.3169
-9 -7 -26 -3.0592 -18.8149
-9 -7 -24 -1.5348 4.7642
-9 -7 -22 -6.9547 -15.9843
-9 -7 -20 1.0637 -4.7100
-9 -7 -18 22.6208 -11.7232
-9 -7 -16 -26.8703 -7.2728
-9 -7 -14 -16.6525 -49.1561
-9 -7 -12 -16.5306 -17.2185
-9 -7 -10 44.9470 64.0631
-9 -7 -8 153.2928 -69.1113
-9 -7 -6 -17.3922 -3.6126
-9 -7 -4 -73.5782 -86.4499
-9 -7 -2 -98.0262 4.1026
-9 -6 -43 -3.2126 -4.8114
-9 -6 -41 5.2622 10.9696
-9 -6 -39 -0.4501 -0.3425
-9 -6 -37 2.9724 1.8987
-9 -6 -35 -21.6626 18.9697
-9 -6 -33 1.4435 3.1165
-9 -6 -31 2.5173 20.9975
-9 -6 -29 1.7805 4.3190
-9 -6 -27 12.2755 8.2790
-9 -6 -25 -24.7365 21.3263
-9 -6 -23 15.3380 -28.4103
-9 -6 -21 -10.1568 -17.9943
-9 -6 -19 3.6119 6.8163
-9 -6 -17 -4.7627 -29.9682
-9 -6 -15 -9.5536 25.7558
-9 -6 -13 20.6691 25.8884
-9 -6 -11 38.4976 32.5011
-9 -6 -9 64.1325 -33.3299
-9 -6 -7 205.1928 59.8013
-9 -6 -5 -107.6346 -26.0137
-9 -6 -3 -59.1860 -7.9894
-9 -6 -1 -56.8844 94.7033
-9 -5 -44 17.2255 5.0969
-9 -5 -42 3.0410 -3.8801
-9 -5 -40 -10.9371 20.0229
-9 -5 -38 -2.1214 -2.6704
-9 -5 -36 -9.7284 18.1096
-9 -5 -34 2.3509 -0.5787
-9 -5 -32 9.4911 2.0840
-9 -5 -30 -4.2304 2.3025
-9 -5 -28 -5.5493 -20.7727
-9 -5 -26 -3.3506 0.0590
-9 -5 -24 19.0977 -4.0665
-9 -5 -22 19.3510 -44.7521
-9 -5 -20 6.3492 12.6138
-9 -5 -18 5.2665 -15.8385
-9 -5 -16 -28.4257 52.1771
-9 -5 -14 -67.8713 14.2240
-9 -5 -12 23.8615 -12.8991
-9 -5 -10 58.2183 12.4763
-9 -5 -8 -41.6046 93.0797
-9 -5 -6 173.4164 -48.8724
-9 -5 -4 3.2061 -82.2732
-9 -5 -2 -30.6267 111.6796
-9 -4 -45 -19.3837 3.5758
-9 -4 -43 10.2556 -22.7587
-9 -4 -41 13.5749 -9.2326
-9 -4 -39 5.3878 23.3837
-9 -4 -37 6.0034 -13.1119
-9 -4 -35 -18.4561 -3.2115
-9 -4 -33 0.3502 -3.6614
-9 -4 -31 10.6542 3.6542
-9 -4 -29 -4.9697 -11.6223
-9 -4 -27 0.2947 -8.5664
-9 -4 -25 2.2978 -10.1524
-9 -4 -23 -13.5282 10.9818
-9 -4 -21 -22.7122 -6.0147
-9 -4 -19 -2.4460 -0.8594
-9 -4 -17 -8.2173 48.1741
-9 -4 -15 -28.0952 20.4963
-9 -4 -13 -51.4083 -19.5787
-9 -4 -11 -41.9119 2.0045
-9 -4 -9 84.8575 -19.1779
-9 -4 -7 -41.1065 -149.4305
-9 -4 -5 -6.1174 -68.0041
-9 -4 -3 -61.8056 -38.1647
-9 -4 -1 111.8024 -79.6251
-9 -3 -44 -2.0766 -0.6147
-9 -3 -42 3.9365 -3.6820
-9 -3 -40 -1.8334 3.3443
-9 -3 -38 1.5089 -9.9203
-9 -3 -36 -2.9347 -17.4029
-9 -3 -34 7.5521 -0.1227
-9 -3 -32 17.7372 -6.8552
-9 -3 -30 -4.7677 5.1694
-9 -3 -28 6.0703 -4.9307
-9 -3 -26 10.7528 6.5597
-9 -3 -24 -33.2365 17.1163
-9 -3 -22 1.0217 -12.0850
-9 -3 -20 31.8454 -2.1129
-9 -3 -18 -38.7070 20.3055
-9 -3 -16 34.9892 9.1078
-9 -3 -14 -74.7730 4.3540
-9 -3 -12 -25.6926 -41.2393
-9 -3 -10 -22.5568 51.4702
-9 -3 -8 -22.7337 78.2498
-9 -3 -6 118.3822 22.5799
-9 -3 -4 36.4165 -47.1253
-9 -3 -2 -37.7427 158.3459
-9 -2 -45 -20.0689 7.5415
-9 -2 -43 4.1520 -1.4769
-9 -2 -41 1.6370 0.9017
-9 -2 -39 -8.0977 -10.8605
-9 -2 -37 16.2232 2.8412
-9 -2 -35 -3.2263 2.0543
-9 -2 -33 2.4985 0.0072
-9 -2 -31 12.1426 12.4160
-9 -2 -29 4.7191 -2.7030
-9 -2 -27 2.3505 12.0423
-9 -2 -25 22.6141 -9.5301
-9 -2 -23 -9.0709 0.2594
-9 -2 -21 -11.9412 -0.3328
-9 -2 -19 -7.8729 3.8211
-9 -2 -17 3.2982 -38.1587
-9 -2 -15 -11.7046 -24.0517
-9 -2 -13 23.8364 -44.3955
-9 -2 -11 -15.7794 -11.4774
-9 -2 -9 0.7833 21.2557
-9 -2 -7 -13.5199 -27.9031
-9 -2 -5 96.9971 2.9606
-9 -2 -3 56.2481 42.6909
-9 -2 -1 -47.4629 -114.9292
-9 -1 -44 -0.5598 11.2565
-9 -1 -42 -6.8240 -12.4096
-9 -1 -40 3.4690 2.0921
-9 -1 -38 14.1472 10.4039
-9 -1 -36 -6.8421 24.9758
-9 -1 -34 -1.1591 0.2942
-9 -1 -32 -2.8092 17.9156
-9 -1 -30 -1.8217 -2.5203
-9 -1 -28 -3.5867 3.9848
-9 -1 -26 21.0360 39.1335
-9 -1 -24 14.8832 28.6243
-9 -1 -22 -24.5605 -11.2991
-9 -1 -20 12.5203 -0.8624
-9 -1 -18 11.7840 30.3701
-9 -1 -16 10.0342 -22.5657
-9 -1 -14 29.0329 43.3121
-9 -1 -12 -27.3962 -5.8347
-9 -1 -10 -28.6258 24.6676
-9 -1 -8 -14.7177 14.0907
-9 -1 -6 -290.4469 125.5851
-9 -1 -4 -1.1516 66.5677
-9 -1 -2 -114.2324 -126.5858
-8 -7 -43 1.6969 -18.4127
-8 -7 -41 -17.9161 -6.3923
-8 -7 -39 -1.7170 2.2565
-8 -7 -37 -20.7125 7.5086
-8 -7 -35 0.1572 11.7308
-8 -7 -33 10.6706 15.5785
-8 -7 -31 4.1261 -1.8938
-8 -7 -29 -8.2589 -9.0186
-8 -7 -27 -10.7645 -8.2114
-8 -7 -25 16.7937 0.0096
-8 -7 -23 8.2034 10.3914
-8 -7 -21 -3.8312 31.1783
-8 -7 -19 2.0176 -5.0653
-8 -7 -17 -14.7007 -8.3012
-8 -7 -15 4.2740 -14.3712
-8 -7 -13 42.3148 -44.7838
-8 -7 -11 46.9178 6.1568
-8 -7 -9 -0.5589 74.5758
-8 -7 -7 -57.2155 8.4308
-8 -7 -5 23.7370 96.7117
-8 -7 -3 -48.9890 -154.5733
-8 -7 -1 -71.9630 137.1104
-8 -6 -44 3.2462 -25.8472
-8 -6 -42 -1.3585 -4.0977
-8 -6 -40 -4.3449 -18.9572
-8 -6 -38 1.2244 -1.0924
-8 -6 -36 -0.7544 -16.4198
-8 -6 -34 -2.0765 -1.6543
-8 -6 -32 17.3947 14.8496
-8 -6 -30 -6.0137 2.7398
-8 -6 -28 -3.1502 -4.9195
-8 -6 -26 -7.9225 2.4639
-8 -6 -24 8.8544 -25.9525
-8 -6 -22 11.3715 34.9547
-8 -6 -20 -13.0997 9.6624
-8 -6 -18 7.1010 -4.0284
-8 -6 -16 26.3050 18.8424
-8 -6 -14 -3.3835 5.5637
-8 -6 -12 -34.4882 -44.3361
-8 -6 -10 60.4465 24.0221
-8 -6 -8 92.3022 56.7092
-8 -6 -6 -11.8289 -55.8528
-8 -6 -4 -58.8387 64.2371
-8 -6 -2 45.3307 66.5340
-8 -5 -45 -8.4170 -10.0221
-8 -5 -43 -4.5060 14.7479
-8 -5 -41 -22.5614 11.3432
-8 -5 -39 -3.5042 -1.5172
-8 -5 -37 -15.2449 -7.3753
-8 -5 -35 -11.5462 -18.5659
-8 -5 -33 3.3273 5.3055
-8 -5 -31 1.0901 -1.1249
-8 -5 -29 0.0697 1.9533
-8 -5 -27 -12.0830 2.1200
-8 -5 -25 16.3042 -6.4680
-8 -5 -23 -7.2454 22.7981
-8 -5 -21 -14.1660 19.0414
-8 -5 -19 -23.2647 -45.3865
-8 -5 -17 -19.8381 46.7199
-8 -5 -15 -48.1246 -0.2102
-8 -5 -13 -48.9277 32.6634
-8 -5 -11 21.2771 -6.1085
-8 -5 -9 -47.4649 80.3158
-8 -5 -7 -98.3028 114.0075
-8 -5 -5 111.1734 -60.7898
-8 -5 -3 49.0361 -69.3122
-8 -5 -1 124.3365 -7.1697
-8 -4 -44 -13.7838 8.5478
-8 -4 -42 15.4140 2.4544
-8 -4 -40 1.2551 0.9696
-8 -4 -38 11.0235 -10.4311
-8 -4 -36 15.2590 4.8665
-8 -4 -34 -3.6996 -2.1582
-8 -4 -32 6.4850 -1.5950
-8 -4 -30 -0.4515 3.1749
-8 -4 -28 4.5860 -7.5425
-8 -4 -26 -4.3660 9.3098
-8 -4 -24 3.1102 14.1536
-8 -4 -22 -32.6806 -0.3929
-8 -4 -20 -14.2667 12.8636
-8 -4 -18 22.4467 -16.8187
-8 -4 -16 -44.0423 -47.7094
-8 -4 -14 -30.9514 21.1454
-8 -4 -12 16.2666 -31.8772
-8 -4 -10 33.3165 -17.4102
-8 -4 -8 -103.8074 53.3436
-8 -4 -6 57.8402 13.1375
-8 -4 -4 -49.0320 52.5124
-8 -4 -2 50.4473 -12.0095
-8 -3 -45 -1.9364 -1.4818
-8 -3 -43 6.1266 -19.0904
-8 -3 -41 14.8597 -7.0842
-8 -3 -39 20.1742 -9.9101
-8 -3 -37 4.0462 -15.1172
-8 -3 -35 -0.9712 0.1045
-8 -3 -33 0.1292 0.9936
-8 -3 -31 2.9146 -13.3874
-8 -3 -29 -0.2940 7.3006
-8 -3 -27 2.8808 -5.0333
-8 -3 -25 -7.2439 5.3886
-8 -3 -23 -6.8177 4.3904
-8 -3 -21 7.9677 -15.1485
-8 -3 -19 -37.2759 -7.6868
-8 -3 -17 19.7686 -12.3778
-8 -3 -15 -44.1786 5.2138
-8 -3 -13 -25.9391 -41.7347
-8 -3 -11 8.1756 -26.4194
-8 -3 -9 -95.0566 -39.4093
-8 -3 -7 -93.0896 -51.2377
-8 -3 -5 50.9637 -160.1468
-8 -3 -3 -25.6465 -176.0799
-8 -3 -1 -17.0898 -81.9531
-8 -2 -44 -1.2435 5.7798
-8 -2 -42 -3.3575 -25.9422
-8 -2 -40 -0.6096 10.6558
-8 -2 -38 3.6467 0.1797
-8 -2 -36 30.4583 2.4192
-8 -2 -34 -7.4794 0.1809
-8 -2 -32 2.8845 0.4446
-8 -2 -30 -6.5637 -11.0560
-8 -2 -28 4.3013 -0.8963
-8 -2 -26 8.4790 -5.4749
-8 -2 -24 2.6503 20.3575
-8 -2 -22 -14.0862 30.2255
-8 -2 -20 0.2637 14.6614
-8 -2 -18 30.3711 -40.4495
-8 -2 -16 52.1601 11.2661
-8 -2 -14 40.5191 -41.0135
-8 -2 -12 54.9286 -13.0080
-8 -2 -10 6.2644 -35.1478
-8 -2 -8 139.0469 136.5914
-8 -2 -6 85.9194 73.4911
-8 -2 -4 -48.2991 -175.3823
-8 -2 -2 -58.2776 41.9662
-8 -1 -45 20.9620 -19.1626
-8 -1 -43 -24.3636 -7.8639
-8 -1 -41 11.8515 18.5887
-8 -1 -39 1.6999 3.1690
-8 -1 -37 -4.1548 8.8591
-8 -1 -35 21.1496 0.5622
-8 -1 -33 -1.0663 -15.9360
-8 -1 -31 -8.0986 5.5227
-8 -1 -29 21.2622 17.2036
-8 -1 -27 -5.0010 -5.8055
-8 -1 -25 -3.4327 14.0049
-8 -1 -23 0.7214 -9.6186
-8 -1 -21 1.4040 -17.7005
-8 -1 -19 -21.5902 40.5392
-8 -1 -17 -23.0215 29.9884
-8 -1 -15 -15.2008 -22.4518
-8 -1 -13 13.5122 34.1425
-8 -1 -11 75.3223 3.7312
-8 -1 -9 31.8234 -97.0988
-8 -1 -7 -33.8439 240.1300
-8 -1 -5 17.7476 -148.3889
-8 -1 -3 172.5090 -36.6020
-8 -1 -1 -24.0454 -55.4373
-7 -6 -45 -11.9949 -14.2767
-7 -6 -43 -21.7731 15.9262
-7 -6 -41 0.4989 -0.1387
-7 -6 -39 -18.8827 6.1885
-7 -6 -37 -15.7941 12.2473
-7 -6 -35 3.0554 -13.1330
-7 -6 -33 2.1176 -10.9227
-7 -6 -31 1.1687 0.6644
-7 -6 -29 -4.9301 -5.1616
-7 -6 -27 2.3402 -1.1035
-7 -6 -25 9.5070 -2.4504
-7 -6 -23 53.5821 -35.6476
-7 -6 -21 -28.8085 -6.0741
-7 -6 -19 -16.9069 -14.8793
-7 -6 -17 -2.1082 45.1744
-7 -6 -15 -6.4535 -28.5094
-7 -6 -13 -44.7709 -27.0808
-7 -6 -11 -30.6171 55.7698
-7 -6 -9 66.2105 72.5690
-7 -6 -7 85.9993 -177.2416
-7 -6 -5 -13.0004 -13.9051
-7 -6 -3 59.9041 226.9567
-7 -6 -1 97.1688 95.1973
-7 -5 -44 1.1916 18.1643
-7 -5 -42 -10.8335 17.6777
-7 -5 -40 13.0936 -17.1061
-7 -5 -38 5.0083 -1.9478
-7 -5 -36 16.3610 0.3922
-7 -5 -34 17.0709 -3.6686
-7 -5 -32 -4.8632 3.0317
-7 -5 -30 12.0643 -7.0907
-7 -5 -28 -5.7522 -4.7164
-7 -5 -26 -1.7373 25.5391
-7 -5 -24 -2.7774 -16.5852
-7 -5 -22 7.8363 -30.2163
-7 -5 -20 -8.3087 43.4620
-7 -5 -18 -22.2074 -8.8096
-7 -5 -16 -12.3017 32.4652
-7 -5 -14 -13.1380 14.0853
-7 -5 -12 -43.2925 -14.6193
-7 -5 -10 -11.4426 -65.8553
-7 -5 -8 -50.1292 138.4777
-7 -5 -6 -235.7294 -98.6160
-7 -5 -4 -6.8275 -11.3779
-7 -5 -2 19.9074 82.8499
-7 -4 -45 -23.0009 -4.3363
-7 -4 -43 -1.2779 -15.5632
-7 -4 -41 11.8198 -16.9423
-7 -4 -39 20.7753 2.9195
-7 -4 -37 -1.3772 -9.5950
-7 -4 -35 -5.6903 -2.8131
-7 -4 -33 -2.3549 -1.7682
-7 -4 -31 -8.9495 -14.6359
-7 -4 -29 -4.1209 -4.1805
-7 -4 -27 2.6181 -3.4302
-7 -4 -25 -10.1738 32.4605
-7 -4 -23 6.7426 21.4279
-7 -4 -21 18.6729 -0.2806
-7 -4 -19 -2.9008 -3.2541
-7 -4 -17 -27.2660 -28.8844
-7 -4 -15 -7.8523 -55.7643
-7 -4 -13 -23.9540 25.2575
-7 -4 -11 43.4550 -11.5563
-7 -4 -9 136.1716 38.4222
-7 -4 -7 35.7111 3.5936
-7 -4 -5 -141.5097 -63.1269
-7 -4 -3 -44.1505 93.3991
-7 -4 -1 -132.0592 -251.7582
-7 -3 -44 7.1222 -19.4223
-7 -3 -42 -7.6606 17.0712
-7 -3 -40 7.9633 -20.4938
-7 -3 -38 -2.8695 -1.9286
-7 -3 -36 -0.1563 -3.4152
-7 -3 -34 0.3041 -6.3287
-7 -3 -32 2.2403 -8.7403
-7 -3 -30 -5.7056 21.7462
-7 -3 -28 3.7540 7.4053
-7 -3 -26 -4.2266 -18.0829
-7 -3 -24 -4.4651 -6.3030
-7 -3 -22 6.9947 -36.4929
-7 -3 -20 -0.6805 22.8227
-7 -3 -18 37.4598 -0.4342
-7 -3 -16 -8.2542 -29.5230
-7 -3 -14 7.1688 69.9590
-7 -3 -12 36.7937 -21.0194
-7 -3 -10 -50.5626 49.8943
-7 -3 -8 -37.6204 36.3652
-7 -3 -6 139.4050 -3.8553
-7 -3 -4 197.4176 34.2287
-7 -3 -2 -195.8519 -58.9964
-7 -2 -45 8.5279 5.4747
-7 -2 -43 -18.0694 0.8351
-7 -2 -41 -16.0416 5.3413
-7 -2 -39 -2.2876 -2.1577
-7 -2 -37 -7.6382 -1.2607
-7 -2 -35 -1.6188 23.2180
-7 -2 -33 15.9047 21.1804
-7 -2 -31 14.7936 -3.2988
-7 -2 -29 -25.3512 -2.9719
-7 -2 -27 -10.3266 -7.9990
-7 -2 -25 -7.5942 -0.9596
-7 -2 -23 1.3645 15.2224
-7 -2 -21 -30.4610 -7.0651
-7 -2 -19 -3.6162 10.0292
-7 -2 -17 -33.3482 41.1590
-7 -2 -15 18.2640 -18.9368
-7 -2 -13 67.8261 44.9691
-7 -2 -11 -2.5831 -16.4231
-7 -2 -9 2.1701 5.1812
-7 -2 -7 46.7733 -24.7340
-7 -2 -5 -8.8309 200.0066
-7 -2 -3 -44.6823 -171.6806
-7 -2 -1 55.7404 -87.5770
-7 -1 -44 6.9358 15.6634
-7 -1 -42 -13.9181 1.0641
-7 -1 -40 17.1763 -10.9488
-7 -1 -38 0.1624 5.7409
-7 -1 -36 5.2704 -16.3007
-7 -1 -34 -0.8949 10.7613
-7 -1 -32 -14.6991 -4.7852
-7 -1 -30 1.0907 0.2031
-7 -1 -28 4.6263 2.4243
-7 -1 -26 26.4753 0.5497
-7 -1 -24 -1.1256 23.9798
-7 -1 -22 -13.8679 -16.7919
-7 -1 -20 5.1154 -6.9397
-7 -1 -18 3.7110 -0.2872
-7 -1 -16 20.7552 1.2419
-7 -1 -14 -7.5112 -0.2047
-7 -1 -12 -29.6946 5.3500
-7 -1 -10 -3.3038 84.3184
-7 -1 -8 62.2010 -58.2597
-7 -1 -6 -194.9291 -476.3230
-7 -1 -4 -32.8756 -46.9766
-7 -1 -2 -8.7746 398.3554
-6 -5 -45 13.7572 -0.9606
-6 -5 -43 -23.9667 -8.2973
-6 -5 -41 -19.0944 -13.6975
-6 -5 -39 4.9039 21.8773
-6 -5 -37 2.7127 5.3263
-6 -5 -35 1.4896 5.6434
-6 -5 -33 -1.1063 5.4170
-6 -5 -31 6.1574 2.0097
-6 -5 -29 10.1353 -0.4976
-6 -5 -27 -3.4162 9.9666
-6 -5 -25 -21.0456 -31.2054
-6 -5 -23 -4.0813 10.7544
-6 -5 -21 17.5566 -6.7023
-6 -5 -19 -10.0028 -12.7542
-6 -5 -17 -35.9907 -16.4248
-6 -5 -15 -5.6210 12.8248
-6 -5 -13 35.2747 -30.0331
-6 -5 -11 43.4126 -33.1774
-6 -5 -9 -46.9681 1.5187
-6 -5 -7 -118.0797 -6.0152
-6 -5 -5 146.7892 226.8673
-6 -5 -3 88.3279 -73.0218
-6 -5 -1 -200.8245 -90.4439
-6 -4 -44 -1.6459 3.1796
-6 -4 -42 8.7521 -1.6675
-6 -4 -40 26.8599 5.8575
-6 -4 -38 5.5822 -0.1452
-6 -4 -36 -4.3121 3.0778
-6 -4 -34 -5.7560 -10.4781
-6 -4 -32 7.1374 2.1060
-6 -4 -30 4.7002 2.6138
-6 -4 -28 4.6189 -11.1537
-6 -4 -26 0.6975 7.1786
-6 -4 -24 8.4841 -1.4400
-6 -4 -22 10.9665 -31.3106
-6 -4 -20 -26.3140 -15.2757
-6 -4 -18 -25.1657 -5.6492
-6 -4 -16 66.1656 -32.7811
-6 -4 -14 -45.9159 4.5487
-6 -4 -12 -16.3943 -61.1396
-6 -4 -10 55.6602 55.6003
-6 -4 -8 97.4188 161.0550
-6 -4 -6 -65.9515 -136.5351
-6 -4 -4 85.9167 230.9459
-6 -4 -2 -61.7519 -42.2045
-6 -3 -45 -10.8008 -5.5543
-6 -3 -43 -12.1933 16.8943
-6 -3 -41 11.3727 -11.6992
-6 -3 -39 2.4394 -1.7149
-6 -3 -37 3.5180 7.3475
-6 -3 -35 -7.2053 -12.8178
-6 -3 -33 -2.7610 -7.1077
-6 -3 -31 -8.2480 -11.0012
-6 -3 -29 22.9748 2.2918
-6 -3 -27 -1.6000 15.7375
-6 -3 -25 -8.0986 -20.0332
-6 -3 -23 -6.7447 8.8546
-6 -3 -21 -33.8925 -22.5632
-6 -3 -19 11.9291 -20.2720
-6 -3 -17 40.0944 -7.4392
-6 -3 -15 -35.4684 64.4312
-6 -3 -13 38.4403 4.8788
-6 -3 -11 10.1969 -34.5908
-6 -3 -9 57.9322 39.3351
-6 -3 -7 90.4246 -75.1912
-6 -3 -5 -85.3540 -125.9058
-6 -3 -3 156.9602 190.1533
-6 -3 -1 111.5578 -44.0391
-6 -2 -44 -11.9129 -1.1268
-6 -2 -42 -1.7527 -15.6095
-6 -2 -40 0.5059 11.8799
-6 -2 -38 -8.6235 -12.6889
-6 -2 -36 3.9885 13.1039
-6 -2 -34 4.4394 14.5494
-6 -2 -32 -7.9264 -18.5100
-6 -2 -30 0.7396 4.9474
-6 -2 -28 17.3973 -8.5012
-6 -2 -26 0.6951 1.6126
-6 -2 -24 -17.0876 -28.2976
-6 -2 -22 -40.5485 7.8386
-6 -2 -20 -4.1318 14.9454
-6 -2 -18 12.7946 2.3770
-6 -2 -16 -6.4848 -5.4834
-6 -2 -14 19.0282 27.4624
-6 -2 -12 4.6929 -51.3336
-6 -2 -10 -24.2850 -23.6136
-6 -2 -8 -59.8197 -56.3869
-6 -2 -6 -49.4227 47.3480
-6 -2 -4 314.4744 91.2386
-6 -2 -2 77.0675 -101.2349
-6 -1 -45 -9.4101 -17.2783
-6 -1 -43 -8.9899 -13.3472
-6 -1 -41 -11.4851 12.2345
-6 -1 -39 -5.2841 -1.6029
-6 -1 -37 -21.0927 -4.8053
-6 -1 -35 -9.7119 -8.6210
-6 -1 -33 -0.5711 0.1590
-6 -1 -31 -7.7335 -7.7447
-6 -1 -29 11.6549 17.7443
-6 -1 -27 2.9417 16.0009
-6 -1 -25 10.2012 -18.9397
-6 -1 -23 -7.3823 9.7779
-6 -1 -21 3.5174 -7.7354
-6 -1 -19 -5.4330 24.7443
-6 -1 -17 -40.7980 69.5344
-6 -1 -15 1.4586 -32.8360
-6 -1 -13 -53.8582 91.3745
-6 -1 -11 81.8289 -46.4615
-6 -1 -9 45.4457 103.4595
-6 -1 -7 21.4505 80.9699
-6 -1 -5 -77.8391 -18.3680
-6 -1 -3 19.6739 141.2591
-6 -1 -1 325.6158 -31.8039
-5 -4 -45 6.8140 -10.9070
-5 -4 -43 5.2474 -23.2594
-5 -4 -41 -0.2016 0.7855
-5 -4 -39 -6.6526 17.6766
-5 -4 -37 -4.9796 12.3159
-5 -4 -35 1.0841 -4.4533
-5 -4 -33 -4.8835 -18.2913
-5 -4 -31 -13.1843 -1.9531
-5 -4 -29 13.5264 1.2135
-5 -4 -27 -3.9252 -7.2392
-5 -4 -25 11.5221 -6.7906
-5 -4 -23 -27.9217 38.3381
-5 -4 -21 10.9346 6.1868
-5 -4 -19 32.5468 -1.2824
-5 -4 -17 30.7077 18.7471
-5 -4 -15 18.3929 16.6383
-5 -4 -13 30.1658 -12.0021
-5 -4 -11 6.0695 36.4007
-5 -4 -9 83.7676 6.4533
-5 -4 -7 73.0472 -22.1979
-5 -4 -5 78.1391 246.3070
-5 -4 -3 -56.5148 -76.0763
-5 -4 -1 42.1334 -134.3075
-5 -3 -44 -5.1062 4.2423
-5 -3 -42 -5.7485 17.0565
-5 -3 -40 16.6823 -12.0956
-5 -3 -38 11.6830 6.5679
-5 -3 -36 13.5343 1.4349
-5 -3 -34 1.6787 -11.2802
-5 -3 -32 -10.7514 -7.4511
-5 -3 -30 -8.7903 0.2840
-5 -3 -28 -17.0682 -1.1316
-5 -3 -26 1.4154 4.9327
-5 -3 -24 -1.4462 9.8531
-5 -3 -22 6.1574 -13.4333
-5 -3 -20 15.1257 -3.2619
-5 -3 -18 13.7324 19.1057
-5 -3 -16 18.2646 -27.1678
-5 -3 -14 -9.1096 -10.6503
-5 -3 -12 0.0274 -38.3846
-5 -3 -10 73.9982 -26.0815
-5 -3 -8 -44.7188 7.0656
-5 -3 -6 -192.8377 218.9745
-5 -3 -4 0.6682 48.3404
-5 -3 -2 97.6019 -325.2581
-5 -2 -45 -14.5711 15.0401
-5 -2 -43 -10.7690 -16.4190
-5 -2 -41 12.5315 -5.8653
-5 -2 -39 7.2497 3.5906
-5 -2 -37 12.4004 -14.9376
-5 -2 -35 -0.7090 -1.6587
-5 -2 -33 -5.9576 -3.2039
-5 -2 -31 20.9006 -4.4010
-5 -2 -29 -2.7569 10.2567
-5 -2 -27 -0.4003 2.5199
-5 -2 -25 -14.8125 -0.0633
-5 -2 -23 -3.2687 -2.2413
-5 -2 -21 1.6070 8.8245
-5 -2 -19 7.3900 -2.2040
-5 -2 -17 17.3416 40.4919
-5 -2 -15 -12.1092 -34.6622
-5 -2 -13 13.4106 -64.1894
-5 -2 -11 3.1446 86.8256
-5 -2 -9 25.8866 71.9955
-5 -2 -7 48.5456 97.9065
-5 -2 -5 198.9363 49.3505
-5 -2 -3 -1.6030 -380.7513
-5 -2 -1 50.1607 -144.4898
-5 -1 -44 2.5155 1.2428
-5 -1 -42 15.6655 -7.8626
-5 -1 -40 10.2768 -2.9904
-5 -1 -38 17.0780 -6.7631
-5 -1 -36 10.0266 15.9816
-5 -1 -34 2.7481 17.8853
-5 -1 -32 -7.0435 -2.4531
-5 -1 -30 -6.4063 11.8785
-5 -1 -28 -1.9590 -6.4181
-5 -1 -26 5.7788 8.5458
-5 -1 -24 9.8135 -3.9253
-5 -1 -22 -14.8677 1.0691
-5 -1 -20 12.4475 23.8545
-5 -1 -18 -16.9010 -7.3588
-5 -1 -16 -28.3816 -18.4001
-5 -1 -14 57.6473 -49.5109
-5 -1 -12 25.6386 14.0787
-5 -1 -10 -27.1137 22.6531
-5 -1 -8 38.6745 -50.0339
-5 -1 -6 40.8718 -291.7598
-5 -1 -4 59.5143 20.8338
-5 -1 -2 398.4320 -145.5211
-4 -3 -45 1.6971 -17.4050
-4 -3 -43 -8.2038 -1.2018
-4 -3 -41 -6.4234 13.6008
-4 -3 -39 2.3450 8.1102
-4 -3 -37 3.3158 11.8609
-4 -3 -35 10.8051 -3.1920
-4 -3 -33 -2.0119 20.4240
-4 -3 -31 -10.1868 -16.5484
-4 -3 -29 -19.1122 4.8761
-4 -3 -27 1.0923 0.3785
-4 -3 -25 10.2572 7.1761
-4 -3 -23 -20.8374 -17.2164
-4 -3 -21 24.9077 -14.9144
-4 -3 -19 27.0233 2.3129
-4 -3 -17 -13.3609 41.2833
-4 -3 -15 -26.2647 0.0434
-4 -3 -13 -69.4964 24.2359
-4 -3 -11 17.5571 32.0566
-4 -3 -9 224.7813 44.9730
-4 -3 -7 -272.4518 -54.7159
-4 -3 -5 -312.2819 94.2524
-4 -3 -3 -115.4207 -185.7972
-4 -3 -1 -431.8462 319.9986
-4 -2 -44 7.2678 -13.2688
-4 -2 -42 21.2920 0.5851
-4 -2 -40 2.5934 -4.1888
-4 -2 -38 -7.0226 -13.5138
-4 -2 -36 4.1912 -0.0961
-4 -2 -34 1.5385 16.5080
-4 -2 -32 2.3240 1.0646
-4 -2 -30 0.4156 -0.1411
-4 -2 -28 -4.0539 -8.9707
-4 -2 -26 -3.6232 8.2543
-4 -2 -24 18.1434 -12.1696
-4 -2 -22 -0.2442 -6.6822
-4 -2 -20 4.2750 17.8526
-4 -2 -18 9.4120 59.3977
-4 -2 -16 55.5240 58.3619
-4 -2 -14 18.4728 45.9131
-4 -2 -12 -65.1485 -160.4703
-4 -2 -10 36.1008 -31.3053
-4 -2 -8 -109.0292 -390.3095
-4 -2 -6 -169.5500 -20.4271
-4 -2 -4 253.4418 -18.1083
-4 -2 -2 104.4675 -168.2177
-4 -1 -45 -8.3022 -2.1075
-4 -1 -43 -19.1513 4.3977
-4 -1 -41 2.6518 -23.6987
-4 -1 -39 6.3225 -0.2673
-4 -1 -37 1.8419 -1.7469
-4 -1 -35 -9.4586 -13.6889
-4 -1 -33 -7.7852 0.6658
-4 -1 -31 -3.5425 -23.7956
-4 -1 -29 19.1202 -10.8982
-4 -1 -27 -3.0707 2.1537
-4 -1 -25 -13.0701 18.3400
-4 -1 -23 11.5426 -0.2739
-4 -1 -21 -6.9305 -10.6403
-4 -1 -19 -7.6370 15.9987
-4 -1 -17 -28.4990 74.4379
-4 -1 -15 46.1172 -31.3242
-4 -1 -13 13.6071 -27.7022
-4 -1 -11 28.6574 -29.9401
-4 -1 -9 -135.6515 74.1610
-4 -1 -7 0.1398 -12.2854
-4 -1 -5 -76.6072 16.0525
-4 -1 -3 83.8099 24.6234
-4 -1 -1 -76.5921 -144.0103
-3 -2 -45 -0.8993 5.4515
-3 -2 -43 6.2575 -6.9763
-3 -2 -41 -19.4293 4.0108
-3 -2 -39 -7.0582 -12.8048
-3 -2 -37 -17.5815 7.2282
-3 -2 -35 -13.0241 0.0043
-3 -2 -33 -17.9814 -1.8566
-3 -2 -31 23.6343 22.5053
-3 -2 -29 -14.6847 24.0343
-3 -2 -27 -6.5706 -14.3357
-3 -2 -25 -6.6128 -17.0706
-3 -2 -23 7.8341 34.5871
-3 -2 -21 -17.9640 -44.4577
-3 -2 -19 17.3694 33.7653
-3 -2 -17 51.6725 -63.9853
-3 -2 -15 57.4612 42.5825
-3 -2 -13 -45.4504 -24.8374
-3 -2 -11 2.9706 -17.4593
-3 -2 -9 14.4294 -25.7497
-3 -2 -7 48.1672 -6.1127
-3 -2 -5 177.5157 460.6603
-3 -2 -3 360.4806 -750.6127
-3 -2 -1 211.7915 -98.8498
-3 -1 -44 -11.2816 -5.2657
-3 -1 -42 7.4724 -18.4686
-3 -1 -40 -2.6847 -7.8225
-3 -1 -38 0.0878 12.2157
-3 -1 -36 4.9136 10.3414
-3 -1 -34 3.3861 -18.6129
-3 -1 -32 -0.4949 3.9810
-3 -1 -30 0.6543 22.1299
-3 -1 -28 -6.2225 -3.5442
-3 -1 -26 5.3735 8.8058
-3 -1 -24 -4.5537 6.9291
-3 -1 -22 0.5539 -4.5271
-3 -1 -20 -50.7440 18.4100
-3 -1 -18 -31.1486 -1.5933
-3 -1 -16 15.8055 86.4470
-3 -1 -14 54.8041 -29.8043
-3 -1 -12 -39.1293 -12.1716
-3 -1 -10 78.5106 231.1763
-3 -1 -8 -101.2301 16.9341
-3 -1 -6 39.6106 -541.7000
-3 -1 -4 68.4822 181.7983
-2 -1 -45 -5.9021 -2.5096
-2 -1 -43 -14.9459 -0.3241
-2 -1 -41 -0.9058 2.1306
-2 -1 -39 -1.0041 -3.2325
-2 -1 -37 -2.2387 4.4497
-2 -1 -35 -14.8420 -4.9501
-2 -1 -33 11.9612 -14.0760
-2 -1 -31 -15.7256 4.1627
-2 -1 -29 -44.2812 -7.7997
-2 -1 -27 22.6523 -9.2241
-2 -1 -25 -8.8513 -1.1918
-2 -1 -23 3.8278 17.9203
-2 -1 -21 -1.8966 38.1086
-2 -1 -19 4.9728 -8.1694
-2 -1 -17 -17.7222 -7.0507
-2 -1 -15 -25.0899 21.4961
-2 -1 -13 7.9077 -30.5215
-2 -1 -11 54.8416 73.0357
-2 -1 -9 -105.4769 -6.7101
-2 -1 -7 167.3825 -29.0079
-2 -1 -5 -126.2665 -84.9589
-2 -1 -3 -172.5245 -587.7297
0 0 8 513.4373 0.1544
0 0 12 -278.9177 0.2402
0 0 16 56.9918 0.6191
0 0 20 -53.9441 0.5067
0 0 24 5.1315 0.0692
0 0 28 -13.1607 0.3270
0 0 32 3.8856 0.1380
0 0 36 42.4825 -0.1066
0 0 40 -2.8348 -0.0472
0 0 44 3.1993 -0.1158
1 0 1 277.9152 280.4793
1 0 3 -385.1055 381.4845
1 0 5 410.0228 411.4386
1 0 7 -196.8108 196.0536
1 0 9 27.5207 28.6862
1 0 11 94.0458 -97.4005
1 0 13 -9.6901 -4.0145
1 0 15 -24.2688 18.4898
1 0 17 -30.9054 -27.1662
1 0 19 25.7475 -26.9798
1 0 21 5.9768 6.3730
1 0 23 -10.0850 9.8797
1 0 25 4.9954 5.1068
1 0 27 -26.1059 26.1733
1 0 29 27.5232 27.4969
1 0 31 -20.7198 20.7212
1 0 33 -14.4580 -14.4066
1 0 35 2.4173 -2.4570
1 0 37 4.9367 4.9728
1 0 39 8.5477 -8.5604
1 0 41 -6.1905 -6.2129
1 0 43 2.4432 -2.4142
1 0 45 14.3825 14.3423
1 1 0 -13.0749 0.2451
1 1 4 -66.5271 -0.2461
1 1 6 444.8408 -0.0514
1 1 8 42.5354 0.0388
1 1 10 -15.6549 0.4467
1 1 12 1.1364 0.0208
1 1 14 -54.2335 0.2228
1 1 16 -59.4284 -0.1654
1 1 18 -2.6883 -0.3391
1 1 20 -111.9725 0.0062
1 1 22 -16.6301 -0.0553
1 1 24 -21.7950 -0.0696
1 1 26 10.8524 -0.1452
1 1 28 2.0781 -0.0128
1 1 30 -5.1433 -0.2109
1 1 32 18.6291 0.0560
1 1 34 7.6955 0.0881
1 1 36 14.4671 0.0465
1 1 38 -6.0589 -0.0523
1 1 40 -6.9236 0.0290
1 1 42 -5.2124 0.0783
1 1 44 -4.4037 0.0468
2 0 2 -0.7455 142.7640
2 0 4 298.1265 0.3929
2 0 6 -0.1984 -40.1266
2 0 8 -127.6860 -0.7221
2 0 10 -0.0528 120.4854
2 0 12 232.6619 -1.0277
2 0 14 -0.1229 79.5378
2 0 16 8.2701 -0.1827
2 0 18 -0.2605 100.4144
2 0 20 15.1811 0.0050
2 0 22 -0.0131 19.3801
2 0 24 13.9997 0.0049
2 0 26 -0.0098 -9.3020
2 0 28 -4.9208 0.2717
2 0 30 0.0639 -1.2020
2 0 32 7.3488 0.1016
2 0 34 0.0798 -12.3334
2 0 36 -5.6346 0.0363
2 0 38 0.0053 -17.0464
2 0 40 6.1862 0.0622
2 0 42 0.0331 0.6379
2 0 44 -16.7244 0.0221
2 1 3 -172.5245 587.7297
2 1 5 -126.2665 84.9589
2 1 7 167.3825 29.0079
2 1 9 -105.4769 6.7101
2 1 11 54.8416 -73.0357
2 1 13 7.9077 30.5215
2 1 15 -25.0899 -21.4961
2 1 17 -17.7222 7.0507
2 1 19 4.9728 8.1694
2 1 21 -1.8966 -38.1086
2 1 23 3.8278 -17.9203
2 1 25 -8.8513 1.1918
2 1 27 22.6523 9.2241
2 1 29 -44.2812 7.7997
2 1 31 -15.7256 -4.1627
2 1 33 11.9612 14.0760
2 1 35 -14.8420 4.9501
2 1 37 -2.2387 -4.4497
2 1 39 -1.0041 3.2325
2 1 41 -0.9058 -2.1306
2 1 43 -14.9459 0.3241
2 1 45 -5.9021 2.5096
2 2 2 47.4646 0.5163
2 2 4 -205.9971 -1.4941
2 2 6 9.8930 -0.3962
2 2 8 225.5907 -0.5179
2 2 10 32.7962 -0.0364
2 2 12 67.0557 -0.2732
2 2 14 26.8453 0.2139
2 2 16 -6.2007 1.0962
2 2 18 28.3772 0.0075
2 2 20 -34.2868 0.7077
2 2 22 -19.9185 0.0409
2 2 24 14.2278 0.1805
2 2 26 1.1192 -0.0083
2 2 28 -11.6400 0.4337
2 2 30 16.2075 -0.0184
2 2 32 -3.0573 0.2064
2 2 34 -21.3853 -0.0487
2 2 36 1.3198 -0.0335
2 2 38 22.6742 -0.0757
2 2 40 -0.3652 -0.0181
2 2 42 -3.0178 0.0081
2 2 44 3.3504 -0.0110
3 0 1 69.8706 69.8622
3 0 3 -35.9196 32.7424
3 0 5 -179.4849 -177.4525
3 0 7 9.8519 -11.5351
3 0 9 68.0750 70.1791
3 0 11 -42.0896 37.5745
3 0 13 45.3593 52.1112
3 0 15 50.3244 -57.2072
3 0 17 -8.2721 -3.9615
3 0 19 -36.6206 34.7355
3 0 21 14.5968 15.4793
3 0 23 6.9797 -7.5414
3 0 25 -1.9971 -1.4621
3 0 27 13.9562 -13.9398
3 0 29 16.0753 15.9900
3 0 31 -22.2112 22.3617
3 0 33 6.6118 6.3584
3 0 35 -13.6132 13.8069
3 0 37 3.3928 3.3172
3 0 39 -8.5509 8.6884
3 0 41 -11.2389 -11.3043
3 0 43 3.7758 -3.7876
3 0 45 -10.2520 -10.2745
3 1 0 -35.1222 -0.1669
3 1 4 68.4822 -181.7983
3 1 6 39.6106 541.7000
3 1 8 -101.2301 -16.9341
3 1 10 78.5106 -231.1763
3 1 12 -39.1293 12.1716
3 1 14 54.8041 29.8043
3 1 16 15.8055 -86.4470
3 1 18 -31.1486 1.5933
3 1 20 -50.7440 -18.4100
3 1 22 0.5539 4.5271
3 1 24 -4.5537 -6.9291
3 1 26 5.3735 -8.8058
3 1 28 -6.2225 3.5442
3 1 30 0.6543 -22.1299
3 1 32 -0.4949 -3.9810
3 1 34 3.3861 18.6129
3 1 36 4.9136 -10.3414
3 1 38 0.0878 -12.2157
3 1 40 -2.6847 7.8225
3 1 42 7.4724 18.4686
3 1 44 -11.2816 5.2657
3 2 1 211.7915 98.8498
3 2 3 360.4806 750.6127
3 2 5 177.5157 -460.6603
3 2 7 48.1672 6.1127
3 2 9 14.4294 25.7497
3 2 11 2.9706 17.4593
3 2 13 -45.4504 24.8374
3 2 15 57.4612 -42.5825
3 2 17 51.6725 63.9853
3 2 19 17.3694 -33.7653
3 2 21 -17.9640 44.4577
3 2 23 7.8341 -34.5871
3 2 25 -6.6128 17.0706
3 2 27 -6.5706 14.3357
3 2 29 -14.6847 -24.0343
3 2 31 23.6343 -22.5053
3 2 33 -17.9814 1.8566
3 2 35 -13.0241 -0.0043
3 2 37 -17.5815 -7.2282
3 2 39 -7.0582 12.8048
3 2 41 -19.4293 -4.0108
3 2 43 6.2575 6.9763
3 2 45 -0.8993 -5.4515
3 3 0 111.3374 0.2093
3 3 2 -265.4295 3.8408
3 3 4 6.6512 -0.2338
3 3 6 -225.1628 -1.6185
3 3 8 -87.2725 0.1602
3 3 10 68.1192 0.3734
3 3 12 -69.9827 0.1666
3 3 14 55.4879 -0.0251
3 3 16 23.3631 -0.1850
3 3 18 39.8323 -0.8021
3 3 20 -5.5223 0.0797
3 3 22 -5.1942 0.1259
3 3 24 -10.2082 -0.1133
3 3 26 14.0105 -0.1002
3 3 28 4.6525 -0.0541
3 3 30 0.2196 -0.3165
3 3 32 -4.4792 -0.0206
3 3 34 18.9665 0.0876
3 3 36 -2.3752 0.0297
3 3 38 10.4373 0.0192
3 3 40 9.6918 0.0167
3 3 42 20.9134 0.0760
3 3 44 8.2560 0.0032
4 0 0 649.8953 -8.5988
4 0 2 -0.8841 133.6876
4 0 4 -33.9094 -0.3748
4 0 6 -0.1973 107.5725
4 0 8 51.7872 0.6704
4 0 10 -0.2116 13.7003
4 0 12 121.6877 -0.1967
4 0 14 -0.3531 -69.1169
4 0 16 -22.9901 0.1149
4 0 18 -0.3571 11.6045
4 0 20 -56.8562 -0.7817
4 0 22 -0.0520 -9.7349
4 0 24 -10.3942 -0.6191
4 0 26 -0.0080 -5.5931
4 0 28 -8.8826 0.2941
4 0 30 0.0666 25.9389
4 0 32 17.3767 0.2109
4 0 34 0.0340 5.3543
4 0 36 27.1999 0.0721
4 0 38 -0.0181 -13.8589
4 0 40 -0.9141 0.0878
4 0 42 0.0560 -21.5151
4 0 44 1.3006 0.1312
4 1 1 -76.5921 144.0103
4 1 3 83.8099 -24.6234
4 1 5 -76.6072 -16.0525
4 1 7 0.1398 12.2854
4 1 9 -135.6515 -74.1610
4 1 11 28.6574 29.9401
4 1 13 13.6071 27.7022
4 1 15 46.1172 31.3242
4 1 17 -28.4990 -74.4379
4 1 19 -7.6370 -15.9987
4 1 21 -6.9305 10.6403
4 1 23 11.5426 0.2739
4 1 25 -13.0701 -18.3400
4 1 27 -3.0707 -2.1537
4 1 29 19.1202 10.8982
4 1 31 -3.5425 23.7956
4 1 33 -7.7852 -0.6658
4 1 35 -9.4586 13.6889
4 1 37 1.8419 1.7469
4 1 39 6.3225 0.2673
4 1 41 2.6518 23.6987
4 1 43 -19.1513 -4.3977
4 1 45 -8.3022 2.1075
4 2 2 104.4675 168.2177
4 2 4 253.4418 18.1083
4 2 6 -169.5500 20.4271
4 2 8 -109.0292 390.3095
4 2 10 36.1008 31.3053
4 2 12 -65.1485 160.4703
4 2 14 18.4728 -45.9131
4 2 16 55.5240 -58.3619
4 2 18 9.4120 -59.3977
4 2 20 4.2750 -17.8526
4 2 22 -0.2442 6.6822
4 2 24 18.1434 12.1696
4 2 26 -3.6232 -8.2543
4 2 28 -4.0539 8.9707
4 2 30 0.4156 0.1411
4 2 32 2.3240 -1.0646
4 2 34 1.5385 -16.5080
4 2 36 4.1912 0.0961
4 2 38 -7.0226 13.5138
4 2 40 2.5934 4.1888
4 2 42 21.2920 -0.5851
4 2 44 7.2678 13.2688
4 3 1 -431.8462 -319.9986
4 3 3 -115.4207 185.7972
4 3 5 -312.2819 -94.2524
4 3 7 -272.4518 54.7159
4 3 9 224.7813 -44.9730
4 3 11 17.5571 -32.0566
4 3 13 -69.4964 -24.2359
4 3 15 -26.2647 -0.0434
4 3 17 -13.3609 -41.2833
4 3 19 27.0233 -2.3129
4 3 21 24.9077 14.9144
4 3 23 -20.8374 17.2164
4 3 25 10.2572 -7.1761
4 3 27 1.0923 -0.3785
4 3 29 -19.1122 -4.8761
4 3 31 -10.1868 16.5484
4 3 33 -2.0119 -20.4240
4 3 35 10.8051 3.1920
4 3 37 3.3158 -11.8609
4 3 39 2.3450 -8.1102
4 3 41 -6.4234 -13.6008
4 3 43 -8.2038 1.2018
4 3 45 1.6971 17.4050
4 4 0 -55.6883 -6.0288
4 4 2 -69.2709 0.3363
4 4 4 267.0297 -0.3338
4 4 6 89.5001 0.1104
4 4 8 88.8670 1.3101
4 4 10 -70.1687 0.1652
4 4 12 30.5289 -0.5294
4 4 14 -41.4201 0.0174
4 4 16 8.4885 0.6996
4 4 18 16.2018 -0.1225
4 4 20 -38.6266 0.0607
4 4 22 -50.0749 0.0019
4 4 24 21.6512 -0.4096
4 4 26 4.9285 0.0306
4 4 28 -7.9178 0.2821
4 4 30 6.6600 0.0191
4 4 32 3.9788 0.0995
4 4 34 0.8053 0.0050
4 4 36 -1.9612 -0.0894
4 4 38 32.0653 -0.0640
4 4 40 21.1466 -0.0564
4 4 42 1.1147 0.0354
4 4 44 19.9015 0.0160
5 0 1 24.4882 25.4850
5 0 3 148.8565 -151.1276
5 0 5 -141.4819 -141.1481
5 0 7 -39.0654 40.0253
5 0 9 51.9808 50.3740
5 0 11 -24.0037 22.5210
5 0 13 31.8534 36.1878
5 0 15 23.7512 -28.6187
5 0 17 -15.7677 -13.1802
5 0 19 0.8670 -1.1412
5 0 21 -7.0201 -7.2503
5 0 23 0.3464 0.0109
5 0 25 10.6368 10.8637
5 0 27 2.1772 -1.8985
5 0 29 -2.3359 -2.2543
5 0 31 -14.2947 14.4381
5 0 33 6.6097 6.5085
5 0 35 -1.9150 1.9889
5 0 37 12.4021 12.4952
5 0 39 -0.1318 0.1037
5 0 41 -12.5129 -12.5210
5 0 43 -15.3853 15.2389
5 0 45 6.3037 6.2888
5 1 0 2.7690 -0.4023
5 1 2 398.4320 145.5211
5 1 4 59.5143 -20.8338
5 1 6 40.8718 291.7598
5 1 8 38.6745 50.0339
5 1 10 -27.1137 -22.6531
5 1 12 25.6386 -14.0787
5 1 14 57.6473 49.5109
5 1 16 -28.3816 18.4001
5 1 18 -16.9010 7.3588
5 1 20 12.4475 -23.8545
5 1 22 -14.8677 -1.0691
5 1 24 9.8135 3.9253
5 1 26 5.7788 -8.5458
5 1 28 -1.9590 6.4181
5 1 30 -6.4063 -11.8785
5 1 32 -7.0435 2.4531
5 1 34 2.7481 -17.8853
5 1 36 10.0266 -15.9816
5 1 38 17.0780 6.7631
5 1 40 10.2768 2.9904
5 1 42 15.6655 7.8626
5 1 44 2.5155 -1.2428
5 2 1 50.1607 144.4898
5 2 3 -1.6030 380.7513
5 2 5 198.9363 -49.3505
5 2 7 48.5456 -97.9065
5 2 9 25.8866 -71.9955
5 2 11 3.1446 -86.8256
5 2 13 13.4106 64.1894
5 2 15 -12.1092 34.6622
5 2 17 17.3416 -40.4919
5 2 19 7.3900 2.2040
5 2 21 1.6070 -8.8245
5 2 23 -3.2687 2.2413
5 2 25 -14.8125 0.0633
5 2 27 -0.4003 -2.5199
5 2 29 -2.7569 -10.2567
5 2 31 20.9006 4.4010
5 2 33 -5.9576 3.2039
5 2 35 -0.7090 1.6587
5 2 37 12.4004 14.9376
5 2 39 7.2497 -3.5906
5 2 41 12.5315 5.8653
5 2 43 -10.7690 16.4190
5 2 45 -14.5711 -15.0401
5 3 0 52.9576 -0.2690
5 3 2 97.6019 325.2581
5 3 4 0.6682 -48.3404
5 3 6 -192.8377 -218.9745
5 3 8 -44.7188 -7.0656
5 3 10 73.9982 26.0815
5 3 12 0.0274 38.3846
5 3 14 -9.1096 10.6503
5 3 16 18.2646 27.1678
5 3 18 13.7324 -19.1057
5 3 20 15.1257 3.2619
5 3 22 6.1574 13.4333
5 3 24 -1.4462 -9.8531
5 3 26 1.4154 -4.9327
5 3 28 -17.0682 1.1316
5 3 30 -8.7903 -0.2840
5 3 32 -10.7514 7.4511
5 3 34 1.6787 11.2802
5 3 36 13.5343 -1.4349
5 3 38 11.6830 -6.5679
5 3 40 16.6823 12.0956
5 3 42 -5.7485 -17.0565
5 3 44 -5.1062 -4.2423
5 4 1 42.1334 134.3075
5 4 3 -56.5148 76.0763
5 4 5 78.1391 -246.3070
5 4 7 73.0472 22.1979
5 4 9 83.7676 -6.4533
5 4 11 6.0695 -36.4007
5 4 13 30.1658 12.0021
5 4 15 18.3929 -16.6383
5 4 17 30.7077 -18.7471
5 4 19 32.5468 1.2824
5 4 21 10.9346 -6.1868
5 4 23 -27.9217 -38.3381
5 4 25 11.5221 6.7906
5 4 27 -3.9252 7.2392
5 4 29 13.5264 -1.2135
5 4 31 -13.1843 1.9531
5 4 33 -4.8835 18.2913
5 4 35 1.0841 4.4533
5 4 37 -4.9796 -12.3159
5 4 39 -6.6526 -17.6766
5 4 41 -0.2016 -0.7855
5 4 43 5.2474 23.2594
5 4 45 6.8140 10.9070
5 5 0 162.5254 -0.0627
5 5 2 66.3002 0.1587
5 5 4 -106.6692 -0.2975
5 5 6 122.5629 -3.1353
5 5 8 20.9667 -0.3353
5 5 10 19.1942 -1.1963
5 5 12 82.1679 0.1022
5 5 14 68.0799 0.1650
5 5 16 30.1603 -0.0176
5 5 18 -14.9499 0.0055
5 5 20 0.9291 0.0988
5 5 22 -6.2568 0.9606
5 5 24 -4.8225 -0.1600
5 5 26 8.5094 0.2671
5 5 28 0.7994 -0.0975
5 5 30 3.4593 -0.2050
5 5 32 -7.0871 -0.0083
5 5 34 7.0500 0.1038
5 5 36 -12.9039 -0.0248
5 5 38 0.6622 -0.0577
5 5 40 18.4845 -0.0149
5 5 42 25.1298 0.0263
5 5 44 -11.1767 0.0221
6 0 0 141.6617 -5.0670
6 0 2 -0.3108 -35.6332
6 0 4 -86.3706 -1.0388
6 0 6 -0.0916 -112.3280
6 0 8 -14.0874 2.0169
6 0 10 -0.2680 -96.0577
6 0 12 -158.5125 -0.5374
6 0 14 -0.3307 29.1305
6 0 16 -5.4913 0.4509
6 0 18 -0.2760 -23.4967
6 0 20 6.5288 -0.4010
6 0 22 -0.1162 12.8631
6 0 24 17.7519 -0.4725
6 0 26 -0.0597 -3.8219
6 0 28 16.4869 0.6167
6 0 30 0.0234 4.4834
6 0 32 -5.3875 0.3813
6 0 34 0.0176 6.2978
6 0 36 -17.6398 0.0607
6 0 38 -0.0279 -1.7393
6 0 40 18.6811 0.0177
6 0 42 0.0105 -1.3086
6 0 44 9.2398 0.0606
6 1 1 325.6158 31.8039
6 1 3 19.6739 -141.2591
6 1 5 -77.8391 18.3680
6 1 7 21.4505 -80.9699
6 1 9 45.4457 -103.4595
6 1 11 81.8289 46.4615
6 1 13 -53.8582 -91.3745
6 1 15 1.4586 32.8360
6 1 17 -40.7980 -69.5344
6 1 19 -5.4330 -24.7443
6 1 21 3.5174 7.7354
6 1 23 -7.3823 -9.7779
6 1 25 10.2012 18.9397
6 1 27 2.9417 -16.0009
6 1 29 11.6549 -17.7443
6 1 31 -7.7335 7.7447
6 1 33 -0.5711 -0.1590
6 1 35 -9.7119 8.6210
6 1 37 -21.0927 4.8053
6 1 39 -5.2841 1.6029
6 1 41 -11.4851 -12.2345
6 1 43 -8.9899 13.3472
6 1 45 -9.4101 17.2783
6 2 0 129.8353 -3.5364
6 2 2 77.0675 101.2349
6 2 4 314.4744 -91.2386
6 2 6 -49.4227 -47.3480
6 2 8 -59.8197 56.3869
6 2 10 -24.2850 23.6136
6 2 12 4.6929 51.3336
6 2 14 19.0282 -27.4624
6 2 16 -6.4848 5.4834
6 2 18 12.7946 -2.3770
6 2 20 -4.1318 -14.9454
6 2 22 -40.5485 -7.8386
6 2 24 -17.0876 28.2976
6 2 26 0.6951 -1.6126
6 2 28 17.3973 8.5012
6 2 30 0.7396 -4.9474
6 2 32 -7.9264 18.5100
6 2 34 4.4394 -14.5494
6 2 36 3.9885 -13.1039
6 2 38 -8.6235 12.6889
6 2 40 0.5059 -11.8799
6 2 42 -1.7527 15.6095
6 2 44 -11.9129 1.1268
6 3 1 111.5578 44.0391
6 3 3 156.9602 -190.1533
6 3 5 -85.3540 125.9058
6 3 7 90.4246 75.1912
6 3 9 57.9322 -39.3351
6 3 11 10.1969 34.5908
6 3 13 38.4403 -4.8788
6 3 15 -35.4684 -64.4312
6 3 17 40.0944 7.4392
6 3 19 11.9291 20.2720
6 3 21 -33.8925 22.5632
6 3 23 -6.7447 -8.8546
6 3 25 -8.0986 20.0332
6 3 27 -1.6000 -15.7375
6 3 29 22.9748 -2.2918
6 3 31 -8.2480 11.0012
6 3 33 -2.7610 7.1077
6 3 35 -7.2053 12.8178
6 3 37 3.5180 -7.3475
6 3 39 2.4394 1.7149
6 3 41 11.3727 11.6992
6 3 43 -12.1933 -16.8943
6 3 45 -10.8008 5.5543
6 4 0 20.1763 -2.1869
6 4 2 -61.7519 42.2045
6 4 4 85.9167 -230.9459
6 4 6 -65.9515 136.5351
6 4 8 97.4188 -161.0550
6 4 10 55.6602 -55.6003
6 4 12 -16.3943 61.1396
6 4 14 -45.9159 -4.5487
6 4 16 66.1656 32.7811
6 4 18 -25.1657 5.6492
6 4 20 -26.3140 15.2757
6 4 22 10.9665 31.3106
6 4 24 8.4841 1.4400
6 4 26 0.6975 -7.1786
6 4 28 4.6189 11.1537
6 4 30 4.7002 -2.6138
6 4 32 7.1374 -2.1060
6 4 34 -5.7560 10.4781
6 4 36 -4.3121 -3.0778
6 4 38 5.5822 0.1452
6 4 40 26.8599 -5.8575
6 4 42 8.7521 1.6675
6 4 44 -1.6459 -3.1796
6 5 1 -200.8245 90.4439
6 5 3 88.3279 73.0218
6 5 5 146.7892 -226.8673
6 5 7 -118.0797 6.0152
6 5 9 -46.9681 -1.5187
6 5 11 43.4126 33.1774
6 5 13 35.2747 30.0331
6 5 15 -5.6210 -12.8248
6 5 17 -35.9907 16.4248
6 5 19 -10.0028 12.7542
6 5 21 17.5566 6.7023
6 5 23 -4.0813 -10.7544
6 5 25 -21.0456 31.2054
6 5 27 -3.4162 -9.9666
6 5 29 10.1353 0.4976
6 5 31 6.1574 -2.0097
6 5 33 -1.1063 -5.4170
6 5 35 1.4896 -5.6434
6 5 37 2.7127 -5.3263
6 5 39 4.9039 -21.8773
6 5 41 -19.0944 13.6975
6 5 43 -23.9667 8.2973
6 5 45 13.7572 0.9606
6 6 0 -623.2640 -1.1933
6 6 2 16.1569 0.6311
6 6 4 98.2286 2.0607
6 6 6 101.3670 0.1566
6 6 8 -263.6023 3.4003
6 6 10 -154.9211 0.3341
6 6 12 -49.0269 -0.0072
6 6 14 3.5441 0.1627
6 6 16 -24.8121 0.3019
6 6 18 24.8618 -0.1483
6 6 20 7.6328 -0.7069
6 6 22 17.9943 -0.0479
6 6 24 21.0405 -0.8523
6 6 26 -9.6072 -0.0530
6 6 28 5.4714 0.2113
6 6 30 1.1063 -0.0290
6 6 32 -2.1665 0.0748
6 6 34 11.2836 0.0520
6 6 36 -8.4302 -0.0270
6 6 38 -0.4524 0.0085
6 6 40 -0.9618 -0.0058
6 6 42 -4.5372 0.0462
6 6 44 9.0196 0.0624
7 0 1 -211.8474 -211.4689
7 0 3 37.5261 -37.1631
7 0 5 -58.2207 -59.8593
7 0 7 -17.9259 21.3221
7 0 9 35.1222 30.8597
7 0 11 28.4240 -27.8629
7 0 13 -10.5974 -7.7487
7 0 15 -43.8047 40.1539
7 0 17 11.7075 13.5229
7 0 19 11.0490 -10.6250
7 0 21 0.9603 0.1838
7 0 23 -28.5059 29.1918
7 0 25 10.5765 10.3539
7 0 27 12.7091 -12.4755
7 0 29 -17.5677 -17.4420
7 0 31 -8.1641 8.2386
7 0 33 5.8311 5.7945
7 0 35 -7.6075 7.5395
7 0 37 3.7121 3.8341
7 0 39 14.8070 -14.9393
7 0 41 -0.9419 -0.9463
7 0 43 -1.3919 1.2770
7 0 45 16.8706 16.9085
7 1 0 -129.2690 -0.0877
7 1 2 -8.7746 -398.3554
7 1 4 -32.8756 46.9766
7 1 6 -194.9291 476.3230
7 1 8 62.2010 58.2597
7 1 10 -3.3038 -84.3184
7 1 12 -29.6946 -5.3500
7 1 14 -7.5112 0.2047
7 1 16 20.7552 -1.2419
7 1 18 3.7110 0.2872
7 1 20 5.1154 6.9397
7 1 22 -13.8679 16.7919
7 1 24 -1.1256 -23.9798
7 1 26 26.4753 -0.5497
7 1 28 4.6263 -2.4243
7 1 30 1.0907 -0.2031
7 1 32 -14.6991 4.7852
7 1 34 -0.8949 -10.7613
7 1 36 5.2704 16.3007
7 1 38 0.1624 -5.7409
7 1 40 17.1763 10.9488
7 1 42 -13.9181 -1.0641
7 1 44 6.9358 -15.6634
7 2 1 55.7404 87.5770
7 2 3 -44.6823 171.6806
7 2 5 -8.8309 -200.0066
7 2 7 46.7733 24.7340
7 2 9 2.1701 -5.1812
7 2 11 -2.5831 16.4231
7 2 13 67.8261 -44.9691
7 2 15 18.2640 18.9368
7 2 17 -33.3482 -41.1590
7 2 19 -3.6162 -10.0292
7 2 21 -30.4610 7.0651
7 2 23 1.3645 -15.2224
7 2 25 -7.5942 0.9596
7 2 27 -10.3266 7.9990
7 2 29 -25.3512 2.9719
7 2 31 14.7936 3.2988
7 2 33 15.9047 -21.1804
7 2 35 -1.6188 -23.2180
7 2 37 -7.6382 1.2607
7 2 39 -2.2876 2.1577
7 2 41 -16.0416 -5.3413
7 2 43 -18.0694 -0.8351
7 2 45 8.5279 -5.4747
7 3 0 -97.4700 -0.3370
7 3 2 -195.8519 58.9964
7 3 4 197.4176 -34.2287
7 3 6 139.4050 3.8553
7 3 8 -37.6204 -36.3652
7 3 10 -50.5626 -49.8943
7 3 12 36.7937 21.0194
7 3 14 7.1688 -69.9590
7 3 16 -8.2542 29.5230
7 3 18 37.4598 0.4342
7 3 20 -0.6805 -22.8227
7 3 22 6.9947 36.4929
7 3 24 -4.4651 6.3030
7 3 26 -4.2266 18.0829
7 3 28 3.7540 -7.4053
7 3 30 -5.7056 -21.7462
7 3 32 2.2403 8.7403
7 3 34 0.3041 6.3287
7 3 36 -0.1563 3.4152
7 3 38 -2.8695 1.9286
7 3 40 7.9633 20.4938
7 3 42 -7.6606 -17.0712
7 3 44 7.1222 19.4223
7 4 1 -132.0592 251.7582
7 4 3 -44.1505 -93.3991
7 4 5 -141.5097 63.1269
7 4 7 35.7111 -3.5936
7 4 9 136.1716 -38.4222
7 4 11 43.4550 11.5563
7 4 13 -23.9540 -25.2575
7 4 15 -7.8523 55.7643
7 4 17 -27.2660 28.8844
7 4 19 -2.9008 3.2541
7 4 21 18.6729 0.2806
7 4 23 6.7426 -21.4279
7 4 25 -10.1738 -32.4605
7 4 27 2.6181 3.4302
7 4 29 -4.1209 4.1805
7 4 31 -8.9495 14.6359
7 4 33 -2.3549 1.7682
7 4 35 -5.6903 2.8131
7 4 37 -1.3772 9.5950
7 4 39 20.7753 -2.9195
7 4 41 11.8198 16.9423
7 4 43 -1.2779 15.5632
7 4 45 -23.0009 4.3363
7 5 0 -102.3721 -0.3708
7 5 2 19.9074 -82.8499
7 5 4 -6.8275 11.3779
7 5 6 -235.7294 98.6160
7 5 8 -50.1292 -138.4777
7 5 10 -11.4426 65.8553
7 5 12 -43.2925 14.6193
7 5 14 -13.1380 -14.0853
7 5 16 -12.3017 -32.4652
7 5 18 -22.2074 8.8096
7 5 20 -8.3087 -43.4620
7 5 22 7.8363 30.2163
7 5 24 -2.7774 16.5852
7 5 26 -1.7373 -25.5391
7 5 28 -5.7522 4.7164
7 5 30 12.0643 7.0907
7 5 32 -4.8632 -3.0317
7 5 34 17.0709 3.6686
7 5 36 16.3610 -0.3922
7 5 38 5.0083 1.9478
7 5 40 13.0936 17.1061
7 5 42 -10.8335 -17.6777
7 5 44 1.1916 -18.1643
7 6 1 97.1688 -95.1973
7 6 3 59.9041 -226.9567
7 6 5 -13.0004 13.9051
7 6 7 85.9993 177.2416
7 6 9 66.2105 -72.5690
7 6 11 -30.6171 -55.7698
7 6 13 -44.7709 27.0808
7 6 15 -6.4535 28.5094
7 6 17 -2.1082 -45.1744
7 6 19 -16.9069 14.8793
7 6 21 -28.8085 6.0741
7 6 23 53.5821 35.6476
7 6 25 9.5070 2.4504
7 6 27 2.3402 1.1035
7 6 29 -4.9301 5.1616
7 6 31 1.1687 -0.6644
7 6 33 2.1176 10.9227
7 6 35 3.0554 13.1330
7 6 37 -15.7941 -12.2473
7 6 39 -18.8827 -6.1885
7 6 41 0.4989 0.1387
7 6 43 -21.7731 -15.9262
7 6 45 -11.9949 14.2767
7 7 0 -102.8761 -0.7369
7 7 2 155.4074 -1.1794
7 7 4 -96.1757 -0.1882
7 7 6 -2.4336 -4.4799
7 7 8 193.7856 -0.1960
7 7 10 0.3996 -1.8675
7 7 12 -15.1895 -0.2332
7 7 14 2.2479 0.0548
7 7 16 7.3944 -0.0584
7 7 18 -18.2045 0.0021
7 7 20 -29.2261 -0.0014
7 7 22 -5.2365 1.2720
7 7 24 -2.7971 -0.0412
7 7 26 17.5919 0.3795
7 7 28 11.2528 0.0055
7 7 30 20.8945 -0.1714
7 7 32 2.7740 -0.0291
7 7 34 -20.1795 0.1277
7 7 36 -6.9371 -0.0120
7 7 38 0.2127 -0.0673
7 7 40 4.2506 0.0414
7 7 42 27.5133 -0.0071
7 7 44 -27.2888 0.0199
8 0 0 74.3532 -2.5860
8 0 2 0.4675 -8.8038
8 0 4 -439.7413 1.5949
8 0 6 -0.2512 -147.8957
8 0 8 -116.4334 4.2021
8 0 10 -0.3929 8.8797
8 0 12 -10.7475 -0.1357
8 0 14 -0.2938 -24.8354
8 0 16 -66.7411 0.5103
8 0 18 -0.1268 11.9309
8 0 20 -11.9195 -0.6733
8 0 22 -0.0729 -34.0290
8 0 24 0.5514 -0.9056
8 0 26 -0.0597 1.4803
8 0 28 2.4661 0.3520
8 0 30 -0.0164 11.3218
8 0 32 6.1428 0.1822
8 0 34 0.0263 -3.8948
8 0 36 -19.3147 -0.0322
8 0 38 0.0143 0.0766
8 0 40 3.1224 -0.0596
8 0 42 0.0004 -29.8951
8 0 44 -19.5101 0.0071
8 1 1 -24.0454 55.4373
8 1 3 172.5090 36.6020
8 1 5 17.7476 148.3889
8 1 7 -33.8439 -240.1300
8 1 9 31.8234 97.0988
8 1 11 75.3223 -3.7312
8 1 13 13.5122 -34.1425
8 1 15 -15.2008 22.4518
8 1 17 -23.0215 -29.9884
8 1 19 -21.5902 -40.5392
8 1 21 1.4040 17.7005
8 1 23 0.7214 9.6186
8 1 25 -3.4327 -14.0049
8 1 27 -5.0010 5.8055
8 1 29 21.2622 -17.2036
8 1 31 -8.0986 -5.5227
8 1 33 -1.0663 15.9360
8 1 35 21.1496 -0.5622
8 1 37 -4.1548 -8.8591
8 1 39 1.6999 -3.1690
8 1 41 11.8515 -18.5887
8 1 43 -24.3636 7.8639
8 1 45 20.9620 19.1626
8 2 0 -390.6860 -0.9263
8 2 2 -58.2776 -41.9662
8 2 4 -48.2991 175.3823
8 2 6 85.9194 -73.4911
8 2 8 139.0469 -136.5914
8 2 10 6.2644 35.1478
8 2 12 54.9286 13.0080
8 2 14 40.5191 41.0135
8 2 16 52.1601 -11.2661
8 2 18 30.3711 40.4495
8 2 20 0.2637 -14.6614
8 2 22 -14.0862 -30.2255
8 2 24 2.6503 -20.3575
8 2 26 8.4790 5.4749
8 2 28 4.3013 0.8963
8 2 30 -6.5637 11.0560
8 2 32 2.8845 -0.4446
8 2 34 -7.4794 -0.1809
8 2 36 30.4583 -2.4192
8 2 38 3.6467 -0.1797
8 2 40 -0.6096 -10.6558
8 2 42 -3.3575 25.9422
8 2 44 -1.2435 -5.7798
8 3 1 -17.0898 81.9531
8 3 3 -25.6465 176.0799
8 3 5 50.9637 160.1468
8 3 7 -93.0896 51.2377
8 3 9 -95.0566 39.4093
8 3 11 8.1756 26.4194
8 3 13 -25.9391 41.7347
8 3 15 -44.1786 -5.2138
8 3 17 19.7686 12.3778
8 3 19 -37.2759 7.6868
8 3 21 7.9677 15.1485
8 3 23 -6.8177 -4.3904
8 3 25 -7.2439 -5.3886
8 3 27 2.8808 5.0333
8 3 29 -0.2940 -7.3006
8 3 31 2.9146 13.3874
8 3 33 0.1292 -0.9936
8 3 35 -0.9712 -0.1045
8 3 37 4.0462 15.1172
8 3 39 20.1742 9.9101
8 3 41 14.8597 7.0842
8 3 43 6.1266 19.0904
8 3 45 -1.9364 1.4818
8 4 0 196.3352 -0.2534
8 4 2 50.4473 12.0095
8 4 4 -49.0320 -52.5124
8 4 6 57.8402 -13.1375
8 4 8 -103.8074 -53.3436
8 4 10 33.3165 17.4102
8 4 12 16.2666 31.8772
8 4 14 -30.9514 -21.1454
8 4 16 -44.0423 47.7094
8 4 18 22.4467 16.8187
8 4 20 -14.2667 -12.8636
8 4 22 -32.6806 0.3929
8 4 24 3.1102 -14.1536
8 4 26 -4.3660 -9.3098
8 4 28 4.5860 7.5425
8 4 30 -0.4515 -3.1749
8 4 32 6.4850 1.5950
8 4 34 -3.6996 2.1582
8 4 36 15.2590 -4.8665
8 4 38 11.0235 10.4311
8 4 40 1.2551 -0.9696
8 4 42 15.4140 -2.4544
8 4 44 -13.7838 -8.5478
8 5 1 124.3365 7.1697
8 5 3 49.0361 69.3122
8 5 5 111.1734 60.7898
8 5 7 -98.3028 -114.0075
8 5 9 -47.4649 -80.3158
8 5 11 21.2771 6.1085
8 5 13 -48.9277 -32.6634
8 5 15 -48.1246 0.2102
8 5 17 -19.8381 -46.7199
8 5 19 -23.2647 45.3865
8 5 21 -14.1660 -19.0414
8 5 23 -7.2454 -22.7981
8 5 25 16.3042 6.4680
8 5 27 -12.0830 -2.1200
8 5 29 0.0697 -1.9533
8 5 31 1.0901 1.1249
8 5 33 3.3273 -5.3055
8 5 35 -11.5462 18.5659
8 5 37 -15.2449 7.3753
8 5 39 -3.5042 1.5172
8 5 41 -22.5614 -11.3432
8 5 43 -4.5060 -14.7479
8 5 45 -8.4170 10.0221
8 6 0 -117.5249 0.0799
8 6 2 45.3307 -66.5340
8 6 4 -58.8387 -64.2371
8 6 6 -11.8289 55.8528
8 6 8 92.3022 -56.7092
8 6 10 60.4465 -24.0221
8 6 12 -34.4882 44.3361
8 6 14 -3.3835 -5.5637
8 6 16 26.3050 -18.8424
8 6 18 7.1010 4.0284
8 6 20 -13.0997 -9.6624
8 6 22 11.3715 -34.9547
8 6 24 8.8544 25.9525
8 6 26 -7.9225 -2.4639
8 6 28 -3.1502 4.9195
8 6 30 -6.0137 -2.7398
8 6 32 17.3947 -14.8496
8 6 34 -2.0765 1.6543
8 6 36 -0.7544 16.4198
8 6 38 1.2244 1.0924
8 6 40 -4.3449 18.9572
8 6 42 -1.3585 4.0977
8 6 44 3.2462 25.8472
8 7 1 -71.9630 -137.1104
8 7 3 -48.9890 154.5733
8 7 5 23.7370 -96.7117
8 7 7 -57.2155 -8.4308
8 7 9 -0.5589 -74.5758
8 7 11 46.9178 -6.1568
8 7 13 42.3148 44.7838
8 7 15 4.2740 14.3712
8 7 17 -14.7007 8.3012
8 7 19 2.0176 5.0653
8 7 21 -3.8312 -31.1783
8 7 23 8.2034 -10.3914
8 7 25 16.7937 -0.0096
8 7 27 -10.7645 8.2114
8 7 29 -8.2589 9.0186
8 7 31 4.1261 1.8938
8 7 33 10.6706 -15.5785
8 7 35 0.1572 -11.7308
8 7 37 -20.7125 -7.5086
8 7 39 -1.7170 -2.2565
8 7 41 -17.9161 6.3923
8 7 43 1.6969 18.4127
8 8 0 -28.1354 -0.0321
8 8 2 5.1339 0.5839
8 8 4 241.7379 3.1959
8 8 6 -5.0885 0.2211
8 8 8 -28.5474 4.0113
8 8 10 -33.0801 0.1423
8 8 12 -76.3876 0.2870
8 8 14 31.8444 0.1047
8 8 16 -8.1335 0.4490
8 8 18 14.2938 -0.0333
8 8 20 6.3468 -0.7816
8 8 22 -34.4594 -0.0502
8 8 24 17.6493 -0.8850
8 8 26 -16.0022 -0.0383
8 8 28 -6.0019 0.1851
8 8 30 -18.1532 -0.0083
8 8 32 -5.7687 0.0177
8 8 34 11.3184 0.0845
8 8 36 -2.0420 0.0367
8 8 38 19.4762 0.0050
8 8 40 -3.9576 -0.0137
8 8 42 -2.3085 0.0157
8 8 44 23.9041 0.1130
9 0 1 -38.6170 -38.6318
9 0 3 99.0983 -98.1454
9 0 5 27.1311 24.1825
9 0 7 23.9531 -18.2317
9 0 9 -33.0486 -39.2857
9 0 11 13.3563 -10.7435
9 0 13 -10.6990 -9.4000
9 0 15 17.8629 -19.8613
9 0 17 -8.5331 -7.8961
9 0 19 4.1665 -3.0638
9 0 21 -3.8682 -5.1868
9 0 23 -0.1720 1.0212
9 0 25 8.9531 8.4504
9 0 27 -5.2941 5.4441
9 0 29 3.2091 3.2029
9 0 31 1.9628 -1.9167
9 0 33 0.5534 0.4469
9 0 35 -6.7732 6.6878
9 0 37 -19.7191 -19.5693
9 0 39 -8.3536 8.2736
9 0 41 2.6476 2.5917
9 0 43 8.4056 -8.3874
9 0 45 -12.0927 -12.0671
9 1 0 128.7045 0.1455
9 1 2 -114.2324 126.5858
9 1 4 -1.1516 -66.5677
9 1 6 -290.4469 -125.5851
9 1 8 -14.7177 -14.0907
9 1 10 -28.6258 -24.6676
9 1 12 -27.3962 5.8347
9 1 14 29.0329 -43.3121
9 1 16 10.0342 22.5657
9 1 18 11.7840 -30.3701
9 1 20 12.5203 0.8624
9 1 22 -24.5605 11.2991
9 1 24 14.8832 -28.6243
9 1 26 21.0360 -39.1335
9 1 28 -3.5867 -3.9848
9 1 30 -1.8217 2.5203
9 1 32 -2.8092 -17.9156
9 1 34 -1.1591 -0.2942
9 1 36 -6.8421 -24.9758
9 1 38 14.1472 -10.4039
9 1 40 3.4690 -2.0921
9 1 42 -6.8240 12.4096
9 1 44 -0.5598 -11.2565
9 2 1 -47.4629 114.9292
9 2 3 56.2481 -42.6909
9 2 5 96.9971 -2.9606
9 2 7 -13.5199 27.9031
9 2 9 0.7833 -21.2557
9 2 11 -15.7794 11.4774
9 2 13 23.8364 44.3955
9 2 15 -11.7046 24.0517
9 2 17 3.2982 38.1587
9 2 19 -7.8729 -3.8211
9 2 21 -11.9412 0.3328
9 2 23 -9.0709 -0.2594
9 2 25 22.6141 9.5301
9 2 27 2.3505 -12.0423
9 2 29 4.7191 2.7030
9 2 31 12.1426 -12.4160
9 2 33 2.4985 -0.0072
9 2 35 -3.2263 -2.0543
9 2 37 16.2232 -2.8412
9 2 39 -8.0977 10.8605
9 2 41 1.6370 -0.9017
9 2 43 4.1520 1.4769
9 2 45 -20.0689 -7.5415
9 3 0 -131.3127 -0.0556
9 3 2 -37.7427 -158.3459
9 3 4 36.4165 47.1253
9 3 6 118.3822 -22.5799
9 3 8 -22.7337 -78.2498
9 3 10 -22.5568 -51.4702
9 3 12 -25.6926 41.2393
9 3 14 -74.7730 -4.3540
9 3 16 34.9892 -9.1078
9 3 18 -38.7070 -20.3055
9 3 20 31.8454 2.1129
9 3 22 1.0217 12.0850
9 3 24 -33.2365 -17.1163
9 3 26 10.7528 -6.5597
9 3 28 6.0703 4.9307
9 3 30 -4.7677 -5.1694
9 3 32 17.7372 6.8552
9 3 34 7.5521 0.1227
9 3 36 -2.9347 17.4029
9 3 38 1.5089 9.9203
9 3 40 -1.8334 -3.3443
9 3 42 3.9365 3.6820
9 3 44 -2.0766 0.6147
9 4 1 111.8024 79.6251
9 4 3 -61.8056 38.1647
9 4 5 -6.1174 68.0041
9 4 7 -41.1065 149.4305
9 4 9 84.8575 19.1779
9 4 11 -41.9119 -2.0045
9 4 13 -51.4083 19.5787
9 4 15 -28.0952 -20.4963
9 4 17 -8.2173 -48.1741
9 4 19 -2.4460 0.8594
9 4 21 -22.7122 6.0147
9 4 23 -13.5282 -10.9818
9 4 25 2.2978 10.1524
9 4 27 0.2947 8.5664
9 4 29 -4.9697 11.6223
9 4 31 10.6542 -3.6542
9 4 33 0.3502 3.6614
9 4 35 -18.4561 3.2115
9 4 37 6.0034 13.1119
9 4 39 5.3878 -23.3837
9 4 41 13.5749 9.2326
9 4 43 10.2556 22.7587
9 4 45 -19.3837 -3.5758
9 5 0 -77.6891 -0.2024
9 5 2 -30.6267 -111.6796
9 5 4 3.2061 82.2732
9 5 6 173.4164 48.8724
9 5 8 -41.6046 -93.0797
9 5 10 58.2183 -12.4763
9 5 12 23.8615 12.8991
9 5 14 -67.8713 -14.2240
9 5 16 -28.4257 -52.1771
9 5 18 5.2665 15.8385
9 5 20 6.3492 -12.6138
9 5 22 19.3510 44.7521
9 5 24 19.0977 4.0665
9 5 26 -3.3506 -0.0590
9 5 28 -5.5493 20.7727
9 5 30 -4.2304 -2.3025
9 5 32 9.4911 -2.0840
9 5 34 2.3509 0.5787
9 5 36 -9.7284 -18.1096
9 5 38 -2.1214 2.6704
9 5 40 -10.9371 -20.0229
9 5 42 3.0410 3.8801
9 5 44 17.2255 -5.0969
9 6 1 -56.8844 -94.7033
9 6 3 -59.1860 7.9894
9 6 5 -107.6346 26.0137
9 6 7 205.1928 -59.8013
9 6 9 64.1325 33.3299
9 6 11 38.4976 -32.5011
9 6 13 20.6691 -25.8884
9 6 15 -9.5536 -25.7558
9 6 17 -4.7627 29.9682
9 6 19 3.6119 -6.8163
9 6 21 -10.1568 17.9943
9 6 23 15.3380 28.4103
9 6 25 -24.7365 -21.3263
9 6 27 12.2755 -8.2790
9 6 29 1.7805 -4.3190
9 6 31 2.5173 -20.9975
9 6 33 1.4435 -3.1165
9 6 35 -21.6626 -18.9697
9 6 37 2.9724 -1.8987
9 6 39 -0.4501 0.3425
9 6 41 5.2622 -10.9696
9 6 43 -3.2126 4.8114
9 7 0 144.9307 -0.6426
9 7 2 -98.0262 -4.1026
9 7 4 -73.5782 86.4499
9 7 6 -17.3922 3.6126
9 7 8 153.2928 69.1113
9 7 10 44.9470 -64.0631
9 7 12 -16.5306 17.2185
9 7 14 -16.6525 49.1561
9 7 16 -26.8703 7.2728
9 7 18 22.6208 11.7232
9 7 20 1.0637 4.7100
9 7 22 -6.9547 15.9843
9 7 24 -1.5348 -4.7642
9 7 26 -3.0592 18.8149
9 7 28 -8.7097 2.3169
9 7 30 -0.3683 2.2900
9 7 32 -6.1511 17.2182
9 7 34 5.5322 15.5661
9 7 36 -0.6698 -3.9365
9 7 38 2.4570 -0.2191
9 7 40 -10.6770 8.9333
9 7 42 2.9234 -28.6531
9 7 44 4.2837 24.4650
9 8 1 10.1290 -77.6890
9 8 3 14.1152 -142.9223
9 8 5 44.5670 11.2627
9 8 7 121.4001 76.6116
9 8 9 18.9871 -6.7596
9 8 11 -16.6401 28.7977
9 8 13 3.2365 9.6144
9 8 15 22.3156 22.7426
9 8 17 -9.7734 -39.2038
9 8 19 14.8037 -0.9208
9 8 21 14.5256 11.9445
9 8 23 9.0489 13.9374
9 8 25 26.9983 -32.5745
9 8 27 4.8259 -2.8081
9 8 29 -0.0297 9.3122
9 8 31 3.2098 3.5953
9 8 33 11.1371 -14.2186
9 8 35 -8.5912 1.8078
9 8 37 2.3254 1.1334
9 8 39 14.3347 -20.9911
9 8 41 -9.6461 4.3801
9 8 43 -7.9816 -18.3307
9 9 0 94.3169 -0.8890
9 9 2 58.6501 -0.4179
9 9 4 -149.9428 -0.7216
9 9 6 68.9494 -4.3462
9 9 8 26.1734 -0.3007
9 9 10 -21.0802 -1.6495
9 9 12 -25.9695 -0.1603
9 9 14 -16.0016 0.1120
9 9 16 30.6996 0.1079
9 9 18 8.6003 -0.3220
9 9 20 -24.0063 0.1201
9 9 22 10.3630 1.1074
9 9 24 9.8681 0.1284
9 9 26 9.4442 0.3033
9 9 28 1.7213 0.0361
9 9 30 -3.3383 -0.1961
9 9 32 -17.8275 0.0076
9 9 34 4.8581 0.1213
9 9 36 3.4128 -0.0279
9 9 38 -4.3175 -0.0657
9 9 40 18.3582 0.0237
9 9 42 15.3199 0.0221
9 9 44 -0.9998 -0.0398
10 0 0 -259.3843 -1.7479
10 0 2 0.2678 -31.4571
10 0 4 82.6603 3.4323
10 0 6 -0.1756 -45.9181
10 0 8 -166.8293 5.4283
10 0 10 0.1191 1.9824
10 0 12 -49.9666 0.1394
10 0 14 0.0937 2.0405
10 0 16 -6.3579 0.4588
10 0 18 -0.0460 -32.9815
10 0 20 23.5196 -1.0149
10 0 22 -0.1605 -62.4315
10 0 24 19.2712 -1.2172
10 0 26 -0.0856 -1.1078
10 0 28 -1.9669 0.1467
10 0 30 -0.0434 -15.0947
10 0 32 14.1260 0.0061
10 0 34 -0.0080 -18.8499
10 0 36 7.2534 -0.0666
10 0 38 0.0374 -27.5684
10 0 40 -1.7869 -0.0404
10 0 42 -0.0023 3.9233
10 0 44 9.3345 0.0438
10 1 1 -63.0170 51.7987
10 1 3 21.7736 62.5331
10 1 5 101.5869 -81.7788
10 1 7 -20.5561 -220.3817
10 1 9 61.7685 -26.0511
10 1 11 120.4874 -55.7046
10 1 13 57.3484 -2.5401
10 1 15 3.9596 -24.8999
10 1 17 -14.3593 17.3526
10 1 19 36.2338 3.4532
10 1 21 -0.8165 35.8908
10 1 23 5.2012 16.2498
10 1 25 14.5783 -13.7213
10 1 27 0.6120 1.4670
10 1 29 -0.4753 7.6717
10 1 31 11.3216 19.3519
10 1 33 1.5658 2.8689
10 1 35 2.8363 -16.0671
10 1 37 -28.1618 -17.0180
10 1 39 14.9672 3.0925
10 1 41 -8.2779 10.3554
10 1 43 2.6974 -22.6422
10 1 45 -0.9562 2.5752
10 2 0 -113.3719 -0.3773
10 2 2 -89.9117 34.2665
10 2 4 18.7359 -90.9553
10 2 6 -100.4863 -84.4099
10 2 8 30.4293 135.4802
10 2 10 27.4073 57.2938
10 2 12 -1.3103 20.1370
10 2 14 2.6629 22.5606
10 2 16 -7.8505 -29.6383
10 2 18 -11.8510 1.0198
10 2 20 6.2974 -18.9649
10 2 22 -4.0880 -44.8684
10 2 24 16.9199 5.4216
10 2 26 6.9157 -1.2346
10 2 28 -19.2774 6.3885
10 2 30 -3.8004 6.3803
10 2 32 -13.6505 2.5365
10 2 34 25.9352 5.8488
10 2 36 -16.6865 -6.4628
10 2 38 12.2728 11.5345
10 2 40 1.9962 2.0276
10 2 42 -0.5057 -0.4566
10 2 44 0.0867 25.8857
10 3 1 192.9799 94.2191
10 3 3 -66.5223 111.8054
10 3 5 -1.9247 19.5910
10 3 7 109.6614 -22.2924
10 3 9 18.9043 24.0034
10 3 11 89.4728 -32.2717
10 3 13 -8.6432 29.1362
10 3 15 33.5774 8.8736
10 3 17 -15.9246 9.2944
10 3 19 25.8735 -3.6454
10 3 21 15.6111 -18.7940
10 3 23 -18.3283 -3.5738
10 3 25 -32.7827 -4.3575
10 3 27 -7.3347 -7.4678
10 3 29 -5.6838 9.2795
10 3 31 -4.5209 -1.3558
10 3 33 -13.4410 7.9248
10 3 35 -0.4069 2.0048
10 3 37 11.5417 -9.5980
10 3 39 3.6025 1.7064
10 3 41 -11.5442 18.9498
10 3 43 5.2272 4.6832
10 4 0 363.7470 -0.3784
10 4 2 -45.7574 -46.3607
10 4 4 -137.3478 -103.0565
10 4 6 74.5910 79.9410
10 4 8 -74.2841 -2.5150
10 4 10 -20.7811 10.4875
10 4 12 -32.7503 37.1491
10 4 14 16.3526 -41.1498
10 4 16 29.3379 -0.4472
10 4 18 24.7676 -31.1916
10 4 20 -24.5593 -7.5472
10 4 22 1.6025 -17.3123
10 4 24 11.9760 -16.0936
10 4 26 0.5583 11.8986
10 4 28 -4.0451 9.1091
10 4 30 -2.3766 0.0088
10 4 32 -3.8948 1.8866
10 4 34 1.8494 -0.8100
10 4 36 -7.1147 -7.2696
10 4 38 -12.7139 -23.9870
10 4 40 -16.6109 -12.2675
10 4 42 11.9838 8.4026
10 4 44 -4.6581 -8.4326
10 5 1 78.1029 -138.3767
10 5 3 -22.9120 -115.8979
10 5 5 -6.7359 10.8561
10 5 7 126.2205 159.4155
10 5 9 -61.5623 5.1062
10 5 11 7.9968 -55.0663
10 5 13 61.6244 27.4265
10 5 15 3.1931 -15.2626
10 5 17 43.7305 -16.1748
10 5 19 12.0245 -24.8270
10 5 21 7.7347 29.9228
10 5 23 -11.8501 -3.9297
10 5 25 8.5624 28.1610
10 5 27 12.4244 13.1170
10 5 29 -5.4885 -5.3918
10 5 31 -1.4963 -0.4034
10 5 33 1.2024 -0.0662
10 5 35 -4.2524 -16.7413
10 5 37 -6.6178 -4.0492
10 5 39 -16.0633 -11.8242
10 5 41 1.4854 3.1572
10 5 43 -6.9857 0.6967
10 6 0 -11.6234 -0.4302
10 6 2 -74.1616 -45.8612
10 6 4 -172.4939 -207.9801
10 6 6 -53.6970 68.1367
10 6 8 -32.3950 -11.2901
10 6 10 8.0476 41.8769
10 6 12 6.2204 59.5162
10 6 14 -4.1587 35.9424
10 6 16 -41.1802 16.9080
10 6 18 10.8410 25.7135
10 6 20 -7.4670 -0.8207
10 6 22 24.4821 12.3958
10 6 24 12.2689 30.2151
10 6 26 -13.9604 -4.8301
10 6 28 16.0667 -14.9851
10 6 30 -2.2168 -2.4391
10 6 32 18.5610 -3.9602
10 6 34 -13.9648 0.3216
10 6 36 -3.9005 -1.0691
10 6 38 0.7828 1.1747
10 6 40 13.8804 11.9675
10 6 42 13.7987 1.2715
10 6 44 27.9134 7.5205
10 7 1 -69.1019 -35.0849
10 7 3 7.3862 -4.2005
10 7 5 -25.3977 32.9202
10 7 7 -8.3704 -25.1695
10 7 9 -39.0379 -11.7814
10 7 11 3.9315 71.2771
10 7 13 -27.4051 31.0537
10 7 15 -2.9287 -7.2871
10 7 17 45.5390 59.9256
10 7 19 -25.8382 -4.3051
10 7 21 19.8814 -23.4144
10 7 23 25.5350 -8.4163
10 7 25 -11.3580 40.5666
10 7 27 7.6127 -19.0736
10 7 29 -8.3130 -3.1415
10 7 31 4.3168 -0.5245
10 7 33 1.1916 -1.9703
10 7 35 -2.7528 1.4296
10 7 37 7.3259 -10.8537
10 7 39 -9.0256 8.2448
10 7 41 8.8402 2.9133
10 7 43 -0.6300 1.6458
10 8 0 22.2667 -1.1279
10 8 2 -13.5122 -0.0035
10 8 4 45.8444 89.2179
10 8 6 6.3303 -88.4475
10 8 8 -40.6593 95.7733
10 8 10 -5.7764 113.8612
10 8 12 84.0732 -49.4457
10 8 14 -25.5292 33.9134
10 8 16 -19.5478 -0.4136
10 8 18 0.9769 -17.5427
10 8 20 -10.3379 4.8770
10 8 22 13.6718 1.9577
10 8 24 -3.5031 8.5139
10 8 26 -5.2811 -2.7414
10 8 28 -0.0472 -4.0213
10 8 30 10.6492 5.5928
10 8 32 -4.1528 18.8936
10 8 34 -3.7680 12.8154
10 8 36 -1.0138 0.4872
10 8 38 -1.5687 0.5402
10 8 40 -0.6865 14.4282
10 8 42 -7.2929 9.2186
10 8 44 -14.8262 -6.4819
10 9 1 68.7495 -1.7929
10 9 3 52.1677 132.2680
10 9 5 -6.1262 -39.8415
10 9 7 23.1803 -45.5341
10 9 9 -102.8515 -62.4115
10 9 11 -76.1873 -36.3604
10 9 13 -42.5911 47.3719
10 9 15 -17.0698 -6.7384
10 9 17 45.8468 -37.1247
10 9 19 30.8236 3.8581
10 9 21 10.7746 4.4982
10 9 23 -29.2646 -26.8170
10 9 25 12.9415 -17.1559
10 9 27 -13.8040 -11.7487
10 9 29 0.8830 9.4214
10 9 31 5.4816 1.4399
10 9 33 -1.0244 6.0519
10 9 35 2.1632 0.8143
10 9 37 -2.5950 -17.2532
10 9 39 -4.1587 0.3753
10 9 41 6.2485 23.8359
10 9 43 3.3798 -8.6036
10 10 0 -189.2115 -1.8786
10 10 2 167.6294 0.7736
10 10 4 -25.8189 1.5550
10 10 6 18.0431 0.5769
10 10 8 -12.2272 3.4521
10 10 10 -65.2679 0.4074
10 10 12 -159.8867 -0.0614
10 10 14 -31.2096 -0.0082
10 10 16 -57.5164 0.4882
10 10 18 17.7225 -0.1647
10 10 20 -16.2837 -0.6071
10 10 22 -32.1008 -0.2362
10 10 24 8.7869 -0.8547
10 10 26 -17.9766 -0.1104
10 10 28 -13.0416 0.1883
10 10 30 -9.6709 -0.0511
10 10 32 14.1262 -0.0418
10 10 34 27.4743 0.0150
10 10 36 5.8464 -0.0310
10 10 38 -2.2777 0.0010
10 10 40 -20.0426 -0.1086
10 10 42 1.4765 0.0065
10 10 44 21.0215 0.0860
11 0 1 78.4151 78.8211
11 0 3 57.4917 -56.6800
11 0 5 -20.2349 -23.0755
11 0 7 11.5736 -5.4934
11 0 9 -53.1688 -59.4416
11 0 11 37.8777 -34.9189
11 0 13 -8.1605 -7.4129
11 0 15 15.5596 -17.0620
11 0 17 -6.4507 -6.2271
11 0 19 5.5060 -4.3752
11 0 21 -0.2501 -1.6694
11 0 23 -0.9682 1.7207
11 0 25 -0.8286 -1.2496
11 0 27 3.9228 -4.0025
11 0 29 1.3468 1.4759
11 0 31 1.7638 -1.7882
11 0 33 13.6597 13.5236
11 0 35 -6.5492 6.5571
11 0 37 -2.5304 -2.3996
11 0 39 -0.0449 0.0382
11 0 41 16.0302 15.9880
11 0 43 -14.8925 14.8955
11 1 0 -149.6352 0.2224
11 1 2 10.4694 34.8675
11 1 4 5.1698 93.1127
11 1 6 58.2351 32.8759
11 1 8 -96.4728 29.9529
11 1 10 1.5865 13.2008
11 1 12 23.3179 12.4631
11 1 14 71.4220 -36.5909
11 1 16 47.3004 -14.8498
11 1 18 0.2967 32.5994
11 1 20 42.8012 5.0353
11 1 22 -19.6552 -32.8408
11 1 24 -8.3744 -44.0885
11 1 26 34.8376 7.6472
11 1 28 9.0614 -8.9871
11 1 30 -10.9472 -4.2701
11 1 32 -0.5578 -5.3188
11 1 34 2.5590 4.4809
11 1 36 -12.3035 -14.2540
11 1 38 -13.0372 -14.5578
11 1 40 -7.4943 -14.6678
11 1 42 -7.8074 1.4287
11 1 44 22.5258 6.7544
11 2 1 -64.4991 -0.2678
11 2 3 -22.1735 120.7772
11 2 5 98.8212 -81.4252
11 2 7 -46.3720 -143.3684
11 2 9 -12.2628 38.9468
11 2 11 38.8940 62.3163
11 2 13 -36.3520 86.0436
11 2 15 19.6313 1.6575
11 2 17 24.5326 -8.2341
11 2 19 4.0175 -5.4030
11 2 21 -10.3815 7.5866
11 2 23 -13.1853 6.3144
11 2 25 2.4947 -13.9687
11 2 27 -7.0074 -3.4241
11 2 29 11.8049 13.2300
11 2 31 2.5732 -6.3116
11 2 33 2.3186 6.3289
11 2 35 15.8537 1.1025
11 2 37 1.8240 4.2598
11 2 39 -2.1809 22.6469
11 2 41 -14.5536 -10.7069
11 2 43 -10.6005 21.0365
11 3 0 109.6556 0.0646
11 3 2 88.3286 80.6236
11 3 4 -3.7092 64.9526
11 3 6 129.5008 -19.9146
11 3 8 -50.0088 -49.2344
11 3 10 -62.9472 19.5121
11 3 12 -53.5877 40.2142
11 3 14 -16.0604 31.3664
11 3 16 13.8451 26.2189
11 3 18 -4.9440 -26.3709
11 3 20 4.2778 14.6380
11 3 22 6.0055 40.6161
11 3 24 -14.1324 4.9867
11 3 26 4.5199 23.1724
11 3 28 12.5466 11.9560
11 3 30 0.9577 10.8150
11 3 32 -10.7761 -7.7598
11 3 34 0.4487 6.7978
11 3 36 1.5413 14.3163
11 3 38 -11.7400 -7.2381
11 3 40 -6.2454 17.5532
11 3 42 1.4934 1.1975
11 3 44 -16.6276 14.3052
11 4 1 98.5751 266.9867
11 4 3 -107.5896 114.0886
11 4 5 67.9551 -55.3763
11 4 7 -40.0348 -29.7438
11 4 9 -83.5025 -50.7003
11 4 11 -18.3384 28.8765
11 4 13 47.6736 -0.1819
11 4 15 -38.3775 -17.5569
11 4 17 -8.7015 1.8591
11 4 19 -5.5895 -36.4481
11 4 21 0.8563 -2.8481
11 4 23 3.2655 45.5697
11 4 25 -7.6562 -11.5558
11 4 27 5.7239 3.2712
11 4 29 -0.5161 -5.2920
11 4 31 22.1146 0.6415
11 4 33 -2.0531 -10.0805
11 4 35 -19.9953 -7.9679
11 4 37 3.3375 -2.5561
11 4 39 -31.9295 -11.0599
11 4 41 22.9032 -8.3910
11 4 43 26.5595 1.9919
11 5 0 -177.0644 -0.1298
11 5 2 -29.0782 77.9104
11 5 4 -34.6230 43.8443
11 5 6 225.1226 -85.5073
11 5 8 -11.1702 -45.8204
11 5 10 -126.0725 -71.6371
11 5 12 41.4360 43.2838
11 5 14 -22.0916 46.8313
11 5 16 37.7204 -7.5147
11 5 18 -16.6637 -8.6044
11 5 20 0.9622 -0.6039
11 5 22 7.9694 3.8933
11 5 24 4.1818 -14.5581
11 5 26 -2.5982 -4.1335
11 5 28 -11.5126 4.0828
11 5 30 -18.0015 1.3990
11 5 32 15.8766 8.2511
11 5 34 19.3777 2.9339
11 5 36 -0.2133 -1.7188
11 5 38 -19.9831 -7.5780
11 5 40 21.1815 9.8976
11 5 42 -18.6727 19.4839
11 5 44 0.4728 -2.3928
11 6 1 193.4674 -38.7091
11 6 3 -124.1030 -16.8582
11 6 5 28.6739 117.0050
11 6 7 17.4652 26.2632
11 6 9 5.4988 -66.1734
11 6 11 37.4236 40.7083
11 6 13 -37.0501 31.4454
11 6 15 7.7427 4.7957
11 6 17 5.7986 -50.6859
11 6 19 -27.2183 25.8265
11 6 21 -16.0423 -2.2480
11 6 23 4.6992 -49.2151
11 6 25 -23.7121 -25.7618
11 6 27 -12.1850 -6.4271
11 6 29 1.5694 2.1354
11 6 31 7.9085 0.5943
11 6 33 0.7265 -2.4535
11 6 35 -1.1761 9.3679
11 6 37 -17.3613 9.6021
11 6 39 -8.0756 14.2343
11 6 41 -18.7071 -0.6329
11 6 43 3.5410 14.6683
11 7 0 75.8009 -0.3309
11 7 2 -109.6186 6.6675
11 7 4 112.3674 -53.0349
11 7 6 18.5596 67.6193
11 7 8 24.4343 41.1627
11 7 10 -41.3236 -91.2999
11 7 12 -88.8815 0.3251
11 7 14 51.1508 34.2707
11 7 16 8.6606 9.8390
11 7 18 15.2728 12.1307
11 7 20 9.3555 -10.9062
11 7 22 -3.5068 -5.4986
11 7 24 -4.3678 -0.8851
11 7 26 -0.5956 -11.9710
11 7 28 -15.6750 11.3491
11 7 30 -8.6455 6.8842
11 7 32 3.3947 -2.1393
11 7 34 0.7958 -11.0224
11 7 36 1.1057 -6.5795
11 7 38 -0.1383 1.1426
11 7 40 6.1622 20.2015
11 7 42 20.4862 7.1019
11 7 44 1.6873 -16.0353
11 8 1 32.3074 -13.4273
11 8 3 -59.9124 -59.9279
11 8 5 99.2712 37.6693
11 8 7 -44.6375 3.1699
11 8 9 -53.2517 -103.1549
11 8 11 59.5944 10.8117
11 8 13 2.0664 -57.0510
11 8 15 -15.2959 7.2040
11 8 17 7.7167 -7.3429
11 8 19 -17.8021 25.5483
11 8 21 28.8337 4.1758
11 8 23 -7.1918 11.4133
11 8 25 -20.4022 -19.0023
11 8 27 -7.5391 -0.4482
11 8 29 -0.1661 -0.2988
11 8 31 8.5545 3.1716
11 8 33 -5.1376 -4.7406
11 8 35 8.6164 -6.6923
11 8 37 3.3885 -2.2839
11 8 39 -0.0934 -2.0011
11 8 41 14.1471 23.5216
11 8 43 -21.8756 19.2059
11 9 0 118.7781 -0.5698
11 9 2 -7.0660 36.1131
11 9 4 -77.9222 25.5906
11 9 6 -24.5354 13.3630
11 9 8 44.2056 94.6228
11 9 10 -93.6505 124.6097
11 9 12 -0.2980 30.3660
11 9 14 -89.0007 -20.1158
11 9 16 -24.7376 -90.9431
11 9 18 -55.2932 2.0239
11 9 20 20.6572 -7.3843
11 9 22 -4.5959 -3.0407
11 9 24 14.1292 -0.7773
11 9 26 23.1571 -4.1128
11 9 28 -7.3825 -2.3480
11 9 30 8.1133 -11.9580
11 9 32 6.0719 -9.3232
11 9 34 -1.8742 -14.8003
11 9 36 -0.0265 -0.5729
11 9 38 1.4163 -0.3443
11 9 40 10.9214 -16.7302
11 9 42 5.5388 9.5194
11 9 44 -11.5167 9.1320
11 10 1 42.0295 -31.0429
11 10 3 12.5518 2.6364
11 10 5 -51.4615 62.1487
11 10 7 25.6227 -20.0545
11 10 9 27.6172 -13.6604
11 10 11 -72.9409 -24.2133
11 10 13 -34.7131 6.2145
11 10 15 -16.6489 12.0827
11 10 17 11.4694 26.3516
11 10 19 18.2499 8.3485
11 10 21 -11.2846 19.1838
11 10 23 -13.8003 7.0829
11 10 25 9.1632 -14.8492
11 10 27 7.5761 13.4423
11 10 29 -5.7637 7.6957
11 10 31 -6.1730 11.3052
11 10 33 11.9076 -5.4438
11 10 35 -3.0044 0.3941
11 10 37 -20.4079 1.2862
11 10 39 1.2400 -3.5991
11 10 41 0.0970 0.1411
11 10 43 -0.3576 -1.3091
11 11 0 5.9205 -0.7218
11 11 2 62.2723 1.0178
11 11 4 -86.8858 -0.8171
11 11 6 88.6514 -2.5056
11 11 8 71.3401 -0.4672
11 11 10 75.8430 -1.1393
11 11 12 21.8643 -0.2733
11 11 14 23.4113 0.3038
11 11 16 33.7568 0.0973
11 11 18 12.9547 -0.4478
11 11 20 -17.7426 0.1780
11 11 22 -0.3260 0.7134
11 11 24 6.2131 0.2128
11 11 26 4.5550 0.1300
11 11 28 0.2651 0.1062
11 11 30 -6.1471 -0.2566
11 11 32 -18.5382 0.1025
11 11 34 3.6893 0.1347
11 11 36 -0.7236 -0.0149
11 11 38 0.9952 -0.0007
11 11 40 -1.9167 0.0114
11 11 42 -13.8072 0.0679
12 0 0 29.2067 -2.2713
12 0 2 -0.0880 57.9823
12 0 4 -46.9770 3.1932
12 0 6 0.2234 54.0842
12 0 8 -43.1824 5.0334
12 0 10 0.4107 -0.5917
12 0 12 58.0725 -0.2275
12 0 14 0.3135 93.8457
12 0 16 -6.7149 0.1321
12 0 18 0.1845 24.6014
12 0 20 26.0272 -1.2429
12 0 22 0.0120 -51.6512
12 0 24 24.8322 -1.3348
12 0 26 0.0346 -11.5330
12 0 28 10.4886 0.0428
12 0 30 -0.0111 22.1449
12 0 32 1.4053 0.0462
12 0 34 -0.0379 -5.3304
12 0 36 3.1927 -0.0242
12 0 38 0.0052 2.0055
12 0 40 -24.5270 -0.0759
12 0 42 -0.0205 -18.5200
12 0 44 -22.9136 0.0498
12 1 1 54.7301 72.3369
12 1 3 -28.9892 -12.2215
12 1 5 -135.8745 5.1160
12 1 7 -44.8361 -19.7902
12 1 9 -20.9462 -97.1370
12 1 11 43.4130 16.0623
12 1 13 -7.4923 27.5062
12 1 15 -29.4535 -34.9429
12 1 17 -29.9660 25.4321
12 1 19 22.5040 18.2300
12 1 21 14.4292 9.4929
12 1 23 -8.9916 5.4674
12 1 25 -30.4217 -2.9116
12 1 27 5.7017 12.7962
12 1 29 14.7556 15.3368
12 1 31 -24.6911 4.2223
12 1 33 2.4599 -6.1393
12 1 35 -5.6497 3.1171
12 1 37 -7.0574 -21.7370
12 1 39 -7.9900 -17.8462
12 1 41 -14.7751 1.7778
12 1 43 6.4223 -22.6197
12 2 0 176.5849 -1.3537
12 2 2 -47.7900 43.1426
12 2 4 -17.3746 -67.0979
12 2 6 36.4617 105.6662
12 2 8 -122.0167 -47.7911
12 2 10 -28.6065 2.6396
12 2 12 23.0982 -4.1753
12 2 14 33.1607 35.4858
12 2 16 -36.1126 -6.6086
12 2 18 22.4650 -6.1829
12 2 20 -27.9912 6.9075
12 2 22 -37.2294 -30.0126
12 2 24 18.9775 -8.4207
12 2 26 18.6634 7.3570
12 2 28 -1.1423 5.9234
12 2 30 8.1245 2.2992
12 2 32 -2.5129 -1.7260
12 2 34 -8.9433 -16.2244
12 2 36 14.9374 -3.1211
12 2 38 5.3917 6.8721
12 2 40 -16.5514 -0.9439
12 2 42 -10.2075 20.0963
12 2 44 11.8733 23.3549
12 3 1 -17.1935 29.0871
12 3 3 -43.9438 158.1946
12 3 5 17.1169 -73.1944
12 3 7 37.0626 50.0997
12 3 9 27.8504 -61.8359
12 3 11 23.8893 -40.2010
12 3 13 -15.0609 26.1731
12 3 15 9.9447 -48.4279
12 3 17 -30.1391 -20.0262
12 3 19 4.1547 -23.0960
12 3 21 9.9281 19.9021
12 3 23 -8.8838 -6.9811
12 3 25 -38.7830 -13.6350
12 3 27 -8.3153 0.8151
12 3 29 7.7065 -16.9731
12 3 31 6.4625 4.8235
12 3 33 -0.1945 -1.0695
12 3 35 16.9914 -0.5594
12 3 37 -2.8720 1.2369
12 3 39 -5.8129 31.8786
12 3 41 -21.5029 5.7404
12 3 43 0.3974 -1.3545
12 4 0 222.8579 -1.5364
12 4 2 -73.0377 18.6259
12 4 4 61.5082 -30.8709
12 4 6 -41.0638 35.2790
12 4 8 92.8056 -9.5924
12 4 10 49.5470 30.2598
12 4 12 -45.5834 41.8241
12 4 14 -11.7845 -12.2322
12 4 16 27.3001 -38.6344
12 4 18 28.9505 8.6162
12 4 20 -17.9991 12.6480
12 4 22 49.8176 16.2659
12 4 24 19.0047 18.9207
12 4 26 14.1549 -10.8596
12 4 28 -9.4375 8.2405
12 4 30 -1.0288 -0.6935
12 4 32 -3.6284 -7.0223
12 4 34 -2.5340 17.8979
12 4 36 -1.8876 -3.6113
12 4 38 -17.8969 -16.7134
12 4 40 8.0508 -15.1015
12 4 42 -0.8039 -0.2105
12 4 44 3.7604 22.1135
12 5 1 -22.7758 25.9407
12 5 3 -36.0915 25.5549
12 5 5 -12.7989 -106.6728
12 5 7 12.9046 -37.1943
12 5 9 11.5769 94.2473
12 5 11 15.0594 37.1851
12 5 13 -24.5987 22.6438
12 5 15 -9.1636 13.2937
12 5 17 -31.1415 22.0182
12 5 19 26.5382 12.8434
12 5 21 2.8918 -0.7943
12 5 23 -7.9671 1.4382
12 5 25 16.9828 -20.1250
12 5 27 -8.7819 -21.0151
12 5 29 7.7000 -2.5681
12 5 31 -9.8753 -8.7562
12 5 33 14.3032 -5.7864
12 5 35 9.7863 9.2198
12 5 37 -12.8784 -3.7350
12 5 39 11.5508 12.9931
12 5 41 6.0860 22.4931
12 5 43 2.3170 -0.0256
12 6 0 123.3257 -2.2654
12 6 2 -71.3669 -43.6659
12 6 4 131.8457 -26.8759
12 6 6 77.2597 -19.3378
12 6 8 -13.1408 -48.5818
12 6 10 -23.5534 -19.6924
12 6 12 51.8159 5.5374
12 6 14 -26.9678 -49.8222
12 6 16 30.3013 7.4663
12 6 18 -20.2572 25.4304
12 6 20 -1.6278 8.9988
12 6 22 5.0525 2.4550
12 6 24 26.2456 6.2851
12 6 26 8.5682 3.4038
12 6 28 -4.4347 -5.9284
12 6 30 -17.6851 -12.9842
12 6 32 -4.7764 -9.4431
12 6 34 11.7614 -0.1189
12 6 36 -10.4159 15.4941
12 6 38 16.1354 12.6885
12 6 40 5.9144 17.3862
12 6 42 -4.8689 -15.7302
12 6 44 -18.2830 10.5154
12 7 1 -54.4729 -26.1291
12 7 3 70.0384 3.2730
12 7 5 -71.4658 3.3284
12 7 7 -39.4321 20.3571
12 7 9 81.3794 64.7617
12 7 11 -66.1221 -28.8384
12 7 13 6.5306 43.2688
12 7 15 2.6543 -38.6649
12 7 17 -54.0900 7.2681
12 7 19 32.5429 0.4271
12 7 21 -3.2740 -42.1453
12 7 23 30.5614 12.3110
12 7 25 -13.8027 27.2357
12 7 27 -22.2141 -0.3155
12 7 29 5.0648 -9.6313
12 7 31 0.1621 1.1952
12 7 33 3.3464 2.1974
12 7 35 -3.0107 -0.6739
12 7 37 -13.1489 3.6202
12 7 39 -2.6514 1.5076
12 7 41 -2.1495 0.3401
12 7 43 -1.4675 1.3773
12 8 0 -16.2862 -2.6162
12 8 2 -36.6368 55.4728
12 8 4 103.9244 3.0170
12 8 6 -15.0027 -81.5003
12 8 8 -39.1209 -2.4307
12 8 10 26.3129 11.4337
12 8 12 -31.4759 -15.6671
12 8 14 14.4258 41.6363
12 8 16 -5.0486 -22.4502
12 8 18 37.5162 -10.6573
12 8 20 -3.8633 21.8931
12 8 22 21.3385 8.1953
12 8 24 4.3597 10.8632
12 8 26 7.9180 -1.8978
12 8 28 -10.8811 -11.8879
12 8 30 -8.1653 -6.2705
12 8 32 -9.7520 11.6269
12 8 34 -2.0586 -3.0632
12 8 36 15.1198 9.5771
12 8 38 0.1037 -1.7290
12 8 40 -6.7967 -15.0161
12 8 42 -5.2307 -11.7065
12 8 44 10.8873 14.3899
12 9 1 22.7812 -7.0817
12 9 3 -40.5357 79.6183
12 9 5 -40.7236 40.7494
12 9 7 -35.3595 -99.6760
12 9 9 1.6368 -37.0981
12 9 11 -4.5260 54.9724
12 9 13 -17.4636 11.3474
12 9 15 -11.5858 -10.6153
12 9 17 -16.4950 -38.2873
12 9 19 12.6131 -21.4023
12 9 21 14.8300 18.9010
12 9 23 -33.8838 19.4712
12 9 25 -0.8575 2.2376
12 9 27 -6.0654 -10.1956
12 9 29 1.2385 -10.7970
12 9 31 8.4742 -9.7679
12 9 33 -5.5838 -3.7020
12 9 35 0.8517 1.6852
12 9 37 9.6527 14.8983
12 9 39 -2.0708 2.0576
12 9 41 -17.4408 9.0685
12 9 43 -0.2308 1.3558
12 10 0 99.0050 -2.9958
12 10 2 22.7990 53.9951
12 10 4 18.9035 -15.7747
12 10 6 45.6448 -100.2288
12 10 8 95.3914 -86.1618
12 10 10 -14.5219 83.1472
12 10 12 27.0490 27.5620
12 10 14 23.6738 -63.5824
12 10 16 -38.2081 4.0905
12 10 18 -3.5924 6.5993
12 10 20 22.6572 6.4562
12 10 22 -13.2197 4.1678
12 10 24 -3.7688 4.8722
12 10 26 3.6305 -3.6139
12 10 28 5.5372 -0.3474
12 10 30 -2.8921 1.0648
12 10 32 -6.3798 -5.1698
12 10 34 0.2614 1.4144
12 10 36 -0.3145 0.8880
12 10 38 -2.6567 0.9377
12 10 40 -1.0811 -12.8306
12 10 42 -0.7154 0.0558
12 11 1 16.3074 -28.6966
12 11 3 8.3074 7.1643
12 11 5 -36.1128 1.4037
12 11 7 13.2644 -17.1136
12 11 9 31.2988 -28.8536
12 11 11 44.8248 79.3295
12 11 13 45.4173 19.0654
12 11 15 -2.6468 -61.9066
12 11 17 -8.4204 12.9498
12 11 19 12.4376 41.5364
12 11 21 11.6790 0.7689
12 11 23 2.4906 -12.0452
12 11 25 -10.7680 10.6891
12 11 27 9.3173 -6.5850
12 11 29 -7.4920 -2.1210
12 11 31 4.1271 8.5863
12 11 33 -7.7665 2.3963
12 11 35 -6.0051 -2.9974
12 11 37 -2.0657 2.6183
12 11 39 -13.0174 -8.2089
12 11 41 9.3260 2.0081
12 11 43 1.0159 0.8349
12 12 0 34.2150 -3.7136
12 12 2 25.4178 0.4200
12 12 4 78.6743 -0.0566
12 12 6 -25.2034 0.2949
12 12 8 -83.2869 2.0572
12 12 10 -78.2770 0.4776
12 12 12 0.4542 -0.4229
12 12 14 60.5508 0.0069
12 12 16 -8.4856 0.4648
12 12 18 -7.7165 -0.1080
12 12 20 0.1828 -0.1384
12 12 22 -7.5904 -0.2470
12 12 24 -0.4066 -0.3144
12 12 26 9.7991 -0.1135
12 12 28 -4.1838 0.3375
12 12 30 -10.2094 -0.0785
12 12 32 7.5987 0.0320
12 12 34 -20.0917 -0.0396
12 12 36 -4.2146 0.0319
12 12 38 -28.7954 0.0234
12 12 40 -0.4043 -0.1003
12 12 42 -6.4876 0.0379
13 0 1 -15.5755 -14.5390
13 0 3 80.0201 -79.2138
13 0 5 36.8970 34.9536
13 0 7 33.1269 -27.6545
13 0 9 -4.3838 -9.4383
13 0 11 -68.5180 70.8836
13 0 13 11.7253 13.1572
13 0 15 1.1579 -3.3938
13 0 17 -5.1195 -4.4367
13 0 19 -12.5417 13.0139
13 0 21 -15.5284 -16.7172
13 0 23 12.0309 -11.4871
13 0 25 -0.7179 -1.1275
13 0 27 -5.1818 5.0969
13 0 29 3.0189 3.1575
13 0 31 4.5462 -4.5091
13 0 33 4.8658 4.7616
13 0 35 1.6498 -1.6341
13 0 37 -10.9411 -10.7473
13 0 39 -24.9118 24.9170
13 0 41 -16.3870 -16.3729
13 0 43 -5.2203 5.2609
13 1 0 -249.1619 0.1277
13 1 2 -10.9199 138.3656
13 1 4 21.0232 53.2313
13 1 6 -39.8729 128.4096
13 1 8 6.2468 -89.3519
13 1 10 -92.9097 -75.3657
13 1 12 -77.0756 25.2720
13 1 14 5.1698 31.6125
13 1 16 35.9404 -30.8493
13 1 18 14.4033 0.4544
13 1 20 7.2197 -31.3321
13 1 22 -9.8132 -23.2090
13 1 24 36.7623 18.6707
13 1 26 5.3006 -18.9523
13 1 28 -4.6115 20.4724
13 1 30 -15.6899 -3.0705
13 1 32 12.3544 10.7974
13 1 34 6.2191 -1.4039
13 1 36 -10.8014 13.0608
13 1 38 -0.9604 -0.8817
13 1 40 -4.4723 -15.1375
13 1 42 20.4855 9.5023
13 1 44 16.9724 10.8160
13 2 1 30.7762 -14.8436
13 2 3 4.8983 40.6222
13 2 5 64.3178 -26.8432
13 2 7 22.3736 -2.8571
13 2 9 -53.6493 -75.2870
13 2 11 22.5005 13.6159
13 2 13 36.5106 80.9841
13 2 15 -29.0557 -43.9722
13 2 17 -25.9637 0.5792
13 2 19 -35.2570 -4.7855
13 2 21 -21.4276 -6.0893
13 2 23 7.8957 46.6669
13 2 25 1.6850 -1.3403
13 2 27 -12.9985 11.4637
13 2 29 3.3202 3.7860
13 2 31 -7.4111 -10.1456
13 2 33 -7.5250 -8.3451
13 2 35 -0.2573 13.1665
13 2 37 -1.0956 10.1321
13 2 39 0.0210 -0.1006
13 2 41 0.3108 -1.2850
13 2 43 9.2143 25.0944
13 3 0 -101.3616 0.0934
13 3 2 -169.3048 -60.6442
13 3 4 20.3968 -49.5521
13 3 6 92.7467 -136.1481
13 3 8 24.9267 -5.6121
13 3 10 -100.6781 27.5738
13 3 12 17.4415 23.7513
13 3 14 19.4177 35.7686
13 3 16 33.8786 -25.8065
13 3 18 -19.6103 -18.4468
13 3 20 41.7150 -3.2918
13 3 22 10.3909 4.2789
13 3 24 11.0920 -31.0746
13 3 26 17.0465 14.4188
13 3 28 -0.3251 4.4778
13 3 30 15.7346 -11.1301
13 3 32 3.1201 0.9761
13 3 34 -3.6664 7.4176
13 3 36 1.2265 2.1368
13 3 38 -8.5951 11.2352
13 3 40 2.6263 -2.9609
13 3 42 -1.5200 2.1369
13 3 44 2.8027 -1.7427
13 4 1 -46.8595 77.1569
13 4 3 31.3610 144.5460
13 4 5 7.6925 -14.9207
13 4 7 32.9680 -30.3636
13 4 9 -11.8057 -105.8437
13 4 11 11.5548 54.6402
13 4 13 117.5088 -2.5976
13 4 15 -35.0324 -24.6440
13 4 17 11.5662 -7.2065
13 4 19 -8.1272 -13.8384
13 4 21 17.1319 6.7727
13 4 23 -5.5124 36.1707
13 4 25 -11.2268 -25.1694
13 4 27 -8.1981 2.1962
13 4 29 9.7735 -1.8307
13 4 31 6.3031 3.9505
13 4 33 0.4838 -0.8944
13 4 35 -15.6567 -8.6644
13 4 37 -8.6335 10.1270
13 4 39 13.6724 0.0340
13 4 41 -0.8657 0.5856
13 4 43 -9.8852 -14.4583
13 5 0 -62.5009 -0.0736
13 5 2 239.5571 54.9252
13 5 4 32.4199 -55.2688
13 5 6 169.6931 7.8022
13 5 8 20.5723 92.6189
13 5 10 -50.5713 -93.0226
13 5 12 -24.1338 42.3488
13 5 14 42.8621 29.8920
13 5 16 72.6192 25.7297
13 5 18 -27.8907 -13.4680
13 5 20 10.5149 -18.6962
13 5 22 -13.1245 7.8148
13 5 24 -14.8430 -18.4253
13 5 26 20.6635 -34.0722
13 5 28 19.8529 12.4991
13 5 30 -20.9421 3.6201
13 5 32 -13.2147 -9.1901
13 5 34 17.5254 3.4451
13 5 36 -23.6321 13.0481
13 5 38 1.5288 4.9883
13 5 40 -5.9043 -12.6892
13 5 42 7.9477 11.5333
13 5 44 -3.7543 19.3753
13 6 1 49.2138 102.7136
13 6 3 81.5553 75.0150
13 6 5 -39.3476 98.0642
13 6 7 -109.6836 -34.0619
13 6 9 -10.0097 26.0033
13 6 11 -3.7181 -2.5598
13 6 13 -31.4855 -33.5419
13 6 15 9.6988 4.3456
13 6 17 7.3113 -21.8994
13 6 19 -15.0012 -30.5794
13 6 21 35.1241 6.9746
13 6 23 3.3508 46.2768
13 6 25 -0.8235 3.6092
13 6 27 -9.0022 2.9909
13 6 29 -3.1071 17.5642
13 6 31 -3.1586 -7.2713
13 6 33 4.8322 -2.3904
13 6 35 -17.5438 0.3519
13 6 37 0.0656 16.7197
13 6 39 -0.3146 0.4112
13 6 41 -0.1746 -2.8859
13 6 43 8.4307 11.6532
13 7 0 -38.2834 -0.0138
13 7 2 -31.4989 -49.4994
13 7 4 -25.3523 -1.5788
13 7 6 91.0189 -80.7238
13 7 8 -11.5031 70.0940
13 7 10 -59.9161 -45.8544
13 7 12 48.7172 -24.7199
13 7 14 22.9091 30.9268
13 7 16 9.1560 54.4741
13 7 18 21.6134 -11.0095
13 7 20 1.0685 -6.9967
13 7 22 -8.1996 -1.2205
13 7 24 -4.9319 8.2505
13 7 26 15.1567 -3.3341
13 7 28 -11.7957 -3.0109
13 7 30 -10.9407 0.9312
13 7 32 16.4294 -7.4532
13 7 34 1.4492 4.1915
13 7 36 -0.7200 0.0286
13 7 38 -0.7345 2.7693
13 7 40 -6.0454 -23.9518
13 7 42 3.1424 8.2092
13 8 1 -61.2790 -72.6581
13 8 3 -69.0901 -38.0619
13 8 5 30.3727 -112.5546
13 8 7 -23.5149 -46.4712
13 8 9 26.5695 -7.3024
13 8 11 0.2527 33.4411
13 8 13 -91.9087 21.5436
13 8 15 25.2916 24.2399
13 8 17 35.5424 4.2333
13 8 19 -22.4641 -27.7028
13 8 21 -16.5716 11.7298
13 8 23 10.2086 -29.8523
13 8 25 -3.9087 -7.9852
13 8 27 9.9385 12.9871
13 8 29 -3.5485 2.5303
13 8 31 -4.8458 18.4050
13 8 33 -7.8157 -6.1841
13 8 35 -0.2954 1.4258
13 8 37 2.4274 0.2218
13 8 39 -1.0898 -0.7297
13 8 41 5.9739 -6.5209
13 8 43 7.7872 29.4296
13 9 0 74.4327 -0.1933
13 9 2 93.6240 -13.5481
13 9 4 20.4189 8.3471
13 9 6 -47.9729 16.0532
13 9 8 -53.0244 -81.0570
13 9 10 40.8667 49.6531
13 9 12 -21.8336 -30.2430
13 9 14 -29.2742 -21.9528
13 9 16 35.3273 0.1840
13 9 18 -15.7650 7.1667
13 9 20 7.0557 11.8341
13 9 22 13.8116 23.2198
13 9 24 -10.3954 5.5225
13 9 26 4.2602 -0.7044
13 9 28 5.2818 0.2897
13 9 30 9.0419 11.9962
13 9 32 3.1551 -3.8331
13 9 34 -2.8472 0.9892
13 9 36 0.6383 -0.4866
13 9 38 -8.0368 -5.8266
13 9 40 11.6202 10.4611
13 9 42 -10.4961 6.5694
13 10 1 78.9915 -45.1348
13 10 3 -26.6302 -32.2466
13 10 5 -57.9165 18.3759
13 10 7 -3.7481 32.2250
13 10 9 124.9694 -28.2825
13 10 11 18.9675 -73.7014
13 10 13 28.4761 -1.8361
13 10 15 -30.3744 27.0134
13 10 17 30.2857 -24.1264
13 10 19 7.2917 27.0300
13 10 21 -42.9183 -15.4688
13 10 23 10.2516 -9.9784
13 10 25 19.1749 8.1570
13 10 27 -0.7016 8.1996
13 10 29 1.4567 10.9703
13 10 31 -6.1687 3.2143
13 10 33 -1.6000 -6.5690
13 10 35 0.8417 1.9131
13 10 37 -14.7922 12.9919
13 10 39 -10.6457 -2.1739
13 10 41 -15.6669 4.1823
13 10 43 20.6092 6.5679
13 11 0 102.0670 -0.3575
13 11 2 122.1003 -39.5150
13 11 4 5.3212 5.9109
13 11 6 -14.9255 -42.9763
13 11 8 59.5184 -2.0742
13 11 10 -4.6780 5.0018
13 11 12 -0.4095 -52.5585
13 11 14 -70.5514 -87.8608
13 11 16 -26.4498 33.5042
13 11 18 -19.9810 10.0925
13 11 20 24.7890 -8.0080
13 11 22 -9.9282 6.0564
13 11 24 3.7507 -3.9175
13 11 26 4.2540 5.3267
13 11 28 -6.9412 4.1514
13 11 30 -24.1186 -6.5535
13 11 32 10.8840 -7.8827
13 11 34 4.1432 9.6148
13 11 36 -5.5166 5.7827
13 11 38 -0.3546 0.9270
13 11 40 -7.8886 18.3783
13 11 42 10.9609 0.4290
13 12 1 -0.5000 -8.9493
13 12 3 -13.8144 -2.2430
13 12 5 20.8644 35.9843
13 12 7 23.5733 30.8803
13 12 9 74.0222 66.4876
13 12 11 11.7577 -62.8485
13 12 13 -0.4967 35.3632
13 12 15 -20.4137 -0.4425
13 12 17 -12.7109 8.2523
13 12 19 -10.4868 -28.3040
13 12 21 -19.4056 4.8851
13 12 23 6.9377 -22.4015
13 12 25 6.7291 -3.5621
13 12 27 7.7530 3.1640
13 12 29 18.0145 -9.7503
13 12 31 8.7529 -1.1443
13 12 33 1.1401 -2.1297
13 12 35 1.9813 2.5062
13 12 37 8.1011 -17.2188
13 12 39 -0.2515 2.9006
13 12 41 1.4866 15.3311
13 12 43 11.9796 -11.2072
13 13 0 2.4097 0.0343
13 13 2 91.5712 1.4896
13 13 4 -4.1887 -0.0813
13 13 6 26.3656 -1.4302
13 13 8 29.7402 -0.1409
13 13 10 53.0724 -0.5191
13 13 12 22.6845 -0.1739
13 13 14 -44.8106 0.3407
13 13 16 -23.0385 0.0300
13 13 18 7.0960 -0.5275
13 13 20 18.4737 0.0928
13 13 22 14.7774 0.3432
13 13 24 7.1406 0.0942
13 13 26 2.7408 -0.0874
13 13 28 1.6141 0.0231
13 13 30 -17.3886 -0.3348
13 13 32 5.7402 0.0528
13 13 34 3.8003 0.0697
13 13 36 -0.9986 -0.0634
13 13 38 2.8768 -0.0504
13 13 40 -17.5949 0.0153
13 13 42 -24.1075 0.0958
14 0 0 21.5300 -3.3014
14 0 2 -0.2047 28.6000
14 0 4 66.7024 1.5670
14 0 6 0.5072 -62.4042
14 0 8 -135.7137 3.4285
14 0 10 0.5292 -12.6003
14 0 12 -52.9089 -0.9910
14 0 14 0.4264 -105.3294
14 0 16 -44.7961 0.1706
14 0 18 0.2905 -19.2687
14 0 20 -5.3152 -0.9325
14 0 22 0.0521 17.4658
14 0 24 2.4751 -1.0679
14 0 26 0.0400 19.6193
14 0 28 -4.0068 0.2123
14 0 30 0.0047 0.4478
14 0 32 -19.2993 0.1245
14 0 34 -0.0325 10.1514
14 0 36 -15.6621 -0.0074
14 0 38 -0.0149 0.0602
14 0 40 -20.9833 -0.0575
14 0 42 -0.0182 -18.6415
14 0 44 27.5843 0.0608
14 1 1 78.6481 -78.8548
14 1 3 3.5900 41.4782
14 1 5 55.6519 35.0719
14 1 7 -10.1499 30.0153
14 1 9 -27.6706 -42.9743
14 1 11 -61.6083 31.1818
14 1 13 -45.7343 37.5992
14 1 15 40.8052 -15.6199
14 1 17 -43.0129 -39.6588
14 1 19 -15.7104 -10.8697
14 1 21 -15.7585 2.0283
14 1 23 -7.1090 -3.8287
14 1 25 8.5503 -19.5012
14 1 27 5.6273 5.6217
14 1 29 -13.1954 9.7384
14 1 31 9.9344 -12.5907
14 1 33 -11.3532 -5.3852
14 1 35 4.0074 -3.3363
14 1 37 -7.8351 26.8410
14 1 39 0.0696 -0.7952
14 1 41 0.0947 6.6148
14 1 43 -1.8165 -1.2447
14 2 0 145.7439 -2.7672
14 2 2 -54.6981 59.4383
14 2 4 -37.9386 -48.2875
14 2 6 36.9342 -32.1556
14 2 8 1.1291 -38.2728
14 2 10 -4.1212 -105.9591
14 2 12 -48.7504 -78.8226
14 2 14 17.3387 4.5141
14 2 16 37.1618 0.5623
14 2 18 8.6464 -17.0645
14 2 20 -63.3827 -13.2000
14 2 22 -38.2527 21.6443
14 2 24 21.3896 14.1169
14 2 26 9.2290 5.4975
14 2 28 3.9883 1.2801
14 2 30 -3.4306 3.2213
14 2 32 7.9853 13.5269
14 2 34 11.9556 16.2656
14 2 36 1.6614 13.7169
14 2 38 12.2593 -2.7788
14 2 40 11.9069 -21.2789
14 2 42 7.3551 13.4137
14 2 44 -0.4299 14.7640
14 3 1 10.5928 -47.2966
14 3 3 3.4605 41.1063
14 3 5 -24.2653 11.3588
14 3 7 -4.1512 29.8200
14 3 9 28.4290 -51.3187
14 3 11 12.8964 -17.8794
14 3 13 24.3555 43.3998
14 3 15 6.0689 -1.6169
14 3 17 41.2150 -10.9886
14 3 19 38.5357 -3.5058
14 3 21 -13.0436 11.8053
14 3 23 -5.8957 -4.9539
14 3 25 9.2711 -6.5623
14 3 27 -15.2873 5.1938
14 3 29 0.6135 13.2359
14 3 31 -2.6714 0.2526
14 3 33 4.7656 7.1808
14 3 35 -6.5459 12.6992
14 3 37 -24.6756 1.2446
14 3 39 -6.4031 -27.4325
14 3 41 -0.5977 8.3346
14 3 43 0.5599 -0.1281
14 4 0 6.2939 -3.1329
14 4 2 -33.5346 47.9268
14 4 4 -5.6179 1.0439
14 4 6 21.1950 -18.7002
14 4 8 83.4109 -23.7663
14 4 10 -9.5862 27.8574
14 4 12 -74.0637 -3.8971
14 4 14 47.3391 23.3026
14 4 16 44.8933 4.8346
14 4 18 -1.8390 0.2669
14 4 20 -2.6906 12.9987
14 4 22 8.3084 -31.3507
14 4 24 4.7051 -21.7416
14 4 26 -5.5138 9.8786
14 4 28 -8.2446 -5.5312
14 4 30 11.7537 -4.9006
14 4 32 -0.7047 -5.6601
14 4 34 -2.6576 -0.9030
14 4 36 3.1205 10.8374
14 4 38 -1.5067 0.2079
14 4 40 8.6568 -6.1119
14 4 42 -1.6386 4.2673
14 4 44 3.0151 -3.9307
14 5 1 137.5987 30.6472
14 5 3 -40.3014 -43.7668
14 5 5 -92.3998 -20.0618
14 5 7 40.2792 48.5616
14 5 9 -10.3301 92.8206
14 5 11 -30.4634 -87.0880
14 5 13 -52.9271 -110.2538
14 5 15 38.8027 -46.3424
14 5 17 -47.3091 -13.8358
14 5 19 -27.8776 -38.3397
14 5 21 6.7183 20.4192
14 5 23 -22.0043 -20.4018
14 5 25 13.5246 -13.4241
14 5 27 -8.1548 -9.4336
14 5 29 0.0434 14.5396
14 5 31 -2.3889 4.3384
14 5 33 -4.3834 -9.4310
14 5 35 11.7691 5.9679
14 5 37 -1.4485 6.6923
14 5 39 -1.3863 -15.4606
14 5 41 10.4751 -15.4310
14 5 43 0.9387 -1.5029
14 6 0 28.4161 -4.1597
14 6 2 4.3055 -40.6779
14 6 4 100.9479 63.5268
14 6 6 -41.2537 34.8801
14 6 8 74.9669 -20.3170
14 6 10 29.4434 -8.4806
14 6 12 -37.8021 -48.3404
14 6 14 -26.3598 -19.4027
14 6 16 -29.7651 -21.0328
14 6 18 29.0742 -29.9378
14 6 20 7.2866 20.5816
14 6 22 4.3925 14.5757
14 6 24 3.3213 6.5917
14 6 26 -5.5889 -10.8288
14 6 28 -15.4844 -16.3992
14 6 30 -4.8957 7.5860
14 6 32 -3.8658 3.0610
14 6 34 -10.3929 18.8161
14 6 36 -1.1871 -6.4687
14 6 38 4.9017 -8.8333
14 6 40 0.4378 -3.8280
14 6 42 -2.5067 1.6831
14 7 1 10.9996 22.4200
14 7 3 6.1273 -37.6465
14 7 5 -0.7255 -67.3356
14 7 7 62.5552 -85.4220
14 7 9 3.2394 38.0594
14 7 11 -61.3458 -31.6431
14 7 13 44.1759 -71.0002
14 7 15 17.0247 19.4432
14 7 17 -21.0203 -66.2253
14 7 19 5.0996 46.6975
14 7 21 -2.7277 16.3382
14 7 23 20.3537 -13.5033
14 7 25 6.7270 -3.4184
14 7 27 -8.4075 -6.6924
14 7 29 5.3856 12.9712
14 7 31 9.3930 12.5437
14 7 33 -5.4325 -5.3489
14 7 35 -2.6360 2.1042
14 7 37 20.1419 -9.2822
14 7 39 -2.4086 5.6403
14 7 41 5.7136 14.8017
14 7 43 0.3475 3.1638
14 8 0 -92.3676 -4.5374
14 8 2 35.0949 -36.0753
14 8 4 191.2253 95.8044
14 8 6 78.6134 -28.9586
14 8 8 -14.6217 -24.0960
14 8 10 160.8811 50.7421
14 8 12 -66.9510 -4.4852
14 8 14 -14.7944 -27.9589
14 8 16 67.3824 21.5231
14 8 18 15.8605 -10.7422
14 8 20 -29.5586 18.0046
14 8 22 -2.0517 5.8631
14 8 24 10.5104 13.7442
14 8 26 -4.2087 -5.0732
14 8 28 -2.2822 -2.5414
14 8 30 12.4436 3.6727
14 8 32 5.8374 -3.4651
14 8 34 -0.4310 -21.7415
14 8 36 -1.5819 -3.5188
14 8 38 -5.1134 -19.5139
14 8 40 2.6092 23.6464
14 8 42 -15.2071 14.8440
14 9 1 34.0397 -27.7426
14 9 3 -24.2492 -12.2595
14 9 5 -39.0530 33.3221
14 9 7 -20.2494 40.8937
14 9 9 -41.8621 -5.4402
14 9 11 29.6125 -7.1705
14 9 13 6.8954 19.5113
14 9 15 -28.1701 -16.1145
14 9 17 -51.8525 -0.1090
14 9 19 9.9038 62.7547
14 9 21 -4.4033 26.5734
14 9 23 -11.6942 -15.9000
14 9 25 6.8904 0.2015
14 9 27 11.2828 -6.2862
14 9 29 -12.5344 -5.3072
14 9 31 -1.8789 6.6882
14 9 33 -18.8705 4.4463
14 9 35 -9.0346 -6.6340
14 9 37 -19.2761 12.9946
14 9 39 17.4298 0.8216
14 9 41 11.4397 -3.5621
14 9 43 -3.3769 -18.5791
14 10 0 -69.1991 -4.4931
14 10 2 58.6345 26.6808
14 10 4 -0.6066 71.3637
14 10 6 -7.5458 4.8600
14 10 8 180.3456 -112.6602
14 10 10 6.4972 63.6118
14 10 12 -68.8312 5.9548
14 10 14 -19.9505 39.3208
14 10 16 -64.6923 43.2370
14 10 18 18.8526 -10.4471
14 10 20 1.6156 9.2231
14 10 22 -7.7112 -12.3637
14 10 24 2.7648 -14.9663
14 10 26 10.1599 -4.8665
14 10 28 19.1793 1.8975
14 10 30 -7.7144 -2.6548
14 10 32 1.7271 13.0610
14 10 34 10.1078 3.5365
14 10 36 -0.0714 -2.7781
14 10 38 6.0965 9.9574
14 10 40 -5.9258 -9.3561
14 10 42 18.3930 -6.4827
14 11 1 17.2682 17.3181
14 11 3 90.6325 -76.7480
14 11 5 -55.5416 47.6080
14 11 7 -49.0370 25.9331
14 11 9 -30.0580 25.7733
14 11 11 24.0800 23.1638
14 11 13 -14.9448 -21.8715
14 11 15 -18.0590 -28.7276
14 11 17 30.0999 25.8315
14 11 19 23.2214 21.0595
14 11 21 16.0253 25.2008
14 11 23 -6.3941 6.4063
14 11 25 -8.6794 -5.2978
14 11 27 2.6450 -2.9768
14 11 29 3.3407 12.8606
14 11 31 -3.1738 18.9457
14 11 33 -6.8028 -2.3944
14 11 35 0.1724 0.6282
14 11 37 9.9437 -12.9538
14 11 39 -8.6257 -6.8083
14 11 41 -0.9776 -0.8369
14 11 43 0.3805 0.8637
14 12 0 -71.3068 -4.0831
14 12 2 -8.6316 -59.9206
14 12 4 -8.5592 49.6932
14 12 6 -9.0100 -67.8722
14 12 8 13.0082 -85.1323
14 12 10 75.7159 29.7670
14 12 12 -23.2261 -25.2545
14 12 14 -6.3486 65.5136
14 12 16 -31.5005 -11.8272
14 12 18 -4.3521 9.8918
14 12 20 -2.0934 -8.5524
14 12 22 10.8734 9.9113
14 12 24 11.1099 -3.2015
14 12 26 5.6161 6.4591
14 12 28 8.6306 12.9107
14 12 30 16.8154 3.7225
14 12 32 6.7055 -0.1605
14 12 34 -1.8197 -1.1985
14 12 36 12.6140 -18.3968
14 12 38 -1.0324 2.3674
14 12 40 -1.8657 21.5515
14 12 42 -1.0800 -10.4509
14 13 1 14.5369 28.2903
14 13 3 96.7987 -33.1407
14 13 5 42.3447 -71.7382
14 13 7 124.0909 16.6522
14 13 9 15.5424 64.3283
14 13 11 38.3497 -9.3621
14 13 13 18.4003 6.7555
14 13 15 30.3303 2.7130
14 13 17 4.5222 0.3073
14 13 19 -13.2296 -27.1745
14 13 21 -1.9664 -0.7170
14 13 23 9.8243 -5.5561
14 13 25 0.7811 -9.8034
14 13 27 1.7762 5.2084
14 13 29 16.8354 -3.7940
14 13 31 -19.6940 8.4396
14 13 33 -5.3241 2.3607
14 13 35 3.2640 -9.2110
14 13 37 0.4809 -1.8794
14 13 39 -0.3765 -2.2693
14 13 41 0.3724 -1.5354
14 14 0 -57.1846 -3.4656
14 14 2 74.5315 -0.1253
14 14 4 55.2274 0.0814
14 14 6 45.3510 -0.2613
14 14 8 23.2059 1.6247
14 14 10 52.8659 0.2165
14 14 12 5.6430 -0.5230
14 14 14 21.2971 -0.1103
14 14 16 14.6145 0.3834
14 14 18 -29.0581 -0.1289
14 14 20 6.5772 -0.1433
14 14 22 -26.2499 -0.1686
14 14 24 11.6355 -0.2563
14 14 26 7.1906 -0.0528
14 14 28 -11.0137 0.2818
14 14 30 -0.2363 0.0300
14 14 32 6.2004 0.0385
14 14 34 -15.6125 0.0459
14 14 36 3.0952 0.0348
14 14 38 13.7049 0.0447
14 14 40 -10.6943 -0.0862
14 14 42 12.7133 0.0007
15 0 1 -19.2217 -17.4268
15 0 3 42.7028 -42.4154
15 0 5 -48.9361 -49.8436
15 0 7 49.3575 -45.3055
15 0 9 23.8385 20.3036
15 0 11 -136.3569 137.3600
15 0 13 -35.5203 -33.4442
15 0 15 24.9918 -27.9147
15 0 17 -22.7628 -21.7170
15 0 19 -37.5779 37.6819
15 0 21 -20.4572 -21.2390
15 0 23 17.2287 -16.7644
15 0 25 10.3749 10.1494
15 0 27 1.6920 -1.8559
15 0 29 -4.7089 -4.5408
15 0 31 -3.2445 3.2142
15 0 33 0.8731 0.7660
15 0 35 -4.4535 4.4170
15 0 37 10.1937 10.4064
15 0 39 17.4513 -17.5394
15 0 41 -7.9131 -7.8868
15 0 43 -15.7910 15.8091
15 1 0 -295.3987 0.0130
15 1 2 46.3430 -116.6568
15 1 4 4.9648 -32.9363
15 1 6 23.3874 -93.4501
15 1 8 -4.3109 51.7028
15 1 10 -33.5732 16.3525
15 1 12 57.7522 -12.8714
15 1 14 -55.4576 -34.8621
15 1 16 2.2766 -7.6838
15 1 18 -27.7895 -20.1934
15 1 20 -8.7884 19.3679
15 1 22 -3.8870 -6.5781
15 1 24 -30.2716 -4.0271
15 1 26 2.5589 -0.4501
15 1 28 9.5423 19.4554
15 1 30 -6.9153 1.3909
15 1 32 7.0921 15.2575
15 1 34 -3.6388 -16.3943
15 1 36 2.4930 2.6842
15 1 38 19.5654 3.2592
15 1 40 19.1875 25.8217
15 1 42 -16.7399 0.1508
15 2 1 33.7142 56.2818
15 2 3 -28.0742 -12.8358
15 2 5 24.8349 -30.7882
15 2 7 12.3371 -46.6024
15 2 9 -7.5902 -52.9073
15 2 11 9.7660 -135.6673
15 2 13 -14.6263 -37.6005
15 2 15 22.8546 12.1217
15 2 17 26.5127 -35.4149
15 2 19 -39.3075 13.3095
15 2 21 15.3011 -2.1342
15 2 23 -5.4483 -13.0900
15 2 25 12.7341 -4.2430
15 2 27 7.2481 -3.0881
15 2 29 -13.3849 -9.5599
15 2 31 -3.0246 1.0417
15 2 33 3.4489 12.1309
15 2 35 -13.6109 6.1771
15 2 37 1.5959 -1.6518
15 2 39 1.3037 22.8661
15 2 41 2.9437 -0.2348
15 2 43 -3.5765 -3.3215
15 3 0 -67.2026 0.1851
15 3 2 -5.7740 -76.7709
15 3 4 -0.2928 113.3128
15 3 6 -58.7961 28.1536
15 3 8 27.6033 -39.5383
15 3 10 -22.7411 -74.7656
15 3 12 -9.1538 -67.7571
15 3 14 -0.6561 29.7796
15 3 16 0.9759 -54.1086
15 3 18 -1.2819 -22.5129
15 3 20 -11.9720 24.7326
15 3 22 19.4129 28.8627
15 3 24 -4.1438 -22.3214
15 3 26 -0.6085 -5.2605
15 3 28 -5.2991 -16.3462
15 3 30 -24.1788 13.1279
15 3 32 10.1569 1.1678
15 3 34 -3.4439 -0.6179
15 3 36 -2.9619 -4.4306
15 3 38 2.4100 -22.0059
15 3 40 1.1895 -3.3929
15 3 42 17.4391 -19.1269
15 4 1 -40.4765 -8.7355
15 4 3 24.1556 36.6559
15 4 5 -41.0375 36.1184
15 4 7 33.7472 -20.9851
15 4 9 3.2635 29.4646
15 4 11 -24.7578 69.4067
15 4 13 34.4815 -23.8066
15 4 15 -54.6268 -47.8838
15 4 17 64.5014 -59.4274
15 4 19 -28.0372 -11.6222
15 4 21 -6.3315 14.6846
15 4 23 2.3022 -8.7271
15 4 25 -1.3126 -18.4702
15 4 27 6.7377 -11.0066
15 4 29 -1.4869 1.1552
15 4 31 1.3606 5.5551
15 4 33 0.1222 -18.2715
15 4 35 4.2898 5.9580
15 4 37 -1.0078 2.7079
15 4 39 2.7131 12.0993
15 4 41 -1.5653 -22.4397
15 4 43 -10.5029 12.2444
15 5 0 44.4016 0.1869
15 5 2 99.1669 69.3560
15 5 4 -53.3461 -49.3927
15 5 6 63.6886 -133.6088
15 5 8 94.1307 48.9845
15 5 10 -44.9167 24.9749
15 5 12 -4.8986 -37.1649
15 5 14 21.1914 -16.2048
15 5 16 49.0093 20.3728
15 5 18 -22.1521 -1.5359
15 5 20 -1.9916 -11.9104
15 5 22 -3.3316 16.7171
15 5 24 0.7575 -4.3346
15 5 26 -2.1296 1.7803
15 5 28 0.3931 0.1334
15 5 30 2.9575 -18.1837
15 5 32 -5.9901 -13.4127
15 5 34 -14.0099 -8.5655
15 5 36 16.6709 1.6708
15 5 38 -0.3895 1.4702
15 5 40 12.7098 6.0430
15 5 42 1.6760 17.6533
15 6 1 0.5544 78.8585
15 6 3 103.2204 45.3890
15 6 5 -50.3651 -41.5807
15 6 7 -110.6796 -63.5993
15 6 9 25.1336 92.1857
15 6 11 -62.0620 45.7000
15 6 13 7.2384 -26.9031
15 6 15 4.7409 -30.0618
15 6 17 -3.5319 -29.7191
15 6 19 -36.1661 19.5151
15 6 21 41.7686 24.5857
15 6 23 37.3183 -26.9026
15 6 25 -5.9698 -15.6256
15 6 27 -4.7451 -13.3756
15 6 29 -2.9944 -5.6242
15 6 31 13.5639 -4.4688
15 6 33 -7.9525 -12.5774
15 6 35 6.8689 -5.6420
15 6 37 4.7799 -1.1478
15 6 39 -0.4850 1.9669
15 6 41 3.4283 -15.1708
15 6 43 6.9364 -0.3044
15 7 0 38.2496 0.2513
15 7 2 -53.2110 21.1832
15 7 4 -44.9518 -54.3485
15 7 6 44.0288 -169.0843
15 7 8 22.2471 101.4460
15 7 10 30.9993 89.9393
15 7 12 51.8577 78.8619
15 7 14 10.2924 12.1009
15 7 16 2.9741 5.3313
15 7 18 -32.6172 1.8963
15 7 20 -12.9617 20.1737
15 7 22 13.1675 7.8344
15 7 24 14.2856 7.6126
15 7 26 19.0837 -7.3662
15 7 28 -22.4091 -19.1975
15 7 30 -4.8046 8.0894
15 7 32 -10.8193 -14.0158
15 7 34 0.8358 5.3917
15 7 36 -17.7293 2.1769
15 7 38 11.5686 -5.2763
15 7 40 -13.8074 -8.1978
15 7 42 13.2683 9.6359
15 8 1 -52.0336 37.9348
15 8 3 53.9423 4.1457
15 8 5 41.3969 32.4376
15 8 7 -154.7198 -76.3708
15 8 9 54.3970 8.2571
15 8 11 2.1568 93.0700
15 8 13 -19.6531 19.3091
15 8 15 7.7865 14.1415
15 8 17 22.6315 -37.7668
15 8 19 20.2413 -17.6857
15 8 21 -24.9206 10.6156
15 8 23 -0.3588 18.5312
15 8 25 -7.9375 -6.3618
15 8 27 7.5579 3.8107
15 8 29 -11.9340 11.3281
15 8 31 -8.5535 13.6341
15 8 33 -7.9614 20.7413
15 8 35 -11.4003 -6.1800
15 8 37 7.7099 -7.3987
15 8 39 -0.9059 2.2056
15 8 41 6.3054 7.4392
15 8 43 -2.1044 0.8448
15 9 0 -71.8603 0.2603
15 9 2 -7.4165 -5.0029
15 9 4 6.0463 11.0880
15 9 6 40.1066 9.9541
15 9 8 11.4399 -61.5260
15 9 10 0.4846 74.9994
15 9 12 48.0702 59.5611
15 9 14 22.1905 10.3612
15 9 16 -24.7438 -36.9928
15 9 18 -0.0349 2.5054
15 9 20 -21.5366 3.6691
15 9 22 -2.2328 6.9778
15 9 24 -3.4349 -3.1289
15 9 26 -3.1726 9.5882
15 9 28 -5.2713 5.8226
15 9 30 14.0364 -4.8044
15 9 32 23.0287 0.5740
15 9 34 -2.5455 5.6223
15 9 36 4.7566 15.1249
15 9 38 -5.3679 5.9109
15 9 40 3.3602 -20.9406
15 9 42 -18.6207 4.3773
15 10 1 -25.2892 -80.5666
15 10 3 -47.7171 67.7765
15 10 5 -155.4728 37.9320
15 10 7 -86.5695 -8.8621
15 10 9 -43.9382 -65.3078
15 10 11 1.4528 -53.6365
15 10 13 -17.5505 56.7210
15 10 15 -14.0973 -10.7297
15 10 17 -8.8836 2.0515
15 10 19 -23.4415 -5.6773
15 10 21 -9.1821 6.9938
15 10 23 8.8828 -21.2570
15 10 25 -11.2547 -0.7143
15 10 27 11.9643 -9.3274
15 10 29 7.0506 -3.3962
15 10 31 -10.9395 2.7268
15 10 33 6.8327 -5.8770
15 10 35 1.7913 0.8065
15 10 37 -17.1635 3.6618
15 10 39 0.0169 1.3813
15 10 41 13.1010 12.5791
15 10 43 0.9144 -1.3255
15 11 0 46.6210 0.2167
15 11 2 57.0454 -1.3698
15 11 4 20.8372 -2.3825
15 11 6 83.9938 37.9233
15 11 8 23.8647 -2.3500
15 11 10 -8.3149 -24.9770
15 11 12 30.1621 5.8145
15 11 14 -8.8263 -9.9139
15 11 16 20.8094 -24.8541
15 11 18 27.3491 -14.1208
15 11 20 7.0274 5.5657
15 11 22 12.2435 12.3671
15 11 24 4.0735 9.8000
15 11 26 -0.4382 6.9880
15 11 28 -3.6108 -2.8389
15 11 30 1.6698 -13.3428
15 11 32 -12.8927 0.9777
15 11 34 13.1144 -3.4490
15 11 36 11.5451 -10.4947
15 11 38 -8.4830 12.4709
15 11 40 -5.3983 13.6195
15 11 42 0.4735 -18.3907
15 12 1 -6.9744 -15.5121
15 12 3 -50.8054 86.7778
15 12 5 -18.4450 -30.1680
15 12 7 8.4824 -17.4550
15 12 9 11.1549 -25.2274
15 12 11 33.2172 29.8903
15 12 13 38.3594 -19.2724
15 12 15 -3.9176 -8.2282
15 12 17 17.6603 -7.7003
15 12 19 17.2095 42.5257
15 12 21 15.2874 -5.2144
15 12 23 -10.5703 6.9857
15 12 25 17.1308 -8.8940
15 12 27 -1.6480 -2.2204
15 12 29 -5.6113 4.8711
15 12 31 -0.2127 -19.7187
15 12 33 -10.4932 -16.6896
15 12 35 -11.3324 -2.5354
15 12 37 5.0306 5.5646
15 12 39 -0.4003 1.3388
15 12 41 9.2083 2.8190
15 13 0 -47.6181 0.4621
15 13 2 -21.9635 -22.9009
15 13 4 104.8020 -77.5383
15 13 6 13.4301 -27.4927
15 13 8 17.7218 -29.8495
15 13 10 1.9139 -17.3646
15 13 12 -25.0189 -3.3762
15 13 14 -15.0095 -19.3202
15 13 16 -10.6920 12.7630
15 13 18 1.8777 13.2335
15 13 20 9.9554 16.5087
15 13 22 18.0268 47.3149
15 13 24 -2.6007 22.2504
15 13 26 10.0635 5.2133
15 13 28 2.1478 -17.1660
15 13 30 1.2729 8.5426
15 13 32 1.8797 -15.2409
15 13 34 17.0831 4.1630
15 13 36 -20.6829 2.3922
15 13 38 -15.7216 9.0293
15 13 40 1.0607 -0.9813
15 13 42 -4.0252 -11.5762
15 14 1 44.0486 -16.4450
15 14 3 -54.1820 53.4860
15 14 5 -26.2545 -47.9036
15 14 7 14.5867 69.1523
15 14 9 -0.6543 11.6486
15 14 11 -129.5708 67.4994
15 14 13 -34.3423 -6.6029
15 14 15 29.5433 -15.5716
15 14 17 -29.8020 -8.2317
15 14 19 -8.5111 8.4780
15 14 21 -6.0768 11.9994
15 14 23 -2.9695 2.3667
15 14 25 -5.9921 13.8951
15 14 27 3.9759 -4.5598
15 14 29 5.3812 -2.1013
15 14 31 5.4664 -2.1086
15 14 33 12.0103 -0.2454
15 14 35 1.3519 2.4791
15 14 37 7.6247 -16.2989
15 14 39 -1.8804 -16.9994
15 14 41 16.3518 6.0313
15 15 0 -117.5178 0.8110
15 15 2 -131.0789 0.5976
15 15 4 -174.9647 0.5805
15 15 6 -26.4470 -1.9368
15 15 8 27.7721 0.2007
15 15 10 22.4124 -0.7222
15 15 12 21.0997 -0.0554
15 15 14 70.7977 0.3200
15 15 16 22.2527 0.0586
15 15 18 24.1313 -0.2359
15 15 20 -0.0559 0.0881
15 15 22 4.3157 0.6200
15 15 24 -28.0196 0.0230
15 15 26 -4.0362 0.0922
15 15 28 -3.2840 -0.0477
15 15 30 13.0655 -0.2189
15 15 32 19.1000 0.0206
15 15 34 1.9755 0.1099
15 15 36 10.2421 -0.0804
15 15 38 -17.3123 -0.0600
15 15 40 1.3683 0.0291
16 0 0 -89.3274 -4.2689
16 0 2 -0.0237 141.0759
16 0 4 85.6256 -0.1915
16 0 6 0.1662 -26.3431
16 0 8 45.2860 2.0858
16 0 10 0.4032 21.8730
16 0 12 -43.2628 -1.1527
16 0 14 0.4817 -0.0687
16 0 16 -23.2835 0.3521
16 0 18 0.3689 -31.5959
16 0 20 -31.9946 -0.7116
16 0 22 0.0476 29.7896
16 0 24 4.6587 -0.6527
16 0 26 -0.0470 -20.5146
16 0 28 -3.0915 0.4725
16 0 30 -0.0164 -3.9837
16 0 32 -4.5570 0.1887
16 0 34 0.0115 -9.1797
16 0 36 -4.1801 0.0873
16 0 38 0.0241 22.7421
16 0 40 1.9135 -0.0079
16 0 42 0.0219 9.9635
16 1 1 -6.2804 62.3939
16 1 3 -26.7052 -6.8491
16 1 5 53.1851 -47.4600
16 1 7 46.7880 -74.6691
16 1 9 45.9464 -5.2587
16 1 11 -85.2903 7.0002
16 1 13 -42.5088 22.4679
16 1 15 34.1161 17.1200
16 1 17 -39.3632 -88.9586
16 1 19 -27.8024 -19.3777
16 1 21 -11.6847 19.9907
16 1 23 -1.0573 -1.5752
16 1 25 3.2758 -2.5496
16 1 27 -5.7181 0.6992
16 1 29 10.0861 5.6463
16 1 31 -5.5563 5.8444
16 1 33 2.1431 0.0703
16 1 35 12.2578 -8.1407
16 1 37 2.6136 3.5029
16 1 39 15.0719 -7.2659
16 1 41 -3.3425 21.1185
16 1 43 -13.1500 -3.8126
16 2 0 -127.7739 -4.2060
16 2 2 -47.3965 72.4279
16 2 4 24.7305 80.5617
16 2 6 29.4164 -21.6935
16 2 8 -12.5666 -55.2994
16 2 10 92.3093 34.8120
16 2 12 -13.3863 -4.5571
16 2 14 24.6525 -19.3765
16 2 16 27.6497 -4.2939
16 2 18 8.5378 11.9818
16 2 20 -11.5348 20.4812
16 2 22 27.6730 2.6821
16 2 24 1.8148 22.0204
16 2 26 -11.8672 1.2517
16 2 28 -0.8116 0.3572
16 2 30 16.2704 3.6913
16 2 32 -9.8478 16.8500
16 2 34 -12.0988 9.1362
16 2 36 1.5698 0.1586
16 2 38 -16.2980 12.8042
16 2 40 -5.2616 -12.9868
16 2 42 13.1458 1.5975
16 3 1 -39.5048 -55.4171
16 3 3 -2.2531 27.9852
16 3 5 -50.2607 -5.6072
16 3 7 48.7490 81.0603
16 3 9 -41.6815 22.7140
16 3 11 -49.8034 12.6875
16 3 13 -15.9534 5.4744
16 3 15 51.2295 -24.3677
16 3 17 -13.4436 8.7845
16 3 19 -4.0938 -30.0617
16 3 21 -6.4426 -9.7963
16 3 23 12.8872 -8.1631
16 3 25 1.1367 -13.3455
16 3 27 14.6858 3.7412
16 3 29 1.7994 -9.9290
16 3 31 -8.0675 -9.8014
16 3 33 -1.1636 -12.1385
16 3 35 5.1400 15.0469
16 3 37 3.8783 -3.2650
16 3 39 -6.3670 -17.5188
16 3 41 -8.6040 14.8433
16 3 43 24.0894 7.4658
16 4 0 -19.2453 -4.6006
16 4 2 -20.7166 -38.0845
16 4 4 -42.7127 17.8684
16 4 6 -52.3998 -10.7731
16 4 8 88.6141 -73.0202
16 4 10 -84.3443 52.2174
16 4 12 -90.8351 7.7530
16 4 14 28.3011 -7.3383
16 4 16 46.4173 -4.4630
16 4 18 -17.9098 -25.9844
16 4 20 -30.8996 4.9882
16 4 22 19.1290 -2.4644
16 4 24 10.1138 -12.7802
16 4 26 -5.0310 -6.2157
16 4 28 -9.5408 -6.1309
16 4 30 -13.1989 0.4349
16 4 32 2.4561 -11.5720
16 4 34 12.9243 -12.6039
16 4 36 17.4406 6.8194
16 4 38 1.9076 1.5639
16 4 40 22.9503 -4.5989
16 4 42 7.9440 -6.7205
16 5 1 57.7725 -53.8899
16 5 3 -53.3228 -92.3391
16 5 5 -28.8538 -27.6913
16 5 7 47.5007 36.6737
16 5 9 -0.7662 41.1753
16 5 11 -51.4612 -70.5420
16 5 13 40.5608 62.4331
16 5 15 28.3996 -9.6036
16 5 17 -34.8721 -49.4271
16 5 19 30.1800 8.0573
16 5 21 -11.0956 9.5076
16 5 23 -22.3345 -24.5887
16 5 25 2.2816 -12.5990
16 5 27 3.9436 0.0676
16 5 29 -6.2443 20.2755
16 5 31 13.6522 10.4055
16 5 33 -2.4041 9.6118
16 5 35 -16.7578 2.8622
16 5 37 -2.0906 0.0481
16 5 39 7.6886 0.4240
16 5 41 1.5255 -0.0932
16 5 43 -5.7776 -24.3226
16 6 0 24.5156 -5.6091
16 6 2 7.0804 -39.7654
16 6 4 17.0798 25.4226
16 6 6 41.3140 -15.6914
16 6 8 78.0232 4.5831
16 6 10 68.1331 -0.7101
16 6 12 -120.5473 -12.9485
16 6 14 13.6757 22.8481
16 6 16 45.9265 12.3342
16 6 18 32.9831 -19.2038
16 6 20 -34.7201 6.9969
16 6 22 -8.0088 31.8175
16 6 24 1.8044 -4.2704
16 6 26 -7.4981 -6.1485
16 6 28 11.2154 -21.8730
16 6 30 15.3990 -2.2659
16 6 32 -13.2048 5.6035
16 6 34 3.1942 1.9620
16 6 36 -0.6989 -1.4447
16 6 38 -3.1184 21.4261
16 6 40 2.6800 -3.8570
16 6 42 10.8188 -17.9694
16 7 1 45.4779 -18.5402
16 7 3 24.4191 -17.2713
16 7 5 9.3003 5.0770
16 7 7 20.6612 -31.4976
16 7 9 -58.7086 34.7260
16 7 11 30.3221 43.9412
16 7 13 -8.8802 4.2383
16 7 15 -11.8474 26.4957
16 7 17 -17.0859 27.5794
16 7 19 6.8292 -40.5787
16 7 21 -7.8010 -5.5934
16 7 23 -5.2279 -9.7082
16 7 25 -11.9802 8.8234
16 7 27 -1.3738 -6.3264
16 7 29 -7.0605 10.8495
16 7 31 14.7307 4.4840
16 7 33 5.1515 9.2322
16 7 35 -2.6497 -0.4625
16 7 37 1.8891 -1.7960
16 7 39 15.5530 4.3593
16 7 41 1.1747 -1.9269
16 7 43 -14.9208 7.9423
16 8 0 -114.1770 -5.9007
16 8 2 7.5993 46.6171
16 8 4 124.1679 39.6369
16 8 6 -60.2002 -19.0346
16 8 8 -114.8410 -67.8991
16 8 10 -27.5116 -14.6413
16 8 12 0.9134 -33.5228
16 8 14 -46.9593 -6.4084
16 8 16 -30.6155 -22.6925
16 8 18 30.9463 8.6778
16 8 20 33.5073 12.2681
16 8 22 -2.6319 -22.3938
16 8 24 -4.4001 5.1926
16 8 26 -0.7772 -16.3547
16 8 28 -3.5351 6.6976
16 8 30 -21.5679 7.4717
16 8 32 6.9403 -3.7675
16 8 34 -10.2217 -2.4146
16 8 36 16.0220 7.9726
16 8 38 -1.8045 1.1567
16 8 40 -17.8604 -1.8980
16 8 42 8.8835 -23.8164
16 9 1 -46.6881 32.4237
16 9 3 -4.1324 -7.3273
16 9 5 -8.2982 -33.4523
16 9 7 -79.1515 -4.2076
16 9 9 -64.9664 -3.1867
16 9 11 62.8581 -15.8066
16 9 13 11.6203 1.3466
16 9 15 -17.1024 12.0446
16 9 17 -13.1946 7.6815
16 9 19 25.0371 4.1832
16 9 21 -17.2638 20.3312
16 9 23 -4.7562 17.3487
16 9 25 5.9011 1.1109
16 9 27 7.3496 -10.1990
16 9 29 -9.1284 -12.6083
16 9 31 -15.2336 -9.3334
16 9 33 2.7894 19.4017
16 9 35 -1.2701 2.7081
16 9 37 19.7482 4.1770
16 9 39 -9.9986 5.8338
16 9 41 10.7178 -15.8284
16 10 0 -39.0661 -5.5125
16 10 2 -36.2804 -8.4253
16 10 4 53.7848 1.1895
16 10 6 44.4385 27.6101
16 10 8 26.4796 -116.9556
16 10 10 -31.2221 -64.5623
16 10 12 -35.2388 -11.6669
16 10 14 -6.2702 -6.0481
16 10 16 48.4049 -1.8232
16 10 18 25.4874 7.9381
16 10 20 -7.6687 15.7657
16 10 22 15.7218 4.6749
16 10 24 0.9417 -10.7919
16 10 26 14.8917 -1.5776
16 10 28 1.0312 6.5937
16 10 30 13.1084 -19.4190
16 10 32 14.7328 -2.9678
16 10 34 -2.4049 -1.0143
16 10 36 0.9342 -1.0260
16 10 38 3.7988 -9.3673
16 10 40 -4.2664 6.7218
16 10 42 19.6706 11.7137
16 11 1 -51.0234 57.7050
16 11 3 26.9367 56.3363
16 11 5 48.4015 -13.4895
16 11 7 30.9726 -73.8275
16 11 9 -57.8618 -27.4862
16 11 11 -49.8608 -26.6682
16 11 13 -27.0271 -10.8989
16 11 15 -25.2858 -3.3746
16 11 17 35.0284 34.2662
16 11 19 -2.4707 -13.9571
16 11 21 1.2161 -24.6347
16 11 23 7.8263 7.9318
16 11 25 1.3405 7.0930
16 11 27 2.5977 6.7594
16 11 29 -4.0488 3.4628
16 11 31 22.6929 1.4911
16 11 33 -3.7397 -0.4299
16 11 35 -22.0346 -15.0762
16 11 37 0.9057 -2.8779
16 11 39 -6.7020 23.1290
16 11 41 13.5325 4.2282
16 12 0 109.9462 -4.0359
16 12 2 7.8798 62.3119
16 12 4 89.1782 -27.9292
16 12 6 130.6512 -44.6215
16 12 8 20.2997 59.9635
16 12 10 -36.2837 23.5412
16 12 12 0.5944 1.9961
16 12 14 8.0351 30.7608
16 12 16 -29.9891 9.9013
16 12 18 8.2702 11.3650
16 12 20 -5.7211 3.8132
16 12 22 -4.7333 -2.4437
16 12 24 18.0434 9.7596
16 12 26 -6.1437 0.5546
16 12 28 -8.8265 7.2657
16 12 30 -2.3825 -5.1749
16 12 32 1.4563 -0.4341
16 12 34 1.1070 -1.9976
16 12 36 -14.0777 16.8079
16 12 38 -11.5037 -15.8062
16 12 40 -10.0466 -8.8136
16 12 42 25.5133 4.8640
16 13 1 -123.3219 23.1180
16 13 3 -62.5414 59.4442
16 13 5 14.5389 55.9664
16 13 7 14.9688 25.8415
16 13 9 37.8994 -24.4160
16 13 11 -14.8145 -45.1807
16 13 13 -30.5837 -60.9705
16 13 15 58.6899 -11.6378
16 13 17 -7.8378 4.6782
16 13 19 9.0001 7.2438
16 13 21 20.5486 -7.4532
16 13 23 -15.7407 0.0116
16 13 25 -1.5258 0.6752
16 13 27 -10.7950 11.8688
16 13 29 -6.2271 -6.6087
16 13 31 -6.3628 13.7953
16 13 33 -0.0382 -10.5619
16 13 35 1.5757 -5.2175
16 13 37 -13.5087 -10.5340
16 13 39 13.5118 0.3945
16 13 41 -16.0673 -2.8816
16 14 0 116.4494 -2.5732
16 14 2 -90.3299 199.8178
16 14 4 -59.4577 -75.3915
16 14 6 -57.5426 18.8306
16 14 8 -34.2583 -9.4982
16 14 10 2.5584 20.6151
16 14 12 13.7645 21.6412
16 14 14 30.2085 -30.4987
16 14 16 2.3764 48.3825
16 14 18 -26.3519 -14.2375
16 14 20 7.1845 -12.7734
16 14 22 -23.2303 -7.7119
16 14 24 1.8174 -10.8830
16 14 26 3.0454 -3.1245
16 14 28 7.0290 9.9320
16 14 30 -6.0420 1.4367
16 14 32 4.9909 -0.2270
16 14 34 8.0494 -5.2772
16 14 36 -17.2998 -1.3139
16 14 38 -10.3653 23.3301
16 14 40 -3.7740 14.6120
16 15 1 -18.4600 28.3874
16 15 3 -89.2528 -11.7612
16 15 5 -14.4820 31.6229
16 15 7 19.2462 -25.3802
16 15 9 -51.7495 56.3076
16 15 11 -11.9537 14.0894
16 15 13 59.1514 -33.6000
16 15 15 13.0088 29.9763
16 15 17 47.0134 -22.7634
16 15 19 11.0199 -20.6537
16 15 21 -6.5872 3.0584
16 15 23 4.3637 -10.1596
16 15 25 -4.4468 5.1578
16 15 27 0.2183 -16.3322
16 15 29 -1.8351 5.6493
16 15 31 -10.7826 -11.4752
16 15 33 -5.4938 2.6092
16 15 35 4.7978 2.4122
16 15 37 -20.4103 -0.6306
16 15 39 -1.4839 -1.8168
16 15 41 4.0820 -3.4404
16 16 0 36.3180 -1.1999
16 16 2 141.7212 -0.5209
16 16 4 4.3872 1.8125
16 16 6 70.7973 -0.6998
16 16 8 14.0360 2.1035
16 16 10 -14.6375 -0.0268
16 16 12 36.3675 -0.2485
16 16 14 -35.7212 -0.1454
16 16 16 1.4075 0.1086
16 16 18 -15.6942 -0.0033
16 16 20 5.8764 -0.5475
16 16 22 5.7101 0.0239
16 16 24 3.0257 -0.5798
16 16 26 1.8696 0.0297
16 16 28 3.0989 0.0138
16 16 30 -14.3315 -0.0083
16 16 32 3.6098 -0.0163
16 16 34 -20.5355 0.0014
16 16 36 -17.7511 -0.0338
16 16 38 0.8412 -0.0001
16 16 40 15.2832 -0.0765
17 0 1 -30.5274 -28.8287
17 0 3 28.8361 -29.6068
17 0 5 -2.6428 -3.0762
17 0 7 -36.5055 38.9101
17 0 9 98.3266 95.8683
17 0 11 77.1919 -77.7933
17 0 13 -71.4657 -68.6697
17 0 15 27.9383 -31.5757
17 0 17 -6.7472 -5.0389
17 0 19 -27.7740 27.4384
17 0 21 -18.8601 -19.0822
17 0 23 12.9264 -12.5960
17 0 25 -2.8469 -2.8893
17 0 27 7.3393 -7.4923
17 0 29 5.9720 6.0720
17 0 31 -3.3235 3.2247
17 0 33 4.0577 3.9032
17 0 35 11.2527 -11.3308
17 0 37 -20.3751 -20.2659
17 0 39 9.7569 -9.8969
17 0 41 -9.0405 -9.0868
17 0 43 -7.8498 7.8772
17 1 0 -171.6996 -0.0138
17 1 2 31.4081 1.3944
17 1 4 47.1718 -76.8047
17 1 6 20.6402 22.3775
17 1 8 32.9893 -39.0745
17 1 10 -7.0326 39.7122
17 1 12 -47.7078 -36.1070
17 1 14 -19.2014 -83.9241
17 1 16 9.2443 -16.6649
17 1 18 -30.4212 -8.8932
17 1 20 3.8148 -6.8879
17 1 22 10.3576 17.3218
17 1 24 29.0683 22.7638
17 1 26 -0.8687 3.0212
17 1 28 2.5084 17.0894
17 1 30 -5.3897 6.3646
17 1 32 -8.9964 -0.2619
17 1 34 -1.7367 6.6919
17 1 36 -4.9072 16.5510
17 1 38 4.2061 6.1750
17 1 40 5.9903 -5.9825
17 1 42 -18.6920 2.3741
17 2 1 26.8373 -54.1807
17 2 3 59.0339 -78.7041
17 2 5 -7.5192 31.6095
17 2 7 -114.2077 -35.4021
17 2 9 29.9635 20.9659
17 2 11 22.0034 53.1109
17 2 13 -8.1894 -15.6694
17 2 15 5.5346 35.9129
17 2 17 29.2765 -10.6453
17 2 19 -19.6867 2.8858
17 2 21 5.6732 -2.0515
17 2 23 24.6989 -14.7011
17 2 25 4.1018 7.8471
17 2 27 -2.8548 -14.9534
17 2 29 -2.6669 3.2167
17 2 31 -19.7970 -13.2753
17 2 33 4.7962 12.2215
17 2 35 -13.2786 -17.1724
17 2 37 -11.9214 9.1759
17 2 39 0.0744 3.0611
17 2 41 -10.6384 -20.9492
17 2 43 6.2121 18.5606
17 3 0 17.5167 0.3808
17 3 2 52.7980 -20.6632
17 3 4 1.3691 47.5736
17 3 6 -140.1259 -8.9841
17 3 8 -39.1885 51.6348
17 3 10 52.2900 6.0286
17 3 12 -62.8622 11.4032
17 3 14 47.9959 -30.6789
17 3 16 77.7868 25.6256
17 3 18 -2.8914 1.9049
17 3 20 17.8540 -7.6322
17 3 22 2.1396 10.8345
17 3 24 -3.0212 -11.5559
17 3 26 -8.9490 -0.2066
17 3 28 -7.2950 -10.4014
17 3 30 -11.8906 6.7328
17 3 32 -11.3034 0.8153
17 3 34 2.3977 0.2028
17 3 36 26.1745 16.7459
17 3 38 -8.4989 -1.7687
17 3 40 -12.5670 -15.4480
17 3 42 17.0539 -15.7862
17 4 1 -10.4089 15.7762
17 4 3 -10.0004 35.3696
17 4 5 52.3256 -48.9519
17 4 7 -5.1335 -52.3965
17 4 9 19.9820 -22.8742
17 4 11 102.7274 16.6567
17 4 13 -37.0319 -44.0371
17 4 15 25.6856 33.5199
17 4 17 -27.4052 25.6244
17 4 19 -18.3494 6.7340
17 4 21 25.7139 8.7160
17 4 23 6.0484 23.1056
17 4 25 -4.4250 -16.4412
17 4 27 -10.2784 -1.1251
17 4 29 -14.1675 2.8582
17 4 31 -7.9869 -8.1509
17 4 33 17.1101 -12.6783
17 4 35 16.7644 9.9199
17 4 37 11.6291 14.4820
17 4 39 -5.1011 0.1594
17 4 41 1.2484 1.7169
17 4 43 -23.2998 -9.0013
17 5 0 28.6501 0.4268
17 5 2 24.3156 -1.8078
17 5 4 -24.2992 36.2366
17 5 6 49.3574 -62.0394
17 5 8 -67.9531 -42.7077
17 5 10 -27.5063 1.1974
17 5 12 43.4722 -10.7174
17 5 14 -28.5789 -14.8743
17 5 16 -42.9894 -22.7442
17 5 18 -5.3843 -4.8696
17 5 20 25.0265 9.2439
17 5 22 10.6152 10.2116
17 5 24 28.2469 -0.9059
17 5 26 0.7295 -8.3140
17 5 28 0.1048 1.6370
17 5 30 11.5158 -10.0352
17 5 32 -7.5011 3.2232
17 5 34 -5.5073 -12.4147
17 5 36 -1.1164 -1.7288
17 5 38 -2.3120 0.2628
17 5 40 0.0002 -1.7186
17 5 42 9.4270 -24.5179
17 6 1 -40.0650 28.1349
17 6 3 32.7571 -4.3485
17 6 5 -76.8017 -19.8042
17 6 7 76.9443 -22.6764
17 6 9 19.4578 -48.3695
17 6 11 22.3743 5.8267
17 6 13 -79.5056 33.9172
17 6 15 -0.3326 39.4236
17 6 17 25.1776 -35.0684
17 6 19 0.4002 -1.2126
17 6 21 6.8786 -30.3672
17 6 23 -9.3588 14.4306
17 6 25 -2.5177 1.2939
17 6 27 -14.6635 14.8919
17 6 29 -1.7117 6.4348
17 6 31 -6.8376 9.2359
17 6 33 13.3961 -10.8476
17 6 35 3.8753 -13.8250
17 6 37 -0.0458 2.6044
17 6 39 15.3159 4.3808
17 6 41 -16.1804 -8.6663
17 7 0 -59.6796 0.4888
17 7 2 76.3257 -16.3317
17 7 4 29.9350 -84.6640
17 7 6 116.4050 -63.0732
17 7 8 6.1887 -89.1735
17 7 10 -42.1448 39.9044
17 7 12 13.1439 15.6776
17 7 14 3.4399 0.0469
17 7 16 3.7776 -29.0255
17 7 18 -26.3875 -2.3305
17 7 20 -13.9321 5.8534
17 7 22 -3.2920 -20.1404
17 7 24 6.6394 8.6263
17 7 26 7.9928 1.7054
17 7 28 17.1931 6.0306
17 7 30 -4.6746 6.8090
17 7 32 -0.3831 13.3951
17 7 34 4.5062 13.1139
17 7 36 -1.4102 -2.8232
17 7 38 2.0495 -13.6288
17 7 40 19.5951 -18.1404
17 7 42 0.5394 2.4812
17 8 1 -8.4443 134.1741
17 8 3 13.3033 40.8525
17 8 5 -9.3731 74.1194
17 8 7 -69.7351 -75.7739
17 8 9 -34.4719 -48.8726
17 8 11 -31.4903 8.0666
17 8 13 42.2800 -20.2209
17 8 15 10.1146 -1.5357
17 8 17 -23.1440 -21.3402
17 8 19 15.1719 -6.8911
17 8 21 17.5796 18.6764
17 8 23 -5.8593 2.0679
17 8 25 12.3085 -0.0464
17 8 27 3.6782 9.4322
17 8 29 -5.0935 6.2899
17 8 31 11.9010 -15.1615
17 8 33 11.0430 13.1761
17 8 35 0.2622 -0.1057
17 8 37 5.6107 -6.5336
17 8 39 1.1437 0.9588
17 8 41 -6.7949 19.9862
17 9 0 -17.5931 0.5428
17 9 2 -1.9624 43.3915
17 9 4 27.6832 -52.0758
17 9 6 103.5433 -84.0885
17 9 8 -10.8557 -39.3527
17 9 10 -52.0190 -95.7991
17 9 12 -16.8912 17.8287
17 9 14 -39.0855 -12.6514
17 9 16 37.6404 -48.5366
17 9 18 16.7046 21.7552
17 9 20 -9.7931 -18.5642
17 9 22 -19.4783 -14.0052
17 9 24 -0.8183 -0.9117
17 9 26 -4.6259 -7.9990
17 9 28 5.5959 7.7958
17 9 30 13.3471 6.6602
17 9 32 -8.5147 0.8661
17 9 34 16.0688 13.5014
17 9 36 3.3504 -17.3440
17 9 38 0.1865 -1.0085
17 9 40 22.0175 4.5240
17 9 42 -3.6901 -6.1277
17 10 1 119.8533 -16.6777
17 10 3 149.3094 1.3507
17 10 5 -47.6233 -9.5195
17 10 7 -35.2127 22.2540
17 10 9 18.9880 67.6758
17 10 11 -18.2476 56.8810
17 10 13 29.0081 19.6482
17 10 15 -0.1320 -75.3427
17 10 17 -7.4801 -4.4343
17 10 19 -35.8061 16.0457
17 10 21 14.8590 3.3664
17 10 23 13.9823 18.9309
17 10 25 -7.9680 -14.5329
17 10 27 -10.3159 10.2931
17 10 29 -15.2218 12.5921
17 10 31 0.0674 3.5471
17 10 33 -1.9887 -0.9843
17 10 35 0.4050 -0.0555
17 10 37 5.8268 16.1098
17 10 39 23.6456 6.1221
17 10 41 -15.1688 -19.8264
17 11 0 -41.5541 0.6169
17 11 2 -92.7504 -55.1450
17 11 4 -39.5005 6.5468
17 11 6 8.9763 -4.4297
17 11 8 2.3743 57.6662
17 11 10 -15.9694 -71.2673
17 11 12 -0.5453 61.1169
17 11 14 35.7162 1.9224
17 11 16 9.7763 -10.6894
17 11 18 27.8033 37.3736
17 11 20 -25.0857 -5.3352
17 11 22 4.7111 -4.6173
17 11 24 7.6040 -0.8746
17 11 26 0.2643 7.2736
17 11 28 5.2007 -5.9380
17 11 30 6.2317 -6.1769
17 11 32 2.4300 -7.6833
17 11 34 3.5078 -3.5425
17 11 36 6.9053 -16.9443
17 11 38 4.2345 3.4707
17 11 40 1.4674 -5.8164
17 11 42 -2.2873 4.2403
17 12 1 -35.8962 -78.3990
17 12 3 6.7872 -87.4080
17 12 5 -9.4942 -32.0911
17 12 7 -44.7116 51.2795
17 12 9 -2.7386 1.4836
17 12 11 -6.4696 53.3936
17 12 13 -40.7944 21.4281
17 12 15 43.3475 -6.6346
17 12 17 -24.1826 6.7282
17 12 19 -24.1385 13.5038
17 12 21 -4.5133 -5.4367
17 12 23 -1.7839 19.7441
17 12 25 -11.6350 6.5637
17 12 27 16.8295 10.4948
17 12 29 17.9559 -0.6112
17 12 31 2.4845 -2.2782
17 12 33 -4.9000 -9.1450
17 12 35 -10.9646 10.4796
17 12 37 -13.1491 -14.1594
17 12 39 0.8973 2.2240
17 12 41 -20.9300 -7.1606
17 13 0 -24.6963 0.8854
17 13 2 53.6660 -203.2406
17 13 4 136.5126 15.8529
17 13 6 82.0422 23.1672
17 13 8 -21.0473 22.4449
17 13 10 -57.1131 -2.0473
17 13 12 -18.6645 33.2482
17 13 14 -20.5207 29.3912
17 13 16 11.6320 -8.0873
17 13 18 -31.9556 -12.0133
17 13 20 7.9783 -3.2600
17 13 22 14.8914 -6.7658
17 13 24 4.6615 10.9402
17 13 26 -3.9731 9.0585
17 13 28 4.2931 -1.5456
17 13 30 -1.7734 0.2549
17 13 32 -1.6804 3.0278
17 13 34 -0.7414 -1.4162
17 13 36 -1.6101 -7.4361
17 13 38 17.3541 -16.8173
17 13 40 4.3972 -3.3586
17 14 1 -23.0698 -48.4937
17 14 3 -18.4844 -37.1782
17 14 5 -11.9052 54.8168
17 14 7 -44.9330 -37.8641
17 14 9 43.3384 -58.9835
17 14 11 48.6353 54.5662
17 14 13 0.1788 -33.9271
17 14 15 13.9338 -26.2270
17 14 17 -9.6843 33.8974
17 14 19 22.1281 33.6300
17 14 21 2.6452 -8.3737
17 14 23 0.8961 -3.7185
17 14 25 11.4744 6.6389
17 14 27 12.2256 4.9280
17 14 29 3.8545 0.8737
17 14 31 -0.7374 9.0098
17 14 33 -0.0997 4.8213
17 14 35 15.8736 8.2161
17 14 37 -0.8450 4.4164
17 14 39 22.6941 11.9038
17 14 41 12.8743 -20.3845
17 15 0 -32.8668 1.2213
17 15 2 97.2647 -92.1396
17 15 4 5.5795 165.9490
17 15 6 -1.1424 -28.9984
17 15 8 -44.5839 10.3116
17 15 10 18.9811 -0.4164
17 15 12 -24.4685 7.8427
17 15 14 -23.4461 22.5611
17 15 16 38.9842 19.0564
17 15 18 -27.3680 12.0004
17 15 20 -18.3087 13.9312
17 15 22 -6.2478 3.7212
17 15 24 -27.1325 12.7780
17 15 26 -3.8731 3.3490
17 15 28 14.7877 4.7045
17 15 30 12.4678 -5.4174
17 15 32 -7.6522 2.1336
17 15 34 -17.7363 -9.4797
17 15 36 -2.5368 1.1125
17 15 38 4.7194 -2.3197
17 15 40 -7.2844 21.3594
17 16 1 46.8947 22.2305
17 16 3 52.3700 -37.1390
17 16 5 103.7019 19.3176
17 16 7 -45.4536 -35.9770
17 16 9 4.6891 -20.5300
17 16 11 17.9886 -12.9437
17 16 13 10.1361 15.3185
17 16 15 -34.1042 -16.1424
17 16 17 -13.5822 -7.6669
17 16 19 10.4923 2.0861
17 16 21 -3.5989 10.2291
17 16 23 6.2437 -11.7311
17 16 25 -4.6503 5.0205
17 16 27 0.9425 -2.4024
17 16 29 15.8134 -6.1136
17 16 31 -9.5721 16.4615
17 16 33 -0.8511 0.9514
17 16 35 -0.9336 0.7244
17 16 37 15.2192 -4.7421
17 16 39 -9.5010 -1.8610
17 17 0 -70.6689 1.3643
17 17 2 -19.7331 -1.0809
17 17 4 -66.7190 0.9219
17 17 6 15.1026 -3.3116
17 17 8 4.6626 0.3807
17 17 10 -27.7291 -1.0518
17 17 12 -0.1784 0.0202
17 17 14 13.2670 0.3678
17 17 16 -20.3175 0.0945
17 17 18 -17.1165 0.1255
17 17 20 11.4861 -0.0617
17 17 22 -12.9631 0.9623
17 17 24 14.2539 -0.0826
17 17 26 0.9884 0.3176
17 17 28 9.9850 -0.0748
17 17 30 10.2536 -0.1132
17 17 32 -16.3850 0.0133
17 17 34 -7.6432 0.1217
17 17 36 12.3702 -0.0321
17 17 38 -11.8560 -0.0419
17 17 40 28.5514 0.0233
18 0 0 -4.2470 -4.6177
18 0 2 0.0656 101.5349
18 0 4 34.1020 -1.0148
18 0 6 -0.4806 -56.0980
18 0 8 -34.6227 1.6515
18 0 10 -0.0209 -76.5733
18 0 12 -4.2614 -1.0448
18 0 14 0.2229 -0.6085
18 0 16 69.7906 0.3747
18 0 18 0.1056 -16.7940
18 0 20 -26.6445 -0.4673
18 0 22 -0.0635 54.0816
18 0 24 13.4348 -0.4255
18 0 26 -0.0673 -9.5255
18 0 28 -9.6675 0.5071
18 0 30 -0.0293 -12.8142
18 0 32 -16.7074 0.1490
18 0 34 -0.0101 -5.8705
18 0 36 -3.0856 0.0377
18 0 38 0.0127 24.1439
18 0 40 -15.6414 -0.0350
18 0 42 0.0455 -2.9469
18 1 1 -1.9741 -22.7462
18 1 3 19.2184 24.7468
18 1 5 76.6222 -44.0597
18 1 7 24.4523 -62.5736
18 1 9 49.4718 7.4485
18 1 11 -35.6226 29.5367
18 1 13 -7.4102 9.7905
18 1 15 -13.6852 21.0653
18 1 17 88.1381 28.7144
18 1 19 30.4494 -10.8914
18 1 21 -10.8751 0.2935
18 1 23 11.5233 7.4640
18 1 25 8.1942 1.6832
18 1 27 -2.5635 -1.3479
18 1 29 1.9192 -8.0194
18 1 31 -8.0623 -5.6083
18 1 33 -1.0349 -5.6700
18 1 35 -0.0979 -10.3021
18 1 37 16.5663 11.2738
18 1 39 -0.8977 -0.5169
18 1 41 13.6237 13.4367
18 1 43 -25.0456 -18.0829
18 2 0 -81.4427 -4.7428
18 2 2 23.4317 -8.1983
18 2 4 41.1108 13.2671
18 2 6 53.5774 -79.6910
18 2 8 65.7230 47.0223
18 2 10 -3.2481 -87.1286
18 2 12 -21.4237 0.6462
18 2 14 -74.0980 -18.9130
18 2 16 -6.2737 -37.0389
18 2 18 3.5715 20.6528
18 2 20 9.6799 8.8586
18 2 22 22.3899 -6.0540
18 2 24 5.6674 -17.0837
18 2 26 -0.1911 0.1005
18 2 28 2.2857 -3.6573
18 2 30 -0.1016 3.6828
18 2 32 -17.3617 9.3896
18 2 34 -1.9824 7.7332
18 2 36 -3.1483 -1.1842
18 2 38 2.4589 6.9645
18 2 40 8.2549 -8.7610
18 2 42 18.2631 -14.5122
18 3 1 7.8594 20.1999
18 3 3 -17.1558 5.9541
18 3 5 -8.5708 82.8174
18 3 7 -79.1128 -1.7726
18 3 9 19.3687 -12.8850
18 3 11 -65.3358 -64.3402
18 3 13 123.3238 55.6777
18 3 15 34.5415 -28.2910
18 3 17 -8.0443 13.4382
18 3 19 -41.6529 33.9706
18 3 21 -7.1492 34.6156
18 3 23 5.8714 21.4381
18 3 25 12.1577 5.2215
18 3 27 4.0663 2.6800
18 3 29 3.9915 11.0096
18 3 31 -3.7379 -16.1943
18 3 33 8.0481 -12.1277
18 3 35 7.4340 -15.5080
18 3 37 -8.7884 1.7822
18 3 39 -15.0919 0.3387
18 3 41 13.3628 -1.9457
18 4 0 -135.8571 -5.0313
18 4 2 -28.7858 -62.3425
18 4 4 1.5652 -72.9500
18 4 6 -32.0019 43.9993
18 4 8 88.6374 -79.2348
18 4 10 36.3145 21.9682
18 4 12 -13.6401 -20.9673
18 4 14 32.5307 46.5877
18 4 16 8.5006 -14.8646
18 4 18 11.7361 -53.3180
18 4 20 -5.7390 3.3930
18 4 22 1.3575 5.3392
18 4 24 0.8894 2.2951
18 4 26 6.4566 -5.2429
18 4 28 -2.8414 -5.0554
18 4 30 -6.5839 15.2217
18 4 32 6.8254 0.4068
18 4 34 -4.5949 11.2644
18 4 36 -9.4833 13.7954
18 4 38 -5.2803 -20.0291
18 4 40 -14.2125 -20.3308
18 4 42 0.8359 -0.1887
18 5 1 18.4019 -46.3197
18 5 3 72.4210 -107.3020
18 5 5 8.7071 53.4256
18 5 7 -6.6342 12.3541
18 5 9 -64.6915 70.3072
18 5 11 32.1995 16.0009
18 5 13 21.4490 12.4182
18 5 15 17.7078 24.8655
18 5 17 -38.3830 -40.8439
18 5 19 8.4846 -24.8344
18 5 21 -0.7638 -16.9694
18 5 23 -2.7666 2.0795
18 5 25 20.9613 -3.5320
18 5 27 0.2599 15.6253
18 5 29 -10.1715 11.2720
18 5 31 4.7539 -1.6727
18 5 33 -15.7326 -8.1026
18 5 35 15.4993 -3.0439
18 5 37 11.1259 -13.6137
18 5 39 -16.0914 1.3292
18 5 41 -2.8556 -1.6916
18 6 0 -94.7255 -6.3550
18 6 2 -43.7342 43.8976
18 6 4 18.2639 -56.1112
18 6 6 8.5618 47.3673
18 6 8 -86.5634 5.0217
18 6 10 -25.6508 -32.5528
18 6 12 3.7663 14.5235
18 6 14 1.9050 49.0811
18 6 16 -11.3300 1.8448
18 6 18 34.9365 -8.4525
18 6 20 9.4596 5.3241
18 6 22 -21.2185 -0.4137
18 6 24 15.1446 3.8605
18 6 26 -3.5882 -3.3923
18 6 28 -3.3139 1.1673
18 6 30 -3.3266 4.5484
18 6 32 -8.9501 11.0250
18 6 34 -13.5553 -15.4642
18 6 36 -0.8160 0.9679
18 6 38 17.4406 2.7730
18 6 40 -17.3771 9.1408
18 6 42 0.7728 1.7140
18 7 1 154.3542 -6.6441
18 7 3 -45.1629 -56.0605
18 7 5 12.5544 -32.8448
18 7 7 -0.3930 5.9743
18 7 9 3.3765 10.9352
18 7 11 -15.3761 2.3510
18 7 13 -16.3865 -12.4369
18 7 15 56.4485 -62.2530
18 7 17 -0.9695 -14.7384
18 7 19 19.7409 -16.5907
18 7 21 -1.4422 0.8590
18 7 23 -0.8638 27.9899
18 7 25 9.1183 7.9178
18 7 27 -13.5135 8.5331
18 7 29 4.7475 -17.2711
18 7 31 -6.8520 -14.6195
18 7 33 7.1427 14.2102
18 7 35 -12.0475 -6.7884
18 7 37 0.3899 0.0633
18 7 39 7.1711 10.3414
18 7 41 4.1969 10.6479
18 8 0 25.5995 -6.5681
18 8 2 70.5299 22.5130
18 8 4 84.2026 -100.0484
18 8 6 -14.7507 30.7589
18 8 8 0.6215 11.3380
18 8 10 76.9362 -42.3722
18 8 12 -2.8086 10.7543
18 8 14 14.3847 37.7090
18 8 16 34.6060 -16.8287
18 8 18 -27.9499 -17.7318
18 8 20 4.9387 6.1254
18 8 22 -2.4502 -6.5157
18 8 24 1.3115 8.1281
18 8 26 -6.3923 10.8760
18 8 28 -8.4029 10.9115
18 8 30 -0.6305 2.3910
18 8 32 4.9756 -3.8382
18 8 34 0.7435 1.1446
18 8 36 -0.2173 0.8036
18 8 38 -3.1683 -20.2639
18 8 40 17.7771 13.3940
18 8 42 0.4327 2.6695
18 9 1 -93.7831 -114.4542
18 9 3 -149.2976 39.1916
18 9 5 129.0736 9.7109
18 9 7 -20.0533 64.0655
18 9 9 -28.8844 -94.4894
18 9 11 -24.5424 12.2739
18 9 13 30.9109 24.7532
18 9 15 1.6823 14.0068
18 9 17 -5.2702 27.5734
18 9 19 1.7684 -32.3661
18 9 21 0.7597 7.4774
18 9 23 9.7709 -3.2368
18 9 25 17.3675 -5.1065
18 9 27 0.6024 -7.1559
18 9 29 20.8502 2.5951
18 9 31 18.0289 -3.9125
18 9 33 5.3241 -3.6520
18 9 35 5.8398 -14.4039
18 9 37 -22.2421 3.7659
18 9 39 -11.5716 -7.1248
18 9 41 9.4068 -0.7900
18 10 0 78.9463 -5.9263
18 10 2 -84.7281 -97.1021
18 10 4 140.7214 -116.4908
18 10 6 44.2123 20.6697
18 10 8 49.8135 13.0165
18 10 10 3.5936 -34.7051
18 10 12 22.2491 29.2620
18 10 14 -19.0964 -10.6289
18 10 16 -36.1080 53.1043
18 10 18 -25.3594 17.1602
18 10 20 7.6905 -25.5075
18 10 22 -3.1223 16.9984
18 10 24 7.1639 0.9703
18 10 26 7.8536 5.5267
18 10 28 1.7472 10.7423
18 10 30 12.9952 6.5613
18 10 32 -3.7126 -2.1242
18 10 34 0.8219 -18.7670
18 10 36 18.6506 -12.8464
18 10 38 -1.1845 10.8896
18 10 40 5.1553 -24.4209
18 10 42 -3.9681 3.8252
18 11 1 -46.0635 60.5387
18 11 3 49.8355 -72.2352
18 11 5 5.5123 63.3851
18 11 7 -71.8266 16.4621
18 11 9 -37.4877 -18.2401
18 11 11 13.9900 24.7163
18 11 13 9.1228 9.6890
18 11 15 -12.7280 11.3578
18 11 17 25.7092 40.4083
18 11 19 -16.7691 -2.5715
18 11 21 -0.0395 -9.8226
18 11 23 -1.8243 8.4772
18 11 25 7.9693 3.5124
18 11 27 0.8885 17.3790
18 11 29 -1.7504 4.9365
18 11 31 -5.6494 -25.5793
18 11 33 21.1861 -6.2076
18 11 35 1.5716 -3.3197
18 11 37 3.1148 14.0891
18 11 39 -1.4299 -8.1405
18 11 41 15.7373 14.6902
18 12 0 11.6976 -4.0378
18 12 2 -128.3384 10.1285
18 12 4 -77.9473 59.8848
18 12 6 -11.4975 -58.8506
18 12 8 14.8278 -36.4991
18 12 10 -47.4729 -4.9657
18 12 12 -32.8497 35.6002
18 12 14 54.5481 -14.4011
18 12 16 25.9664 5.5092
18 12 18 10.5007 0.9377
18 12 20 -17.0168 -0.4026
18 12 22 14.0434 -6.7306
18 12 24 12.9358 3.0303
18 12 26 4.5294 -1.9936
18 12 28 10.0927 0.9932
18 12 30 -5.2477 4.8072
18 12 32 5.1986 -2.4886
18 12 34 17.3649 1.6152
18 12 36 -3.7637 1.6965
18 12 38 18.0042 4.4621
18 12 40 13.0492 -6.9217
18 13 1 18.3590 17.7873
18 13 3 7.9949 45.9638
18 13 5 37.9212 9.3124
18 13 7 -21.7693 4.1856
18 13 9 -7.7832 26.0409
18 13 11 40.4832 -21.9659
18 13 13 -37.3737 26.1891
18 13 15 -5.5308 3.2926
18 13 17 31.4133 11.2579
18 13 19 -33.4030 -15.6484
18 13 21 -12.5858 4.5088
18 13 23 5.1550 -4.0516
18 13 25 -0.7596 15.2370
18 13 27 3.5285 9.7222
18 13 29 1.9223 8.9370
18 13 31 5.8524 3.5677
18 13 33 -2.5485 -19.5256
18 13 35 2.8502 4.6741
18 13 37 2.2136 -1.2525
18 13 39 7.6092 -11.2655
18 13 41 -6.2075 31.5757
18 14 0 29.6724 -1.9432
18 14 2 -30.0381 139.3119
18 14 4 67.4509 -53.0677
18 14 6 25.4489 68.5441
18 14 8 54.2642 -1.0333
18 14 10 36.5927 -5.5177
18 14 12 -6.2568 -3.9746
18 14 14 36.9990 19.6859
18 14 16 17.0401 -17.7946
18 14 18 22.1043 -21.8249
18 14 20 1.5953 -3.2302
18 14 22 -2.0720 20.0071
18 14 24 4.9587 -12.3282
18 14 26 2.0072 0.1163
18 14 28 2.9123 -3.4705
18 14 30 -16.7494 9.7494
18 14 32 -2.1141 12.1556
18 14 34 19.8984 10.4574
18 14 36 -2.3206 2.1867
18 14 38 2.1548 0.7140
18 14 40 6.9327 -18.6306
18 15 1 19.1870 -93.0751
18 15 3 52.0524 6.4956
18 15 5 -24.2553 109.0672
18 15 7 36.7777 9.9154
18 15 9 26.3933 12.2559
18 15 11 -16.3083 33.5542
18 15 13 5.3970 -5.3318
18 15 15 -2.1581 42.9909
18 15 17 40.4122 18.3532
18 15 19 -1.0816 -8.3546
18 15 21 -0.3048 0.7968
18 15 23 -8.7762 7.6875
18 15 25 5.8719 4.3324
18 15 27 4.7498 6.5101
18 15 29 -0.9805 -1.7019
18 15 31 2.5775 -0.5891
18 15 33 2.5641 5.5816
18 15 35 8.0106 -11.5716
18 15 37 14.4126 -12.9976
18 15 39 24.2169 22.4361
18 16 0 87.3802 0.0050
18 16 2 28.7863 93.7075
18 16 4 6.5337 31.3212
18 16 6 -18.1111 81.0923
18 16 8 -29.4999 -58.6981
18 16 10 -30.0949 -15.4928
18 16 12 3.3182 -18.2938
18 16 14 5.3265 -11.3516
18 16 16 -13.4708 -19.0047
18 16 18 6.0472 22.9358
18 16 20 -17.7424 13.6542
18 16 22 -8.8888 31.8471
18 16 24 1.3994 14.6393
18 16 26 8.1168 -8.7395
18 16 28 -10.6138 -4.7610
18 16 30 12.7993 2.9740
18 16 32 1.0143 0.8262
18 16 34 6.3842 -1.7004
18 16 36 -8.4509 -3.7854
18 16 38 8.5667 3.1748
18 16 40 -8.9832 -5.6225
18 17 1 31.9012 -34.7469
18 17 3 -3.1248 -19.4145
18 17 5 -17.3855 -35.0776
18 17 7 30.2551 -35.1959
18 17 9 -52.8212 -36.9025
18 17 11 1.4230 16.1209
18 17 13 27.3228 34.5872
18 17 15 1.1035 -31.2810
18 17 17 -7.6245 -12.2629
18 17 19 -3.0692 13.3282
18 17 21 -0.0626 8.6255
18 17 23 -3.8151 -5.6794
18 17 25 11.5504 1.4613
18 17 27 2.9068 -7.6025
18 17 29 1.3749 0.3396
18 17 31 2.0128 19.3267
18 17 33 2.0995 -0.5710
18 17 35 7.3712 -12.6200
18 17 37 -21.4664 11.4071
18 17 39 -3.5352 -5.3205
18 18 0 -27.4060 1.0926
18 18 2 26.7672 -0.6691
18 18 4 -62.1377 3.3828
18 18 6 77.1523 -0.8672
18 18 8 -26.9334 2.5612
18 18 10 -4.2513 -0.0786
18 18 12 8.1756 0.0424
18 18 14 -10.8852 -0.1075
18 18 16 12.5040 -0.0875
18 18 18 18.1322 -0.0242
18 18 20 11.8281 -0.8080
18 18 22 -33.4993 0.1096
18 18 24 1.7239 -0.6658
18 18 26 13.9558 0.0609
18 18 28 -11.4533 -0.0509
18 18 30 -2.4798 0.0139
18 18 32 -4.8912 0.0890
18 18 34 4.1017 0.0313
18 18 36 16.1480 0.0101
18 18 38 2.4909 -0.0048
19 0 1 56.4098 56.9844
19 0 3 -14.1637 12.4854
19 0 5 80.3063 79.3405
19 0 7 17.2481 -15.6215
19 0 9 -4.8782 -7.4594
19 0 11 -0.7753 -0.2862
19 0 13 -37.4520 -34.9218
19 0 15 2.6977 -5.8478
19 0 17 7.3911 9.0822
19 0 19 -13.3266 13.2863
19 0 21 -0.8119 -0.9448
19 0 23 9.7095 -9.4223
19 0 25 7.4712 7.3392
19 0 27 -7.7697 7.6372
19 0 29 0.1151 0.0414
19 0 31 -10.3755 10.3105
19 0 33 -19.4709 -19.6143
19 0 35 -4.2860 4.3001
19 0 37 0.0391 0.1090
19 0 39 16.6443 -16.7702
19 0 41 9.2326 9.1419
19 1 0 -84.3089 -0.0879
19 1 2 23.6525 58.0397
19 1 4 -55.0943 -49.6584
19 1 6 -76.6196 -53.9721
19 1 8 16.9614 -52.4824
19 1 10 76.0461 34.9208
19 1 12 52.8563 42.9237
19 1 14 38.1506 2.4700
19 1 16 -40.7191 -26.7583
19 1 18 17.3391 2.3790
19 1 20 0.4153 -21.0345
19 1 22 -11.2143 12.4566
19 1 24 -12.9874 19.5494
19 1 26 9.1671 6.1705
19 1 28 1.3743 3.8030
19 1 30 10.3271 2.9592
19 1 32 -6.9922 -13.5519
19 1 34 5.3503 13.6389
19 1 36 18.5290 8.3893
19 1 38 -8.1027 26.8498
19 1 40 5.6527 17.8641
19 1 42 -4.7582 -17.4032
19 2 1 82.3919 -0.2519
19 2 3 15.7974 61.6789
19 2 5 -54.1838 37.5785
19 2 7 13.6086 32.6658
19 2 9 17.6314 45.8010
19 2 11 40.0916 -4.2538
19 2 13 -49.5012 6.1256
19 2 15 -21.2119 -12.9232
19 2 17 13.0264 7.5350
19 2 19 -12.0714 2.2702
19 2 21 -11.2369 4.7727
19 2 23 16.5870 0.8697
19 2 25 -0.2058 -10.4335
19 2 27 1.8288 -15.4573
19 2 29 -21.3479 4.4052
19 2 31 9.4828 -2.6273
19 2 33 -5.4804 14.0670
19 2 35 -5.8900 -2.3304
19 2 37 14.3854 -12.1875
19 2 39 -6.0655 -0.2496
19 2 41 -1.6854 -15.6510
19 3 0 2.9733 0.3728
19 3 2 24.7583 -36.9798
19 3 4 -43.6699 -17.1192
19 3 6 2.9323 72.7209
19 3 8 3.3362 13.5185
19 3 10 -5.1761 16.3705
19 3 12 0.1890 25.2259
19 3 14 -44.2491 21.3392
19 3 16 -4.0808 -62.9190
19 3 18 32.7336 -45.0192
19 3 20 4.6120 -9.5579
19 3 22 -6.7265 0.1264
19 3 24 -3.9732 17.7375
19 3 26 3.6336 -8.6772
19 3 28 -3.1695 1.2529
19 3 30 -18.0746 2.5898
19 3 32 12.7271 -11.6209
19 3 34 6.3210 11.1754
19 3 36 -4.1714 0.8021
19 3 38 -13.1667 12.6468
19 3 40 9.6512 -25.7501
19 3 42 -20.3969 5.6087
19 4 1 -71.3799 -16.9134
19 4 3 11.1522 -8.5269
19 4 5 -12.9224 17.7107
19 4 7 55.2268 -21.8891
19 4 9 -85.7343 -55.3900
19 4 11 3.7612 70.7078
19 4 13 -5.5552 -17.4427
19 4 15 40.5824 59.8075
19 4 17 78.7030 4.9472
19 4 19 -0.3766 -3.3388
19 4 21 23.6096 8.2126
19 4 23 3.2212 -8.5912
19 4 25 -10.8477 23.6452
19 4 27 8.3395 13.0412
19 4 29 7.2469 7.7469
19 4 31 -8.7254 -13.0756
19 4 33 -10.7859 -16.5250
19 4 35 2.5718 1.9528
19 4 37 -6.8997 9.5451
19 4 39 -3.1437 0.2045
19 4 41 -5.4936 -23.7086
19 5 0 -11.7904 0.6156
19 5 2 -63.8618 26.9295
19 5 4 10.8652 -9.1611
19 5 6 12.1851 -28.8998
19 5 8 46.5243 -16.1112
19 5 10 -21.9685 -7.3876
19 5 12 51.7694 31.3381
19 5 14 0.7538 21.7717
19 5 16 -60.4784 -23.0351
19 5 18 12.0730 2.6381
19 5 20 17.4552 -21.2927
19 5 22 7.8576 -8.6393
19 5 24 3.8827 -6.7898
19 5 26 9.0341 -6.7600
19 5 28 -1.0244 3.2823
19 5 30 -1.0846 -10.2130
19 5 32 -5.9207 -1.8609
19 5 34 1.8292 -1.1056
19 5 36 -14.7550 -11.2021
19 5 38 2.0480 2.7962
19 5 40 11.9901 2.6650
19 5 42 1.0471 3.3136
19 6 1 19.2226 -109.9143
19 6 3 69.8755 41.0321
19 6 5 99.3830 -49.1358
19 6 7 -9.7448 109.2304
19 6 9 -121.7494 9.8650
19 6 11 -21.6243 -28.3481
19 6 13 2.2224 -32.7980
19 6 15 -24.0005 -9.6794
19 6 17 -15.9327 -6.1551
19 6 19 13.4688 17.5319
19 6 21 8.8458 14.0404
19 6 23 1.6431 -0.4639
19 6 25 10.8201 0.0850
19 6 27 -9.1034 -26.6124
19 6 29 -5.9276 10.9505
19 6 31 5.0123 14.3352
19 6 33 13.5068 -7.0715
19 6 35 -15.1109 7.0115
19 6 37 -9.5172 -0.1836
19 6 39 13.9498 -9.7647
19 6 41 3.8300 2.1239
19 7 0 80.1021 0.6737
19 7 2 -75.2432 50.2488
19 7 4 38.6450 43.9922
19 7 6 153.0315 -92.3535
19 7 8 53.7410 -19.8724
19 7 10 12.8327 -100.7228
19 7 12 4.0280 -14.3469
19 7 14 -12.9963 15.3534
19 7 16 0.2906 79.3961
19 7 18 -1.9896 14.1324
19 7 20 -9.2402 12.8820
19 7 22 -29.0372 -6.4028
19 7 24 22.5567 -4.0444
19 7 26 8.4581 9.0569
19 7 28 -2.2392 -12.9061
19 7 30 -14.0985 15.5556
19 7 32 21.4682 11.6463
19 7 34 0.0760 -5.0891
19 7 36 -21.0653 10.6482
19 7 38 -19.0090 5.4109
19 7 40 1.4826 -3.3112
19 7 42 13.4130 -3.7890
19 8 1 122.9415 -105.4843
19 8 3 77.5840 -30.2014
19 8 5 131.6847 -20.4972
19 8 7 59.5138 -1.0484
19 8 9 -15.2264 -34.0525
19 8 11 -46.7412 -34.7019
19 8 13 31.1551 -15.7922
19 8 15 -46.2563 -67.1566
19 8 17 14.3195 -30.1915
19 8 19 2.6921 -7.9011
19 8 21 5.1667 -10.2987
19 8 23 -3.1345 6.2430
19 8 25 -2.6296 9.5194
19 8 27 -3.8213 -0.4692
19 8 29 8.5353 -27.3642
19 8 31 5.9084 8.8111
19 8 33 -2.9028 0.2935
19 8 35 7.6197 11.9598
19 8 37 -4.0080 -19.0871
19 8 39 11.0910 -10.5420
19 8 41 -17.0449 4.9497
19 9 0 -128.6499 0.5486
19 9 2 -33.4245 37.2216
19 9 4 -62.6648 34.8617
19 9 6 43.4404 10.6804
19 9 8 36.9560 -31.7253
19 9 10 10.4505 -26.8442
19 9 12 -40.7922 -29.7150
19 9 14 20.3766 -10.8637
19 9 16 32.8365 24.6720
19 9 18 -18.1997 45.8405
19 9 20 -3.0842 -17.6916
19 9 22 -12.0899 -2.8085
19 9 24 -4.9667 -0.4684
19 9 26 -7.5156 4.6136
19 9 28 4.8225 -13.7180
19 9 30 -2.4432 3.7256
19 9 32 7.4475 17.8870
19 9 34 7.4532 2.8919
19 9 36 -6.2141 -7.1655
19 9 38 1.4193 1.4224
19 9 40 -15.9636 2.2457
19 10 1 41.1210 -102.3658
19 10 3 -145.9647 13.6635
19 10 5 -30.1660 25.6869
19 10 7 82.1612 -6.4415
19 10 9 -32.3212 -44.8701
19 10 11 -1.9717 43.5933
19 10 13 -6.7099 33.4544
19 10 15 11.0801 5.2580
19 10 17 5.4364 -2.4302
19 10 19 5.9352 17.2512
19 10 21 -4.2337 -5.8225
19 10 23 7.0620 -1.9675
19 10 25 1.1160 7.9067
19 10 27 6.0775 0.6661
19 10 29 7.5854 -11.5871
19 10 31 -19.5951 5.6917
19 10 33 1.3384 -20.7130
19 10 35 -11.8636 1.6087
19 10 37 -2.4366 3.6967
19 10 39 15.2140 -13.1459
19 10 41 5.1743 12.1999
19 11 0 -127.9473 0.6274
19 11 2 22.3474 73.1903
19 11 4 -15.6553 -25.6539
19 11 6 34.8428 45.5986
19 11 8 57.6626 4.1138
19 11 10 2.4630 -34.2876
19 11 12 -84.1470 -13.9602
19 11 14 7.5694 -16.8331
19 11 16 47.8270 -13.5325
19 11 18 -15.8879 -10.6625
19 11 20 -30.2854 -5.8423
19 11 22 16.4565 3.9708
19 11 24 4.5791 -7.3433
19 11 26 -6.8797 1.2580
19 11 28 0.9183 -3.6519
19 11 30 -0.7619 2.3128
19 11 32 3.2668 3.0344
19 11 34 0.5728 -4.3803
19 11 36 1.8138 0.7187
19 11 38 2.1979 -10.0459
19 11 40 13.5621 21.9541
19 12 1 -29.1102 66.6427
19 12 3 93.5401 -26.4319
19 12 5 -18.1508 -9.0576
19 12 7 -19.5233 -26.8017
19 12 9 -9.0998 51.7749
19 12 11 36.8519 -15.8425
19 12 13 1.8126 1.9281
19 12 15 23.8870 -21.5518
19 12 17 -17.2011 9.2890
19 12 19 15.7390 0.9622
19 12 21 6.0407 -2.2487
19 12 23 5.6340 0.7913
19 12 25 -2.4846 1.5323
19 12 27 -3.3921 -4.7068
19 12 29 -5.8391 -1.3298
19 12 31 -16.7540 -2.7877
19 12 33 -2.9590 1.7686
19 12 35 8.1984 0.2269
19 12 37 17.0780 -12.0331
19 12 39 -1.5115 0.2800
19 12 41 -1.3063 2.8942
19 13 0 72.9231 0.9139
19 13 2 50.3047 -141.9950
19 13 4 75.6496 76.3402
19 13 6 27.7636 36.4848
19 13 8 46.4558 43.5152
19 13 10 -14.9050 47.3474
19 13 12 49.5348 58.7982
19 13 14 0.1167 2.0728
19 13 16 -27.8079 -25.5961
19 13 18 -8.1742 -16.9717
19 13 20 -13.2883 1.8332
19 13 22 27.2442 -5.4966
19 13 24 -7.5055 10.6841
19 13 26 0.9878 8.6486
19 13 28 8.1206 -12.2943
19 13 30 3.0608 -3.1516
19 13 32 -4.1830 17.5149
19 13 34 0.2508 -0.5261
19 13 36 23.1623 -5.7868
19 13 38 -11.2641 6.2377
19 13 40 25.1270 0.5759
19 14 1 97.7063 82.0303
19 14 3 -22.5272 40.1964
19 14 5 -56.4922 -84.3194
19 14 7 -1.9626 -5.9152
19 14 9 -50.8396 2.9703
19 14 11 2.9867 -3.3497
19 14 13 14.7740 -28.6700
19 14 15 30.8554 14.6819
19 14 17 8.1695 16.6079
19 14 19 -6.7619 8.7369
19 14 21 -6.3511 -4.6840
19 14 23 1.3785 4.9568
19 14 25 -4.3722 1.8224
19 14 27 -7.3763 -7.8216
19 14 29 13.5323 3.0849
19 14 31 -10.0470 0.9257
19 14 33 4.4070 -0.4679
19 14 35 -6.6729 -10.9051
19 14 37 9.6805 -12.4467
19 14 39 -0.5416 0.0579
19 15 0 8.4945 1.1866
19 15 2 110.1882 43.9020
19 15 4 96.5943 -87.8024
19 15 6 -18.1562 2.7516
19 15 8 10.2940 -16.2194
19 15 10 -18.2142 7.6227
19 15 12 1.1958 -32.4278
19 15 14 3.0602 0.0759
19 15 16 -26.1316 10.5374
19 15 18 -4.4129 -0.7595
19 15 20 25.3941 13.8348
19 15 22 10.5988 -21.5151
19 15 24 10.7478 26.5793
19 15 26 -12.2553 7.4482
19 15 28 6.2405 -4.5409
19 15 30 19.2870 -7.3523
19 15 32 -3.5628 1.4797
19 15 34 -0.2431 2.8084
19 15 36 -9.5670 7.2247
19 15 38 -22.4731 -2.5736
19 15 40 -3.1863 0.3325
19 16 1 64.1078 80.8369
19 16 3 -15.2590 -12.1309
19 16 5 -1.2530 -10.1032
19 16 7 -27.1224 -46.7305
19 16 9 -61.7514 27.4832
19 16 11 9.7442 -22.7267
19 16 13 33.5232 -0.7310
19 16 15 10.1298 14.0239
19 16 17 19.0686 9.7441
19 16 19 17.5550 -0.2378
19 16 21 -2.3171 -8.3058
19 16 23 8.7823 -15.9546
19 16 25 -7.0786 -2.1522
19 16 27 -1.7471 -3.3232
19 16 29 6.1257 6.1937
19 16 31 9.3253 0.8511
19 16 33 -1.0492 -15.7332
19 16 35 10.5773 11.7267
19 16 37 21.8186 15.6162
19 16 39 -15.8040 -3.5105
19 17 0 -69.7796 1.3069
19 17 2 17.0422 19.5803
19 17 4 -2.8217 127.2554
19 17 6 8.8192 2.7220
19 17 8 48.3891 61.1270
19 17 10 2.9395 -3.1772
19 17 12 6.8854 49.8588
19 17 14 9.0442 5.1987
19 17 16 6.9523 9.0857
19 17 18 8.4164 -4.0445
19 17 20 -27.0803 -13.4301
19 17 22 -5.6766 6.2623
19 17 24 11.9095 -19.4214
19 17 26 -2.0236 -17.7901
19 17 28 -11.1585 1.2941
19 17 30 -17.0145 3.2605
19 17 32 -7.4590 -0.5608
19 17 34 2.9867 0.3214
19 17 36 -12.3853 1.2550
19 17 38 3.4704 -1.9830
19 18 1 21.6069 19.6008
19 18 3 67.8476 48.9105
19 18 5 64.3262 -18.5203
19 18 7 60.4662 61.3596
19 18 9 -40.8511 19.4085
19 18 11 51.9785 25.4122
19 18 13 -5.2382 25.4256
19 18 15 -32.8658 -27.9240
19 18 17 10.5774 5.1679
19 18 19 12.3087 5.7968
19 18 21 1.9492 -11.2362
19 18 23 -13.9772 -1.7739
19 18 25 3.0661 -27.0172
19 18 27 5.4688 -9.1671
19 18 29 0.8349 12.2222
19 18 31 -4.0168 -0.2883
19 18 33 -12.5509 -6.0603
19 18 35 -4.3294 1.1613
19 18 37 -8.6596 -14.3514
19 18 39 -7.5662 22.6101
19 19 0 3.8901 1.3337
19 19 2 -43.5181 -1.8246
19 19 4 -22.5763 1.0227
19 19 6 -5.7961 -3.8631
19 19 8 39.1719 0.3719
19 19 10 -20.8739 -1.0714
19 19 12 7.6835 0.1230
19 19 14 21.0362 0.2935
19 19 16 -35.0344 0.1030
19 19 18 -19.9664 0.2002
19 19 20 20.0935 -0.0901
19 19 22 8.0145 0.9900
19 19 24 -1.8232 -0.0764
19 19 26 -1.5939 0.3048
19 19 28 5.1171 -0.0787
19 19 30 2.9275 -0.1262
19 19 32 -7.6227 -0.0487
19 19 34 2.5454 0.0436
19 19 36 -0.8515 -0.0582
19 19 38 -11.3675 -0.0993
20 0 0 -95.6223 -3.6325
20 0 2 -0.0979 20.7829
20 0 4 76.3393 -0.3087
20 0 6 -0.8135 -73.4361
20 0 8 -37.7677 2.0325
20 0 10 -0.4622 -23.0496
20 0 12 16.5831 -0.6973
20 0 14 -0.1048 -33.2647
20 0 16 -22.3873 0.4338
20 0 18 -0.0266 -16.0749
20 0 20 6.1587 -0.3607
20 0 22 -0.0719 -10.2225
20 0 24 20.0106 -0.4565
20 0 26 -0.1401 0.7604
20 0 28 11.7685 0.3692
20 0 30 -0.0792 -15.9041
20 0 32 12.8369 0.0519
20 0 34 0.0153 10.2755
20 0 36 16.8405 0.0001
20 0 38 0.0133 -6.3193
20 0 40 22.2800 -0.0334
20 0 42 0.0094 -1.1527
20 1 1 44.6739 26.9077
20 1 3 43.2424 72.1548
20 1 5 10.5566 -55.6210
20 1 7 27.7051 0.6197
20 1 9 27.1336 -30.9992
20 1 11 -0.2916 -5.0828
20 1 13 -1.8620 -39.5501
20 1 15 -24.1640 -35.1846
20 1 17 -43.6221 -12.0399
20 1 19 -9.9449 -11.3793
20 1 21 1.8612 13.0106
20 1 23 27.0609 6.6126
20 1 25 5.4458 9.0390
20 1 27 -3.2992 0.3949
20 1 29 5.7399 -13.3242
20 1 31 -17.5539 4.6454
20 1 33 0.1239 0.0661
20 1 35 11.5327 12.5378
20 1 37 -0.3407 0.0372
20 1 39 17.2299 -5.2931
20 1 41 21.9883 -10.1619
20 2 0 -40.3421 -3.8199
20 2 2 -26.7745 20.6664
20 2 4 39.4506 27.2841
20 2 6 -9.8590 -31.2163
20 2 8 49.9347 -35.6923
20 2 10 -4.1166 16.1394
20 2 12 -14.4247 4.0720
20 2 14 9.4453 53.7745
20 2 16 -11.3078 4.5229
20 2 18 -6.0917 23.5943
20 2 20 2.2736 -8.6818
20 2 22 -6.3913 -30.5204
20 2 24 -3.0872 -5.9668
20 2 26 11.5834 -0.8586
20 2 28 12.4189 -2.4941
20 2 30 9.9983 -7.4594
20 2 32 6.0199 -0.8903
20 2 34 9.5148 -3.7333
20 2 36 -3.2164 -1.7275
20 2 38 -0.4132 -1.3147
20 2 40 -19.5938 17.8909
20 2 42 -1.7517 -0.5864
20 3 1 -64.5536 54.5525
20 3 3 9.0489 34.2851
20 3 5 26.7699 64.4541
20 3 7 -22.8243 -65.3574
20 3 9 21.8790 49.9524
20 3 11 -18.7154 -3.5077
20 3 13 -36.2275 -23.9646
20 3 15 -14.8303 -1.2316
20 3 17 -9.2403 6.7368
20 3 19 -2.3429 8.4096
20 3 21 6.4549 3.2133
20 3 23 17.0930 1.6887
20 3 25 -29.9060 11.0528
20 3 27 -4.3006 13.5564
20 3 29 1.9503 -1.4479
20 3 31 22.4908 8.2088
20 3 33 2.4735 2.6299
20 3 35 -5.8372 4.6096
20 3 37 5.3573 0.1422
20 3 39 -4.6327 -23.6215
20 3 41 14.0229 -9.1847
20 4 0 4.8536 -4.3680
20 4 2 -16.7614 -57.5635
20 4 4 86.5239 -68.5030
20 4 6 -1.6460 39.0448
20 4 8 -32.2085 -13.9321
20 4 10 -37.6941 41.8248
20 4 12 -2.0096 16.5701
20 4 14 71.7314 -42.5384
20 4 16 8.1406 69.4151
20 4 18 24.0504 -31.8133
20 4 20 -5.9478 9.9204
20 4 22 -1.1126 -6.4853
20 4 24 -1.1633 -11.3936
20 4 26 4.7903 8.6007
20 4 28 -2.6613 13.9380
20 4 30 3.4094 1.3128
20 4 32 -2.5292 -5.9265
20 4 34 0.5673 -0.7177
20 4 36 -1.2937 3.8706
20 4 38 6.3122 0.0134
20 4 40 3.9001 -12.1965
20 4 42 0.8752 -1.2120
20 5 1 43.1409 129.6933
20 5 3 -31.9486 145.5006
20 5 5 107.7341 0.9645
20 5 7 -20.9610 -22.7414
20 5 9 -32.4501 8.1345
20 5 11 -75.7999 -59.0572
20 5 13 8.6677 16.7032
20 5 15 -34.5133 31.5284
20 5 17 -6.6285 13.7086
20 5 19 -5.1012 -1.8753
20 5 21 -22.6192 -1.5189
20 5 23 9.4123 -19.5237
20 5 25 2.0545 9.8763
20 5 27 -4.9767 -6.8180
20 5 29 -5.3689 4.6149
20 5 31 10.1813 -0.7329
20 5 33 -22.4103 0.6101
20 5 35 -1.1581 0.2591
20 5 37 9.2000 -17.3246
20 5 39 -2.0516 1.0180
20 5 41 16.6822 4.5799
20 6 0 145.4212 -6.0137
20 6 2 -32.9999 30.9930
20 6 4 140.9084 -95.2541
20 6 6 -16.8107 -20.1027
20 6 8 -50.7362 17.5131
20 6 10 -3.0883 26.0206
20 6 12 12.2866 -4.5382
20 6 14 8.3332 -60.9804
20 6 16 -12.0645 -16.4212
20 6 18 -6.2689 -46.2897
20 6 20 4.3312 16.2566
20 6 22 10.6676 10.5128
20 6 24 0.9824 2.8512
20 6 26 -8.1292 7.6098
20 6 28 -18.4898 3.2225
20 6 30 8.8425 14.2216
20 6 32 16.2143 -14.7444
20 6 34 -0.2496 2.4096
20 6 36 -3.4812 -2.2562
20 6 38 2.5049 2.8986
20 6 40 -4.7617 -0.8921
20 7 1 -31.5224 -5.0823
20 7 3 4.4112 24.0372
20 7 5 111.0756 -100.7481
20 7 7 18.4447 14.1939
20 7 9 66.6780 64.3812
20 7 11 52.4479 -17.8903
20 7 13 21.8799 -7.6884
20 7 15 27.7816 6.1472
20 7 17 2.2539 12.2737
20 7 19 -40.1143 3.7423
20 7 21 -2.8500 10.1270
20 7 23 -0.8897 -8.4656
20 7 25 18.2720 -11.5490
20 7 27 -7.0939 1.8242
20 7 29 -10.2043 -7.8968
20 7 31 -0.2584 17.7620
20 7 33 -10.7351 -14.5859
20 7 35 3.8681 -8.8156
20 7 37 -14.7708 -1.0580
20 7 39 -11.1287 13.0782
20 7 41 12.6005 15.1849
20 8 0 -11.1654 -6.2225
20 8 2 27.5148 -5.2149
20 8 4 -65.3226 70.2265
20 8 6 -35.8886 -10.6723
20 8 8 48.2649 -29.1497
20 8 10 25.0035 17.8900
20 8 12 -6.4903 10.6732
20 8 14 -20.3956 45.3894
20 8 16 -21.4235 3.1764
20 8 18 -18.8361 -28.1941
20 8 20 -3.2512 -11.3417
20 8 22 -20.0862 12.6435
20 8 24 10.3631 -4.1889
20 8 26 12.4673 2.4068
20 8 28 -8.8843 -3.9702
20 8 30 0.8520 -4.5737
20 8 32 3.5016 4.2619
20 8 34 -1.0025 -5.4977
20 8 36 -0.7164 2.1187
20 8 38 3.2155 -19.8147
20 8 40 -3.8458 -1.4416
20 9 1 97.6259 56.0878
20 9 3 -5.0237 -74.8459
20 9 5 68.3838 -9.2331
20 9 7 66.1050 7.6980
20 9 9 -35.4335 -37.6456
20 9 11 -3.2182 -38.4806
20 9 13 11.0408 -0.5001
20 9 15 -7.7104 -12.2475
20 9 17 -17.6254 -23.4948
20 9 19 0.1234 -16.6222
20 9 21 -11.4961 -5.8043
20 9 23 -10.9093 3.5861
20 9 25 7.8791 8.0108
20 9 27 -11.9740 4.1322
20 9 29 -1.0883 -0.4420
20 9 31 -11.8200 -13.7492
20 9 33 -4.3836 -7.6352
20 9 35 -24.8651 5.1055
20 9 37 3.8628 2.7490
20 9 39 12.2383 6.5275
20 9 41 19.5070 -21.3030
20 10 0 -135.6900 -5.5552
20 10 2 10.8659 -105.4594
20 10 4 -37.4691 12.5820
20 10 6 -18.6004 28.0828
20 10 8 10.6194 -19.8045
20 10 10 12.7103 11.1723
20 10 12 22.4672 -5.4678
20 10 14 8.3798 35.5117
20 10 16 -31.0418 -9.0881
20 10 18 -15.4768 30.9738
20 10 20 -5.7971 3.2145
20 10 22 14.7485 8.5930
20 10 24 -7.8435 1.9494
20 10 26 14.0414 -0.9350
20 10 28 -4.0939 6.3623
20 10 30 16.4179 3.2023
20 10 32 3.5805 0.3986
20 10 34 0.1771 -2.9015
20 10 36 -12.7013 -17.6674
20 10 38 -1.3928 0.5704
20 10 40 14.2140 19.7507
20 11 1 35.9360 86.0542
20 11 3 8.7988 108.6234
20 11 5 -72.5358 81.8322
20 11 7 2.5756 -49.2972
20 11 9 26.4533 17.5088
20 11 11 -26.5372 43.2955
20 11 13 -8.3575 -5.3209
20 11 15 -11.7076 10.0610
20 11 17 -13.7155 -5.4345
20 11 19 -16.5486 15.0073
20 11 21 -1.2483 -0.3646
20 11 23 -8.9166 -7.4424
20 11 25 -7.4882 9.8515
20 11 27 8.7337 -12.2245
20 11 29 -14.5483 1.6958
20 11 31 -12.7409 -14.6100
20 11 33 -10.4756 9.9765
20 11 35 21.9898 -0.8308
20 11 37 -12.4236 -6.1722
20 11 39 -9.3495 22.6583
20 11 41 -11.5949 -12.8033
20 12 0 -20.1993 -3.7803
20 12 2 51.1423 -12.1719
20 12 4 71.3292 -42.1005
20 12 6 56.9178 -63.4209
20 12 8 -34.8503 16.5984
20 12 10 -49.4225 -12.5064
20 12 12 -1.8508 2.6261
20 12 14 -43.1526 -35.3683
20 12 16 -6.1742 9.8382
20 12 18 -13.9490 -29.2764
20 12 20 1.1276 -24.9982
20 12 22 -20.6176 -2.6089
20 12 24 3.0373 5.0639
20 12 26 -12.4963 -6.7372
20 12 28 9.3854 -5.3590
20 12 30 4.0655 -2.6142
20 12 32 -10.5136 1.1770
20 12 34 8.7548 8.8667
20 12 36 -2.3651 1.7258
20 12 38 -1.5725 -24.8050
20 12 40 -2.8128 22.8786
20 13 1 72.4540 -35.1170
20 13 3 69.1609 42.5279
20 13 5 116.5509 -87.1216
20 13 7 -22.1654 -6.9920
20 13 9 9.1800 57.1693
20 13 11 -35.2111 -59.8966
20 13 13 39.0970 -12.0005
20 13 15 15.2019 10.7255
20 13 17 14.4629 18.0400
20 13 19 5.4790 17.4475
20 13 21 15.9535 1.9059
20 13 23 7.3814 19.2893
20 13 25 11.6707 6.7678
20 13 27 9.9973 -5.5511
20 13 29 -8.0100 6.0922
20 13 31 10.1052 -0.2685
20 13 33 -8.6187 -0.8466
20 13 35 -6.1969 -12.7970
20 13 37 -9.5929 16.4565
20 13 39 -2.5656 -15.6289
20 14 0 30.6805 -1.7083
20 14 2 -94.2702 -4.8135
20 14 4 137.0494 -39.4122
20 14 6 -0.4064 27.3487
20 14 8 -9.1969 19.7821
20 14 10 45.1279 33.9184
20 14 12 -24.8259 -4.9796
20 14 14 23.7134 41.4958
20 14 16 5.6491 3.6189
20 14 18 29.9349 -19.3267
20 14 20 -12.2883 1.8840
20 14 22 -10.1991 22.5404
20 14 24 0.9530 9.3562
20 14 26 -10.7087 16.2424
20 14 28 5.1797 -9.0286
20 14 30 2.8040 -0.4702
20 14 32 2.7105 -0.7177
20 14 34 6.7325 0.4479
20 14 36 17.4824 -5.1515
20 14 38 3.5218 19.5122
20 14 40 -0.6199 -3.0253
20 15 1 -28.6307 -4.0613
20 15 3 8.1096 -39.9236
20 15 5 4.3118 30.3625
20 15 7 -45.3690 46.4065
20 15 9 3.7517 -4.2359
20 15 11 18.2638 -20.6878
20 15 13 -6.8379 -17.8153
20 15 15 18.9604 -8.0914
20 15 17 -20.3441 -20.3784
20 15 19 5.6301 8.5094
20 15 21 -12.9453 3.6897
20 15 23 4.9655 -2.2610
20 15 25 -4.5414 -13.4603
20 15 27 -0.5338 -7.5154
20 15 29 -1.2618 -8.0253
20 15 31 18.7074 14.8133
20 15 33 4.5206 4.3651
20 15 35 0.0589 -20.7725
20 15 37 3.7903 1.2825
20 15 39 9.7421 -10.1276
20 16 0 21.1070 0.3896
20 16 2 -49.6526 102.7104
20 16 4 11.6572 14.0276
20 16 6 12.2346 67.4102
20 16 8 16.6054 29.0815
20 16 10 37.5053 11.3216
20 16 12 -36.5109 -12.7506
20 16 14 -32.0957 5.5934
20 16 16 28.1492 -5.1972
20 16 18 22.1380 -5.9698
20 16 20 -7.4514 -8.5210
20 16 22 -13.3605 3.1451
20 16 24 -7.2385 15.4769
20 16 26 -13.2567 5.8625
20 16 28 -5.1437 -3.9283
20 16 30 -10.1857 -4.3069
20 16 32 1.5767 -1.1341
20 16 34 -8.4305 15.4200
20 16 36 2.6278 8.7975
20 16 38 -20.5691 5.1632
20 17 1 -10.2592 -122.6858
20 17 3 -54.1103 -47.9442
20 17 5 -67.9707 -61.8059
20 17 7 10.0035 3.8317
20 17 9 33.3268 84.2709
20 17 11 3.7016 -13.5645
20 17 13 21.5256 32.6677
20 17 15 -12.3417 25.3036
20 17 17 5.3818 -23.5440
20 17 19 5.7069 -3.7092
20 17 21 -2.5286 6.2512
20 17 23 -5.7645 10.1739
20 17 25 -3.2352 2.1344
20 17 27 5.1305 -3.8498
20 17 29 3.4412 3.9075
20 17 31 -7.2143 -2.1759
20 17 33 -8.2075 6.6246
20 17 35 2.2897 -0.9102
20 17 37 16.0504 12.9289
20 17 39 18.9692 4.5946
20 18 0 23.7316 1.3687
20 18 2 41.8756 46.2394
20 18 4 25.0312 10.8116
20 18 6 -17.9580 -91.3712
20 18 8 28.4948 28.5605
20 18 10 -78.9353 -34.7143
20 18 12 13.5966 8.3136
20 18 14 2.6746 8.8930
20 18 16 -21.3208 -9.9266
20 18 18 -4.9828 19.6325
20 18 20 1.5794 5.1803
20 18 22 -7.7953 26.9467
20 18 24 -4.0609 6.4207
20 18 26 4.1236 12.5783
20 18 28 -14.1694 7.2579
20 18 30 6.9266 -1.6017
20 18 32 -0.5790 -0.2796
20 18 34 -19.9154 -14.1766
20 18 36 -6.6454 -14.2927
20 18 38 2.1464 0.3874
20 19 1 -48.2339 33.2294
20 19 3 -17.8643 -7.0241
20 19 5 36.7904 25.3787
20 19 7 93.9263 -45.9039
20 19 9 16.7899 27.0326
20 19 11 -24.3818 24.0899
20 19 13 -25.1720 -26.5792
20 19 15 -13.0947 -20.1586
20 19 17 -8.5050 -5.6176
20 19 19 1.9297 1.3889
20 19 21 -1.0846 -7.1507
20 19 23 -11.9180 -3.0286
20 19 25 0.9564 7.9595
20 19 27 -0.4444 11.9354
20 19 29 -0.2935 -2.0258
20 19 31 0.2512 -12.2354
20 19 33 10.8638 1.4369
20 19 35 7.0665 -1.3270
20 19 37 15.2468 12.9243
20 20 0 -27.9943 1.5283
20 20 2 28.5314 -0.5614
20 20 4 -62.4774 3.4460
20 20 6 13.0871 -0.7427
20 20 8 4.0659 2.4588
20 20 10 -4.6525 -0.0498
20 20 12 14.1447 0.0963
20 20 14 -10.8594 -0.1660
20 20 16 7.2655 -0.1172
20 20 18 7.5260 -0.0648
20 20 20 15.5705 -0.8311
20 20 22 -20.7166 0.0671
20 20 24 -1.9119 -0.6349
20 20 26 -9.5251 0.0634
20 20 28 -6.0937 -0.1009
20 20 30 0.3303 0.0616
20 20 32 -8.2267 0.0579
20 20 34 4.5284 0.0792
20 20 36 4.3413 -0.0251
20 20 38 1.4286 0.0211
21 0 1 -9.1336 -9.4474
21 0 3 -2.7402 0.9275
21 0 5 -33.5086 -35.5039
21 0 7 5.2092 -3.2465
21 0 9 6.8467 3.1918
21 0 11 7.0261 -7.4193
21 0 13 18.9338 20.2103
21 0 15 10.2981 -12.5423
21 0 17 27.6477 28.6957
21 0 19 5.8655 -5.4490
21 0 21 4.1389 3.6505
21 0 23 -5.1744 5.5767
21 0 25 -7.2250 -7.4415
21 0 27 6.3412 -6.2753
21 0 29 -3.3457 -3.3242
21 0 31 7.6977 -7.6597
21 0 33 7.7582 7.7183
21 0 35 7.9229 -7.8779
21 0 37 7.6157 7.7165
21 0 39 6.9636 -7.0411
21 0 41 14.2418 14.2138
21 1 0 -39.8290 -0.1452
21 1 2 0.9794 -35.1122
21 1 4 -60.6305 25.7257
21 1 6 69.1831 3.1545
21 1 8 -43.5579 -43.3824
21 1 10 -9.8371 47.6540
21 1 12 -12.8368 -23.4302
21 1 14 12.8906 6.9229
21 1 16 -4.2191 29.1496
21 1 18 5.4852 5.8294
21 1 20 12.8091 11.8864
21 1 22 -20.8632 1.7296
21 1 24 3.7099 -8.4290
21 1 26 18.1421 1.7458
21 1 28 -9.5985 -13.0818
21 1 30 -17.8287 1.1047
21 1 32 -15.0988 -5.5429
21 1 34 7.3824 6.7114
21 1 36 11.9002 -20.2025
21 1 38 2.5909 0.0112
21 1 40 -18.4912 9.7953
21 2 1 36.1352 55.2787
21 2 3 98.6524 11.9445
21 2 5 -60.7047 -43.8996
21 2 7 -2.2519 -34.1036
21 2 9 -37.5180 45.3712
21 2 11 11.0533 72.3629
21 2 13 -6.7312 -21.7864
21 2 15 -15.4239 -36.9522
21 2 17 7.4000 15.7976
21 2 19 21.3024 -1.9512
21 2 21 -22.3493 -10.5325
21 2 23 -4.1267 -14.4261
21 2 25 1.0477 0.1002
21 2 27 0.3764 -6.9983
21 2 29 -7.1096 -1.5616
21 2 31 5.8567 -0.4008
21 2 33 17.8789 0.3170
21 2 35 2.9850 -3.4919
21 2 37 -2.4228 16.0288
21 2 39 14.5747 15.0306
21 2 41 -0.7825 2.0106
21 3 0 -5.9080 0.2993
21 3 2 -45.7101 11.7895
21 3 4 51.6155 125.7821
21 3 6 79.7204 36.5555
21 3 8 -30.6025 -30.9605
21 3 10 27.3005 -23.3698
21 3 12 -25.7882 52.9822
21 3 14 -28.4498 22.9634
21 3 16 58.4368 24.2561
21 3 18 19.8096 16.0928
21 3 20 41.1106 3.0388
21 3 22 4.2547 17.6040
21 3 24 -10.5494 5.0506
21 3 26 -11.9170 11.5746
21 3 28 -8.1652 -4.5947
21 3 30 -10.2907 -21.9676
21 3 32 -1.5304 -3.0010
21 3 34 -0.4633 -1.1142
21 3 36 -0.2895 -2.9167
21 3 38 8.1517 -11.4341
21 3 40 -6.4471 1.0518
21 4 1 -59.3494 -61.7484
21 4 3 26.3181 -110.4204
21 4 5 -36.0843 16.0681
21 4 7 -44.6079 -4.7721
21 4 9 -22.9810 -22.2360
21 4 11 14.2493 52.3963
21 4 13 -1.3104 -33.5760
21 4 15 -15.1616 -1.3418
21 4 17 2.8012 -12.0014
21 4 19 -0.3976 -24.2929
21 4 21 -23.4321 -1.0084
21 4 23 -22.8937 3.6454
21 4 25 10.5738 1.9104
21 4 27 -13.1910 11.9927
21 4 29 -1.4983 3.0196
21 4 31 7.7219 18.0587
21 4 33 -3.4720 -12.9989
21 4 35 -1.9125 0.1378
21 4 37 2.4061 -2.5564
21 4 39 7.1907 -18.4499
21 4 41 -1.4781 -3.5199
21 5 0 -22.6201 0.6030
21 5 2 -64.3861 103.7423
21 5 4 38.0100 24.2075
21 5 6 111.9121 54.6764
21 5 8 -21.7701 18.3057
21 5 10 -50.2719 -1.6445
21 5 12 -31.9395 24.2853
21 5 14 -29.2985 -2.2280
21 5 16 7.8976 49.0515
21 5 18 0.2763 -33.8203
21 5 20 -8.7185 -24.8809
21 5 22 -4.2039 0.0227
21 5 24 11.6435 -12.3375
21 5 26 -11.5663 0.3564
21 5 28 2.5366 -9.4216
21 5 30 -6.4331 5.9021
21 5 32 -2.2586 6.7094
21 5 34 0.5423 -4.6581
21 5 36 0.5870 4.8755
21 5 38 -20.0908 -1.1678
21 5 40 3.1741 4.0916
21 6 1 4.1791 49.4690
21 6 3 14.8481 40.0649
21 6 5 85.9554 -18.8984
21 6 7 -0.3780 49.8024
21 6 9 -22.4543 14.4184
21 6 11 -13.3113 -5.8052
21 6 13 5.1229 14.5236
21 6 15 3.3602 22.5038
21 6 17 -26.8946 40.0548
21 6 19 -9.9057 -2.6279
21 6 21 -21.8534 -1.7400
21 6 23 -2.9628 -8.0590
21 6 25 -15.4641 5.5954
21 6 27 3.5724 10.7283
21 6 29 3.4379 5.3300
21 6 31 4.5635 -4.3444
21 6 33 8.7862 -7.0834
21 6 35 -12.8299 -6.4602
21 6 37 1.8252 2.3938
21 6 39 22.4110 -3.1317
21 6 41 -22.6868 8.4792
21 7 0 -11.3981 0.4957
21 7 2 71.3310 -51.1840
21 7 4 62.5787 -25.4261
21 7 6 95.0749 -34.8287
21 7 8 -11.5998 -82.6242
21 7 10 -7.2626 -21.8786
21 7 12 26.9213 -1.1364
21 7 14 4.9166 8.0686
21 7 16 -16.7325 -62.3331
21 7 18 -8.4919 39.6143
21 7 20 11.9108 -17.5593
21 7 22 9.5265 5.5845
21 7 24 0.9071 18.0222
21 7 26 -5.4817 -10.6791
21 7 28 19.1897 -11.6643
21 7 30 8.5006 -6.3325
21 7 32 5.0902 8.0453
21 7 34 -1.2706 -2.8586
21 7 36 -1.8638 2.4377
21 7 38 12.3625 -14.9693
21 7 40 10.2008 -0.0860
21 8 1 -2.9582 42.3029
21 8 3 -10.4573 -12.8681
21 8 5 -33.1312 29.6288
21 8 7 -66.3284 42.1799
21 8 9 -44.8125 4.2653
21 8 11 -18.1780 -1.4846
21 8 13 4.2244 1.6700
21 8 15 13.6220 15.4462
21 8 17 -4.7960 45.3704
21 8 19 -6.7931 5.6509
21 8 21 4.9269 15.4797
21 8 23 8.5268 7.7735
21 8 25 9.8359 -0.9470
21 8 27 9.6683 12.1396
21 8 29 13.5885 -7.5737
21 8 31 9.5011 9.0105
21 8 33 -7.0420 0.8109
21 8 35 -14.6704 -10.2765
21 8 37 -1.5083 0.7609
21 8 39 -25.7510 6.5509
21 8 41 3.2827 1.8950
21 9 0 -39.4324 0.3553
21 9 2 29.8756 0.6688
21 9 4 -76.1387 15.7400
21 9 6 2.2550 15.8737
21 9 8 -20.6073 9.6544
21 9 10 -4.2050 56.2161
21 9 12 -29.0603 26.8614
21 9 14 3.7387 -0.2501
21 9 16 2.5640 55.1057
21 9 18 -2.4769 28.9178
21 9 20 -14.3886 16.5762
21 9 22 13.3056 -10.3471
21 9 24 -2.2860 7.8267
21 9 26 2.4762 -8.9782
21 9 28 -3.8414 -1.6386
21 9 30 19.7366 -4.7196
21 9 32 1.4564 -27.6136
21 9 34 -16.1306 1.4947
21 9 36 0.5956 -1.2334
21 9 38 12.8861 -7.7840
21 9 40 -1.5267 -2.9397
21 10 1 4.2160 -81.3753
21 10 3 139.8947 19.2857
21 10 5 -19.1462 68.7795
21 10 7 55.8718 -22.9501
21 10 9 -6.9444 -61.5164
21 10 11 -2.0751 18.3982
21 10 13 -11.7460 -20.1869
21 10 15 9.9353 0.6454
21 10 17 9.2761 -16.2352
21 10 19 17.1186 3.6829
21 10 21 -2.6820 -22.5587
21 10 23 8.3330 -6.4559
21 10 25 -6.4833 -5.7481
21 10 27 -7.2597 -2.6725
21 10 29 3.6793 24.0787
21 10 31 6.9201 -17.9623
21 10 33 -18.3459 5.1766
21 10 35 -12.8860 -3.4761
21 10 37 5.9242 12.7610
21 10 39 27.0313 7.8851
21 11 0 -91.6432 0.3750
21 11 2 -12.5025 -42.3299
21 11 4 48.8546 -70.5067
21 11 6 29.7477 3.8626
21 11 8 -2.7639 23.4249
21 11 10 -25.7808 27.3690
21 11 12 -2.2828 -43.3238
21 11 14 -24.7188 -4.7642
21 11 16 17.7619 37.5635
21 11 18 25.4897 40.4293
21 11 20 -2.0029 34.1871
21 11 22 -5.6871 -10.0684
21 11 24 -6.1814 17.7341
21 11 26 3.1072 3.3487
21 11 28 11.8299 -6.3376
21 11 30 9.0586 3.0695
21 11 32 10.5800 -4.9913
21 11 34 -0.5387 -2.7293
21 11 36 4.1159 2.2412
21 11 38 20.2449 0.1378
21 11 40 -24.4425 4.7650
21 12 1 -61.0381 5.0069
21 12 3 191.9172 -23.4186
21 12 5 -23.5518 52.3599
21 12 7 22.3995 134.5560
21 12 9 47.4978 27.6677
21 12 11 2.3087 -34.4412
21 12 13 11.5667 -7.8898
21 12 15 -15.2616 -11.5790
21 12 17 -10.5567 -1.5828
21 12 19 0.2366 13.0310
21 12 21 -0.3110 -9.8723
21 12 23 0.9704 -0.4996
21 12 25 6.6512 3.0493
21 12 27 9.4596 -2.5579
21 12 29 -4.4630 4.2142
21 12 31 12.5802 10.3021
21 12 33 -5.3638 3.5069
21 12 35 -0.3955 -3.0000
21 12 37 -0.2952 5.4301
21 12 39 -17.9736 -1.5244
21 13 0 -47.2829 0.4801
21 13 2 39.9463 -47.1289
21 13 4 -13.3604 23.8895
21 13 6 3.3691 2.9838
21 13 8 -11.2731 -30.8082
21 13 10 31.6419 -5.0521
21 13 12 -5.4500 -63.2663
21 13 14 10.4169 -14.1660
21 13 16 12.9563 -24.5095
21 13 18 -28.6396 14.0592
21 13 20 -31.3553 3.6795
21 13 22 -0.4052 -5.6585
21 13 24 -14.2862 21.2682
21 13 26 0.2698 -13.0777
21 13 28 -11.9056 1.6168
21 13 30 -4.6359 5.2211
21 13 32 -0.6016 0.2055
21 13 34 -4.9908 -2.2820
21 13 36 0.9781 2.5325
21 13 38 20.3036 7.0372
21 13 40 -2.0508 0.0823
21 14 1 0.3656 66.4528
21 14 3 -113.6806 47.1305
21 14 5 31.3385 18.8531
21 14 7 43.6273 103.9171
21 14 9 50.5583 -29.1166
21 14 11 -5.9843 -31.2352
21 14 13 -10.2010 -30.4131
21 14 15 -17.7639 -3.7236
21 14 17 -8.2215 -7.2909
21 14 19 23.0332 5.2077
21 14 21 6.7923 0.4901
21 14 23 -3.8673 -11.1594
21 14 25 -4.9711 2.2418
21 14 27 -4.2524 4.7911
21 14 29 -1.5481 1.2237
21 14 31 -4.7980 -5.6742
21 14 33 -3.2990 1.2217
21 14 35 -5.8994 -1.4792
21 14 37 -1.0062 13.8492
21 14 39 5.4936 17.4145
21 15 0 10.8834 0.7189
21 15 2 21.8190 -30.4365
21 15 4 -15.5756 -24.5291
21 15 6 13.3891 26.2254
21 15 8 -22.9797 27.1780
21 15 10 10.5404 -18.4450
21 15 12 16.8615 -50.5469
21 15 14 10.1447 -20.5990
21 15 16 16.1629 -16.5328
21 15 18 -20.1089 11.8232
21 15 20 25.0527 21.6382
21 15 22 0.6633 4.9124
21 15 24 -10.0662 26.6045
21 15 26 4.7203 -9.7541
21 15 28 6.6387 6.0297
21 15 30 -9.0057 1.9195
21 15 32 -1.6048 -1.1855
21 15 34 -3.7392 -1.7406
21 15 36 17.1892 16.1941
21 15 38 8.3330 26.0010
21 16 1 33.0032 98.8273
21 16 3 -7.5999 36.4483
21 16 5 11.0656 17.5174
21 16 7 -4.2736 27.9054
21 16 9 -2.6545 10.3765
21 16 11 10.3736 1.2493
21 16 13 -18.8950 13.8039
21 16 15 -7.7943 4.6519
21 16 17 -13.7990 5.1280
21 16 19 -2.5261 8.9607
21 16 21 -2.5497 -4.8066
21 16 23 -14.2487 5.9983
21 16 25 10.7843 0.8324
21 16 27 8.7598 -18.0326
21 16 29 -3.8741 5.0762
21 16 31 -5.5066 -2.2659
21 16 33 3.7257 -20.9581
21 16 35 -11.9429 -3.7888
21 16 37 13.1440 1.7506
21 16 39 -6.1164 -11.3412
21 17 0 30.7991 0.9542
21 17 2 -19.9876 51.5009
21 17 4 -0.5863 44.4155
21 17 6 -19.0122 -53.9232
21 17 8 0.6217 55.7999
21 17 10 6.5035 7.9525
21 17 12 -19.8731 -11.1608
21 17 14 10.3513 -5.8954
21 17 16 -4.1247 -3.8731
21 17 18 -9.0384 2.9027
21 17 20 20.4277 11.1721
21 17 22 1.5111 4.0488
21 17 24 -38.9687 -21.4547
21 17 26 5.8019 -11.0504
21 17 28 11.7077 -5.8440
21 17 30 -1.3615 3.0550
21 17 32 -2.5517 3.1429
21 17 34 -20.9691 -1.3084
21 17 36 -15.2767 12.6893
21 17 38 23.9252 4.6785
21 18 1 49.3546 18.8437
21 18 3 28.0458 -44.3898
21 18 5 14.8465 4.9652
21 18 7 -23.5020 2.6594
21 18 9 0.5861 6.8574
21 18 11 -6.5588 -13.3258
21 18 13 29.1967 -34.6811
21 18 15 -8.3589 -37.9287
21 18 17 7.0768 5.4715
21 18 19 7.5256 3.9894
21 18 21 0.4012 3.5419
21 18 23 -3.7725 2.9691
21 18 25 21.5977 -1.2509
21 18 27 7.1639 9.9758
21 18 29 -2.9646 -4.1934
21 18 31 2.0380 4.5044
21 18 33 1.8973 1.8356
21 18 35 -0.3393 4.8426
21 18 37 21.1360 -8.3098
21 19 0 -37.7710 0.9620
21 19 2 26.5539 71.8903
21 19 4 -9.5431 -68.2644
21 19 6 15.6016 -79.8856
21 19 8 12.0821 44.5893
21 19 10 -8.8709 -6.4507
21 19 12 -24.4940 14.0934
21 19 14 -4.8932 12.9384
21 19 16 19.5022 16.9506
21 19 18 7.7075 -30.9971
21 19 20 -11.6705 -31.8455
21 19 22 -1.3130 21.9850
21 19 24 10.4606 -15.6161
21 19 26 -7.2762 -7.7977
21 19 28 -6.0354 -1.1639
21 19 30 -16.9217 -11.3792
21 19 32 -7.0891 -1.7783
21 19 34 17.6364 1.8815
21 19 36 4.4808 -11.8661
21 19 38 5.5105 -1.8642
21 20 1 7.4759 15.7332
21 20 3 23.9875 34.1402
21 20 5 12.3088 27.4568
21 20 7 -13.2051 13.1496
21 20 9 -4.8233 25.4251
21 20 11 -23.9416 -35.3383
21 20 13 25.0505 9.7567
21 20 15 44.3999 22.5521
21 20 17 -4.9934 22.3555
21 20 19 1.4934 -7.4310
21 20 21 0.0388 -8.9169
21 20 23 -4.8071 -2.1336
21 20 25 -9.4173 7.6365
21 20 27 1.0296 -3.7706
21 20 29 0.5229 -2.3061
21 20 31 5.4903 8.9283
21 20 33 2.6455 3.4039
21 20 35 12.6601 13.4120
21 20 37 1.0103 3.3313
21 21 0 -0.3361 0.8093
21 21 2 -3.6829 -1.2476
21 21 4 6.4488 0.7066
21 21 6 -8.4227 -3.2153
21 21 8 15.0581 0.1529
21 21 10 18.9743 -0.8549
21 21 12 -19.8774 0.1087
21 21 14 9.7840 0.3028
21 21 16 -19.5543 0.0880
21 21 18 -14.4532 0.1849
21 21 20 28.0815 -0.0061
21 21 22 -4.0584 0.8582
21 21 24 7.0169 -0.0326
21 21 26 -3.2209 0.2518
21 21 28 7.0120 -0.0455
21 21 30 16.6675 -0.0837
21 21 32 11.8789 -0.0342
21 21 34 -16.8010 0.1095
21 21 36 -5.6418 -0.0213
22 0 0 -82.1065 -2.0188
22 0 2 -0.3006 91.0725
22 0 4 -49.0752 1.6435
22 0 6 -0.9623 81.6289
22 0 8 -30.8126 3.0272
22 0 10 -0.7071 -15.7121
22 0 12 20.6094 0.0663
22 0 14 -0.4716 16.5254
22 0 16 28.3077 0.4758
22 0 18 -0.3198 5.4210
22 0 20 -36.9786 -0.4848
22 0 22 -0.2225 2.7847
22 0 24 14.3267 -0.6824
22 0 26 -0.1448 -15.3611
22 0 28 -10.8749 0.0703
22 0 30 0.0322 1.5653
22 0 32 -0.1169 -0.0215
22 0 34 0.0685 -2.8814
22 0 36 -4.2397 -0.0100
22 0 38 -0.0155 5.9857
22 0 40 16.3396 -0.0571
22 1 1 -21.7434 -18.3518
22 1 3 38.5028 44.6652
22 1 5 -71.7267 59.0488
22 1 7 -31.6431 -6.6209
22 1 9 11.3982 6.4580
22 1 11 5.8805 2.4214
22 1 13 92.1557 -3.3869
22 1 15 -22.5449 7.3906
22 1 17 5.9644 8.9684
22 1 19 -3.2536 6.8411
22 1 21 4.0817 17.1701
22 1 23 9.1920 -0.2630
22 1 25 12.6281 -15.1681
22 1 27 -10.7598 4.3060
22 1 29 -1.3973 4.4645
22 1 31 -13.1415 -23.7990
22 1 33 0.4441 4.8860
22 1 35 -9.5571 5.6435
22 1 37 -8.3434 -13.1322
22 1 39 -1.5608 -1.5884
22 1 41 6.1512 29.3675
22 2 0 40.8928 -1.9211
22 2 2 21.0819 -8.7129
22 2 4 13.3939 -2.5839
22 2 6 -67.0961 2.1746
22 2 8 49.4963 68.8689
22 2 10 0.6571 20.2823
22 2 12 18.6606 15.5948
22 2 14 -30.1415 10.4665
22 2 16 -4.7242 2.0337
22 2 18 -26.1389 -4.4354
22 2 20 -25.8496 -17.4075
22 2 22 -15.5935 19.4343
22 2 24 -6.9101 15.4407
22 2 26 2.8618 -2.7065
22 2 28 -15.5809 6.5847
22 2 30 18.6763 0.0277
22 2 32 4.2264 3.1859
22 2 34 -13.6366 2.1988
22 2 36 -3.7297 0.9657
22 2 38 -7.2721 -17.8119
22 2 40 -11.0795 -13.4194
22 3 1 -65.7292 50.5087
22 3 3 14.8325 27.8302
22 3 5 77.6479 -16.4062
22 3 7 13.3484 19.8883
22 3 9 -108.8334 2.1621
22 3 11 26.3783 1.1867
22 3 13 -12.1516 -7.6297
22 3 15 -27.3021 -12.1817
22 3 17 -11.9779 -11.3081
22 3 19 30.0206 -15.8469
22 3 21 14.6733 -3.9672
22 3 23 -5.4813 -9.6345
22 3 25 10.4778 8.8145
22 3 27 -0.2094 3.7008
22 3 29 -3.4428 -3.0403
22 3 31 -4.2043 9.6412
22 3 33 -1.5489 -1.4873
22 3 35 -0.8395 21.4498
22 3 37 0.3005 -4.5690
22 3 39 -7.9286 16.2536
22 3 41 7.3948 -8.3884
22 4 0 15.4784 -2.7863
22 4 2 14.3638 -59.1238
22 4 4 16.4634 5.9449
22 4 6 56.6687 -20.3314
22 4 8 13.8104 -16.0121
22 4 10 6.7377 -36.3623
22 4 12 -32.2443 4.1489
22 4 14 46.6540 -13.4069
22 4 16 12.8310 2.6246
22 4 18 -8.7845 -22.5441
22 4 20 -12.9443 -15.5450
22 4 22 10.9174 -7.4916
22 4 24 -0.0870 -13.9211
22 4 26 13.4462 -2.1139
22 4 28 6.6213 0.3935
22 4 30 2.2559 0.9535
22 4 32 -18.4236 -1.5012
22 4 34 -17.2108 -2.3962
22 4 36 -3.5667 -20.3746
22 4 38 -15.2051 -10.3284
22 4 40 -4.2208 -1.5557
22 5 1 85.0936 2.5227
22 5 3 -35.7195 -43.8173
22 5 5 -72.7500 29.9474
22 5 7 -44.6372 15.2876
22 5 9 -11.9813 59.9798
22 5 11 -9.4239 1.4799
22 5 13 -26.2861 -48.4981
22 5 15 37.5144 -51.8227
22 5 17 -17.4877 -12.1593
22 5 19 9.1387 -18.6240
22 5 21 -7.2006 13.6341
22 5 23 23.8820 -1.1969
22 5 25 12.7295 -18.9105
22 5 27 -1.6382 -3.5759
22 5 29 -12.5880 -3.2611
22 5 31 7.4682 -3.2622
22 5 33 -0.8548 1.2781
22 5 35 8.0332 2.6303
22 5 37 3.6467 -20.6454
22 5 39 -16.5714 11.2318
22 5 41 10.2220 8.2187
22 6 0 6.8656 -4.6348
22 6 2 -52.2978 -41.4998
22 6 4 -2.4682 -5.8597
22 6 6 53.5588 37.0754
22 6 8 35.7745 12.3895
22 6 10 -29.9396 -6.5099
22 6 12 1.2273 -2.0528
22 6 14 56.0489 76.5645
22 6 16 23.0519 26.4647
22 6 18 27.0197 0.1239
22 6 20 1.6321 -11.7097
22 6 22 -4.2831 0.1699
22 6 24 -11.3877 6.5436
22 6 26 11.9190 -2.4723
22 6 28 -5.7559 -5.2537
22 6 30 3.4819 -4.2140
22 6 32 7.5208 7.1364
22 6 34 13.1338 -8.2055
22 6 36 -15.1287 -5.2320
22 6 38 0.1523 10.0595
22 6 40 9.2201 14.8467
22 7 1 68.8440 -36.4833
22 7 3 7.1677 -3.4083
22 7 5 -102.0796 -46.3687
22 7 7 11.6652 20.6258
22 7 9 24.2888 15.5190
22 7 11 25.0576 0.7829
22 7 13 54.3239 -0.6622
22 7 15 -16.2877 17.7954
22 7 17 -1.9278 10.1619
22 7 19 -8.2926 -5.4348
22 7 21 -0.4435 10.0607
22 7 23 10.5798 18.1159
22 7 25 4.5121 14.0474
22 7 27 0.1773 -5.3408
22 7 29 3.0537 0.5483
22 7 31 12.7810 -10.6120
22 7 33 -5.4863 0.5917
22 7 35 11.3611 -9.0681
22 7 37 5.3029 1.1273
22 7 39 -1.1424 1.8838
22 7 41 1.6128 -0.2281
22 8 0 7.7966 -5.2529
22 8 2 15.9329 15.3239
22 8 4 4.5337 32.3310
22 8 6 -41.5776 -23.1336
22 8 8 109.4357 -22.5282
22 8 10 -30.8169 31.3267
22 8 12 3.5304 -15.3079
22 8 14 -26.8096 8.6664
22 8 16 14.5401 -28.6146
22 8 18 19.2474 -18.4110
22 8 20 -13.7085 -2.3868
22 8 22 0.9382 10.0702
22 8 24 1.9779 -4.5632
22 8 26 7.0379 -13.1115
22 8 28 -9.7780 10.9061
22 8 30 -13.3035 -3.6608
22 8 32 -7.9204 -0.5891
22 8 34 17.0497 16.6465
22 8 36 20.7001 -4.7843
22 8 38 0.6063 -2.6081
22 8 40 -1.6598 -2.1036
22 9 1 46.5447 37.5660
22 9 3 21.8845 41.6797
22 9 5 23.4454 0.6687
22 9 7 -25.2673 -15.8736
22 9 9 -2.6837 -16.3494
22 9 11 -36.8540 7.9220
22 9 13 23.2195 17.1667
22 9 15 -11.7776 23.5945
22 9 17 19.3064 4.8735
22 9 19 -21.9192 7.6759
22 9 21 12.9073 7.5038
22 9 23 12.9316 6.4225
22 9 25 -0.3057 3.4076
22 9 27 -2.2648 9.1562
22 9 29 5.7895 -13.0628
22 9 31 1.7997 11.7009
22 9 33 12.2325 2.1901
22 9 35 9.6305 13.6808
22 9 37 0.1925 1.5677
22 9 39 -8.7631 -8.9858
22 10 0 -16.9558 -4.8757
22 10 2 83.4290 -48.8484
22 10 4 -18.2541 -21.6016
22 10 6 -45.9229 40.0862
22 10 8 85.7034 -6.4740
22 10 10 42.9329 -5.4778
22 10 12 12.5245 2.0454
22 10 14 -13.1989 -16.2907
22 10 16 -26.6863 -26.7725
22 10 18 -27.5867 3.7661
22 10 20 -19.3567 18.7435
22 10 22 -17.5385 16.0883
22 10 24 9.8643 -0.5782
22 10 26 -2.9409 -5.2237
22 10 28 16.3089 -3.0960
22 10 30 4.7525 -14.7758
22 10 32 8.2636 3.9246
22 10 34 1.0525 10.6128
22 10 36 0.0634 0.7796
22 10 38 -18.3140 17.7011
22 10 40 -2.1146 -0.5390
22 11 1 73.8577 22.1293
22 11 3 16.0515 -10.1101
22 11 5 -85.2621 52.9462
22 11 7 -36.3335 -31.4678
22 11 9 -31.7301 30.8004
22 11 11 3.7422 19.4887
22 11 13 -68.6674 -55.1322
22 11 15 32.4834 -24.6783
22 11 17 -3.8444 -11.3626
22 11 19 -17.0202 -4.1433
22 11 21 -0.4035 -0.9161
22 11 23 9.6337 7.6924
22 11 25 -2.9577 8.1227
22 11 27 -4.3280 -9.3160
22 11 29 16.1711 -0.2205
22 11 31 4.4370 -2.9159
22 11 33 -2.3564 22.8537
22 11 35 -13.1607 2.9274
22 11 37 -0.3335 -17.6975
22 11 39 4.7930 24.2857
22 12 0 27.2723 -3.4150
22 12 2 86.9507 -32.8071
22 12 4 32.2180 -39.0742
22 12 6 49.8525 -33.9595
22 12 8 -34.5532 8.9353
22 12 10 2.5056 27.7990
22 12 12 5.9340 2.5489
22 12 14 -39.8907 -15.0828
22 12 16 -11.0870 4.4732
22 12 18 32.9868 5.1352
22 12 20 9.4594 1.9133
22 12 22 -0.9939 13.1941
22 12 24 -2.6200 -5.9496
22 12 26 -2.8710 2.1694
22 12 28 -5.9265 -1.7145
22 12 30 1.8687 -6.4325
22 12 32 5.3502 13.7094
22 12 34 -3.7556 -3.2791
22 12 36 -6.5067 0.7229
22 12 38 -23.1691 2.9399
22 12 40 18.8264 14.2216
22 13 1 99.8489 -48.2854
22 13 3 32.8831 -44.7400
22 13 5 66.2187 70.3086
22 13 7 -131.9497 32.7297
22 13 9 47.3918 2.5765
22 13 11 34.9188 -16.2445
22 13 13 -18.2832 -29.3596
22 13 15 4.0764 22.0422
22 13 17 31.9744 11.2861
22 13 19 6.7313 -2.0261
22 13 21 16.3504 1.9968
22 13 23 0.5336 -14.8239
22 13 25 2.3174 -13.1288
22 13 27 9.8537 -2.1204
22 13 29 -2.8995 -6.2250
22 13 31 -12.6313 -1.1813
22 13 33 3.9330 -13.0141
22 13 35 14.8165 18.7566
22 13 37 10.7221 7.0731
22 13 39 13.6117 8.8496
22 14 0 63.0354 -1.6866
22 14 2 -67.9767 24.2208
22 14 4 37.0884 11.4034
22 14 6 47.8585 -68.1830
22 14 8 -45.3964 3.4929
22 14 10 25.9676 17.8230
22 14 12 -47.1765 7.3468
22 14 14 -44.5945 -9.1423
22 14 16 25.7235 16.7733
22 14 18 -10.6221 10.7130
22 14 20 0.1596 -6.3353
22 14 22 -15.4549 -11.0290
22 14 24 -8.8630 -2.6253
22 14 26 0.4934 -1.6913
22 14 28 -9.3048 -11.2120
22 14 30 8.4597 -3.2151
22 14 32 -12.7963 -3.6129
22 14 34 -16.3556 -14.8182
22 14 36 6.9284 -14.7045
22 14 38 7.9418 6.2554
22 15 1 43.2248 1.3286
22 15 3 55.2124 147.9218
22 15 5 23.2593 -105.3619
22 15 7 -31.7083 -4.6305
22 15 9 12.3565 2.5505
22 15 11 -8.0375 -24.8197
22 15 13 -4.6424 26.2041
22 15 15 24.2573 -18.0080
22 15 17 -18.2378 -6.9664
22 15 19 0.8170 3.6277
22 15 21 6.0495 5.4805
22 15 23 6.4465 -19.8129
22 15 25 5.9374 -1.3559
22 15 27 -6.5564 1.5588
22 15 29 6.0311 3.6597
22 15 31 2.4507 9.3482
22 15 33 -15.0507 5.6229
22 15 35 -12.3232 -12.5197
22 15 37 -0.7491 -12.9411
22 15 39 11.9100 22.0913
22 16 0 -15.7234 0.0097
22 16 2 -11.7556 32.9533
22 16 4 4.9563 5.2731
22 16 6 24.6319 22.4408
22 16 8 1.4263 17.8159
22 16 10 45.6680 -35.4040
22 16 12 -2.3285 1.9410
22 16 14 -2.1533 9.9467
22 16 16 -17.3624 3.8197
22 16 18 22.1237 -44.2962
22 16 20 1.0650 1.6385
22 16 22 16.2703 17.8164
22 16 24 -8.0734 5.9720
22 16 26 -13.0944 2.5167
22 16 28 -5.0594 13.1864
22 16 30 0.3284 -2.2958
22 16 32 2.4212 -0.0170
22 16 34 -2.6669 0.3969
22 16 36 0.0407 19.8873
22 16 38 0.7474 15.4505
22 17 1 14.6258 -61.4414
22 17 3 11.2580 -15.8914
22 17 5 -39.4032 162.4061
22 17 7 -47.7896 11.2754
22 17 9 6.2423 6.1152
22 17 11 -1.3229 -9.2246
22 17 13 16.0935 -8.8140
22 17 15 26.1197 1.8270
22 17 17 -9.5383 -13.4325
22 17 19 -6.7239 3.3444
22 17 21 -12.8930 13.1052
22 17 23 3.3129 5.0165
22 17 25 7.0613 -1.9769
22 17 27 8.3713 -10.2988
22 17 29 -2.2587 -17.2115
22 17 31 -10.0711 3.3602
22 17 33 -18.2910 12.6131
22 17 35 1.3089 -3.1116
22 17 37 -4.7103 -12.8693
22 18 0 -13.6132 0.8708
22 18 2 -16.9596 -66.5964
22 18 4 -5.7515 30.9939
22 18 6 -2.7738 9.2842
22 18 8 -7.5542 -19.8999
22 18 10 26.6018 -6.2184
22 18 12 -5.4885 6.2907
22 18 14 9.4585 18.1248
22 18 16 -6.4558 -37.6162
22 18 18 10.5572 -1.8972
22 18 20 -20.9297 25.2778
22 18 22 -3.5097 -37.2162
22 18 24 -9.0562 -38.0836
22 18 26 18.8136 16.7184
22 18 28 1.1450 6.1488
22 18 30 0.3431 9.0799
22 18 32 -1.5040 -18.2455
22 18 34 -0.5639 2.6690
22 18 36 24.6778 3.7132
22 18 38 -9.8046 21.3184
22 19 1 -46.2031 25.7680
22 19 3 28.9949 -5.6556
22 19 5 4.8395 23.7249
22 19 7 -47.7148 13.7905
22 19 9 27.9920 58.1948
22 19 11 -13.9281 -6.3764
22 19 13 -17.5065 -15.3641
22 19 15 -10.5754 21.5556
22 19 17 13.5740 -5.0017
22 19 19 7.3756 -2.0437
22 19 21 5.9282 4.4433
22 19 23 -0.3719 -5.1589
22 19 25 -6.8339 -4.6223
22 19 27 1.4107 3.3985
22 19 29 -0.9937 -5.2924
22 19 31 0.0208 -1.0180
22 19 33 5.0312 -2.8566
22 19 35 5.5885 -2.8885
22 19 37 3.0066 -15.7689
22 20 0 14.7659 0.8107
22 20 2 -44.3342 -54.5512
22 20 4 -13.2459 2.2160
22 20 6 -14.4796 -6.2399
22 20 8 4.2603 -8.3470
22 20 10 2.4731 11.5889
22 20 12 24.4644 -4.7958
22 20 14 23.8648 9.3578
22 20 16 -5.4239 11.7435
22 20 18 -16.1408 -3.1579
22 20 20 11.6343 -2.4880
22 20 22 -11.1042 -8.1417
22 20 24 12.1185 -16.7779
22 20 26 15.3323 -2.2583
22 20 28 -0.4608 -0.7382
22 20 30 4.2420 -1.6913
22 20 32 6.0543 -11.8201
22 20 34 -6.4944 -3.6932
22 20 36 -4.3130 4.0476
22 21 1 5.6392 9.1065
22 21 3 -0.7719 -13.9421
22 21 5 -4.7733 -28.4319
22 21 7 -14.7229 -21.5108
22 21 9 -6.0029 -9.2140
22 21 11 -13.0921 -9.0848
22 21 13 -5.3944 -30.7948
22 21 15 21.0371 24.8029
22 21 17 18.5597 9.9532
22 21 19 -7.9397 -0.5304
22 21 21 -3.8955 5.3023
22 21 23 7.6028 -16.2956
22 21 25 8.0891 -1.5743
22 21 27 1.4673 1.1814
22 21 29 0.8111 -2.0444
22 21 31 -3.3647 -1.9606
22 21 33 2.5354 20.5883
22 21 35 4.6846 13.5375
22 21 37 15.6013 9.3899
22 22 0 -26.5966 -0.0003
22 22 2 41.0972 -0.2552
22 22 4 -47.8841 1.8328
22 22 6 13.7017 -0.3686
22 22 8 3.3508 1.6181
22 22 10 -5.2134 0.0566
22 22 12 -17.0779 -0.1963
22 22 14 -18.5028 -0.1011
22 22 16 -13.3244 0.0022
22 22 18 25.4536 -0.0561
22 22 20 -3.8666 -0.4387
22 22 22 -12.8795 0.0197
22 22 24 14.2378 -0.3466
22 22 26 10.2095 0.0386
22 22 28 4.8265 0.0125
22 22 30 -4.6439 0.0627
22 22 32 -0.9584 0.0293
22 22 34 -7.0411 0.0364
22 22 36 22.8819 -0.0751
23 0 1 -41.2247 -41.8547
23 0 3 -7.4680 6.1178
23 0 5 2.8501 -0.0342
23 0 7 -42.1354 45.1113
23 0 9 4.3991 -0.4099
23 0 11 -16.5769 17.5887
23 0 13 5.2950 4.9402
23 0 15 0.2444 -1.1698
23 0 17 6.3973 6.4678
23 0 19 -2.1403 3.2469
23 0 21 1.5290 0.5814
23 0 23 -6.6126 7.2742
23 0 25 -2.6028 -2.9031
23 0 27 -10.6744 10.8006
23 0 29 -1.2790 -1.2121
23 0 31 -8.1368 8.0913
23 0 33 10.4404 10.3694
23 0 35 2.2626 -2.2368
23 0 37 -2.0010 -1.9296
23 0 39 -0.4190 0.4074
23 0 41 -25.5503 -25.5773
23 1 0 66.6369 -0.0396
23 1 2 -3.6177 -83.8976
23 1 4 24.3940 91.0142
23 1 6 39.0443 1.2699
23 1 8 61.5603 -33.3809
23 1 10 -0.4007 -69.5002
23 1 12 12.8983 -26.8717
23 1 14 -11.5572 15.8389
23 1 16 -5.4375 -9.4687
23 1 18 0.5139 13.9076
23 1 20 13.3619 -5.9663
23 1 22 -2.0638 -20.8917
23 1 24 3.5804 -2.8531
23 1 26 25.7219 11.9341
23 1 28 -12.3079 -10.7274
23 1 30 4.3588 2.5155
23 1 32 16.9158 2.8628
23 1 34 -31.2185 -7.9146
23 1 36 -0.9437 2.7607
23 1 38 -7.7879 12.2585
23 1 40 -0.6887 -21.0423
23 2 1 -44.0981 -56.4329
23 2 3 -40.6656 -12.6332
23 2 5 -31.2999 -12.9521
23 2 7 140.9186 42.0536
23 2 9 33.1746 -36.2146
23 2 11 -15.2961 -40.6931
23 2 13 -1.1653 -21.3911
23 2 15 -32.4875 -16.6974
23 2 17 1.2030 -11.8225
23 2 19 11.4547 2.5467
23 2 21 3.9389 -30.9272
23 2 23 -12.5645 13.5579
23 2 25 12.6959 13.0070
23 2 27 -1.9542 -0.7481
23 2 29 -0.8524 5.3848
23 2 31 1.0168 5.7031
23 2 33 2.7765 1.4437
23 2 35 23.3260 4.5339
23 2 37 -18.9779 3.1937
23 2 39 -2.4551 3.6301
23 2 41 -0.3495 -0.5684
23 3 0 15.2584 0.1337
23 3 2 -17.6701 14.5027
23 3 4 -32.6527 51.2292
23 3 6 0.1280 -89.6862
23 3 8 84.0364 28.6309
23 3 10 -54.5726 3.8348
23 3 12 67.2044 -18.6616
23 3 14 -8.0905 -9.3424
23 3 16 4.3130 2.5367
23 3 18 6.3947 0.7918
23 3 20 0.5620 0.9497
23 3 22 -12.5852 -8.9597
23 3 24 7.0148 -9.5790
23 3 26 -8.7949 -2.1413
23 3 28 -2.6984 16.4142
23 3 30 11.0794 8.1929
23 3 32 -6.5268 -13.3580
23 3 34 1.2563 -1.9431
23 3 36 -0.2190 12.3462
23 3 38 -19.6838 -11.3585
23 3 40 11.5093 -3.8682
23 4 1 5.1419 2.4348
23 4 3 -92.6198 -15.8651
23 4 5 34.7262 -7.2558
23 4 7 -4.6420 81.2342
23 4 9 -36.5891 1.7788
23 4 11 41.4131 -23.4143
23 4 13 -12.6489 11.2017
23 4 15 4.6609 -7.1588
23 4 17 0.4685 -9.2999
23 4 19 -9.4958 0.3421
23 4 21 -0.6697 -27.6681
23 4 23 -21.6222 4.5097
23 4 25 16.2504 6.3509
23 4 27 -0.3010 -5.3274
23 4 29 -6.0157 2.5232
23 4 31 -0.6780 -2.8988
23 4 33 8.5298 5.0681
23 4 35 -2.4783 -2.5191
23 4 37 -16.7509 10.5517
23 4 39 -3.7258 1.3813
23 5 0 38.5084 0.3286
23 5 2 -42.5244 -49.3359
23 5 4 0.0179 -106.5354
23 5 6 60.4803 36.6262
23 5 8 23.6650 36.9684
23 5 10 1.0753 -14.8314
23 5 12 78.6431 -0.7131
23 5 14 -9.2248 -1.8299
23 5 16 0.5807 26.9090
23 5 18 -10.5773 9.6855
23 5 20 21.6255 -23.6351
23 5 22 -13.7494 -2.0959
23 5 24 -6.7770 15.1254
23 5 26 -3.2979 7.8578
23 5 28 0.5927 -6.9669
23 5 30 5.7899 10.8826
23 5 32 -10.4512 15.0851
23 5 34 -7.6177 4.5131
23 5 36 -3.5954 0.0819
23 5 38 13.6664 0.8163
23 5 40 -4.8747 3.0910
23 6 1 9.8587 10.3186
23 6 3 88.0422 -44.5785
23 6 5 15.8417 67.9842
23 6 7 12.6118 103.4639
23 6 9 -60.8007 11.6874
23 6 11 9.8128 18.5584
23 6 13 65.9754 -16.9606
23 6 15 13.8365 5.4005
23 6 17 6.3004 17.7769
23 6 19 -2.8016 -11.4535
23 6 21 -10.9744 15.6497
23 6 23 10.4013 4.9362
23 6 25 3.1969 -3.2903
23 6 27 -6.3557 -1.3324
23 6 29 0.0392 -15.2838
23 6 31 4.2159 -6.7804
23 6 33 -4.7473 -0.2883
23 6 35 -0.2327 -1.9534
23 6 37 16.9783 3.9271
23 6 39 -1.5984 -0.5716
23 7 0 -8.5336 0.1388
23 7 2 8.0999 -78.9580
23 7 4 1.6878 -12.9038
23 7 6 35.2545 -16.1944
23 7 8 -62.0231 6.6177
23 7 10 -15.2738 -5.4894
23 7 12 22.6756 24.0801
23 7 14 -19.1747 -3.4256
23 7 16 -23.5585 30.0464
23 7 18 -0.3265 13.7659
23 7 20 3.6378 -27.0411
23 7 22 2.8336 -11.1627
23 7 24 -5.7037 3.3622
23 7 26 5.3187 -3.5681
23 7 28 12.5567 13.3287
23 7 30 -2.9982 14.5656
23 7 32 -13.2899 -4.2581
23 7 34 -4.1657 10.1766
23 7 36 -8.5785 -16.0485
23 7 38 -19.8012 7.0262
23 7 40 19.9392 -14.5869
23 8 1 -1.9022 -24.3487
23 8 3 23.1949 -8.4731
23 8 5 -19.1261 -1.2384
23 8 7 25.4718 -5.4071
23 8 9 -48.5700 -4.6464
23 8 11 -17.0802 -27.4863
23 8 13 -0.3139 -13.9526
23 8 15 5.8839 -3.9881
23 8 17 -7.6835 1.7710
23 8 19 -10.8008 -5.9548
23 8 21 -10.0170 -22.4174
23 8 23 -11.5644 24.3800
23 8 25 1.3051 3.1732
23 8 27 2.5986 -2.2884
23 8 29 -7.8999 -16.2537
23 8 31 -5.9639 -0.4679
23 8 33 -4.8026 1.3617
23 8 35 -2.9716 0.6707
23 8 37 -7.3403 18.3088
23 8 39 3.4243 8.6719
23 9 0 111.5741 -0.0697
23 9 2 55.1436 -36.1218
23 9 4 -34.7654 25.4988
23 9 6 -11.9311 -9.1073
23 9 8 76.6161 33.9119
23 9 10 -20.8468 31.1267
23 9 12 -1.0985 24.1458
23 9 14 -2.1985 -16.9489
23 9 16 -15.0643 32.6982
23 9 18 25.9723 -5.4963
23 9 20 -16.4426 -22.9935
23 9 22 -0.4141 -9.4687
23 9 24 5.9904 -10.8412
23 9 26 6.6551 5.1686
23 9 28 -2.5611 -5.6684
23 9 30 -16.8535 -4.3061
23 9 32 0.8073 2.4700
23 9 34 -0.6446 -4.8544
23 9 36 1.5839 10.1467
23 9 38 3.0154 1.4823
23 9 40 -19.5246 -6.7835
23 10 1 -26.9215 -25.9342
23 10 3 -5.5493 1.9883
23 10 5 1.2223 35.9155
23 10 7 92.4696 -46.6316
23 10 9 6.6937 -0.9281
23 10 11 -38.4089 -39.1753
23 10 13 -15.4030 15.1125
23 10 15 -10.0266 1.1250
23 10 17 -21.2808 13.2816
23 10 19 -7.6842 -2.5417
23 10 21 8.1251 -0.2032
23 10 23 -7.2608 -2.5841
23 10 25 4.5219 12.4849
23 10 27 15.9992 0.1961
23 10 29 5.2986 -12.3078
23 10 31 11.8906 -6.9838
23 10 33 13.6136 0.0249
23 10 35 -1.2494 -4.1225
23 10 37 -8.7768 -24.4529
23 10 39 -2.4201 -1.6359
23 11 0 129.2927 -0.0640
23 11 2 15.5192 -52.3955
23 11 4 -32.4257 72.4032
23 11 6 38.6484 -17.3901
23 11 8 -14.5468 -8.1917
23 11 10 -8.3718 -1.3857
23 11 12 18.1748 33.4214
23 11 14 -45.8330 16.8690
23 11 16 -29.6520 -20.8428
23 11 18 13.3913 -14.1206
23 11 20 24.3776 6.8738
23 11 22 0.4118 -5.0156
23 11 24 -11.7358 -4.0818
23 11 26 -1.2924 10.0855
23 11 28 6.4317 -2.3729
23 11 30 6.9800 1.1054
23 11 32 -4.0896 -0.6588
23 11 34 -0.5948 -9.7043
23 11 36 -1.1894 -2.4633
23 11 38 -11.7816 16.5796
23 12 1 -40.4147 -63.3336
23 12 3 130.3450 -22.6639
23 12 5 -18.9190 7.8912
23 12 7 -61.6716 -1.0434
23 12 9 27.1362 2.4840
23 12 11 16.6120 -15.5854
23 12 13 6.6846 22.8012
23 12 15 27.5528 22.6472
23 12 17 14.2317 -11.3316
23 12 19 -21.3208 -13.3348
23 12 21 -10.3385 -18.7808
23 12 23 4.0357 0.5117
23 12 25 -2.7641 10.7794
23 12 27 3.6826 4.6583
23 12 29 -5.7356 2.8195
23 12 31 -4.9958 -5.6767
23 12 33 -14.6341 -20.6205
23 12 35 -2.5721 -3.2704
23 12 37 0.9067 3.7988
23 12 39 15.8041 -0.0359
23 13 0 52.6692 -0.0548
23 13 2 -2.5348 -63.0682
23 13 4 -62.1868 -58.7481
23 13 6 64.8920 115.4466
23 13 8 -63.3431 25.5016
23 13 10 -6.7951 -9.6363
23 13 12 7.2434 -17.6108
23 13 14 -9.4826 12.5817
23 13 16 26.5157 -11.5067
23 13 18 -21.9253 -5.0271
23 13 20 -15.4173 -10.5746
23 13 22 -6.1261 7.4522
23 13 24 -14.0424 11.5750
23 13 26 -12.8760 9.2533
23 13 28 -5.2864 -2.2142
23 13 30 -13.8906 0.0789
23 13 32 -0.6855 -2.2212
23 13 34 11.3515 10.8375
23 13 36 -6.1788 14.0334
23 13 38 11.3180 2.6019
23 14 1 -11.5139 -60.4052
23 14 3 -80.2320 -22.5046
23 14 5 31.8333 25.2356
23 14 7 138.2647 79.0310
23 14 9 20.4574 9.5719
23 14 11 -45.9065 7.0931
23 14 13 -18.2688 7.3404
23 14 15 10.6066 11.4183
23 14 17 12.3014 -6.0166
23 14 19 -7.0739 15.5661
23 14 21 14.0648 4.9505
23 14 23 -0.8728 12.2505
23 14 25 -3.8549 7.9573
23 14 27 2.3970 9.1120
23 14 29 -3.4089 2.9976
23 14 31 -4.3566 1.6457
23 14 33 11.3175 -12.2976
23 14 35 7.2550 1.4660
23 14 37 4.8318 17.9976
23 14 39 3.9463 -17.0407
23 15 0 19.9261 0.1570
23 15 2 23.0683 13.4305
23 15 4 -26.1276 28.4157
23 15 6 11.0187 30.6004
23 15 8 34.5237 -9.6340
23 15 10 2.5257 -10.5066
23 15 12 38.6344 3.6197
23 15 14 -9.4642 4.7901
23 15 16 -2.9866 -0.0633
23 15 18 5.6805 6.7775
23 15 20 -4.8471 -10.9667
23 15 22 -0.2792 -1.8808
23 15 24 14.9726 18.7715
23 15 26 3.0747 4.3858
23 15 28 5.3208 -5.4908
23 15 30 2.1173 -0.4513
23 15 32 5.6364 -8.0370
23 15 34 -0.6989 -4.0357
23 15 36 -17.8804 0.1773
23 15 38 -19.4800 -13.1526
23 16 1 11.2042 18.3049
23 16 3 29.5406 -58.4745
23 16 5 -27.3089 -6.3158
23 16 7 -35.5500 -0.6663
23 16 9 -8.8242 13.9574
23 16 11 16.7922 14.0615
23 16 13 3.4419 9.9354
23 16 15 11.8305 -10.1161
23 16 17 -6.9139 -7.2844
23 16 19 0.8932 -6.4843
23 16 21 -0.9061 12.1913
23 16 23 -7.4103 -1.5111
23 16 25 1.9629 4.3836
23 16 27 12.4847 7.9916
23 16 29 4.3340 -9.8085
23 16 31 -2.2999 -4.1092
23 16 33 -0.5882 15.2042
23 16 35 14.0367 9.4480
23 16 37 -24.1035 4.2698
23 17 0 41.2708 0.4207
23 17 2 -18.4893 -17.3117
23 17 4 6.0308 40.9404
23 17 6 12.2553 -7.9939
23 17 8 -16.2178 -2.3824
23 17 10 17.4817 14.4710
23 17 12 -33.2843 -16.8757
23 17 14 -46.0014 5.5621
23 17 16 -7.1142 -8.5716
23 17 18 27.6238 -1.1065
23 17 20 5.4548 -8.4357
23 17 22 2.8822 -13.8168
23 17 24 -20.7120 -11.8513
23 17 26 -2.3062 -0.3338
23 17 28 16.6938 7.2106
23 17 30 -8.5930 7.0578
23 17 32 -1.6209 0.0120
23 17 34 11.1637 12.4517
23 17 36 14.4745 -12.3704
23 17 38 3.8135 -16.7106
23 18 1 -12.5503 -74.1951
23 18 3 -3.1552 26.0617
23 18 5 -61.1859 -51.8051
23 18 7 15.3256 14.3300
23 18 9 19.7061 2.8619
23 18 11 -2.4153 -48.1268
23 18 13 -4.0154 4.5900
23 18 15 -6.6219 11.1353
23 18 17 -2.3714 4.1929
23 18 19 -4.6527 -3.5622
23 18 21 -4.1760 6.1747
23 18 23 -2.8819 -6.1361
23 18 25 9.2807 0.7069
23 18 27 0.1926 14.6859
23 18 29 -3.0274 -1.2665
23 18 31 13.7356 -5.7660
23 18 33 -4.5841 10.7468
23 18 35 4.2846 -16.0797
23 18 37 12.2626 -10.3128
23 19 0 -11.6246 0.4915
23 19 2 -29.7878 53.7911
23 19 4 37.6052 39.4931
23 19 6 -4.8231 -15.7154
23 19 8 22.0262 -20.0225
23 19 10 -1.9307 24.7486
23 19 12 22.0690 14.8905
23 19 14 1.1113 -3.1793
23 19 16 17.6742 7.6227
23 19 18 21.5126 2.4020
23 19 20 -9.4403 -16.1835
23 19 22 4.1881 -9.6639
23 19 24 -21.0589 -21.9020
23 19 26 -10.5036 -1.5565
23 19 28 -6.4661 4.2319
23 19 30 -3.2387 -0.1368
23 19 32 15.3832 -3.8126
23 19 34 4.4658 -3.2949
23 19 36 4.8067 29.6627
23 20 1 1.6884 6.9894
23 20 3 18.6502 -11.3331
23 20 5 8.3572 13.2400
23 20 7 -22.8198 5.9463
23 20 9 24.0705 -5.1316
23 20 11 12.2644 -0.8750
23 20 13 -26.9636 6.7325
23 20 15 10.1920 -10.7558
23 20 17 4.8790 13.8555
23 20 19 -4.7862 -3.1529
23 20 21 -9.9443 -1.6697
23 20 23 -1.8550 5.5680
23 20 25 -1.9776 -2.9135
23 20 27 0.3091 -2.7075
23 20 29 -12.5288 -13.7730
23 20 31 0.3202 1.6996
23 20 33 9.7171 -15.4087
23 20 35 2.6649 3.6781
23 20 37 -3.7176 0.4035
23 21 0 -9.4501 0.4417
23 21 2 -1.3459 71.7593
23 21 4 5.4367 43.8407
23 21 6 22.0579 -26.7643
23 21 8 17.2908 21.9674
23 21 10 -3.3778 19.9308
23 21 12 10.4408 19.2279
23 21 14 -4.4935 7.0024
23 21 16 8.9641 -19.6757
23 21 18 -14.9049 -5.8479
23 21 20 -0.9528 -11.2542
23 21 22 2.2334 18.5213
23 21 24 3.7044 7.0770
23 21 26 5.7539 -2.7462
23 21 28 -1.7853 2.8327
23 21 30 -5.7926 -3.7188
23 21 32 -16.3880 6.4308
23 21 34 20.9938 3.3419
23 21 36 -13.6502 -4.3900
23 22 1 19.6791 -5.5348
23 22 3 24.1314 -3.6086
23 22 5 18.5918 9.1564
23 22 7 17.2214 13.8058
23 22 9 -31.1159 1.7707
23 22 11 4.7235 6.6524
23 22 13 -15.5203 -5.2105
23 22 15 7.2748 5.7055
23 22 17 -0.8722 -1.4458
23 22 19 1.7635 -13.7862
23 22 21 3.0989 -2.7693
23 22 23 -1.2542 -2.7207
23 22 25 -2.1595 -8.2586
23 22 27 -7.3686 22.6880
23 22 29 3.1133 -9.8601
23 22 31 -11.1749 10.6712
23 22 33 8.2874 -0.9108
23 22 35 19.1120 -6.0271
23 23 0 51.2018 0.3781
23 23 2 -22.2968 0.1869
23 23 4 35.0806 0.3049
23 23 6 -2.2157 -1.3915
23 23 8 25.3446 -0.1194
23 23 10 23.1785 -0.2593
23 23 12 -29.4977 -0.0141
23 23 14 14.7978 0.2710
23 23 16 -18.5532 -0.0090
23 23 18 6.8020 -0.1175
23 23 20 -2.9355 0.1188
23 23 22 -10.8910 0.3312
23 23 24 1.4747 -0.0146
23 23 26 23.0012 0.0176
23 23 28 -4.5311 -0.0665
23 23 30 -1.0021 -0.1352
23 23 32 14.6065 -0.0291
23 23 34 1.7381 0.0851
24 0 0 5.6315 -0.3679
24 0 2 -0.5942 -55.8449
24 0 4 -75.7126 3.7265
24 0 6 -1.1048 23.1992
24 0 8 5.3099 3.9396
24 0 10 -0.6968 82.2527
24 0 12 42.8475 0.4798
24 0 14 -0.4523 55.9469
24 0 16 1.4401 0.3206
24 0 18 -0.3391 15.4405
24 0 20 30.5277 -0.6892
24 0 22 -0.2641 5.9538
24 0 24 -6.3350 -0.8098
24 0 26 -0.1872 -4.0085
24 0 28 4.8346 -0.0837
24 0 30 -0.0040 -15.5933
24 0 32 10.6534 -0.0188
24 0 34 0.0203 19.5995
24 0 36 -7.0174 -0.0465
24 0 38 -0.0067 13.2896
24 0 40 -1.8605 -0.0809
24 1 1 68.5979 -22.7116
24 1 3 57.0587 12.1168
24 1 5 -47.8893 -44.5717
24 1 7 89.9129 -42.7507
24 1 9 67.8227 56.2336
24 1 11 -25.5797 13.3972
24 1 13 -22.0773 39.0312
24 1 15 -4.6885 3.1016
24 1 17 21.8268 24.4606
24 1 19 13.9510 11.2858
24 1 21 13.0191 10.1248
24 1 23 -6.6558 -0.1981
24 1 25 -3.1685 -0.0208
24 1 27 -10.4667 -0.0827
24 1 29 3.4976 4.1560
24 1 31 -3.8238 12.6772
24 1 33 14.5103 14.8757
24 1 35 -2.8129 13.3206
24 1 37 10.9876 7.7213
24 1 39 -2.8702 -1.6964
24 2 0 -52.0950 0.2332
24 2 2 -56.6416 8.3616
24 2 4 -21.3376 6.0494
24 2 6 61.1666 -31.6445
24 2 8 -14.9489 -7.2520
24 2 10 -30.9146 -17.2421
24 2 12 11.4902 16.9226
24 2 14 -9.9348 9.1129
24 2 16 -6.9386 0.7663
24 2 18 22.6777 12.0650
24 2 20 18.1810 18.0827
24 2 22 0.7827 0.0105
24 2 24 6.4078 0.8443
24 2 26 4.2503 9.7906
24 2 28 -1.3840 -5.2264
24 2 30 11.9595 -7.6758
24 2 32 -5.7635 10.2910
24 2 34 2.2483 -2.2999
24 2 36 -15.2775 -6.2418
24 2 38 4.0021 -4.3438
24 2 40 -5.1664 14.3666
24 3 1 -0.5403 35.5856
24 3 3 -134.2498 -51.9808
24 3 5 35.2647 -52.9655
24 3 7 7.6632 11.4988
24 3 9 7.6300 -60.3497
24 3 11 -20.6820 52.6643
24 3 13 -11.5487 23.8014
24 3 15 17.9137 22.1869
24 3 17 -1.2043 13.1916
24 3 19 11.1990 20.2871
24 3 21 5.2072 -12.1297
24 3 23 -15.5209 -4.8270
24 3 25 -5.0560 8.4615
24 3 27 -2.6446 -10.7849
24 3 29 -9.9984 8.2167
24 3 31 2.8339 17.5578
24 3 33 18.5057 1.3274
24 3 35 20.8940 -15.1181
24 3 37 -17.3822 14.8496
24 3 39 -12.0536 -10.6557
24 4 0 44.9004 -0.9546
24 4 2 -2.5125 48.8215
24 4 4 54.5706 26.7387
24 4 6 79.9210 71.7464
24 4 8 -30.5106 -0.4806
24 4 10 -81.3973 9.5753
24 4 12 -32.8935 -7.8961
24 4 14 59.4428 27.1645
24 4 16 5.1059 -13.6019
24 4 18 39.5383 9.3745
24 4 20 -13.3217 -10.9328
24 4 22 9.3422 -3.8662
24 4 24 -1.4959 17.3366
24 4 26 1.9925 -0.1216
24 4 28 4.2236 3.5469
24 4 30 2.9724 0.4704
24 4 32 7.0475 -4.9544
24 4 34 -20.6311 -12.0613
24 4 36 -1.7455 2.1418
24 4 38 -18.8005 -5.8323
24 4 40 1.5340 1.5363
24 5 1 -83.2942 35.8181
24 5 3 -4.4964 -56.3995
24 5 5 19.2304 55.9934
24 5 7 -52.8660 9.4304
24 5 9 -8.1636 72.4286
24 5 11 -13.5594 7.4972
24 5 13 -7.3167 -11.0728
24 5 15 -18.2451 -3.7318
24 5 17 -7.6658 5.9423
24 5 19 23.7676 25.4598
24 5 21 28.2976 9.4066
24 5 23 1.1208 -28.8314
24 5 25 -13.4648 7.6113
24 5 27 -11.4836 10.1441
24 5 29 -6.6807 3.4847
24 5 31 1.5085 -3.3874
24 5 33 4.9085 -14.3876
24 5 35 9.0642 0.9626
24 5 37 4.7771 -1.3590
24 5 39 -2.8630 -1.9313
24 6 0 -20.4352 -3.0733
24 6 2 -16.8216 -3.4369
24 6 4 33.8569 -22.6716
24 6 6 76.4148 25.3666
24 6 8 -33.1322 -17.5351
24 6 10 140.7701 44.2774
24 6 12 -47.9633 7.9827
24 6 14 -62.0227 -0.9049
24 6 16 -0.8494 20.8851
24 6 18 -13.6469 39.3537
24 6 20 -3.2336 -4.5109
24 6 22 1.8105 7.4553
24 6 24 -12.8897 -1.9815
24 6 26 -2.0615 9.5036
24 6 28 -1.3644 13.1513
24 6 30 -14.4595 -14.9211
24 6 32 -11.7035 -7.5200
24 6 34 9.7517 -13.2339
24 6 36 11.2718 13.0500
24 6 38 -4.3193 21.3147
24 6 40 -11.8992 -1.2350
24 7 1 50.1272 -79.9096
24 7 3 4.9759 -26.4425
24 7 5 -2.8462 81.0318
24 7 7 -20.0042 8.9390
24 7 9 8.0490 13.3289
24 7 11 6.3748 -32.9343
24 7 13 3.7795 5.1395
24 7 15 3.8005 -17.1313
24 7 17 -0.2180 -1.7053
24 7 19 17.3281 -9.6065
24 7 21 -8.9942 -3.2854
24 7 23 -0.4895 33.2099
24 7 25 -15.1910 -2.0259
24 7 27 -0.6185 -1.5277
24 7 29 -1.0697 4.4843
24 7 31 -6.3972 -7.2288
24 7 33 -0.0485 3.6613
24 7 35 0.7417 -3.0755
24 7 37 2.8376 1.7385
24 7 39 -1.1853 -2.9179
24 8 0 -35.5520 -4.0690
24 8 2 -7.7044 -37.1140
24 8 4 25.1688 1.8923
24 8 6 -36.7019 -7.3959
24 8 8 -0.0645 44.4603
24 8 10 60.5311 -55.0645
24 8 12 8.8712 0.4121
24 8 14 -64.1062 9.5104
24 8 16 -20.0045 4.9465
24 8 18 -9.9504 -3.1031
24 8 20 15.8550 -4.3000
24 8 22 3.0312 5.9411
24 8 24 -8.0357 -4.5678
24 8 26 -3.8534 -0.8106
24 8 28 -13.0786 -2.6908
24 8 30 0.3994 -0.0706
24 8 32 13.8323 3.6313
24 8 34 -2.4390 1.1593
24 8 36 -4.0873 8.1768
24 8 38 15.8035 5.9821
24 8 40 -1.4221 -0.5631
24 9 1 55.6445 -67.6356
24 9 3 3.5866 -26.1422
24 9 5 57.1847 2.2090
24 9 7 -31.5257 0.5197
24 9 9 -28.7171 1.6856
24 9 11 -11.3994 -15.1966
24 9 13 -33.8353 -40.0571
24 9 15 -4.2875 6.5979
24 9 17 25.0413 23.1614
24 9 19 -25.2312 -17.9553
24 9 21 -2.0946 -19.7088
24 9 23 12.6295 -8.3393
24 9 25 -12.0842 2.5259
24 9 27 -5.6898 -5.6854
24 9 29 13.6276 -11.5516
24 9 31 7.6422 -4.4934
24 9 33 3.7773 2.7481
24 9 35 -16.9941 15.9785
24 9 37 2.1034 -0.3685
24 9 39 7.8365 -15.2157
24 10 0 -9.6604 -4.1232
24 10 2 -38.8423 -47.1660
24 10 4 22.5638 7.0425
24 10 6 -39.6862 -33.1153
24 10 8 20.5533 59.1906
24 10 10 -35.1703 -2.7933
24 10 12 -31.3817 -15.0859
24 10 14 22.1126 4.9337
24 10 16 0.5698 14.9690
24 10 18 12.0262 22.0117
24 10 20 5.9262 15.0385
24 10 22 -7.3943 5.0670
24 10 24 -2.4434 -5.7418
24 10 26 3.1730 1.8692
24 10 28 -8.2376 -8.1822
24 10 30 3.7923 2.6230
24 10 32 7.3670 14.1070
24 10 34 -3.2396 1.5015
24 10 36 -2.3231 3.1390
24 10 38 4.0159 -11.8191
24 11 1 -59.2185 41.9424
24 11 3 3.3842 -50.9977
24 11 5 40.3164 2.1119
24 11 7 -41.0009 5.4085
24 11 9 -24.4466 37.7797
24 11 11 -9.7028 9.1100
24 11 13 -10.0777 -17.1603
24 11 15 0.3228 18.4031
24 11 17 19.1516 2.4473
24 11 19 6.1441 -6.3448
24 11 21 4.7824 -15.0738
24 11 23 0.3857 13.1987
24 11 25 -2.7725 2.6413
24 11 27 4.9280 -6.5515
24 11 29 -7.1413 -1.7558
24 11 31 -10.1283 7.0533
24 11 33 4.8093 23.1033
24 11 35 4.9418 -2.4619
24 11 37 16.9677 -1.5549
24 11 39 4.0580 -16.3511
24 12 0 14.6958 -3.2302
24 12 2 14.6624 -53.0619
24 12 4 90.9076 -90.6846
24 12 6 -27.9626 38.2520
24 12 8 7.8587 24.6495
24 12 10 17.4101 -1.2443
24 12 12 0.9996 0.7411
24 12 14 14.5235 3.4237
24 12 16 35.2497 -5.2528
24 12 18 12.2980 16.5775
24 12 20 6.6023 14.6484
24 12 22 -8.1455 -16.7531
24 12 24 -3.3639 -10.2071
24 12 26 9.5055 -1.6894
24 12 28 -3.9315 -5.5681
24 12 30 5.9541 3.6520
24 12 32 -2.4143 0.3315
24 12 34 -0.8544 -24.2739
24 12 36 11.1017 16.6524
24 12 38 15.9844 -3.3379
24 13 1 -61.1652 36.9474
24 13 3 -29.1836 -39.1754
24 13 5 34.7240 35.9421
24 13 7 47.3998 35.3566
24 13 9 36.3140 22.3961
24 13 11 -18.6644 -23.6480
24 13 13 -27.5695 -14.8468
24 13 15 5.1278 -0.4995
24 13 17 5.1024 0.5779
24 13 19 -6.9626 0.1994
24 13 21 6.1194 -0.2575
24 13 23 4.3818 -10.7803
24 13 25 1.3955 2.3442
24 13 27 -0.5854 3.6890
24 13 29 -0.1941 -8.4208
24 13 31 -5.5494 2.5848
24 13 33 -3.5324 1.9121
24 13 35 -7.3162 -17.0610
24 13 37 9.0489 2.2587
24 14 0 9.1242 -1.9105
24 14 2 60.5724 -19.3721
24 14 4 -23.6003 -9.3266
24 14 6 28.0822 25.2407
24 14 8 13.9368 36.9548
24 14 10 -35.5263 14.5531
24 14 12 -29.0326 -7.3919
24 14 14 -8.4639 -10.2982
24 14 16 -3.1848 -0.6530
24 14 18 -8.7744 7.0485
24 14 20 10.0697 4.5768
24 14 22 0.0448 13.1861
24 14 24 8.9690 8.0429
24 14 26 12.0113 7.1743
24 14 28 6.7091 -3.4444
24 14 30 -5.5912 -12.7885
24 14 32 13.8369 16.7849
24 14 34 -2.8844 0.2272
24 14 36 -18.9576 -18.2104
24 14 38 11.3318 -5.4368
24 15 1 48.8458 -48.1330
24 15 3 -7.4906 -26.2131
24 15 5 41.9930 -60.6412
24 15 7 16.7623 -4.8101
24 15 9 14.0471 -18.4688
24 15 11 -3.9318 -16.6801
24 15 13 -3.3049 -39.5566
24 15 15 -16.9988 20.2640
24 15 17 -12.8383 6.5934
24 15 19 -4.0892 6.1456
24 15 21 -16.5113 10.1962
24 15 23 1.3302 5.1896
24 15 25 8.9534 -1.6645
24 15 27 11.4655 4.9152
24 15 29 -19.6451 8.6395
24 15 31 5.9190 1.3565
24 15 33 0.9577 -1.5463
24 15 35 2.2388 -13.0025
24 15 37 -1.9275 -9.8225
24 16 0 52.0162 -0.6609
24 16 2 -19.8119 8.8809
24 16 4 2.5394 -6.9246
24 16 6 -26.4398 20.7337
24 16 8 -8.5057 12.4136
24 16 10 -23.4006 3.2899
24 16 12 12.2270 9.1414
24 16 14 -20.7481 -11.7091
24 16 16 -16.8789 13.2605
24 16 18 -8.3042 1.9864
24 16 20 1.5115 6.0880
24 16 22 -18.8096 -11.4774
24 16 24 5.7138 -4.0159
24 16 26 9.3152 0.7923
24 16 28 7.6712 -4.9272
24 16 30 10.3622 -4.2806
24 16 32 4.7809 2.4230
24 16 34 -0.1740 10.3129
24 16 36 -1.2555 1.1096
24 16 38 1.8423 -19.8130
24 17 1 -2.4665 42.1569
24 17 3 20.2266 40.2029
24 17 5 -4.7269 -51.1967
24 17 7 67.1544 34.1606
24 17 9 -30.4647 -33.7970
24 17 11 -7.0776 -5.5958
24 17 13 6.9555 2.2041
24 17 15 -2.8934 9.8235
24 17 17 20.2558 0.5839
24 17 19 11.5797 -6.8021
24 17 21 0.2681 4.4302
24 17 23 4.9188 -4.3111
24 17 25 -1.0659 -15.9591
24 17 27 2.7939 -1.3500
24 17 29 -1.0376 0.1524
24 17 31 -21.4889 -9.2603
24 17 33 -2.2906 0.0758
24 17 35 3.0524 -3.7365
24 17 37 18.7855 12.3737
24 18 0 6.9610 -0.1052
24 18 2 10.6046 -14.7146
24 18 4 5.3875 50.9843
24 18 6 12.4150 -29.3449
24 18 8 9.1638 4.2595
24 18 10 1.6266 16.9159
24 18 12 3.6966 -9.7094
24 18 14 -4.2469 -14.7282
24 18 16 0.5516 5.5420
24 18 18 12.1840 -12.7106
24 18 20 6.9780 6.5473
24 18 22 23.9055 -16.1546
24 18 24 9.7194 -17.8890
24 18 26 0.5037 -16.8166
24 18 28 0.6795 -1.4834
24 18 30 2.5037 -1.0792
24 18 32 2.6702 -11.4202
24 18 34 -1.1157 -12.4108
24 18 36 12.5876 -15.6485
24 19 1 8.8987 7.5428
24 19 3 -2.8936 57.4875
24 19 5 32.0485 38.6135
24 19 7 0.2452 -7.9468
24 19 9 -12.1194 16.4880
24 19 11 -19.1394 4.3725
24 19 13 -10.1058 13.6826
24 19 15 -2.6812 13.4582
24 19 17 9.6920 -10.6914
24 19 19 3.6967 3.7431
24 19 21 1.2327 20.4549
24 19 23 0.6089 -5.0781
24 19 25 -5.8785 -2.5479
24 19 27 0.1036 4.5812
24 19 29 -7.3780 -9.1512
24 19 31 -12.5797 -26.5964
24 19 33 0.1780 -0.6393
24 19 35 3.1421 12.3885
24 20 0 8.3102 -0.3395
24 20 2 29.0527 -22.3467
24 20 4 12.5279 17.2654
24 20 6 20.7964 2.8411
24 20 8 5.2572 25.4118
24 20 10 24.8054 6.7655
24 20 12 6.0470 -12.8313
24 20 14 25.6450 5.2979
24 20 16 7.9455 -3.5194
24 20 18 -3.6624 -7.5729
24 20 20 -0.9963 20.0177
24 20 22 -3.8363 -18.0318
24 20 24 -1.6762 -22.4712
24 20 26 -8.0063 3.0568
24 20 28 9.2141 -13.4307
24 20 30 5.3960 1.4822
24 20 32 6.1568 10.2416
24 20 34 9.0943 12.9985
24 20 36 -1.2887 3.9280
24 21 1 4.2712 -25.6677
24 21 3 -6.9749 24.1069
24 21 5 -4.4153 -25.5124
24 21 7 -18.0871 11.8359
24 21 9 -21.1695 3.5900
24 21 11 15.3486 -8.1044
24 21 13 -5.3072 -10.0742
24 21 15 5.0668 4.7210
24 21 17 -6.6944 1.5045
24 21 19 -8.3813 11.8517
24 21 21 9.5863 6.8645
24 21 23 1.9417 -6.6169
24 21 25 -4.1021 6.4331
24 21 27 -1.0115 6.6749
24 21 29 -7.8477 4.4562
24 21 31 -2.4535 -0.0154
24 21 33 6.2461 -4.4726
24 21 35 8.0014 -14.5925
24 22 0 21.0871 -1.0997
24 22 2 -58.2732 -29.4381
24 22 4 28.7908 3.6021
24 22 6 8.0500 -3.7682
24 22 8 -8.3260 21.6877
24 22 10 12.3633 12.9232
24 22 12 11.3516 9.3025
24 22 14 1.4910 -2.0838
24 22 16 -15.5102 16.8288
24 22 18 3.9156 1.6351
24 22 20 -0.8365 12.1504
24 22 22 17.3620 -1.3927
24 22 24 2.6859 -10.3631
24 22 26 -17.4824 1.6525
24 22 28 6.2838 0.9043
24 22 30 -10.2181 7.9081
24 22 32 1.1614 -0.0115
24 22 34 3.2911 0.2540
24 23 1 -4.2905 -6.5320
24 23 3 30.4514 -19.7652
24 23 5 21.2041 21.2160
24 23 7 -19.1269 -16.9108
24 23 9 1.3186 20.6857
24 23 11 8.7738 -10.2275
24 23 13 -21.8397 -13.3634
24 23 15 13.3740 -11.2540
24 23 17 4.6428 -4.7704
24 23 19 -13.0555 3.6197
24 23 21 -6.9473 -6.4149
24 23 23 3.9896 -13.9149
24 23 25 -7.9990 3.9648
24 23 27 -2.9569 2.2208
24 23 29 -9.1944 10.9821
24 23 31 2.1484 -11.2686
24 23 33 -8.8863 12.5152
24 23 35 -22.3178 -16.6924
24 24 0 -18.0298 -2.0523
24 24 2 -26.3855 -0.0587
24 24 4 4.2201 -0.2403
24 24 6 -10.1543 -0.0291
24 24 8 33.6146 0.5495
24 24 10 27.3651 0.2073
24 24 12 12.2450 -0.4390
24 24 14 13.9553 -0.0413
24 24 16 1.6031 0.2132
24 24 18 10.2239 -0.0605
24 24 20 18.6925 0.0381
24 24 22 -11.8641 -0.0658
24 24 24 14.2183 -0.0995
24 24 26 -4.3203 0.0051
24 24 28 4.1912 0.1308
24 24 30 3.1992 0.0450
24 24 32 -24.6670 0.0531
24 24 34 -13.8136 0.0131
25 0 1 5.3085 4.7588
25 0 3 38.3578 -38.6248
25 0 5 11.3201 7.7560
25 0 7 -2.6826 6.8395
25 0 9 2.3356 -3.3765
25 0 11 4.5771 -2.3111
25 0 13 4.0184 2.5020
25 0 15 1.6370 -1.6174
25 0 17 5.4123 4.9441
25 0 19 2.7814 -1.2337
25 0 21 12.0105 10.8790
25 0 23 -14.5950 15.4623
25 0 25 -4.2686 -4.6670
25 0 27 0.4956 -0.2242
25 0 29 11.5981 11.6268
25 0 31 -1.8146 1.8426
25 0 33 0.5130 0.4177
25 0 35 11.7476 -11.7438
25 0 37 -11.0107 -10.8736
25 0 39 3.6832 -3.7383
25 1 0 -74.5990 0.1508
25 1 2 8.7986 20.0004
25 1 4 -79.6432 -46.3790
25 1 6 13.7723 -116.2560
25 1 8 47.1745 3.8293
25 1 10 -20.4841 -16.8204
25 1 12 3.4849 -38.6796
25 1 14 -10.4033 20.3141
25 1 16 -13.1689 -13.7412
25 1 18 24.4439 -22.9125
25 1 20 -14.1805 5.9961
25 1 22 -0.3907 -18.8044
25 1 24 -7.9533 9.8919
25 1 26 6.5722 38.6352
25 1 28 -0.8928 -3.8914
25 1 30 -9.9752 -2.7053
25 1 32 -2.0632 3.8054
25 1 34 14.5227 -24.3088
25 1 36 0.8658 4.7972
25 1 38 -2.1548 7.7891
25 1 40 -19.8856 4.1075
25 2 1 36.2152 43.9520
25 2 3 -18.2886 34.3403
25 2 5 29.5032 -8.8711
25 2 7 -45.4316 -47.0552
25 2 9 -87.4713 46.3486
25 2 11 -10.1026 7.5657
25 2 13 1.6708 12.9262
25 2 15 32.7666 12.4602
25 2 17 -8.3241 -15.9528
25 2 19 -10.0339 -4.6343
25 2 21 6.3246 11.9520
25 2 23 4.7318 20.0257
25 2 25 -1.2975 8.4312
25 2 27 -7.2779 -0.4947
25 2 29 -9.2694 0.4544
25 2 31 18.2346 -8.7786
25 2 33 -0.2936 -0.5703
25 2 35 -4.6823 20.1215
25 2 37 0.8237 1.8482
25 2 39 19.2784 -1.2553
25 3 0 -19.5133 -0.0148
25 3 2 -22.3990 -4.8898
25 3 4 -74.4051 -96.9084
25 3 6 7.3705 -5.6713
25 3 8 -90.4375 -44.0941
25 3 10 -22.4309 8.6001
25 3 12 26.0028 55.2571
25 3 14 8.9537 -9.2108
25 3 16 40.0991 24.8080
25 3 18 11.8957 -11.9867
25 3 20 -27.7906 9.8998
25 3 22 3.1588 -13.1966
25 3 24 -0.3498 0.4101
25 3 26 -8.3990 -2.0456
25 3 28 2.2035 -11.0994
25 3 30 0.4270 -0.8548
25 3 32 7.9108 2.7000
25 3 34 14.6662 5.2719
25 3 36 -2.5740 -0.3575
25 3 38 18.7493 -7.6312
25 3 40 -9.4164 10.1299
25 4 1 11.0430 -6.0617
25 4 3 41.8387 -65.0390
25 4 5 58.5409 18.4267
25 4 7 -26.5965 53.9991
25 4 9 18.1657 -2.5825
25 4 11 -23.2138 -21.3203
25 4 13 19.9560 -18.4351
25 4 15 9.7037 -16.3703
25 4 17 -11.2295 8.0005
25 4 19 2.8141 -4.5146
25 4 21 12.9116 -1.4876
25 4 23 9.3148 8.0627
25 4 25 -2.8305 16.9929
25 4 27 -1.9702 -2.9370
25 4 29 7.6633 -16.3331
25 4 31 -3.9256 16.4996
25 4 33 6.3034 -8.2377
25 4 35 -12.1765 -5.4901
25 4 37 7.6256 19.5549
25 4 39 18.3170 9.4511
25 5 0 4.2459 -0.0386
25 5 2 60.2302 -6.8171
25 5 4 26.7164 26.1611
25 5 6 -13.2734 118.8559
25 5 8 -70.7948 25.3228
25 5 10 30.1633 21.9431
25 5 12 -104.5479 -16.2478
25 5 14 0.9459 15.0000
25 5 16 52.2443 2.8170
25 5 18 -3.3852 -0.6674
25 5 20 31.8374 -1.4766
25 5 22 -8.0654 -1.9870
25 5 24 5.3594 11.9808
25 5 26 -2.7161 -7.4791
25 5 28 -0.8338 -2.9350
25 5 30 4.2903 19.6587
25 5 32 1.2774 9.8423
25 5 34 1.4945 -1.2718
25 5 36 -0.8202 2.1691
25 5 38 -0.0703 -1.5706
25 6 1 40.0137 55.2204
25 6 3 -50.5963 -8.0928
25 6 5 -41.5360 8.6033
25 6 7 -23.5690 56.7279
25 6 9 51.4921 -67.5082
25 6 11 30.8486 -27.6103
25 6 13 -10.8862 6.3521
25 6 15 8.0070 -14.2281
25 6 17 -15.2010 -17.2052
25 6 19 0.5949 13.3207
25 6 21 21.1152 -5.4160
25 6 23 15.1425 -0.1983
25 6 25 -7.4917 -7.1248
25 6 27 -2.5903 -22.4695
25 6 29 3.2288 -3.7898
25 6 31 13.7443 4.3298
25 6 33 12.4779 10.1800
25 6 35 15.9997 -2.6518
25 6 37 3.4192 7.3958
25 6 39 9.7605 -13.3638
25 7 0 -27.4856 -0.1757
25 7 2 -13.8868 89.4273
25 7 4 -31.5987 25.8811
25 7 6 36.7388 -23.2672
25 7 8 96.0378 -72.3105
25 7 10 -0.9786 -22.5368
25 7 12 -92.5121 21.6199
25 7 14 -0.4042 -9.4329
25 7 16 20.9350 5.2240
25 7 18 -13.7654 -6.0822
25 7 20 -10.6821 -10.0265
25 7 22 -15.1735 10.7721
25 7 24 2.7008 14.8615
25 7 26 -7.7781 9.5515
25 7 28 -3.3876 -0.9358
25 7 30 -12.1039 -1.3398
25 7 32 8.4531 1.9891
25 7 34 15.7945 1.9973
25 7 36 0.1284 1.5581
25 7 38 -1.5065 25.0773
25 8 1 -27.7617 -35.0420
25 8 3 48.5101 -47.0288
25 8 5 -17.2768 39.8919
25 8 7 -46.1914 27.8858
25 8 9 16.2363 10.4849
25 8 11 -50.5264 -26.1940
25 8 13 24.0386 -18.9041
25 8 15 -3.3825 0.4028
25 8 17 -0.6290 0.6138
25 8 19 24.6188 -3.7538
25 8 21 -5.1485 -4.5737
25 8 23 -5.4133 2.0232
25 8 25 15.7432 4.5124
25 8 27 14.2769 -6.5830
25 8 29 5.5627 1.1676
25 8 31 -1.8931 6.0758
25 8 33 9.6276 6.6405
25 8 35 -1.6339 -5.1521
25 8 37 3.6986 2.3355
25 8 39 4.3269 23.8025
25 9 0 36.8721 -0.4147
25 9 2 -1.8160 15.6363
25 9 4 11.4111 -13.7491
25 9 6 -64.9750 -47.2207
25 9 8 43.4152 28.3857
25 9 10 -13.7852 0.0869
25 9 12 35.5931 -57.3019
25 9 14 10.5384 -20.0877
25 9 16 -32.5739 20.0964
25 9 18 0.1296 -21.3357
25 9 20 -1.3201 12.3411
25 9 22 -23.7175 4.3731
25 9 24 -5.7948 17.1455
25 9 26 -0.4983 10.7833
25 9 28 6.5764 -5.9292
25 9 30 6.3901 3.5572
25 9 32 -1.4521 -2.8425
25 9 34 3.2916 15.5434
25 9 36 3.5988 -16.9824
25 9 38 -5.3504 -14.5136
25 10 1 33.7349 16.6469
25 10 3 -36.1045 1.8435
25 10 5 -15.6458 -9.6193
25 10 7 33.9740 -31.0518
25 10 9 -26.1949 -41.0902
25 10 11 -5.0684 -18.1569
25 10 13 14.4831 9.8944
25 10 15 10.1965 -0.0967
25 10 17 11.1999 -2.2157
25 10 19 7.5331 -14.7918
25 10 21 -12.8748 22.5734
25 10 23 5.6976 -13.9915
25 10 25 10.1083 8.9605
25 10 27 3.5707 6.0723
25 10 29 9.0773 -6.8834
25 10 31 -3.2868 -9.2413
25 10 33 -14.1216 -4.6229
25 10 35 10.6622 9.4251
25 10 37 -9.0996 -5.7919
25 10 39 -5.4191 -24.3747
25 11 0 27.6779 -0.5005
25 11 2 33.5151 -20.4610
25 11 4 5.1381 -19.0789
25 11 6 -24.7737 -21.7170
25 11 8 23.5077 31.6563
25 11 10 0.9227 -5.0326
25 11 12 -9.5933 -12.3820
25 11 14 34.9427 -5.2190
25 11 16 10.0272 -14.1468
25 11 18 -8.0286 -22.0902
25 11 20 2.2230 1.1272
25 11 22 -0.6425 -16.3346
25 11 24 3.4081 -4.4454
25 11 26 -9.0645 -0.0405
25 11 28 2.0843 -2.9712
25 11 30 -12.9241 -2.0697
25 11 32 -11.1655 9.8996
25 11 34 -2.8254 -0.0105
25 11 36 1.2742 -0.2014
25 11 38 4.0869 6.3191
25 12 1 -25.4397 -20.2980
25 12 3 9.9195 -15.5991
25 12 5 -10.4488 -27.3850
25 12 7 -64.0328 14.5589
25 12 9 -0.1902 6.6416
25 12 11 9.2124 -26.2274
25 12 13 -24.3610 18.3335
25 12 15 -23.6832 -27.7710
25 12 17 9.1930 -1.6618
25 12 19 -0.9055 -3.2123
25 12 21 -12.8684 -8.1486
25 12 23 -8.5048 5.3266
25 12 25 -6.9415 -4.6585
25 12 27 -2.9737 6.9722
25 12 29 1.4927 4.1344
25 12 31 -11.0023 8.7136
25 12 33 -2.6378 4.1712
25 12 35 -0.5542 16.5853
25 12 37 10.4425 -25.3546
25 13 0 7.4133 -0.5146
25 13 2 17.3642 -16.0602
25 13 4 20.6402 -44.5666
25 13 6 30.7614 38.8006
25 13 8 -80.7270 40.1766
25 13 10 1.6659 -12.8693
25 13 12 -4.1741 27.0640
25 13 14 -29.6725 47.9736
25 13 16 -8.0660 -5.5655
25 13 18 -8.9467 -11.5464
25 13 20 -16.1472 -19.6633
25 13 22 -11.7607 8.4527
25 13 24 -3.0645 9.0175
25 13 26 11.4109 -14.1678
25 13 28 -2.6734 -1.8716
25 13 30 -6.6721 2.0794
25 13 32 4.5495 -6.1040
25 13 34 21.8000 12.3991
25 13 36 0.6485 -22.1641
25 13 38 -7.6007 3.4155
25 14 1 2.0979 5.8445
25 14 3 56.3991 -40.2411
25 14 5 33.3560 12.2053
25 14 7 -28.6948 28.2955
25 14 9 -55.7789 -9.9657
25 14 11 -10.6503 -39.1316
25 14 13 -19.2743 9.2369
25 14 15 0.9871 6.1097
25 14 17 11.7827 -14.0716
25 14 19 7.4843 1.3579
25 14 21 -0.1684 5.5613
25 14 23 6.1744 4.0156
25 14 25 15.5336 -4.9600
25 14 27 1.2606 -3.1962
25 14 29 -1.8232 -15.5965
25 14 31 -8.6717 11.5314
25 14 33 -18.3350 -15.3118
25 14 35 -12.8380 -13.5738
25 14 37 5.7568 -13.6139
25 15 0 27.0565 -0.3906
25 15 2 21.6184 -31.5853
25 15 4 28.4087 -40.5917
25 15 6 4.8727 55.5832
25 15 8 -4.0344 -41.1979
25 15 10 -13.3326 -22.9822
25 15 12 32.5342 13.5473
25 15 14 34.3378 -1.4233
25 15 16 8.8635 2.3642
25 15 18 11.7374 -8.1616
25 15 20 -2.7813 -6.4133
25 15 22 -2.9202 -7.9037
25 15 24 12.1164 -11.5014
25 15 26 2.6978 -13.7164
25 15 28 8.4809 0.9272
25 15 30 14.5199 -3.2702
25 15 32 4.4984 8.6612
25 15 34 -8.8179 -12.9990
25 15 36 14.7538 -7.8391
25 16 1 -11.9321 6.2982
25 16 3 -71.6007 -34.7794
25 16 5 -24.3779 -7.7779
25 16 7 61.8929 39.6882
25 16 9 -23.7012 0.8596
25 16 11 15.7873 19.7289
25 16 13 14.8566 -10.8851
25 16 15 -11.6337 -8.6922
25 16 17 12.7213 -11.1477
25 16 19 5.4768 -0.9297
25 16 21 2.7891 4.2773
25 16 23 -4.7234 10.5217
25 16 25 -2.3025 -2.2654
25 16 27 -1.7798 0.8461
25 16 29 12.1180 4.7509
25 16 31 -19.0698 -5.0573
25 16 33 -2.0355 -3.0784
25 16 35 9.3033 7.3556
25 16 37 15.7836 -11.7337
25 17 0 1.3205 -0.1344
25 17 2 31.1843 4.3585
25 17 4 -6.9217 -12.1827
25 17 6 -5.7214 8.0883
25 17 8 -30.7166 -47.0684
25 17 10 -5.9532 36.2801
25 17 12 17.1064 10.4024
25 17 14 4.4804 7.9930
25 17 16 3.3438 2.5996
25 17 18 -2.8577 -6.6538
25 17 20 -1.3564 -5.5600
25 17 22 -8.2585 9.0601
25 17 24 -4.2396 15.5491
25 17 26 -2.2279 -7.9668
25 17 28 1.3272 -0.1778
25 17 30 11.1581 4.6157
25 17 32 2.5609 -4.0151
25 17 34 10.9633 -13.8543
25 17 36 2.9244 -12.0964
25 18 1 39.8773 19.0038
25 18 3 -15.3963 12.2047
25 18 5 7.9834 7.5310
25 18 7 -12.4983 -14.6458
25 18 9 -16.1873 -0.6583
25 18 11 -13.6322 -34.5272
25 18 13 -0.6730 13.6748
25 18 15 -3.9823 19.3702
25 18 17 4.9580 12.8693
25 18 19 -9.4665 -5.2886
25 18 21 -2.2264 -2.0318
25 18 23 -0.0288 13.0593
25 18 25 10.2234 3.4338
25 18 27 -2.0382 -4.3710
25 18 29 4.0106 1.6908
25 18 31 -1.3067 -1.4369
25 18 33 -2.8522 3.6721
25 18 35 3.7106 0.6479
25 19 0 7.3737 0.0943
25 19 2 -0.6522 -14.1169
25 19 4 -15.2180 3.9796
25 19 6 -1.8027 30.1535
25 19 8 1.8124 -15.8452
25 19 10 10.7061 12.5961
25 19 12 4.9966 -25.3766
25 19 14 -18.3863 -6.5013
25 19 16 14.4231 -0.8056
25 19 18 7.4669 -4.1942
25 19 20 -6.0115 4.1839
25 19 22 -2.6904 16.4438
25 19 24 -13.2129 2.1252
25 19 26 -5.2798 -2.9149
25 19 28 1.2100 19.2064
25 19 30 -4.8031 -1.9633
25 19 32 -2.1856 -0.6560
25 19 34 1.2231 -14.8686
25 19 36 20.5551 1.9404
25 20 1 -3.1428 -33.9225
25 20 3 -9.0208 -32.9073
25 20 5 -4.7002 -40.9214
25 20 7 22.6513 -1.0615
25 20 9 -8.2161 -1.8134
25 20 11 -18.6744 3.4743
25 20 13 -2.5729 0.3484
25 20 15 -14.1849 -16.6472
25 20 17 -10.8723 5.0936
25 20 19 -10.8671 -0.6837
25 20 21 -6.3828 6.1719
25 20 23 14.4514 9.0014
25 20 25 6.9994 9.2905
25 20 27 -2.4661 -0.8549
25 20 29 -26.9217 -4.4930
25 20 31 -5.5205 16.6556
25 20 33 -8.8418 -16.0103
25 20 35 -22.2903 9.7669
25 21 0 7.5689 0.1207
25 21 2 -3.9969 3.8081
25 21 4 -35.0337 -9.0813
25 21 6 -28.9952 -34.8222
25 21 8 -19.4337 -0.4208
25 21 10 25.4569 9.9507
25 21 12 -1.5195 -8.3667
25 21 14 -18.0391 -4.0883
25 21 16 24.7931 26.0796
25 21 18 7.7414 -7.4220
25 21 20 -1.8840 9.3511
25 21 22 -3.0607 18.1891
25 21 24 5.2286 12.0465
25 21 26 6.9965 19.4657
25 21 28 -2.1127 0.4573
25 21 30 -3.9102 10.0803
25 21 32 10.2623 -15.4475
25 21 34 0.7560 -5.1125
25 22 1 -16.7983 4.6428
25 22 3 -36.3724 -49.4303
25 22 5 19.5602 7.5504
25 22 7 -15.1944 -20.8952
25 22 9 28.0185 -9.4007
25 22 11 -22.5854 -2.3280
25 22 13 12.5913 -4.4629
25 22 15 18.6502 8.2112
25 22 17 6.0018 -10.1121
25 22 19 -8.3123 8.8630
25 22 21 2.6622 -4.3068
25 22 23 -2.8596 3.6851
25 22 25 -8.0700 2.9457
25 22 27 -3.5216 -2.0838
25 22 29 11.3122 -0.6569
25 22 31 -16.1655 -9.4296
25 22 33 -3.6985 -22.8822
25 22 35 -1.5885 3.8854
25 23 0 -21.1517 0.1414
25 23 2 32.7714 -25.2735
25 23 4 -2.8512 2.1682
25 23 6 35.7355 -2.7052
25 23 8 7.2508 9.1496
25 23 10 -23.5955 -27.8345
25 23 12 12.5450 31.3156
25 23 14 0.1490 -8.4887
25 23 16 10.3002 -15.7665
25 23 18 5.7666 -13.5085
25 23 20 13.0634 6.5596
25 23 22 2.6502 3.9258
25 23 24 -3.7530 -4.4008
25 23 26 19.1447 7.7433
25 23 28 13.7988 -5.7650
25 23 30 19.7594 8.4942
25 23 32 -12.8396 6.0428
25 23 34 -10.7343 0.2917
25 24 1 -12.2004 3.8594
25 24 3 10.1148 1.4561
25 24 5 -3.0780 -23.5388
25 24 7 -17.6334 -0.4590
25 24 9 -13.6807 16.1335
25 24 11 3.3753 -7.8190
25 24 13 5.8714 9.7510
25 24 15 -3.5742 15.9927
25 24 17 8.8643 10.3010
25 24 19 10.4142 -3.3875
25 24 21 -13.8360 2.8489
25 24 23 4.1693 -2.7103
25 24 25 9.6976 3.9682
25 24 27 -4.9297 -1.0751
25 24 29 -8.7565 12.9451
25 24 31 -5.2486 -0.3383
25 24 33 6.9375 -11.3094
25 25 0 59.8350 0.1852
25 25 2 29.1635 1.2562
25 25 4 13.9437 0.0656
25 25 6 -50.0930 0.1812
25 25 8 2.8720 -0.1791
25 25 10 24.8173 0.1826
25 25 12 -22.2206 -0.0945
25 25 14 -14.4309 0.1789
25 25 16 -7.2627 -0.0037
25 25 18 -0.2645 -0.3038
25 25 20 1.8202 0.1757
25 25 22 9.1526 0.0293
25 25 24 15.2728 -0.0101
25 25 26 -3.2014 -0.0498
25 25 28 3.7941 -0.0536
25 25 30 -12.8278 -0.1272
25 25 32 9.3168 -0.0093
26 0 0 55.8312 0.6583
26 0 2 -0.5110 -64.4581
26 0 4 4.9202 4.8987
26 0 6 -0.8130 -20.2197
26 0 8 21.2796 4.4541
26 0 10 -0.4889 -6.5970
26 0 12 0.1239 0.6184
26 0 14 -0.1643 -32.3267
26 0 16 -3.6556 0.2387
26 0 18 -0.0828 -1.6390
26 0 20 8.6502 -0.8534
26 0 22 -0.1582 -25.4083
26 0 24 -0.2631 -0.9411
26 0 26 -0.1704 14.0426
26 0 28 21.4789 -0.2005
26 0 30 -0.0174 -3.3358
26 0 32 -7.1234 0.0155
26 0 34 -0.0051 1.1953
26 0 36 -4.0290 -0.0453
26 0 38 0.0068 26.0459
26 1 1 10.5817 -29.3765
26 1 3 -45.7434 -9.3344
26 1 5 -130.7465 -38.3034
26 1 7 75.5515 -39.2713
26 1 9 -22.4908 -39.7576
26 1 11 9.6619 -31.6447
26 1 13 9.4483 18.7280
26 1 15 30.7010 -47.4749
26 1 17 15.6615 -9.3844
26 1 19 1.2648 -13.4325
26 1 21 -10.4954 -3.4162
26 1 23 -2.9995 -11.8558
26 1 25 -5.8707 21.8490
26 1 27 7.6344 9.6643
26 1 29 2.6876 1.7106
26 1 31 2.6143 3.8428
26 1 33 3.9845 -2.1551
26 1 35 -3.6701 7.2658
26 1 37 2.9863 -0.4169
26 1 39 -1.1190 -1.3396
26 2 0 9.3671 1.5795
26 2 2 14.5710 -7.5328
26 2 4 -20.4664 39.8760
26 2 6 51.9943 -22.8331
26 2 8 35.0455 64.3215
26 2 10 0.8682 -31.3169
26 2 12 -23.2698 -14.8793
26 2 14 4.7218 -35.0070
26 2 16 -15.0978 -7.4041
26 2 18 -7.0757 -15.7251
26 2 20 8.0657 -0.9777
26 2 22 -10.5292 -17.4379
26 2 24 -11.9230 -35.9350
26 2 26 4.0876 6.3451
26 2 28 -1.5024 4.0523
26 2 30 -0.4830 1.0977
26 2 32 2.5419 12.8011
26 2 34 -22.5633 -6.8225
26 2 36 6.6204 19.6795
26 2 38 17.2662 -14.0688
26 3 1 60.7461 -112.5299
26 3 3 -82.9602 -39.2659
26 3 5 2.3007 33.5299
26 3 7 2.9834 -36.7378
26 3 9 23.0597 25.4012
26 3 11 -6.3974 -17.0356
26 3 13 -33.1056 -13.9815
26 3 15 -7.0299 12.7372
26 3 17 24.5942 -4.4242
26 3 19 -0.7792 13.3689
26 3 21 2.8922 0.8652
26 3 23 -0.1386 -23.0097
26 3 25 -2.6516 -18.5819
26 3 27 1.8919 0.7549
26 3 29 8.8988 0.7538
26 3 31 10.6986 12.0589
26 3 33 5.0258 -1.9315
26 3 35 -14.1630 -6.1666
26 3 37 14.5188 10.5649
26 3 39 -1.8815 13.9310
26 4 0 -11.7761 0.2779
26 4 2 23.0911 23.7098
26 4 4 33.2296 103.1470
26 4 6 -36.5448 -34.5495
26 4 8 -9.7500 -37.2688
26 4 10 -9.7507 -32.1836
26 4 12 -17.3318 -40.3592
26 4 14 24.2012 -34.1709
26 4 16 17.9030 4.2228
26 4 18 -42.3800 6.2470
26 4 20 7.1092 -15.9771
26 4 22 21.6453 7.1069
26 4 24 10.4035 -5.4066
26 4 26 -3.1086 6.5520
26 4 28 -1.5277 -5.4696
26 4 30 -0.2420 0.1266
26 4 32 16.6370 -1.6078
26 4 34 -15.2989 12.0131
26 4 36 3.9294 13.7176
26 4 38 20.3023 8.7808
26 5 1 45.1678 -71.7621
26 5 3 31.0067 44.0655
26 5 5 34.2992 24.1335
26 5 7 -67.3517 59.6529
26 5 9 40.5584 -21.6495
26 5 11 -15.9690 51.2498
26 5 13 11.6274 2.4366
26 5 15 -11.0934 -1.4318
26 5 17 -5.6379 -2.8169
26 5 19 -3.9461 29.9441
26 5 21 3.7887 5.2010
26 5 23 -6.9417 -10.7235
26 5 25 -6.4524 -7.1256
26 5 27 8.3037 0.1862
26 5 29 3.3400 -0.2340
26 5 31 -0.3697 -16.8463
26 5 33 17.8550 5.9143
26 5 35 -5.7757 22.0589
26 5 37 6.0738 1.8797
26 5 39 21.3485 8.3568
26 6 0 13.2646 -1.7484
26 6 2 36.7230 -8.6363
26 6 4 -7.6855 17.7116
26 6 6 -25.0814 -16.1337
26 6 8 -54.5879 -46.3170
26 6 10 -19.1264 -35.2981
26 6 12 -24.6745 -0.8500
26 6 14 68.7460 10.1253
26 6 16 -9.6008 -1.9999
26 6 18 -9.8134 -29.2588
26 6 20 3.3602 -0.6854
26 6 22 1.4331 17.9368
26 6 24 -12.0805 20.4487
26 6 26 0.9252 1.0834
26 6 28 -7.6936 2.6381
26 6 30 -7.1763 7.7312
26 6 32 2.4275 4.1714
26 6 34 -6.6844 3.7547
26 6 36 -13.4639 0.7732
26 6 38 1.3372 -10.0542
26 7 1 -1.1858 17.6536
26 7 3 24.4694 24.5609
26 7 5 19.5542 -81.3418
26 7 7 -23.5065 -10.6871
26 7 9 26.7747 16.7873
26 7 11 31.1530 -8.4819
26 7 13 -9.5748 18.5874
26 7 15 -19.2306 3.5294
26 7 17 -7.1736 -12.0383
26 7 19 -5.1007 -6.4416
26 7 21 -19.1377 -7.2722
26 7 23 13.6814 17.2800
26 7 25 16.2302 7.4092
26 7 27 -0.8884 -0.4724
26 7 29 7.6978 11.6232
26 7 31 10.4883 10.1723
26 7 33 8.8595 1.4453
26 7 35 1.8641 -0.6828
26 7 37 2.8779 18.0269
26 7 39 6.8806 25.6244
26 8 0 -53.4013 -2.9173
26 8 2 10.4845 76.5029
26 8 4 50.1280 -8.6242
26 8 6 -5.1327 -3.3301
26 8 8 -42.3119 7.1713
26 8 10 19.7039 -38.1767
26 8 12 1.6486 -1.6134
26 8 14 39.9276 7.8386
26 8 16 -16.4039 31.3538
26 8 18 -2.1899 12.2683
26 8 20 6.4121 11.3799
26 8 22 -3.0988 3.7851
26 8 24 -1.8217 -8.6843
26 8 26 -1.0145 -2.5785
26 8 28 2.4856 -9.7019
26 8 30 -4.8294 -15.5944
26 8 32 -3.8024 8.7218
26 8 34 -13.1710 1.5441
26 8 36 -1.0270 -0.2831
26 8 38 17.4460 -5.8450
26 9 1 16.1268 -6.0040
26 9 3 31.1813 -1.6727
26 9 5 -62.7567 11.2345
26 9 7 30.7481 40.9367
26 9 9 3.7141 -40.8261
26 9 11 -12.9074 9.1803
26 9 13 5.0413 -10.4492
26 9 15 7.0377 21.4461
26 9 17 4.6774 -18.5000
26 9 19 28.0020 11.7111
26 9 21 17.0073 -3.1071
26 9 23 13.2099 -17.8360
26 9 25 3.5458 11.9423
26 9 27 9.9438 13.2507
26 9 29 6.8368 -12.8956
26 9 31 3.1326 -3.1473
26 9 33 8.2466 3.4256
26 9 35 -28.1803 -0.0145
26 9 37 -20.2018 -11.1636
26 10 0 -48.7013 -3.3807
26 10 2 -31.4955 38.2660
26 10 4 28.2207 -11.1082
26 10 6 -21.1390 -2.7919
26 10 8 -35.0833 10.8359
26 10 10 13.7322 31.9360
26 10 12 18.2802 -35.4507
26 10 14 11.7665 17.3768
26 10 16 -27.9378 9.7594
26 10 18 -7.7296 -6.2551
26 10 20 -7.7992 17.1228
26 10 22 -9.4633 10.1578
26 10 24 -0.5136 4.4566
26 10 26 -4.5129 2.9728
26 10 28 8.1980 -0.6379
26 10 30 -1.1858 -1.0308
26 10 32 -13.3331 6.3132
26 10 34 5.7786 23.8109
26 10 36 -2.9545 -1.2449
26 10 38 -26.0239 5.5132
26 11 1 -28.7074 -7.1251
26 11 3 14.7536 0.9627
26 11 5 35.4389 -32.2206
26 11 7 12.8013 40.9336
26 11 9 -42.7042 24.9323
26 11 11 -9.5866 -17.9966
26 11 13 -0.9627 -17.0390
26 11 15 13.1312 -14.4910
26 11 17 7.2395 18.7673
26 11 19 -6.7084 -11.9121
26 11 21 6.9793 -4.4357
26 11 23 -8.9303 -1.7660
26 11 25 17.0788 0.0073
26 11 27 3.2388 11.8691
26 11 29 9.8402 1.2402
26 11 31 5.1563 -4.5658
26 11 33 -4.9400 -6.1409
26 11 35 -4.7078 -21.4148
26 11 37 -10.2992 13.3693
26 12 0 -19.1615 -2.9985
26 12 2 13.9458 13.7442
26 12 4 42.7731 4.8280
26 12 6 -15.3150 1.7890
26 12 8 5.7804 52.7833
26 12 10 -12.9717 -40.8783
26 12 12 -9.4389 -4.2779
26 12 14 0.8760 -1.4563
26 12 16 -14.6051 -14.4929
26 12 18 9.3592 -12.3863
26 12 20 -16.1383 0.4259
26 12 22 -7.7120 4.7166
26 12 24 -4.0871 -8.2716
26 12 26 -8.6958 -9.1696
26 12 28 12.4671 -1.7083
26 12 30 0.2897 0.4421
26 12 32 8.8945 0.6015
26 12 34 -10.6391 -13.6008
26 12 36 1.9758 0.0445
26 12 38 2.8954 0.2171
26 13 1 -118.1738 -7.7764
26 13 3 -13.2808 57.5432
26 13 5 34.2775 33.5712
26 13 7 -20.5752 2.2198
26 13 9 -6.3325 -28.8947
26 13 11 10.4456 -14.4913
26 13 13 1.7545 14.4819
26 13 15 -28.3716 -9.7928
26 13 17 5.4796 12.4758
26 13 19 2.7220 -2.5617
26 13 21 -9.6397 3.0203
26 13 23 3.1188 -6.2327
26 13 25 3.3169 -0.3828
26 13 27 2.2321 4.7003
26 13 29 -9.1952 10.1460
26 13 31 -13.0950 5.9073
26 13 33 1.1499 2.4056
26 13 35 -19.6440 -1.3717
26 13 37 2.2586 -25.7335
26 14 0 -1.0265 -2.2180
26 14 2 -9.6963 -33.3362
26 14 4 15.5097 -55.7294
26 14 6 0.2512 42.8251
26 14 8 0.3548 48.5139
26 14 10 -17.6306 5.1142
26 14 12 27.1575 -11.7044
26 14 14 30.4620 -18.9988
26 14 16 -11.3889 -9.4192
26 14 18 9.8737 7.6631
26 14 20 -27.4897 5.3979
26 14 22 4.9576 9.3896
26 14 24 -0.8295 9.6973
26 14 26 3.6642 3.5673
26 14 28 -19.3109 -1.4027
26 14 30 -3.7989 -9.6295
26 14 32 -5.7138 0.8739
26 14 34 -2.6029 19.5315
26 14 36 -2.7671 -0.0572
26 15 1 5.3802 49.8990
26 15 3 -6.2145 -43.8182
26 15 5 7.3295 -52.7220
26 15 7 26.5140 2.6323
26 15 9 31.4101 3.3107
26 15 11 18.7232 -15.7170
26 15 13 7.6564 15.3826
26 15 15 -26.4892 13.5753
26 15 17 1.3265 -5.9528
26 15 19 -17.5524 15.6556
26 15 21 -18.7241 12.4696
26 15 23 -1.7097 1.8506
26 15 25 -4.0771 7.6461
26 15 27 -3.1196 3.7474
26 15 29 -0.5484 14.1240
26 15 31 13.1951 -16.4641
26 15 33 -1.4213 3.3209
26 15 35 -1.8012 -1.7685
26 15 37 -0.2929 -1.5143
26 16 0 11.8485 -1.3238
26 16 2 -7.5811 -7.7706
26 16 4 7.4725 1.2075
26 16 6 -27.2292 -3.1936
26 16 8 10.5614 18.2742
26 16 10 -18.0711 3.6987
26 16 12 -8.9162 -24.7041
26 16 14 -2.7502 1.9930
26 16 16 18.4381 31.5318
26 16 18 -8.0496 5.4715
26 16 20 13.3903 -8.6170
26 16 22 10.5332 5.6158
26 16 24 7.2175 2.5143
26 16 26 -9.0889 -2.4920
26 16 28 1.6680 -1.2885
26 16 30 -8.5254 14.3423
26 16 32 -4.2613 -15.2751
26 16 34 -2.4051 -2.4107
26 16 36 33.0557 7.0284
26 17 1 30.9108 16.3701
26 17 3 -85.3861 -50.2304
26 17 5 -27.7114 -17.7598
26 17 7 8.8980 -3.4340
26 17 9 3.3382 5.6509
26 17 11 2.0447 20.3073
26 17 13 -21.9695 -37.5242
26 17 15 12.3487 9.8604
26 17 17 -6.7299 11.1896
26 17 19 8.2422 1.3015
26 17 21 16.8067 4.8038
26 17 23 -1.5649 11.0461
26 17 25 0.4228 3.1527
26 17 27 6.2797 -7.3159
26 17 29 12.1793 4.4497
26 17 31 1.8946 2.1686
26 17 33 -20.6513 -0.1675
26 17 35 -8.0818 23.4975
26 18 0 62.0389 -1.0599
26 18 2 2.0360 -2.6925
26 18 4 21.1115 -23.1912
26 18 6 -8.3290 29.1642
26 18 8 10.3658 -1.1142
26 18 10 -6.9861 8.6605
26 18 12 -7.3164 1.7647
26 18 14 17.9129 5.1027
26 18 16 -1.4307 -22.2073
26 18 18 -2.6915 -14.9096
26 18 20 -7.3810 3.2017
26 18 22 15.9757 -1.0886
26 18 24 9.1042 -0.6385
26 18 26 -3.4868 -9.2103
26 18 28 -7.4097 8.2544
26 18 30 -1.5557 -1.5136
26 18 32 -12.3746 -11.9394
26 18 34 22.4911 1.8058
26 18 36 13.6262 11.1112
26 19 1 3.4770 11.7399
26 19 3 -18.6598 24.7979
26 19 5 -28.9377 3.0118
26 19 7 19.3933 12.6359
26 19 9 -14.1255 -3.1915
26 19 11 -0.2987 -10.1195
26 19 13 25.1807 11.0770
26 19 15 2.8416 11.2468
26 19 17 9.0900 13.8278
26 19 19 0.1338 -0.2970
26 19 21 -5.5340 15.1753
26 19 23 1.2676 12.7853
26 19 25 -1.1047 -3.2577
26 19 27 -1.6404 3.9752
26 19 29 0.8037 0.4172
26 19 31 9.4153 -29.4417
26 19 33 -4.6802 -0.2118
26 19 35 1.5745 17.6197
26 20 0 3.2993 -1.3493
26 20 2 27.4809 16.5625
26 20 4 -21.6695 -15.1273
26 20 6 11.4317 -42.0180
26 20 8 1.0024 -1.5338
26 20 10 26.6341 0.6994
26 20 12 -1.8735 -35.8490
26 20 14 23.5000 2.8328
26 20 16 -11.0768 11.7968
26 20 18 5.1856 -4.9988
26 20 20 -10.4109 -4.5244
26 20 22 -12.3928 -6.0317
26 20 24 1.0379 17.4413
26 20 26 -9.9120 13.1548
26 20 28 -8.6211 19.4727
26 20 30 6.5509 8.6193
26 20 32 2.6385 2.6970
26 20 34 -17.9236 -2.9236
26 21 1 -11.4463 7.7700
26 21 3 -6.3309 -34.4761
26 21 5 -11.1459 24.0005
26 21 7 -3.1515 21.1309
26 21 9 23.9266 19.6936
26 21 11 -23.7114 -11.7952
26 21 13 -10.5921 5.6440
26 21 15 -10.0154 -1.2026
26 21 17 -8.8600 13.0060
26 21 19 7.8227 8.8817
26 21 21 -3.7085 2.5259
26 21 23 -3.3673 -13.9715
26 21 25 9.1393 -4.6818
26 21 27 -1.0577 4.1623
26 21 29 -14.8940 19.5788
26 21 31 -0.3115 -21.0328
26 21 33 10.2478 2.7749
26 22 0 12.5357 -1.9191
26 22 2 31.2683 8.7124
26 22 4 20.8238 9.3145
26 22 6 40.6199 1.9489
26 22 8 -29.1254 7.0333
26 22 10 11.3664 -10.6523
26 22 12 2.5264 20.7714
26 22 14 -37.2497 23.8768
26 22 16 9.3253 12.4608
26 22 18 -4.4680 32.3934
26 22 20 -3.7754 8.6631
26 22 22 -3.2837 1.1994
26 22 24 -7.4602 7.3831
26 22 26 -0.0796 9.7943
26 22 28 -13.2108 -9.4838
26 22 30 6.5966 15.9659
26 22 32 18.2195 -5.8862
26 22 34 -19.7757 8.1993
26 23 1 5.9020 -14.5310
26 23 3 0.5809 -18.0646
26 23 5 1.1855 8.0876
26 23 7 7.8444 29.1531
26 23 9 19.5940 2.2149
26 23 11 9.5056 16.9671
26 23 13 3.3139 -23.0251
26 23 15 -7.2991 0.0327
26 23 17 5.0327 1.6865
26 23 19 -7.8746 2.7425
26 23 21 -2.8606 3.8465
26 23 23 1.3441 2.6845
26 23 25 0.3306 -1.2520
26 23 27 -0.4245 0.6938
26 23 29 18.9784 13.8866
26 23 31 -1.1636 0.0778
26 23 33 -23.5988 -7.4048
26 24 0 -24.5565 -2.6146
26 24 2 -31.0255 16.6834
26 24 4 3.2393 -12.3965
26 24 6 10.5083 21.7218
26 24 8 10.1217 15.8335
26 24 10 -12.9003 24.8725
26 24 12 -4.5938 -1.7397
26 24 14 -25.4956 24.3057
26 24 16 -9.6784 12.9534
26 24 18 4.3303 -19.5892
26 24 20 3.6070 -7.3365
26 24 22 -0.1469 2.5673
26 24 24 10.9137 0.4073
26 24 26 3.4469 12.3626
26 24 28 10.7779 1.9236
26 24 30 23.3471 -2.4768
26 24 32 -17.3893 -11.9277
26 25 1 10.6828 -21.6785
26 25 3 -3.1942 -1.3058
26 25 5 -21.2647 3.6673
26 25 7 7.4535 -0.5175
26 25 9 -21.9072 -28.0537
26 25 11 8.3114 0.0653
26 25 13 -7.7730 -5.6573
26 25 15 6.6747 -9.8519
26 25 17 -2.6216 2.7249
26 25 19 4.2393 1.2185
26 25 21 3.2063 0.7670
26 25 23 -14.6244 -5.4132
26 25 25 -14.9664 -0.9879
26 25 27 -17.4189 21.7710
26 25 29 8.8804 7.9564
26 25 31 12.0547 -10.9475
26 26 0 22.4525 -2.9512
26 26 2 26.6971 -0.0732
26 26 4 14.1747 -1.3278
26 26 6 -0.6571 0.0249
26 26 8 10.8031 -0.0993
26 26 10 26.3241 0.1787
26 26 12 -5.3617 -0.4616
26 26 14 1.9653 0.0098
26 26 16 -0.6176 0.2713
26 26 18 0.5008 -0.0338
26 26 20 -25.7635 0.1629
26 26 22 -5.4846 -0.0553
26 26 24 -11.2912 -0.0615
26 26 26 -14.3040 0.0049
26 26 28 2.4648 0.1914
26 26 30 -16.8483 0.0095
26 26 32 26.2503 0.0473
27 0 1 34.5725 34.5672
27 0 3 29.4640 -28.4240
27 0 5 40.1682 36.8031
27 0 7 6.2464 -1.3789
27 0 9 15.3179 9.6744
27 0 11 11.2779 -8.3081
27 0 13 -4.8760 -6.5604
27 0 15 -3.9214 4.2612
27 0 17 3.1618 2.5361
27 0 19 -5.8240 7.5260
27 0 21 -4.5735 -5.8456
27 0 23 -1.3771 2.2712
27 0 25 -9.7420 -10.2494
27 0 27 -10.4099 10.6415
27 0 29 8.5808 8.6814
27 0 31 0.3249 -0.3340
27 0 33 -7.6409 -7.6627
27 0 35 -2.5482 2.5071
27 0 37 -5.7491 -5.5870
27 0 39 -3.5768 3.5663
27 1 0 48.7163 0.2547
27 1 2 -7.7909 82.8099
27 1 4 73.8961 -77.6511
27 1 6 -3.7764 -16.9520
27 1 8 -42.6472 29.1920
27 1 10 -19.4519 16.2247
27 1 12 22.6415 51.3415
27 1 14 -4.7298 -8.5082
27 1 16 -21.8111 -0.0405
27 1 18 -11.8307 -16.4594
27 1 20 -7.1362 -22.4725
27 1 22 -2.7558 1.1563
27 1 24 -8.4042 0.6076
27 1 26 3.0656 -8.9376
27 1 28 3.8912 -10.2531
27 1 30 8.4821 2.0981
27 1 32 0.6724 0.4597
27 1 34 6.2854 1.0485
27 1 36 -1.2084 2.1880
27 1 38 -12.8082 -4.7832
27 2 1 64.4664 50.6833
27 2 3 -4.8120 23.5911
27 2 5 -74.5685 49.0383
27 2 7 -37.9886 -39.3099
27 2 9 -24.2748 46.0379
27 2 11 -23.2495 -13.4261
27 2 13 21.5561 7.3344
27 2 15 15.1751 13.2886
27 2 17 -15.6936 2.6146
27 2 19 0.4103 3.6776
27 2 21 0.3677 -4.2796
27 2 23 17.1851 21.2932
27 2 25 8.6572 5.7894
27 2 27 -10.0973 -9.4362
27 2 29 -1.7009 7.8703
27 2 31 0.1793 4.5513
27 2 33 -1.9972 2.1983
27 2 35 20.7823 2.8127
27 2 37 0.6274 5.6467
27 2 39 18.2896 24.3417
27 3 0 -7.3722 -0.0858
27 3 2 -9.5193 -31.0200
27 3 4 21.0775 42.8681
27 3 6 -0.1009 -72.3965
27 3 8 69.1704 15.7466
27 3 10 16.9716 -0.4509
27 3 12 60.4309 19.1072
27 3 14 -6.2261 -2.9356
27 3 16 3.1376 25.0169
27 3 18 -14.0216 11.1433
27 3 20 8.1448 21.7719
27 3 22 -12.6263 -6.1598
27 3 24 -8.6273 -5.2421
27 3 26 7.1156 -5.1731
27 3 28 -2.0000 -1.8035
27 3 30 1.4837 -1.3379
27 3 32 1.0852 1.3760
27 3 34 7.7232 -2.5154
27 3 36 -20.8844 -4.5169
27 3 38 -15.6972 20.1410
27 4 1 63.8442 62.2050
27 4 3 -23.9284 4.5006
27 4 5 -75.9576 -4.0576
27 4 7 -26.7632 -0.3222
27 4 9 36.6527 -28.9255
27 4 11 -29.8149 0.5700
27 4 13 12.9769 -41.1010
27 4 15 -16.9919 -28.1306
27 4 17 17.8511 -7.8142
27 4 19 -13.8198 -20.1503
27 4 21 15.1553 7.7665
27 4 23 10.5607 14.0461
27 4 25 -1.6400 -5.3443
27 4 27 5.6619 14.5547
27 4 29 -5.8515 10.4347
27 4 31 2.8455 -8.5400
27 4 33 -2.9056 -0.1247
27 4 35 -17.4245 -2.5193
27 4 37 0.5120 0.6396
27 5 0 32.6736 -0.2429
27 5 2 -18.8440 -41.0857
27 5 4 49.4101 -32.6002
27 5 6 -40.2729 130.2705
27 5 8 9.6638 45.0215
27 5 10 2.9951 -16.7848
27 5 12 36.0077 24.0643
27 5 14 -4.5164 5.3328
27 5 16 19.0226 31.8194
27 5 18 -4.4933 -5.3759
27 5 20 -38.3468 -7.2977
27 5 22 13.6502 -1.6163
27 5 24 2.4190 1.7283
27 5 26 -15.0516 -1.5735
27 5 28 20.7170 4.7243
27 5 30 -4.6517 -2.0195
27 5 32 6.0685 -10.6558
27 5 34 7.8540 -2.2099
27 5 36 0.4908 1.8231
27 5 38 9.1882 8.9648
27 6 1 -17.8034 -66.9992
27 6 3 -9.8741 -18.9088
27 6 5 38.4394 8.9510
27 6 7 68.1927 74.0585
27 6 9 18.6847 8.1479
27 6 11 14.4299 17.1148
27 6 13 19.3872 11.1918
27 6 15 -18.2702 -6.9926
27 6 17 -18.4195 -0.2143
27 6 19 12.8518 -15.9698
27 6 21 10.6635 5.3559
27 6 23 16.7816 1.6611
27 6 25 15.6654 -9.6991
27 6 27 7.9224 7.5093
27 6 29 7.2753 1.7242
27 6 31 -1.1367 -2.2962
27 6 33 12.1356 0.2671
27 6 35 -5.7039 17.0297
27 6 37 -2.3194 8.5938
27 7 0 -19.6099 -0.3506
27 7 2 23.6995 6.6185
27 7 4 -43.6224 -30.6517
27 7 6 -11.4000 81.9950
27 7 8 26.7146 -96.5431
27 7 10 -4.1767 -9.1907
27 7 12 26.7755 11.5452
27 7 14 -9.1470 5.9366
27 7 16 4.0314 -31.9741
27 7 18 -0.3478 -5.1668
27 7 20 1.5178 22.5545
27 7 22 19.3637 22.1817
27 7 24 9.0170 -6.3509
27 7 26 -9.5302 1.5447
27 7 28 -7.5705 3.3998
27 7 30 -9.2019 -3.7315
27 7 32 6.1006 -15.8659
27 7 34 -1.0668 -1.2265
27 7 36 9.2664 13.2183
27 7 38 -15.4782 -9.2575
27 8 1 56.1474 77.1891
27 8 3 -26.0259 -20.3471
27 8 5 -42.4024 -37.2629
27 8 7 39.2310 34.8359
27 8 9 -26.1984 11.2802
27 8 11 3.9564 21.8617
27 8 13 11.6746 10.4543
27 8 15 -8.1599 36.5011
27 8 17 2.9773 1.1256
27 8 19 -8.6424 18.6844
27 8 21 12.9678 17.7601
27 8 23 9.4243 0.0639
27 8 25 -3.7935 1.5380
27 8 27 0.2382 -9.0350
27 8 29 -2.0437 -3.2847
27 8 31 -0.7309 17.6120
27 8 33 -14.3975 4.7931
27 8 35 10.7144 -20.3392
27 8 37 0.8055 9.0039
27 9 0 29.6732 -0.5164
27 9 2 -26.5703 2.2728
27 9 4 3.7819 -7.1059
27 9 6 50.9935 20.7100
27 9 8 32.1976 -52.5291
27 9 10 -25.6958 -15.7543
27 9 12 45.8279 5.1901
27 9 14 26.8792 -6.8269
27 9 16 8.5075 20.5007
27 9 18 2.1200 5.2182
27 9 20 -12.3877 13.0133
27 9 22 -7.9949 12.9934
27 9 24 10.1382 -0.1424
27 9 26 2.1921 -1.5685
27 9 28 4.1354 4.5099
27 9 30 -8.7987 2.3861
27 9 32 2.3225 3.0115
27 9 34 -3.9602 2.0214
27 9 36 -10.2202 -0.0645
27 9 38 10.2882 -12.9083
27 10 1 9.2498 -56.5357
27 10 3 -37.5297 -6.4140
27 10 5 -5.8857 26.0320
27 10 7 21.5474 33.0903
27 10 9 -18.3690 -7.5019
27 10 11 -15.1398 19.0896
27 10 13 -23.1826 19.9124
27 10 15 3.9173 17.1617
27 10 17 5.1318 13.0562
27 10 19 -0.7197 -2.6423
27 10 21 15.3005 -12.0145
27 10 23 15.5960 -2.0713
27 10 25 -4.0421 19.2930
27 10 27 -3.1835 -0.1216
27 10 29 15.9705 -3.4988
27 10 31 13.3827 11.5450
27 10 33 -9.8162 12.6479
27 10 35 12.5515 21.7413
27 10 37 -13.7710 12.8696
27 11 0 -7.8638 -0.6953
27 11 2 8.8576 8.3909
27 11 4 -20.7621 6.1361
27 11 6 -11.6810 -30.3583
27 11 8 10.8965 33.2771
27 11 10 -22.0495 11.2000
27 11 12 -30.8158 18.1138
27 11 14 -22.2978 16.3939
27 11 16 -3.1977 -27.8727
27 11 18 19.8655 -3.8648
27 11 20 -2.1736 -10.9500
27 11 22 23.9422 -7.4315
27 11 24 -5.8632 4.4254
27 11 26 -10.5644 -2.6722
27 11 28 -6.5635 -2.5094
27 11 30 -4.4846 -3.7235
27 11 32 -0.8119 -1.9352
27 11 34 11.1070 10.3996
27 11 36 0.3142 0.0176
27 12 1 7.7932 2.4621
27 12 3 -44.0256 7.6987
27 12 5 16.9000 -34.3098
27 12 7 -4.6988 26.3528
27 12 9 -4.6336 -21.0528
27 12 11 -5.7711 4.4175
27 12 13 -19.1216 15.3359
27 12 15 -3.4074 -13.8162
27 12 17 9.6193 5.0802
27 12 19 -4.0960 1.3729
27 12 21 -13.1864 -8.5187
27 12 23 5.6558 3.5349
27 12 25 -17.5289 0.9418
27 12 27 0.4343 19.3165
27 12 29 -10.5687 12.4519
27 12 31 -1.9188 -6.1940
27 12 33 12.4173 -1.7880
27 12 35 -1.3653 -1.4500
27 12 37 -12.7406 3.0678
27 13 0 3.2480 -0.7592
27 13 2 12.5905 -9.3621
27 13 4 4.5597 -8.0361
27 13 6 -6.5143 -5.3641
27 13 8 29.1403 12.2689
27 13 10 -4.9359 28.8951
27 13 12 -5.7207 6.4245
27 13 14 16.1865 12.4826
27 13 16 -2.5184 -7.6618
27 13 18 -8.2897 2.3720
27 13 20 1.5820 5.2526
27 13 22 -0.0802 26.8222
27 13 24 -3.7600 -16.2681
27 13 26 -1.4824 -2.3270
27 13 28 1.3264 -7.5971
27 13 30 15.0703 3.8049
27 13 32 -1.7273 25.7409
27 13 34 0.8483 2.1368
27 13 36 -8.3194 -15.8929
27 14 1 24.4631 -37.1623
27 14 3 -43.3807 -19.3439
27 14 5 -16.1054 -0.8188
27 14 7 60.5845 -31.6570
27 14 9 32.6554 -45.1653
27 14 11 22.6745 -10.1310
27 14 13 1.3325 7.9383
27 14 15 -12.2306 -30.1535
27 14 17 8.2226 -9.2272
27 14 19 4.6637 -3.6386
27 14 21 8.4980 -0.8409
27 14 23 5.3406 -2.2848
27 14 25 -8.9183 7.1952
27 14 27 -0.0550 -11.7029
27 14 29 0.8166 -4.6525
27 14 31 4.3636 1.6097
27 14 33 -17.7828 17.4761
27 14 35 8.4598 -3.9043
27 14 37 -17.8668 -8.2999
27 15 0 12.8714 -0.6894
27 15 2 13.1689 -34.5487
27 15 4 -5.3742 -27.7434
27 15 6 15.1733 -5.7053
27 15 8 7.5423 -5.8921
27 15 10 -11.9570 22.9518
27 15 12 -3.8987 37.5674
27 15 14 2.3555 -8.4870
27 15 16 14.8812 -5.5006
27 15 18 2.6092 0.5650
27 15 20 -2.6354 5.3763
27 15 22 -13.0839 11.3864
27 15 24 5.9188 -2.9217
27 15 26 1.4978 5.3152
27 15 28 4.4978 10.3636
27 15 30 2.7383 6.2368
27 15 32 14.3483 -12.9069
27 15 34 -0.6237 1.3954
27 15 36 21.5075 10.4767
27 16 1 -3.9535 -15.5693
27 16 3 53.5435 9.3692
27 16 5 -6.8982 -8.2574
27 16 7 9.7527 -14.0390
27 16 9 -9.0961 16.2895
27 16 11 11.7586 27.4375
27 16 13 4.7162 -23.9797
27 16 15 -16.4242 -1.9905
27 16 17 -20.6737 -5.3434
27 16 19 13.7736 -3.6897
27 16 21 -1.6367 6.4296
27 16 23 -0.7720 15.6594
27 16 25 3.6416 -10.0253
27 16 27 0.6413 -0.9364
27 16 29 -5.6973 11.0875
27 16 31 -0.8571 -1.6180
27 16 33 11.3272 -17.8331
27 16 35 10.3746 -8.7773
27 17 0 -5.0684 -0.4892
27 17 2 -13.3341 59.6690
27 17 4 -6.8375 -5.6689
27 17 6 -17.5853 -19.6524
27 17 8 16.6712 -34.0474
27 17 10 -11.5882 -13.1187
27 17 12 -14.6597 -3.5097
27 17 14 4.6367 -8.5219
27 17 16 1.2874 4.0971
27 17 18 -31.5351 19.3842
27 17 20 -7.3223 -5.9156
27 17 22 11.0426 9.6758
27 17 24 10.3838 -14.8360
27 17 26 13.3625 -4.5984
27 17 28 11.9446 -9.0224
27 17 30 0.9795 -10.4410
27 17 32 -0.0230 1.8777
27 17 34 17.2900 12.2824
27 17 36 -19.4869 11.8252
27 18 1 -18.0351 5.5203
27 18 3 -35.1315 34.8206
27 18 5 19.6880 8.2829
27 18 7 28.3292 -15.4259
27 18 9 -2.0706 -13.2937
27 18 11 -10.6192 15.6802
27 18 13 6.1879 -9.4727
27 18 15 -21.4459 -14.4614
27 18 17 -6.2094 25.2327
27 18 19 -17.9631 3.8073
27 18 21 -6.4577 6.5975
27 18 23 5.6072 -3.0639
27 18 25 0.5144 3.7018
27 18 27 12.3713 1.2724
27 18 29 -9.4673 -1.5066
27 18 31 -4.1738 -8.8464
27 18 33 -17.5428 22.1040
27 18 35 0.9703 -4.2842
27 19 0 -22.6931 -0.2636
27 19 2 59.9616 12.4247
27 19 4 -13.0894 -33.8508
27 19 6 -18.5413 24.6852
27 19 8 26.7174 3.5027
27 19 10 7.5842 17.2642
27 19 12 3.6485 25.5648
27 19 14 -8.6272 -20.4286
27 19 16 3.7659 -18.0401
27 19 18 1.3406 7.2261
27 19 20 3.3859 -5.6187
27 19 22 5.2255 7.4571
27 19 24 3.0077 -4.4709
27 19 26 -10.8907 -14.5930
27 19 28 -5.1642 1.2295
27 19 30 -5.6480 0.0244
27 19 32 0.9642 5.1615
27 19 34 29.3240 5.2436
27 20 1 -13.4495 21.2729
27 20 3 -6.0516 -7.4444
27 20 5 9.4416 3.7452
27 20 7 -14.8385 7.2198
27 20 9 -23.6616 -4.9796
27 20 11 -20.6387 24.5130
27 20 13 38.0135 -0.1678
27 20 15 14.7573 48.2408
27 20 17 14.6055 -12.4251
27 20 19 -8.5535 21.8717
27 20 21 -1.0818 -4.6889
27 20 23 12.3057 3.9065
27 20 25 7.8199 13.7207
27 20 27 -3.4314 -0.0480
27 20 29 3.2140 10.5349
27 20 31 -17.9547 16.7389
27 20 33 -15.4142 -16.6491
27 21 0 -4.2143 -0.0760
27 21 2 -6.8374 6.0222
27 21 4 6.1122 31.3033
27 21 6 2.3204 -11.3826
27 21 8 -16.6705 33.8601
27 21 10 0.6432 -14.8848
27 21 12 11.5184 14.4351
27 21 14 2.4013 28.5970
27 21 16 25.9061 10.2822
27 21 18 10.6180 2.8091
27 21 20 -11.1140 15.4846
27 21 22 -3.7858 -11.4560
27 21 24 -9.1947 -8.4888
27 21 26 -1.4036 -5.5899
27 21 28 9.7280 25.5911
27 21 30 1.6567 -22.7397
27 21 32 0.7864 -2.8065
27 21 34 13.9696 9.9006
27 22 1 -14.4564 -45.1927
27 22 3 -34.4195 -1.9885
27 22 5 -6.0933 51.5685
27 22 7 29.4732 37.1532
27 22 9 26.0432 1.4576
27 22 11 11.4565 8.2218
27 22 13 14.3641 -1.8932
27 22 15 -0.4591 -7.2371
27 22 17 -0.4425 0.2143
27 22 19 13.1107 -15.9211
27 22 21 -4.7153 5.8499
27 22 23 10.0329 -7.3094
27 22 25 17.5406 -18.9070
27 22 27 12.4603 -10.5725
27 22 29 0.0543 -1.5049
27 22 31 -2.2004 -2.2959
27 22 33 -4.2736 23.2203
27 23 0 -13.8534 0.0398
27 23 2 23.5419 -23.9936
27 23 4 -17.7828 -12.4342
27 23 6 -3.2929 -12.1768
27 23 8 -3.1592 -34.5873
27 23 10 -0.3549 7.2088
27 23 12 -1.8788 -39.4449
27 23 14 -11.4421 8.6845
27 23 16 26.6393 17.3475
27 23 18 -6.2918 9.1556
27 23 20 -12.9794 -4.7350
27 23 22 10.3125 0.6815
27 23 24 -2.4969 10.3841
27 23 26 -1.7719 -13.6087
27 23 28 10.1439 -9.5266
27 23 30 -19.1831 18.1603
27 23 32 -3.4223 0.3452
27 24 1 -32.9278 11.9707
27 24 3 29.9620 12.4376
27 24 5 -10.5303 -20.5287
27 24 7 -29.0593 25.3652
27 24 9 13.6869 12.9400
27 24 11 7.2063 0.2831
27 24 13 1.0154 13.0638
27 24 15 -10.7862 -7.0227
27 24 17 -12.2289 -0.3242
27 24 19 -10.9101 -9.1882
27 24 21 -5.5927 5.1321
27 24 23 -14.2311 -12.7778
27 24 25 9.4777 7.5388
27 24 27 -2.3102 7.8878
27 24 29 -11.3901 6.1343
27 24 31 -1.2949 1.3814
27 25 0 -36.5668 0.2566
27 25 2 -13.5616 -13.0618
27 25 4 -0.1481 4.8305
27 25 6 -1.6323 -4.0576
27 25 8 -11.4193 43.1685
27 25 10 -2.8222 -3.4388
27 25 12 -16.8787 -39.6432
27 25 14 2.2736 -12.4866
27 25 16 -33.1961 -2.2304
27 25 18 2.1540 -2.7271
27 25 20 -7.0554 9.4934
27 25 22 -3.0842 -3.1994
27 25 24 -20.6148 -0.1083
27 25 26 -5.8509 -3.3940
27 25 28 -11.3178 -11.0298
27 25 30 -2.9094 -1.7802
27 25 32 -13.3118 14.2103
27 26 1 10.4126 -14.3530
27 26 3 6.1658 -3.0994
27 26 5 10.7793 20.1723
27 26 7 -14.6612 -0.6089
27 26 9 -0.7671 -16.7506
27 26 11 5.1441 1.0830
27 26 13 -5.3933 3.2187
27 26 15 2.9110 2.8751
27 26 17 1.0410 7.1246
27 26 19 5.2543 -10.7862
27 26 21 1.1273 8.7322
27 26 23 2.6078 17.5146
27 26 25 3.6743 4.0519
27 26 27 16.7659 3.3691
27 26 29 -9.0378 -11.6475
27 26 31 -2.3962 0.3956
27 27 0 -37.9589 0.3524
27 27 2 -6.2781 1.3845
27 27 4 25.5978 0.0950
27 27 6 3.2719 0.7999
27 27 8 -11.8132 -0.1052
27 27 10 -2.1453 0.2856
27 27 12 -10.2968 -0.1101
27 27 14 27.1615 0.1135
27 27 16 32.9495 -0.0224
27 27 18 0.1169 -0.3343
27 27 20 -8.2169 0.0437
27 27 22 12.3679 -0.0491
27 27 24 -19.4703 -0.0353
27 27 26 18.0869 -0.0928
27 27 28 17.7403 -0.0348
27 27 30 6.0977 -0.1316
28 0 0 -13.9748 0.8658
28 0 2 -0.3130 -31.7090
28 0 4 -13.5472 4.8127
28 0 6 -0.4119 -39.4728
28 0 8 19.0249 4.2350
28 0 10 -0.0307 -18.1749
28 0 12 -24.9029 0.5473
28 0 14 0.2479 -2.0831
28 0 16 26.6002 0.1619
28 0 18 0.1474 -14.4588
28 0 20 -3.6942 -0.9193
28 0 22 -0.0180 -16.3737
28 0 24 8.3693 -0.8533
28 0 26 -0.1034 2.0470
28 0 28 18.1278 -0.1954
28 0 30 0.0025 -0.2391
28 0 32 16.4395 -0.0289
28 0 34 0.0005 20.2112
28 0 36 15.0959 -0.0691
28 0 38 0.0066 21.7121
28 1 1 -27.9124 -80.8638
28 1 3 58.1756 59.5442
28 1 5 -6.8838 -4.4028
28 1 7 40.5103 -75.4523
28 1 9 13.9902 11.7073
28 1 11 29.4897 -25.7013
28 1 13 -20.9966 -3.7961
28 1 15 25.9864 -3.0114
28 1 17 -2.5189 -15.8611
28 1 19 2.4006 0.4706
28 1 21 -10.7353 -5.5528
28 1 23 0.9982 -6.9050
28 1 25 -23.6876 -2.9270
28 1 27 10.7294 2.6846
28 1 29 2.5024 -0.8317
28 1 31 -13.7556 12.8173
28 1 33 3.1638 -2.5170
28 1 35 -0.8840 -0.2018
28 1 37 0.8202 -0.1733
28 2 0 1.7407 1.7548
28 2 2 -6.9098 -4.4428
28 2 4 -1.3855 59.5692
28 2 6 -37.5057 -29.9369
28 2 8 15.1818 4.5132
28 2 10 -57.9049 39.0070
28 2 12 -13.6426 -7.9338
28 2 14 16.2701 45.3397
28 2 16 -17.2486 -11.2693
28 2 18 29.6943 -2.2751
28 2 20 -2.9821 -23.5852
28 2 22 4.3988 24.9870
28 2 24 7.9811 10.2807
28 2 26 -9.8218 -12.6836
28 2 28 -6.0964 -0.6361
28 2 30 1.0535 2.8868
28 2 32 -5.2350 2.8062
28 2 34 -2.7840 -18.5464
28 2 36 -19.2353 -2.5042
28 2 38 -0.1898 18.2147
28 3 1 -4.6464 -73.3786
28 3 3 0.6111 -21.2924
28 3 5 -73.5630 -66.6381
28 3 7 -8.7863 -20.0904
28 3 9 56.6990 73.3760
28 3 11 0.4871 -21.7858
28 3 13 -20.8968 -10.6396
28 3 15 20.0026 0.8744
28 3 17 -1.5647 -13.3747
28 3 19 -6.5108 1.1881
28 3 21 13.3709 9.6702
28 3 23 5.5019 -2.1192
28 3 25 -15.1631 -2.5099
28 3 27 21.8768 5.2691
28 3 29 1.0401 -2.1211
28 3 31 12.5600 -2.3977
28 3 33 -2.1519 10.9510
28 3 35 -1.4810 -2.1269
28 3 37 4.4041 0.0136
28 4 0 10.7633 0.5683
28 4 2 28.1695 2.4042
28 4 4 -17.9669 3.7352
28 4 6 -26.7082 -6.3382
28 4 8 14.2210 25.8389
28 4 10 8.1143 -77.4098
28 4 12 -15.3647 -9.1488
28 4 14 9.8053 50.5862
28 4 16 3.1001 -3.0664
28 4 18 11.7214 33.6669
28 4 20 -8.4617 14.9959
28 4 22 14.8261 9.4575
28 4 24 4.5983 13.5577
28 4 26 12.3087 -13.1284
28 4 28 -1.7310 0.7976
28 4 30 -3.4349 -1.4053
28 4 32 -1.6166 2.4423
28 4 34 -5.9962 -5.8217
28 4 36 26.7251 13.4828
28 4 38 -5.8121 -7.0975
28 5 1 18.1264 17.5304
28 5 3 9.3954 -6.3498
28 5 5 -28.6509 -24.9135
28 5 7 20.9315 -31.1484
28 5 9 -2.0871 -29.1477
28 5 11 22.8228 -20.0227
28 5 13 -4.5999 11.5254
28 5 15 12.1804 -6.3056
28 5 17 -22.5230 15.1934
28 5 19 -0.3242 1.7122
28 5 21 -4.7062 -2.8478
28 5 23 -8.7395 0.4578
28 5 25 2.1996 6.3282
28 5 27 6.6189 8.2264
28 5 29 -14.6338 -0.9831
28 5 31 1.8630 -1.5719
28 5 33 -22.8541 -12.3945
28 5 35 2.7138 -0.8537
28 5 37 19.6255 -1.8665
28 6 0 8.8708 -1.1173
28 6 2 -23.5802 7.2139
28 6 4 7.8118 -13.3098
28 6 6 7.8606 -1.8007
28 6 8 -10.2755 8.5488
28 6 10 -1.7055 -23.4824
28 6 12 -4.3067 9.5869
28 6 14 -43.5314 39.3827
28 6 16 13.7955 28.0510
28 6 18 23.3363 -19.7502
28 6 20 -5.4272 -23.9924
28 6 22 15.6951 -1.3940
28 6 24 -7.3509 5.8527
28 6 26 7.7351 1.1897
28 6 28 2.0181 2.2335
28 6 30 10.6598 12.3840
28 6 32 3.0753 -10.8878
28 6 34 -1.1428 -0.7074
28 6 36 1.1485 -1.0399
28 6 38 14.4051 -0.2488
28 7 1 22.4601 19.6208
28 7 3 -0.3438 34.0283
28 7 5 -1.2263 9.0349
28 7 7 46.0168 -12.5351
28 7 9 11.3170 -5.8598
28 7 11 54.5329 -2.9657
28 7 13 14.8015 9.5842
28 7 15 -2.7217 -1.6571
28 7 17 -4.0294 5.6734
28 7 19 12.3782 -9.6054
28 7 21 -6.1733 -4.7106
28 7 23 -10.5579 0.6729
28 7 25 4.4047 1.0119
28 7 27 -4.1178 0.6536
28 7 29 0.9612 -1.9035
28 7 31 2.2819 -2.5943
28 7 33 0.5572 -0.4279
28 7 35 7.3771 11.2086
28 7 37 6.1326 18.0387
28 8 0 11.9129 -2.1934
28 8 2 1.1037 20.1309
28 8 4 -23.0638 -34.3735
28 8 6 2.9370 -15.4158
28 8 8 -13.8930 6.1334
28 8 10 6.4563 64.0286
28 8 12 -12.4507 10.7774
28 8 14 -23.1825 13.9436
28 8 16 11.1598 13.7814
28 8 18 10.1702 27.6417
28 8 20 7.0562 4.1954
28 8 22 -3.2720 -22.2312
28 8 24 16.7069 1.6020
28 8 26 -4.6513 0.1775
28 8 28 -19.1090 4.6108
28 8 30 -2.9303 -6.5844
28 8 32 6.1036 0.8978
28 8 34 15.2378 14.8680
28 8 36 14.7127 -17.4334
28 9 1 27.5818 28.4372
28 9 3 -13.3609 -43.9563
28 9 5 -20.7248 -38.6282
28 9 7 -7.3165 -18.6452
28 9 9 1.2901 16.8509
28 9 11 -18.3941 -1.8584
28 9 13 -0.4007 -2.5379
28 9 15 10.3869 -11.9204
28 9 17 7.5859 -20.2772
28 9 19 6.7884 -1.6377
28 9 21 -1.1040 -7.4590
28 9 23 0.6452 -14.2679
28 9 25 3.9348 5.7152
28 9 27 -0.4219 4.5936
28 9 29 6.7566 17.3984
28 9 31 -0.0546 -14.9610
28 9 33 -15.9710 -9.0182
28 9 35 -12.9769 12.4651
28 9 37 5.0794 5.2499
28 10 0 -17.4361 -2.7928
28 10 2 3.7686 19.2088
28 10 4 23.3719 -20.0102
28 10 6 4.9872 23.0688
28 10 8 -14.9531 7.1122
28 10 10 -9.6384 3.5332
28 10 12 0.1790 -12.3097
28 10 14 -29.2689 2.2050
28 10 16 11.7891 -3.2846
28 10 18 0.3420 -6.3604
28 10 20 6.1815 6.2703
28 10 22 -8.2381 -4.8048
28 10 24 -3.3913 -18.5995
28 10 26 13.9782 -8.4314
28 10 28 15.2063 6.0818
28 10 30 14.2201 3.8764
28 10 32 6.8652 1.6636
28 10 34 -10.2762 4.9453
28 10 36 -1.1940 15.4491
28 11 1 -22.6640 -9.4651
28 11 3 -9.0976 -32.1457
28 11 5 -4.0692 -10.7973
28 11 7 23.2632 1.8300
28 11 9 -21.0723 -10.0734
28 11 11 7.4204 -9.5913
28 11 13 1.7162 -8.5445
28 11 15 1.5080 15.3992
28 11 17 -7.9795 1.4446
28 11 19 -3.7590 -13.2408
28 11 21 -6.1003 -16.7273
28 11 23 11.1991 0.9369
28 11 25 -4.8693 13.8538
28 11 27 13.4315 7.3520
28 11 29 -1.0751 3.1558
28 11 31 12.8545 -3.1742
28 11 33 3.5257 7.7825
28 11 35 -3.9442 -16.5642
28 11 37 0.3816 -3.1582
28 12 0 -14.6654 -2.7423
28 12 2 13.6616 -6.9112
28 12 4 10.7917 15.4941
28 12 6 10.1032 -11.0697
28 12 8 -0.2717 -12.0965
28 12 10 4.8673 -13.2455
28 12 12 -14.0178 -24.3296
28 12 14 4.4743 15.5446
28 12 16 -9.8862 -13.9790
28 12 18 12.3126 -15.3206
28 12 20 1.0177 2.4494
28 12 22 -13.4127 3.5868
28 12 24 11.6018 7.7533
28 12 26 10.4780 -6.1326
28 12 28 -10.0256 2.9270
28 12 30 10.0435 6.9965
28 12 32 -14.7174 1.0649
28 12 34 6.7189 -13.5087
28 12 36 4.3169 -10.9745
28 13 1 -40.6293 -38.0316
28 13 3 0.9720 -4.2279
28 13 5 -21.6129 28.7714
28 13 7 -5.7048 -13.5579
28 13 9 -10.8153 25.4545
28 13 11 16.4896 8.8997
28 13 13 20.7747 13.0576
28 13 15 -12.5941 8.1635
28 13 17 -11.5617 -1.1606
28 13 19 -1.6768 -2.8198
28 13 21 -15.0886 -5.5847
28 13 23 -9.0655 10.7819
28 13 25 13.7854 -2.6894
28 13 27 -9.5550 2.9415
28 13 29 -11.6128 2.9552
28 13 31 -5.6521 18.8457
28 13 33 -0.1621 -1.5537
28 13 35 -20.7913 4.0212
28 14 0 -34.3210 -2.2928
28 14 2 31.6312 -32.7172
28 14 4 29.7173 19.3096
28 14 6 -21.2425 -26.7014
28 14 8 -9.1020 -1.5498
28 14 10 16.4456 1.7445
28 14 12 7.0858 29.6291
28 14 14 0.8932 -5.3482
28 14 16 3.9669 2.6626
28 14 18 11.5343 6.9671
28 14 20 -3.4092 -5.2207
28 14 22 -4.7968 4.5592
28 14 24 -6.8327 6.8518
28 14 26 22.3045 5.1764
28 14 28 -3.1725 -2.3096
28 14 30 -1.2644 -6.3697
28 14 32 9.2233 -11.5478
28 14 34 16.9863 -1.1382
28 14 36 -0.7165 -0.6489
28 15 1 -40.6304 -13.4132
28 15 3 7.0101 -6.2937
28 15 5 -5.2852 48.7923
28 15 7 18.1411 -12.4369
28 15 9 3.3780 -6.6557
28 15 11 -3.1839 29.1813
28 15 13 -12.8301 2.9308
28 15 15 -7.1724 4.0275
28 15 17 -8.7726 -2.6006
28 15 19 11.3393 -5.7153
28 15 21 -17.4552 -14.2145
28 15 23 -6.8419 -2.1273
28 15 25 -0.7767 13.6875
28 15 27 -14.1755 -2.0226
28 15 29 24.7793 19.7399
28 15 31 2.8428 2.7525
28 15 33 1.5252 1.7886
28 15 35 -10.3550 -15.7129
28 16 0 19.9983 -1.7846
28 16 2 2.2746 -13.9340
28 16 4 -47.9639 5.7311
28 16 6 -27.0775 1.2660
28 16 8 -29.6148 4.1941
28 16 10 -14.0340 25.3829
28 16 12 -15.2571 12.6920
28 16 14 21.8142 -31.7139
28 16 16 -2.5439 14.7886
28 16 18 -8.1663 -18.0166
28 16 20 6.2904 8.8744
28 16 22 -5.8425 -6.5124
28 16 24 4.1099 -12.4632
28 16 26 -6.5912 1.7542
28 16 28 3.8832 0.4286
28 16 30 11.6485 8.0981
28 16 32 6.2941 1.5214
28 16 34 18.7415 9.5885
28 17 1 -14.4070 -19.9213
28 17 3 -41.2126 -64.8163
28 17 5 -8.4832 12.4851
28 17 7 30.3203 4.0126
28 17 9 13.7171 5.5026
28 17 11 1.3201 -11.2777
28 17 13 -12.6891 -25.8138
28 17 15 13.4003 -8.2444
28 17 17 -19.0254 -11.5547
28 17 19 -4.1230 -7.9648
28 17 21 6.1253 -8.2910
28 17 23 -8.4784 5.4425
28 17 25 5.2856 -11.3388
28 17 27 0.6535 14.7173
28 17 29 0.2740 -0.1967
28 17 31 -16.4057 13.4198
28 17 33 16.8225 -15.5971
28 17 35 19.1458 -6.8520
28 18 0 36.7739 -1.6350
28 18 2 28.1520 21.3583
28 18 4 -33.2123 27.4795
28 18 6 10.6723 27.7391
28 18 8 32.2144 -8.9714
28 18 10 5.1394 -13.7696
28 18 12 -15.6884 33.7493
28 18 14 6.8435 7.7630
28 18 16 28.0400 2.2511
28 18 18 0.1111 0.0192
28 18 20 -9.8034 0.4358
28 18 22 -4.8023 0.4953
28 18 24 1.2138 10.9839
28 18 26 0.0133 1.1161
28 18 28 -9.7036 8.7372
28 18 30 0.1098 -1.0125
28 18 32 16.5973 9.5635
28 18 34 21.6389 15.9575
28 19 1 1.1735 16.7486
28 19 3 -22.2216 23.5396
28 19 5 3.3675 2.8660
28 19 7 19.7492 0.6108
28 19 9 33.8704 -18.7098
28 19 11 17.8653 -18.8932
28 19 13 -22.7206 -25.9322
28 19 15 10.2150 -3.7770
28 19 17 15.2325 8.1727
28 19 19 -9.6903 7.0446
28 19 21 -19.1559 7.4467
28 19 23 -3.1713 -6.7742
28 19 25 1.2437 2.3789
28 19 27 -0.5251 -6.4178
28 19 29 3.6664 2.7339
28 19 31 2.7554 12.2694
28 19 33 -2.8931 8.1201
28 20 0 30.6106 -1.9421
28 20 2 0.8716 -25.1555
28 20 4 -11.5103 -18.5586
28 20 6 -3.2869 59.6216
28 20 8 5.5457 -25.5293
28 20 10 -5.0434 36.2183
28 20 12 -5.3071 -22.0814
28 20 14 -26.2391 -14.4914
28 20 16 0.7285 -21.5010
28 20 18 -5.8330 -20.6002
28 20 20 -0.0712 10.8861
28 20 22 11.9848 3.0485
28 20 24 -5.7420 9.6031
28 20 26 9.3293 -9.9313
28 20 28 -15.3523 -3.2066
28 20 30 4.4577 13.6750
28 20 32 6.7267 14.9238
28 20 34 1.7481 -18.3338
28 21 1 8.5838 -0.4319
28 21 3 -4.7809 62.8913
28 21 5 -11.8525 6.2872
28 21 7 24.3638 -26.3503
28 21 9 9.6648 36.7940
28 21 11 16.1525 6.5823
28 21 13 -8.2053 20.9969
28 21 15 6.6424 4.7432
28 21 17 8.1592 9.1564
28 21 19 8.3987 0.9643
28 21 21 0.3826 5.6206
28 21 23 -20.5341 9.8117
28 21 25 0.6708 1.2525
28 21 27 3.8977 2.3420
28 21 29 -9.0290 -15.3649
28 21 31 10.1000 9.5904
28 21 33 0.8551 -14.2435
28 22 0 -8.8942 -2.3042
28 22 2 -4.1692 -36.3753
28 22 4 6.2933 -15.4140
28 22 6 -38.4245 -4.4651
28 22 8 -9.6034 -1.1269
28 22 10 40.1735 -15.7406
28 22 12 -3.9162 1.3917
28 22 14 46.5145 29.0617
28 22 16 0.0312 21.9082
28 22 18 11.7208 -29.3462
28 22 20 13.9866 -15.0098
28 22 22 -14.5107 6.7218
28 22 24 0.2273 8.2415
28 22 26 15.6683 4.9296
28 22 28 7.1742 3.9367
28 22 30 2.9988 3.2653
28 22 32 -12.1130 -14.5215
28 23 1 -44.3972 17.2271
28 23 3 39.6023 39.8700
28 23 5 -19.4251 52.0077
28 23 7 -33.5816 -1.2910
28 23 9 23.0481 8.5103
28 23 11 -30.3154 19.3908
28 23 13 -9.0312 -15.2932
28 23 15 10.8126 -5.6273
28 23 17 -0.0841 -0.0186
28 23 19 -4.3525 -16.4525
28 23 21 -8.7466 -2.3275
28 23 23 -3.9374 -2.5013
28 23 25 4.8044 5.3494
28 23 27 6.2549 24.1599
28 23 29 -5.2766 11.3502
28 23 31 -7.9706 15.7279
28 24 0 12.2946 -2.7305
28 24 2 34.2186 -19.8619
28 24 4 -0.1704 -7.7991
28 24 6 -59.4011 -17.1396
28 24 8 0.8296 2.2448
28 24 10 -68.4510 -2.0270
28 24 12 -9.7413 1.4969
28 24 14 -20.0229 -52.2797
28 24 16 3.1746 8.7451
28 24 18 -17.6676 -8.4812
28 24 20 16.7912 -3.9780
28 24 22 1.1333 9.3226
28 24 24 -18.5482 -3.2747
28 24 26 -2.5457 3.8573
28 24 28 -2.4248 -17.0527
28 24 30 4.1738 -7.7549
28 24 32 -1.0253 0.5009
28 25 1 36.5618 -30.0646
28 25 3 32.2633 22.1528
28 25 5 3.5654 -8.8765
28 25 7 18.7509 22.6859
28 25 9 -10.3131 9.5333
28 25 11 2.7400 2.1289
28 25 13 -2.0024 -2.8895
28 25 15 1.8641 -5.6257
28 25 17 -7.2448 5.2590
28 25 19 -9.6475 -14.6852
28 25 21 -5.9669 11.2738
28 25 23 -0.6774 11.7853
28 25 25 -13.5445 9.3122
28 25 27 -11.8657 -12.7159
28 25 29 5.3133 -0.4414
28 25 31 1.6643 -10.7607
28 26 0 10.0149 -2.7225
28 26 2 -36.8341 43.3857
28 26 4 -5.3970 14.8387
28 26 6 7.3022 29.1643
28 26 8 -11.0450 -14.5004
28 26 10 -10.4840 48.8693
28 26 12 10.4584 -16.5272
28 26 14 -11.7464 -20.3765
28 26 16 -2.3820 1.8707
28 26 18 4.4002 -15.4200
28 26 20 6.7756 -13.6423
28 26 22 2.1652 7.5887
28 26 24 4.6060 -1.0253
28 26 26 -19.4452 3.8957
28 26 28 4.9868 1.5464
28 26 30 -8.9004 12.5658
28 27 1 0.0846 0.8242
28 27 3 -3.4776 24.7262
28 27 5 7.8936 -9.5493
28 27 7 1.3047 19.1799
28 27 9 2.4525 -5.7438
28 27 11 -9.2761 17.9175
28 27 13 5.3323 7.9798
28 27 15 -6.4482 2.4544
28 27 17 11.4966 8.3763
28 27 19 1.1920 4.5350
28 27 21 6.6660 -6.2102
28 27 23 0.8535 -12.7634
28 27 25 -22.5766 -5.4331
28 27 27 -11.1167 1.8983
28 27 29 -0.6826 -6.9106
28 28 0 1.4662 -2.3866
28 28 2 -8.1667 -0.1920
28 28 4 11.1806 -1.2219
28 28 6 24.3942 -0.0833
28 28 8 -8.4451 -0.2376
28 28 10 -6.5328 0.1145
28 28 12 6.5949 -0.3800
28 28 14 -11.8439 0.0509
28 28 16 -6.8388 0.2064
28 28 18 17.7132 0.0018
28 28 20 -8.2291 0.1880
28 28 22 -22.0529 0.0601
28 28 24 -24.4426 -0.0074
28 28 26 -17.3130 0.0778
28 28 28 -16.4020 0.2289
29 0 1 10.8236 11.8449
29 0 3 10.1260 -8.4241
29 0 5 23.9864 21.8298
29 0 7 -16.0045 20.6287
29 0 9 15.6816 11.0722
29 0 11 5.5649 -2.7215
29 0 13 -9.2662 -10.5021
29 0 15 -12.7774 13.1426
29 0 17 -8.4117 -8.8675
29 0 19 -2.5240 4.0723
29 0 21 0.1133 -0.9074
29 0 23 -9.0009 9.6951
29 0 25 -1.0296 -1.4324
29 0 27 5.0801 -4.9945
29 0 29 6.5743 6.5667
29 0 31 -1.1002 1.0570
29 0 33 20.2642 20.1312
29 0 35 -0.1974 0.0796
29 0 37 -8.4821 -8.3655
29 1 0 34.6644 0.3005
29 1 2 6.6801 -7.4687
29 1 4 -24.1470 -5.4624
29 1 6 -11.3321 28.3087
29 1 8 -44.8892 4.9474
29 1 10 16.3509 21.0581
29 1 12 3.8351 -31.5734
29 1 14 15.4760 -8.8279
29 1 16 -11.5219 -6.7282
29 1 18 -11.2086 -1.7768
29 1 20 13.6806 2.3982
29 1 22 2.0199 14.3174
29 1 24 0.4475 7.4983
29 1 26 1.7656 19.3306
29 1 28 -0.8137 -2.4561
29 1 30 -11.1019 7.5859
29 1 32 -6.3288 3.7571
29 1 34 20.8271 2.6505
29 1 36 24.9443 0.3106
29 2 1 -24.8385 -41.4434
29 2 3 0.3364 26.2073
29 2 5 -121.0499 -34.5793
29 2 7 -16.7294 -27.9586
29 2 9 -12.3848 20.5067
29 2 11 11.3541 2.1352
29 2 13 4.7870 -4.2859
29 2 15 6.5911 9.1646
29 2 17 -7.3280 25.9545
29 2 19 -16.5156 -7.5603
29 2 21 -0.4634 7.4050
29 2 23 5.6721 -2.3408
29 2 25 -0.4317 4.3535
29 2 27 6.3011 -12.8637
29 2 29 -10.9387 18.3117
29 2 31 -2.2775 8.7399
29 2 33 6.6734 -14.3495
29 2 35 -15.6372 1.5266
29 2 37 1.9152 1.8425
29 3 0 -23.2812 -0.0267
29 3 2 9.8293 3.9063
29 3 4 -54.4646 -11.4905
29 3 6 -3.1959 -24.2270
29 3 8 62.2093 -48.3899
29 3 10 12.2555 47.4214
29 3 12 8.7572 -69.0012
29 3 14 -16.7849 -7.0586
29 3 16 -16.8889 -33.4545
29 3 18 17.4735 16.6092
29 3 20 -7.3198 31.4647
29 3 22 -3.3480 10.3588
29 3 24 4.9563 -2.6198
29 3 26 2.8657 -4.8428
29 3 28 0.2311 14.2501
29 3 30 9.1583 19.1046
29 3 32 3.3774 2.7151
29 3 34 -14.7812 -3.1720
29 3 36 -19.5038 -10.0389
29 4 1 16.7572 76.5031
29 4 3 20.4173 44.9801
29 4 5 -44.6446 19.9160
29 4 7 -12.0424 -20.3108
29 4 9 18.2651 4.6866
29 4 11 56.5438 0.8274
29 4 13 18.0627 -12.9069
29 4 15 -4.1845 17.8985
29 4 17 -9.2082 -0.1303
29 4 19 -12.6636 8.1435
29 4 21 5.1661 -7.9635
29 4 23 -3.9187 2.6675
29 4 25 4.6680 -21.5371
29 4 27 -15.3500 5.1643
29 4 29 -2.5714 -0.3091
29 4 31 0.5834 2.4050
29 4 33 7.2605 3.6170
29 4 35 -2.9904 -0.4527
29 4 37 11.7638 -16.0237
29 5 0 7.1539 -0.2382
29 5 2 10.3828 16.3446
29 5 4 14.6331 -0.3202
29 5 6 7.7132 15.3917
29 5 8 35.2670 5.9996
29 5 10 8.2729 37.1838
29 5 12 52.0071 35.5769
29 5 14 -7.0664 -0.9431
29 5 16 -7.5803 -29.9458
29 5 18 8.9532 -3.2251
29 5 20 -21.7344 -13.3403
29 5 22 -5.2727 -11.6657
29 5 24 -5.1302 -4.5846
29 5 26 -1.2853 -11.6707
29 5 28 2.0047 -11.2146
29 5 30 11.6805 -14.3317
29 5 32 2.3717 2.7709
29 5 34 -11.4521 -10.3745
29 5 36 -12.3371 12.1271
29 6 1 -2.4860 -16.9766
29 6 3 -5.7701 13.1245
29 6 5 -49.7395 -31.6526
29 6 7 7.0602 21.8052
29 6 9 -22.6727 17.1285
29 6 11 68.0590 -43.8576
29 6 13 3.7428 -24.1713
29 6 15 -20.1629 -13.9146
29 6 17 -5.3615 -2.2674
29 6 19 15.1219 -13.4818
29 6 21 4.2612 -0.4213
29 6 23 -0.8972 -6.4007
29 6 25 -2.0343 -12.8216
29 6 27 -5.4954 5.6888
29 6 29 -9.6280 15.1058
29 6 31 -17.1998 -0.7431
29 6 33 -1.0008 1.7790
29 6 35 14.6027 -4.9001
29 6 37 -17.4222 9.5175
29 7 0 24.4589 -0.2562
29 7 2 -8.9807 -39.6370
29 7 4 -17.5574 -10.5512
29 7 6 1.3111 7.9748
29 7 8 -12.9786 -36.4706
29 7 10 -35.2753 -17.8010
29 7 12 -25.1883 -6.7711
29 7 14 8.4112 -11.4505
29 7 16 8.8193 -5.4612
29 7 18 -6.1610 6.8568
29 7 20 -13.5268 -0.1923
29 7 22 -2.7539 -8.7288
29 7 24 -2.9889 8.8334
29 7 26 14.7865 12.2448
29 7 28 2.4297 -1.1938
29 7 30 -9.6705 -13.8766
29 7 32 3.9954 0.4818
29 7 34 14.5617 -1.8175
29 7 36 1.8616 -0.5486
29 8 1 -3.0782 35.2124
29 8 3 29.5702 -14.5834
29 8 5 -5.7446 -25.1625
29 8 7 1.8850 -22.1334
29 8 9 4.3232 19.8638
29 8 11 39.2521 -22.1617
29 8 13 10.3057 0.1156
29 8 15 -7.4430 9.9449
29 8 17 -6.9661 -16.1039
29 8 19 -1.9963 7.7186
29 8 21 0.9401 -3.0752
29 8 23 0.3055 0.3793
29 8 25 -6.9847 -7.0296
29 8 27 -7.8863 2.6952
29 8 29 0.0713 -3.3131
29 8 31 -2.4920 -6.1429
29 8 33 -3.4091 -1.2172
29 8 35 -2.8798 -9.8060
29 8 37 -1.2271 -2.5030
29 9 0 -14.7548 -0.3495
29 9 2 4.8159 -56.9540
29 9 4 -5.4991 8.0507
29 9 6 -34.6087 23.9449
29 9 8 -25.1176 3.8867
29 9 10 -13.0494 -1.4568
29 9 12 1.9758 2.0601
29 9 14 10.1955 14.6763
29 9 16 0.6502 -7.8162
29 9 18 -3.2496 19.1295
29 9 20 -12.5554 5.4949
29 9 22 17.8876 11.9901
29 9 24 11.2225 -2.3832
29 9 26 13.0890 1.9962
29 9 28 2.9546 -0.5873
29 9 30 14.6683 5.1583
29 9 32 -1.4780 4.8059
29 9 34 12.4489 -2.5813
29 9 36 -0.2481 2.0273
29 10 1 31.6234 -33.8909
29 10 3 8.1556 38.4041
29 10 5 -12.2706 14.4609
29 10 7 -14.9297 -38.8519
29 10 9 12.9813 -6.9448
29 10 11 -14.0031 -0.2192
29 10 13 -2.6939 17.5960
29 10 15 5.0960 2.7844
29 10 17 -1.9720 -7.5701
29 10 19 -3.4539 -6.5961
29 10 21 -5.6137 -2.9337
29 10 23 2.6466 -4.6020
29 10 25 -3.2210 -10.8961
29 10 27 5.2796 -8.9017
29 10 29 12.5130 5.3955
29 10 31 1.1141 2.0834
29 10 33 -8.9854 -1.3280
29 10 35 -4.9235 -0.0332
29 11 0 -3.0860 -0.5424
29 11 2 -8.9615 8.5582
29 11 4 -1.8364 -8.2179
29 11 6 1.5636 -17.7512
29 11 8 -0.4931 4.2422
29 11 10 -32.5398 21.8700
29 11 12 -17.8584 12.2322
29 11 14 -0.7335 -1.8125
29 11 16 0.0958 -7.7881
29 11 18 -8.3255 -7.8264
29 11 20 17.1059 5.2608
29 11 22 9.4757 8.3999
29 11 24 -5.4457 6.8915
29 11 26 -2.0642 -4.9283
29 11 28 7.2881 0.9294
29 11 30 -6.7215 2.1330
29 11 32 5.3053 1.3268
29 11 34 -6.8004 -14.6714
29 11 36 1.5131 1.5964
29 12 1 -7.8681 -0.1718
29 12 3 -9.1895 33.5611
29 12 5 12.9763 -2.0086
29 12 7 7.7006 11.4820
29 12 9 -20.1095 5.1304
29 12 11 -26.7808 3.7347
29 12 13 19.2566 -0.8322
29 12 15 2.9638 -9.0544
29 12 17 -14.6410 9.1474
29 12 19 -3.3552 -4.2767
29 12 21 -8.3810 4.7562
29 12 23 -14.1488 9.5949
29 12 25 9.0962 -12.2468
29 12 27 2.2059 5.5957
29 12 29 -8.8556 12.7870
29 12 31 5.0966 3.9195
29 12 33 10.3207 -13.5959
29 12 35 0.7273 5.5631
29 13 0 -33.5663 -0.7290
29 13 2 26.1716 1.5797
29 13 4 -38.6749 7.8939
29 13 6 -46.7192 22.6136
29 13 8 19.1876 33.1850
29 13 10 -40.1708 -6.7971
29 13 12 -15.6874 -5.9276
29 13 14 -8.5368 -2.5969
29 13 16 21.1065 11.4803
29 13 18 -11.9646 11.7224
29 13 20 -8.1161 10.5604
29 13 22 0.2509 -7.1892
29 13 24 3.6179 -2.1903
29 13 26 19.6813 -1.3949
29 13 28 1.8517 -0.0547
29 13 30 -10.1697 0.4019
29 13 32 2.6621 -0.5329
29 13 34 -0.0770 3.1152
29 13 36 3.3041 -1.8175
29 14 1 17.5374 -8.6201
29 14 3 11.9390 -61.1402
29 14 5 -26.5060 -23.3294
29 14 7 3.4544 -13.2603
29 14 9 28.2927 -4.3864
29 14 11 -19.7147 -12.9732
29 14 13 20.3253 0.0094
29 14 15 0.7962 -7.7465
29 14 17 20.0312 5.6535
29 14 19 -21.8488 -6.8831
29 14 21 5.8578 17.8800
29 14 23 1.2069 -10.9298
29 14 25 10.5864 -19.4709
29 14 27 -11.9406 5.2234
29 14 29 -13.7445 15.6572
29 14 31 17.5584 7.5220
29 14 33 -1.2544 -8.6403
29 14 35 -1.9225 -1.2777
29 15 0 30.4824 -0.6807
29 15 2 4.9431 -17.8044
29 15 4 2.8325 18.1611
29 15 6 25.2399 3.4654
29 15 8 14.9893 23.8649
29 15 10 -3.4839 2.5367
29 15 12 3.6174 19.7344
29 15 14 -22.2141 -21.0187
29 15 16 -27.3598 -10.9417
29 15 18 -9.5706 13.6477
29 15 20 9.6454 11.7245
29 15 22 13.0811 7.7918
29 15 24 15.9054 3.7168
29 15 26 11.8922 -0.9692
29 15 28 1.7641 3.7455
29 15 30 5.2912 -13.0832
29 15 32 1.9026 4.8892
29 15 34 -8.2270 12.4921
29 16 1 -63.5777 50.2920
29 16 3 46.3920 -4.6745
29 16 5 16.0057 44.9868
29 16 7 -30.9203 -4.9322
29 16 9 -8.4948 19.2032
29 16 11 -20.9171 11.8980
29 16 13 -20.0306 -11.2736
29 16 15 11.8413 10.9190
29 16 17 -3.0438 -3.0609
29 16 19 -16.3581 12.0732
29 16 21 -10.1934 -6.2100
29 16 23 -10.4623 -13.5747
29 16 25 -7.8287 7.3306
29 16 27 18.6204 1.6764
29 16 29 0.2938 -18.0921
29 16 31 -23.5041 12.8132
29 16 33 8.4519 14.6984
29 16 35 6.1006 25.4369
29 17 0 -2.8472 -0.5031
29 17 2 -1.5899 14.5762
29 17 4 -9.5553 -18.6175
29 17 6 11.3575 -8.6233
29 17 8 -13.2131 28.1538
29 17 10 8.7460 -21.7596
29 17 12 2.3404 2.6698
29 17 14 -0.8773 -0.0143
29 17 16 -22.0933 13.3501
29 17 18 -17.0374 14.9504
29 17 20 -2.9015 -7.0201
29 17 22 5.0871 -2.5481
29 17 24 6.2424 -12.8498
29 17 26 -0.3042 -4.5144
29 17 28 5.0371 3.0687
29 17 30 -10.7765 -3.2770
29 17 32 -18.2043 -0.2302
29 17 34 -6.6204 -1.8017
29 18 1 25.3411 51.4148
29 18 3 -13.1648 20.4224
29 18 5 33.7647 27.5115
29 18 7 6.4453 -11.9817
29 18 9 7.5045 18.9745
29 18 11 -28.5849 31.7586
29 18 13 6.1340 -21.9205
29 18 15 -9.6497 -14.0306
29 18 17 -2.8871 18.9145
29 18 19 14.4695 12.0998
29 18 21 3.8788 -2.9784
29 18 23 7.0473 8.6132
29 18 25 -2.1622 8.2109
29 18 27 -14.8398 -16.0957
29 18 29 0.9298 -11.0775
29 18 31 -2.4463 -10.8435
29 18 33 1.0548 -3.0146
29 19 0 -47.4126 -0.3483
29 19 2 12.4819 28.0559
29 19 4 14.6530 -15.0029
29 19 6 -6.2814 -13.5337
29 19 8 23.6273 42.5984
29 19 10 28.0935 14.8059
29 19 12 0.5445 15.2395
29 19 14 7.1539 -10.9972
29 19 16 3.8724 -4.3248
29 19 18 -8.9428 16.1000
29 19 20 11.4800 -14.8295
29 19 22 -5.5070 10.9366
29 19 24 4.6919 -11.4579
29 19 26 13.1870 4.2819
29 19 28 -12.9061 -14.8237
29 19 30 -4.2433 25.3593
29 19 32 10.9715 23.2883
29 20 1 38.6838 0.7792
29 20 3 -13.7886 27.0416
29 20 5 -34.5335 73.9714
29 20 7 -8.9705 37.4099
29 20 9 -31.6843 -10.5462
29 20 11 33.1631 -20.3009
29 20 13 5.1951 -13.3404
29 20 15 0.0128 -19.4333
29 20 17 18.8378 -3.7596
29 20 19 14.0959 14.6593
29 20 21 1.4220 -7.3384
29 20 23 8.1600 5.2497
29 20 25 9.8265 9.3535
29 20 27 7.6727 -2.5645
29 20 29 -17.7870 5.8855
29 20 31 1.1743 -2.7617
29 20 33 13.3676 -18.1390
29 21 0 44.3263 -0.1198
29 21 2 -5.1981 -25.8681
29 21 4 -39.3782 67.3931
29 21 6 26.7851 11.8371
29 21 8 -0.2771 34.2254
29 21 10 -13.6523 -14.9603
29 21 12 30.0726 -33.7423
29 21 14 5.3812 -0.8890
29 21 16 -33.1537 25.0789
29 21 18 6.6858 12.0932
29 21 20 30.6136 -9.3858
29 21 22 -0.9672 -7.2191
29 21 24 5.4813 8.5974
29 21 26 -1.1848 -7.9043
29 21 28 -9.4873 9.0954
29 21 30 -1.9511 -30.2519
29 21 32 20.0887 -4.3343
29 22 1 18.5084 35.7849
29 22 3 25.5449 -2.6777
29 22 5 61.7900 13.3640
29 22 7 17.4261 18.5998
29 22 9 17.4119 0.0371
29 22 11 -56.8204 -28.1977
29 22 13 -0.4657 -21.5133
29 22 15 -18.1140 -13.3494
29 22 17 -4.8635 -1.9041
29 22 19 1.2018 15.2353
29 22 21 -13.5742 5.1164
29 22 23 -12.9195 0.6988
29 22 25 -1.2928 -15.7986
29 22 27 1.3678 -11.7164
29 22 29 26.1613 5.2540
29 22 31 -18.0309 2.0935
29 23 0 -12.1247 0.0923
29 23 2 38.2986 -38.4723
29 23 4 24.9489 -39.5553
29 23 6 -16.9487 -17.7230
29 23 8 56.9920 -70.2606
29 23 10 -5.0208 14.9372
29 23 12 -49.7093 40.9153
29 23 14 -4.7070 18.2081
29 23 16 -29.7219 -60.4142
29 23 18 -6.2568 -5.0729
29 23 20 4.5711 3.3870
29 23 22 -2.3998 17.7518
29 23 24 6.2362 -9.4162
29 23 26 1.6990 11.9253
29 23 28 13.4640 -11.5218
29 23 30 -3.6478 -21.5620
29 24 1 -8.3978 17.1764
29 24 3 -9.5984 14.2607
29 24 5 -23.6094 -2.3187
29 24 7 6.4546 -8.4803
29 24 9 -19.7871 -5.9588
29 24 11 1.1794 4.7464
29 24 13 5.5826 -17.2904
29 24 15 0.4275 -4.9056
29 24 17 -0.5737 0.4205
29 24 19 -4.3906 -11.3395
29 24 21 1.4021 10.8150
29 24 23 -6.2024 15.9881
29 24 25 -0.9064 7.2690
29 24 27 -2.9699 -1.4667
29 24 29 -20.2820 -3.0418
29 24 31 18.3525 6.2813
29 25 0 -24.2874 0.3027
29 25 2 5.2939 -34.2198
29 25 4 50.0242 15.3396
29 25 6 9.5014 -2.8402
29 25 8 -27.5948 32.4360
29 25 10 4.0247 3.4471
29 25 12 -50.4204 -7.0650
29 25 14 -13.9745 5.7486
29 25 16 29.6700 -6.3953
29 25 18 0.1180 -4.6587
29 25 20 -7.4821 -7.6089
29 25 22 -5.5331 -24.4765
29 25 24 -1.4547 -4.9490
29 25 26 -3.1928 -2.3014
29 25 28 1.3210 -24.5631
29 25 30 3.2046 -14.7598
29 26 1 4.8824 16.9774
29 26 3 2.1299 4.9190
29 26 5 7.6021 19.0431
29 26 7 22.4990 -3.7454
29 26 9 -1.4953 -11.2450
29 26 11 4.3688 1.3480
29 26 13 4.7663 2.9658
29 26 15 -2.4832 3.9749
29 26 17 5.8325 5.0184
29 26 19 9.2224 -9.2425
29 26 21 0.7549 -13.3048
29 26 23 -5.9486 -10.7871
29 26 25 -2.5666 7.1595
29 26 27 -0.9107 5.9950
29 26 29 0.7397 -0.4690
29 27 0 -6.6315 0.4218
29 27 2 -6.4869 -1.2234
29 27 4 -22.0286 -17.0990
29 27 6 -0.5550 -12.0143
29 27 8 19.1049 5.1879
29 27 10 -4.8124 -11.4806
29 27 12 -17.2110 25.0612
29 27 14 1.4374 -10.4489
29 27 16 23.2810 -17.5022
29 27 18 7.2173 17.8567
29 27 20 3.1093 3.1246
29 27 22 -24.0595 4.9388
29 27 24 -11.4239 -2.9028
29 27 26 -4.7230 16.0740
29 27 28 -15.7385 -11.4686
29 28 1 16.5803 8.7164
29 28 3 -18.3656 2.0831
29 28 5 -3.5709 -15.9335
29 28 7 -3.4083 15.6923
29 28 9 -0.8924 0.7490
29 28 11 -14.5991 14.4450
29 28 13 -1.8893 6.5354
29 28 15 -5.0593 -6.4102
29 28 17 4.2131 4.4250
29 28 19 -1.5655 -10.2919
29 28 21 -3.4545 -3.7193
29 28 23 -7.1338 -18.0611
29 28 25 1.9717 1.5594
29 28 27 -1.7349 1.0041
29 29 0 -40.9396 0.4415
29 29 2 9.7027 0.7854
29 29 4 -38.4817 0.2204
29 29 6 -18.2573 0.4582
29 29 8 -13.9945 -0.0491
29 29 10 1.7362 0.1263
29 29 12 8.5252 -0.0985
29 29 14 -1.4576 0.1068
29 29 16 -13.2221 -0.0177
29 29 18 15.5763 -0.2407
29 29 20 22.6115 -0.0688
29 29 22 -16.7478 0.0349
29 29 24 13.3790 -0.0544
29 29 26 1.2159 -0.0708
30 0 0 -0.7391 0.1725
30 0 2 -0.1252 -8.6859
30 0 4 12.8973 3.4967
30 0 6 -0.1586 -39.4841
30 0 8 31.3146 3.2658
30 0 10 0.4506 3.4494
30 0 12 14.0617 0.2946
30 0 14 0.6349 -35.8590
30 0 16 19.1548 0.2048
30 0 18 0.4056 -3.4193
30 0 20 -23.8061 -0.7490
30 0 22 0.1541 -11.8665
30 0 24 -0.7531 -0.6596
30 0 26 -0.0308 6.6212
30 0 28 -7.4991 -0.1035
30 0 30 0.0140 -4.1320
30 0 32 27.4584 0.0192
30 0 34 0.0085 17.2101
30 0 36 18.9177 -0.0569
30 1 1 -6.7423 3.4473
30 1 3 -3.4693 -2.3589
30 1 5 1.9493 -6.3078
30 1 7 -46.6272 14.9825
30 1 9 -9.1319 18.1316
30 1 11 20.8939 1.0115
30 1 13 6.1435 -7.3983
30 1 15 15.4036 -7.4059
30 1 17 -4.0317 -8.9146
30 1 19 4.4930 10.3020
30 1 21 8.6712 13.9549
30 1 23 -3.4398 11.1781
30 1 25 -6.9387 12.5735
30 1 27 16.9426 -7.8862
30 1 29 -18.1889 14.9633
30 1 31 2.0769 2.6066
30 1 33 2.3334 -3.5773
30 1 35 -9.7719 24.3668
30 1 37 -13.2259 -3.9548
30 2 0 2.1910 0.8640
30 2 2 -34.6874 46.1846
30 2 4 5.4618 33.2208
30 2 6 -28.8992 -8.2037
30 2 8 17.5086 49.2629
30 2 10 8.2897 59.3072
30 2 12 -26.3953 -28.7750
30 2 14 9.4479 24.0498
30 2 16 -5.6325 16.3464
30 2 18 -22.1399 10.0731
30 2 20 1.6951 -18.1465
30 2 22 -1.8129 -15.3563
30 2 24 6.6327 5.1545
30 2 26 -8.8598 -6.8958
30 2 28 7.0454 7.6965
30 2 30 -4.6313 0.6359
30 2 32 -6.0583 -8.7711
30 2 34 -17.5256 9.2923
30 2 36 -1.6365 -17.5595
30 3 1 12.4685 -22.6074
30 3 3 20.1915 22.4204
30 3 5 0.1547 7.0041
30 3 7 -22.3468 -33.9647
30 3 9 -14.1550 -18.0661
30 3 11 9.2799 -4.6429
30 3 13 20.0097 -6.1826
30 3 15 19.1460 -8.0729
30 3 17 9.9600 -13.3674
30 3 19 -3.4384 -8.2546
30 3 21 5.4608 2.7387
30 3 23 -13.0518 3.9392
30 3 25 -11.0449 -18.0623
30 3 27 -1.7921 15.9448
30 3 29 19.8678 23.0031
30 3 31 7.9844 -12.8863
30 3 33 -14.2673 -2.5644
30 3 35 -20.8607 -4.7437
30 3 37 2.3443 0.8307
30 4 0 -3.1998 0.0942
30 4 2 24.1151 4.1059
30 4 4 -6.7819 -24.5554
30 4 6 -3.0524 -41.1152
30 4 8 -8.8358 -28.4309
30 4 10 56.7095 -41.8091
30 4 12 13.9099 -0.9114
30 4 14 5.5621 46.8614
30 4 16 8.3951 -9.6082
30 4 18 -8.1236 19.9235
30 4 20 13.2472 10.1365
30 4 22 -15.8429 3.4812
30 4 24 -4.0729 -6.9844
30 4 26 -10.0832 12.5887
30 4 28 -11.2592 9.6977
30 4 30 20.9670 -5.1131
30 4 32 -9.7579 -15.8297
30 4 34 15.0742 17.0936
30 4 36 6.2558 -23.0667
30 5 1 13.0884 -17.6663
30 5 3 -22.8578 -71.9203
30 5 5 -15.2352 20.8905
30 5 7 -85.6437 34.1332
30 5 9 27.0826 36.1860
30 5 11 1.7138 -10.3614
30 5 13 17.7683 -2.0514
30 5 15 6.2510 -15.0291
30 5 17 20.8245 -21.1209
30 5 19 -3.8386 -4.0572
30 5 21 -19.9004 1.0448
30 5 23 -6.8161 -10.8725
30 5 25 5.6529 11.3477
30 5 27 -3.5732 -12.7394
30 5 29 9.8062 -12.5490
30 5 31 5.1128 -0.2835
30 5 33 2.1441 19.4124
30 5 35 -0.6061 0.5761
30 5 37 -0.7189 -2.1962
30 6 0 13.6906 -1.1819
30 6 2 10.9751 -31.6150
30 6 4 -7.2391 18.6691
30 6 6 71.5751 -27.0315
30 6 8 23.5150 33.3788
30 6 10 -7.1937 39.8303
30 6 12 -7.5342 -6.9970
30 6 14 25.4527 -27.0216
30 6 16 28.0357 -3.3907
30 6 18 5.7066 -1.3866
30 6 20 -9.8712 -9.8822
30 6 22 -14.3919 -6.7233
30 6 24 13.5165 9.6599
30 6 26 -5.1963 1.7071
30 6 28 8.9852 3.8862
30 6 30 -1.8108 1.9659
30 6 32 7.6255 -20.8287
30 6 34 18.1961 8.0161
30 6 36 -9.6546 -8.6778
30 7 1 12.8616 2.8008
30 7 3 -25.3925 38.0691
30 7 5 1.9340 82.7380
30 7 7 -43.1527 29.8637
30 7 9 -22.0948 5.3487
30 7 11 11.0962 -17.5470
30 7 13 12.4917 16.8742
30 7 15 -1.4544 -5.8602
30 7 17 2.1775 13.9865
30 7 19 11.1158 5.7350
30 7 21 9.9847 4.6879
30 7 23 13.2419 -12.6118
30 7 25 13.7090 -7.1586
30 7 27 -1.0530 5.7862
30 7 29 -17.3221 14.0349
30 7 31 -9.6207 -19.4959
30 7 33 6.4848 0.9918
30 7 35 10.3379 19.5877
30 8 0 25.9190 -1.9082
30 8 2 -21.5070 -24.4246
30 8 4 12.2488 13.8227
30 8 6 49.0425 -24.4299
30 8 8 -5.1489 37.9493
30 8 10 24.1599 -16.7570
30 8 12 -2.4571 -11.6920
30 8 14 -5.1391 -20.7525
30 8 16 13.9891 -6.7623
30 8 18 -9.8447 -3.4434
30 8 20 -11.6109 -3.4868
30 8 22 -8.6361 -8.9588
30 8 24 13.1653 9.2020
30 8 26 0.4676 -0.7459
30 8 28 6.4347 1.5912
30 8 30 8.7038 2.3295
30 8 32 -2.9942 -1.4151
30 8 34 -2.0034 -3.7340
30 8 36 1.4532 -1.0692
30 9 1 -22.9774 3.1468
30 9 3 -28.0360 -2.2611
30 9 5 12.6194 22.5001
30 9 7 -9.3454 20.3587
30 9 9 11.3053 25.7983
30 9 11 15.1353 -19.5101
30 9 13 -8.2899 -26.1132
30 9 15 17.4636 -13.9684
30 9 17 -8.7246 -3.3991
30 9 19 -16.9938 -8.5423
30 9 21 -9.3105 4.1805
30 9 23 -18.9311 9.8725
30 9 25 3.6224 -12.2487
30 9 27 -7.3548 2.9144
30 9 29 1.9330 -22.6355
30 9 31 -1.7189 0.1688
30 9 33 0.6976 -2.4103
30 9 35 -5.9493 7.8029
30 10 0 18.8682 -2.3662
30 10 2 22.9088 -29.1720
30 10 4 -45.4114 -23.2216
30 10 6 33.8373 3.9097
30 10 8 -29.5063 7.2399
30 10 10 12.3875 -10.4561
30 10 12 -12.7859 -6.1359
30 10 14 -7.2494 5.7410
30 10 16 6.3062 -11.0575
30 10 18 2.2108 -3.4996
30 10 20 -7.6858 -0.4242
30 10 22 -5.8528 -12.0009
30 10 24 -9.8785 0.4510
30 10 26 8.3198 -0.3402
30 10 28 -7.8571 -12.2464
30 10 30 17.5169 4.6673
30 10 32 -3.9974 14.2686
30 10 34 0.3331 -12.2001
30 10 36 2.8840 -3.6300
30 11 1 13.0727 9.8403
30 11 3 8.0654 1.7924
30 11 5 43.1672 -18.0883
30 11 7 -11.4244 -12.8118
30 11 9 -8.8034 24.4083
30 11 11 -3.1345 7.5042
30 11 13 4.8783 -25.7552
30 11 15 -30.7916 7.5104
30 11 17 -12.7576 0.5878
30 11 19 -4.2332 -1.5942
30 11 21 25.2471 3.5731
30 11 23 -1.3860 11.9593
30 11 25 7.6722 9.0798
30 11 27 7.8045 -3.6318
30 11 29 -5.7803 -16.8998
30 11 31 -12.5342 10.8985
30 11 33 3.1265 -1.1462
30 11 35 27.7998 -11.0240
30 12 0 2.4800 -2.3230
30 12 2 16.4743 9.4419
30 12 4 7.3352 -2.4271
30 12 6 -3.2067 -6.1790
30 12 8 -35.9275 8.6977
30 12 10 -8.7326 -11.3892
30 12 12 -7.5352 -8.1238
30 12 14 -7.9369 4.8687
30 12 16 12.4066 -0.6917
30 12 18 5.4831 -7.8008
30 12 20 6.3598 -3.3311
30 12 22 -7.9516 -6.9340
30 12 24 4.0518 -2.2401
30 12 26 -4.6574 0.4495
30 12 28 9.3066 14.9359
30 12 30 13.1024 14.3520
30 12 32 3.7663 1.7727
30 12 34 6.5119 -10.6929
30 13 1 -24.1202 2.8828
30 13 3 17.9649 4.1153
30 13 5 -9.8575 -10.5336
30 13 7 1.7517 -7.0739
30 13 9 23.8963 11.8748
30 13 11 -12.1527 5.8461
30 13 13 -0.6115 -14.2810
30 13 15 5.0078 5.6558
30 13 17 -8.6449 4.0414
30 13 19 11.9047 -9.7137
30 13 21 -7.0171 9.9393
30 13 23 -10.1875 -2.6172
30 13 25 11.3895 3.7162
30 13 27 -5.6013 -10.7544
30 13 29 4.5076 4.4867
30 13 31 -19.9984 -11.5283
30 13 33 -4.0955 0.7888
30 13 35 9.7462 -7.8863
30 14 0 -3.8159 -2.0884
30 14 2 1.1476 23.6302
30 14 4 1.8769 21.6622
30 14 6 45.7541 -53.2421
30 14 8 -30.3141 17.6446
30 14 10 14.3700 35.2160
30 14 12 13.3641 2.7574
30 14 14 5.5853 11.8183
30 14 16 -4.5116 5.2907
30 14 18 0.8114 6.0319
30 14 20 -10.0932 -3.7375
30 14 22 9.5337 -1.0548
30 14 24 -4.8306 5.6487
30 14 26 10.1151 3.5253
30 14 28 5.8006 -1.0381
30 14 30 -19.9144 3.6392
30 14 32 2.0207 -2.4644
30 14 34 6.8448 24.2960
30 15 1 -13.6542 -10.7413
30 15 3 17.8796 30.7557
30 15 5 16.6642 -2.6434
30 15 7 -14.2326 -26.5949
30 15 9 36.3699 11.9678
30 15 11 -7.7776 22.5649
30 15 13 1.4329 -10.4706
30 15 15 2.8106 3.1922
30 15 17 -32.0822 7.7443
30 15 19 0.6909 -15.0043
30 15 21 -2.6485 -8.3696
30 15 23 9.7364 -0.1858
30 15 25 -12.9771 8.3676
30 15 27 3.9949 -9.0079
30 15 29 -5.5184 -4.7166
30 15 31 -14.7679 12.6723
30 15 33 7.8326 27.6538
30 16 0 -3.3276 -1.7030
30 16 2 13.9076 5.3191
30 16 4 32.7724 19.4790
30 16 6 -12.3482 -24.1729
30 16 8 -11.7926 -7.8386
30 16 10 -3.8319 23.9710
30 16 12 -23.8643 16.6104
30 16 14 15.5307 -6.2415
30 16 16 -14.9547 11.3094
30 16 18 -28.4454 8.8261
30 16 20 1.8880 -9.5913
30 16 22 1.9821 -1.5492
30 16 24 4.0111 -2.6147
30 16 26 -13.6490 0.7249
30 16 28 2.5967 3.6942
30 16 30 -15.3260 -9.3328
30 16 32 5.3243 -0.1739
30 16 34 -2.0888 -4.1779
30 17 1 -9.8849 1.9822
30 17 3 98.7438 3.6139
30 17 5 12.1253 -8.7735
30 17 7 -7.7616 -48.3640
30 17 9 -26.7680 0.0472
30 17 11 -28.1631 -24.8702
30 17 13 -6.1860 0.5169
30 17 15 -16.2049 14.5702
30 17 17 -1.7200 9.8190
30 17 19 -1.5786 5.6292
30 17 21 -1.9772 5.5642
30 17 23 7.7206 4.5819
30 17 25 17.9775 -5.9300
30 17 27 -17.6224 -0.0921
30 17 29 21.3145 -5.9485
30 17 31 -4.3203 4.2735
30 17 33 -10.0369 -19.2242
30 18 0 -30.9043 -1.5734
30 18 2 -2.3877 -15.2576
30 18 4 22.0905 -6.0782
30 18 6 -9.9688 44.2369
30 18 8 34.9417 -1.8630
30 18 10 -31.2236 -10.1610
30 18 12 -15.4233 3.9108
30 18 14 12.0669 -6.1524
30 18 16 19.6963 4.2933
30 18 18 -4.0713 8.0332
30 18 20 6.0727 13.6014
30 18 22 13.1242 -1.1919
30 18 24 4.0615 0.7510
30 18 26 -6.0826 1.2133
30 18 28 2.6181 3.7422
30 18 30 -3.3856 -2.6077
30 18 32 -20.8651 -17.5104
30 19 1 23.5474 -41.4933
30 19 3 -19.6884 30.8166
30 19 5 -7.1377 15.3182
30 19 7 -22.1440 10.5469
30 19 9 5.6366 -5.2002
30 19 11 21.6105 15.2806
30 19 13 -27.5061 -3.3042
30 19 15 -8.1747 7.8238
30 19 17 0.5379 18.5661
30 19 19 -18.2233 -3.9466
30 19 21 5.8254 -7.5506
30 19 23 -6.5722 -3.7406
30 19 25 -13.5197 -11.3079
30 19 27 7.2510 -9.5641
30 19 29 16.3504 -1.9594
30 19 31 -15.6819 -6.1564
30 19 33 -17.3053 -9.7487
30 20 0 4.0397 -1.8010
30 20 2 -51.8683 -27.6413
30 20 4 24.9142 -15.3077
30 20 6 -12.6586 -25.0171
30 20 8 -10.9890 0.8816
30 20 10 -6.0140 50.9039
30 20 12 4.4437 -24.0568
30 20 14 -37.6893 19.4688
30 20 16 -26.4171 2.6311
30 20 18 20.6049 -5.4202
30 20 20 4.2773 -6.2280
30 20 22 7.4473 -6.9620
30 20 24 6.7680 0.7906
30 20 26 -12.0160 6.5938
30 20 28 3.7943 -1.1577
30 20 30 -2.7063 -0.2694
30 20 32 -9.6289 -12.1956
30 21 1 7.6328 -44.6418
30 21 3 31.1664 10.1921
30 21 5 -24.4651 6.6237
30 21 7 11.7607 -16.5761
30 21 9 -21.0313 -17.8022
30 21 11 40.4820 6.3456
30 21 13 28.5093 32.3626
30 21 15 1.5675 5.2725
30 21 17 -7.8490 -21.3977
30 21 19 4.6238 -12.5615
30 21 21 -4.3604 6.9237
30 21 23 14.7903 -5.7313
30 21 25 0.1686 3.0810
30 21 27 8.4602 16.4846
30 21 29 0.2743 -21.7734
30 21 31 -31.7557 -7.5094
30 22 0 -24.8492 -2.0134
30 22 2 -7.1005 18.8075
30 22 4 17.4022 -13.9434
30 22 6 -34.5418 66.0891
30 22 8 15.1614 -0.7580
30 22 10 4.5133 -60.4551
30 22 12 -3.0611 7.8029
30 22 14 47.6172 4.2577
30 22 16 -4.9593 5.6576
30 22 18 15.4104 -7.7653
30 22 20 -8.5419 3.0042
30 22 22 -10.8305 -13.1771
30 22 24 10.7669 -1.1601
30 22 26 19.8332 -3.3163
30 22 28 17.2259 -13.6974
30 22 30 -5.0341 1.1155
30 23 1 -10.9775 -3.0975
30 23 3 9.3851 -26.4723
30 23 5 27.4066 10.9417
30 23 7 20.6270 0.1296
30 23 9 23.7404 3.5898
30 23 11 8.3522 -8.0556
30 23 13 -12.2803 -30.8802
30 23 15 23.0660 -8.8405
30 23 17 -8.7419 -13.5237
30 23 19 -1.3704 -13.2415
30 23 21 9.8619 -11.2537
30 23 23 -6.0528 20.3452
30 23 25 -6.5214 -9.5036
30 23 27 5.0029 -3.4644
30 23 29 -1.6046 -18.0649
30 23 31 -13.6427 11.7960
30 24 0 3.5400 -2.2311
30 24 2 -5.2320 -10.1763
30 24 4 0.4812 -35.5362
30 24 6 23.2872 -24.7306
30 24 8 3.4781 -6.7686
30 24 10 44.1322 -22.2440
30 24 12 9.9559 -9.4342
30 24 14 -19.9985 -44.2621
30 24 16 0.9181 11.7891
30 24 18 2.3857 -15.1806
30 24 20 7.2056 4.6509
30 24 22 -2.1603 12.3997
30 24 24 1.5145 1.1984
30 24 26 -3.1540 5.3555
30 24 28 -2.9199 -20.5570
30 24 30 -3.5230 -34.0731
30 25 1 -33.4158 -14.0508
30 25 3 -31.4891 -26.1976
30 25 5 -0.1166 5.0062
30 25 7 3.4634 -6.7399
30 25 9 -7.2513 10.8404
30 25 11 1.1327 19.0454
30 25 13 -10.3431 -9.0779
30 25 15 -0.4210 -0.5907
30 25 17 1.1287 7.1246
30 25 19 -1.1171 -3.9781
30 25 21 -28.6999 -4.8134
30 25 23 0.7382 4.8332
30 25 25 3.5116 3.5852
30 25 27 1.8617 -5.5612
30 25 29 -0.7739 0.3668
30 26 0 16.0182 -2.0930
30 26 2 -2.4972 28.6687
30 26 4 8.3342 12.2439
30 26 6 33.6509 21.0191
30 26 8 -12.3293 6.9795
30 26 10 -17.6710 -21.1748
30 26 12 0.9715 -7.5415
30 26 14 -27.4182 54.5674
30 26 16 -3.1541 0.1399
30 26 18 -2.0931 -4.6297
30 26 20 -6.1586 -4.8718
30 26 22 5.0727 -14.2951
30 26 24 0.0169 0.3287
30 26 26 1.5342 3.4900
30 26 28 0.6947 4.5342
30 27 1 0.7082 -30.4206
30 27 3 -8.7074 -2.2396
30 27 5 15.8262 -17.6199
30 27 7 8.0229 -19.4542
30 27 9 4.4564 -7.8570
30 27 11 0.4721 4.8231
30 27 13 2.4623 8.9354
30 27 15 -11.6853 -7.9819
30 27 17 3.2945 7.5068
30 27 19 -5.5302 9.7524
30 27 21 -16.6385 0.0132
30 27 23 -6.1175 7.7785
30 27 25 -1.7818 -10.3923
30 27 27 -1.8339 -1.8572
30 28 0 4.3180 -1.6963
30 28 2 -6.5301 -36.1999
30 28 4 3.7941 18.4549
30 28 6 -2.6552 -6.6354
30 28 8 -1.3765 -11.1423
30 28 10 -6.9730 5.9611
30 28 12 5.2372 1.1331
30 28 14 9.0367 -16.8597
30 28 16 4.4593 -0.8016
30 28 18 13.9609 -17.5181
30 28 20 -7.1007 13.7631
30 28 22 9.9749 9.2768
30 28 24 5.8044 16.3300
30 28 26 10.4946 -3.2634
30 29 1 -6.6420 2.4291
30 29 3 -22.5688 24.7849
30 29 5 -10.1674 2.5355
30 29 7 18.7215 -13.7589
30 29 9 -19.6170 0.3250
30 29 11 -8.1783 -12.5803
30 29 13 8.7135 6.0451
30 29 15 -3.3284 3.2152
30 29 17 10.7261 5.0868
30 29 19 -2.2582 -6.6616
30 29 21 -9.0702 -19.9554
30 29 23 6.1184 15.2141
30 29 25 18.1719 9.9917
30 30 0 18.3178 -1.1318
30 30 2 13.2010 -0.1724
30 30 4 -29.1450 -0.3497
30 30 6 13.2895 -0.1262
30 30 8 5.8773 0.0443
30 30 10 -7.8701 0.1023
30 30 12 8.8534 -0.1734
30 30 14 -0.9581 0.0265
30 30 16 -2.2953 0.1228
30 30 18 -17.2906 0.0186
30 30 20 -4.1786 0.0450
30 30 22 -14.6732 0.0724
30 30 24 -3.4513 -0.0971
30 30 26 7.0449 0.0836
31 0 1 17.9719 19.6648
31 0 3 -15.1839 16.9570
31 0 5 -31.1704 -31.8201
31 0 7 6.3068 -2.7878
31 0 9 5.4660 2.7236
31 0 11 -3.5801 5.2792
31 0 13 -19.9428 -19.9850
31 0 15 -2.9415 2.6926
31 0 17 11.0351 11.0497
31 0 19 -3.7138 4.6905
31 0 21 2.7991 2.0968
31 0 23 -3.2058 3.6181
31 0 25 -2.1933 -2.4853
31 0 27 -1.9988 1.9645
31 0 29 0.1688 0.0996
31 0 31 -2.5436 2.4617
31 0 33 -1.4731 -1.5572
31 0 35 9.8255 -9.9048
31 1 0 -17.7884 0.2350
31 1 2 -0.6732 -2.6181
31 1 4 -23.6179 -21.4929
31 1 6 -8.7798 -9.2960
31 1 8 -37.5124 -16.6785
31 1 10 2.4896 -12.7709
31 1 12 -3.4594 21.5091
31 1 14 29.7374 -2.1263
31 1 16 9.4277 -0.1597
31 1 18 2.6845 4.0567
31 1 20 5.4276 3.8336
31 1 22 -9.8071 -4.8827
31 1 24 12.2181 11.3582
31 1 26 -1.5794 -16.7437
31 1 28 4.9988 14.0478
31 1 30 0.2823 -3.9945
31 1 32 4.2998 -2.6804
31 1 34 -0.2384 20.4242
31 1 36 -24.8832 9.1080
31 2 1 20.6714 -27.1499
31 2 3 21.9081 0.8707
31 2 5 -24.0778 -40.8748
31 2 7 -19.1649 -31.4138
31 2 9 -23.5749 13.2884
31 2 11 -6.0025 -9.6869
31 2 13 -1.3097 25.1491
31 2 15 8.7514 0.7743
31 2 17 10.0674 -0.5395
31 2 19 5.9456 10.7954
31 2 21 0.0326 -5.9356
31 2 23 11.9506 -18.4411
31 2 25 -10.6417 -5.6444
31 2 27 -4.2974 3.9408
31 2 29 6.8022 9.3376
31 2 31 -3.2795 0.0497
31 2 33 9.9986 21.3881
31 2 35 28.3101 6.4099
31 3 0 -10.7157 0.1152
31 3 2 25.7936 4.0484
31 3 4 57.0012 -23.2968
31 3 6 -2.4353 -22.9694
31 3 8 38.3688 21.2210
31 3 10 0.3272 17.6726
31 3 12 -15.0236 -8.7122
31 3 14 6.5109 4.6177
31 3 16 -2.8092 3.5068
31 3 18 0.4174 1.0634
31 3 20 -16.1279 -3.4141
31 3 22 19.1806 -0.4148
31 3 24 9.8299 1.5642
31 3 26 8.5087 4.8250
31 3 28 -3.0210 -3.9971
31 3 30 -9.1481 -10.2955
31 3 32 1.8944 -0.7475
31 3 34 0.4919 -5.3419
31 3 36 0.1851 2.3178
31 4 1 12.9985 -36.7213
31 4 3 49.7675 -2.2449
31 4 5 -46.9193 7.0705
31 4 7 -13.8685 -39.9045
31 4 9 16.9076 5.5633
31 4 11 17.4291 11.5384
31 4 13 -11.1145 13.5694
31 4 15 -6.2851 29.6555
31 4 17 3.2202 -3.1570
31 4 19 -1.0559 2.0410
31 4 21 1.3110 -2.8664
31 4 23 -3.0130 16.2133
31 4 25 11.6289 -6.6457
31 4 27 -12.3459 0.6031
31 4 29 -3.9476 -2.8336
31 4 31 18.3664 -2.1388
31 4 33 -9.9408 -0.2963
31 4 35 -2.0109 -0.1295
31 5 0 -43.0268 0.0019
31 5 2 14.2344 25.4900
31 5 4 1.6651 31.6133
31 5 6 2.9344 -14.1169
31 5 8 -27.8098 36.0154
31 5 10 -22.5547 -7.3415
31 5 12 -22.2189 -12.6257
31 5 14 -8.8541 3.7209
31 5 16 15.4381 7.3109
31 5 18 14.1751 -1.9446
31 5 20 23.6409 -6.4341
31 5 22 2.1393 -2.2646
31 5 24 -7.2612 -11.8759
31 5 26 2.9255 -16.6347
31 5 28 2.8961 -1.1855
31 5 30 2.7709 -10.2078
31 5 32 -16.2875 -6.9008
31 5 34 -9.3880 -11.3854
31 5 36 27.0218 16.2662
31 6 1 -18.7651 -4.0432
31 6 3 -23.8082 8.1615
31 6 5 46.3121 -41.9042
31 6 7 -8.2742 -9.0619
31 6 9 22.4532 -47.7948
31 6 11 -5.8842 11.9414
31 6 13 -15.6461 -22.1377
31 6 15 -4.2030 -13.3544
31 6 17 20.5305 14.8565
31 6 19 -2.9885 13.1339
31 6 21 -11.7317 -6.5855
31 6 23 -8.6116 -3.4116
31 6 25 -0.1359 -5.2665
31 6 27 0.0460 6.4361
31 6 29 1.1291 -3.6585
31 6 31 -17.7741 19.7209
31 6 33 10.0127 16.3703
31 6 35 5.9513 12.3856
31 7 0 51.4581 0.0719
31 7 2 -17.1588 19.8574
31 7 4 21.7899 19.1830
31 7 6 -19.0018 20.5210
31 7 8 -34.1095 -12.4122
31 7 10 -1.9116 -19.6486
31 7 12 -22.9604 10.9125
31 7 14 -14.6443 -13.2778
31 7 16 7.4561 8.1987
31 7 18 -8.3248 7.7563
31 7 20 -0.4808 0.2136
31 7 22 6.0364 31.4714
31 7 24 8.4495 3.3576
31 7 26 2.3355 -4.8012
31 7 28 3.9957 1.1024
31 7 30 -5.6021 0.7167
31 7 32 -6.6563 21.7923
31 7 34 5.6831 -12.1852
31 7 36 13.0916 -23.9905
31 8 1 56.5145 15.5156
31 8 3 2.5302 -22.8800
31 8 5 -3.1874 -0.0915
31 8 7 -4.1546 -6.4412
31 8 9 27.4591 -13.8530
31 8 11 -13.1253 29.7651
31 8 13 -1.5443 -12.7741
31 8 15 15.0875 -3.5975
31 8 17 -18.0964 -6.9504
31 8 19 -7.2667 -8.8675
31 8 21 0.1542 -13.2206
31 8 23 -4.7966 -14.5956
31 8 25 2.7193 -7.5338
31 8 27 -0.7690 -6.4129
31 8 29 -3.6450 16.7681
31 8 31 -0.0082 0.4674
31 8 33 -7.6204 -17.9098
31 8 35 -4.2264 0.2446
31 9 0 28.7890 0.0537
31 9 2 -12.9005 -6.0253
31 9 4 32.7961 -22.4174
31 9 6 15.5837 2.6371
31 9 8 15.7973 5.7971
31 9 10 -41.2237 -14.7314
31 9 12 9.5733 23.0251
31 9 14 20.1923 -0.4829
31 9 16 -0.5818 22.2384
31 9 18 -2.6355 -21.1851
31 9 20 8.2977 -8.2531
31 9 22 -5.0806 15.2269
31 9 24 0.4150 -2.3491
31 9 26 -6.3865 -3.8270
31 9 28 3.7152 -3.5127
31 9 30 -2.9513 0.5837
31 9 32 11.7565 -5.1599
31 9 34 3.9954 -16.6688
31 10 1 -4.0397 2.4561
31 10 3 -44.2157 7.5512
31 10 5 4.4742 -10.6101
31 10 7 -25.6365 -27.2533
31 10 9 6.3328 -22.7912
31 10 11 -14.3911 13.4282
31 10 13 -14.7583 19.9872
31 10 15 10.3693 2.1316
31 10 17 18.0525 -20.1913
31 10 19 -0.2344 15.2621
31 10 21 2.0380 -7.3072
31 10 23 -2.6815 -9.1905
31 10 25 -15.3434 5.1559
31 10 27 -2.3296 -13.6533
31 10 29 -0.6496 -6.2237
31 10 31 0.2366 -0.9647
31 10 33 0.0635 -4.5764
31 10 35 -5.4282 -1.5710
31 11 0 3.5698 -0.1232
31 11 2 0.9872 16.4594
31 11 4 1.9488 -35.3600
31 11 6 36.6396 -21.8596
31 11 8 -4.3704 -8.8520
31 11 10 1.2160 9.5117
31 11 12 9.9678 7.4797
31 11 14 -8.3875 4.7485
31 11 16 15.3036 -0.7895
31 11 18 -21.7034 -0.7401
31 11 20 6.5830 -13.1708
31 11 22 5.9484 -8.6781
31 11 24 5.7488 -0.4445
31 11 26 13.1696 6.0705
31 11 28 0.5412 -2.1993
31 11 30 -9.7125 -1.1594
31 11 32 12.2310 -6.4219
31 11 34 5.7119 9.4122
31 12 1 1.8072 12.3948
31 12 3 -9.7481 26.6767
31 12 5 23.1678 24.6796
31 12 7 -2.1849 -16.5087
31 12 9 -7.5509 -13.9171
31 12 11 -25.0914 5.7023
31 12 13 23.7213 -2.1564
31 12 15 21.7706 -5.0475
31 12 17 -9.0564 -7.5851
31 12 19 6.0233 23.5658
31 12 21 0.3974 4.5308
31 12 23 6.2747 -0.1792
31 12 25 1.9129 -3.4245
31 12 27 5.8476 5.9201
31 12 29 14.3557 -11.1392
31 12 31 6.7772 -18.3555
31 12 33 1.6260 -4.3893
31 12 35 -0.4430 0.9212
31 13 0 2.2904 -0.3166
31 13 2 -2.9696 -14.1657
31 13 4 3.1912 -42.7813
31 13 6 8.1647 -2.4673
31 13 8 15.1284 -37.0252
31 13 10 -30.3237 -5.1798
31 13 12 13.7798 -3.3931
31 13 14 23.6354 3.7407
31 13 16 1.1258 22.9611
31 13 18 -1.9429 -2.7503
31 13 20 15.9304 0.2988
31 13 22 5.4946 -3.6217
31 13 24 9.5609 -0.3184
31 13 26 -17.4862 5.5788
31 13 28 -1.8326 -6.4497
31 13 30 24.6479 -4.4350
31 13 32 5.3639 4.4802
31 13 34 -32.3128 -5.0655
31 14 1 -4.4254 -15.3469
31 14 3 28.4653 -42.0287
31 14 5 32.6348 12.3109
31 14 7 -19.4329 1.4548
31 14 9 12.9268 -21.2087
31 14 11 -1.2876 -6.5943
31 14 13 0.2340 9.0225
31 14 15 5.2868 10.8834
31 14 17 -22.2685 14.5462
31 14 19 -19.2280 9.6403
31 14 21 -1.3044 8.4257
31 14 23 -10.1029 -5.5984
31 14 25 -5.0220 -7.0193
31 14 27 5.4794 17.6789
31 14 29 -18.5237 5.3480
31 14 31 8.1460 2.5409
31 14 33 -17.0378 -2.2466
31 15 0 -31.2430 -0.3799
31 15 2 0.1392 -68.2791
31 15 4 -7.0923 15.1016
31 15 6 38.1723 15.7416
31 15 8 0.1417 45.2940
31 15 10 -48.9428 2.6713
31 15 12 -27.4414 -5.4982
31 15 14 49.8228 -24.7012
31 15 16 -5.8572 26.3391
31 15 18 -7.8624 3.6058
31 15 20 3.3687 10.7042
31 15 22 -0.2791 2.4748
31 15 24 5.4098 10.6702
31 15 26 8.6535 18.9990
31 15 28 11.7535 17.2230
31 15 30 -2.8566 14.3484
31 15 32 12.1038 16.1250
31 15 34 1.0521 -9.0287
31 16 1 -63.6738 -46.6546
31 16 3 7.2414 -20.8642
31 16 5 -0.8846 -34.1088
31 16 7 -26.6440 6.3817
31 16 9 21.2997 3.8513
31 16 11 0.1116 7.9470
31 16 13 -17.4577 28.2882
31 16 15 4.3315 -8.7763
31 16 17 -9.1883 -6.4467
31 16 19 -16.3763 10.8596
31 16 21 -12.8601 7.4382
31 16 23 -4.6918 -12.9861
31 16 25 -13.0438 -10.1258
31 16 27 19.4750 -13.0862
31 16 29 2.3872 -8.2017
31 16 31 2.0519 -15.9186
31 16 33 0.6208 -4.4729
31 17 0 32.3327 -0.2699
31 17 2 10.7027 -36.9936
31 17 4 46.2223 -9.8143
31 17 6 9.4933 18.6822
31 17 8 19.4044 0.7942
31 17 10 -6.4488 5.8452
31 17 12 6.0702 -15.1796
31 17 14 -21.4194 -5.7629
31 17 16 -15.9871 -15.9759
31 17 18 0.8264 6.6057
31 17 20 -1.4129 -6.8128
31 17 22 12.6521 -15.6198
31 17 24 -11.6438 24.0493
31 17 26 -17.0885 9.6955
31 17 28 -18.5986 -0.6085
31 17 30 -5.1009 2.2933
31 17 32 -21.3198 -12.2668
31 18 1 -49.3282 -33.0871
31 18 3 2.9242 -3.9473
31 18 5 11.3018 -3.6906
31 18 7 0.7528 4.6196
31 18 9 15.4679 -58.8220
31 18 11 5.9112 1.5684
31 18 13 -29.6685 -14.3561
31 18 15 -12.6606 -12.5428
31 18 17 10.8354 10.2931
31 18 19 -0.8230 0.8396
31 18 21 -2.7982 0.3294
31 18 23 -3.2031 6.4512
31 18 25 5.8974 -6.0323
31 18 27 12.0640 -15.7162
31 18 29 -22.9677 -2.0955
31 18 31 15.0883 6.7876
31 18 33 -18.7024 18.1104
31 19 0 38.2511 -0.0870
31 19 2 -14.6969 6.7160
31 19 4 30.3702 12.6585
31 19 6 6.2063 -19.7269
31 19 8 -49.6563 37.7956
31 19 10 -4.0208 10.0966
31 19 12 5.6961 -33.8717
31 19 14 27.7693 -10.8457
31 19 16 10.5768 17.2493
31 19 18 -13.8913 -4.8162
31 19 20 -6.3150 -7.5714
31 19 22 5.6938 2.5217
31 19 24 -4.2355 -18.0626
31 19 26 -7.6442 -5.3946
31 19 28 -11.2349 13.5782
31 19 30 -16.0241 24.0301
31 19 32 -0.4328 1.7360
31 20 1 3.4701 51.1079
31 20 3 -14.0115 55.9471
31 20 5 1.8190 -62.6124
31 20 7 12.0367 17.8426
31 20 9 2.7862 35.9550
31 20 11 22.5988 -5.4853
31 20 13 -17.4936 -14.7132
31 20 15 -17.8460 -24.8609
31 20 17 2.5298 27.4312
31 20 19 3.4350 5.5859
31 20 21 5.2805 -8.0243
31 20 23 0.7298 18.2366
31 20 25 -17.8114 -3.8257
31 20 27 0.7863 -3.0910
31 20 29 -9.1179 2.1173
31 20 31 6.0911 -11.5960
31 21 0 11.7939 0.0181
31 21 2 4.5419 10.6806
31 21 4 -40.4355 -64.9376
31 21 6 6.9255 1.1796
31 21 8 51.8577 -26.8403
31 21 10 -5.1181 -8.5647
31 21 12 -17.8132 31.4376
31 21 14 15.4147 -0.5592
31 21 16 -13.9624 -48.8235
31 21 18 7.9904 6.2462
31 21 20 8.7108 2.8432
31 21 22 4.7332 2.5520
31 21 24 7.1323 7.3505
31 21 26 -3.5088 17.1796
31 21 28 -7.9136 -13.9124
31 21 30 -3.9967 -3.6342
31 22 1 42.6236 24.2239
31 22 3 32.9264 -15.2966
31 22 5 5.0131 14.1464
31 22 7 27.8950 -30.5968
31 22 9 21.0483 -5.2416
31 22 11 7.5425 10.6572
31 22 13 28.5874 -9.3867
31 22 15 -10.3207 -18.3738
31 22 17 -12.2648 -0.4610
31 22 19 -2.3232 -1.8017
31 22 21 -0.3936 -5.8322
31 22 23 -22.2046 9.9335
31 22 25 -9.0435 7.1794
31 22 27 -2.4616 -6.7313
31 22 29 12.7082 15.3740
31 22 31 -23.0258 -17.7608
31 23 0 15.8237 0.2440
31 23 2 -2.8898 -24.7044
31 23 4 -37.8981 -41.4502
31 23 6 -12.9887 -10.7463
31 23 8 -71.1595 -13.0637
31 23 10 -18.1437 10.7301
31 23 12 65.6344 -4.3593
31 23 14 0.3532 -1.1068
31 23 16 -28.6086 20.9028
31 23 18 -14.4102 10.7261
31 23 20 20.7020 -6.8015
31 23 22 3.1796 -1.3090
31 23 24 8.7255 13.4692
31 23 26 0.3682 -2.2680
31 23 28 12.8806 12.5359
31 23 30 3.5734 -14.0232
31 24 1 -23.2086 -21.5807
31 24 3 -9.9046 -3.8472
31 24 5 16.3587 29.7983
31 24 7 -27.9280 22.1994
31 24 9 -9.0286 6.9744
31 24 11 17.8841 18.7525
31 24 13 -3.2515 -9.3752
31 24 15 -0.9828 -4.8012
31 24 17 -3.6512 2.3893
31 24 19 3.3484 15.0413
31 24 21 -10.5529 -10.2383
31 24 23 -19.8893 -10.3964
31 24 25 -6.8375 -1.1752
31 24 27 -0.2733 17.0241
31 24 29 -16.3199 -0.8214
31 25 0 -9.5978 0.4097
31 25 2 2.3232 -42.0572
31 25 4 -29.3693 14.6344
31 25 6 -9.8737 0.5771
31 25 8 3.8829 33.3386
31 25 10 4.3620 3.5490
31 25 12 -67.1894 -22.1547
31 25 14 8.9211 -3.6522
31 25 16 -32.8709 14.7077
31 25 18 -10.2634 -1.6256
31 25 20 -6.9277 12.3665
31 25 22 9.7944 -0.3417
31 25 24 -0.6358 7.6311
31 25 26 1.2405 -0.5160
31 25 28 -21.4360 11.5791
31 26 1 18.9812 5.1247
31 26 3 -19.5680 15.7701
31 26 5 2.9481 19.4496
31 26 7 -14.4751 9.6151
31 26 9 -20.5535 7.4867
31 26 11 -14.9355 1.6447
31 26 13 -0.2999 -6.0449
31 26 15 -4.1161 -3.8403
31 26 17 1.0264 -11.4462
31 26 19 -5.8159 -8.7645
31 26 21 -2.0940 8.3921
31 26 23 -21.7656 -6.4147
31 26 25 -2.2388 3.4926
31 26 27 -0.7967 2.2617
31 27 0 9.5057 0.4517
31 27 2 -1.3749 -0.9096
31 27 4 13.9830 1.3719
31 27 6 9.6345 -13.1565
31 27 8 18.5500 -7.0620
31 27 10 18.5520 -8.0801
31 27 12 21.6235 -4.9193
31 27 14 5.7798 -8.3803
31 27 16 18.4225 -17.9253
31 27 18 -9.8885 10.2026
31 27 20 -10.2033 -5.3892
31 27 22 -1.2301 -2.4636
31 27 24 -10.0554 -1.7437
31 27 26 9.3180 -3.0276
31 28 1 0.7838 8.9983
31 28 3 0.1703 -5.4347
31 28 5 0.4929 -12.0564
31 28 7 -1.7758 -7.4958
31 28 9 -21.3354 0.1682
31 28 11 -1.7640 2.4799
31 28 13 0.9316 4.4398
31 28 15 -0.2104 -2.8702
31 28 17 6.2788 -12.0580
31 28 19 1.7458 -3.2725
31 28 21 -1.4031 6.7840
31 28 23 -4.1901 1.4868
31 28 25 -8.9193 -2.1415
31 29 0 -6.8904 0.3881
31 29 2 12.9047 -50.4571
31 29 4 20.5068 4.3205
31 29 6 20.2058 8.1386
31 29 8 -8.3860 2.2013
31 29 10 -3.6599 -2.6247
31 29 12 -6.0869 -8.0014
31 29 14 -8.7351 -11.2303
31 29 16 0.1471 -18.2519
31 29 18 13.1471 -7.2393
31 29 20 14.7030 18.7654
31 29 22 3.3404 3.1746
31 29 24 -5.1114 -22.3515
31 29 26 0.2996 -0.8093
31 30 1 16.2551 21.6209
31 30 3 6.3419 0.2759
31 30 5 3.9571 3.8547
31 30 7 8.7333 5.9374
31 30 9 -4.8227 4.1897
31 30 11 -0.0550 -5.7535
31 30 13 -1.6454 -0.1458
31 30 15 -9.0086 -1.1003
31 30 17 -7.8235 1.4578
31 30 19 -5.0177 -0.3072
31 30 21 -1.2054 5.3458
31 30 23 -12.9337 -8.6309
31 30 25 -20.7979 -4.7254
31 31 0 14.4555 0.2428
31 31 2 -4.2373 0.0941
31 31 4 -2.1544 0.1854
31 31 6 20.5581 -0.2217
31 31 8 1.8883 -0.1186
31 31 10 23.7894 -0.0737
31 31 12 13.7874 -0.0518
31 31 14 7.5313 0.0993
31 31 16 2.8775 0.0225
31 31 18 -19.5293 -0.1031
31 31 20 -28.9834 -0.0673
31 31 22 24.9403 0.1616
31 31 24 -28.5673 -0.0110
32 0 0 12.8660 -1.0284
32 0 2 -0.1200 12.9115
32 0 4 -7.7219 1.4417
32 0 6 -0.0191 -15.2771
32 0 8 -1.6280 1.9656
32 0 10 0.7243 45.2551
32 0 12 13.5675 -0.0504
32 0 14 0.8378 -7.9683
32 0 16 -21.0505 0.2310
32 0 18 0.5389 -20.7644
32 0 20 17.9582 -0.4368
32 0 22 0.2222 10.2373
32 0 24 -7.6664 -0.4366
32 0 26 -0.0078 3.7818
32 0 28 4.6558 -0.0031
32 0 30 -0.0005 -20.0380
32 0 32 0.1636 0.0122
32 0 34 0.0385 20.8170
32 0 36 29.8349 -0.0365
32 1 1 3.7221 1.6402
32 1 3 -28.9000 -35.5169
32 1 5 -6.0560 10.0461
32 1 7 27.1708 -26.0361
32 1 9 -6.5661 8.1338
32 1 11 1.5339 34.1880
32 1 13 21.4495 -22.7129
32 1 15 -8.5587 -4.3055
32 1 17 -13.0998 5.2506
32 1 19 -19.5037 -20.0817
32 1 21 -17.1603 0.6589
32 1 23 14.3879 3.0900
32 1 25 -8.5358 -13.5327
32 1 27 -5.4239 5.0311
32 1 29 4.0535 -11.3742
32 1 31 -16.3239 17.5458
32 1 33 -18.8737 3.9383
32 1 35 6.3143 9.3004
32 2 0 11.3356 -0.6542
32 2 2 -15.2651 -19.4397
32 2 4 -27.9080 25.5651
32 2 6 19.3355 15.8934
32 2 8 12.8046 15.8529
32 2 10 -7.5662 -5.6912
32 2 12 -2.1553 -21.1392
32 2 14 -3.2090 -24.7374
32 2 16 16.3720 17.6641
32 2 18 9.9718 8.0372
32 2 20 -1.3682 -8.6642
32 2 22 -5.3180 15.4573
32 2 24 -17.1636 -0.0696
32 2 26 2.3872 2.0220
32 2 28 -12.9425 0.3472
32 2 30 9.3396 -12.4464
32 2 32 2.3307 4.2206
32 2 34 -3.1678 -10.4519
32 3 1 -3.3188 6.3831
32 3 3 -44.5290 8.4398
32 3 5 4.6143 6.7452
32 3 7 -3.0016 -32.2468
32 3 9 3.0009 0.3191
32 3 11 3.0753 -1.1465
32 3 13 -36.8349 -6.0049
32 3 15 -28.3579 14.8047
32 3 17 -5.2680 13.4143
32 3 19 7.0841 4.9466
32 3 21 6.0902 4.8684
32 3 23 7.9131 3.7665
32 3 25 6.4287 -7.0631
32 3 27 -7.6792 -3.8692
32 3 29 0.8068 -5.4428
32 3 31 3.7411 -0.2656
32 3 33 10.6204 -9.3333
32 3 35 10.2532 8.1510
32 4 0 18.2284 -0.9379
32 4 2 23.1369 28.0015
32 4 4 -31.4163 6.0722
32 4 6 -12.3073 35.5854
32 4 8 14.3485 -15.1187
32 4 10 28.5848 -26.2935
32 4 12 0.9801 -2.0780
32 4 14 2.2262 2.0879
32 4 16 -18.2368 -18.6702
32 4 18 -11.4399 -9.4689
32 4 20 11.6060 -6.4440
32 4 22 -2.8533 4.1255
32 4 24 6.0537 -1.8286
32 4 26 -4.1181 2.1719
32 4 28 3.8836 -1.1787
32 4 30 -10.1332 11.2391
32 4 32 -19.0479 -8.5903
32 4 34 -19.4446 -6.3012
32 5 1 7.0625 29.0457
32 5 3 -38.2031 15.6553
32 5 5 -8.7615 28.7330
32 5 7 1.8238 7.4106
32 5 9 -0.5755 -2.2235
32 5 11 6.4005 17.4695
32 5 13 -14.6687 -13.3993
32 5 15 4.3571 6.4964
32 5 17 -0.1832 14.4944
32 5 19 -13.7679 -6.1443
32 5 21 2.0391 16.3192
32 5 23 5.6214 6.9576
32 5 25 -5.3623 -5.0748
32 5 27 -4.9950 -24.5602
32 5 29 12.4881 4.8246
32 5 31 -22.4715 -0.7524
32 5 33 -6.6817 22.0404
32 5 35 0.5710 -0.6821
32 6 0 24.1294 -1.7233
32 6 2 18.7322 -32.4479
32 6 4 -11.0729 10.9002
32 6 6 23.7509 3.1563
32 6 8 -3.6264 -8.0521
32 6 10 15.6956 -5.3101
32 6 12 -14.3384 7.6172
32 6 14 -9.7472 -12.3484
32 6 16 15.2965 2.6734
32 6 18 -1.5229 -21.6239
32 6 20 3.5540 -8.7373
32 6 22 0.0652 10.9420
32 6 24 5.9600 8.3328
32 6 26 5.1121 -10.5676
32 6 28 2.0789 2.9701
32 6 30 -0.7162 -19.0044
32 6 32 -11.2811 1.4609
32 6 34 -1.1895 -2.5212
32 7 1 -8.4775 -18.0275
32 7 3 -10.8712 30.0710
32 7 5 36.8798 24.9015
32 7 7 -28.5663 -2.9819
32 7 9 23.2323 12.9544
32 7 11 -5.0219 16.1922
32 7 13 4.2793 5.9088
32 7 15 8.3355 -15.5376
32 7 17 3.8935 14.5714
32 7 19 -4.3594 -7.0350
32 7 21 13.5888 -10.8215
32 7 23 4.1176 5.5924
32 7 25 1.1536 -0.2516
32 7 27 4.8913 -7.3204
32 7 29 12.3091 -6.8216
32 7 31 -0.5341 3.9590
32 7 33 1.4944 -0.5287
32 7 35 -2.3020 -11.6054
32 8 0 -4.5241 -1.9668
32 8 2 -77.9190 -0.0513
32 8 4 8.3245 5.0584
32 8 6 -26.8081 -44.2944
32 8 8 -36.7829 25.7678
32 8 10 23.1127 1.1439
32 8 12 2.9858 21.1550
32 8 14 1.4088 6.4445
32 8 16 1.7389 -13.8789
32 8 18 3.9665 -17.3739
32 8 20 -7.1141 -0.3034
32 8 22 -2.5164 3.8989
32 8 24 13.5441 9.2367
32 8 26 2.3141 0.7771
32 8 28 8.9100 -4.1717
32 8 30 7.2773 -5.2834
32 8 32 -0.2632 -23.7292
32 8 34 0.7330 2.4239
32 9 1 -8.8215 -1.4480
32 9 3 21.5943 -11.4402
32 9 5 28.9795 -13.1018
32 9 7 -10.9133 -25.2775
32 9 9 -23.8818 -13.7622
32 9 11 -4.9256 -37.4103
32 9 13 -7.3266 -0.4309
32 9 15 -6.3335 16.7353
32 9 17 -1.5226 8.6331
32 9 19 -13.9761 -8.7569
32 9 21 -6.9960 10.8838
32 9 23 1.1488 -6.6757
32 9 25 -0.5121 -1.8696
32 9 27 -6.5539 5.1635
32 9 29 -5.5011 7.5054
32 9 31 -5.6980 -9.8849
32 9 33 -11.7192 -19.1704
32 9 35 2.1962 7.2034
32 10 0 20.8175 -2.0095
32 10 2 -42.1402 -0.9292
32 10 4 -10.7699 -16.9234
32 10 6 -31.2125 10.1664
32 10 8 -33.9975 -3.7132
32 10 10 33.1193 6.7359
32 10 12 -16.7113 -0.1649
32 10 14 25.7898 11.8077
32 10 16 13.9738 8.0238
32 10 18 2.2766 8.3366
32 10 20 -4.6966 13.2711
32 10 22 -13.4474 1.9511
32 10 24 8.7806 -13.0481
32 10 26 6.2080 9.8116
32 10 28 8.8158 1.2726
32 10 30 14.6136 17.3889
32 10 32 1.6796 3.8051
32 10 34 5.8202 -18.8661
32 11 1 4.5892 17.7275
32 11 3 -9.6066 5.3824
32 11 5 46.1583 -8.3742
32 11 7 -4.8243 -24.8216
32 11 9 20.8864 15.1987
32 11 11 9.0844 8.9487
32 11 13 -12.5361 -8.5519
32 11 15 24.1266 1.2260
32 11 17 -31.0855 -1.7771
32 11 19 6.3625 3.4826
32 11 21 4.7715 9.6872
32 11 23 9.4375 8.7129
32 11 25 -3.6671 -6.6173
32 11 27 5.1795 -4.2801
32 11 29 -3.2544 -6.4046
32 11 31 13.5422 -0.2160
32 11 33 0.8773 -2.5768
32 12 0 7.8318 -1.8251
32 12 2 -7.3395 18.0903
32 12 4 -4.5849 -13.3787
32 12 6 -29.1811 16.0633
32 12 8 -15.9810 -6.6999
32 12 10 16.5685 12.0483
32 12 12 -23.2172 -3.0956
32 12 14 21.8734 15.7199
32 12 16 -0.9306 -10.2550
32 12 18 -19.5502 8.9679
32 12 20 3.4059 3.6683
32 12 22 -0.6015 12.6590
32 12 24 7.7091 3.1788
32 12 26 -6.3841 4.5104
32 12 28 -8.2726 -7.3539
32 12 30 5.7717 6.1353
32 12 32 -6.6251 9.1957
32 12 34 -1.9742 0.3741
32 13 1 2.3633 14.5998
32 13 3 -0.9410 12.9440
32 13 5 -20.7768 5.7443
32 13 7 -1.9538 -14.5171
32 13 9 -12.2426 -1.5061
32 13 11 3.6089 0.6388
32 13 13 -0.9818 -34.8568
32 13 15 8.5698 -5.4047
32 13 17 -0.3696 22.4535
32 13 19 2.2124 18.0492
32 13 21 10.3945 4.9997
32 13 23 -0.2883 8.4311
32 13 25 -9.3398 -5.8615
32 13 27 -10.2213 4.5701
32 13 29 -7.3293 -2.6380
32 13 31 -12.6085 14.5416
32 13 33 17.4813 -17.1401
32 14 0 -17.1222 -1.5586
32 14 2 18.2175 26.3138
32 14 4 58.0699 15.5260
32 14 6 -28.4709 20.8905
32 14 8 -1.0949 -16.1980
32 14 10 42.4647 42.4070
32 14 12 21.7148 -1.2289
32 14 14 2.2836 15.4647
32 14 16 -14.1876 3.2065
32 14 18 -0.8084 -10.4482
32 14 20 0.6797 16.2780
32 14 22 0.5060 18.2449
32 14 24 14.7868 -2.0074
32 14 26 16.8700 -12.8875
32 14 28 7.3744 -11.3030
32 14 30 -2.0702 11.4446
32 14 32 6.2743 21.7411
32 15 1 -15.9268 -13.7611
32 15 3 39.1288 48.9410
32 15 5 29.3815 -37.0452
32 15 7 -3.0256 -23.8740
32 15 9 -5.7413 5.0438
32 15 11 -2.4130 3.4015
32 15 13 -10.6781 -10.6821
32 15 15 2.2264 -4.1171
32 15 17 -7.4770 5.4204
32 15 19 11.3520 -22.4465
32 15 21 7.6505 10.3676
32 15 23 -8.0666 -7.7886
32 15 25 -6.9046 2.8872
32 15 27 -7.9166 4.4580
32 15 29 -10.7921 7.9636
32 15 31 16.7419 -18.0576
32 15 33 -0.9915 12.8622
32 16 0 -56.3535 -1.2727
32 16 2 0.6913 -47.5987
32 16 4 61.8248 3.5212
32 16 6 22.6445 -42.4025
32 16 8 -8.2994 -16.9244
32 16 10 -19.6375 -13.1875
32 16 12 -6.6635 -18.6230
32 16 14 -18.2144 -6.4432
32 16 16 0.1185 -1.3348
32 16 18 14.2631 15.0675
32 16 20 -5.9765 -5.5268
32 16 22 9.3980 -7.2730
32 16 24 6.8880 -0.0374
32 16 26 2.2662 18.0767
32 16 28 4.1607 1.1744
32 16 30 2.4340 13.9125
32 16 32 -3.1701 -17.1644
32 17 1 12.4854 -25.1249
32 17 3 28.4504 25.3750
32 17 5 18.9007 -19.1916
32 17 7 -3.2462 1.0078
32 17 9 -21.3273 54.3476
32 17 11 -7.1526 -11.6880
32 17 13 2.0905 3.4048
32 17 15 8.6367 -25.6061
32 17 17 -7.5147 3.2923
32 17 19 1.5556 -10.4992
32 17 21 7.1197 -3.1610
32 17 23 -8.3894 13.2057
32 17 25 17.7928 -14.4993
32 17 27 17.2267 -2.7613
32 17 29 -8.0904 -28.6108
32 17 31 -10.0472 -19.3727
32 18 0 -29.0066 -1.1483
32 18 2 -7.0416 65.1565
32 18 4 -15.6044 7.5102
32 18 6 22.6364 60.4136
32 18 8 -10.9421 -6.3394
32 18 10 44.1438 6.9218
32 18 12 48.4876 9.7030
32 18 14 -14.7673 2.9386
32 18 16 -29.1836 5.0031
32 18 18 18.6350 -3.5254
32 18 20 -11.0868 -5.2303
32 18 22 -17.9985 -9.3663
32 18 24 -9.7268 15.7542
32 18 26 -8.6667 -0.9598
32 18 28 -17.3913 6.9199
32 18 30 -14.0864 -0.5681
32 18 32 -8.8256 26.5402
32 19 1 -1.5912 37.6857
32 19 3 -29.0325 7.2061
32 19 5 7.4766 -21.5678
32 19 7 -12.2738 21.8274
32 19 9 -15.3186 -19.5334
32 19 11 -13.0713 -30.2503
32 19 13 14.8402 18.3376
32 19 15 6.7063 19.3703
32 19 17 6.1922 -20.1683
32 19 19 -15.3588 -13.6932
32 19 21 -9.8311 10.1262
32 19 23 10.8086 -13.5908
32 19 25 -18.8387 5.0368
32 19 27 12.6006 -17.1456
32 19 29 -6.0332 3.4387
32 19 31 -3.7671 21.7764
32 20 0 26.2578 -1.1847
32 20 2 10.5787 58.2136
32 20 4 9.7905 2.5505
32 20 6 27.7443 -26.6787
32 20 8 2.4846 4.0980
32 20 10 27.1854 1.2043
32 20 12 1.2806 11.2957
32 20 14 -25.8286 -0.3856
32 20 16 -19.3146 -0.2015
32 20 18 2.7379 -18.2459
32 20 20 -5.3632 0.9246
32 20 22 -6.1781 6.6272
32 20 24 -5.1371 10.1830
32 20 26 -5.9815 2.3751
32 20 28 -19.1123 -2.2335
32 20 30 8.2929 10.1904
32 21 1 23.7814 20.7246
32 21 3 23.5541 28.1085
32 21 5 -35.0201 -11.6801
32 21 7 -9.3828 10.6790
32 21 9 -18.7356 -4.6380
32 21 11 -1.7235 -18.3555
32 21 13 -0.8959 2.8454
32 21 15 19.1355 1.0914
32 21 17 -15.6086 -24.3856
32 21 19 8.3125 14.2906
32 21 21 -2.8534 12.9621
32 21 23 -12.8043 -3.9936
32 21 25 2.9383 7.1091
32 21 27 13.2780 11.4111
32 21 29 -10.2891 -24.9506
32 22 0 9.8468 -1.2840
32 22 2 30.0801 6.6234
32 22 4 9.3313 -19.5771
32 22 6 20.7538 -32.9348
32 22 8 -0.6991 14.6738
32 22 10 -63.5227 -3.1726
32 22 12 0.1573 12.3329
32 22 14 -8.0847 -28.7413
32 22 16 14.1565 -9.6729
32 22 18 13.7160 27.1256
32 22 20 -17.0464 5.3759
32 22 22 -6.1251 8.9141
32 22 24 -7.8937 -0.0725
32 22 26 -4.6041 3.3639
32 22 28 -13.1311 -2.5619
32 22 30 -4.5122 4.0320
32 23 1 -3.0697 6.4467
32 23 3 41.4763 24.2973
32 23 5 31.6799 3.7350
32 23 7 -14.5217 -13.2845
32 23 9 -24.5879 2.3843
32 23 11 -22.8574 -23.2060
32 23 13 2.1847 1.7629
32 23 15 -14.0615 5.0123
32 23 17 2.2698 17.4304
32 23 19 -7.6105 -3.1078
32 23 21 9.3489 0.2372
32 23 23 4.5555 -4.4483
32 23 25 11.9162 16.3199
32 23 27 6.5913 -11.6583
32 23 29 -13.9890 8.3213
32 24 0 0.4213 -1.3470
32 24 2 1.5007 -8.5137
32 24 4 -14.0283 -2.5638
32 24 6 -13.0263 -36.6437
32 24 8 -1.2347 3.9262
32 24 10 -54.4040 -3.5346
32 24 12 -8.7169 6.2744
32 24 14 -65.6978 23.1836
32 24 16 -2.2134 10.1677
32 24 18 11.2726 -7.4445
32 24 20 3.1339 18.5207
32 24 22 -23.3677 7.6568
32 24 24 -4.2150 5.8472
32 24 26 8.1978 -21.6681
32 24 28 13.5488 -14.8176
32 25 1 -9.6396 0.4447
32 25 3 -25.2390 -21.0932
32 25 5 -22.4134 5.2699
32 25 7 4.6188 4.4705
32 25 9 3.2362 0.4295
32 25 11 -8.0734 -1.3931
32 25 13 -1.7456 -3.7761
32 25 15 6.8111 3.7761
32 25 17 -11.2603 2.5278
32 25 19 0.3374 -0.1435
32 25 21 4.6922 -13.3260
32 25 23 4.2417 -5.5457
32 25 25 3.8493 5.6780
32 25 27 2.0101 -3.3726
32 26 0 -9.3342 -1.2155
32 26 2 -0.7495 21.3639
32 26 4 14.5671 -15.6935
32 26 6 11.7834 -15.8985
32 26 8 6.5427 -20.7163
32 26 10 -51.6429 31.8925
32 26 12 1.2681 -2.0984
32 26 14 -35.4087 -6.7226
32 26 16 0.7956 -8.1944
32 26 18 16.7261 16.6728
32 26 20 2.8736 -9.7972
32 26 22 0.1599 16.9069
32 26 24 -0.9088 -4.6152
32 26 26 0.0135 -1.3107
32 27 1 1.8398 7.9408
32 27 3 8.3480 34.1511
32 27 5 -5.4215 -3.6923
32 27 7 -9.0723 -1.3334
32 27 9 -8.5280 1.7523
32 27 11 8.9023 8.0727
32 27 13 8.3584 -3.7457
32 27 15 5.7656 -7.9371
32 27 17 14.2158 -8.2207
32 27 19 3.1351 13.7955
32 27 21 -13.1317 -7.2439
32 27 23 5.8698 -5.2703
32 27 25 2.2626 -2.4067
32 28 0 17.7082 -0.9232
32 28 2 -8.6359 23.8554
32 28 4 -24.3724 -7.5525
32 28 6 -4.8952 29.9287
32 28 8 5.5749 -3.7580
32 28 10 1.2129 -16.5094
32 28 12 15.7257 1.9055
32 28 14 -11.6296 -2.8328
32 28 16 -6.5674 6.4215
32 28 18 4.0627 6.3333
32 28 20 1.7854 11.0229
32 28 22 0.7536 3.1497
32 28 24 10.5939 -10.0094
32 29 1 -3.9399 10.7538
32 29 3 -1.2592 17.9327
32 29 5 -2.9334 -14.0713
32 29 7 4.9398 5.7299
32 29 9 -15.6909 14.6155
32 29 11 12.5612 12.2045
32 29 13 5.2856 -1.6561
32 29 15 -8.4476 -23.3537
32 29 17 0.5489 6.7707
32 29 19 0.3679 -7.8431
32 29 21 15.8297 -5.3292
32 29 23 0.0809 -2.0631
32 29 25 -12.6412 12.5592
32 30 0 11.7583 -0.5279
32 30 2 1.2449 4.8187
32 30 4 18.5765 -3.2060
32 30 6 -4.3029 -11.4313
32 30 8 -1.7859 0.2778
32 30 10 8.2921 8.7422
32 30 12 18.1545 -7.6867
32 30 14 15.7435 -1.9486
32 30 16 -2.2034 -1.4809
32 30 18 -0.5450 4.7069
32 30 20 -6.4287 2.0139
32 30 22 -1.6753 1.7000
32 30 24 14.1548 -7.2773
32 31 1 -2.0920 -3.8141
32 31 3 -2.2216 -13.0382
32 31 5 -8.1838 15.3538
32 31 7 -14.1422 -3.2810
32 31 9 6.1230 16.1566
32 31 11 6.0229 -2.5203
32 31 13 -5.5311 6.0187
32 31 15 9.9785 5.0520
32 31 17 -7.4968 -9.9137
32 31 19 -11.4518 8.2340
32 31 21 11.8909 -7.7356
32 31 23 7.5508 -16.3025
32 32 0 0.3137 -0.2177
32 32 2 7.7503 -0.0458
32 32 4 10.2754 0.3231
32 32 6 -4.9933 -0.0044
32 32 8 0.9932 0.3287
32 32 10 -9.0595 0.1378
32 32 12 9.1010 -0.0631
32 32 14 12.9197 -0.0131
32 32 16 16.6540 0.0567
32 32 18 7.7171 0.0132
32 32 20 17.0323 -0.0847
32 32 22 -0.5998 0.0053
33 0 1 3.9585 5.8940
33 0 3 1.6977 -0.5139
33 0 5 -7.5671 -6.9098
33 0 7 0.3760 1.7171
33 0 9 3.0482 1.8260
33 0 11 -16.5570 17.0247
33 0 13 -10.1280 -9.1066
33 0 15 12.8598 -13.8764
33 0 17 -0.1427 0.3352
33 0 19 6.4662 -6.1762
33 0 21 2.3032 1.9332
33 0 23 0.8974 -0.7507
33 0 25 -5.8923 -6.0737
33 0 27 -5.1146 5.0725
33 0 29 12.7010 12.5994
33 0 31 17.0009 -17.0323
33 0 33 9.3023 9.2543
33 0 35 -22.7880 22.7166
33 1 0 -10.5396 0.1134
33 1 2 5.1888 -1.4279
33 1 4 13.3739 25.5627
33 1 6 0.1652 18.1625
33 1 8 -7.4788 -30.9691
33 1 10 21.7165 -26.8218
33 1 12 -13.1113 36.4502
33 1 14 -30.1902 1.1619
33 1 16 -5.7441 18.7052
33 1 18 6.3230 -1.6667
33 1 20 14.0452 -7.0493
33 1 22 -7.9706 -10.0940
33 1 24 5.6484 -1.3177
33 1 26 1.3799 1.4356
33 1 28 -9.5525 7.0361
33 1 30 3.8048 19.8407
33 1 32 5.9570 -16.7886
33 1 34 1.1456 -0.2305
33 2 1 3.2334 19.3394
33 2 3 10.2816 11.0681
33 2 5 4.7117 -15.0194
33 2 7 0.3335 -3.9720
33 2 9 -11.5354 -33.9530
33 2 11 -8.9161 6.3761
33 2 13 -2.0293 8.6084
33 2 15 -0.0965 -15.0510
33 2 17 -0.4652 1.9765
33 2 19 20.1830 0.2596
33 2 21 -2.8310 -6.5093
33 2 23 -11.5914 3.1999
33 2 25 7.2105 2.4167
33 2 27 -22.5527 4.2134
33 2 29 -6.4723 -10.1153
33 2 31 19.3584 -4.4465
33 2 33 -16.8633 -15.6155
33 2 35 -3.7825 -2.4665
33 3 0 -7.9197 0.3050
33 3 2 -5.6941 49.5152
33 3 4 9.0773 21.5426
33 3 6 -20.5452 -30.5235
33 3 8 17.9347 -18.8267
33 3 10 9.3070 -10.4379
33 3 12 -11.5073 3.9799
33 3 14 -28.9664 7.9316
33 3 16 -4.2760 -3.6360
33 3 18 6.0680 5.2273
33 3 20 8.5012 -0.0905
33 3 22 8.9344 4.4042
33 3 24 2.4422 1.1758
33 3 26 3.5594 0.2183
33 3 28 -0.3916 -2.2661
33 3 30 12.3680 -11.4562
33 3 32 -0.3171 -2.7883
33 3 34 -2.8185 -4.4174
33 4 1 19.7056 -0.9038
33 4 3 -27.3241 -8.3335
33 4 5 30.9376 -6.6495
33 4 7 -13.2336 -4.3218
33 4 9 -17.7369 8.9354
33 4 11 -33.8983 17.9541
33 4 13 10.9691 -16.0186
33 4 15 -23.4948 -11.9342
33 4 17 16.0026 -8.0525
33 4 19 -4.0116 -22.5224
33 4 21 -9.7579 -1.6536
33 4 23 -16.2853 -4.9830
33 4 25 -0.1310 -1.2690
33 4 27 16.9516 -4.2732
33 4 29 -3.4524 -5.7929
33 4 31 -0.8893 2.5096
33 4 33 -13.2825 -0.5458
33 4 35 -0.4830 2.7697
33 5 0 -20.1654 0.3251
33 5 2 -12.3233 13.8192
33 5 4 -25.6917 1.9306
33 5 6 22.3145 14.4691
33 5 8 32.3788 -13.5982
33 5 10 -1.5095 -20.9512
33 5 12 21.7053 28.0592
33 5 14 2.2044 -21.3421
33 5 16 21.6538 0.3382
33 5 18 4.1956 -11.2923
33 5 20 -4.9047 -1.7158
33 5 22 4.6351 -27.0121
33 5 24 -6.9016 1.8444
33 5 26 -4.2325 -1.7975
33 5 28 -0.9072 -2.6185
33 5 30 8.1542 15.4943
33 5 32 -12.2603 -8.2271
33 5 34 -2.7676 0.5009
33 6 1 -39.0878 19.0529
33 6 3 -39.6462 -1.6529
33 6 5 -30.9366 29.5241
33 6 7 -1.6252 -4.6222
33 6 9 4.0826 -22.5579
33 6 11 9.3071 22.2989
33 6 13 -4.2324 19.7053
33 6 15 -12.3385 0.2064
33 6 17 11.6424 -12.0518
33 6 19 9.2745 -10.1023
33 6 21 6.7364 12.1793
33 6 23 14.0702 -10.6381
33 6 25 -2.5199 -2.1246
33 6 27 -0.0879 4.4236
33 6 29 10.7176 9.6143
33 6 31 6.5472 -7.8096
33 6 33 -5.7743 -2.5728
33 7 0 -46.8551 0.4639
33 7 2 2.0977 0.1171
33 7 4 -17.1024 47.8497
33 7 6 35.5788 -9.6367
33 7 8 -6.5056 -19.1423
33 7 10 -15.8399 -18.4172
33 7 12 -17.6172 6.0729
33 7 14 -14.8535 -8.4981
33 7 16 -12.0468 0.0702
33 7 18 -14.0888 4.7500
33 7 20 8.5949 6.0281
33 7 22 1.3172 5.0615
33 7 24 2.3716 -16.8188
33 7 26 9.8648 14.9179
33 7 28 11.4688 5.2953
33 7 30 12.2050 11.4697
33 7 32 -3.0962 -2.3409
33 7 34 4.9505 -13.8913
33 8 1 -44.3159 -13.2424
33 8 3 8.1150 18.3324
33 8 5 -19.5792 -6.6962
33 8 7 1.4334 20.7681
33 8 9 5.0850 21.2615
33 8 11 18.7928 -21.5599
33 8 13 -27.4496 15.1945
33 8 15 4.0245 -3.7663
33 8 17 2.9630 -16.9691
33 8 19 27.6515 -0.5138
33 8 21 -4.5117 11.1000
33 8 23 11.9021 12.9641
33 8 25 -10.0147 2.5764
33 8 27 -13.1335 8.0625
33 8 29 2.0071 -5.2924
33 8 31 2.7873 -20.9509
33 8 33 2.6279 -3.2921
33 9 0 -44.9013 0.4982
33 9 2 -0.1160 -4.3948
33 9 4 -22.0886 51.2036
33 9 6 -10.6032 -5.2364
33 9 8 -11.2303 -58.5938
33 9 10 -33.9923 -8.7950
33 9 12 17.7984 -7.9960
33 9 14 21.7976 13.3731
33 9 16 -21.5497 21.3096
33 9 18 -2.5145 4.9067
33 9 20 6.4767 -8.6481
33 9 22 -2.5128 1.2766
33 9 24 0.9407 3.3504
33 9 26 -1.4919 -0.9065
33 9 28 -12.2462 7.9865
33 9 30 -2.9996 -8.6261
33 9 32 11.3506 1.3533
33 9 34 0.8029 19.2796
33 10 1 -6.9792 4.0080
33 10 3 -12.9733 7.7006
33 10 5 -14.2179 -14.2351
33 10 7 33.9857 12.3099
33 10 9 0.6316 17.5446
33 10 11 -31.9702 -5.9596
33 10 13 24.9157 17.9905
33 10 15 3.5062 -3.8907
33 10 17 -16.2895 8.5756
33 10 19 -7.0655 20.8249
33 10 21 3.3179 -2.4356
33 10 23 0.7226 -13.5761
33 10 25 20.5395 0.7814
33 10 27 4.1008 6.4306
33 10 29 -4.4629 -3.8773
33 10 31 -16.2691 -8.9624
33 10 33 3.0050 0.0356
33 11 0 -1.5463 0.3975
33 11 2 -7.1638 -8.9097
33 11 4 43.3252 10.0160
33 11 6 22.6327 8.0633
33 11 8 36.2131 26.0372
33 11 10 -7.7650 -4.9394
33 11 12 -34.1490 -9.1173
33 11 14 23.5224 0.0056
33 11 16 16.3843 -4.4699
33 11 18 0.1518 -2.2071
33 11 20 3.9214 2.3719
33 11 22 -7.7231 -0.2662
33 11 24 -7.3832 6.6040
33 11 26 -4.5861 -14.9521
33 11 28 2.6418 -7.7900
33 11 30 15.5744 6.1804
33 11 32 14.0510 -2.0588
33 12 1 6.6644 21.9553
33 12 3 -4.9275 1.2376
33 12 5 -4.1968 -12.6650
33 12 7 -6.5011 -5.8668
33 12 9 -17.2768 -10.2407
33 12 11 -9.1669 13.7886
33 12 13 12.3878 10.6404
33 12 15 2.5167 -1.6087
33 12 17 7.0254 -7.0234
33 12 19 -0.8313 -8.0393
33 12 21 19.4277 -13.4001
33 12 23 6.8580 5.0130
33 12 25 19.4115 3.7587
33 12 27 -18.6217 0.6919
33 12 29 5.4018 -6.7423
33 12 31 -2.0484 -13.1215
33 12 33 -12.0742 -10.1972
33 13 0 -2.4479 0.2360
33 13 2 -5.7086 -21.6041
33 13 4 33.6485 7.7324
33 13 6 10.9207 15.3993
33 13 8 -20.3627 -35.7421
33 13 10 -5.6214 14.7857
33 13 12 -13.9105 -7.7448
33 13 14 42.9347 -9.0046
33 13 16 -19.2620 2.5784
33 13 18 -2.7941 1.5943
33 13 20 7.8494 6.3527
33 13 22 8.5010 -9.4283
33 13 24 -20.9573 -9.0962
33 13 26 2.5675 6.0120
33 13 28 1.1007 -0.4559
33 13 30 -5.6913 1.4637
33 13 32 -18.2411 12.4721
33 14 1 -5.5168 -22.8297
33 14 3 -1.5076 28.7483
33 14 5 7.1007 4.2851
33 14 7 -0.5617 22.4393
33 14 9 -11.8890 -8.3775
33 14 11 -12.6499 9.9807
33 14 13 21.4982 -3.2890
33 14 15 15.0341 -3.2620
33 14 17 -10.6862 -23.6638
33 14 19 -9.7270 23.7642
33 14 21 14.4979 17.6187
33 14 23 -1.3261 -2.2029
33 14 25 3.3815 14.4996
33 14 27 8.3879 8.8066
33 14 29 -16.3544 12.7196
33 14 31 -0.8357 17.0845
33 14 33 3.4730 0.7579
33 15 0 -0.1611 0.1486
33 15 2 -7.2404 -56.5068
33 15 4 34.5837 13.1206
33 15 6 -17.6880 8.2611
33 15 8 43.4287 23.3399
33 15 10 2.7845 16.5694
33 15 12 35.7408 20.3026
33 15 14 -11.1109 18.9711
33 15 16 -5.9723 -26.2021
33 15 18 -14.0928 5.7397
33 15 20 8.1187 3.2713
33 15 22 15.4804 -11.2206
33 15 24 -1.1166 -11.3928
33 15 26 -11.8998 -5.1730
33 15 28 1.5101 5.6875
33 15 30 18.9605 2.6352
33 15 32 -9.3909 -18.9661
33 16 1 -14.7227 -41.1688
33 16 3 0.9244 -33.0376
33 16 5 18.9385 50.6018
33 16 7 30.3990 -22.9908
33 16 9 3.4466 -5.6635
33 16 11 27.4518 -25.3981
33 16 13 -4.6968 16.5623
33 16 15 -6.9655 -15.5656
33 16 17 -20.6668 11.4208
33 16 19 2.8041 11.9226
33 16 21 -2.6718 -16.0681
33 16 23 -5.2355 -14.9052
33 16 25 -3.0962 3.6099
33 16 27 -11.8053 8.7082
33 16 29 9.2557 15.5518
33 16 31 -18.4387 -9.1082
33 17 0 54.4154 0.1274
33 17 2 -12.3387 -14.4132
33 17 4 15.9334 48.8866
33 17 6 18.4608 -2.2819
33 17 8 -17.0552 -45.1669
33 17 10 20.5131 1.2192
33 17 12 -17.2635 -15.3525
33 17 14 -31.6412 -10.6705
33 17 16 12.5214 -24.0619
33 17 18 -14.9349 2.6791
33 17 20 -13.3554 -7.6788
33 17 22 -0.2962 11.3581
33 17 24 -4.4162 -8.1599
33 17 26 -6.1649 -26.1432
33 17 28 -15.1800 12.9815
33 17 30 -10.5337 13.3684
33 18 1 26.3847 2.2767
33 18 3 -27.1149 31.5341
33 18 5 0.1029 42.0820
33 18 7 -9.4588 8.7833
33 18 9 10.5336 -20.9979
33 18 11 21.9438 -2.0272
33 18 13 31.1117 1.4276
33 18 15 -14.5358 -11.1674
33 18 17 -13.3358 -8.4215
33 18 19 -4.1569 17.0591
33 18 21 -6.7758 2.2888
33 18 23 -6.9943 -7.9752
33 18 25 1.0842 -8.5701
33 18 27 4.5713 -1.9379
33 18 29 20.7779 -2.3716
33 18 31 12.9282 -14.6047
33 19 0 88.5845 0.1974
33 19 2 -5.5614 29.7470
33 19 4 -14.5279 41.9283
33 19 6 2.1395 -5.1205
33 19 8 23.5446 3.2679
33 19 10 12.3060 1.2410
33 19 12 -1.7115 -1.4665
33 19 14 -18.8140 8.8951
33 19 16 -0.7778 -16.8211
33 19 18 -9.5176 2.7269
33 19 20 2.1001 1.6598
33 19 22 2.7679 23.5166
33 19 24 -14.9753 11.9144
33 19 26 -13.7332 19.1147
33 19 28 6.2349 17.9044
33 19 30 -16.2468 0.8455
33 20 1 1.8113 27.8889
33 20 3 -32.7925 -15.4681
33 20 5 31.5073 -32.8839
33 20 7 6.2182 2.0674
33 20 9 -0.3068 -21.6432
33 20 11 -2.8721 -4.1183
33 20 13 25.3094 20.9952
33 20 15 7.1828 -11.4295
33 20 17 -14.4263 -9.6995
33 20 19 -9.2839 3.6710
33 20 21 -6.7142 -19.2399
33 20 23 7.3557 12.6410
33 20 25 15.9166 12.9493
33 20 27 -7.2718 5.1910
33 20 29 15.8537 -9.5276
33 21 0 23.5939 0.2465
33 21 2 -25.3045 17.5159
33 21 4 -5.0710 37.8429
33 21 6 4.7533 28.9167
33 21 8 3.6105 30.1386
33 21 10 7.4960 -20.0312
33 21 12 14.7602 14.0419
33 21 14 -2.5159 2.7045
33 21 16 -14.7987 -23.0508
33 21 18 -2.3110 5.2964
33 21 20 -4.9589 -13.4336
33 21 22 -8.6638 -8.3925
33 21 24 -10.8947 -10.9783
33 21 26 -3.0706 -3.0136
33 21 28 9.9940 -4.1523
33 22 1 4.7364 18.7124
33 22 3 -0.7155 -10.6069
33 22 5 -28.9658 -26.2271
33 22 7 16.3448 -21.7991
33 22 9 13.9899 -9.3340
33 22 11 9.6851 -5.6184
33 22 13 2.8211 16.4240
33 22 15 -12.9274 -13.2567
33 22 17 6.9615 -12.5517
33 22 19 4.4320 0.8976
33 22 21 -8.2590 2.6247
33 22 23 -10.9674 -6.4220
33 22 25 1.5747 -23.7941
33 22 27 -0.0271 -13.0835
33 22 29 12.7712 17.2436
33 23 0 -22.6865 0.3577
33 23 2 9.4632 17.5382
33 23 4 -9.8157 22.0775
33 23 6 3.4678 8.5944
33 23 8 9.2426 25.8228
33 23 10 -2.9453 2.5266
33 23 12 32.3629 19.4333
33 23 14 -4.1600 7.8448
33 23 16 -34.0610 -6.9718
33 23 18 -0.7400 -8.8705
33 23 20 10.5591 -13.0387
33 23 22 5.6940 5.7051
33 23 24 -9.4786 21.4462
33 23 26 0.3991 -0.2929
33 23 28 -11.5495 25.0147
33 24 1 -4.8847 10.4576
33 24 3 -12.6095 0.2408
33 24 5 -17.9431 -3.3934
33 24 7 -23.6784 3.0930
33 24 9 -7.1678 0.8077
33 24 11 5.7013 16.8175
33 24 13 18.5765 0.4828
33 24 15 14.9851 12.3261
33 24 17 -1.7785 -2.0487
33 24 19 -13.7460 10.7679
33 24 21 11.6449 2.4557
33 24 23 13.8136 -2.9337
33 24 25 7.2810 -13.9155
33 24 27 -2.8746 -1.5447
33 25 0 39.2746 0.4690
33 25 2 1.0138 27.2213
33 25 4 -4.2061 -3.1518
33 25 6 -6.5439 3.8211
33 25 8 -45.8590 -46.0641
33 25 10 0.5216 -8.0962
33 25 12 -24.8112 21.6272
33 25 14 2.1633 -10.5198
33 25 16 -14.8571 6.3580
33 25 18 -9.3231 15.8211
33 25 20 -5.1883 7.5959
33 25 22 4.9689 7.3026
33 25 24 0.2805 -5.0744
33 25 26 -13.2418 -17.6332
33 26 1 -12.3463 0.9123
33 26 3 7.8691 -7.2315
33 26 5 -4.8185 4.9977
33 26 7 -11.1009 -18.9820
33 26 9 10.9117 5.5875
33 26 11 1.9669 -5.7307
33 26 13 -5.1994 -4.1088
33 26 15 0.7880 -10.2437
33 26 17 -2.5054 17.3905
33 26 19 10.6348 -9.1532
33 26 21 13.7147 0.7419
33 26 23 -0.4151 -7.4878
33 26 25 13.4535 -12.6800
33 27 0 6.4787 0.4465
33 27 2 -1.4289 -8.6628
33 27 4 7.6754 14.5696
33 27 6 0.7613 14.5131
33 27 8 22.8514 -0.6037
33 27 10 -0.4923 -10.4525
33 27 12 -16.6448 10.8807
33 27 14 12.1760 10.3045
33 27 16 -21.4919 13.3831
33 27 18 -3.9585 12.2791
33 27 20 13.8215 12.7102
33 27 22 0.8461 -7.0139
33 27 24 -13.9857 -4.8156
33 28 1 9.4080 0.9267
33 28 3 12.7986 5.2983
33 28 5 -8.6629 5.3937
33 28 7 -18.0069 -9.2118
33 28 9 -7.8964 -11.5057
33 28 11 0.4337 13.4006
33 28 13 -7.8669 3.8247
33 28 15 -4.1178 -3.0296
33 28 17 -3.6618 -8.2744
33 28 19 26.8587 -0.0582
33 28 21 11.5623 -0.5733
33 28 23 1.7857 6.0313
33 29 0 14.5326 0.3149
33 29 2 10.7412 7.7492
33 29 4 9.6774 -2.6161
33 29 6 -1.8398 -4.5104
33 29 8 -12.8504 -2.1266
33 29 10 13.2186 -12.0594
33 29 12 -1.9268 16.6857
33 29 14 -18.1088 8.9519
33 29 16 -6.8134 -4.7775
33 29 18 2.6960 6.0802
33 29 20 14.3911 -7.7677
33 29 22 15.8680 1.0001
33 29 24 2.9355 8.4863
33 30 1 -12.9546 -4.1321
33 30 3 18.9843 2.4272
33 30 5 -0.6030 -7.4305
33 30 7 -5.2579 8.3931
33 30 9 12.9263 -4.2067
33 30 11 7.1586 5.8287
33 30 13 -6.3346 3.1276
33 30 15 14.3582 10.1991
33 30 17 4.8135 -3.2159
33 30 19 0.3766 -5.5301
33 30 21 -4.3590 -24.5599
33 30 23 24.2076 3.3168
33 31 0 -8.1159 0.1359
33 31 2 -14.7768 3.2024
33 31 4 -15.5466 7.7707
33 31 6 -0.2070 -3.1927
33 31 8 4.6647 -10.6004
33 31 10 13.3710 7.5166
33 31 12 8.3042 12.7045
33 31 14 13.7311 18.8770
33 31 16 6.0092 3.9715
33 31 18 -10.4120 7.0298
33 31 20 -8.0975 -0.9880
33 32 1 -19.9191 3.9674
33 32 3 2.5455 0.9029
33 32 5 8.7366 -3.6097
33 32 7 -17.5798 -4.9006
33 32 9 -4.4907 -21.3356
33 32 11 5.6598 -4.2889
33 32 13 -7.1550 -16.5159
33 32 15 -16.8670 -7.8271
33 32 17 4.4846 -21.5812
33 32 19 4.0632 3.5644
33 33 0 10.8433 -0.0047
33 33 2 3.2019 -0.1666
33 33 4 2.7647 0.0178
33 33 6 -3.9390 -0.5689
33 33 8 -17.0698 -0.2008
33 33 10 -10.4199 -0.1115
33 33 12 30.5808 -0.0302
33 33 14 4.9963 0.0718
33 33 16 -20.7127 0.0118
33 33 18 -31.2992 -0.0240
34 0 0 11.2176 -2.1200
34 0 2 -0.1800 -20.4281
34 0 4 8.2702 -0.4057
34 0 6 0.0051 -39.1801
34 0 8 34.2791 0.8538
34 0 10 0.7061 -46.9522
34 0 12 -5.8831 -0.3586
34 0 14 0.8298 -2.7666
34 0 16 -12.8260 0.2996
34 0 18 0.5298 -13.9610
34 0 20 -7.6812 -0.0730
34 0 22 0.2056 17.4675
34 0 24 -14.0796 -0.1618
34 0 26 -0.0233 20.3394
34 0 28 -20.1595 0.2033
34 0 30 0.0124 10.2284
34 0 32 -6.7964 0.0925
34 0 34 0.0676 -2.0519
34 1 1 -34.9127 -14.4705
34 1 3 -4.7084 -9.4246
34 1 5 -2.8099 12.5210
34 1 7 1.0905 -10.4944
34 1 9 17.4212 8.6750
34 1 11 0.1031 -48.3252
34 1 13 -43.1565 -18.8410
34 1 15 -23.2683 7.5988
34 1 17 -5.8377 4.7631
34 1 19 -5.1364 1.0634
34 1 21 13.5367 7.8903
34 1 23 2.5538 1.8445
34 1 25 1.5172 -7.7629
34 1 27 -12.8129 -5.0091
34 1 29 -14.0152 -6.7906
34 1 31 2.4283 4.0636
34 1 33 11.8890 -14.2283
34 2 0 19.7373 -2.0439
34 2 2 -25.1445 -27.6915
34 2 4 -8.5254 29.3287
34 2 6 -27.7212 -20.3565
34 2 8 -27.9663 14.3458
34 2 10 14.8791 15.5534
34 2 12 -9.2053 -13.4930
34 2 14 -8.6737 -2.9164
34 2 16 11.8226 29.2055
34 2 18 -4.3759 -19.4246
34 2 20 -15.9240 1.2597
34 2 22 18.0359 11.4516
34 2 24 11.3784 5.0452
34 2 26 -0.1447 4.3680
34 2 28 13.1403 -8.1609
34 2 30 9.0645 9.3028
34 2 32 25.0502 1.8875
34 2 34 -1.6855 -3.2904
34 3 1 -11.2709 -10.9459
34 3 3 -5.1292 15.5812
34 3 5 -9.6432 -9.2079
34 3 7 8.9506 21.6087
34 3 9 20.8327 2.9568
34 3 11 7.0342 27.2826
34 3 13 12.3409 3.3148
34 3 15 -7.9013 -7.7287
34 3 17 -2.4018 -11.9456
34 3 19 1.0972 10.3297
34 3 21 -5.3207 4.2278
34 3 23 6.3271 2.0286
34 3 25 7.6449 -10.2196
34 3 27 3.6869 1.9022
34 3 29 9.1644 2.9061
34 3 31 -1.0338 -1.7399
34 3 33 -0.8079 1.3319
34 4 0 -5.4218 -1.8629
34 4 2 -28.6142 -37.2223
34 4 4 -1.2765 16.9795
34 4 6 5.4029 27.3717
34 4 8 24.2073 3.3868
34 4 10 8.0806 24.7657
34 4 12 -8.7833 11.2190
34 4 14 -10.4245 -6.0160
34 4 16 -5.4126 -3.9448
34 4 18 4.1204 -25.0653
34 4 20 -15.9942 -0.6757
34 4 22 1.3571 -7.2690
34 4 24 -5.6232 -1.7786
34 4 26 2.2609 2.8486
34 4 28 -5.9087 0.7427
34 4 30 4.9755 9.7079
34 4 32 5.5936 2.4921
34 4 34 -8.0657 9.7269
34 5 1 12.3338 -15.8118
34 5 3 29.3039 -29.8558
34 5 5 -32.5592 34.2085
34 5 7 4.3662 28.9667
34 5 9 -11.7908 -41.6999
34 5 11 -8.2542 -9.2556
34 5 13 -7.2122 -28.4280
34 5 15 -5.8554 -3.3172
34 5 17 -1.0501 0.6824
34 5 19 6.8370 9.8038
34 5 21 -0.7267 4.2259
34 5 23 -3.4866 -15.8177
34 5 25 -1.9575 -4.4247
34 5 27 5.9376 -13.6713
34 5 29 -23.5703 1.4320
34 5 31 3.8505 15.9136
34 5 33 3.4141 -1.7043
34 6 0 -25.2622 -2.2276
34 6 2 7.8984 -21.1452
34 6 4 0.5823 -17.6826
34 6 6 -56.4167 16.7219
34 6 8 -9.4892 -33.6217
34 6 10 -1.4229 -9.5604
34 6 12 2.4703 6.9860
34 6 14 11.1043 -1.6819
34 6 16 -7.5075 -2.4400
34 6 18 -9.3757 0.9668
34 6 20 -4.3533 0.5744
34 6 22 12.3710 21.2465
34 6 24 -3.9259 2.0441
34 6 26 7.0537 -10.5341
34 6 28 -0.1593 12.2095
34 6 30 -9.9010 -6.8801
34 6 32 7.1068 -0.1020
34 6 34 16.6914 -14.9405
34 7 1 -9.5969 12.2510
34 7 3 28.4089 -14.1537
34 7 5 -21.9304 -1.3303
34 7 7 -12.0212 -40.0285
34 7 9 -24.3541 -16.0513
34 7 11 11.0907 10.9001
34 7 13 6.5432 -11.5849
34 7 15 14.6318 -5.5688
34 7 17 9.3977 1.6514
34 7 19 -14.4706 -12.3707
34 7 21 12.6268 6.3752
34 7 23 -1.5347 2.7104
34 7 25 -5.8541 -7.5904
34 7 27 9.3867 -1.4282
34 7 29 -0.7164 -4.2570
34 7 31 -2.8605 12.6498
34 7 33 -12.2384 -9.3117
34 8 0 7.7212 -2.0482
34 8 2 -18.4540 -65.0541
34 8 4 15.3632 -8.1778
34 8 6 35.3371 -48.1978
34 8 8 21.3154 -10.7054
34 8 10 -37.5976 6.4972
34 8 12 -3.7853 0.1658
34 8 14 17.7120 -16.1871
34 8 16 -16.5060 -0.7158
34 8 18 -10.4286 -5.0780
34 8 20 -2.3854 12.0724
34 8 22 0.8566 8.1402
34 8 24 19.3130 -10.0594
34 8 26 -1.9452 5.6769
34 8 28 4.7277 -1.6938
34 8 30 -7.1579 5.6114
34 8 32 1.6287 -4.9472
34 9 1 -22.0762 22.5902
34 9 3 8.2833 23.2885
34 9 5 -13.8085 -34.0362
34 9 7 -4.2811 -16.6727
34 9 9 -11.6435 -38.8599
34 9 11 -2.2730 -4.4625
34 9 13 34.7458 -5.5998
34 9 15 9.0804 20.8643
34 9 17 -18.8517 15.7574
34 9 19 2.3043 -20.3834
34 9 21 9.6907 -4.3544
34 9 23 -2.7789 -1.4280
34 9 25 5.2221 12.7843
34 9 27 -4.9130 -5.4966
34 9 29 -12.9393 -8.4464
34 9 31 14.6976 16.9349
34 9 33 0.5404 -0.5206
34 10 0 1.6602 -1.6536
34 10 2 25.6500 57.0244
34 10 4 18.2335 11.8340
34 10 6 3.9953 -73.7067
34 10 8 -10.4553 -3.7202
34 10 10 -22.4266 43.0601
34 10 12 29.9057 0.0103
34 10 14 -25.8890 2.9773
34 10 16 7.6239 -5.3139
34 10 18 -0.7918 -24.3313
34 10 20 -6.2721 14.5518
34 10 22 18.0845 -12.4305
34 10 24 -8.4331 10.8512
34 10 26 0.2487 -14.1055
34 10 28 -10.5624 5.9661
34 10 30 -8.5798 1.8097
34 10 32 6.8326 -3.1410
34 11 1 3.5213 4.0412
34 11 3 5.1911 8.0445
34 11 5 -12.7618 -6.2888
34 11 7 12.0246 -32.4275
34 11 9 -27.0239 -13.9654
34 11 11 21.6526 -8.3187
34 11 13 17.4360 6.7445
34 11 15 8.2243 4.9483
34 11 17 2.5015 4.9009
34 11 19 2.1630 11.2447
34 11 21 5.1195 7.2152
34 11 23 -2.7065 2.5132
34 11 25 -4.6198 -4.0556
34 11 27 8.9207 -16.1471
34 11 29 -3.4735 -9.6541
34 11 31 9.4861 -22.3329
34 11 33 -3.5924 -0.2470
34 12 0 -11.9862 -1.2789
34 12 2 -38.4896 -21.3250
34 12 4 -19.2800 -2.3604
34 12 6 18.2621 -32.7516
34 12 8 -4.5428 10.8665
34 12 10 -26.5451 -1.3931
34 12 12 0.4045 -4.9797
34 12 14 5.8203 14.6272
34 12 16 -6.3237 -2.7218
34 12 18 -25.5551 -3.5498
34 12 20 -7.4660 -5.0839
34 12 22 3.3008 8.7711
34 12 24 12.4197 4.3981
34 12 26 8.0100 3.2930
34 12 28 2.5136 -8.8727
34 12 30 2.2083 -3.6603
34 12 32 -24.3782 -6.6449
34 13 1 6.0323 16.5698
34 13 3 10.6990 8.0911
34 13 5 -1.6313 -4.4418
34 13 7 17.3825 5.0147
34 13 9 -26.3145 6.1315
34 13 11 15.8474 7.4267
34 13 13 -22.8152 9.5727
34 13 15 16.4105 10.2655
34 13 17 8.0718 0.6025
34 13 19 15.2596 13.9129
34 13 21 -11.8808 1.1943
34 13 23 4.5799 -4.7688
34 13 25 -0.3003 13.3860
34 13 27 -8.2295 -10.5589
34 13 29 -1.8876 -6.0816
34 13 31 11.7209 -3.1084
34 14 0 -5.4758 -0.9665
34 14 2 22.5560 -10.6010
34 14 4 25.7812 -9.3415
34 14 6 48.8549 2.6031
34 14 8 14.4732 -13.8634
34 14 10 48.5585 0.7183
34 14 12 18.8028 -12.3479
34 14 14 -38.0388 -26.4470
34 14 16 10.2620 -5.5763
34 14 18 -2.1663 21.1213
34 14 20 -5.4762 19.5798
34 14 22 13.2626 4.7801
34 14 24 0.7353 9.8434
34 14 26 -3.2637 -3.9723
34 14 28 -3.3104 -7.6873
34 14 30 -21.0788 -9.0862
34 14 32 12.2736 17.0831
34 15 1 -13.8071 11.6479
34 15 3 -18.0757 5.5125
34 15 5 -5.4483 -7.7380
34 15 7 -3.2270 17.9075
34 15 9 -23.8228 7.7524
34 15 11 3.6027 5.9382
34 15 13 -3.9873 -21.4089
34 15 15 0.6095 27.5089
34 15 17 14.1755 -8.7893
34 15 19 -14.1475 -29.4196
34 15 21 1.7779 -4.7081
34 15 23 1.0047 27.4319
34 15 25 7.1975 13.8165
34 15 27 -12.7212 -13.9014
34 15 29 -8.2308 -1.6477
34 15 31 -3.8314 2.9298
34 16 0 -16.3811 -0.7023
34 16 2 28.8300 -4.3399
34 16 4 7.2555 -9.3887
34 16 6 17.9474 -42.9427
34 16 8 -14.1250 5.9208
34 16 10 35.3025 10.2971
34 16 12 13.0636 -5.0202
34 16 14 0.0488 -33.1907
34 16 16 -16.8528 -3.6903
34 16 18 -14.9933 -9.9647
34 16 20 2.5573 0.3138
34 16 22 -1.9616 -2.7361
34 16 24 0.1209 12.7060
34 16 26 -2.9326 -20.9008
34 16 28 2.8430 1.1425
34 16 30 7.6511 -15.8004
34 17 1 -8.4892 -13.2415
34 17 3 -34.2670 -38.5498
34 17 5 7.5356 -2.0276
34 17 7 19.2145 -16.7112
34 17 9 12.1089 -2.2176
34 17 11 4.7586 -18.5273
34 17 13 10.1828 19.9839
34 17 15 5.8851 9.4096
34 17 17 11.0761 4.7884
34 17 19 -13.4514 12.7302
34 17 21 -6.6815 4.5887
34 17 23 -1.0927 11.7151
34 17 25 10.8609 -9.0663
34 17 27 2.6358 9.1456
34 17 29 -11.7305 1.3040
34 17 31 12.7934 27.9838
34 18 0 21.4897 -0.6266
34 18 2 54.1881 13.1209
34 18 4 -1.3736 14.7854
34 18 6 1.3645 -42.1133
34 18 8 0.3841 1.9661
34 18 10 -14.8500 -20.4020
34 18 12 -30.8019 5.0781
34 18 14 -1.6971 1.7882
34 18 16 10.3806 -16.5706
34 18 18 2.1736 7.0376
34 18 20 -13.8204 10.4300
34 18 22 0.9346 -12.4760
34 18 24 7.9798 -22.4000
34 18 26 -9.3883 -18.5590
34 18 28 4.5468 2.3288
34 18 30 -15.6461 22.8340
34 19 1 0.4683 26.9783
34 19 3 -14.1767 18.2377
34 19 5 4.8238 -22.7703
34 19 7 0.7492 10.6005
34 19 9 23.9576 -0.0870
34 19 11 -0.9380 -11.4224
34 19 13 -7.6787 10.0961
34 19 15 -20.9454 0.3610
34 19 17 -3.1754 -4.8476
34 19 19 -17.0850 5.0138
34 19 21 -2.0968 14.8132
34 19 23 17.2248 1.1039
34 19 25 7.7654 -8.8804
34 19 27 4.4089 -7.4557
34 19 29 10.6263 -2.6378
34 20 0 33.6436 -0.5401
34 20 2 25.8590 -37.3760
34 20 4 -5.1947 -14.8134
34 20 6 -31.3592 21.4866
34 20 8 7.9544 -12.5882
34 20 10 32.4591 -5.0654
34 20 12 2.0940 -7.8002
34 20 14 -18.9654 -18.5644
34 20 16 -19.3778 8.9717
34 20 18 -12.4095 20.4505
34 20 20 23.4528 8.9928
34 20 22 6.3442 11.3816
34 20 24 -20.4680 16.2310
34 20 26 -5.9893 -1.3867
34 20 28 -19.4977 -3.6905
34 21 1 13.1610 -11.0165
34 21 3 -14.5885 -12.3007
34 21 5 -22.9900 12.1388
34 21 7 -4.0406 4.7431
34 21 9 14.4527 14.7186
34 21 11 4.8004 -11.8900
34 21 13 -5.4144 3.7725
34 21 15 -13.0058 -5.1076
34 21 17 5.0094 -10.2317
34 21 19 -5.2415 18.2249
34 21 21 -18.8972 -1.2684
34 21 23 -11.7957 10.5039
34 21 25 -2.9635 9.0500
34 21 27 1.8807 -0.5647
34 21 29 17.2511 4.6443
34 22 0 -4.2864 -0.5428
34 22 2 1.4942 6.7987
34 22 4 -13.6402 -4.0731
34 22 6 -21.5769 -1.1475
34 22 8 3.5405 9.6340
34 22 10 14.4291 11.1246
34 22 12 -1.1742 0.3320
34 22 14 29.7116 2.7581
34 22 16 9.8649 0.9853
34 22 18 -15.1772 -0.4950
34 22 20 -4.6702 8.9233
34 22 22 -5.4835 7.9661
34 22 24 -2.7526 13.0033
34 22 26 -3.5434 16.5426
34 22 28 -2.1132 0.6313
34 23 1 -9.2835 4.5015
34 23 3 26.0155 29.8803
34 23 5 11.2859 18.2169
34 23 7 -4.5728 8.5805
34 23 9 8.9449 -0.1029
34 23 11 7.4405 -5.9114
34 23 13 7.6914 -17.2745
34 23 15 -5.7824 -4.0339
34 23 17 -20.0468 -10.4619
34 23 19 -8.0774 -1.3559
34 23 21 -0.0436 12.0367
34 23 23 8.1744 -1.3610
34 23 25 14.7158 -2.2441
34 23 27 3.1833 9.0013
34 24 0 -9.5817 -0.5298
34 24 2 -9.0354 11.8837
34 24 4 -10.5399 -4.5644
34 24 6 24.5204 8.5490
34 24 8 -0.7594 4.5617
34 24 10 42.2164 28.2461
34 24 12 -4.5101 3.4123
34 24 14 28.3354 1.3655
34 24 16 2.9304 4.7518
34 24 18 -28.2584 0.2186
34 24 20 5.1906 5.6330
34 24 22 -0.9315 3.5047
34 24 24 12.2373 0.1056
34 24 26 0.1387 0.8766
34 25 1 -9.8313 2.1964
34 25 3 -7.6368 -11.7774
34 25 5 4.1017 18.6474
34 25 7 -19.3953 9.5517
34 25 9 7.3351 -5.4146
34 25 11 -1.0547 -3.0223
34 25 13 -4.3838 2.0354
34 25 15 15.4326 6.4921
34 25 17 -3.9555 -6.7924
34 25 19 -8.5839 -8.0033
34 25 21 1.3422 -7.9792
34 25 23 6.7964 -3.8991
34 25 25 6.2978 -19.9253
34 26 0 -12.3980 -0.4366
34 26 2 14.8766 12.5326
34 26 4 -6.3702 -3.3334
34 26 6 -14.2026 16.3542
34 26 8 -17.9338 -1.2999
34 26 10 26.6130 -2.8841
34 26 12 -3.2960 1.3617
34 26 14 -20.4728 -13.5377
34 26 16 1.5902 -21.3412
34 26 18 -3.5576 19.1716
34 26 20 -5.1991 -10.5162
34 26 22 -0.0882 -12.8645
34 26 24 -1.4008 10.3311
34 27 1 4.0404 -5.1511
34 27 3 7.7376 -1.2525
34 27 5 12.9096 11.2520
34 27 7 -4.5294 -2.4908
34 27 9 12.9765 1.0418
34 27 11 6.4296 5.1823
34 27 13 -5.1117 2.2952
34 27 15 15.0431 11.5603
34 27 17 -15.1140 -12.5297
34 27 19 6.5796 -4.7863
34 27 21 1.6702 3.7704
34 27 23 8.5261 -3.4158
34 28 0 16.2205 -0.2715
34 28 2 10.0361 1.1699
34 28 4 22.4122 -7.3795
34 28 6 -8.5499 -6.1354
34 28 8 6.4128 -2.8703
34 28 10 5.5864 7.3230
34 28 12 8.1592 3.0984
34 28 14 12.7875 -4.5151
34 28 16 -10.1880 -1.2398
34 28 18 -1.3498 6.7885
34 28 20 10.9347 16.5330
34 28 22 16.8454 -5.6723
34 29 1 -4.7658 -2.3329
34 29 3 -5.8746 5.2377
34 29 5 2.6375 -21.5704
34 29 7 6.9717 -0.6439
34 29 9 18.2901 14.3709
34 29 11 -3.7382 -15.9436
34 29 13 3.4441 -11.7509
34 29 15 7.4255 -0.6283
34 29 17 4.7928 -16.0224
34 29 19 7.4210 -2.7871
34 29 21 10.2338 -0.6091
34 30 0 8.7120 -0.1026
34 30 2 14.3799 -14.6787
34 30 4 14.9061 -3.0302
34 30 6 -10.1024 -4.2381
34 30 8 10.6423 10.5371
34 30 10 -5.4788 -6.5343
34 30 12 -15.4134 6.1793
34 30 14 6.5151 -22.0006
34 30 16 -12.7722 6.2005
34 30 18 -15.0911 -6.9833
34 30 20 4.8090 3.1255
34 31 1 -1.0023 13.5528
34 31 3 -0.5171 0.9767
34 31 5 -1.5711 1.7940
34 31 7 -7.3034 -5.9651
34 31 9 5.3897 -7.3389
34 31 11 -8.7540 -16.1075
34 31 13 -9.5532 12.5173
34 31 15 -18.4481 -18.9934
34 31 17 0.4775 -1.2297
34 31 19 -5.9587 11.0336
34 32 0 -6.6864 -0.0082
34 32 2 -6.9466 1.8391
34 32 4 -2.0594 1.2695
34 32 6 6.2767 -7.0643
34 32 8 3.4789 7.5595
34 32 10 9.0087 1.6783
34 32 12 16.4231 -15.2855
34 32 14 -8.5790 9.2477
34 32 16 -5.4616 2.9775
34 32 18 23.1492 3.9092
34 33 1 0.9364 5.5215
34 33 3 -0.2398 -2.9345
34 33 5 -9.7091 -5.9112
34 33 7 -10.6581 -5.9396
34 33 9 7.8224 -2.5024
34 33 11 -9.7558 -23.3694
34 33 13 0.5985 -3.2638
34 33 15 -18.9241 8.6209
34 33 17 2.2429 -3.9393
34 34 0 -3.9887 -0.0779
34 34 2 -13.6647 0.0986
34 34 4 -4.6373 0.3896
34 34 6 -1.6978 0.1856
34 34 8 -8.3849 0.4155
34 34 10 -2.5651 0.1709
34 34 12 1.1269 -0.0443
34 34 14 20.6085 -0.0342
34 34 16 -24.6200 0.0678
35 0 1 37.1196 38.7700
35 0 3 -13.9760 14.1875
35 0 5 -8.9035 -7.5600
35 0 7 -13.5411 14.0988
35 0 9 4.8374 4.6150
35 0 11 17.6114 -18.4071
35 0 13 3.8935 5.6789
35 0 15 -0.3506 -1.3449
35 0 17 -2.7691 -1.7758
35 0 19 -5.0457 4.8638
35 0 21 -3.7169 -3.7675
35 0 23 -2.7057 2.7264
35 0 25 -1.9491 -2.0447
35 0 27 2.1607 -2.2127
35 0 29 -4.2546 -4.3411
35 0 31 -13.3360 13.2996
35 0 33 14.9398 14.9356
35 1 0 6.4537 0.0237
35 1 2 -26.2062 -42.9722
35 1 4 20.1551 8.7596
35 1 6 13.0174 3.9546
35 1 8 -30.6832 7.3697
35 1 10 3.1924 0.1236
35 1 12 29.7065 14.5976
35 1 14 -24.3280 -4.0418
35 1 16 3.4035 0.7370
35 1 18 2.5308 -22.7229
35 1 20 -6.6046 10.3478
35 1 22 -3.8080 0.5055
35 1 24 -1.7987 -6.2696
35 1 26 -14.8513 5.3431
35 1 28 0.4610 -4.8424
35 1 30 -10.8348 -0.5940
35 1 32 -11.1363 20.3270
35 2 1 18.6397 -16.3970
35 2 3 -6.9696 -16.4747
35 2 5 -20.3497 -27.1393
35 2 7 0.4868 3.6575
35 2 9 -2.9955 37.2980
35 2 11 -41.1958 15.2445
35 2 13 22.6583 -17.9397
35 2 15 23.1866 1.1550
35 2 17 8.4919 -0.5875
35 2 19 -4.8763 7.6552
35 2 21 -7.9527 5.4227
35 2 23 4.8789 -9.4805
35 2 25 9.7464 -0.5661
35 2 27 -11.9342 -11.9333
35 2 29 5.6158 -18.4558
35 2 31 -0.0966 2.0138
35 2 33 13.7696 -0.9474
35 3 0 14.0921 0.4351
35 3 2 23.5286 -7.1089
35 3 4 -7.9123 -50.7144
35 3 6 -15.1795 8.0118
35 3 8 -0.8607 -38.7869
35 3 10 -6.4814 6.9218
35 3 12 -6.8893 -0.7050
35 3 14 -9.7767 2.5429
35 3 16 -1.9689 -4.7396
35 3 18 -1.1524 11.3957
35 3 20 -9.6155 -11.1528
35 3 22 3.2217 5.6602
35 3 24 -0.1496 -0.6521
35 3 26 -5.3690 6.0985
35 3 28 10.9589 2.9267
35 3 30 -6.2849 -0.8224
35 3 32 4.2259 5.9256
35 4 1 4.4022 -10.5757
35 4 3 -32.7472 3.7471
35 4 5 -2.0256 6.3831
35 4 7 10.5109 34.1485
35 4 9 -9.0098 -5.3137
35 4 11 20.6557 15.9178
35 4 13 3.2845 18.2946
35 4 15 11.3783 2.0538
35 4 17 -3.6621 -8.5809
35 4 19 -4.8060 10.8557
35 4 21 -6.6155 1.0889
35 4 23 5.0615 4.1596
35 4 25 -1.9292 0.2469
35 4 27 -11.4591 -10.8252
35 4 29 2.1832 -17.2727
35 4 31 -13.0632 22.7141
35 4 33 -3.3846 -0.5027
35 5 0 7.3005 0.6455
35 5 2 24.7065 8.0629
35 5 4 -17.5983 -24.8798
35 5 6 -19.6591 6.5009
35 5 8 -30.9903 -31.8914
35 5 10 -12.9330 5.0644
35 5 12 11.4529 -2.8660
35 5 14 2.5260 -2.5875
35 5 16 -0.9502 0.5642
35 5 18 -8.2034 0.7209
35 5 20 -0.8585 8.8196
35 5 22 -6.8443 -4.5975
35 5 24 -0.9901 -4.9680
35 5 26 13.5623 7.7492
35 5 28 -5.3132 -4.6528
35 5 30 -24.0957 12.7312
35 5 32 -5.7899 -2.3758
35 6 1 -42.3026 -1.5343
35 6 3 32.6783 0.0579
35 6 5 -2.3544 -25.6186
35 6 7 -24.0245 5.7466
35 6 9 -9.9829 -18.8000
35 6 11 24.3031 -9.5283
35 6 13 11.2976 12.2662
35 6 15 -4.5118 -2.4767
35 6 17 1.3229 -1.2023
35 6 19 8.0359 -9.4188
35 6 21 -2.0673 -1.4613
35 6 23 8.3412 1.6668
35 6 25 -0.4146 0.5595
35 6 27 18.4650 3.0999
35 6 29 6.7687 5.0303
35 6 31 -10.3739 -12.4637
35 6 33 1.2635 -0.5908
35 7 0 -21.8163 0.7674
35 7 2 9.4489 -10.8927
35 7 4 -15.5176 -37.5462
35 7 6 -7.3209 6.3254
35 7 8 26.0312 -28.9897
35 7 10 31.1414 2.2164
35 7 12 33.2148 6.3670
35 7 14 -11.1654 -8.2962
35 7 16 2.6793 1.8621
35 7 18 10.5896 -0.7098
35 7 20 3.4996 4.9702
35 7 22 9.0225 13.2380
35 7 24 -4.9005 -0.7363
35 7 26 8.5318 10.1504
35 7 28 4.3256 -13.5530
35 7 30 -9.4070 1.3610
35 7 32 1.5851 -2.2535
35 8 1 24.6927 26.9797
35 8 3 15.1855 -0.8991
35 8 5 1.6843 0.9772
35 8 7 31.4433 11.1405
35 8 9 9.3796 -8.5288
35 8 11 11.2003 3.6021
35 8 13 -14.6268 -20.8495
35 8 15 1.3392 -0.8908
35 8 17 3.5389 -19.9050
35 8 19 -17.0080 27.8184
35 8 21 3.2557 -2.3634
35 8 23 0.2539 2.1770
35 8 25 4.3129 17.3429
35 8 27 5.6975 -9.8959
35 8 29 1.3862 -21.4198
35 8 31 3.6633 -3.7390
35 9 0 -38.6021 0.8122
35 9 2 -17.1146 -16.5159
35 9 4 15.6752 -88.2967
35 9 6 3.2073 -0.1204
35 9 8 47.5498 -43.2873
35 9 10 12.9486 4.9220
35 9 12 -25.1045 -24.6144
35 9 14 17.6906 1.1666
35 9 16 -8.6463 -15.1184
35 9 18 -16.2217 5.5972
35 9 20 -3.8277 -3.5942
35 9 22 -3.8080 2.3188
35 9 24 -2.9614 4.1095
35 9 26 10.3688 -8.7133
35 9 28 16.4427 -1.7924
35 9 30 -0.9003 4.1154
35 9 32 -0.7918 -1.7050
35 10 1 19.8917 -0.2646
35 10 3 24.5996 16.3962
35 10 5 11.6247 18.4063
35 10 7 28.3198 24.7850
35 10 9 -16.2673 17.2216
35 10 11 4.6626 -20.4049
35 10 13 13.4012 -19.1882
35 10 15 15.8449 -3.4197
35 10 17 -6.1537 -10.5707
35 10 19 -18.0972 29.4750
35 10 21 -12.4082 -9.5720
35 10 23 13.0094 8.5369
35 10 25 8.9056 -2.8318
35 10 27 7.8342 -13.9323
35 10 29 4.2618 -3.8953
35 10 31 2.6359 -14.5692
35 11 0 9.9691 0.8490
35 11 2 -16.2123 0.4416
35 11 4 -9.4312 -55.8320
35 11 6 -22.5294 -9.5671
35 11 8 -33.3028 -48.4519
35 11 10 0.4390 10.2447
35 11 12 17.7001 -33.6295
35 11 14 7.7632 1.3578
35 11 16 -5.6749 -25.2763
35 11 18 0.9117 2.7854
35 11 20 -16.3885 2.7609
35 11 22 -1.4540 -4.3228
35 11 24 -13.8251 5.4553
35 11 26 3.3665 -10.4623
35 11 28 -3.5705 -19.3572
35 11 30 -8.6057 -14.0703
35 11 32 -1.9522 -0.2674
35 12 1 -4.7530 12.7243
35 12 3 -12.2665 -15.1611
35 12 5 -11.6401 -14.2281
35 12 7 10.1942 -0.8537
35 12 9 -11.1371 -26.0302
35 12 11 -23.9546 2.4591
35 12 13 21.6265 -11.4366
35 12 15 -8.1231 -12.6046
35 12 17 -13.3516 21.6390
35 12 19 -8.5895 8.1533
35 12 21 1.6761 -13.6131
35 12 23 10.5959 2.5057
35 12 25 -1.3824 15.0387
35 12 27 -4.2993 -14.0521
35 12 29 3.1838 -1.2444
35 12 31 -2.7054 -11.1213
35 13 0 17.8243 0.6706
35 13 2 6.2265 15.5761
35 13 4 -2.2645 -18.5367
35 13 6 4.2622 -8.7075
35 13 8 -3.5391 9.6628
35 13 10 -1.8288 4.9642
35 13 12 -28.9469 15.7817
35 13 14 -18.0932 -6.2824
35 13 16 28.8558 -1.7711
35 13 18 11.7177 -1.3286
35 13 20 -0.3880 -6.3977
35 13 22 -2.5026 7.9667
35 13 24 13.9936 -2.4734
35 13 26 2.2978 -2.6003
35 13 28 -26.4669 -1.9602
35 13 30 -4.0104 1.5959
35 14 1 7.7321 7.2682
35 14 3 -6.7100 -2.2680
35 14 5 6.7786 3.6599
35 14 7 27.1576 -13.4219
35 14 9 -9.0017 -4.5107
35 14 11 4.4476 -1.0266
35 14 13 -0.0400 34.9491
35 14 15 0.0786 -7.0360
35 14 17 12.9449 1.1580
35 14 19 15.6237 1.2481
35 14 21 -5.6438 10.6115
35 14 23 -9.1615 -6.5584
35 14 25 10.5525 -6.4483
35 14 27 -0.8184 14.7410
35 14 29 5.5210 -1.8165
35 14 31 -0.5151 0.0395
35 15 0 30.5172 0.5541
35 15 2 9.6807 17.8844
35 15 4 -26.9671 4.6433
35 15 6 -25.5960 2.3061
35 15 8 22.7296 -48.7403
35 15 10 -3.9170 -9.0473
35 15 12 40.4078 28.1421
35 15 14 8.7375 5.3479
35 15 16 11.0560 -3.7414
35 15 18 5.7127 7.4341
35 15 20 2.2130 3.3210
35 15 22 -4.3212 0.5189
35 15 24 3.6239 -17.4601
35 15 26 8.4588 7.9236
35 15 28 0.4754 6.5574
35 15 30 6.5657 7.3858
35 16 1 13.1184 -1.6407
35 16 3 18.1401 -5.1264
35 16 5 5.8429 9.4948
35 16 7 -2.0847 -1.4113
35 16 9 -5.9704 -20.4259
35 16 11 -9.2416 18.8193
35 16 13 -0.0615 15.9264
35 16 15 -11.8526 4.6281
35 16 17 6.4823 -20.6828
35 16 19 17.0031 -3.5620
35 16 21 19.5271 -12.2243
35 16 23 5.2229 10.2195
35 16 25 -4.8599 -7.3490
35 16 27 7.2336 3.2045
35 16 29 -3.8802 0.7782
35 17 0 -26.2697 0.4801
35 17 2 15.8793 21.5448
35 17 4 -16.6229 -28.3396
35 17 6 -9.2404 3.9410
35 17 8 -4.5058 -40.8487
35 17 10 1.9729 11.0905
35 17 12 23.5091 -16.6327
35 17 14 -7.0968 12.5683
35 17 16 -7.3957 -14.6116
35 17 18 5.4976 10.8875
35 17 20 4.3281 5.7969
35 17 22 5.6165 -4.9315
35 17 24 2.5327 7.1012
35 17 26 -4.7568 -18.8827
35 17 28 6.1485 -28.8705
35 17 30 -2.4997 -7.2209
35 18 1 -3.7826 -13.3380
35 18 3 -5.4480 19.0818
35 18 5 2.8102 31.6372
35 18 7 1.3686 -1.3331
35 18 9 -5.4921 2.6735
35 18 11 5.4399 -3.8496
35 18 13 15.2371 0.8630
35 18 15 -11.6876 7.2252
35 18 17 -1.1500 0.2959
35 18 19 5.6371 3.1169
35 18 21 -2.1370 -8.9992
35 18 23 15.4593 -4.2560
35 18 25 0.9231 24.6683
35 18 27 -15.4112 -7.9926
35 18 29 -10.5394 11.9691
35 19 0 -60.6499 0.4061
35 19 2 19.6551 -1.4469
35 19 4 11.3975 35.1698
35 19 6 4.2989 -13.8690
35 19 8 1.3778 9.4026
35 19 10 17.8270 -5.3506
35 19 12 -2.9683 9.2728
35 19 14 -10.0331 -24.4167
35 19 16 -5.1630 -0.8263
35 19 18 1.1917 2.8331
35 19 20 8.3232 2.4963
35 19 22 -8.7524 8.2820
35 19 24 -19.6920 0.7455
35 19 26 2.6173 -0.9595
35 19 28 -14.5535 19.6629
35 20 1 -11.3194 8.0046
35 20 3 -18.5788 12.0481
35 20 5 -32.9428 8.1835
35 20 7 7.8462 24.4820
35 20 9 5.7742 -10.0799
35 20 11 6.8396 -12.8658
35 20 13 5.9804 -2.5504
35 20 15 16.9855 -3.9153
35 20 17 -7.6549 -8.0662
35 20 19 -23.5262 -2.7648
35 20 21 8.7039 -13.0956
35 20 23 -2.1317 13.5100
35 20 25 4.2442 16.7999
35 20 27 1.7606 -5.2837
35 21 0 1.1160 0.3749
35 21 2 -9.2117 2.1611
35 21 4 -3.5398 11.6329
35 21 6 15.5564 -4.2789
35 21 8 -1.8274 -22.9963
35 21 10 -5.4510 -7.0104
35 21 12 12.8990 -8.4210
35 21 14 0.8525 2.0619
35 21 16 -12.9550 12.2766
35 21 18 -15.3617 -1.5821
35 21 20 -1.9605 -5.0172
35 21 22 -9.6364 -8.3374
35 21 24 -4.8007 11.2571
35 21 26 -14.0207 8.0575
35 21 28 4.0206 -13.7328
35 22 1 12.7475 6.0846
35 22 3 -1.5021 -1.4729
35 22 5 13.6251 1.5310
35 22 7 -10.4176 11.0276
35 22 9 -8.5962 0.8707
35 22 11 -2.3636 -11.6701
35 22 13 -11.3492 24.0309
35 22 15 -5.6454 6.5450
35 22 17 -4.8967 6.8488
35 22 19 -11.2474 -0.8887
35 22 21 -12.2095 14.8727
35 22 23 13.7180 9.5261
35 22 25 -7.4065 22.4828
35 22 27 9.7753 -1.0286
35 23 0 28.3264 0.4485
35 23 2 2.3944 8.7131
35 23 4 22.7789 10.9024
35 23 6 5.1740 7.6580
35 23 8 -16.9933 -1.9937
35 23 10 4.1786 0.1530
35 23 12 -14.1932 15.2858
35 23 14 -0.9533 1.1448
35 23 16 30.0196 10.2152
35 23 18 -2.5247 18.4804
35 23 20 9.1705 11.1050
35 23 22 7.3579 -2.4491
35 23 24 3.3438 -2.3300
35 23 26 6.7969 4.4574
35 24 1 17.3002 12.2142
35 24 3 -1.6531 -12.3152
35 24 5 32.1773 1.6053
35 24 7 -13.1396 8.6545
35 24 9 1.1429 -18.0374
35 24 11 -10.3210 1.0968
35 24 13 -11.2773 6.1610
35 24 15 15.7020 -16.1169
35 24 17 -10.7963 7.7210
35 24 19 -6.5876 15.0731
35 24 21 6.0232 -5.2475
35 24 23 -7.0706 -20.9543
35 24 25 17.4131 -14.7332
35 25 0 5.8568 0.4234
35 25 2 14.8546 2.1573
35 25 4 14.7989 -25.3703
35 25 6 3.0706 -4.7465
35 25 8 6.6006 -1.9840
35 25 10 5.2785 -7.1126
35 25 12 6.5126 0.6865
35 25 14 5.8346 -4.7263
35 25 16 14.9907 5.4877
35 25 18 10.5525 -4.3425
35 25 20 1.6142 -6.5729
35 25 22 3.4315 -8.3392
35 25 24 10.4746 -9.7253
35 26 1 -4.3063 -5.1018
35 26 3 6.9821 -11.9697
35 26 5 2.4598 -20.5043
35 26 7 10.5724 23.7755
35 26 9 0.1640 -7.1220
35 26 11 -5.6595 11.1207
35 26 13 -7.8346 21.9205
35 26 15 21.4752 -6.5018
35 26 17 6.7212 2.0810
35 26 19 -2.7043 -4.1954
35 26 21 8.7980 5.7974
35 26 23 -1.2456 -4.6162
35 27 0 5.9313 0.3857
35 27 2 -4.0864 3.8781
35 27 4 8.9562 5.6687
35 27 6 -3.4547 -1.9261
35 27 8 1.1414 -2.1925
35 27 10 -19.0404 -6.0034
35 27 12 -11.6257 6.2487
35 27 14 6.1493 6.1775
35 27 16 14.7655 -23.9548
35 27 18 1.6933 11.0830
35 27 20 15.3296 1.6837
35 27 22 -10.8976 0.3695
35 28 1 10.2099 -11.1163
35 28 3 10.7772 -26.6221
35 28 5 9.3466 15.7659
35 28 7 10.0750 18.0135
35 28 9 1.5542 2.4739
35 28 11 -10.8441 -13.9253
35 28 13 14.4467 -3.1260
35 28 15 13.5755 -12.4948
35 28 17 -19.3780 -8.7017
35 28 19 -13.3247 3.2151
35 28 21 14.8650 -14.6540
35 29 0 -12.8705 0.2539
35 29 2 9.5497 -15.6428
35 29 4 14.3900 19.3893
35 29 6 -7.9917 2.0645
35 29 8 -12.5833 3.1190
35 29 10 21.1955 17.5169
35 29 12 -5.1300 -9.6122
35 29 14 3.9782 10.2348
35 29 16 -6.3741 14.1811
35 29 18 -15.7902 -22.2777
35 29 20 -18.3974 -1.3780
35 30 1 -16.5796 21.3442
35 30 3 -19.3039 11.3877
35 30 5 -1.0626 7.0469
35 30 7 7.8897 2.5372
35 30 9 -6.2681 10.7826
35 30 11 9.0385 -5.6470
35 30 13 0.9164 0.4564
35 30 15 27.5293 8.9790
35 30 17 -1.8325 -0.3072
35 30 19 -8.9995 0.8326
35 31 0 28.8723 0.0619
35 31 2 -4.6319 -1.0128
35 31 4 1.1733 -15.4425
35 31 6 5.0472 -9.6207
35 31 8 12.7976 2.3734
35 31 10 9.8600 -0.2541
35 31 12 -2.3598 -0.5865
35 31 14 -18.8567 -16.2002
35 31 16 12.7650 -1.4279
35 31 18 4.6835 -1.5575
35 32 1 -5.8417 2.7233
35 32 3 -4.0766 -0.3330
35 32 5 -11.5486 9.1101
35 32 7 5.6261 6.4398
35 32 9 -7.4272 7.4268
35 32 11 -16.8223 -31.0671
35 32 13 1.4976 -14.9553
35 32 15 12.4148 7.9663
35 32 17 7.2699 24.6351
35 33 0 -7.7267 -0.1070
35 33 2 4.3111 -10.9936
35 33 4 -14.8460 2.3082
35 33 6 -0.4114 -9.9893
35 33 8 -2.7543 -5.6656
35 33 10 3.0243 -2.5060
35 33 12 -2.5072 1.2247
35 33 14 14.5438 13.8974
35 33 16 4.3554 3.5033
35 34 1 2.3596 3.6729
35 34 3 -1.2396 -3.6588
35 34 5 5.0959 17.3910
35 34 7 2.3169 0.5242
35 34 9 -17.5013 -20.5591
35 34 11 1.8040 21.6080
35 34 13 1.3202 2.3553
35 35 0 -37.8269 -0.1977
35 35 2 8.3351 0.0592
35 35 4 0.7656 -0.2512
35 35 6 12.6236 -0.4937
35 35 8 -5.2228 -0.2965
35 35 10 -9.9085 -0.1204
35 35 12 -3.2424 -0.0652
36 0 0 12.1357 -2.7130
36 0 2 -0.3419 -37.7849
36 0 4 21.7305 -1.5491
36 0 6 -0.2196 -37.4083
36 0 8 -1.2344 0.0669
36 0 10 0.3820 -2.0093
36 0 12 -9.2007 -0.4625
36 0 14 0.5446 -37.0932
36 0 16 -15.7748 0.4298
36 0 18 0.3580 10.9916
36 0 20 14.7608 0.2138
36 0 22 0.0655 0.9520
36 0 24 5.5349 0.0316
36 0 26 -0.0440 -11.7926
36 0 28 -16.0995 0.2828
36 0 30 0.0216 2.5115
36 0 32 -16.4334 0.0638
36 1 1 0.8887 -5.5548
36 1 3 -2.2802 -24.9182
36 1 5 32.0329 -2.5241
36 1 7 -33.1652 -48.9401
36 1 9 7.6376 -32.0467
36 1 11 -0.2725 37.6737
36 1 13 5.8700 18.5016
36 1 15 -17.9592 10.7299
36 1 17 -7.6458 -4.3981
36 1 19 0.9311 10.8579
36 1 21 -4.6425 6.0452
36 1 23 -0.0314 -3.1704
36 1 25 3.1663 -6.2213
36 1 27 -8.1395 -14.9555
36 1 29 1.4461 -1.1336
36 1 31 2.9142 -1.1763
36 2 0 -1.3448 -2.8299
36 2 2 -34.8531 67.9455
36 2 4 -3.6266 35.6627
36 2 6 27.6455 33.0081
36 2 8 -3.9006 -37.4243
36 2 10 25.8291 20.6769
36 2 12 3.3529 -5.5717
36 2 14 19.4998 11.0303
36 2 16 -0.8971 6.4465
36 2 18 3.5643 2.7003
36 2 20 3.9095 9.4464
36 2 22 2.7749 -5.3242
36 2 24 12.3066 -10.8006
36 2 26 -1.6008 -4.9258
36 2 28 11.6558 11.6230
36 2 30 -0.8111 1.1550
36 2 32 -14.4178 -2.2767
36 3 1 2.7158 10.2738
36 3 3 -4.3557 27.8548
36 3 5 23.4227 27.3466
36 3 7 -6.3354 -23.8542
36 3 9 33.2185 -37.9429
36 3 11 7.7844 -10.8353
36 3 13 -0.2371 17.3057
36 3 15 -6.2435 -4.3365
36 3 17 -12.4078 -23.8370
36 3 19 9.6760 6.2321
36 3 21 -17.7531 -2.4327
36 3 23 -20.7382 -12.5086
36 3 25 -11.7438 -6.0124
36 3 27 4.7223 1.2512
36 3 29 -8.5777 24.3010
36 3 31 4.2685 2.8656
36 4 0 -19.5073 -2.3286
36 4 2 -25.3439 37.3158
36 4 4 -1.1450 -12.0944
36 4 6 -5.6807 -18.2151
36 4 8 21.5569 -25.7209
36 4 10 6.5520 13.5754
36 4 12 2.9626 -12.3156
36 4 14 -8.0349 20.5998
36 4 16 13.0936 -17.4858
36 4 18 11.7483 0.2974
36 4 20 -6.6292 3.4928
36 4 22 -14.4557 3.8660
36 4 24 -1.7610 -1.2955
36 4 26 2.6949 3.8312
36 4 28 6.9372 1.0860
36 4 30 -6.4623 1.4192
36 4 32 -20.0173 7.0661
36 5 1 20.7078 12.5083
36 5 3 -6.1557 14.7915
36 5 5 0.1650 18.2400
36 5 7 36.6019 -10.4137
36 5 9 -16.1100 13.3359
36 5 11 10.9679 20.2487
36 5 13 -6.3059 -4.0485
36 5 15 -4.4261 -1.1241
36 5 17 2.9427 5.6227
36 5 19 3.6942 -8.1103
36 5 21 11.2681 -17.5002
36 5 23 -14.0932 -9.1688
36 5 25 -6.4911 -12.6046
36 5 27 6.2588 -4.2170
36 5 29 -8.1897 10.0962
36 5 31 0.5739 -0.2920
36 6 0 -27.2388 -2.3197
36 6 2 9.2091 -5.4759
36 6 4 0.0894 -36.6413
36 6 6 6.1991 -32.3101
36 6 8 29.2586 -23.4810
36 6 10 19.7364 10.6224
36 6 12 -11.0515 11.3390
36 6 14 -12.2094 -0.3632
36 6 16 -11.3325 9.9509
36 6 18 -6.8116 8.8684
36 6 20 3.7134 18.5647
36 6 22 -0.5019 2.5523
36 6 24 16.8969 16.1551
36 6 26 -2.1937 -12.0697
36 6 28 -8.4842 -9.7242
36 6 30 -0.7599 -15.8656
36 6 32 9.0653 8.8639
36 7 1 5.9959 19.2969
36 7 3 29.0679 8.7811
36 7 5 -10.3090 24.5004
36 7 7 -7.6008 -29.0716
36 7 9 32.8570 9.1692
36 7 11 -20.0249 -4.5787
36 7 13 10.2259 5.3002
36 7 15 2.1182 -5.0523
36 7 17 11.9475 3.5767
36 7 19 6.2962 -5.5570
36 7 21 -6.0398 -14.8925
36 7 23 8.8550 -14.7923
36 7 25 5.4689 7.1289
36 7 27 12.0409 6.3178
36 7 29 1.1335 -1.1097
36 7 31 0.1248 0.4500
36 8 0 -6.2757 -1.8794
36 8 2 2.0032 74.6831
36 8 4 -18.4588 -33.5023
36 8 6 35.8258 -22.0588
36 8 8 -0.4415 -15.7230
36 8 10 -31.1373 -9.7774
36 8 12 5.9949 -6.1812
36 8 14 -17.7751 4.6364
36 8 16 -5.6387 4.3810
36 8 18 12.3393 6.9924
36 8 20 3.6801 4.1048
36 8 22 3.8856 -23.4371
36 8 24 2.4553 5.5291
36 8 26 -1.0791 -16.9684
36 8 28 6.3078 -10.4286
36 8 30 3.8515 3.7091
36 8 32 4.3158 -0.2146
36 9 1 0.2305 0.2890
36 9 3 -14.7038 -21.4442
36 9 5 -20.5812 -11.7703
36 9 7 1.0400 -26.2252
36 9 9 -3.0190 44.5828
36 9 11 -17.9776 0.3808
36 9 13 1.7615 -1.2426
36 9 15 26.8399 -28.7255
36 9 17 -7.4957 17.0269
36 9 19 3.2371 -12.5286
36 9 21 -5.7936 -14.0053
36 9 23 -3.1550 1.6463
36 9 25 4.0218 -0.6512
36 9 27 8.1164 -19.1336
36 9 29 1.2447 14.0651
36 9 31 -4.6892 3.7792
36 10 0 6.6312 -1.2932
36 10 2 34.6063 43.3548
36 10 4 -6.3457 4.4711
36 10 6 -62.2501 -65.1893
36 10 8 -1.9774 4.8750
36 10 10 -29.6756 -53.8388
36 10 12 10.4092 2.4689
36 10 14 26.0723 -20.2256
36 10 16 -17.9437 1.3417
36 10 18 17.3968 -7.8029
36 10 20 2.7001 -8.7304
36 10 22 -19.8620 -0.5861
36 10 24 7.0894 -9.3875
36 10 26 -6.2791 8.0897
36 10 28 -23.0144 0.1801
36 10 30 -3.1399 -14.6925
36 11 1 15.6660 -24.0042
36 11 3 -5.2889 -2.0873
36 11 5 -14.0289 -14.3306
36 11 7 1.5623 21.1757
36 11 9 29.3592 -7.1994
36 11 11 -12.2203 21.7173
36 11 13 -16.6943 -1.7954
36 11 15 -18.8057 33.2979
36 11 17 33.3474 -8.7414
36 11 19 -8.2424 -13.6539
36 11 21 11.0751 3.3068
36 11 23 17.6625 -6.3023
36 11 25 -7.8336 -5.7697
36 11 27 -7.6673 -1.1529
36 11 29 21.2067 -11.6024
36 11 31 4.7377 -2.1444
36 12 0 16.2625 -0.8159
36 12 2 5.1128 2.3750
36 12 4 -19.8967 8.4685
36 12 6 10.9295 27.5355
36 12 8 -4.5311 3.5713
36 12 10 2.8007 -49.3493
36 12 12 -10.3670 -11.6471
36 12 14 -28.9840 -3.2445
36 12 16 4.3994 15.5460
36 12 18 5.6138 7.0130
36 12 20 -8.3648 4.7070
36 12 22 8.4673 -14.2723
36 12 24 1.5582 10.6341
36 12 26 17.8648 2.9000
36 12 28 3.0230 -1.8886
36 12 30 -18.7326 -16.9292
36 13 1 7.5091 7.9771
36 13 3 3.1484 0.1566
36 13 5 28.3688 5.5412
36 13 7 14.6990 5.4564
36 13 9 -9.6742 10.5401
36 13 11 25.1165 -6.4698
36 13 13 17.8637 11.6386
36 13 15 -27.3223 -15.8278
36 13 17 -9.3806 1.7544
36 13 19 0.9732 15.5341
36 13 21 0.7683 6.3355
36 13 23 13.6204 20.2500
36 13 25 6.5719 -3.4179
36 13 27 -0.9714 1.3904
36 13 29 8.2631 -6.6476
36 14 0 4.1040 -0.4971
36 14 2 -26.8077 4.4853
36 14 4 0.5306 8.5573
36 14 6 4.0856 26.1154
36 14 8 24.1384 -7.4819
36 14 10 27.7040 -27.1584
36 14 12 -5.3757 10.8007
36 14 14 -23.0120 -7.5964
36 14 16 8.3069 -2.9481
36 14 18 6.1758 -14.8277
36 14 20 13.6928 2.8079
36 14 22 -0.9130 -1.7645
36 14 24 11.0280 -6.7824
36 14 26 2.6507 -3.2973
36 14 28 8.0998 -1.0920
36 14 30 -15.7053 12.8494
36 15 1 -10.9486 5.6201
36 15 3 -0.1559 -16.8575
36 15 5 -33.7932 16.6690
36 15 7 11.7620 9.9602
36 15 9 -7.1789 -2.4644
36 15 11 4.6134 4.9778
36 15 13 14.8404 -14.5049
36 15 15 -5.8536 1.5755
36 15 17 -3.2335 13.8239
36 15 19 -10.4227 7.0166
36 15 21 6.2673 7.9493
36 15 23 24.8661 6.5456
36 15 25 9.4604 -13.9675
36 15 27 -3.8482 -1.5855
36 15 29 4.9951 9.0353
36 16 0 -3.7596 -0.3159
36 16 2 -4.8380 0.2634
36 16 4 -7.7095 8.0966
36 16 6 39.7864 -3.5119
36 16 8 -3.9448 -0.2670
36 16 10 13.3271 -51.5737
36 16 12 17.3409 -0.8315
36 16 14 -21.1642 20.5919
36 16 16 -22.2523 -4.8273
36 16 18 8.4573 -18.4336
36 16 20 5.6674 7.9521
36 16 22 15.0112 -17.4102
36 16 24 12.4537 2.3366
36 16 26 -1.5124 -10.5361
36 16 28 -18.4944 13.6608
36 17 1 -23.0801 22.0675
36 17 3 -19.4114 -21.2194
36 17 5 -22.4961 21.1633
36 17 7 2.3247 23.2857
36 17 9 19.1385 -1.9342
36 17 11 22.2959 -3.3311
36 17 13 2.8954 -23.0352
36 17 15 -9.7292 -0.6992
36 17 17 0.5977 -4.5393
36 17 19 -11.9837 -5.4414
36 17 21 -15.5025 5.8106
36 17 23 -2.3451 -11.6357
36 17 25 7.7542 -1.0939
36 17 27 -1.1233 -0.2607
36 17 29 16.0452 7.0625
36 18 0 17.8992 -0.2534
36 18 2 16.8762 -5.9404
36 18 4 -24.8397 -10.5988
36 18 6 -16.0192 24.7764
36 18 8 -25.3353 19.7510
36 18 10 15.3888 -1.3307
36 18 12 5.6483 -27.2677
36 18 14 7.0659 -18.0441
36 18 16 1.8524 11.2898
36 18 18 -8.3300 -8.1563
36 18 20 -9.0031 -1.8154
36 18 22 0.4989 -5.8854
36 18 24 -1.7189 -19.6594
36 18 26 -2.1129 -1.7768
36 18 28 -1.1615 1.0287
36 19 1 6.9317 37.1065
36 19 3 7.9573 19.3873
36 19 5 13.1211 -1.0661
36 19 7 -0.3725 -19.1090
36 19 9 15.2544 0.1496
36 19 11 0.6489 5.0650
36 19 13 7.2138 -15.6972
36 19 15 8.2725 -6.9303
36 19 17 1.4033 0.6496
36 19 19 0.4498 2.8493
36 19 21 9.7871 14.2373
36 19 23 0.1039 -6.8302
36 19 25 -12.8456 6.4169
36 19 27 2.8424 2.3266
36 20 0 5.7762 -0.2008
36 20 2 7.6705 3.0299
36 20 4 0.0815 7.1593
36 20 6 -30.2258 -4.9589
36 20 8 -3.8139 11.4347
36 20 10 -1.8455 -5.0636
36 20 12 4.6680 8.2018
36 20 14 -2.4800 0.1512
36 20 16 14.0955 -0.3145
36 20 18 6.6016 -7.9018
36 20 20 8.2203 3.7557
36 20 22 -4.7259 -0.6035
36 20 24 -8.9293 -3.3568
36 20 26 -2.8075 -0.8415
36 21 1 7.6714 -16.0872
36 21 3 15.0186 15.9522
36 21 5 -4.9887 -8.5202
36 21 7 9.8209 1.1865
36 21 9 -5.2834 23.9631
36 21 11 27.3727 12.3069
36 21 13 -8.2045 -5.4179
36 21 15 11.9870 -7.5935
36 21 17 -7.8254 4.6167
36 21 19 5.9143 6.4044
36 21 21 -9.3027 11.2189
36 21 23 19.8118 -11.8871
36 21 25 -1.9715 3.2913
36 21 27 -9.4507 13.0878
36 22 0 20.1833 -0.1271
36 22 2 -8.9167 4.4612
36 22 4 -3.0976 -7.6085
36 22 6 -10.5594 -18.9192
36 22 8 -7.9658 -2.5856
36 22 10 12.7393 15.9852
36 22 12 -6.1546 -1.2855
36 22 14 5.3156 30.1514
36 22 16 2.1335 -1.3586
36 22 18 -0.4518 -14.5072
36 22 20 -15.2809 -2.6767
36 22 22 16.2478 -6.0127
36 22 24 8.9682 -14.2726
36 22 26 -2.9972 -2.1169
36 23 1 -5.1874 2.3833
36 23 3 16.6206 5.8738
36 23 5 12.6363 -15.4115
36 23 7 9.0922 13.7182
36 23 9 8.1269 3.8378
36 23 11 8.9573 5.1705
36 23 13 18.0030 -1.7683
36 23 15 -3.8945 12.2640
36 23 17 13.8015 -31.8087
36 23 19 20.6391 -9.4616
36 23 21 0.9438 -6.3825
36 23 23 15.9954 -12.4362
36 23 25 2.5959 5.7285
36 24 0 -11.2877 -0.0285
36 24 2 -4.3192 8.7430
36 24 4 10.4679 -2.9442
36 24 6 0.3478 -2.1270
36 24 8 1.0156 -3.3069
36 24 10 2.5943 15.2055
36 24 12 0.7030 -26.5205
36 24 14 11.5957 32.7382
36 24 16 1.5052 9.4106
36 24 18 2.5526 -13.8788
36 24 20 10.7436 6.6175
36 24 22 -12.0239 4.7518
36 24 24 -9.6479 -7.1983
36 25 1 -8.1549 6.8619
36 25 3 -2.1345 -4.6956
36 25 5 -6.7228 2.1134
36 25 7 -20.3529 -0.2763
36 25 9 -1.0991 -2.2647
36 25 11 -8.3059 -2.5258
36 25 13 1.1333 6.3071
36 25 15 -13.9531 8.9001
36 25 17 -8.5947 -17.7527
36 25 19 5.6551 13.8790
36 25 21 -2.8938 6.3239
36 25 23 -3.5231 11.8353
36 26 0 7.6320 0.0435
36 26 2 -10.5063 2.0457
36 26 4 -7.3045 2.2343
36 26 6 5.0700 4.6064
36 26 8 11.3453 -2.4024
36 26 10 7.5145 -0.1233
36 26 12 -0.2763 4.2496
36 26 14 10.6437 18.7798
36 26 16 -5.4853 -1.5153
36 26 18 7.3681 0.4390
36 26 20 -6.1910 -9.0612
36 26 22 4.1319 6.7806
36 27 1 10.2137 8.9436
36 27 3 -12.4576 14.6554
36 27 5 2.8118 0.8402
36 27 7 -2.1797 -8.9355
36 27 9 -19.3802 8.4473
36 27 11 -0.5700 -0.9119
36 27 13 -4.1202 3.7331
36 27 15 -7.7769 11.1086
36 27 17 -14.8308 19.1013
36 27 19 -5.4543 8.1009
36 27 21 -7.2012 3.6197
36 28 0 -45.1441 0.0975
36 28 2 26.3185 11.8837
36 28 4 9.4250 -6.3062
36 28 6 -16.0925 17.9952
36 28 8 0.7163 8.5036
36 28 10 2.0217 11.4521
36 28 12 -9.1617 -3.1088
36 28 14 8.1406 12.2632
36 28 16 -5.0663 -9.8901
36 28 18 -5.3730 -15.7833
36 28 20 5.7294 11.2142
36 29 1 15.5822 -19.1847
36 29 3 5.8900 17.6459
36 29 5 -11.5671 -2.7410
36 29 7 2.8826 15.7026
36 29 9 -3.6886 -10.0133
36 29 11 -4.1926 -6.4423
36 29 13 8.9175 -14.2086
36 29 15 4.3845 5.7592
36 29 17 16.8583 -6.0664
36 29 19 7.0767 -18.9609
36 30 0 -10.3261 0.0864
36 30 2 -2.4744 -0.4008
36 30 4 -0.1282 21.6097
36 30 6 2.4279 0.5568
36 30 8 -5.4720 -3.5836
36 30 10 -9.2130 -10.4235
36 30 12 0.8700 0.7338
36 30 14 1.5413 1.1918
36 30 16 17.8117 12.9394
36 30 18 -12.9846 -1.3963
36 31 1 -3.2320 -11.0942
36 31 3 7.5047 -1.5731
36 31 5 2.2896 -14.0749
36 31 7 -3.3381 11.8536
36 31 9 11.2181 8.2941
36 31 11 16.0478 -11.6369
36 31 13 13.1901 6.2325
36 31 15 2.7771 -0.1866
36 31 17 2.3665 -2.0609
36 32 0 3.3242 0.0125
36 32 2 24.8825 -15.6719
36 32 4 -0.8853 0.5240
36 32 6 -1.2834 -3.5800
36 32 8 0.4933 -6.4209
36 32 10 -4.0213 -1.0832
36 32 12 4.7408 2.6486
36 32 14 1.3165 -5.4022
36 32 16 -5.1731 -22.7492
36 33 1 -12.8406 -11.0898
36 33 3 -14.9580 -5.3005
36 33 5 2.1116 9.0235
36 33 7 -5.8145 9.6090
36 33 9 -9.1837 -12.0160
36 33 11 4.3769 -4.0973
36 33 13 -17.2766 13.6926
36 34 0 -0.6593 -0.2027
36 34 2 -8.9257 23.4943
36 34 4 -8.2116 -5.5126
36 34 6 -11.0798 -2.2514
36 34 8 -5.6913 11.9622
36 34 10 -8.0163 -14.1543
36 34 12 10.0576 -8.1342
36 35 1 2.2342 -5.5736
36 35 3 2.2637 18.6775
36 35 5 -9.5490 -7.2791
36 35 7 -4.5383 -8.6331
36 35 9 -5.4641 26.1951
36 36 0 11.3953 -0.5161
36 36 2 -10.5383 0.3033
36 36 4 -1.2600 0.0277
36 36 6 -12.2287 0.4004
37 0 1 22.4429 23.4936
37 0 3 24.1945 -24.9488
37 0 5 -21.5627 -20.3295
37 0 7 31.7802 -32.2771
37 0 9 -35.2884 -35.1331
37 0 11 34.7270 -36.3852
37 0 13 -3.3672 -1.4753
37 0 15 6.4197 -8.3874
37 0 17 -7.1865 -6.0004
37 0 19 3.5247 -3.8710
37 0 21 -21.5741 -21.4330
37 0 23 7.0431 -7.0143
37 0 25 -11.3534 -11.3887
37 0 27 -4.4365 4.3752
37 0 29 9.4852 9.3720
37 0 31 -1.2094 1.1794
37 1 0 -76.5789 -0.0866
37 1 2 12.7909 -45.0162
37 1 4 39.6677 30.2278
37 1 6 33.8548 -32.8775
37 1 8 16.5198 -55.9853
37 1 10 27.0127 -10.3406
37 1 12 1.9832 25.4005
37 1 14 -23.5638 -8.8566
37 1 16 -0.1223 -18.6824
37 1 18 6.9623 -6.6926
37 1 20 -9.5364 9.3162
37 1 22 -23.0752 -13.1372
37 1 24 -8.6077 3.4413
37 1 26 -4.7518 -0.7603
37 1 28 -16.1860 -9.1487
37 1 30 -8.9449 20.1393
37 2 1 31.8128 5.0427
37 2 3 -9.9787 -36.0441
37 2 5 -8.1631 -26.5828
37 2 7 -28.5772 23.2829
37 2 9 -42.5577 -5.5342
37 2 11 -15.6089 -31.0668
37 2 13 13.4752 -15.0434
37 2 15 -5.1837 0.5738
37 2 17 -13.7296 5.2259
37 2 19 -12.2825 12.3010
37 2 21 -12.3843 12.4764
37 2 23 -0.6656 1.3427
37 2 25 -8.8545 2.9503
37 2 27 16.2536 -13.8093
37 2 29 -5.7472 -0.6232
37 2 31 -4.9925 -4.5208
37 3 0 17.2338 0.4509
37 3 2 -17.9344 0.3952
37 3 4 1.3219 -66.7339
37 3 6 -17.2432 5.8899
37 3 8 -23.9114 35.5342
37 3 10 12.0726 3.0394
37 3 12 24.7897 13.3382
37 3 14 -1.1107 23.8122
37 3 16 16.8354 -3.7017
37 3 18 5.0607 -6.7734
37 3 20 -6.8840 5.3435
37 3 22 -3.5080 7.6619
37 3 24 -24.9589 8.9432
37 3 26 12.0758 8.8294
37 3 28 -0.6727 -5.2640
37 3 30 -7.8549 -7.3660
37 4 1 13.4296 7.1223
37 4 3 4.0841 -6.9353
37 4 5 -12.4388 -39.2599
37 4 7 -7.0607 6.0172
37 4 9 -13.0072 6.8785
37 4 11 -10.2876 -1.8141
37 4 13 0.8531 3.6094
37 4 15 6.9637 1.5357
37 4 17 -4.7185 -3.0217
37 4 19 -11.6105 5.8789
37 4 21 -2.1593 5.6910
37 4 23 -10.3168 3.6516
37 4 25 6.6719 -6.9723
37 4 27 -5.1841 -8.5578
37 4 29 -11.9145 -14.1595
37 4 31 0.0629 20.5683
37 5 0 30.9351 0.7448
37 5 2 -0.3291 11.3220
37 5 4 11.1806 -7.1318
37 5 6 -1.9157 -14.7155
37 5 8 -0.1437 7.8240
37 5 10 -0.1234 4.2292
37 5 12 -2.4439 -0.1003
37 5 14 2.0824 10.6569
37 5 16 -7.9415 -10.0863
37 5 18 1.7459 6.1193
37 5 20 0.7385 -4.9623
37 5 22 3.2284 -10.3982
37 5 24 -3.3144 -5.6358
37 5 26 11.9933 8.5266
37 5 28 22.0876 -2.4556
37 5 30 -9.4513 0.2902
37 6 1 2.0896 -25.7168
37 6 3 -8.1563 31.6750
37 6 5 -29.9983 -17.1814
37 6 7 38.7561 17.8637
37 6 9 16.2939 -16.6208
37 6 11 -3.2586 13.5975
37 6 13 4.6131 -3.1500
37 6 15 -8.6704 -5.7632
37 6 17 -2.1101 4.0214
37 6 19 10.0717 -29.4287
37 6 21 -10.9279 -8.2339
37 6 23 -11.7517 -4.3223
37 6 25 -14.2997 -3.0590
37 6 27 -2.1101 4.1251
37 6 29 10.1388 2.1751
37 6 31 -6.4620 -9.8255
37 7 0 -27.5709 0.8331
37 7 2 0.5377 9.3112
37 7 4 -6.9168 56.3868
37 7 6 -26.2536 -5.9421
37 7 8 -17.2050 22.0993
37 7 10 0.1590 -6.2910
37 7 12 11.1878 10.4530
37 7 14 12.0836 -6.8045
37 7 16 -3.3885 -6.6965
37 7 18 5.1857 3.6002
37 7 20 -4.4905 0.4517
37 7 22 4.0191 7.5970
37 7 24 -7.0710 -4.8366
37 7 26 19.0544 13.4802
37 7 28 -4.7613 -5.3040
37 7 30 -1.7042 -19.3139
37 8 1 -16.5287 -3.7383
37 8 3 2.1634 -6.0730
37 8 5 22.4684 -4.4240
37 8 7 -34.3661 0.1477
37 8 9 27.7727 -10.8252
37 8 11 16.8423 -22.7513
37 8 13 -6.1857 -12.3752
37 8 15 -9.1137 -13.6987
37 8 17 -1.5637 3.6351
37 8 19 6.9324 3.7363
37 8 21 -1.7914 2.3281
37 8 23 -14.0551 6.4478
37 8 25 -16.2532 -11.5388
37 8 27 -0.1740 2.9309
37 8 29 3.1830 1.0020
37 8 31 -0.2543 1.6331
37 9 0 -12.5027 0.9347
37 9 2 9.0240 2.7671
37 9 4 14.2254 52.0959
37 9 6 -4.3469 -5.9757
37 9 8 8.2379 16.7060
37 9 10 -5.9234 -1.4263
37 9 12 -24.3621 -2.1952
37 9 14 7.5506 -26.5497
37 9 16 1.9424 4.2856
37 9 18 -2.8540 3.6107
37 9 20 -0.0876 -9.3313
37 9 22 6.7791 7.7501
37 9 24 -0.9476 8.5055
37 9 26 -11.8250 -20.3238
37 9 28 -2.6759 14.8970
37 9 30 11.6483 16.5097
37 10 1 -20.4605 18.8216
37 10 3 -9.4924 25.5585
37 10 5 7.4022 -14.3848
37 10 7 13.2620 40.0702
37 10 9 18.0814 -16.7235
37 10 11 21.9932 -29.0185
37 10 13 28.0562 -4.3980
37 10 15 15.0085 -8.6629
37 10 17 16.5734 -9.8477
37 10 19 -12.8919 9.9502
37 10 21 -0.0427 14.6439
37 10 23 11.5842 0.3540
37 10 25 -0.5289 5.2589
37 10 27 7.1473 6.2983
37 10 29 -15.0623 -12.2193
37 11 0 -26.0031 0.9686
37 11 2 -1.9717 -21.5601
37 11 4 -41.3304 10.9052
37 11 6 -23.3477 18.8605
37 11 8 -4.4385 33.4854
37 11 10 -2.5645 -4.5162
37 11 12 18.7994 0.2189
37 11 14 -16.1512 -3.1906
37 11 16 -9.7929 -2.7739
37 11 18 -6.6597 -0.7010
37 11 20 -19.2919 5.6227
37 11 22 6.4057 13.0233
37 11 24 15.7717 -14.7615
37 11 26 -12.4500 14.5965
37 11 28 21.5153 3.7937
37 11 30 -12.2152 -18.6034
37 12 1 0.3198 2.2837
37 12 3 8.6266 3.9406
37 12 5 -12.3018 19.6946
37 12 7 27.6223 7.2031
37 12 9 -8.0973 6.2692
37 12 11 26.5495 -10.0386
37 12 13 -16.2586 15.7574
37 12 15 -19.6056 -6.4654
37 12 17 27.1795 10.3274
37 12 19 -4.8878 -0.0234
37 12 21 -2.3425 -0.2066
37 12 23 -0.3683 -6.3629
37 12 25 1.7825 -0.1814
37 12 27 2.0615 4.6196
37 12 29 0.3045 0.5018
37 13 0 9.4323 0.8108
37 13 2 25.7730 35.6121
37 13 4 27.2915 29.5994
37 13 6 -8.1750 -14.9278
37 13 8 -7.9139 -11.4983
37 13 10 4.0645 -15.9803
37 13 12 1.7758 25.2584
37 13 14 -8.6743 -4.8980
37 13 16 -16.0587 10.1079
37 13 18 -15.2419 -0.8124
37 13 20 -10.1081 12.6117
37 13 22 14.4781 0.9496
37 13 24 -0.5247 -9.0994
37 13 26 -8.6654 -1.5153
37 13 28 -5.9348 2.0435
37 14 1 2.8376 16.9077
37 14 3 3.5920 -23.6545
37 14 5 -7.6791 -0.0802
37 14 7 -25.1570 -9.0624
37 14 9 1.8712 -18.7660
37 14 11 -2.0794 10.3420
37 14 13 3.7558 0.4484
37 14 15 2.3653 -8.2268
37 14 17 8.7735 1.0868
37 14 19 -3.9843 -3.3539
37 14 21 -7.6164 -4.4457
37 14 23 13.2254 0.0065
37 14 25 0.4371 -7.8577
37 14 27 21.2324 -5.3060
37 14 29 -1.9161 4.0742
37 15 0 -0.3882 0.6466
37 15 2 2.1975 4.2634
37 15 4 12.3984 -15.5629
37 15 6 7.0838 18.0635
37 15 8 8.3699 37.8850
37 15 10 3.6493 0.2416
37 15 12 -1.4641 -16.3517
37 15 14 17.8913 5.6960
37 15 16 8.7032 -14.1377
37 15 18 9.4926 5.5222
37 15 20 -20.2249 7.2601
37 15 22 -10.0648 18.2217
37 15 24 -12.3067 -8.9146
37 15 26 3.0431 0.8429
37 15 28 -0.6015 3.0168
37 16 1 22.3786 8.0977
37 16 3 42.8460 -24.6064
37 16 5 12.4374 -16.9444
37 16 7 -43.3422 -24.0834
37 16 9 2.6481 -15.3297
37 16 11 1.1148 8.8170
37 16 13 -14.5571 15.0141
37 16 15 -3.0728 4.7476
37 16 17 3.0248 -9.3488
37 16 19 5.4246 -4.5028
37 16 21 -8.3134 -6.6099
37 16 23 12.0235 6.0249
37 16 25 -1.4439 -2.3483
37 16 27 -12.4076 -2.0406
37 17 0 10.7764 0.5523
37 17 2 -3.1228 21.0856
37 17 4 -8.1218 -12.4332
37 17 6 5.2248 -23.7889
37 17 8 -8.2486 -33.7584
37 17 10 -3.9089 -32.2790
37 17 12 19.5595 -1.1261
37 17 14 -12.5339 -6.2924
37 17 16 9.4462 -8.7714
37 17 18 -6.6374 -9.0797
37 17 20 11.1258 12.8667
37 17 22 15.8472 14.2589
37 17 24 -11.6743 -12.5608
37 17 26 -5.3180 13.5385
37 17 28 3.0621 -25.3037
37 18 1 -9.7041 -9.7052
37 18 3 -13.2175 -15.7467
37 18 5 0.6563 29.1556
37 18 7 3.6118 20.0664
37 18 9 0.3514 -6.9905
37 18 11 10.5292 8.0779
37 18 13 -8.2913 -11.3634
37 18 15 8.8198 4.9958
37 18 17 -3.3401 -10.6778
37 18 19 -5.0263 -13.0781
37 18 21 10.5100 -7.3043
37 18 23 -8.8451 15.0029
37 18 25 -1.4404 -2.3190
37 18 27 25.0720 17.1865
37 19 0 20.9013 0.4513
37 19 2 8.5546 -12.7238
37 19 4 -6.2356 -1.9875
37 19 6 6.6083 4.1164
37 19 8 7.4222 -14.7437
37 19 10 11.6429 -11.4451
37 19 12 5.7977 -12.1352
37 19 14 -1.9298 -9.6024
37 19 16 -6.1902 -6.8163
37 19 18 9.1985 -16.1016
37 19 20 4.0731 1.9810
37 19 22 11.2143 6.3529
37 19 24 -5.3228 -9.6189
37 19 26 -17.3411 -0.8297
37 20 1 14.4840 -1.4240
37 20 3 -5.7245 -1.8544
37 20 5 -11.4233 14.5135
37 20 7 3.4354 11.0893
37 20 9 -0.1034 8.9181
37 20 11 -1.7259 -1.7839
37 20 13 -10.8584 2.8095
37 20 15 9.0106 5.2210
37 20 17 8.8085 6.6631
37 20 19 -21.5334 0.2026
37 20 21 -12.5794 5.9739
37 20 23 15.7224 1.8305
37 20 25 26.2375 -16.1263
37 21 0 6.7167 0.3816
37 21 2 -10.1986 4.0194
37 21 4 -3.6998 0.9230
37 21 6 -11.3702 -13.8593
37 21 8 2.0048 -2.6764
37 21 10 -21.4491 -7.4786
37 21 12 4.0931 0.9273
37 21 14 1.4776 22.4560
37 21 16 4.1236 3.6621
37 21 18 -0.4276 15.0828
37 21 20 6.5696 4.5285
37 21 22 0.2898 1.4730
37 21 24 -8.8051 -5.3803
37 22 1 -8.9782 -6.7762
37 22 3 -6.2373 6.4128
37 22 5 -3.2093 -0.7232
37 22 7 18.2048 -5.6886
37 22 9 -5.0540 -1.8524
37 22 11 3.6142 -1.1479
37 22 13 0.9943 13.4832
37 22 15 -15.5626 1.6123
37 22 17 -11.3507 3.8843
37 22 19 -12.1869 1.1123
37 22 21 -4.1030 -2.2472
37 22 23 13.6696 14.3191
37 22 25 -8.3200 7.5113
37 23 0 9.3718 0.4255
37 23 2 -13.9491 -16.7432
37 23 4 10.2124 -3.0671
37 23 6 6.7750 16.4414
37 23 8 3.6884 -16.8187
37 23 10 -4.8122 -9.4528
37 23 12 1.7763 5.6104
37 23 14 4.5000 -1.8239
37 23 16 -7.8564 7.0239
37 23 18 5.2331 -13.2050
37 23 20 0.6310 16.7803
37 23 22 -17.6708 -2.1588
37 23 24 8.9795 -4.0897
37 24 1 2.9388 14.1835
37 24 3 -6.9312 2.0557
37 24 5 16.2168 -14.8400
37 24 7 -4.8881 7.9870
37 24 9 7.2926 -6.0940
37 24 11 13.6594 -5.9248
37 24 13 13.4518 -3.5922
37 24 15 8.3006 -17.0440
37 24 17 10.7633 -1.0379
37 24 19 2.2403 -5.5759
37 24 21 5.5312 15.4037
37 24 23 8.8019 1.4360
37 25 0 3.1842 0.4201
37 25 2 -0.2907 1.3290
37 25 4 2.6092 0.2669
37 25 6 -13.1528 -8.6413
37 25 8 -13.2003 9.8938
37 25 10 -3.2299 13.8724
37 25 12 -12.2168 15.7769
37 25 14 8.4064 0.5288
37 25 16 1.9067 19.0163
37 25 18 5.0378 -8.0729
37 25 20 -12.4617 16.1660
37 25 22 8.4304 6.5736
37 26 1 -0.9414 -1.8479
37 26 3 4.0013 5.1910
37 26 5 -16.2633 7.6264
37 26 7 -4.8967 3.9753
37 26 9 9.3233 -2.5315
37 26 11 -3.9242 -0.0059
37 26 13 7.5610 -1.6209
37 26 15 2.4061 4.6351
37 26 17 -10.3299 16.3260
37 26 19 -7.3310 -13.3596
37 26 21 15.3737 9.0537
37 27 0 8.7835 0.3359
37 27 2 -15.2369 0.9447
37 27 4 13.3467 18.4446
37 27 6 1.0437 -2.5499
37 27 8 20.1708 22.1270
37 27 10 -3.5031 -9.6919
37 27 12 -0.4667 -6.6219
37 27 14 -0.8301 -12.0023
37 27 16 8.6385 12.0035
37 27 18 -0.3320 -15.6515
37 27 20 -2.1444 -4.2298
37 28 1 -4.4677 -3.7210
37 28 3 -4.9708 22.9654
37 28 5 7.6892 8.4437
37 28 7 1.6400 -2.5673
37 28 9 7.6438 -5.2791
37 28 11 1.1258 7.3790
37 28 13 11.7222 1.7999
37 28 15 -9.4857 -20.0464
37 28 17 -9.0784 -1.9152
37 28 19 -13.6999 17.3814
37 29 0 16.8793 0.2113
37 29 2 6.2929 -1.0285
37 29 4 -14.5758 8.6762
37 29 6 3.1731 4.8008
37 29 8 8.8999 3.8510
37 29 10 1.0552 1.8890
37 29 12 16.2089 11.3059
37 29 14 -13.8634 -9.9241
37 29 16 0.8463 -30.9088
37 29 18 5.3188 1.0696
37 30 1 -4.1474 -8.3638
37 30 3 -0.2031 -9.7197
37 30 5 -10.6069 15.7091
37 30 7 9.4298 -19.1670
37 30 9 -3.4909 0.9951
37 30 11 8.7303 -14.0662
37 30 13 10.3878 -8.5563
37 30 15 1.0982 0.3605
37 30 17 10.9740 3.3838
37 31 0 8.9897 0.0450
37 31 2 9.7828 4.2786
37 31 4 4.9487 8.2976
37 31 6 -3.4726 -2.7917
37 31 8 -9.5760 2.5423
37 31 10 -2.2823 4.4992
37 31 12 14.7459 -15.7698
37 31 14 -6.1035 0.8567
37 31 16 0.1574 -19.7295
37 32 1 -0.6884 -6.3814
37 32 3 -5.8356 -7.0244
37 32 5 -5.9731 -12.0403
37 32 7 5.4595 -7.0655
37 32 9 8.9970 -8.0197
37 32 11 -7.3688 7.2158
37 32 13 8.1065 7.4159
37 33 0 18.7726 -0.1362
37 33 2 8.8816 22.9878
37 33 4 8.2748 8.1603
37 33 6 -6.2657 -9.8661
37 33 8 -10.2778 1.3435
37 33 10 -6.8300 -3.6016
37 33 12 -10.6987 -3.9011
37 34 1 9.0246 -8.0920
37 34 3 -0.5679 -1.7312
37 34 5 7.4294 12.2944
37 34 7 2.5920 17.1032
37 34 9 8.6668 -0.7116
37 35 0 40.0803 -0.2546
37 35 2 -9.3399 6.0064
37 35 4 -17.8628 17.1707
37 35 6 -8.7410 -4.3448
38 0 0 -6.7234 -2.6255
38 0 2 -0.4775 -54.3952
38 0 4 22.1465 -1.8149
38 0 6 -0.4822 -51.5016
38 0 8 -2.8719 -0.2340
38 0 10 0.0156 -10.9707
38 0 12 -9.0569 -0.3977
38 0 14 0.1130 19.1376
38 0 16 -18.5602 0.4843
38 0 18 0.1371 24.6958
38 0 20 -13.9810 0.3593
38 0 22 -0.0741 21.3937
38 0 24 -24.1725 0.1473
38 0 26 -0.0887 -14.8334
38 0 28 -27.0044 0.3105
38 0 30 -0.0021 2.5055
38 1 1 7.0929 -38.0144
38 1 3 -0.1865 -13.6219
38 1 5 -28.6526 -60.8265
38 1 7 -18.2840 -53.5109
38 1 9 -15.1380 37.4024
38 1 11 8.1239 8.2399
38 1 13 -5.1082 -1.0390
38 1 15 -7.7118 9.2390
38 1 17 8.7125 -2.8138
38 1 19 -1.2950 -1.0724
38 1 21 7.1196 -1.8946
38 1 23 -0.5694 1.7578
38 1 25 -8.0286 14.8488
38 1 27 -7.2466 -17.9654
38 1 29 -9.6620 -12.3689
38 1 31 0.9245 -20.5658
38 2 0 -5.9892 -2.7986
38 2 2 50.6487 56.8442
38 2 4 19.2932 16.5981
38 2 6 -11.8613 -59.8682
38 2 8 -5.8032 -7.5318
38 2 10 5.4141 15.2978
38 2 12 -2.5277 -15.3144
38 2 14 -12.0236 -13.2867
38 2 16 -1.9154 6.2584
38 2 18 22.0997 11.4439
38 2 20 2.3283 13.9993
38 2 22 -25.1257 -10.6451
38 2 24 -10.9519 10.6406
38 2 26 16.4968 -17.3623
38 2 28 3.1591 0.1086
38 2 30 -4.3833 1.7537
38 3 1 2.5196 -12.1091
38 3 3 15.8846 3.1410
38 3 5 -15.4936 -23.9643
38 3 7 0.8358 -44.8174
38 3 9 -9.5959 8.0476
38 3 11 4.9015 -39.6135
38 3 13 -7.1857 2.4016
38 3 15 -2.7796 10.6340
38 3 17 0.3574 6.1393
38 3 19 0.7833 -2.1023
38 3 21 -0.0558 -15.9044
38 3 23 -13.1007 -4.1249
38 3 25 10.8296 12.9213
38 3 27 8.7667 -0.9975
38 3 29 -4.6890 -12.5653
38 4 0 14.0995 -2.1820
38 4 2 -15.6912 26.5895
38 4 4 21.2632 -7.3969
38 4 6 15.6680 -7.4389
38 4 8 8.5285 0.9576
38 4 10 7.9267 -13.4983
38 4 12 -2.9430 -7.9010
38 4 14 -1.3786 -8.8241
38 4 16 0.5452 8.0021
38 4 18 10.5821 15.0095
38 4 20 4.6480 -8.6339
38 4 22 -15.8335 -2.0499
38 4 24 -14.4515 7.3070
38 4 26 -20.4106 -5.2287
38 4 28 6.5650 2.0525
38 4 30 2.8793 0.6666
38 5 1 4.9032 10.8268
38 5 3 -6.6114 -25.2831
38 5 5 -0.7925 -5.6946
38 5 7 -0.7576 16.7857
38 5 9 -7.5092 -9.9818
38 5 11 -13.0265 -3.9175
38 5 13 7.6058 8.0285
38 5 15 -2.8500 -13.1942
38 5 17 3.6581 14.5431
38 5 19 2.4978 -9.4961
38 5 21 -16.5413 5.2138
38 5 23 9.7020 -0.4738
38 5 25 0.2959 1.2710
38 5 27 -14.2498 12.5260
38 5 29 1.9965 -20.2120
38 6 0 4.4502 -1.9333
38 6 2 -5.3876 14.5308
38 6 4 -6.5136 2.8018
38 6 6 -1.6534 5.1635
38 6 8 -16.1270 10.2142
38 6 10 -14.0178 -3.1712
38 6 12 -12.0914 0.3825
38 6 14 -4.2286 -7.3485
38 6 16 5.2528 2.3000
38 6 18 12.2386 8.5589
38 6 20 2.3675 -10.0518
38 6 22 -12.8833 8.0809
38 6 24 -8.4272 10.0487
38 6 26 5.2560 7.3773
38 6 28 4.4336 -0.0404
38 6 30 1.8598 4.2531
38 7 1 -0.0467 -7.0764
38 7 3 -17.0683 -11.3062
38 7 5 -8.8752 8.0109
38 7 7 -18.0631 -6.4124
38 7 9 -4.2941 16.3366
38 7 11 16.1255 -24.6752
38 7 13 19.8597 1.6177
38 7 15 6.6002 -1.1378
38 7 17 14.0983 16.6628
38 7 19 -5.0718 5.4670
38 7 21 4.2024 -2.7339
38 7 23 -24.8772 13.6809
38 7 25 -1.3392 0.4548
38 7 27 1.4500 -0.5366
38 7 29 -1.5991 -2.2151
38 8 0 -11.3481 -1.4457
38 8 2 7.8168 -4.7603
38 8 4 -12.5779 7.7598
38 8 6 7.2389 -10.7669
38 8 8 -2.0844 -0.7906
38 8 10 -7.3075 -1.6541
38 8 12 -7.6374 5.8697
38 8 14 0.5811 10.2304
38 8 16 3.7476 -18.6127
38 8 18 3.5670 1.3763
38 8 20 -0.0280 -1.9655
38 8 22 2.9779 3.7091
38 8 24 11.1957 7.0236
38 8 26 4.4996 4.2937
38 8 28 -0.7886 -12.2948
38 8 30 -2.7330 15.2340
38 9 1 17.9509 2.9388
38 9 3 -1.5913 -4.4401
38 9 5 -5.0119 19.3977
38 9 7 -6.4976 -4.1858
38 9 9 -4.4199 39.5249
38 9 11 -14.5947 -8.0972
38 9 13 13.9959 14.7275
38 9 15 15.0363 10.8215
38 9 17 26.8335 -11.9176
38 9 19 -4.8116 6.4837
38 9 21 -10.9403 6.9227
38 9 23 -0.0579 -2.6392
38 9 25 9.5583 -1.8322
38 9 27 -2.9030 16.2341
38 9 29 -2.1287 2.3738
38 10 0 0.8643 -0.7890
38 10 2 15.7706 41.6955
38 10 4 -10.3622 -6.6984
38 10 6 34.2356 45.7362
38 10 8 1.0756 -27.1389
38 10 10 -26.6616 12.7111
38 10 12 5.6686 11.4295
38 10 14 -0.9463 7.1405
38 10 16 -1.9830 -13.4405
38 10 18 11.6132 17.3086
38 10 20 -0.6706 13.1606
38 10 22 3.6519 2.3169
38 10 24 -5.2418 -5.8600
38 10 26 8.4212 2.8442
38 10 28 -12.6260 -1.2545
38 11 1 3.0702 8.7677
38 11 3 6.0378 21.4057
38 11 5 19.9458 -15.7067
38 11 7 -5.0614 12.8263
38 11 9 20.6121 -23.5541
38 11 11 -6.2354 -0.5059
38 11 13 6.0104 27.7581
38 11 15 6.2471 11.1182
38 11 17 15.1019 -22.2160
38 11 19 -10.0854 10.3532
38 11 21 -4.0029 15.6694
38 11 23 4.6651 -1.2135
38 11 25 -4.0549 3.6852
38 11 27 12.9621 2.8916
38 11 29 -2.7658 -5.1042
38 12 0 4.4916 -0.4277
38 12 2 13.4997 8.8006
38 12 4 7.2314 -23.1007
38 12 6 7.2345 28.9030
38 12 8 -5.2846 2.8281
38 12 10 -33.0691 4.8521
38 12 12 8.9308 21.6036
38 12 14 17.2604 13.6444
38 12 16 -1.2668 1.0298
38 12 18 11.9502 22.2378
38 12 20 6.2679 4.7834
38 12 22 -16.3650 -9.0693
38 12 24 -9.2539 -11.5353
38 12 26 11.4137 8.5990
38 12 28 -22.4329 -1.1653
38 13 1 -2.9511 -4.7826
38 13 3 3.0833 -3.1112
38 13 5 26.5916 7.4598
38 13 7 -3.5290 11.1421
38 13 9 14.0472 9.1353
38 13 11 3.6858 7.3445
38 13 13 -33.7272 -5.5536
38 13 15 6.0253 -19.8943
38 13 17 -2.5280 12.2597
38 13 19 7.3781 -16.3009
38 13 21 8.9911 -4.0815
38 13 23 -17.5036 -11.1915
38 13 25 8.0199 4.5459
38 13 27 10.0034 -2.1544
38 14 0 -13.4453 -0.2794
38 14 2 -4.8643 10.1036
38 14 4 -16.9055 8.9739
38 14 6 -6.4215 -7.9851
38 14 8 3.1052 -3.1533
38 14 10 -12.1832 -24.6163
38 14 12 -12.3561 1.2898
38 14 14 -4.5077 -3.4553
38 14 16 -1.0037 22.4022
38 14 18 18.2905 8.8144
38 14 20 14.5036 -7.4017
38 14 22 -2.9659 11.9770
38 14 24 -3.3339 -17.8844
38 14 26 -16.8126 -10.2724
38 14 28 -20.3060 11.6667
38 15 1 18.3021 -7.8879
38 15 3 -13.1359 -0.4677
38 15 5 12.2241 -8.7101
38 15 7 -13.0627 -3.1038
38 15 9 19.9978 -4.8279
38 15 11 -4.3548 -3.3999
38 15 13 7.0848 -30.4768
38 15 15 10.1578 -12.5886
38 15 17 -4.2652 -0.9214
38 15 19 8.9284 12.5671
38 15 21 -17.7045 4.0332
38 15 23 13.4181 -13.6121
38 15 25 13.8135 6.5284
38 15 27 1.4966 -0.3357
38 16 0 4.5531 -0.2414
38 16 2 -30.9993 -1.1237
38 16 4 -2.8777 12.6349
38 16 6 -12.1836 -2.9786
38 16 8 -3.4027 13.0317
38 16 10 18.0402 -3.4792
38 16 12 -12.6059 7.1341
38 16 14 -3.2728 -5.9859
38 16 16 -6.6464 -10.8037
38 16 18 -10.0612 -5.4179
38 16 20 15.7600 16.2239
38 16 22 -6.6123 15.7486
38 16 24 -4.7206 15.7226
38 16 26 -14.6145 4.3845
38 17 1 -2.4575 -30.9493
38 17 3 -4.5110 3.3190
38 17 5 2.0807 26.7076
38 17 7 -7.4821 13.8147
38 17 9 11.2132 -6.0519
38 17 11 -1.0739 -8.0471
38 17 13 5.7875 -1.6999
38 17 15 8.4506 -1.9893
38 17 17 12.6824 8.1491
38 17 19 18.7222 -10.3860
38 17 21 7.0796 6.6449
38 17 23 -26.9719 -9.1454
38 17 25 12.2250 -9.1468
38 17 27 -10.3734 9.0162
38 18 0 5.6371 -0.2321
38 18 2 -2.6205 -1.2105
38 18 4 8.3013 10.6591
38 18 6 -32.2284 11.4758
38 18 8 4.3201 2.4520
38 18 10 -12.5981 0.4628
38 18 12 0.3433 -21.9975
38 18 14 13.0197 20.3849
38 18 16 -7.4092 10.9850
38 18 18 10.6203 -9.4971
38 18 20 -13.8804 13.7159
38 18 22 9.6941 6.5287
38 18 24 -0.2613 -7.9646
38 18 26 -15.6935 -5.0206
38 19 1 -8.1058 11.8663
38 19 3 11.3508 -11.6886
38 19 5 1.9363 2.6447
38 19 7 -5.4806 9.7573
38 19 9 -4.3203 -4.9921
38 19 11 6.2214 7.0408
38 19 13 8.0671 -7.9116
38 19 15 8.0180 6.7614
38 19 17 -14.5923 -0.5375
38 19 19 -16.9365 -11.6833
38 19 21 14.0009 8.7131
38 19 23 -3.3687 -14.7923
38 19 25 -3.9019 3.5750
38 20 0 8.6156 -0.1878
38 20 2 -5.7746 -1.1535
38 20 4 1.6861 21.3483
38 20 6 -4.1440 14.2654
38 20 8 5.9120 6.6181
38 20 10 5.7186 4.9947
38 20 12 6.0871 3.0895
38 20 14 -13.3057 2.8686
38 20 16 5.1006 -8.2288
38 20 18 -10.2972 -8.6003
38 20 20 -0.7066 3.4875
38 20 22 -16.7705 -14.4032
38 20 24 -9.2580 -1.0734
38 21 1 -16.6935 -17.9130
38 21 3 -20.1245 8.6011
38 21 5 0.3835 -2.2512
38 21 7 -1.1003 0.6362
38 21 9 1.2564 -9.2780
38 21 11 9.0929 -4.6960
38 21 13 14.8696 11.9212
38 21 15 7.1500 -5.1435
38 21 17 -7.5281 1.5928
38 21 19 6.8754 2.9785
38 21 21 4.6610 3.6440
38 21 23 -9.0178 21.2255
38 22 0 13.1580 -0.0811
38 22 2 -3.6828 17.1881
38 22 4 -8.8260 -11.2519
38 22 6 -0.3603 -14.3122
38 22 8 3.8066 0.7874
38 22 10 -1.1643 0.5510
38 22 12 11.0364 -1.2393
38 22 14 22.1631 18.4857
38 22 16 -1.1843 -6.1528
38 22 18 -1.1246 -1.0122
38 22 20 0.6130 8.6696
38 22 22 29.0565 -8.5472
38 22 24 -1.4617 -3.7391
38 23 1 5.3012 -20.2111
38 23 3 3.8134 3.3940
38 23 5 -6.3277 -5.3673
38 23 7 -8.4198 0.7352
38 23 9 -12.9178 3.3082
38 23 11 17.3305 17.4095
38 23 13 5.3761 5.2093
38 23 15 7.6657 -2.1017
38 23 17 3.8599 -11.4374
38 23 19 -14.6330 -5.0144
38 23 21 -5.9002 5.5924
38 23 23 -6.8937 -16.6560
38 24 0 7.0044 0.0326
38 24 2 11.2033 1.3695
38 24 4 8.3136 -2.8209
38 24 6 2.8890 -4.9197
38 24 8 3.7012 -1.6636
38 24 10 1.9048 5.1145
38 24 12 10.7121 -6.4286
38 24 14 6.6510 9.4618
38 24 16 -8.7173 0.8249
38 24 18 -0.2385 -1.9191
38 24 20 10.5407 -0.8646
38 24 22 0.4123 -0.0919
38 25 1 17.1787 -7.3660
38 25 3 16.1763 -3.7524
38 25 5 -2.5361 -0.1436
38 25 7 4.5260 -5.0931
38 25 9 1.6471 1.8623
38 25 11 -11.9790 -5.1501
38 25 13 17.0823 16.7104
38 25 15 -4.2453 16.2336
38 25 17 16.8837 -9.7598
38 25 19 8.0078 7.3388
38 25 21 -1.6430 2.9835
38 26 0 6.1061 0.1489
38 26 2 9.8525 -9.2504
38 26 4 -3.0942 14.8720
38 26 6 11.9617 -27.9601
38 26 8 14.2854 12.9621
38 26 10 7.9977 -24.9727
38 26 12 -14.2171 6.9675
38 26 14 -9.9018 -3.8613
38 26 16 11.2851 11.3394
38 26 18 -7.0611 10.2702
38 26 20 9.2013 -19.2511
38 27 1 16.6069 3.0234
38 27 3 -5.5689 3.6574
38 27 5 5.4007 -4.8729
38 27 7 -3.3342 -4.4137
38 27 9 -1.8770 -0.7889
38 27 11 25.4753 -8.9189
38 27 13 12.1925 -26.4689
38 27 15 7.3203 6.2207
38 27 17 -10.2988 31.0562
38 27 19 -7.5462 -20.9906
38 28 0 2.6993 0.1659
38 28 2 -7.6555 6.8488
38 28 4 -12.0862 20.9267
38 28 6 5.7319 9.5461
38 28 8 -14.5921 -0.2058
38 28 10 2.7207 -2.2649
38 28 12 7.9669 -17.6413
38 28 14 -4.0273 -11.5277
38 28 16 23.7666 -8.1035
38 28 18 15.4918 0.4120
38 29 1 -8.9704 7.9028
38 29 3 -7.2874 10.4171
38 29 5 -3.2939 19.5914
38 29 7 8.3254 -9.2466
38 29 9 2.0713 3.4872
38 29 11 -6.4368 3.4373
38 29 13 5.1708 -12.8507
38 29 15 3.3465 -8.6275
38 29 17 -7.2753 -0.0999
38 30 0 -0.6951 0.0322
38 30 2 5.8427 -18.2298
38 30 4 -7.9642 7.0960
38 30 6 -0.3455 -7.3092
38 30 8 16.6174 -8.0212
38 30 10 3.4144 22.6207
38 30 12 3.1783 -9.2853
38 30 14 -2.0085 -7.6090
38 31 1 4.7273 2.9535
38 31 3 10.3965 -8.3741
38 31 5 -6.9168 -10.3272
38 31 7 -7.3613 6.0199
38 31 9 4.8638 3.0121
38 31 11 11.7834 -3.3082
38 31 13 -0.6966 5.2160
38 32 0 5.5908 -0.1023
38 32 2 14.7719 6.4620
38 32 4 6.0280 5.2652
38 32 6 -10.4843 9.5774
38 32 8 0.2341 -12.8257
38 32 10 7.7383 -6.7321
38 32 12 -18.4559 -6.7996
38 33 1 -5.6808 -13.6465
38 33 3 0.9352 8.9311
38 33 5 1.2153 5.6339
38 33 7 -3.1621 -0.7044
38 33 9 -0.9904 -0.7131
38 34 0 -3.0709 -0.4551
38 34 2 8.6131 -15.7490
38 34 4 11.3267 -5.4396
38 34 6 -4.1719 11.3893
39 0 1 11.9306 12.3616
39 0 3 9.2203 -10.4793
39 0 5 -27.3679 -26.6770
39 0 7 9.6840 -10.6008
39 0 9 -35.4003 -35.4540
39 0 11 9.7370 -11.5986
39 0 13 -10.6638 -9.1453
39 0 15 4.6375 -6.4558
39 0 17 2.5643 3.6366
39 0 19 3.7539 -4.0099
39 0 21 -0.6489 -0.4737
39 0 23 1.8610 -1.6871
39 0 25 9.0675 9.0573
39 0 27 1.8450 -1.8390
39 0 29 -1.7955 -1.8457
39 1 0 -55.6767 -0.0696
39 1 2 -18.3846 -14.9690
39 1 4 -60.5559 -83.2350
39 1 6 35.0066 -0.1509
39 1 8 53.4651 10.7180
39 1 10 -15.0469 -5.0962
39 1 12 -3.7259 -8.8985
39 1 14 6.2762 -10.9213
39 1 16 7.7897 -21.2402
39 1 18 9.1873 15.1212
39 1 20 4.1329 25.6012
39 1 22 -16.1787 11.9978
39 1 24 0.7606 -6.4380
39 1 26 -0.9684 -9.1953
39 1 28 -12.8630 -7.9320
39 1 30 5.1501 1.4498
39 2 1 -5.6835 -30.4135
39 2 3 14.3763 4.1141
39 2 5 -13.8556 20.8064
39 2 7 -16.8572 -8.7601
39 2 9 -22.8963 19.7129
39 2 11 -26.0443 -23.2667
39 2 13 17.6491 -13.6748
39 2 15 6.5458 -4.1829
39 2 17 11.6422 -10.2210
39 2 19 -19.6529 -2.4544
39 2 21 2.3912 2.8493
39 2 23 1.8294 -7.0276
39 2 25 1.6367 -2.5969
39 2 27 9.3721 -0.0583
39 2 29 -9.1825 -6.8933
39 3 0 -34.4135 0.3123
39 3 2 -2.8902 2.6661
39 3 4 -10.1487 14.0376
39 3 6 -8.5097 -2.2889
39 3 8 5.4206 22.8180
39 3 10 13.5151 -2.7339
39 3 12 -1.5269 0.4492
39 3 14 0.0001 0.4095
39 3 16 15.3819 1.9181
39 3 18 6.9252 -11.5125
39 3 20 6.4193 -18.1434
39 3 22 -6.3517 4.2765
39 3 24 -2.9330 -3.5264
39 3 26 -13.1447 26.2715
39 3 28 -6.3099 13.5527
39 4 1 16.4169 16.6884
39 4 3 -15.0646 1.3716
39 4 5 0.7843 5.2034
39 4 7 17.6066 4.2245
39 4 9 27.4370 -16.4576
39 4 11 -13.2596 -4.4045
39 4 13 12.4203 -10.8464
39 4 15 4.5083 10.8483
39 4 17 -6.1036 -0.1468
39 4 19 10.8450 4.4288
39 4 21 -2.9844 4.5336
39 4 23 -0.8449 -6.8367
39 4 25 13.6963 -14.8607
39 4 27 3.4668 -2.9882
39 4 29 -4.2407 1.6685
39 5 0 4.5295 0.5548
39 5 2 -1.3278 -22.9226
39 5 4 -7.1214 -27.6213
39 5 6 -1.5005 -0.7959
39 5 8 5.0942 -4.0672
39 5 10 -0.2081 -6.3272
39 5 12 3.5793 6.1076
39 5 14 -1.0359 10.4546
39 5 16 -6.2379 -21.6770
39 5 18 -4.3200 -2.9451
39 5 20 -7.8207 -3.2792
39 5 22 -0.0323 7.9623
39 5 24 -4.2856 -6.5402
39 5 26 12.5958 1.1229
39 5 28 -6.0978 18.4191
39 6 1 7.0913 -6.3966
39 6 3 3.4572 15.8005
39 6 5 9.8982 -16.5859
39 6 7 6.6853 -9.3833
39 6 9 0.8604 5.8446
39 6 11 -16.2954 5.2282
39 6 13 -1.3670 0.8285
39 6 15 -4.7450 -7.0733
39 6 17 -6.1368 -2.8894
39 6 19 -0.0634 3.7882
39 6 21 -3.6750 4.3208
39 6 23 10.8447 -19.3963
39 6 25 -2.3249 2.4633
39 6 27 0.6501 -0.1902
39 6 29 -5.5352 7.6488
39 7 0 40.2694 0.6325
39 7 2 -3.6331 -20.6948
39 7 4 15.0507 -2.0433
39 7 6 -4.7723 4.1422
39 7 8 -0.1270 -3.7691
39 7 10 -2.6233 -2.5131
39 7 12 -1.9684 15.2436
39 7 14 -2.7817 5.9665
39 7 16 26.3103 -2.5926
39 7 18 -7.7652 9.2101
39 7 20 -9.9303 19.9241
39 7 22 0.3681 3.7439
39 7 24 -1.3034 1.1290
39 7 26 -4.1002 -8.0825
39 7 28 -16.3818 -2.9615
39 8 1 9.8868 1.3746
39 8 3 7.2535 23.7583
39 8 5 0.6264 6.5440
39 8 7 10.2538 -6.0948
39 8 9 2.8619 2.4377
39 8 11 0.8039 5.6034
39 8 13 -15.1867 -12.5139
39 8 15 2.5265 -2.1777
39 8 17 8.0407 -4.8884
39 8 19 4.6392 1.0292
39 8 21 -2.7904 2.7042
39 8 23 8.0218 4.9662
39 8 25 -1.5529 -0.3495
39 8 27 -0.1286 2.2842
39 8 29 5.1398 6.6720
39 9 0 -9.9908 0.6905
39 9 2 -3.5955 7.1400
39 9 4 0.4748 32.7941
39 9 6 10.0448 -16.4563
39 9 8 18.7885 16.3124
39 9 10 8.8716 -6.8032
39 9 12 -26.5363 -3.5472
39 9 14 7.0832 7.1595
39 9 16 -0.2289 -0.8905
39 9 18 -3.0478 -13.3033
39 9 20 -9.9972 -18.4092
39 9 22 1.7366 -6.1951
39 9 24 22.4129 -4.5398
39 9 26 3.0169 5.5148
39 9 28 9.2505 8.2355
39 10 1 -15.9904 -14.8728
39 10 3 -22.1279 -8.4308
39 10 5 0.6581 9.1243
39 10 7 6.0322 35.9336
39 10 9 11.2929 7.5661
39 10 11 -24.0677 14.2420
39 10 13 -1.3622 -9.9222
39 10 15 20.7586 26.2547
39 10 17 11.2461 15.8006
39 10 19 8.9478 -9.3362
39 10 21 -8.5380 4.4127
39 10 23 2.4145 -17.4828
39 10 25 12.4449 4.9223
39 10 27 8.6374 -1.3490
39 11 0 -33.7693 0.7148
39 11 2 -7.7266 -5.8102
39 11 4 -13.7139 33.1802
39 11 6 -5.3215 8.1435
39 11 8 21.8422 6.8170
39 11 10 -5.1913 -0.3353
39 11 12 -8.9864 -19.1999
39 11 14 1.8956 0.1865
39 11 16 17.5976 15.8881
39 11 18 2.5581 8.1952
39 11 20 12.1770 9.5074
39 11 22 3.2409 1.7605
39 11 24 13.1096 7.6668
39 11 26 -24.8567 -6.5755
39 11 28 1.5328 -24.8351
39 12 1 -19.0888 16.2043
39 12 3 9.9942 16.6708
39 12 5 11.7402 19.9219
39 12 7 -11.9414 7.9135
39 12 9 9.8529 0.0806
39 12 11 -19.5382 -8.4511
39 12 13 -3.6214 13.6716
39 12 15 6.1547 -10.9516
39 12 17 -7.9915 11.2786
39 12 19 14.2799 -6.8153
39 12 21 -7.5683 0.1083
39 12 23 8.5139 -4.2243
39 12 25 14.2590 -22.0564
39 12 27 -13.7000 -12.4662
39 13 0 17.0763 0.6283
39 13 2 -4.7635 26.5473
39 13 4 4.9696 5.1036
39 13 6 -1.3322 -12.5997
39 13 8 -5.9435 -2.6247
39 13 10 -5.9652 2.1607
39 13 12 -13.1213 -6.9275
39 13 14 0.1824 -10.8064
39 13 16 -16.1214 5.3359
39 13 18 -9.0147 1.6299
39 13 20 18.6971 -5.3077
39 13 22 -2.7803 16.5222
39 13 24 11.8325 -3.1228
39 13 26 -1.0335 -14.9946
39 14 1 11.1004 -12.4115
39 14 3 -21.6192 11.0768
39 14 5 -4.4124 -4.2372
39 14 7 -5.6644 -21.0943
39 14 9 -4.4466 -0.3386
39 14 11 -1.6834 13.4832
39 14 13 -9.0048 0.8536
39 14 15 1.7536 7.5823
39 14 17 16.1506 7.2294
39 14 19 5.6333 -12.7657
39 14 21 -2.0705 26.5186
39 14 23 10.6643 -2.0982
39 14 25 -3.1265 3.8019
39 14 27 0.2669 15.4929
39 15 0 9.5747 0.4684
39 15 2 -7.5827 12.7910
39 15 4 6.8588 -7.4088
39 15 6 19.2224 3.5357
39 15 8 9.2599 -19.0605
39 15 10 14.4245 3.6105
39 15 12 -4.5785 -0.1945
39 15 14 2.9294 21.6610
39 15 16 -3.8628 9.9028
39 15 18 8.8626 9.0841
39 15 20 1.4240 -13.1768
39 15 22 5.1259 -10.9196
39 15 24 -2.1820 2.2387
39 15 26 -21.6995 -3.4980
39 16 1 15.6633 -15.0398
39 16 3 -2.5145 20.8174
39 16 5 4.7764 -3.2548
39 16 7 6.7362 -27.0184
39 16 9 -2.1191 8.1839
39 16 11 7.4327 2.6421
39 16 13 12.7707 -2.6894
39 16 15 14.2187 -2.1672
39 16 17 3.9629 -20.2196
39 16 19 11.9454 0.0602
39 16 21 19.2490 9.6900
39 16 23 4.0420 7.5335
39 16 25 -15.3961 -0.1642
39 17 0 16.1061 0.3840
39 17 2 0.5747 -5.1457
39 17 4 5.0520 1.5767
39 17 6 -3.9702 18.6531
39 17 8 0.7180 9.3247
39 17 10 4.0971 30.6589
39 17 12 -17.0399 3.4973
39 17 14 -0.2013 -3.9209
39 17 16 -6.4826 -6.8328
39 17 18 1.1634 12.6463
39 17 20 -28.4162 -9.2160
39 17 22 10.7491 4.0421
39 17 24 8.7162 8.0987
39 18 1 1.1828 -6.6830
39 18 3 -10.7293 -16.7192
39 18 5 -23.3310 3.6328
39 18 7 -7.6205 9.3817
39 18 9 7.8131 -4.9521
39 18 11 10.6195 4.3940
39 18 13 0.0045 -8.0195
39 18 15 9.7170 10.3695
39 18 17 9.6129 -14.2150
39 18 19 12.3035 -6.6191
39 18 21 -6.7011 -1.3201
39 18 23 -2.7594 -11.8091
39 18 25 -11.4329 -0.1912
39 19 0 -20.1371 0.3020
39 19 2 -0.1284 0.5232
39 19 4 -18.2136 0.5922
39 19 6 -5.6495 35.4855
39 19 8 3.1402 -14.6107
39 19 10 2.0479 -15.1407
39 19 12 -9.8259 -3.6409
39 19 14 -2.1836 9.8354
39 19 16 0.1942 2.2566
39 19 18 1.4207 -10.3316
39 19 20 -12.2707 -5.2561
39 19 22 -16.9206 4.0318
39 19 24 2.6604 0.6243
39 20 1 -1.5674 12.7325
39 20 3 2.4777 1.3656
39 20 5 -8.5863 16.6848
39 20 7 35.4931 -7.8621
39 20 9 -7.9299 11.0065
39 20 11 14.8805 2.9403
39 20 13 16.1787 1.3720
39 20 15 8.0638 2.9661
39 20 17 -3.4622 1.7467
39 20 19 -2.1180 0.9501
39 20 21 11.4573 11.4511
39 20 23 -2.7486 12.4811
39 21 0 3.1574 0.2537
39 21 2 4.3902 -25.8155
39 21 4 -4.2185 12.1567
39 21 6 15.4478 22.5633
39 21 8 -15.3096 6.0504
39 21 10 -11.9832 14.0294
39 21 12 15.2738 6.2833
39 21 14 2.6906 2.6164
39 21 16 1.6457 6.0368
39 21 18 -1.4462 3.2873
39 21 20 -13.5243 -10.4248
39 21 22 -9.4987 9.5216
39 22 1 -8.2658 2.0559
39 22 3 0.3279 19.5373
39 22 5 -13.8694 2.3107
39 22 7 12.0362 -5.2341
39 22 9 10.6828 2.5921
39 22 11 15.1282 -1.6220
39 22 13 2.3160 -6.8059
39 22 15 22.1135 -10.5878
39 22 17 18.8337 -0.7081
39 22 19 -19.1395 -8.6028
39 22 21 -7.0087 -5.6412
39 23 0 0.3590 0.3038
39 23 2 4.7259 0.5470
39 23 4 13.6420 -4.1837
39 23 6 10.8312 10.2897
39 23 8 -2.3485 4.2582
39 23 10 -6.2304 -9.6444
39 23 12 18.0864 -3.3075
39 23 14 0.3859 -18.1712
39 23 16 3.7465 9.8501
39 23 18 -1.7719 9.5337
39 23 20 0.7781 -16.6973
39 24 1 0.8176 2.7973
39 24 3 3.9147 6.0882
39 24 5 -3.9268 3.7983
39 24 7 0.3376 -4.3733
39 24 9 5.9780 -0.3299
39 24 11 1.5745 -5.1312
39 24 13 24.2921 12.1426
39 24 15 -22.4537 2.9709
39 24 17 -6.2747 -5.9707
39 24 19 6.9072 -2.8511
39 24 21 -6.3244 -21.3713
39 25 0 -5.3124 0.3445
39 25 2 5.2892 -20.8697
39 25 4 -25.6034 6.9420
39 25 6 -6.1382 0.6367
39 25 8 28.6543 -24.1542
39 25 10 -9.3353 -20.5486
39 25 12 6.9567 5.6551
39 25 14 18.4915 -0.9493
39 25 16 -3.6294 0.7593
39 25 18 25.8737 -5.6214
39 25 20 -1.7662 14.3106
39 26 1 14.7351 3.6559
39 26 3 15.1536 -8.6505
39 26 5 -10.0171 16.9951
39 26 7 1.3102 -7.3843
39 26 9 -5.5408 21.9415
39 26 11 -14.5030 5.4865
39 26 13 4.6443 -16.3203
39 26 15 -4.8841 16.8480
39 26 17 -3.3852 -5.7280
39 26 19 6.3521 -1.5591
39 27 0 -16.5714 0.3242
39 27 2 15.4285 17.1706
39 27 4 -12.0464 -20.8384
39 27 6 -12.8889 -23.3082
39 27 8 -15.8808 -0.3101
39 27 10 13.4125 -7.8555
39 27 12 13.4687 -15.2226
39 27 14 -0.1487 -7.6219
39 27 16 -2.6256 8.5578
39 28 1 7.5706 -15.8403
39 28 3 1.9777 -13.2562
39 28 5 10.4119 0.6109
39 28 7 -1.7079 0.1319
39 28 9 -0.0981 -11.1601
39 28 11 1.0760 4.2177
39 28 13 -24.6443 4.9487
39 28 15 -17.8736 5.1222
39 29 0 -8.9165 0.2146
39 29 2 2.3652 0.1475
39 29 4 -5.8101 -29.7559
39 29 6 -26.7209 -0.5523
39 29 8 -7.9294 -14.4755
39 29 10 -4.9751 2.1986
39 29 12 -22.5434 8.5132
39 29 14 5.3328 -0.4668
39 30 1 3.2640 -4.5649
39 30 3 7.2656 4.7034
39 30 5 -10.5972 -4.8573
39 30 7 5.6131 -18.8905
39 30 9 -18.3165 12.1455
39 30 11 -7.4045 11.4143
39 30 13 14.2502 18.2686
39 31 0 11.9390 0.1045
39 31 2 3.6788 -3.5865
39 31 4 8.2063 -22.3869
39 31 6 -1.7146 0.5263
39 31 8 -9.1311 -1.8398
39 31 10 -6.3034 -4.2638
39 32 1 11.8471 -6.9666
39 32 3 -10.5420 -13.7207
39 32 5 -11.0810 -5.2738
39 32 7 -3.4383 -1.1467
39 32 9 13.3063 -3.0079
39 33 0 2.2143 -0.0818
39 33 2 13.0578 -0.4146
39 33 4 3.7189 12.6248
39 33 6 0.9382 4.3221
40 0 0 4.3030 -2.0446
40 0 2 -0.5583 -62.8464
40 0 4 19.6145 -1.3958
40 0 6 -0.6305 -50.8815
40 0 8 -19.7411 -0.0160
40 0 10 -0.2917 -20.5566
40 0 12 -1.7474 -0.1984
40 0 14 -0.1995 -14.7910
40 0 16 -8.2068 0.5106
40 0 18 -0.0343 -21.8418
40 0 20 -2.6454 0.2867
40 0 22 -0.1576 -28.9045
40 0 24 34.3318 0.0462
40 0 26 -0.1024 6.4453
40 0 28 -19.9396 0.2143
40 1 1 7.2776 -13.5059
40 1 3 3.0705 26.0975
40 1 5 20.1461 1.4448
40 1 7 2.4212 -44.5757
40 1 9 -7.0266 18.6901
40 1 11 16.2469 8.0946
40 1 13 -5.2283 0.6139
40 1 15 0.8322 2.4944
40 1 17 26.1435 -1.3667
40 1 19 -2.8798 -9.3573
40 1 21 -7.9554 -16.1558
40 1 23 13.3323 14.4815
40 1 25 16.5017 -13.8085
40 1 27 4.0093 0.5219
40 2 0 6.9989 -2.0654
40 2 2 24.8745 -32.5973
40 2 4 -37.1012 30.7468
40 2 6 -25.6225 -20.6774
40 2 8 -12.9183 7.7489
40 2 10 15.4549 5.9429
40 2 12 3.2241 -5.7005
40 2 14 5.4777 -10.1205
40 2 16 6.5835 9.7430
40 2 18 -5.5043 20.2569
40 2 20 -4.4011 2.6394
40 2 22 1.5874 4.7306
40 2 24 7.6247 -10.5043
40 2 26 1.7090 5.9891
40 2 28 -7.9115 18.3407
40 3 1 27.4197 -6.9643
40 3 3 5.9510 3.1754
40 3 5 -6.0471 -0.6376
40 3 7 -20.8966 -3.4863
40 3 9 2.6952 4.8357
40 3 11 5.6543 -8.6000
40 3 13 5.7762 4.2240
40 3 15 -15.8937 11.1247
40 3 17 -11.8200 -13.9401
40 3 19 -1.1554 7.1387
40 3 21 0.3036 5.8301
40 3 23 1.5243 -1.7279
40 3 25 18.2916 -12.1978
40 3 27 3.3788 0.8090
40 4 0 4.3763 -1.5732
40 4 2 -1.9318 -13.3657
40 4 4 -25.1536 4.9379
40 4 6 -5.5982 -4.5810
40 4 8 14.9884 14.7308
40 4 10 8.9936 -6.3868
40 4 12 -6.3437 -4.9690
40 4 14 7.3664 -6.4511
40 4 16 0.5693 10.2918
40 4 18 -0.5417 16.6469
40 4 20 2.5367 1.7089
40 4 22 -3.8332 -9.0169
40 4 24 8.7477 12.8953
40 4 26 -25.9318 -3.9490
40 4 28 -17.1465 12.8092
40 5 1 -7.2084 -4.2587
40 5 3 -3.7740 -16.9576
40 5 5 -5.3197 -4.7053
40 5 7 3.7648 19.1499
40 5 9 -4.2283 -17.3324
40 5 11 -0.7586 -2.3874
40 5 13 -3.4611 -0.7397
40 5 15 1.8190 4.7583
40 5 17 -6.6406 11.7162
40 5 19 -6.3396 -8.0464
40 5 21 2.4478 -3.3587
40 5 23 -5.9155 11.0930
40 5 25 5.2181 -15.1250
40 5 27 -0.3714 19.1737
40 6 0 16.0772 -1.3072
40 6 2 -21.3478 -0.5948
40 6 4 1.5802 2.1581
40 6 6 3.4991 12.1417
40 6 8 13.2901 13.2858
40 6 10 -0.0348 -8.4274
40 6 12 -0.2755 -4.0253
40 6 14 -4.6404 -14.8975
40 6 16 7.8364 3.4596
40 6 18 2.1639 2.5365
40 6 20 0.8742 -8.2114
40 6 22 1.5004 -24.4846
40 6 24 -3.4206 -5.0274
40 6 26 -15.3923 0.0263
40 6 28 9.1565 0.0765
40 7 1 -1.2179 -2.7698
40 7 3 4.4797 -18.1107
40 7 5 5.5688 5.5959
40 7 7 12.4473 24.5394
40 7 9 -8.8043 -16.4605
40 7 11 10.3730 -0.8168
40 7 13 -11.8564 -13.1651
40 7 15 7.3661 -16.2829
40 7 17 -14.5633 -12.6142
40 7 19 1.8861 -7.2840
40 7 21 0.1873 -7.0451
40 7 23 4.1280 -3.4130
40 7 25 14.7477 -7.0723
40 7 27 -1.8177 -10.3061
40 8 0 12.3768 -0.8592
40 8 2 -2.8601 1.6324
40 8 4 -9.9633 9.0733
40 8 6 -0.3618 2.4042
40 8 8 -0.5490 7.5772
40 8 10 -5.9302 -6.0144
40 8 12 -11.0139 2.4707
40 8 14 -0.7569 5.2212
40 8 16 1.2546 -3.8436
40 8 18 -11.2982 -6.8744
40 8 20 -1.9289 4.5459
40 8 22 -4.1922 -11.8936
40 8 24 8.5520 14.0842
40 8 26 10.2536 -19.0319
40 8 28 -6.9538 -12.2869
40 9 1 -7.8504 -5.0831
40 9 3 -1.0156 7.5030
40 9 5 -1.7636 26.9145
40 9 7 3.0488 -4.9314
40 9 9 17.7219 3.8236
40 9 11 -14.7554 0.8933
40 9 13 -25.8902 -0.4726
40 9 15 0.2935 -12.3222
40 9 17 -7.8905 -4.4984
40 9 19 -16.0099 11.7263
40 9 21 14.6644 -11.4549
40 9 23 4.9889 -2.6469
40 9 25 17.4894 -6.6857
40 9 27 -5.7183 17.9960
40 10 0 8.9550 -0.3583
40 10 2 -0.3561 -24.0416
40 10 4 -9.0918 -5.9489
40 10 6 -7.0685 -5.8608
40 10 8 -1.3220 4.6709
40 10 10 12.9600 7.1331
40 10 12 -3.1956 -3.3083
40 10 14 12.8373 -3.3225
40 10 16 3.2911 -7.9033
40 10 18 11.3373 -11.7745
40 10 20 3.4113 12.4491
40 10 22 1.2885 2.6001
40 10 24 -9.6328 -26.5832
40 10 26 4.8780 -22.6077
40 11 1 -2.3486 5.9507
40 11 3 9.2807 -6.9962
40 11 5 15.1125 5.4761
40 11 7 -7.3371 -5.2471
40 11 9 7.9777 -11.5964
40 11 11 -1.7193 2.9804
40 11 13 -5.0313 17.0816
40 11 15 12.9886 14.6059
40 11 17 15.5587 -22.7630
40 11 19 -2.5829 5.8569
40 11 21 4.2701 -5.9470
40 11 23 -20.5061 -4.4395
40 11 25 -9.1355 5.7816
40 11 27 -2.0862 22.1257
40 12 0 14.6958 -0.2545
40 12 2 -2.4044 -29.2453
40 12 4 -11.9243 -15.6720
40 12 6 9.8650 -0.1117
40 12 8 0.5044 -7.1202
40 12 10 2.7637 6.0500
40 12 12 3.6768 3.2398
40 12 14 5.5556 -0.1792
40 12 16 11.5036 8.3459
40 12 18 -10.1376 25.0061
40 12 20 4.2471 -2.3790
40 12 22 8.9883 -16.5092
40 12 24 -9.3256 -2.5975
40 12 26 13.9080 -13.5169
40 13 1 1.7474 -21.5678
40 13 3 1.9548 10.8444
40 13 5 -6.3399 -20.8504
40 13 7 -0.3589 -3.6765
40 13 9 -41.1791 -5.5433
40 13 11 1.8570 3.7809
40 13 13 3.5861 -6.4021
40 13 15 -10.6143 -4.7869
40 13 17 6.2731 -13.4307
40 13 19 11.0739 -5.6993
40 13 21 13.1098 -2.2633
40 13 23 14.7033 -5.5143
40 13 25 -9.9559 -12.1722
40 14 0 6.1532 -0.2566
40 14 2 -21.6143 -7.5739
40 14 4 -4.9270 2.4813
40 14 6 13.2307 13.7838
40 14 8 -7.0788 2.5121
40 14 10 -7.5154 3.8380
40 14 12 22.8955 10.6197
40 14 14 0.3030 -7.7981
40 14 16 20.8698 -12.5528
40 14 18 4.7538 -12.1859
40 14 20 -19.3558 1.9143
40 14 22 5.4168 0.4035
40 14 24 -6.1474 -2.2575
40 14 26 -17.0129 9.5894
40 15 1 10.2069 30.8915
40 15 3 -13.5839 31.7719
40 15 5 16.0989 -17.7982
40 15 7 5.1670 3.6070
40 15 9 -0.5269 0.8585
40 15 11 10.3684 -1.1033
40 15 13 19.4884 4.6574
40 15 15 -5.8550 6.9657
40 15 17 1.6595 -15.3613
40 15 19 -10.8882 -15.3565
40 15 21 5.5266 -2.8640
40 15 23 -15.2951 13.2859
40 15 25 -1.7441 4.8959
40 16 0 1.7886 -0.4204
40 16 2 11.3082 8.1197
40 16 4 35.3342 14.5242
40 16 6 -4.0420 22.0795
40 16 8 13.3022 15.0385
40 16 10 3.7204 8.2663
40 16 12 22.0219 -2.6216
40 16 14 -8.3252 -1.9704
40 16 16 10.1134 7.1549
40 16 18 0.0969 -11.2980
40 16 20 -0.1449 17.2050
40 16 22 4.6239 7.8018
40 16 24 -11.2149 -1.3057
40 17 1 -8.8499 -17.4213
40 17 3 5.1423 16.5145
40 17 5 -12.9443 26.3986
40 17 7 10.4494 -16.3357
40 17 9 6.7424 -6.0773
40 17 11 4.3473 -4.0517
40 17 13 7.7941 -2.2153
40 17 15 4.6958 9.2674
40 17 17 19.3092 4.3415
40 17 19 12.7233 9.8493
40 17 21 -8.9908 -7.2542
40 17 23 3.1358 -14.8422
40 18 0 -4.8094 -0.4523
40 18 2 5.7491 2.3583
40 18 4 16.8151 10.9232
40 18 6 -1.1231 5.7300
40 18 8 6.4743 -6.6207
40 18 10 9.1440 4.1911
40 18 12 -11.0527 -1.4193
40 18 14 17.1028 -15.1976
40 18 16 -12.0214 -8.0339
40 18 18 -26.9545 -9.6966
40 18 20 -1.6466 17.8255
40 18 22 -22.2284 7.5261
40 18 24 -1.4185 -1.7079
40 19 1 2.5484 22.1507
40 19 3 -1.6410 1.4408
40 19 5 8.5397 -18.7328
40 19 7 -4.2170 -9.2923
40 19 9 -14.0539 -19.8283
40 19 11 -14.7934 -12.9243
40 19 13 10.2043 11.2146
40 19 15 0.5247 21.9675
40 19 17 2.8216 -8.2323
40 19 19 -7.2281 -25.0764
40 19 21 3.8657 1.6955
40 19 23 3.2286 -0.0222
40 20 0 -5.3763 -0.4465
40 20 2 19.1158 3.4608
40 20 4 -10.9094 4.7393
40 20 6 3.4394 5.5024
40 20 8 5.9099 2.8104
40 20 10 7.2161 -29.2143
40 20 12 3.0120 -2.0593
40 20 14 5.9867 -7.2241
40 20 16 3.7690 -5.5516
40 20 18 13.5172 -11.4451
40 20 20 -3.7202 20.2589
40 20 22 -9.4921 8.7980
40 21 1 1.1761 -12.9682
40 21 3 9.3367 -0.6682
40 21 5 -12.1030 0.6492
40 21 7 0.9102 -13.2244
40 21 9 6.6799 -4.5138
40 21 11 -11.6663 11.6137
40 21 13 -7.6173 -7.5012
40 21 15 -19.0597 24.8489
40 21 17 0.6513 24.9418
40 21 19 10.2180 8.0813
40 21 21 2.0080 -13.5177
40 22 0 -13.5267 -0.3010
40 22 2 6.6370 -0.9311
40 22 4 -0.7069 13.2170
40 22 6 2.0719 -3.1409
40 22 8 8.5181 -11.7063
40 22 10 -20.4937 5.5415
40 22 12 4.6501 -4.4281
40 22 14 -5.0310 -5.1141
40 22 16 2.3841 7.9954
40 22 18 -10.9806 8.5222
40 22 20 -4.0814 -8.9681
40 23 1 -9.2493 -5.0427
40 23 3 6.8433 -13.2903
40 23 5 -21.4409 9.8367
40 23 7 -3.2190 -4.9925
40 23 9 9.4648 -2.1654
40 23 11 -11.4154 16.2583
40 23 13 18.4023 -8.9834
40 23 15 -1.7068 1.2985
40 23 17 -2.2918 0.2579
40 23 19 -6.7024 -22.0677
40 24 0 2.9999 -0.1775
40 24 2 4.0815 27.5627
40 24 4 -12.6586 7.1111
40 24 6 -18.3918 -1.4490
40 24 8 6.0523 -11.7479
40 24 10 -12.1020 7.6615
40 24 12 -1.6873 7.0254
40 24 14 -14.4694 -9.7228
40 24 16 -13.6022 18.2328
40 24 18 -11.4430 9.7621
40 25 1 -17.1797 2.4844
40 25 3 14.7856 6.6216
40 25 5 8.3551 -1.4096
40 25 7 7.1874 -16.6211
40 25 9 -12.1069 16.3767
40 25 11 21.3357 -3.6003
40 25 13 -13.3129 -7.1299
40 25 15 3.4136 9.5606
40 25 17 9.9429 4.7564
40 26 0 11.2561 -0.0361
40 26 2 -35.4691 -35.7297
40 26 4 4.2331 11.3962
40 26 6 25.8183 5.3656
40 26 8 -6.8282 -15.7609
40 26 10 -12.6369 -1.5442
40 26 12 0.9893 -28.0974
40 26 14 2.8114 -7.5930
40 26 16 17.8719 24.5073
40 27 1 -4.5025 11.1723
40 27 3 -1.9570 -9.0439
40 27 5 -8.6118 15.2625
40 27 7 -5.3456 -6.4010
40 27 9 4.6237 -14.4583
40 27 11 -0.1495 27.6141
40 27 13 -14.2485 -0.9272
40 27 15 -4.9677 -14.7515
40 28 0 22.1159 0.0525
40 28 2 -6.5992 39.9945
40 28 4 -13.1307 -7.6265
40 28 6 -5.4003 -8.3110
40 28 8 -1.7973 -15.4776
40 28 10 2.3329 18.2227
40 28 12 -2.8681 1.2371
40 28 14 4.7573 -11.8547
40 29 1 3.5484 5.1669
40 29 3 -6.1681 0.1874
40 29 5 6.3866 -10.8559
40 29 7 1.6641 9.1596
40 29 9 -4.3875 7.0101
40 29 11 -4.5534 22.7299
40 29 13 -14.1159 -17.4958
40 30 0 30.9995 -0.0737
40 30 2 2.4289 -41.9231
40 30 4 -8.3840 -4.4695
40 30 6 -20.4926 0.6377
40 30 8 -7.8274 2.2512
40 30 10 -1.6954 -1.1810
40 31 1 -1.3003 8.5716
40 31 3 -0.0729 10.1816
40 31 5 7.6108 21.9417
40 31 7 -10.1848 3.8497
40 32 0 -15.1638 -0.2864
40 32 2 4.6083 21.5336
40 32 4 -4.5447 -19.6962
41 0 1 -9.1097 -9.0859
41 0 3 -2.4895 1.3302
41 0 5 9.8103 9.9090
41 0 7 11.2156 -12.0127
41 0 9 20.7764 20.1810
41 0 11 4.0984 -5.4837
41 0 13 -3.4696 -2.5314
41 0 15 -6.0414 4.6962
41 0 17 3.7995 4.5403
41 0 19 -2.0016 1.9742
41 0 21 -6.0584 -5.9835
41 0 23 -8.1063 8.3528
41 0 25 6.6355 6.6142
41 0 27 -20.7772 20.8414
41 1 0 77.7312 -0.0390
41 1 2 -6.5378 -8.7633
41 1 4 -44.0200 29.9013
41 1 6 -16.0085 8.6216
41 1 8 40.3657 -48.7310
41 1 10 -17.5678 1.8980
41 1 12 -2.5028 -19.7342
41 1 14 -9.1142 -1.7057
41 1 16 -17.7527 11.7690
41 1 18 1.5786 0.9001
41 1 20 19.0877 6.6986
41 1 22 12.4310 7.4599
41 1 24 -26.1346 3.2369
41 1 26 1.8450 -2.2294
41 2 1 -5.0727 13.3749
41 2 3 6.4584 6.9052
41 2 5 -11.7662 26.0878
41 2 7 -3.8029 -13.4567
41 2 9 31.2995 7.4439
41 2 11 -7.0675 -11.8155
41 2 13 -6.0322 -5.5500
41 2 15 7.9044 2.6234
41 2 17 -4.8145 -1.2849
41 2 19 6.0056 17.9463
41 2 21 1.0179 3.7999
41 2 23 -13.6201 -24.4462
41 2 25 -12.0645 21.9337
41 2 27 -6.4701 14.7948
41 3 0 -37.2570 0.0998
41 3 2 -6.5081 0.1232
41 3 4 -0.0348 21.3996
41 3 6 -6.1082 -0.8801
41 3 8 10.7258 3.0933
41 3 10 -0.6628 7.1695
41 3 12 -3.1235 -12.7339
41 3 14 -3.9793 7.7622
41 3 16 -0.5431 1.4569
41 3 18 6.3530 -1.3383
41 3 20 -2.1440 15.8142
41 3 22 -1.1609 -9.5104
41 3 24 -11.8061 -19.5715
41 3 26 -7.5609 12.0501
41 4 1 22.6580 6.9833
41 4 3 -1.8343 0.4615
41 4 5 1.6844 -2.2891
41 4 7 5.9412 -3.8728
41 4 9 4.7245 -4.6164
41 4 11 -4.5649 -6.8384
41 4 13 -4.7639 21.1411
41 4 15 6.1719 6.6388
41 4 17 11.8056 12.9786
41 4 19 1.6440 -5.6854
41 4 21 1.2772 -8.2360
41 4 23 5.2992 9.8917
41 4 25 -8.8390 -5.2959
41 4 27 -4.2699 -12.9971
41 5 0 28.6646 0.2401
41 5 2 13.2747 -20.3577
41 5 4 -8.7501 -9.1405
41 5 6 -12.3152 -14.3206
41 5 8 2.6937 15.5586
41 5 10 2.4906 -6.7035
41 5 12 -2.9330 -4.3996
41 5 14 -0.2260 9.0010
41 5 16 -2.1057 -3.4965
41 5 18 -4.1168 -1.8924
41 5 20 -3.6207 -5.2761
41 5 22 1.1778 -8.3830
41 5 24 -2.0465 -15.7997
41 5 26 -8.3537 -9.6737
41 6 1 1.2442 -4.2872
41 6 3 -2.1867 9.7371
41 6 5 -7.1997 -5.9919
41 6 7 8.4188 -14.7164
41 6 9 -0.8732 -1.2273
41 6 11 -3.9648 9.1913
41 6 13 -11.0154 -5.4540
41 6 15 10.3590 4.9185
41 6 17 -4.4190 -6.6870
41 6 19 -1.3256 -5.5809
41 6 21 -6.8498 -7.3901
41 6 23 12.0587 -13.2592
41 6 25 3.9430 14.8962
41 6 27 -13.1072 -5.4253
41 7 0 5.5958 0.2313
41 7 2 -4.0983 -3.9262
41 7 4 3.0082 -11.9238
41 7 6 -6.2018 -11.8409
41 7 8 4.1458 -17.9996
41 7 10 -0.7747 -0.7143
41 7 12 -5.4979 3.9649
41 7 14 -3.8591 6.7114
41 7 16 3.3639 7.9475
41 7 18 -3.4132 -7.3308
41 7 20 0.3285 12.3983
41 7 22 4.7075 8.2759
41 7 24 8.0116 -17.8080
41 7 26 -3.5213 -19.3002
41 8 1 0.6784 -7.6414
41 8 3 8.7356 2.8287
41 8 5 -6.5086 1.0588
41 8 7 -15.4592 -13.2319
41 8 9 -14.6801 6.7610
41 8 11 -15.7021 -3.8607
41 8 13 -10.1525 2.5648
41 8 15 8.3555 16.9790
41 8 17 2.2021 1.1024
41 8 19 1.5367 -11.6359
41 8 21 -2.2586 -12.1408
41 8 23 18.4377 -15.8116
41 8 25 14.9010 -11.3720
41 9 0 -8.7990 0.2843
41 9 2 -1.5062 3.7768
41 9 4 -2.1048 20.3986
41 9 6 4.7464 -6.9011
41 9 8 12.4957 -20.8800
41 9 10 -0.6288 1.3914
41 9 12 -17.8559 1.5995
41 9 14 3.1121 0.9104
41 9 16 13.1153 6.3877
41 9 18 10.3780 -1.0995
41 9 20 -2.7145 -5.4562
41 9 22 -10.5505 -2.3308
41 9 24 -2.9555 -4.4991
41 9 26 -7.0060 11.2242
41 10 1 10.3467 3.7944
41 10 3 15.6496 -2.0071
41 10 5 -5.1552 3.1354
41 10 7 -6.4996 -31.1934
41 10 9 -6.8851 4.5684
41 10 11 -17.1161 5.6972
41 10 13 12.8084 -13.0796
41 10 15 17.6336 -12.0075
41 10 17 3.2528 22.6448
41 10 19 5.0344 13.3070
41 10 21 -8.5611 3.9981
41 10 23 -4.2982 -5.0850
41 10 25 -22.9875 2.8847
41 11 0 12.7162 0.3043
41 11 2 -11.9135 -18.2513
41 11 4 -4.5685 12.2283
41 11 6 8.6961 -0.5851
41 11 8 1.7573 -15.4174
41 11 10 3.0892 -0.7892
41 11 12 9.6054 -12.0161
41 11 14 -0.0563 8.3725
41 11 16 15.1569 -2.5313
41 11 18 -2.0292 3.2621
41 11 20 -6.2713 -13.8844
41 11 22 12.1840 2.9212
41 11 24 12.5980 -15.5397
41 11 26 8.7708 -1.6211
41 12 1 9.2391 18.8264
41 12 3 -8.7798 -13.9008
41 12 5 -6.6941 6.3222
41 12 7 2.4018 -37.0144
41 12 9 6.1215 -4.7245
41 12 11 -4.4607 -1.8583
41 12 13 -10.5538 -15.7373
41 12 15 -6.5579 3.5292
41 12 17 9.8392 9.4229
41 12 19 -5.8285 9.0838
41 12 21 -13.0327 -18.9987
41 12 23 -2.0533 10.4818
41 12 25 -22.2738 1.1027
41 13 0 -16.5589 0.2084
41 13 2 6.5408 8.1437
41 13 4 -7.2930 2.8871
41 13 6 10.7659 7.6397
41 13 8 2.6084 -6.8974
41 13 10 15.0133 -0.4216
41 13 12 8.5284 -0.6973
41 13 14 -17.1910 -8.1352
41 13 16 -10.1468 13.3117
41 13 18 0.5911 12.0283
41 13 20 7.2354 -17.9197
41 13 22 9.1520 3.9960
41 13 24 10.0501 20.2840
41 14 1 10.7835 -26.5034
41 14 3 29.4284 24.7944
41 14 5 0.3254 8.6367
41 14 7 2.1640 14.4036
41 14 9 -1.5809 5.9370
41 14 11 22.7799 -9.9958
41 14 13 3.1636 11.6615
41 14 15 -4.6813 8.0013
41 14 17 -18.3035 4.9699
41 14 19 5.5560 -12.1486
41 14 21 -6.1997 3.4178
41 14 23 8.7151 5.5572
41 15 0 -7.8963 0.0966
41 15 2 18.6511 4.0979
41 15 4 -22.7456 -12.2711
41 15 6 -0.8777 7.4142
41 15 8 8.0469 -9.6767
41 15 10 12.4296 -4.1669
41 15 12 -7.5298 -14.9883
41 15 14 26.3205 17.0406
41 15 16 -17.2196 7.8276
41 15 18 -16.1175 -1.7672
41 15 20 9.2652 10.1205
41 15 22 -3.9086 -18.7970
41 15 24 -1.9805 -26.5854
41 16 1 -7.1517 -9.0882
41 16 3 42.9752 -5.3368
41 16 5 -15.7168 -1.2068
41 16 7 -21.1732 6.7037
41 16 9 0.4929 11.5816
41 16 11 -16.4449 13.9483
41 16 13 -0.8758 0.8737
41 16 15 12.1511 -9.0468
41 16 17 -5.5528 2.2171
41 16 19 -16.9758 1.0682
41 16 21 12.8432 -21.3754
41 16 23 1.2172 -4.7147
41 17 0 -2.2087 0.0743
41 17 2 0.3857 5.4499
41 17 4 -10.3930 -30.3329
41 17 6 -1.2095 -5.1141
41 17 8 0.9161 3.4849
41 17 10 -7.3414 -3.8880
41 17 12 5.1358 8.7308
41 17 14 6.9812 2.6059
41 17 16 14.2131 -6.9104
41 17 18 -1.0946 13.1521
41 17 20 19.3873 -3.3729
41 17 22 -19.2891 0.3477
41 18 1 -12.7982 7.2438
41 18 3 -9.5398 -1.2025
41 18 5 6.8506 -6.5223
41 18 7 -5.9184 -17.9555
41 18 9 6.6327 2.2981
41 18 11 5.4643 2.7350
41 18 13 4.9430 8.0342
41 18 15 6.8333 -14.7466
41 18 17 -11.5844 -2.6240
41 18 19 7.4569 -2.3228
41 18 21 -5.8411 -7.9550
41 19 0 26.4043 0.0514
41 19 2 3.3357 -0.9315
41 19 4 21.0291 5.0395
41 19 6 -4.4889 0.1407
41 19 8 -1.2910 -8.7636
41 19 10 14.1694 11.0557
41 19 12 -11.4383 19.5749
41 19 14 -1.9242 -16.9619
41 19 16 2.5426 -5.6953
41 19 18 -6.7534 11.9819
41 19 20 1.7642 4.2289
41 19 22 -3.8174 -15.3594
41 20 1 2.9183 3.0440
41 20 3 4.5393 17.7333
41 20 5 2.7459 -7.2722
41 20 7 4.4046 -0.5308
41 20 9 22.7953 -2.6208
41 20 11 3.2007 -1.1945
41 20 13 -0.6880 -4.3713
41 20 15 3.1018 8.6951
41 20 17 -12.6498 14.8646
41 20 19 0.4095 -0.5379
41 20 21 -0.9368 -3.3208
41 21 0 -19.7388 0.0945
41 21 2 17.0075 3.0855
41 21 4 -8.4669 2.3086
41 21 6 8.9852 26.6527
41 21 8 4.7836 24.0025
41 21 10 5.3861 -8.6008
41 21 12 -0.1205 -11.0077
41 21 14 -5.6039 6.6484
41 21 16 -4.9911 -2.2764
41 21 18 -6.2728 7.4929
41 21 20 -6.9634 -3.1830
41 22 1 -8.1091 1.8300
41 22 3 4.6139 14.5116
41 22 5 -11.7678 -4.6889
41 22 7 -1.2914 -5.3095
41 22 9 8.1994 -2.1065
41 22 11 6.5472 -4.4319
41 22 13 -7.0907 11.5205
41 22 15 -4.6396 17.6771
41 22 17 6.0378 0.6956
41 22 19 -12.6384 13.9759
41 23 0 -7.9582 0.1611
41 23 2 5.0736 -8.8030
41 23 4 -6.1304 -19.9324
41 23 6 -11.4446 0.7835
41 23 8 18.2896 1.0130
41 23 10 13.5718 -10.4089
41 23 12 2.8547 -7.1030
41 23 14 20.1889 4.3063
41 23 16 -15.9564 -14.2073
41 23 18 -14.8395 16.2282
41 24 1 12.9461 5.2894
41 24 3 -3.3686 18.7853
41 24 5 -3.6884 -5.4686
41 24 7 -2.4626 -3.2130
41 24 9 4.7098 3.8848
41 24 11 -8.2983 7.7907
41 24 13 -15.2782 12.5506
41 24 15 -16.1697 1.1724
41 24 17 -9.4353 15.8391
41 25 0 -17.8399 0.2575
41 25 2 -6.6384 19.7406
41 25 4 -18.3268 22.9384
41 25 6 -13.2191 0.5179
41 25 8 1.3428 -10.9366
41 25 10 26.2218 1.0028
41 25 12 -23.1097 0.7974
41 25 14 -28.8883 7.1755
41 25 16 13.0987 -0.2388
41 26 1 8.7869 9.9952
41 26 3 -10.0303 5.1844
41 26 5 -21.4829 0.8518
41 26 7 10.2660 -15.5096
41 26 9 8.7331 4.6854
41 26 11 -4.5800 18.2675
41 26 13 0.9267 -5.7268
41 26 15 7.3310 -20.0460
41 27 0 -21.7645 0.2872
41 27 2 -3.5010 -1.7853
41 27 4 -28.2487 -4.0283
41 27 6 10.2407 9.3177
41 27 8 22.6299 16.3181
41 27 10 -1.4410 3.4763
41 27 12 15.2132 -0.9132
41 27 14 0.2710 1.3539
41 28 1 12.8292 9.0370
41 28 3 -16.5010 3.2810
41 28 5 1.4867 4.9702
41 28 7 -6.2185 0.1048
41 28 9 -8.9797 11.6142
41 28 11 -1.3193 2.4679
41 29 0 -11.0069 0.2651
41 29 2 -9.4163 -7.4594
41 29 4 -1.3814 29.0552
41 29 6 10.5408 3.5799
41 29 8 -1.9707 7.5187
41 29 10 0.3090 13.6747
41 30 1 -16.0087 18.0254
41 30 3 17.7043 18.4718
41 30 5 -14.0197 8.7751
41 30 7 -3.2851 -0.9098
41 31 0 10.2125 0.1638
41 31 2 -2.6495 26.2518
42 0 0 8.8708 -1.2503
42 0 2 -0.4936 -39.3172
42 0 4 7.0720 -0.6616
42 0 6 -0.6278 -16.5885
42 0 8 25.1738 0.3835
42 0 10 -0.4536 -4.5186
42 0 12 -9.7334 -0.0460
42 0 14 -0.2571 -1.5003
42 0 16 -11.9047 0.4327
42 0 18 -0.1100 8.4087
42 0 20 2.1245 0.1867
42 0 22 -0.1738 -15.7731
42 0 24 11.1547 -0.0365
42 0 26 -0.1036 -19.5747
42 1 1 22.7621 -4.5603
42 1 3 5.2587 22.5884
42 1 5 1.1846 2.4993
42 1 7 -26.4313 16.1817
42 1 9 -3.2910 -1.8700
42 1 11 25.9157 14.7075
42 1 13 2.1428 14.9576
42 1 15 -1.7062 0.6128
42 1 17 -12.1225 -10.2756
42 1 19 -4.2038 4.6623
42 1 21 3.9696 21.1182
42 1 23 -22.0067 5.6758
42 1 25 -9.8102 12.8934
42 2 0 4.9747 -1.1150
42 2 2 30.9085 -23.0202
42 2 4 -12.9689 -15.9482
42 2 6 -18.2976 -10.0851
42 2 8 -2.1507 -8.4186
42 2 10 -3.0469 -6.3233
42 2 12 -4.3015 -2.2381
42 2 14 3.1265 14.9944
42 2 16 6.7939 6.1647
42 2 18 18.0058 -12.7082
42 2 20 -11.4570 19.6552
42 2 22 -0.2389 19.5690
42 2 24 -3.5149 -19.6249
42 2 26 17.8325 2.8185
42 3 1 5.9245 -2.0128
42 3 3 -4.0873 -20.9748
42 3 5 4.7382 0.4165
42 3 7 4.4938 8.9410
42 3 9 6.0034 3.9700
42 3 11 -14.9670 -16.4022
42 3 13 -6.9609 0.9471
42 3 15 0.6977 -7.2935
42 3 17 11.7339 -5.3840
42 3 19 5.6370 17.9233
42 3 21 -16.6679 -1.6614
42 3 23 -18.1174 -19.5521
42 3 25 -0.6467 4.7322
42 4 0 -7.6009 -0.8158
42 4 2 -12.9694 6.6048
42 4 4 -4.0856 -7.3552
42 4 6 9.6109 4.4037
42 4 8 -2.0080 5.9334
42 4 10 -3.5875 1.0280
42 4 12 -6.0186 -4.2793
42 4 14 2.9086 6.8764
42 4 16 -0.6768 -1.7182
42 4 18 1.6002 3.1971
42 4 20 -5.8445 -4.2114
42 4 22 -2.9373 11.7586
42 4 24 -17.8650 10.4789
42 4 26 3.6540 -8.5644
42 5 1 -2.4479 0.2399
42 5 3 -3.7155 -8.4838
42 5 5 -5.4542 6.5972
42 5 7 3.7949 7.0668
42 5 9 -5.2168 -12.6615
42 5 11 -6.5249 8.8782
42 5 13 7.7036 -2.2994
42 5 15 -5.4010 -8.2580
42 5 17 -11.0306 3.8388
42 5 19 -1.5374 9.0500
42 5 21 4.5552 -5.2651
42 5 23 -13.2799 -0.0349
42 5 25 -6.6698 12.6662
42 6 0 7.0830 -0.5920
42 6 2 -9.0575 3.5820
42 6 4 8.3196 -13.4445
42 6 6 2.7472 12.4427
42 6 8 6.3608 7.5587
42 6 10 0.2924 10.7132
42 6 12 1.1148 -4.8421
42 6 14 -3.3595 -2.7075
42 6 16 3.6608 0.5715
42 6 18 -1.2489 4.0507
42 6 20 -0.7230 -13.0096
42 6 22 -2.3895 -15.6212
42 6 24 1.3605 -5.7116
42 6 26 9.2056 -3.6321
42 7 1 -12.2640 -9.3603
42 7 3 -4.3541 2.6531
42 7 5 -1.4215 16.9109
42 7 7 10.3759 6.2417
42 7 9 -0.7766 7.7970
42 7 11 6.7738 -7.7189
42 7 13 9.0557 -30.9091
42 7 15 11.1735 -9.0390
42 7 17 3.8338 4.2284
42 7 19 15.3201 -4.6015
42 7 21 -5.5058 12.2342
42 7 23 -14.3957 6.3382
42 7 25 -9.1599 -16.8951
42 8 0 -3.9718 -0.3318
42 8 2 -14.8999 -8.3403
42 8 4 6.5836 -0.5526
42 8 6 3.5433 5.4679
42 8 8 0.6960 9.1129
42 8 10 12.2770 9.8347
42 8 12 -1.9928 11.0985
42 8 14 5.0662 4.6619
42 8 16 -0.9117 -4.8254
42 8 18 0.8569 3.8473
42 8 20 -5.1658 -0.2249
42 8 22 -15.3976 -0.3466
42 8 24 9.7732 3.4666
42 9 1 -1.8037 3.4993
42 9 3 4.5524 3.9744
42 9 5 6.1133 11.4989
42 9 7 9.6765 6.5857
42 9 9 9.0259 11.3404
42 9 11 -1.6155 -5.8250
42 9 13 7.5140 -10.5017
42 9 15 22.4995 10.8497
42 9 17 -17.9377 -2.7527
42 9 19 9.2260 11.5703
42 9 21 9.5304 -6.5686
42 9 23 -18.1414 -1.4235
42 9 25 3.0068 3.6958
42 10 0 -6.8697 -0.0568
42 10 2 -21.8129 -19.3431
42 10 4 -2.4317 -2.4649
42 10 6 1.1090 1.4888
42 10 8 -7.0521 -2.3229
42 10 10 13.4827 -4.0572
42 10 12 -3.8952 2.2916
42 10 14 6.1077 6.7707
42 10 16 8.3606 2.9897
42 10 18 -5.2025 -4.4924
42 10 20 9.8036 9.6559
42 10 22 -13.0770 -3.8422
42 10 24 14.7475 5.3998
42 11 1 -3.8675 7.3469
42 11 3 -12.7145 -5.1727
42 11 5 12.2764 -6.0655
42 11 7 9.1301 -2.7488
42 11 9 -2.0279 -5.8317
42 11 11 2.7754 -3.3164
42 11 13 -1.6617 -0.1279
42 11 15 -0.1719 27.0348
42 11 17 -15.9215 10.1152
42 11 19 -3.8642 0.3161
42 11 21 2.6506 -11.3305
42 11 23 7.0953 -2.6638
42 12 0 27.5791 -0.1967
42 12 2 -15.0843 8.1812
42 12 4 2.8775 8.1495
42 12 6 16.0590 -8.5612
42 12 8 1.7825 -7.8071
42 12 10 8.1732 8.9306
42 12 12 1.4571 5.1504
42 12 14 6.9046 -2.0503
42 12 16 9.7136 3.9444
42 12 18 -11.0395 -13.7292
42 12 20 1.2663 13.5844
42 12 22 15.6611 -10.2236
42 12 24 5.7906 23.9255
42 13 1 5.2840 12.9265
42 13 3 -2.1513 -12.5085
42 13 5 13.0774 -16.4120
42 13 7 -9.1837 -7.5413
42 13 9 -35.2075 -1.1860
42 13 11 -0.9171 5.0080
42 13 13 -26.2866 1.1217
42 13 15 4.4260 -4.1029
42 13 17 -5.6907 -2.9511
42 13 19 -7.9558 -9.1176
42 13 21 1.0061 -8.8835
42 13 23 -18.7444 10.1515
42 14 0 -6.7026 -0.3894
42 14 2 -9.2268 2.7078
42 14 4 18.3109 27.6831
42 14 6 -10.3165 -6.3350
42 14 8 -4.5030 -3.6786
42 14 10 -3.2995 -6.6065
42 14 12 -0.0187 13.9615
42 14 14 9.8878 -7.0162
42 14 16 -20.8283 2.8661
42 14 18 0.8865 16.9277
42 14 20 -27.1935 -9.5701
42 14 22 -19.8394 -12.7821
42 15 1 23.7688 -6.7422
42 15 3 8.4806 15.6134
42 15 5 -14.8267 -34.0488
42 15 7 -1.2808 -12.0944
42 15 9 5.9939 24.5569
42 15 11 -8.4317 -7.1737
42 15 13 -11.2629 5.2785
42 15 15 -6.4136 -8.1931
42 15 17 -10.5254 -20.7755
42 15 19 10.6382 17.9278
42 15 21 -1.5275 8.5594
42 15 23 -17.3345 -8.3546
42 16 0 -18.8607 -0.6899
42 16 2 13.0028 -2.8203
42 16 4 27.9297 -5.6013
42 16 6 -5.7484 -3.9535
42 16 8 24.4024 6.6902
42 16 10 -7.0102 6.4254
42 16 12 1.9485 -18.4356
42 16 14 9.8894 -19.4232
42 16 16 -12.5916 1.7119
42 16 18 -5.9026 -16.1821
42 16 20 -1.4241 -3.2969
42 16 22 8.0064 -5.5166
42 17 1 11.1769 0.3486
42 17 3 -18.6304 -1.4034
42 17 5 -15.3200 24.5167
42 17 7 9.0083 2.4154
42 17 9 20.6766 -1.3426
42 17 11 14.1785 -7.5232
42 17 13 16.8314 10.0685
42 17 15 -11.9464 -11.9802
42 17 17 -7.6967 31.1404
42 17 19 15.7062 -2.5538
42 17 21 -2.6319 3.9194
42 18 0 -0.1445 -0.8201
42 18 2 -15.3533 8.3966
42 18 4 14.4600 3.0497
42 18 6 0.5584 -7.6109
42 18 8 15.7706 6.9619
42 18 10 15.0033 8.6741
42 18 12 22.7613 -12.6609
42 18 14 -8.4806 8.8394
42 18 16 -9.2587 7.4657
42 18 18 2.9351 12.7442
42 18 20 -3.1987 -19.9555
42 19 1 -3.7862 11.8999
42 19 3 0.7381 3.4942
42 19 5 14.3273 -6.9541
42 19 7 9.9558 11.0436
42 19 9 2.7894 6.2507
42 19 11 4.7910 -11.8783
42 19 13 2.5308 15.7035
42 19 15 9.4606 7.4758
42 19 17 1.4435 -2.5704
42 19 19 -4.0628 -3.2089
42 20 0 -0.4702 -0.8203
42 20 2 -5.4262 25.1764
42 20 4 -8.5936 -9.4736
42 20 6 -3.1880 -25.7986
42 20 8 -4.2567 7.5222
42 20 10 9.1458 -16.1269
42 20 12 -7.2487 5.0090
42 20 14 6.5615 -10.6847
42 20 16 9.1416 6.2238
42 20 18 7.7986 9.3781
42 21 1 5.1525 26.5500
42 21 3 2.4627 3.3248
42 21 5 19.2115 3.7613
42 21 7 -4.5228 5.6588
42 21 9 10.1028 7.7475
42 21 11 -0.1298 4.5681
42 21 13 22.8749 6.4886
42 21 15 -15.1260 -8.9845
42 21 17 -30.4727 13.4837
42 22 0 13.4738 -0.6640
42 22 2 15.8606 -6.3180
42 22 4 10.8055 -2.0555
42 22 6 10.3908 -26.9706
42 22 8 -6.1344 -1.3561
42 22 10 -3.7761 4.1232
42 22 12 9.4067 -9.8823
42 22 14 -6.3734 8.0254
42 22 16 -11.4156 7.5966
42 22 18 6.2192 15.7474
42 23 1 -3.6750 -6.3893
42 23 3 -2.4991 -0.8360
42 23 5 -2.5196 0.3291
42 23 7 0.2172 11.4029
42 23 9 10.1272 1.1189
42 23 11 -9.6267 -6.9047
42 23 13 -16.5077 23.9595
42 23 15 14.6803 12.7424
42 23 17 -15.2555 -17.6250
42 24 0 -15.2359 -0.4941
42 24 2 -23.4275 4.9043
42 24 4 10.7023 12.9973
42 24 6 3.2295 -7.3977
42 24 8 -18.6932 7.0438
42 24 10 -13.5250 1.9649
42 24 12 8.7084 14.9339
42 24 14 1.9216 14.3241
42 25 1 -0.7690 -0.0557
42 25 3 5.0730 -1.6711
42 25 5 0.1537 -0.9764
42 25 7 -10.5350 -12.5208
42 25 9 -7.6350 10.5465
42 25 11 13.1263 12.3123
42 25 13 2.4354 -7.4467
42 26 0 -4.0074 -0.3229
42 26 2 -20.2361 -33.1073
42 26 4 -12.8861 -19.2750
42 26 6 -18.8366 15.0530
42 26 8 6.1966 8.4378
42 26 10 19.4019 19.1476
42 26 12 -16.1194 -16.3796
42 27 1 2.2788 -1.7149
42 27 3 -13.8979 11.2623
42 27 5 21.5066 2.1961
42 27 7 -7.4684 7.7723
42 27 9 -4.4786 13.2847
42 27 11 -2.9195 -4.0756
42 28 0 4.1248 -0.2059
42 28 2 -12.4263 44.4560
42 28 4 9.5484 8.9969
42 28 6 21.0252 7.3090
42 28 8 -5.4646 6.2517
42 29 1 8.6479 18.0397
42 29 3 3.4060 0.8281
42 29 5 4.9102 -0.0628
43 0 1 0.7750 0.7150
43 0 3 1.7553 -2.3784
43 0 5 13.6633 13.4092
43 0 7 7.4045 -7.6666
43 0 9 9.5806 8.5734
43 0 11 -0.6226 -0.0482
43 0 13 -2.8780 -2.4258
43 0 15 -2.8713 2.0785
43 0 17 -2.5298 -2.1109
43 0 19 2.9502 -2.7319
43 0 21 3.6429 3.5995
43 0 23 -1.2569 1.5743
43 0 25 -14.8011 -14.8357
43 1 0 43.1142 0.0296
43 1 2 14.8179 2.4666
43 1 4 9.3809 12.7276
43 1 6 -1.6467 12.0440
43 1 8 -27.1536 -1.4741
43 1 10 -12.2224 -11.3684
43 1 12 -2.7824 -30.7574
43 1 14 -2.2302 7.1732
43 1 16 6.6664 -5.6138
43 1 18 -10.2613 -16.2386
43 1 20 -0.0279 -3.8804
43 1 22 4.3356 2.9223
43 1 24 17.4133 4.2115
43 2 1 -9.2867 -4.6895
43 2 3 -1.0474 8.5438
43 2 5 1.3271 -19.1378
43 2 7 6.1265 -6.9833
43 2 9 -4.7530 -9.1458
43 2 11 -11.5448 -1.2283
43 2 13 -10.0259 1.5071
43 2 15 -12.0380 -7.1613
43 2 17 21.2015 -3.1065
43 2 19 -6.2100 7.7402
43 2 21 7.2072 7.5800
43 2 23 15.6757 -10.7984
43 2 25 -17.3006 -6.9066
43 3 0 12.8489 -0.0996
43 3 2 21.4512 -7.5736
43 3 4 16.2980 -16.0745
43 3 6 3.8897 13.0769
43 3 8 5.4974 -0.4235
43 3 10 -0.7902 -0.1908
43 3 12 -4.2379 -12.5011
43 3 14 -0.9641 16.8622
43 3 16 5.8419 11.1645
43 3 18 -3.1075 13.3612
43 3 20 1.1132 10.9796
43 3 22 -11.5239 6.4564
43 3 24 0.6519 -5.8559
43 4 1 3.9945 -3.0686
43 4 3 4.3593 -10.0740
43 4 5 -1.4591 -9.0556
43 4 7 -4.3541 -6.8745
43 4 9 -7.9316 4.3020
43 4 11 -9.5500 14.1670
43 4 13 6.4070 7.8743
43 4 15 -19.6860 27.4473
43 4 17 11.4635 4.4549
43 4 19 -2.5842 14.8670
43 4 21 -17.1052 -23.2218
43 4 23 -11.8547 10.6464
43 4 25 0.2707 0.8933
43 5 0 -20.3568 -0.0683
43 5 2 22.4858 -8.7850
43 5 4 0.6533 -12.1837
43 5 6 6.5736 3.2871
43 5 8 -8.5210 -13.5521
43 5 10 3.5288 0.1066
43 5 12 -6.5938 -7.1966
43 5 14 -0.4159 -1.6569
43 5 16 7.2006 10.1029
43 5 18 -3.6782 -16.5309
43 5 20 -10.0820 11.4798
43 5 22 -10.6954 0.3274
43 5 24 1.9892 -5.7082
43 6 1 16.0633 6.5322
43 6 3 -6.0402 -5.5141
43 6 5 3.6080 -19.1481
43 6 7 -14.3727 -14.9078
43 6 9 -1.9705 1.0794
43 6 11 6.8313 7.5635
43 6 13 7.6703 -3.8429
43 6 15 7.9118 8.4118
43 6 17 -9.3407 -2.8907
43 6 19 8.4583 -1.4725
43 6 21 -3.4202 -29.6235
43 6 23 11.2126 6.8713
43 7 0 21.0620 -0.1337
43 7 2 4.9143 2.8127
43 7 4 -6.9047 -15.2143
43 7 6 -4.8065 -7.7546
43 7 8 -3.2074 7.1889
43 7 10 -2.3462 3.4150
43 7 12 -7.0617 10.3015
43 7 14 -0.9594 0.7838
43 7 16 -0.7652 -2.8666
43 7 18 0.2347 1.9433
43 7 20 -2.4131 -3.9293
43 7 22 7.2627 5.8686
43 7 24 16.1950 -5.8271
43 8 1 14.6938 -15.4620
43 8 3 -0.3941 -12.1424
43 8 5 -4.7629 -5.9160
43 8 7 -9.7382 11.7317
43 8 9 -6.6565 2.5741
43 8 11 3.4402 -1.8113
43 8 13 -7.1386 20.4869
43 8 15 3.2175 -4.0851
43 8 17 11.8046 -9.0277
43 8 19 -4.2465 -2.6020
43 8 21 5.5254 -8.5670
43 8 23 -6.8673 6.3039
43 9 0 -25.2325 -0.1046
43 9 2 7.4054 2.3029
43 9 4 16.0536 6.1562
43 9 6 -3.0810 -2.4163
43 9 8 -15.5543 -10.5840
43 9 10 -2.6339 1.1519
43 9 12 -5.7673 3.1589
43 9 14 -2.0772 24.9838
43 9 16 13.8907 4.0620
43 9 18 5.0113 9.1232
43 9 20 9.9930 -4.7487
43 9 22 9.2617 5.8335
43 9 24 -3.3922 -5.9656
43 10 1 -2.0526 -4.0614
43 10 3 6.2752 -15.2578
43 10 5 1.5866 -13.0792
43 10 7 8.0177 19.3323
43 10 9 1.0696 -2.1554
43 10 11 -0.9360 -6.9479
43 10 13 -5.3678 -8.7398
43 10 15 -3.4763 -18.1831
43 10 17 14.5508 -11.1215
43 10 19 -12.0212 -14.0266
43 10 21 1.7540 16.3160
43 10 23 1.8540 -6.6549
43 11 0 -22.0229 -0.1045
43 11 2 -0.8267 -1.0251
43 11 4 12.5844 -7.8621
43 11 6 -0.6611 11.8275
43 11 8 0.5378 -4.3140
43 11 10 7.1429 4.3698
43 11 12 1.9663 -13.2107
43 11 14 -8.0145 -7.6310
43 11 16 -12.5489 -4.9204
43 11 18 -2.9810 -6.6503
43 11 20 -1.4826 -1.9988
43 11 22 3.8750 -6.6044
43 12 1 8.7769 24.4108
43 12 3 -6.5336 -12.5813
43 12 5 6.7030 0.9434
43 12 7 16.7720 26.1396
43 12 9 -0.9188 -1.5353
43 12 11 0.9691 -1.9538
43 12 13 28.2100 -6.2076
43 12 15 -9.1777 -23.0104
43 12 17 -2.9790 5.9206
43 12 19 -2.6897 -11.9252
43 12 21 -6.6789 3.6848
43 13 0 40.1367 -0.1748
43 13 2 -5.1170 -0.9200
43 13 4 1.0012 20.9930
43 13 6 8.3173 -0.2683
43 13 8 12.0737 10.2960
43 13 10 19.9085 22.0214
43 13 12 7.8316 2.3442
43 13 14 9.6616 -3.2659
43 13 16 -3.8948 -1.0097
43 13 18 -10.9200 -6.1105
43 13 20 5.5602 5.8278
43 13 22 2.3752 22.8231
43 14 1 -16.5905 -0.8694
43 14 3 5.5721 -24.9700
43 14 5 -2.2858 -1.1056
43 14 7 -22.6640 -6.6471
43 14 9 -3.0019 -4.6157
43 14 11 5.2676 -20.4051
43 14 13 -3.4496 -11.0837
43 14 15 10.4835 -9.9156
43 14 17 -2.2021 -4.3775
43 14 19 -4.7849 16.5309
43 14 21 -5.8901 -0.3942
43 15 0 28.3774 -0.2361
43 15 2 6.2976 5.4404
43 15 4 -7.9792 7.1794
43 15 6 -7.0213 -20.9450
43 15 8 -23.2350 11.2321
43 15 10 18.5485 3.4289
43 15 12 -16.8310 -23.8060
43 15 14 -32.2923 2.0495
43 15 16 -10.4634 -22.1306
43 15 18 10.9247 20.6436
43 15 20 0.0784 -0.3218
43 16 1 -3.9220 -18.3834
43 16 3 -17.7931 -1.4688
43 16 5 -4.4776 -22.2695
43 16 7 -2.9923 1.6924
43 16 9 -12.0721 -1.2471
43 16 11 18.3883 13.9067
43 16 13 3.5257 0.2196
43 16 15 -7.5269 -13.8762
43 16 17 19.8590 0.7720
43 16 19 10.6530 16.4874
43 17 0 6.0925 -0.2022
43 17 2 0.6171 10.6438
43 17 4 5.1756 12.6753
43 17 6 20.3909 1.2368
43 17 8 5.1560 0.5682
43 17 10 0.0977 10.1903
43 17 12 -1.1560 -2.2519
43 17 14 21.1509 -17.0297
43 17 16 6.3815 23.9423
43 17 18 7.0610 -4.5784
43 17 20 1.8056 2.3398
43 18 1 6.4537 6.2366
43 18 3 -5.5263 -13.5449
43 18 5 5.9420 -2.0879
43 18 7 -25.1941 -1.1142
43 18 9 2.1247 -5.6927
43 18 11 -11.0326 3.7160
43 18 13 7.8308 -18.8147
43 18 15 3.5671 17.1787
43 18 17 -2.7559 -2.6950
43 18 19 1.4293 19.0423
43 19 0 0.5272 -0.1739
43 19 2 12.3959 -2.3849
43 19 4 8.9546 -20.3281
43 19 6 5.4653 -12.7715
43 19 8 -14.2104 3.8240
43 19 10 14.6359 -2.2863
43 19 12 7.4637 -3.4874
43 19 14 -23.4787 1.8709
43 19 16 -11.4519 -16.1518
43 19 18 2.7044 -16.8685
43 20 1 7.8368 -5.0143
43 20 3 -0.4158 -13.4233
43 20 5 20.1265 -3.9223
43 20 7 -17.3592 -3.0028
43 20 9 -9.0298 -14.0160
43 20 11 -15.6144 -19.3157
43 20 13 6.1686 -15.1541
43 20 15 15.7172 -7.8679
43 20 17 -9.6537 22.6306
43 21 0 6.5918 -0.0928
43 21 2 21.6242 -2.1386
43 21 4 6.0053 23.1495
43 21 6 3.1563 -2.5025
43 21 8 9.9791 6.2025
43 21 10 7.7173 2.6779
43 21 12 9.5577 9.3385
43 21 14 16.0300 -6.6007
43 21 16 -6.4408 5.6616
43 22 1 -8.9937 0.6911
43 22 3 -12.9463 -2.8800
43 22 5 17.0953 2.1547
43 22 7 -7.6812 -3.3036
43 22 9 -10.1467 5.6627
43 22 11 20.4013 4.7540
43 22 13 9.1260 4.0712
43 22 15 15.0745 -2.2979
43 23 0 -11.3809 0.0096
43 23 2 -0.4047 8.3181
43 23 4 3.5839 -13.5520
43 23 6 8.9240 -10.0235
43 23 8 -14.5809 11.3344
43 23 10 -13.4529 16.0110
43 23 12 -4.1577 -14.4089
43 23 14 2.2793 -1.6102
43 24 1 9.0618 1.8522
43 24 3 -10.9541 0.3664
43 24 5 -4.8245 -10.0590
43 24 7 6.8293 13.4431
43 24 9 -14.1085 23.9763
43 24 11 3.3918 14.3145
43 24 13 -14.6703 -7.1086
43 25 0 -21.4713 0.1322
43 25 2 -12.2001 11.4337
43 25 4 -17.8596 18.1121
43 25 6 11.3637 -11.7865
43 25 8 -13.3797 -15.3978
43 25 10 1.7850 11.9888
43 25 12 -15.5291 11.7968
43 26 1 5.1282 -6.6616
43 26 3 1.6804 13.9817
43 26 5 2.2479 -16.7405
43 26 7 5.8236 -13.4517
43 26 9 -1.3694 -0.2156
43 27 0 -22.0363 0.2459
43 27 2 0.0261 -19.9143
43 27 4 19.6761 -1.2045
43 27 6 6.3026 6.9787
43 28 1 0.0157 -3.6498
43 28 3 0.5328 8.9620
44 0 0 24.1231 -0.5470
44 0 2 -0.3888 -16.9773
44 0 4 1.0546 0.0850
44 0 6 -0.5609 2.9597
44 0 8 -5.8491 0.6778
44 0 10 -0.3217 4.5329
44 0 12 -6.5595 -0.0004
44 0 14 -0.0683 12.3514
44 0 16 -16.5853 0.2236
44 0 18 -0.0405 1.0877
44 0 20 8.5418 -0.0156
44 0 22 -0.1393 -25.7631
44 1 1 7.3547 -8.5177
44 1 3 -3.6669 -17.0349
44 1 5 3.1025 -6.6756
44 1 7 -2.2831 6.0972
44 1 9 1.0864 -4.5887
44 1 11 2.5604 -17.8026
44 1 13 4.4515 6.7821
44 1 15 8.0848 4.3276
44 1 17 4.7924 0.1648
44 1 19 16.1451 -2.1893
44 1 21 11.1626 1.5674
44 1 23 -2.9986 0.3742
44 2 0 -12.7387 -0.3444
44 2 2 -4.6357 9.2353
44 2 4 7.3380 -22.1717
44 2 6 -10.8446 12.8982
44 2 8 11.7075 -2.8344
44 2 10 8.1708 -15.5558
44 2 12 -7.7555 4.0762
44 2 14 -8.0760 -11.5161
44 2 16 9.0583 24.0394
44 2 18 0.3687 2.0151
44 2 20 15.9743 7.1607
44 2 22 -19.6248 -4.4952
44 3 1 -11.6906 11.2833
44 3 3 -9.2357 -5.8033
44 3 5 -10.5507 7.7148
44 3 7 8.5064 1.1645
44 3 9 2.3888 -16.0865
44 3 11 -9.1079 1.8153
44 3 13 -3.4395 -27.6676
44 3 15 -6.7554 4.3910
44 3 17 2.7758 2.1452
44 3 19 -4.2680 -3.3205
44 3 21 -2.6110 18.5032
44 3 23 7.5897 -22.4525
44 4 0 -9.7583 -0.2327
44 4 2 4.7356 17.2138
44 4 4 -2.5319 -10.1971
44 4 6 7.6138 2.9477
44 4 8 -0.2817 0.1594
44 4 10 1.0087 -6.7517
44 4 12 -4.2445 5.9104
44 4 14 3.8535 10.0744
44 4 16 -0.4180 6.2850
44 4 18 -14.9244 -3.8987
44 4 20 6.0758 -1.2123
44 4 22 -12.8601 4.4473
44 5 1 2.9986 10.4095
44 5 3 -0.2221 2.4996
44 5 5 1.7028 14.8048
44 5 7 13.4511 6.4326
44 5 9 13.1705 -11.4287
44 5 11 -9.7076 -2.4216
44 5 13 -3.7701 -3.8485
44 5 15 -10.4804 -2.9415
44 5 17 -12.8719 0.3419
44 5 19 9.4970 -11.1615
44 5 21 -5.6097 8.6248
44 5 23 6.1185 -2.0307
44 6 0 15.5710 -0.0742
44 6 2 7.1857 12.0364
44 6 4 2.6800 -11.5963
44 6 6 5.5354 4.6724
44 6 8 6.3414 -3.3943
44 6 10 -3.5648 -9.9617
44 6 12 2.4090 -14.9608
44 6 14 1.4219 -20.3844
44 6 16 -1.9277 0.8130
44 6 18 -10.6712 -20.2376
44 6 20 -2.3553 -6.7003
44 6 22 23.7984 -0.9669
44 7 1 -5.8099 -7.2946
44 7 3 -11.0930 6.1919
44 7 5 12.3794 3.4564
44 7 7 4.4667 -2.0528
44 7 9 -7.9214 -5.5459
44 7 11 2.3923 17.9890
44 7 13 6.5275 -0.0805
44 7 15 0.9529 -13.0561
44 7 17 4.6807 7.4364
44 7 19 18.9008 -0.1434
44 7 21 7.8672 -6.5126
44 7 23 13.3444 -21.6791
44 8 0 7.5675 -0.0088
44 8 2 -16.9620 3.6384
44 8 4 18.1438 -6.6629
44 8 6 0.7166 -2.0057
44 8 8 6.8729 -5.3773
44 8 10 11.0844 9.5026
44 8 12 5.0920 -1.0886
44 8 14 9.9988 -16.9213
44 8 16 -4.4147 9.5228
44 8 18 -10.1019 -9.2858
44 8 20 -7.1515 -8.5845
44 8 22 14.2758 -5.0205
44 9 1 -1.6258 0.9837
44 9 3 -4.2446 3.1399
44 9 5 12.5546 1.5907
44 9 7 2.8477 -3.0027
44 9 9 -7.7929 14.2915
44 9 11 7.6487 4.8417
44 9 13 -1.5016 -20.0209
44 9 15 -2.5708 -22.6237
44 9 17 3.4135 9.9715
44 9 19 -7.4205 -1.1467
44 9 21 -9.6743 -0.9718
44 10 0 -23.3310 0.0567
44 10 2 -4.9888 7.8342
44 10 4 -0.0699 -5.5651
44 10 6 -5.7080 13.1088
44 10 8 -0.9967 -1.6425
44 10 10 2.7389 -5.5173
44 10 12 4.8196 2.4435
44 10 14 7.3286 6.9679
44 10 16 0.9888 -4.4028
44 10 18 2.1434 4.9053
44 10 20 -4.6764 -7.4735
44 10 22 6.2483 -13.0948
44 11 1 -1.9302 19.4135
44 11 3 6.5539 15.5675
44 11 5 1.4091 -11.9479
44 11 7 0.2075 8.3621
44 11 9 -5.0083 -9.0835
44 11 11 -4.8775 -9.3656
44 11 13 18.3399 -8.6127
44 11 15 0.0650 -7.7190
44 11 17 22.4026 -12.7464
44 11 19 3.6745 0.5093
44 11 21 -6.3367 4.2824
44 12 0 12.2928 -0.2162
44 12 2 7.3255 7.0105
44 12 4 -3.8029 -0.3068
44 12 6 -3.2496 -4.2881
44 12 8 -4.9583 7.3125
44 12 10 -5.8588 2.4514
44 12 12 1.1514 6.0490
44 12 14 19.7752 -4.6672
44 12 16 -4.1656 13.1251
44 12 18 -2.6875 12.7262
44 12 20 14.9677 7.6619
44 13 1 7.6323 -35.7092
44 13 3 6.3782 -1.0314
44 13 5 -10.5805 -19.3947
44 13 7 -9.3488 1.8895
44 13 9 -15.9484 3.4101
44 13 11 14.2535 -17.8005
44 13 13 -5.9169 -12.9715
44 13 15 7.9403 8.0177
44 13 17 -1.1129 16.1217
44 13 19 0.9832 18.2801
44 14 0 -26.5250 -0.5328
44 14 2 16.1870 4.3567
44 14 4 -7.3134 16.0703
44 14 6 -5.0896 -15.1461
44 14 8 -7.1160 -2.2321
44 14 10 -8.7813 -11.2047
44 14 12 -29.8950 -8.8531
44 14 14 -18.7249 1.1739
44 14 16 17.1199 -2.6484
44 14 18 10.4713 19.9701
44 14 20 20.8060 -5.6938
44 15 1 3.5004 2.0754
44 15 3 16.3352 -9.3874
44 15 5 -7.0750 22.4777
44 15 7 -8.2023 -6.0848
44 15 9 -23.8789 -2.5359
44 15 11 -18.2753 -12.1753
44 15 13 12.6178 14.3144
44 15 15 8.9332 7.7574
44 15 17 13.3122 -2.2181
44 15 19 2.6464 -17.2378
44 16 0 -13.7852 -0.9066
44 16 2 -2.8882 -4.9410
44 16 4 13.9798 -1.6010
44 16 6 -18.1833 9.4882
44 16 8 25.2100 -2.3855
44 16 10 -11.1390 -18.1239
44 16 12 0.9069 20.7669
44 16 14 -20.5491 4.5589
44 16 16 9.3538 -5.1026
44 16 18 -13.6359 -19.2323
44 17 1 -9.9533 12.2243
44 17 3 -11.0288 5.1030
44 17 5 -20.1803 4.4296
44 17 7 10.9198 -5.5051
44 17 9 -17.3466 -5.0565
44 17 11 17.6156 14.3638
44 17 13 20.2561 -11.7007
44 17 15 -8.6660 8.6061
44 17 17 6.7951 -1.8890
44 18 0 3.2784 -1.0842
44 18 2 19.5741 -3.4531
44 18 4 6.4548 -5.7183
44 18 6 13.7701 -20.5925
44 18 8 -4.2640 -3.2182
44 18 10 -1.4251 4.2038
44 18 12 -6.0009 -4.1844
44 18 14 -6.8208 -4.0059
44 18 16 -8.8536 18.1873
44 19 1 10.4900 -17.1523
44 19 3 -19.6563 -3.0840
44 19 5 29.1238 -17.3842
44 19 7 -2.1875 -1.3994
44 19 9 -11.5306 -17.8901
44 19 11 4.1391 1.6148
44 19 13 -10.9954 -27.7526
44 19 15 4.2223 -17.5307
44 20 0 5.1706 -1.1043
44 20 2 3.1323 11.2681
44 20 4 0.8765 -6.8918
44 20 6 -7.9245 1.0033
44 20 8 15.7138 8.7516
44 20 10 13.1409 -7.8698
44 20 12 3.8064 -17.8506
44 20 14 -13.3516 -4.9535
44 21 1 2.0099 -0.0972
44 21 3 -5.0285 -3.9140
44 21 5 -10.1754 17.2260
44 21 7 12.9358 0.0216
44 21 9 6.1747 3.4339
44 21 11 -12.0121 -0.2940
44 21 13 11.7758 15.6349
44 22 0 -0.7455 -0.9974
44 22 2 4.1238 1.8339
44 22 4 17.9723 14.4198
44 22 6 14.1232 -2.2001
44 22 8 18.1840 -20.0704
44 22 10 -5.7143 13.7718
44 22 12 10.6557 20.9945
44 23 1 -13.9821 2.7609
44 23 3 8.9555 -4.0465
44 23 5 -17.0654 4.1764
44 23 7 -12.0714 0.6822
44 23 9 -0.3078 6.5469
44 23 11 -5.4631 -2.1154
44 24 0 9.3047 -0.8161
44 24 2 -8.9724 -12.3422
44 24 4 14.9994 -4.8510
44 24 6 -12.4718 8.6936
44 24 8 6.3281 -5.4564
44 24 10 -14.4823 -2.1644
44 25 1 0.5135 -23.5215
44 25 3 4.1720 -2.9061
44 25 5 6.2676 -12.0208
44 25 7 6.1281 -1.2564
44 26 0 -18.0357 -0.6012
44 26 2 -12.3524 6.4010
44 26 4 -3.7511 7.5680
44 26 6 -12.0293 4.6369
45 0 1 -0.4772 -0.3450
45 0 3 9.7531 -9.6781
45 0 5 -8.6256 -8.9246
45 0 7 -17.3109 17.7707
45 0 9 0.8391 -0.2873
45 0 11 16.3343 -16.3935
45 0 13 -19.9267 -19.8303
45 0 15 12.6784 -13.0509
45 0 17 -4.8438 -4.6616
45 0 19 0.3966 -0.0239
45 0 21 1.5637 1.4336
45 1 0 31.5274 0.0895
45 1 2 -26.3298 -2.9057
45 1 4 -14.2104 -12.7951
45 1 6 -1.0371 -13.1670
45 1 8 14.0976 -3.4382
45 1 10 10.1984 -7.3759
45 1 12 -1.4996 13.5078
45 1 14 -25.2144 3.4409
45 1 16 -4.1108 0.3766
45 1 18 -0.2212 1.0673
45 1 20 -4.1127 8.2286
45 1 22 10.6847 5.4968
45 2 1 4.6777 -2.5041
45 2 3 7.1612 3.0836
45 2 5 -7.3591 -12.1647
45 2 7 5.6584 4.1046
45 2 9 8.2841 -10.5659
45 2 11 5.4514 -7.7478
45 2 13 1.1717 -17.6866
45 2 15 -10.2759 1.9345
45 2 17 8.7235 -13.8086
45 2 19 -0.3261 -16.7275
45 2 21 0.5795 9.8915
45 3 0 -14.9269 -0.2151
45 3 2 -10.8234 3.1360
45 3 4 6.1049 -10.9522
45 3 6 1.3424 18.6038
45 3 8 0.5154 0.2126
45 3 10 4.4031 -0.1353
45 3 12 12.3463 11.5527
45 3 14 26.7489 6.0333
45 3 16 9.7571 4.4099
45 3 18 -7.4962 14.9654
45 3 20 -25.1255 3.7044
45 3 22 -2.4237 -19.1505
45 4 1 -4.2753 10.5640
45 4 3 9.6906 -9.1014
45 4 5 -5.2794 -11.5608
45 4 7 2.3002 4.0550
45 4 9 -1.5473 8.2466
45 4 11 -4.0351 4.8766
45 4 13 -4.5998 11.2274
45 4 15 -5.3545 -12.7991
45 4 17 8.4079 1.5922
45 4 19 -7.8638 -23.5654
45 4 21 0.3034 -3.2268
45 5 0 -3.4767 -0.3032
45 5 2 11.3899 2.4445
45 5 4 -1.8280 -5.7735
45 5 6 1.9565 -4.2106
45 5 8 -6.0912 -6.7743
45 5 10 -4.1520 -3.6501
45 5 12 -4.2816 10.3830
45 5 14 5.4822 -12.7029
45 5 16 10.5222 10.3731
45 5 18 7.1491 -11.1343
45 5 20 19.5602 -7.8305
45 6 1 2.3417 10.8329
45 6 3 -13.5929 -12.0693
45 6 5 -0.4009 -3.6126
45 6 7 13.3670 -9.1984
45 6 9 -4.9426 -8.0767
45 6 11 8.7568 6.6398
45 6 13 -0.0210 9.9272
45 6 15 10.7097 11.7966
45 6 17 5.9803 1.8847
45 6 19 -24.1338 -15.2115
45 6 21 9.4103 8.6344
45 7 0 -8.3770 -0.3450
45 7 2 11.0175 13.7404
45 7 4 8.5824 -2.4666
45 7 6 2.1272 4.5657
45 7 8 -9.6122 -7.1399
45 7 10 -0.8284 -5.0628
45 7 12 -7.0430 -0.6464
45 7 14 1.6485 8.2264
45 7 16 8.8813 2.4378
45 7 18 2.2844 8.4498
45 7 20 -16.4541 -13.5678
45 8 1 11.1589 -7.0318
45 8 3 -17.2764 -1.8619
45 8 5 -5.9175 6.8375
45 8 7 3.1549 5.2979
45 8 9 3.3091 5.5852
45 8 11 -3.8084 -2.2809
45 8 13 11.4563 4.9180
45 8 15 16.8969 -19.8958
45 8 17 6.5280 -2.9253
45 8 19 -4.7219 15.8918
45 8 21 1.6126 -3.8147
45 9 0 5.0886 -0.3224
45 9 2 0.4748 0.4994
45 9 4 -7.1854 -11.0346
45 9 6 -4.2664 -0.5600
45 9 8 0.3485 -4.4556
45 9 10 -14.7824 14.5063
45 9 12 -4.9455 -17.4960
45 9 14 4.5155 -6.4165
45 9 16 19.5425 9.8427
45 9 18 22.1999 -4.4739
45 9 20 -2.3268 -0.0190
45 10 1 -9.9093 -9.0368
45 10 3 -8.6881 -1.7253
45 10 5 -0.8445 3.6939
45 10 7 1.1991 11.3586
45 10 9 -1.4652 -4.9438
45 10 11 2.6402 4.4488
45 10 13 4.9001 4.6173
45 10 15 -10.7982 -5.6160
45 10 17 -10.7422 16.2424
45 10 19 2.0824 -2.3681
45 11 0 1.3297 -0.3269
45 11 2 -13.1997 0.8881
45 11 4 -16.6633 -13.8463
45 11 6 2.4565 14.0510
45 11 8 -1.4589 15.1727
45 11 10 -0.6752 -3.4906
45 11 12 18.7501 -1.7275
45 11 14 0.0545 9.4225
45 11 16 6.1412 12.8454
45 11 18 -11.7148 -12.2647
45 11 20 -1.9147 9.7660
45 12 1 22.6074 14.3585
45 12 3 -14.7771 21.8286
45 12 5 14.2196 14.4297
45 12 7 7.2603 -4.7546
45 12 9 9.8507 -1.3681
45 12 11 -10.5677 2.3106
45 12 13 -16.7623 -5.3736
45 12 15 14.1705 0.5748
45 12 17 13.8110 -16.7619
45 12 19 0.8773 -6.5617
45 13 0 -13.0316 -0.3625
45 13 2 -11.6880 -1.5084
45 13 4 -1.9447 -2.4727
45 13 6 12.8771 2.2557
45 13 8 -1.8841 -2.1549
45 13 10 5.8373 -1.4857
45 13 12 -7.8630 20.3294
45 13 14 -4.0865 4.1820
45 13 16 9.9501 21.6402
45 13 18 20.1005 -3.7795
45 14 1 -0.6505 -9.2765
45 14 3 13.0921 -31.5177
45 14 5 -4.5015 9.7741
45 14 7 -18.2334 12.0808
45 14 9 5.2708 -11.9402
45 14 11 -15.3188 -3.3862
45 14 13 -5.1046 -21.8546
45 14 15 -19.5664 -20.9049
45 14 17 -7.5784 -11.1137
45 15 0 -22.5962 -0.3889
45 15 2 2.9903 5.2737
45 15 4 -18.3294 10.8981
45 15 6 4.6922 -19.3425
45 15 8 -2.2874 -3.4164
45 15 10 -14.3789 12.8320
45 15 12 4.1323 -3.2228
45 15 14 3.1260 11.2461
45 15 16 11.2153 -17.2711
45 16 1 1.8364 14.0256
45 16 3 22.3956 -3.1602
45 16 5 -4.1281 -13.3865
45 16 7 27.8692 -6.1161
45 16 9 5.1639 20.8424
45 16 11 -16.6216 6.2517
45 16 13 -18.8352 5.7945
45 16 15 1.6630 4.8975
45 16 17 0.1097 -2.6449
45 17 0 -3.0521 -0.3279
45 17 2 -1.6456 1.0039
45 17 4 12.6274 -2.4717
45 17 6 3.5892 -0.1114
45 17 8 4.0461 0.5713
45 17 10 -22.9369 1.8385
45 17 12 -17.9917 -14.8033
45 17 14 15.0201 14.2229
45 17 16 -6.7158 -13.8337
45 18 1 10.3411 -0.1651
45 18 3 5.0936 -22.4570
45 18 5 10.6801 -2.1602
45 18 7 -2.7794 5.8907
45 18 9 9.9684 -5.2161
45 18 11 4.3675 -3.1706
45 18 13 -6.6609 8.5061
45 18 15 -10.2400 8.2169
45 19 0 8.8908 -0.2762
45 19 2 4.4196 2.3037
45 19 4 -19.9042 -2.8017
45 19 6 3.1478 -14.0267
45 19 8 -1.9638 -8.2629
45 19 10 8.1055 -6.7143
45 19 12 -12.0287 6.2361
45 19 14 15.7868 11.9400
45 20 1 -16.0229 -17.1796
45 20 3 17.1949 10.8558
45 20 5 -11.1991 12.1033
45 20 7 19.6985 -1.8439
45 20 9 11.2360 0.5810
45 20 11 11.6655 9.6599
45 20 13 -11.4756 7.7372
45 21 0 -2.6608 -0.1863
45 21 2 1.8467 2.3194
45 21 4 6.6544 -11.0183
45 21 6 -4.5839 16.3222
45 21 8 1.0322 -6.2044
45 21 10 -2.1840 -21.2475
45 21 12 -7.2741 12.7411
45 22 1 1.1370 -2.2145
45 22 3 -2.6400 -14.4821
45 22 5 -6.6205 4.7705
45 22 7 -0.6538 13.5503
45 22 9 -8.7059 -10.0952
45 23 0 22.9044 -0.0943
45 23 2 -4.7288 1.5491
45 23 4 16.5692 -8.9858
45 23 6 -7.1384 -9.4402
45 23 8 -1.3411 1.4911
45 24 1 -11.8486 -4.3981
45 24 3 5.2711 -8.3147
45 24 5 7.5758 11.9552
45 25 0 5.9330 0.0856
45 25 2 -4.1307 -2.9629
46 0 0 19.2922 -0.2119
46 0 2 -0.2441 -28.2257
46 0 4 2.9184 0.5149
46 0 6 -0.3335 10.8003
46 0 8 -4.3783 0.7550
46 0 10 -0.0255 -0.3600
46 0 12 4.7777 0.0144
46 0 14 0.1212 -13.5321
46 0 16 1.2853 0.0629
46 0 18 0.0361 15.4031
46 0 20 -7.7798 -0.1901
46 1 1 -16.3703 4.1399
46 1 3 -1.4490 -17.8343
46 1 5 5.1524 -0.6894
46 1 7 -1.6287 1.8143
46 1 9 12.2119 -3.5599
46 1 11 11.8402 -3.6822
46 1 13 9.6129 10.9291
46 1 15 4.2301 4.9882
46 1 17 -1.9160 3.2299
46 1 19 11.6159 -17.8544
46 2 0 -30.4584 0.0196
46 2 2 11.4625 12.1932
46 2 4 -10.8254 -9.4673
46 2 6 1.6352 3.3763
46 2 8 -1.9800 2.0193
46 2 10 -23.1802 -3.3379
46 2 12 2.9129 12.1379
46 2 14 11.0958 -8.3970
46 2 16 -19.6302 -10.7359
46 2 18 16.1987 6.3192
46 2 20 5.0775 -19.6341
46 3 1 -5.3806 -0.0105
46 3 3 1.7070 -8.9419
46 3 5 -0.6044 -15.5492
46 3 7 4.2195 -3.7263
46 3 9 -3.2214 -4.6097
46 3 11 -5.1223 -3.2805
46 3 13 -11.8243 8.5242
46 3 15 -7.0876 -2.2892
46 3 17 21.7021 4.1373
46 3 19 -2.9743 0.1874
46 4 0 29.4526 0.0109
46 4 2 9.8128 11.3914
46 4 4 9.8585 -2.2641
46 4 6 8.0103 8.9296
46 4 8 -0.9310 -10.8707
46 4 10 -3.9615 -6.2111
46 4 12 -0.8836 -4.0811
46 4 14 -4.2986 17.4713
46 4 16 -7.4634 24.9680
46 4 18 10.3726 21.3746
46 4 20 -10.3037 5.8666
46 5 1 16.5129 10.7463
46 5 3 -0.5685 -1.1510
46 5 5 -6.3659 -0.4562
46 5 7 10.0670 -11.6013
46 5 9 -4.4558 -7.4450
46 5 11 -1.7729 -2.0556
46 5 13 -9.7628 -1.3833
46 5 15 -8.5374 1.9405
46 5 17 -10.8646 12.0188
46 5 19 5.3240 9.4518
46 6 0 5.9280 0.1154
46 6 2 -7.6036 12.9008
46 6 4 -9.3625 5.3206
46 6 6 -0.7007 -13.4203
46 6 8 8.1035 2.8592
46 6 10 -3.9423 -15.1158
46 6 12 6.3526 8.4995
46 6 14 6.6146 -2.5275
46 6 16 -2.8573 -4.7916
46 6 18 -0.6621 0.9104
46 6 20 22.0789 -10.6479
46 7 1 9.6844 -13.5901
46 7 3 3.3423 -3.9355
46 7 5 4.1806 -5.1565
46 7 7 -2.0568 -5.2912
46 7 9 0.1100 -6.0372
46 7 11 5.2351 16.1488
46 7 13 0.8717 4.1589
46 7 15 12.4183 3.9268
46 7 17 1.8751 8.4363
46 7 19 -10.4280 -19.5681
46 8 0 -17.2830 0.0798
46 8 2 2.1921 -0.5985
46 8 4 4.4394 -1.1222
46 8 6 3.3160 -16.0264
46 8 8 2.1398 0.6456
46 8 10 -3.5806 -4.5448
46 8 12 5.8246 16.1845
46 8 14 4.8925 0.8974
46 8 16 0.2626 -7.4159
46 8 18 -4.5555 4.6042
46 9 1 -8.3443 -1.2196
46 9 3 -12.1927 7.9658
46 9 5 -1.9647 -4.2591
46 9 7 -4.2339 0.3618
46 9 9 0.0619 -6.0310
46 9 11 -0.3973 15.3465
46 9 13 -2.4856 -0.6667
46 9 15 -6.3076 -11.6467
46 9 17 14.7702 -6.0891
46 9 19 -3.8660 3.7176
46 10 0 -14.1128 -0.0192
46 10 2 -5.7867 14.5641
46 10 4 -3.2096 -2.0250
46 10 6 -3.3331 -1.2423
46 10 8 2.4406 -4.8788
46 10 10 -14.8447 -10.4895
46 10 12 -5.5366 -0.5764
46 10 14 -0.2899 17.6056
46 10 16 -2.2126 -2.9785
46 10 18 19.2817 4.5812
46 11 1 -8.1541 25.4099
46 11 3 9.1516 -14.4060
46 11 5 3.1007 -11.0148
46 11 7 -1.2760 -7.6987
46 11 9 1.0673 11.6593
46 11 11 -5.5761 7.0978
46 11 13 15.2786 8.2138
46 11 15 13.7793 4.9075
46 11 17 -12.8067 -13.7824
46 12 0 31.0400 -0.3466
46 12 2 18.3383 6.7604
46 12 4 -9.1821 13.6372
46 12 6 3.8240 -2.4180
46 12 8 -6.3768 6.9685
46 12 10 -16.5676 2.9602
46 12 12 21.4695 18.8118
46 12 14 3.1922 -14.3922
46 12 16 -23.3146 -7.2843
46 13 1 20.9276 12.1594
46 13 3 -6.6684 31.2161
46 13 5 2.1551 -8.9213
46 13 7 -14.4417 -8.1101
46 13 9 -10.3960 -8.1352
46 13 11 -12.2888 9.1517
46 13 13 -4.1078 -15.3795
46 13 15 13.9807 -17.8214
46 13 17 8.1869 -0.2010
46 14 0 -0.5632 -0.6283
46 14 2 12.8046 -9.0235
46 14 4 17.9867 -16.1109
46 14 6 -12.0627 5.3311
46 14 8 -15.9009 -13.2235
46 14 10 -6.7616 24.8667
46 14 12 2.7995 20.6295
46 14 14 -18.4883 5.8082
46 14 16 -18.3618 8.3168
46 15 1 28.3693 1.2929
46 15 3 -18.1631 -39.6083
46 15 5 -5.7803 -17.7944
46 15 7 -24.4570 -18.1513
46 15 9 -11.5528 17.4550
46 15 11 -4.1077 6.9823
46 15 13 -1.5955 -6.7880
46 15 15 -6.4217 -6.8081
46 16 0 3.0998 -1.0136
46 16 2 4.9902 -8.2121
46 16 4 0.2416 4.1653
46 16 6 1.3908 -13.6789
46 16 8 6.8222 21.9821
46 16 10 -3.3537 6.6108
46 16 12 13.2145 15.6609
46 16 14 -6.1386 15.6646
46 17 1 19.2063 3.2434
46 17 3 -7.0437 -1.1811
46 17 5 10.5446 6.7397
46 17 7 12.1747 13.6976
46 17 9 6.0184 11.2900
46 17 11 -9.9593 -7.5519
46 17 13 -3.8708 -2.0508
46 18 0 1.5374 -1.2369
46 18 2 -11.0219 0.3898
46 18 4 6.4289 -3.6305
46 18 6 1.7809 1.0478
46 18 8 -5.0364 -14.4804
46 18 10 12.8904 -1.1713
46 18 12 -4.2055 7.7970
46 19 1 19.1211 -8.9069
46 19 3 -6.8583 -1.8830
46 19 5 -19.4641 -20.5585
46 19 7 0.0896 5.9698
46 19 9 -5.1922 -7.7786
46 19 11 -2.2470 -16.3808
46 20 0 7.1755 -1.2722
46 20 2 -14.4011 8.3074
46 20 4 -10.2126 -0.8283
46 20 6 -2.5055 11.8688
46 20 8 -1.5273 18.5424
46 20 10 -6.1143 3.4668
46 21 1 -6.6562 1.2379
46 21 3 6.2072 -0.0231
46 21 5 3.0978 -1.7221
46 21 7 11.5827 14.6592
46 22 0 -3.4066 -1.2133
46 22 2 22.0744 -14.4417
46 22 4 2.0509 7.5518
46 22 6 8.3950 14.3727
46 23 1 13.0421 7.8146
46 23 3 -12.5800 -6.9480
47 0 1 -6.1624 -5.7299
47 0 3 8.7323 -8.0913
47 0 5 -6.0108 -6.1136
47 0 7 -1.7600 2.6383
47 0 9 8.6779 7.7403
47 0 11 -9.5863 9.8882
47 0 13 1.8968 1.9174
47 0 15 22.1108 -22.2427
47 0 17 3.6420 3.7482
47 1 0 18.4745 0.0637
47 1 2 -4.6035 28.4017
47 1 4 -17.2422 -5.7824
47 1 6 3.8451 1.7032
47 1 8 11.1895 -3.9174
47 1 10 14.4050 -4.3030
47 1 12 1.9689 1.7480
47 1 14 0.9108 16.2651
47 1 16 -32.4208 5.7473
47 1 18 2.8731 1.7674
47 2 1 4.6020 -1.0626
47 2 3 -0.0006 18.1832
47 2 5 -4.5591 2.2351
47 2 7 1.0693 11.5852
47 2 9 15.8956 -13.7863
47 2 11 -13.2983 11.0940
47 2 13 -7.1605 13.4780
47 2 15 -3.0461 -0.4757
47 2 17 4.0075 3.0684
47 3 0 10.1790 -0.2095
47 3 2 -13.2596 -31.7923
47 3 4 -5.9240 7.8672
47 3 6 6.9223 -8.9110
47 3 8 3.7719 2.6989
47 3 10 7.5947 -5.8146
47 3 12 0.8218 3.5972
47 3 14 -25.4675 -4.8364
47 3 16 -6.1572 12.1138
47 3 18 3.8619 3.3292
47 4 1 -7.4366 -9.8243
47 4 3 -6.1148 9.5728
47 4 5 -4.1426 -0.1371
47 4 7 -2.4744 8.8127
47 4 9 10.3912 -1.9917
47 4 11 4.8970 -8.2987
47 4 13 -9.2914 5.2772
47 4 15 -0.4277 -1.6174
47 4 17 -8.5697 9.5119
47 5 0 5.1109 -0.3456
47 5 2 6.9447 -15.6243
47 5 4 -7.1999 4.4073
47 5 6 -0.1457 1.0424
47 5 8 -1.4701 6.8817
47 5 10 7.9535 -5.3601
47 5 12 1.8764 -3.1935
47 5 14 14.8989 -26.0065
47 5 16 -1.1601 0.7754
47 5 18 -16.7689 22.6476
47 6 1 2.3301 5.5858
47 6 3 0.2521 -3.7383
47 6 5 0.2659 7.9383
47 6 7 0.4214 1.6731
47 6 9 5.9610 4.2385
47 6 11 0.1751 -12.4262
47 6 13 2.6892 13.4228
47 6 15 -6.4825 -5.3587
47 6 17 -10.4206 -23.0914
47 7 0 4.9016 -0.3392
47 7 2 -8.7641 -2.4518
47 7 4 -2.7992 8.8369
47 7 6 -3.4317 -0.2895
47 7 8 6.9824 9.9290
47 7 10 -1.3683 -0.7815
47 7 12 26.2785 -6.4594
47 7 14 -24.3628 -12.7633
47 7 16 -6.0559 -22.0628
47 8 1 -9.3059 -11.9497
47 8 3 4.2012 -7.8006
47 8 5 0.6579 -6.6199
47 8 7 5.6465 -16.7842
47 8 9 -1.2072 -3.6889
47 8 11 -2.8098 -10.7594
47 8 13 4.4310 -7.4833
47 8 15 16.2372 13.3008
47 8 17 7.7098 -2.6532
47 9 0 -11.6723 -0.3303
47 9 2 1.1133 1.2735
47 9 4 4.4152 -3.4562
47 9 6 -4.6867 2.7977
47 9 8 -10.0994 10.4564
47 9 10 -1.3379 7.0671
47 9 12 -7.0179 -1.3840
47 9 14 -1.2538 16.6510
47 9 16 20.9182 -8.6150
47 10 1 4.8213 -8.9569
47 10 3 1.2949 18.5576
47 10 5 -6.6987 29.0661
47 10 7 3.6990 8.1786
47 10 9 -8.8842 -23.3478
47 10 11 -0.3086 0.8746
47 10 13 7.8948 9.3614
47 10 15 8.6636 -3.8362
47 11 0 -14.7789 -0.3268
47 11 2 -4.5149 13.8231
47 11 4 15.0612 -0.8036
47 11 6 6.6825 2.6409
47 11 8 -3.0826 4.9242
47 11 10 6.3132 7.3902
47 11 12 -3.0065 19.7566
47 11 14 1.0518 -1.3155
47 11 16 -0.3375 -19.7426
47 12 1 -9.0877 9.6293
47 12 3 4.9890 21.3234
47 12 5 7.0185 -4.5235
47 12 7 -13.1025 1.1420
47 12 9 -1.2062 12.3754
47 12 11 -11.4928 -6.1034
47 12 13 2.8390 -4.0811
47 12 15 18.4317 -0.6840
47 13 0 15.5293 -0.3497
47 13 2 -7.1600 -11.6652
47 13 4 -3.8381 0.6910
47 13 6 6.5651 -4.4144
47 13 8 4.5868 14.9862
47 13 10 -18.0188 1.1053
47 13 12 17.5480 -8.1433
47 13 14 -17.2774 -1.1209
47 14 1 -26.2305 19.0891
47 14 3 29.8487 10.2686
47 14 5 -23.7443 0.9335
47 14 7 -7.3607 15.3971
47 14 9 0.0741 -7.7206
47 14 11 -10.8990 0.3467
47 14 13 5.8489 3.9381
47 15 0 4.6856 -0.3528
47 15 2 4.3501 -5.1893
47 15 4 -1.4085 6.3040
47 15 6 15.0356 1.2187
47 15 8 9.7546 -9.2131
47 15 10 1.1972 -5.1145
47 15 12 12.1534 18.2513
47 16 1 -15.0438 -8.6243
47 16 3 15.0715 25.7789
47 16 5 -9.7629 -3.3718
47 16 7 -1.1116 2.3230
47 16 9 -14.0280 -16.5765
47 16 11 -5.8025 -8.2049
47 17 0 14.9627 -0.3045
47 17 2 17.0323 -1.6222
47 17 4 10.6066 -13.5313
47 17 6 3.2829 20.2143
47 17 8 -17.9327 -3.3879
47 17 10 3.4264 20.3522
47 18 1 -3.0974 -6.8656
47 18 3 2.9638 16.3644
47 18 5 -13.8511 -4.6919
47 18 7 -0.8477 -13.9436
47 18 9 -0.0017 -24.3175
47 19 0 24.1489 -0.2380
47 19 2 -4.6117 4.1424
47 19 4 -5.0115 7.8804
47 19 6 -2.7999 9.2597
47 19 8 8.5674 -11.7752
47 20 1 11.8408 4.4700
47 20 3 -2.7842 2.9372
47 20 5 1.2682 10.1328
47 21 0 7.1930 -0.1524
47 21 2 4.2374 2.7381
48 0 0 4.6541 -0.2610
48 0 2 -0.1650 -14.2327
48 0 4 -9.8793 0.5246
48 0 6 -0.0841 15.2290
48 0 8 25.3235 0.6209
48 0 10 0.2184 25.5947
48 0 12 -1.9716 -0.0628
48 0 14 0.3709 6.9960
48 0 16 17.4434 -0.0347
48 1 1 -12.0343 10.4180
48 1 3 -1.5718 6.6181
48 1 5 0.8235 0.1453
48 1 7 -6.0340 4.1059
48 1 9 -3.9437 8.4140
48 1 11 3.1852 7.6016
48 1 13 -0.8400 1.6155
48 1 15 -2.9488 5.5275
48 2 0 -0.9719 -0.0768
48 2 2 14.1976 -11.1663
48 2 4 -16.9366 2.0730
48 2 6 3.8258 -21.2458
48 2 8 2.7325 -15.1086
48 2 10 -4.1730 17.3677
48 2 12 16.2423 6.4979
48 2 14 -6.3098 6.0103
48 2 16 0.1103 -17.7206
48 3 1 13.3401 -8.1285
48 3 3 -1.4514 -10.5393
48 3 5 -5.3299 6.1996
48 3 7 -4.0765 4.6349
48 3 9 0.0790 5.5846
48 3 11 -9.9686 -10.1429
48 3 13 2.1360 5.9478
48 3 15 12.0151 31.9687
48 4 0 4.3068 -0.0768
48 4 2 -1.6821 -13.4193
48 4 4 -0.3164 -4.5093
48 4 6 -5.2372 -4.8247
48 4 8 -9.1680 8.6978
48 4 10 1.2071 -6.2809
48 4 12 -12.1965 -9.6517
48 4 14 3.1388 -1.4731
48 4 16 -2.9741 3.1090
48 5 1 -5.5335 11.4390
48 5 3 15.5133 12.7561
48 5 5 -8.7257 -11.6561
48 5 7 -4.2071 0.9018
48 5 9 -1.9100 -0.3461
48 5 11 0.3253 3.4155
48 5 13 -1.1244 -1.2627
48 5 15 5.1384 -11.3732
48 6 0 24.7558 -0.0268
48 6 2 7.8138 2.3356
48 6 4 -5.9733 15.4660
48 6 6 0.7282 -22.2028
48 6 8 -0.5653 -1.2664
48 6 10 -1.8117 11.4918
48 6 12 2.5573 3.3878
48 6 14 -0.2519 -7.5277
48 7 1 0.3904 -10.1588
48 7 3 10.8458 0.8420
48 7 5 0.2269 3.3909
48 7 7 -1.7760 -2.4321
48 7 9 0.3164 4.1804
48 7 11 0.3278 2.7166
48 7 13 4.6956 5.2616
48 7 15 -4.2236 5.2969
48 8 0 -19.2883 -0.0190
48 8 2 -6.3863 -14.2596
48 8 4 -4.0312 8.0755
48 8 6 8.9897 2.3888
48 8 8 3.7403 1.5749
48 8 10 4.9776 -8.2665
48 8 12 3.7742 2.4127
48 8 14 7.1593 -2.5078
48 9 1 -3.3086 -2.3843
48 9 3 -0.7827 -2.9176
48 9 5 5.6256 -5.5520
48 9 7 6.3046 13.5405
48 9 9 1.1311 17.0711
48 9 11 -13.7560 -13.7323
48 9 13 -6.8262 -7.6954
48 10 0 13.1640 -0.1459
48 10 2 7.9706 -14.1725
48 10 4 -18.3975 14.9872
48 10 6 -4.5935 10.3409
48 10 8 6.4880 9.3414
48 10 10 7.2623 -0.2058
48 10 12 1.6646 -17.0766
48 10 14 5.4896 -4.0330
48 11 1 1.2906 -3.3018
48 11 3 -2.7503 17.2833
48 11 5 3.5972 -1.5489
48 11 7 7.7945 -15.4308
48 11 9 1.5646 6.6717
48 11 11 10.6519 2.8284
48 11 13 -6.4680 -8.8708
48 12 0 -13.5769 -0.4609
48 12 2 15.3374 5.6245
48 12 4 4.2686 7.9911
48 12 6 14.7545 -2.3427
48 12 8 -5.3769 12.2631
48 12 10 2.7559 -23.0781
48 12 12 -14.0562 -14.3115
48 13 1 -25.1694 -23.5171
48 13 3 23.9986 -7.4621
48 13 5 -12.3674 7.9689
48 13 7 3.4689 -16.8898
48 13 9 -5.7738 -6.4799
48 13 11 0.0297 -8.9490
48 14 0 2.4504 -0.7270
48 14 2 19.8004 -2.7959
48 14 4 10.5479 -21.2469
48 14 6 8.4825 -5.0743
48 14 8 12.4109 -18.2284
48 14 10 -11.2857 11.8114
48 15 1 -16.8991 21.2487
48 15 3 21.7252 -10.1391
48 15 5 -6.0500 -18.0835
48 15 7 -1.5995 -29.5943
48 15 9 -2.1471 24.6104
48 16 0 -11.6954 -0.9879
48 16 2 1.4065 11.3098
48 16 4 13.5909 -6.6804
48 16 6 2.7770 -7.6733
48 16 8 -2.4748 -12.3831
48 17 1 -19.5739 7.7487
48 17 3 6.3543 9.3119
48 17 5 -0.1151 12.5839
48 17 7 -4.4890 -3.7906
48 18 0 7.5345 -1.2055
48 18 2 3.4180 -24.6517
48 18 4 -22.7832 5.7242
49 0 1 -4.3322 -3.6465
49 0 3 4.0475 -3.1876
49 0 5 5.6571 5.8625
49 0 7 12.2212 -11.3398
49 0 9 3.6884 3.0643
49 0 11 3.5969 -3.2823
49 0 13 18.8538 18.9964
49 1 0 23.9593 0.0105
49 1 2 2.1326 0.2525
49 1 4 -1.0079 -5.2631
49 1 6 -13.7343 18.7907
49 1 8 -1.6994 1.3520
49 1 10 15.1784 5.5345
49 1 12 1.7340 11.7641
49 1 14 -15.4720 19.7504
49 2 1 0.6502 10.8739
49 2 3 -2.0187 -4.0196
49 2 5 -0.9834 0.2825
49 2 7 -1.1898 -0.2319
49 2 9 -11.2567 -12.1645
49 2 11 4.9734 -9.6118
49 2 13 -2.2113 13.4286
49 3 0 -6.2540 -0.1557
49 3 2 -14.4927 2.5259
49 3 4 -4.0993 -4.3008
49 3 6 1.0506 -4.7628
49 3 8 13.7312 -9.6189
49 3 10 -3.2754 -15.3500
49 3 12 11.3482 -6.0717
49 3 14 2.2237 16.6665
49 4 1 -1.7667 -4.1350
49 4 3 -3.6402 7.8873
49 4 5 24.3322 -15.2185
49 4 7 5.6562 8.6592
49 4 9 1.3027 9.2654
49 4 11 -10.8613 6.7165
49 4 13 -1.1166 -4.1921
49 5 0 -5.6102 -0.2074
49 5 2 6.7609 5.7076
49 5 4 13.5444 5.8481
49 5 6 2.0011 7.2752
49 5 8 -4.7297 -0.6604
49 5 10 -6.8668 10.5471
49 5 12 -1.9472 -5.9445
49 6 1 -11.9280 -4.2715
49 6 3 4.2335 7.0984
49 6 5 -1.1701 15.5709
49 6 7 5.7548 0.9317
49 6 9 -1.8805 10.9743
49 6 11 -1.3846 -9.0348
49 6 13 4.3225 9.1387
49 7 0 15.1897 -0.1817
49 7 2 -2.8786 12.5605
49 7 4 -8.1520 -0.3375
49 7 6 -1.8397 -5.6374
49 7 8 4.6594 -14.1029
49 7 10 7.1453 -1.4209
49 7 12 -13.9415 -7.7843
49 8 1 0.8081 11.7716
49 8 3 -0.3185 -7.5395
49 8 5 9.2917 -11.7059
49 8 7 -2.3524 4.6304
49 8 9 -0.3346 -8.0988
49 8 11 -3.5177 7.1085
49 9 0 14.1728 -0.1542
49 9 2 4.6164 24.7550
49 9 4 19.3816 0.2102
49 9 6 -0.1181 0.7063
49 9 8 -2.1411 -19.6465
49 9 10 -6.3003 9.9035
49 10 1 0.7750 0.0790
49 10 3 -4.8661 -13.8419
49 10 5 11.1761 -2.5136
49 10 7 -3.7354 -16.0651
49 10 9 -7.5973 -11.7874
49 10 11 -8.5807 -6.5197
49 11 0 11.5996 -0.1023
49 11 2 -17.3171 9.3111
49 11 4 -2.4882 -12.3268
49 11 6 9.2462 -12.8370
49 11 8 4.4127 -25.1037
49 11 10 9.9512 4.0066
49 12 1 17.0885 -14.1982
49 12 3 -11.3536 -10.3562
49 12 5 27.8669 -22.8806
49 12 7 -7.7084 -14.3205
49 12 9 -15.6104 10.5171
49 13 0 27.0954 -0.0878
49 13 2 3.2299 -26.8949
49 13 4 9.6715 -0.2776
49 13 6 10.2142 -15.7074
49 13 8 -5.1154 -8.2920
49 14 1 -21.2840 -22.4218
49 14 3 16.7028 0.9617
49 14 5 17.5673 -19.3490
49 15 0 6.3206 -0.0788
49 15 2 -3.7569 -15.7189
49 15 4 16.7615 9.8576
50 0 0 -18.3974 -0.5804
50 0 2 -0.1441 -25.7348
50 0 4 -29.7477 0.2537
50 0 6 0.0489 20.1441
50 0 8 10.6384 0.3333
50 0 10 0.4015 -16.9237
50 1 1 -1.7899 10.0266
50 1 3 6.2279 -3.4012
50 1 5 3.8811 -7.6398
50 1 7 4.8018 2.7256
50 1 9 -2.6007 -8.9759
50 1 11 11.8434 17.0348
50 2 0 -20.7122 -0.5137
50 2 2 4.8203 30.7144
50 2 4 0.1540 -14.1462
50 2 6 0.9966 -8.6117
50 2 8 -12.1166 -1.5868
50 2 10 -5.6700 -2.9901
50 3 1 6.7310 11.1625
50 3 3 -5.0248 -18.8112
50 3 5 -12.0590 11.9457
50 3 7 4.5217 5.5388
50 3 9 -9.3761 10.0780
50 4 0 13.0798 -0.4168
50 4 2 -6.3400 8.7172
50 4 4 -6.6994 -7.8590
50 4 6 -2.9070 0.8087
50 4 8 -3.1963 2.3342
50 4 10 -1.8080 -13.4894
50 5 1 14.7680 -3.1689
50 5 3 17.4246 -4.0603
50 5 5 -2.2197 10.9796
50 5 7 -18.5071 -7.8122
50 5 9 -3.0211 15.1872
50 6 0 -11.9937 -0.3482
50 6 2 -8.0455 5.8287
50 6 4 8.2803 13.9786
50 6 6 1.0047 -3.8609
50 6 8 10.8882 -4.2087
50 7 1 -10.5045 -14.6126
50 7 3 -3.3929 13.5805
50 7 5 -5.4662 8.1690
50 7 7 0.6658 -26.7101
50 7 9 0.9719 1.8345
50 8 0 -11.6918 -0.2642
50 8 2 7.5289 -19.1631
50 8 4 -5.4748 -4.3064
50 8 6 -1.1301 -2.3161
50 8 8 -1.1036 1.4451
50 9 1 -10.6021 0.5204
50 9 3 0.1070 -2.0036
50 9 5 6.3569 18.1148
50 9 7 -5.0419 8.6530
50 10 0 -11.9514 -0.2764
50 10 2 -11.6324 9.3652
50 10 4 10.5490 11.2904
50 10 6 -3.9423 -17.6716
50 11 1 -0.4761 -1.9424
50 11 3 1.3877 -10.2994
50 11 5 2.4680 4.1819
50 12 0 -16.3532 -0.4662
50 12 2 -0.5561 5.4271
51 0 1 -1.0545 -0.2153
51 0 3 -8.0140 8.7402
51 0 5 4.2052 4.6106
51 1 0 11.8132 -0.0917
51 1 2 -11.4287 5.2880
51 1 4 0.9184 3.1038
51 1 6 -14.6397 15.3444
51 2 1 -5.6893 8.2460
51 2 3 -1.8077 9.0492
51 2 5 3.4157 -9.1124
51 3 0 12.8710 0.0307
51 3 2 4.4771 -7.7196
51 3 4 -0.0796 -0.0188
51 3 6 -7.6276 5.8932
51 4 1 -5.4344 -2.3457
51 4 3 1.7853 7.3473
51 4 5 -2.6150 -15.1335
51 5 0 -14.9132 0.0227
51 5 2 -11.8031 -13.4256
51 5 4 -8.0285 24.2585
51 6 1 -1.1491 10.0695
51 6 3 1.7332 1.9072
51 7 0 -37.0657 0.0905
51 7 2 7.9370 -6.8866
0 0 0 0.0 0.0
;
_shelx_fab_checksum              70852
_olex2_submission_special_instructions 'No special instructions were received'
loop_
_space_group_symop_operation_xyz
'x, y, z'
'-x+1/2, -y+1/2, z+1/2'
'-y, x+1/2, z+1/4'
'y+1/2, -x, z+3/4'
'-x+1/2, y, -z+3/4'
'x, -y+1/2, -z+1/4'
'y+1/2, x+1/2, -z+1/2'
'-y, -x, -z'
'x+1/2, y+1/2, z+1/2'
'-x+1, -y+1, z+1'
'-y+1/2, x+1, z+3/4'
'y+1, -x+1/2, z+5/4'
'-x+1, y+1/2, -z+5/4'
'x+1/2, -y+1, -z+3/4'
'y+1, x+1, -z+1'
'-y+1/2, -x+1/2, -z+1/2'
loop_
_atom_site_label
_atom_site_type_symbol
_atom_site_fract_x
_atom_site_fract_y
_atom_site_fract_z
_atom_site_U_iso_or_equiv
_atom_site_adp_type
_atom_site_occupancy
_atom_site_site_symmetry_order
_atom_site_calc_flag
_atom_site_refinement_flags_posn
_atom_site_refinement_flags_adp
_atom_site_refinement_flags_occupancy
_atom_site_disorder_assembly
_atom_site_disorder_group
Zr1 Zr 0.500000 0.500000 0.83440(5) 0.1457(5) Uani 1 2 d S T P . .
Zr2 Zr 0.52086(2) 0.55565(2) 0.76752(3) 0.1532(4) Uani 1 1 d D . . . .
O4 O 0.53418(18) 0.58224(19) 0.8148(2) 0.184 Uiso 1 1 d DR U . . .
O5 O 0.52541(18) 0.55033(19) 0.8627(2) 0.184 Uiso 1 1 d DR U . . .
Zr3 Zr 0.44865(2) 0.52175(2) 0.76731(3) 0.1498(4) Uani 1 1 d . . . . .
Zr4 Zr 0.500000 0.500000 0.70157(5) 0.1564(6) Uani 1 2 d S T P . .
O9 O 0.48154(13) 0.54003(12) 0.80507(16) 0.1374(18) Uani 1 1 d . U . . .
O10 O 0.48377(8) 0.53570(9) 0.73322(13) 0.0977(12) Uani 1 1 d . U . . .
O15 O 0.33804(14) 0.85384(10) 0.79613(16) 0.1375(19) Uani 1 1 d . U . . .
H15 H 0.332676 0.855176 0.816848 0.206 Uiso 1 1 calc GR . . . .
C55 C 0.30750(17) 0.77741(15) 0.7248(2) 0.113(2) Uani 1 1 d D U . . .
H55A H 0.286749 0.770803 0.717508 0.135 Uiso 1 1 calc R . . . .
H55B H 0.319606 0.782676 0.703949 0.135 Uiso 1 1 calc R . . . .
O7 O 0.49186(16) 0.59534(14) 0.7723(2) 0.175(3) Uani 1 1 d D U . . .
C56 C 0.32367(18) 0.75174(18) 0.7460(2) 0.126(2) Uani 1 1 d D U . . .
H56A H 0.308981 0.740468 0.760791 0.151 Uiso 1 1 calc R . . . .
H56B H 0.334545 0.737041 0.730769 0.151 Uiso 1 1 calc R . . . .
O13 O 0.46811(10) 0.48602(10) 0.79474(15) 0.1233(17) Uani 1 1 d . U . . .
C54 C 0.30554(17) 0.80554(17) 0.750000 0.113(3) Uani 1 2 d DS TU P . .
C37 C 0.37407(12) 0.76257(9) 0.78445(16) 0.132(3) Uani 1 1 d D U . . .
C38 C 0.39072(10) 0.78454(12) 0.80395(15) 0.137(3) Uani 1 1 d DG U . . .
H38 H 0.409233 0.778820 0.815148 0.164 Uiso 1 1 calc R . . . .
C39 C 0.37969(11) 0.81508(11) 0.80671(15) 0.137(3) Uani 1 1 d DG U . . .
C40 C 0.35202(12) 0.82363(8) 0.78997(16) 0.127(2) Uani 1 1 d DG U . . .
C41 C 0.33537(10) 0.80166(11) 0.77047(15) 0.115(2) Uani 1 1 d DG U . . .
C42 C 0.34640(11) 0.77112(10) 0.76771(15) 0.122(2) Uani 1 1 d DG U . . .
C57 C 0.4605(3) 0.5962(3) 0.7736(3) 0.199(4) Uani 1 1 d D U . . .
O1 O 0.90945(12) 0.51004(15) 0.98384(19) 0.149(2) Uani 1 1 d D U . . .
C62 C 0.9059(2) 0.5399(2) 0.9799(3) 0.165(3) Uani 1 1 d D U . . .
C9 C 0.81532(15) 0.53805(14) 0.9771(2) 0.222(5) Uani 1 1 d . U . . .
H9 H 0.798288 0.524506 0.975983 0.267 Uiso 1 1 calc R . . . .
C10 C 0.84550(18) 0.52610(15) 0.9799(2) 0.182(4) Uani 1 1 d G U . . .
H10 H 0.848653 0.504557 0.980742 0.219 Uiso 1 1 calc R . . . .
C1 C 0.87095(14) 0.54634(19) 0.9815(2) 0.186(4) Uani 1 1 d G U . . .
C2 C 0.86624(13) 0.57853(18) 0.9803(2) 0.216(5) Uani 1 1 d G U . . .
H2 H 0.883271 0.592070 0.981359 0.259 Uiso 1 1 calc R . . . .
C3 C 0.83606(14) 0.59048(14) 0.97743(15) 0.235(5) Uani 1 1 d G U . . .
C8 C 0.81060(12) 0.57024(14) 0.97582(15) 0.255(6) Uani 1 1 d G U . . .
C7 C 0.78043(13) 0.5822(2) 0.9730(2) 0.292(7) Uani 1 1 d G U . . .
H7 H 0.763396 0.568650 0.971890 0.351 Uiso 1 1 calc R . . . .
C6 C 0.77571(19) 0.6144(2) 0.9717(3) 0.316(7) Uani 1 1 d DG U . . .
C5 C 0.8012(2) 0.63463(15) 0.9733(2) 0.281(7) Uani 1 1 d G U . . .
H5 H 0.798012 0.656164 0.972507 0.337 Uiso 1 1 calc R . . . .
C4 C 0.8313(2) 0.62267(13) 0.9762(2) 0.251(6) Uani 1 1 d G U . . .
H4 H 0.848376 0.636216 0.977267 0.302 Uiso 1 1 calc R . . . .
C36 C 0.41630(15) 0.63603(10) 0.77973(18) 0.219(5) Uani 1 1 d D U . . .
H36 H 0.402269 0.619621 0.782946 0.262 Uiso 1 1 calc R . . . .
C27 C 0.44769(15) 0.62977(13) 0.77307(19) 0.199(4) Uani 1 1 d DG U . . .
C28 C 0.46866(12) 0.65430(16) 0.76826(18) 0.202(4) Uani 1 1 d DG U . . .
H28 H 0.489668 0.650110 0.763798 0.242 Uiso 1 1 calc R . . . .
C29 C 0.45824(11) 0.68510(15) 0.77011(18) 0.197(4) Uani 1 1 d G U . . .
H29 H 0.472270 0.701513 0.766888 0.237 Uiso 1 1 calc R . . . .
C30 C 0.42685(11) 0.69136(10) 0.77677(11) 0.189(4) Uani 1 1 d G U . . .
C35 C 0.40588(11) 0.66683(10) 0.78158(12) 0.195(4) Uani 1 1 d G U . . .
C34 C 0.37448(11) 0.67310(14) 0.78824(17) 0.170(4) Uani 1 1 d G U . . .
H34 H 0.360451 0.656681 0.791460 0.204 Uiso 1 1 calc R . . . .
C33 C 0.36406(12) 0.70389(15) 0.79009(16) 0.166(3) Uani 1 1 d G U . . .
H33 H 0.343052 0.708083 0.794551 0.200 Uiso 1 1 calc R . . . .
C32 C 0.38503(16) 0.72843(12) 0.78528(16) 0.166(3) Uani 1 1 d DG U . . .
C31 C 0.41642(15) 0.72216(10) 0.77862(17) 0.173(4) Uani 1 1 d G U . . .
H31 H 0.430450 0.738575 0.775403 0.207 Uiso 1 1 calc R . . . .
O2 O 0.93118(15) 0.55844(16) 0.9881(2) 0.187(3) Uani 1 1 d D U . . .
O8 O 0.43789(15) 0.57590(13) 0.77436(19) 0.166(3) Uani 1 1 d D U . . .
O3 O 0.6572(4) 0.6705(5) 0.9540(7) 0.423(10) Uani 1 1 d D U . . .
H3 H 0.663820 0.686257 0.944104 0.634 Uiso 1 1 calc GR . . . .
C12 C 0.7339(4) 0.6516(3) 0.9900(4) 0.384(9) Uani 1 1 d D U . . .
C11 C 0.7430(3) 0.6249(3) 0.9716(4) 0.368(9) Uani 1 1 d DG U . . .
C16 C 0.7222(3) 0.6106(3) 0.9484(4) 0.408(11) Uani 1 1 d DG U . . .
H16 H 0.728314 0.592767 0.936050 0.490 Uiso 1 1 calc R . . . .
C15 C 0.6924(3) 0.6229(3) 0.9436(4) 0.438(11) Uani 1 1 d DG U . . .
C14 C 0.6833(3) 0.6496(4) 0.9620(5) 0.422(11) Uani 1 1 d DG U . . .
C13 C 0.7041(4) 0.6639(3) 0.9852(5) 0.404(10) Uani 1 1 d DG U . . .
C51 C 0.42303(15) 0.89041(15) 0.82970(17) 0.191(5) Uani 1 1 d . U . . .
H51 H 0.428207 0.909272 0.818898 0.229 Uiso 1 1 calc R . . . .
C52 C 0.40719(15) 0.86744(19) 0.81081(17) 0.191(4) Uani 1 1 d G U . . .
H52 H 0.401774 0.870928 0.787371 0.229 Uiso 1 1 calc R . . . .
C43 C 0.39944(13) 0.83925(16) 0.8269(2) 0.165(4) Uani 1 1 d DG U . . .
C44 C 0.40754(13) 0.83404(12) 0.8620(2) 0.181(4) Uani 1 1 d G U . . .
H44 H 0.402357 0.815178 0.872773 0.217 Uiso 1 1 calc R . . . .
C45 C 0.42338(10) 0.85701(11) 0.88086(17) 0.187(4) Uani 1 1 d G U . . .
C50 C 0.43112(10) 0.88520(11) 0.86473(17) 0.187(4) Uani 1 1 d G U . . .
C49 C 0.44696(13) 0.90817(12) 0.8836(2) 0.200(5) Uani 1 1 d DG U . . .
H49 H 0.452138 0.927031 0.872814 0.240 Uiso 1 1 calc R . . . .
C48 C 0.45505(13) 0.90296(17) 0.9186(2) 0.194(5) Uani 1 1 d DG U . . .
C47 C 0.44731(14) 0.87477(19) 0.93478(17) 0.175(4) Uani 1 1 d DG U . . .
H47 H 0.452722 0.871283 0.958218 0.210 Uiso 1 1 calc R . . . .
C46 C 0.43147(14) 0.85180(15) 0.91589(17) 0.209(5) Uani 1 1 d G U . . .
H46 H 0.426289 0.832938 0.926692 0.251 Uiso 1 1 calc R . . . .
C59 C 0.6981(5) 0.6981(5) 1.000000 0.384(12) Uani 1 2 d DS TU P . .
C58 C 0.5416(3) 0.5680(3) 0.8427(3) 0.291(6) Uani 1 1 d D U . . .
C60 C 0.7257(5) 0.6993(5) 1.0261(5) 0.381(11) Uani 1 1 d D U . . .
H60A H 0.733953 0.720356 1.028180 0.457 Uiso 1 1 calc R . . . .
H60B H 0.719386 0.691989 1.049298 0.457 Uiso 1 1 calc R . . . .
O14 O 0.48587(18) 0.46421(18) 0.6665(2) 0.218(4) Uani 1 1 d D U . . .
H14A H 0.464744 0.461371 0.661435 0.261 Uiso 1 1 calc DR . . . .
H14B H 0.500789 0.451314 0.656040 0.261 Uiso 1 1 calc DR . . . .
C61 C 0.7492(6) 0.6779(5) 1.0103(7) 0.372(10) Uani 1 1 d D U . . .
H61A H 0.762215 0.669151 1.028814 0.446 Uiso 1 1 calc R . . . .
H61B H 0.762665 0.689704 0.994513 0.446 Uiso 1 1 calc R . . . .
O6 O 0.53530(11) 0.58193(10) 0.72259(17) 0.137(2) Uani 1 1 d D U . . .
H6A H 0.556512 0.584518 0.717811 0.165 Uiso 1 1 calc DR . . . .
H6B H 0.520402 0.590810 0.707749 0.165 Uiso 1 1 calc DR . . . .
O17 O 0.47732(14) 0.95682(19) 0.9238(2) 0.176(3) Uani 1 1 d D U . . .
C53 C 0.4701(3) 0.9295(3) 0.9395(4) 0.182(5) Uani 1 1 d D U . . .
O16 O 0.47252(16) 0.91784(15) 0.9683(2) 0.151(3) Uani 1 1 d D U . . .
O11 O 0.44187(9) 0.48809(10) 0.73345(16) 0.1334(19) Uani 1 1 d . U . . .
C23 C 0.5831(3) 0.5699(3) 0.8912(4) 0.477(12) Uani 1 1 d D U . . .
H23 H 0.568986 0.560342 0.906518 0.572 Uiso 1 1 calc R . . . .
C22 C 0.5755(3) 0.5734(3) 0.8558(4) 0.428(10) Uani 1 1 d DG U . . .
C21 C 0.5966(4) 0.5877(4) 0.8329(3) 0.497(12) Uani 1 1 d DG U . . .
H21 H 0.591483 0.590046 0.809175 0.596 Uiso 1 1 calc R . . . .
C20 C 0.6252(3) 0.5985(4) 0.8454(3) 0.512(13) Uani 1 1 d G U . . .
H20 H 0.639266 0.608011 0.830140 0.614 Uiso 1 1 calc R . . . .
C19 C 0.6328(3) 0.5949(2) 0.8809(3) 0.515(12) Uani 1 1 d G U . . .
C24 C 0.6117(3) 0.5807(2) 0.9038(3) 0.509(12) Uani 1 1 d G U . . .
C25 C 0.6193(3) 0.5771(4) 0.9392(3) 0.519(13) Uani 1 1 d G U . . .
H25 H 0.605188 0.567589 0.954520 0.622 Uiso 1 1 calc R . . . .
C26 C 0.6479(4) 0.5879(4) 0.9518(4) 0.512(13) Uani 1 1 d DG U . . .
H26 H 0.652971 0.585555 0.975487 0.614 Uiso 1 1 calc R . . . .
C17 C 0.6690(3) 0.6022(3) 0.9289(4) 0.482(11) Uani 1 1 d DG U . . .
C18 C 0.6614(3) 0.6057(3) 0.8935(4) 0.504(13) Uani 1 1 d DG U . . .
H18 H 0.675470 0.615259 0.878145 0.604 Uiso 1 1 calc R . . . .
O12 O 0.4545(2) 0.51602(19) 0.8626(3) 0.233(4) Uani 1 1 d D U . . .
H12A H 0.444980 0.534799 0.856255 0.280 Uiso 1 1 calc DR . . . .
H12B H 0.445717 0.503652 0.880219 0.280 Uiso 1 1 calc DR . . . .
loop_
_atom_site_aniso_label
_atom_site_aniso_U_11
_atom_site_aniso_U_22
_atom_site_aniso_U_33
_atom_site_aniso_U_23
_atom_site_aniso_U_13
_atom_site_aniso_U_12
Zr1 0.0839(6) 0.0961(7) 0.2572(17) 0.000 0.000 0.0062(5)
Zr2 0.1270(6) 0.0751(4) 0.2575(11) -0.0203(6) 0.0304(7) -0.0293(4)
Zr3 0.0652(4) 0.1044(5) 0.2798(12) 0.0156(7) 0.0024(6) 0.0043(4)
Zr4 0.1566(11) 0.0705(6) 0.2422(16) 0.000 0.000 0.0289(6)
O9 0.124(4) 0.113(4) 0.175(5) 0.022(3) 0.029(4) 0.013(3)
O10 0.0542(19) 0.086(2) 0.153(4) -0.039(2) -0.002(2) -0.0098(18)
O15 0.141(4) 0.068(3) 0.203(5) -0.031(3) -0.008(4) 0.020(3)
C55 0.109(5) 0.094(4) 0.136(6) 0.000(4) -0.017(4) 0.005(4)
O7 0.128(4) 0.108(4) 0.289(8) -0.009(5) -0.015(5) 0.003(4)
C56 0.105(5) 0.106(5) 0.167(7) -0.006(5) -0.008(5) 0.008(4)
O13 0.088(3) 0.091(3) 0.191(5) -0.017(3) -0.032(3) -0.009(2)
C54 0.107(4) 0.107(4) 0.126(8) 0.007(4) -0.007(4) -0.006(5)
C37 0.109(5) 0.096(5) 0.190(8) -0.007(5) -0.008(5) 0.017(4)
C38 0.117(6) 0.111(5) 0.184(8) -0.017(5) 0.000(5) 0.037(5)
C39 0.111(5) 0.108(5) 0.192(8) -0.007(5) -0.005(5) 0.027(5)
C40 0.108(5) 0.096(5) 0.176(7) -0.010(5) -0.024(5) 0.006(4)
C41 0.095(4) 0.099(5) 0.150(6) 0.004(5) -0.008(5) 0.017(4)
C42 0.102(5) 0.099(5) 0.166(7) -0.006(5) -0.022(5) 0.025(4)
C57 0.197(10) 0.140(8) 0.261(11) -0.020(8) -0.033(10) -0.018(8)
O1 0.101(3) 0.134(4) 0.211(6) 0.032(4) 0.034(4) 0.023(3)
C62 0.089(5) 0.183(9) 0.221(9) 0.027(8) -0.026(6) 0.015(6)
C9 0.177(10) 0.186(10) 0.304(13) 0.008(11) 0.011(10) -0.003(9)
C10 0.122(6) 0.140(7) 0.285(11) 0.036(8) 0.005(8) 0.039(6)
C1 0.113(6) 0.175(8) 0.269(10) 0.022(9) -0.013(7) -0.008(7)
C2 0.159(9) 0.200(11) 0.289(12) -0.002(11) -0.006(10) 0.012(9)
C3 0.172(10) 0.225(12) 0.307(12) -0.037(12) 0.034(11) -0.019(10)
C8 0.228(12) 0.217(12) 0.320(12) -0.044(12) 0.022(12) 0.002(11)
C7 0.281(15) 0.249(14) 0.346(15) -0.063(14) -0.008(15) 0.010(14)
C6 0.276(15) 0.271(15) 0.400(15) -0.046(15) -0.013(15) -0.015(14)
C5 0.209(13) 0.244(14) 0.391(16) -0.030(13) 0.001(15) -0.040(12)
C4 0.192(11) 0.213(12) 0.349(14) -0.030(13) 0.013(12) 0.007(11)
C36 0.200(11) 0.202(11) 0.254(11) -0.031(10) -0.021(10) -0.024(10)
C27 0.158(8) 0.169(9) 0.271(11) -0.036(9) 0.011(9) -0.007(8)
C28 0.172(9) 0.144(8) 0.288(12) -0.019(9) -0.015(9) -0.012(7)
C29 0.163(8) 0.138(8) 0.291(12) -0.014(9) -0.009(9) 0.001(7)
C30 0.156(8) 0.167(9) 0.244(10) -0.009(8) -0.025(8) 0.009(7)
C35 0.161(9) 0.187(10) 0.238(10) -0.018(9) -0.006(8) 0.004(8)
C34 0.167(8) 0.132(7) 0.211(9) 0.003(7) 0.010(8) -0.001(7)
C33 0.155(8) 0.122(7) 0.222(9) -0.003(7) 0.005(7) 0.019(6)
C32 0.142(7) 0.138(7) 0.217(9) -0.001(7) -0.009(7) 0.013(6)
C31 0.168(8) 0.115(6) 0.235(10) -0.017(7) -0.005(8) -0.004(6)
O2 0.115(4) 0.168(6) 0.279(8) -0.004(6) 0.030(5) 0.036(4)
O8 0.139(5) 0.106(4) 0.252(7) -0.043(4) -0.046(5) 0.063(4)
O3 0.37(2) 0.46(3) 0.43(2) 0.01(2) -0.054(18) 0.116(19)
C12 0.351(19) 0.39(2) 0.41(2) 0.017(18) -0.002(17) -0.008(18)
C11 0.339(18) 0.347(18) 0.417(19) -0.011(16) -0.016(18) -0.011(17)
C16 0.38(2) 0.39(2) 0.45(2) -0.008(19) -0.03(2) -0.02(2)
C15 0.42(2) 0.43(2) 0.47(2) 0.024(19) -0.02(2) -0.015(19)
C14 0.40(2) 0.43(2) 0.44(2) 0.02(2) -0.01(2) 0.02(2)
C13 0.38(2) 0.406(19) 0.42(2) 0.007(18) -0.004(18) 0.02(2)
C51 0.148(8) 0.150(8) 0.275(13) -0.012(9) 0.014(9) -0.004(7)
C52 0.165(9) 0.150(8) 0.259(11) -0.026(9) -0.009(8) 0.025(8)
C43 0.144(7) 0.133(7) 0.217(10) -0.015(8) 0.001(8) 0.024(6)
C44 0.159(9) 0.155(8) 0.229(11) -0.003(9) 0.007(9) 0.000(7)
C45 0.180(9) 0.159(8) 0.221(11) -0.015(9) 0.011(9) -0.012(8)
C50 0.161(9) 0.166(9) 0.232(12) -0.024(9) 0.013(9) -0.005(8)
C49 0.159(9) 0.174(9) 0.266(13) -0.028(10) 0.019(9) 0.024(8)
C48 0.122(7) 0.176(9) 0.283(13) -0.050(10) -0.035(8) 0.030(7)
C47 0.123(7) 0.159(9) 0.243(11) -0.023(8) 0.007(7) -0.014(7)
C46 0.164(9) 0.181(10) 0.281(14) -0.021(11) -0.002(10) 0.001(8)
C59 0.373(17) 0.373(17) 0.41(3) -0.006(17) 0.006(17) 0.03(3)
C58 0.294(13) 0.320(13) 0.260(12) 0.143(11) 0.108(11) 0.118(12)
C60 0.35(2) 0.38(2) 0.41(2) -0.027(19) -0.018(19) 0.01(2)
O14 0.186(7) 0.184(7) 0.284(9) -0.057(6) -0.109(6) -0.011(5)
C61 0.35(2) 0.38(2) 0.39(2) -0.013(19) -0.023(18) -0.012(19)
O6 0.082(3) 0.092(3) 0.239(6) 0.041(3) 0.042(3) 0.005(2)
O17 0.092(4) 0.182(6) 0.253(8) -0.103(6) -0.020(4) 0.027(4)
C53 0.111(7) 0.194(11) 0.241(13) -0.086(11) -0.021(9) 0.013(8)
O16 0.127(4) 0.126(4) 0.202(7) -0.010(4) 0.017(5) -0.084(4)
O11 0.055(2) 0.100(3) 0.246(6) 0.023(3) -0.020(3) 0.052(2)
C23 0.43(2) 0.53(2) 0.47(2) 0.08(2) 0.02(2) 0.05(2)
C22 0.39(2) 0.483(19) 0.41(2) 0.09(2) 0.074(19) 0.053(19)
C21 0.45(3) 0.55(2) 0.50(2) 0.07(2) 0.05(2) 0.03(2)
C20 0.46(3) 0.57(2) 0.50(3) 0.05(3) 0.02(2) 0.00(2)
C19 0.47(2) 0.56(2) 0.52(2) 0.06(2) 0.01(2) 0.00(2)
C24 0.46(2) 0.56(2) 0.51(2) 0.07(2) 0.00(2) 0.04(2)
C25 0.47(3) 0.57(3) 0.52(3) 0.07(3) 0.01(2) 0.04(2)
C26 0.47(3) 0.54(3) 0.52(2) 0.06(2) -0.02(2) 0.02(2)
C17 0.45(2) 0.49(2) 0.50(2) 0.06(2) -0.02(2) -0.01(2)
C18 0.46(3) 0.52(2) 0.53(3) 0.05(3) -0.01(2) -0.02(2)
O12 0.211(8) 0.195(8) 0.295(10) 0.024(7) 0.081(8) 0.041(6)
loop_
_atom_type_symbol
_atom_type_description
_atom_type_scat_dispersion_real
_atom_type_scat_dispersion_imag
_atom_type_scat_source
C C 0.0033 0.0016 'International Tables Vol C Tables 4.2.6.8 and 6.1.1.4'
H H 0.0000 0.0000 'International Tables Vol C Tables 4.2.6.8 and 6.1.1.4'
O O 0.0106 0.0060 'International Tables Vol C Tables 4.2.6.8 and 6.1.1.4'
Zr Zr -2.9673 0.5597 'International Tables Vol C Tables 4.2.6.8 and 6.1.1.4'
loop_
_geom_angle_atom_site_label_1
_geom_angle_atom_site_label_2
_geom_angle_atom_site_label_3
_geom_angle
_geom_angle_site_symmetry_1
_geom_angle_site_symmetry_3
_geom_angle_publ_flag
Zr2 Zr1 Zr2 90.05(5) 10_554 . ?
O5 Zr1 Zr2 69.19(18) . . ?
O5 Zr1 Zr2 158.40(19) . 10_554 ?
O5 Zr1 Zr2 158.41(19) 10_554 . ?
O5 Zr1 Zr2 69.19(18) 10_554 10_554 ?
O5 Zr1 O5 132.0(4) 10_554 . ?
O5 Zr1 Zr3 104.77(18) . 10_554 ?
O5 Zr1 Zr3 109.78(17) . . ?
O5 Zr1 Zr3 109.78(17) 10_554 10_554 ?
O5 Zr1 Zr3 104.77(18) 10_554 . ?
Zr3 Zr1 Zr2 57.57(3) 10_554 10_554 ?
Zr3 Zr1 Zr2 57.57(3) . . ?
Zr3 Zr1 Zr2 60.29(3) 10_554 . ?
Zr3 Zr1 Zr2 60.29(3) . 10_554 ?
Zr3 Zr1 Zr3 86.23(5) 10_554 . ?
O9 Zr1 Zr2 93.95(17) . 10_554 ?
O9 Zr1 Zr2 38.01(14) 10_554 10_554 ?
O9 Zr1 Zr2 38.01(14) . . ?
O9 Zr1 Zr2 93.95(17) 10_554 . ?
O9 Zr1 O5 73.6(2) 10_554 10_554 ?
O9 Zr1 O5 73.6(2) . . ?
O9 Zr1 O5 134.1(2) 10_554 . ?
O9 Zr1 O5 134.1(2) . 10_554 ?
O9 Zr1 Zr3 36.23(16) 10_554 10_554 ?
O9 Zr1 Zr3 93.68(15) 10_554 . ?
O9 Zr1 Zr3 93.68(15) . 10_554 ?
O9 Zr1 Zr3 36.23(17) . . ?
O9 Zr1 O9 118.9(3) 10_554 . ?
O9 Zr1 O12 140.0(3) 10_554 . ?
O9 Zr1 O12 72.7(3) 10_554 10_554 ?
O9 Zr1 O12 72.6(3) . . ?
O9 Zr1 O12 140.0(3) . 10_554 ?
O13 Zr1 Zr2 31.85(12) . 10_554 ?
O13 Zr1 Zr2 81.04(15) . . ?
O13 Zr1 Zr2 81.04(15) 10_554 10_554 ?
O13 Zr1 Zr2 31.85(12) 10_554 . ?
O13 Zr1 O5 78.1(2) 10_554 . ?
O13 Zr1 O5 141.7(2) 10_554 10_554 ?
O13 Zr1 O5 78.1(2) . 10_554 ?
O13 Zr1 O5 141.7(2) . . ?
O13 Zr1 Zr3 31.89(13) . . ?
O13 Zr1 Zr3 31.89(13) 10_554 10_554 ?
O13 Zr1 Zr3 79.10(15) 10_554 . ?
O13 Zr1 Zr3 79.10(15) . 10_554 ?
O13 Zr1 O9 68.1(2) 10_554 10_554 ?
O13 Zr1 O9 69.51(19) 10_554 . ?
O13 Zr1 O9 68.1(2) . . ?
O13 Zr1 O9 69.51(19) . 10_554 ?
O13 Zr1 O13 89.4(3) 10_554 . ?
O13 Zr1 O12 82.6(3) . . ?
O13 Zr1 O12 141.6(2) . 10_554 ?
O13 Zr1 O12 82.6(3) 10_554 10_554 ?
O13 Zr1 O12 141.6(2) 10_554 . ?
O12 Zr1 Zr2 108.2(2) 10_554 . ?
O12 Zr1 Zr2 108.2(2) . 10_554 ?
O12 Zr1 Zr2 109.8(2) 10_554 10_554 ?
O12 Zr1 Zr2 109.8(2) . . ?
O12 Zr1 O5 85.3(3) 10_554 10_554 ?
O12 Zr1 O5 73.0(3) . 10_554 ?
O12 Zr1 O5 73.0(3) 10_554 . ?
O12 Zr1 O5 85.3(3) . . ?
O12 Zr1 Zr3 74.4(3) . . ?
O12 Zr1 Zr3 160.3(3) . 10_554 ?
O12 Zr1 Zr3 74.4(3) 10_554 10_554 ?
O12 Zr1 Zr3 160.3(3) 10_554 . ?
O12 Zr1 O12 125.2(5) 10_554 . ?
O4 Zr2 Zr1 80.2(2) . . ?
O4 Zr2 Zr3 117.1(2) . . ?
O4 Zr2 Zr3 112.8(2) . 10_554 ?
O4 Zr2 Zr4 169.2(2) . . ?
O4 Zr2 O9 80.4(3) . . ?
O4 Zr2 O10 149.5(2) . . ?
Zr3 Zr2 Zr1 59.70(3) . . ?
Zr3 Zr2 Zr1 58.42(3) 10_554 . ?
Zr3 Zr2 Zr3 86.35(2) . 10_554 ?
Zr3 Zr2 Zr4 57.95(2) 10_554 . ?
Zr3 Zr2 Zr4 59.24(3) . . ?
Zr4 Zr2 Zr1 89.55(3) . . ?
O9 Zr2 Zr1 35.83(13) . . ?
O9 Zr2 Zr3 89.95(13) . 10_554 ?
O9 Zr2 Zr3 38.50(16) . . ?
O9 Zr2 Zr4 93.35(16) . . ?
O10 Zr2 Zr1 89.02(13) . . ?
O10 Zr2 Zr3 35.86(12) . . ?
O10 Zr2 Zr3 84.44(10) . 10_554 ?
O10 Zr2 Zr4 32.25(9) . . ?
O10 Zr2 O9 74.4(2) . . ?
O7 Zr2 Zr1 109.0(2) . . ?
O7 Zr2 O4 70.5(3) . . ?
O7 Zr2 Zr3 164.6(2) . 10_554 ?
O7 Zr2 Zr3 79.05(18) . . ?
O7 Zr2 Zr4 116.8(2) . . ?
O7 Zr2 O9 75.6(3) . . ?
O7 Zr2 O10 86.6(2) . . ?
O7 Zr2 O13 140.1(3) . 10_554 ?
O7 Zr2 O6 79.4(3) . . ?
O13 Zr2 Zr1 31.92(13) 10_554 . ?
O13 Zr2 O4 88.8(3) 10_554 . ?
O13 Zr2 Zr3 30.08(15) 10_554 10_554 ?
O13 Zr2 Zr3 81.08(13) 10_554 . ?
O13 Zr2 Zr4 80.59(16) 10_554 . ?
O13 Zr2 O9 67.41(19) 10_554 . ?
O13 Zr2 O10 97.02(19) 10_554 . ?
O13 Zr2 O6 140.37(19) 10_554 . ?
O2 Zr2 Zr1 110.9(2) 5_656 . ?
O2 Zr2 O4 78.3(3) 5_656 . ?
O2 Zr2 Zr3 157.4(2) 5_656 . ?
O2 Zr2 Zr3 71.9(2) 5_656 10_554 ?
O2 Zr2 Zr4 102.4(2) 5_656 . ?
O2 Zr2 O9 143.6(3) 5_656 . ?
O2 Zr2 O10 132.1(3) 5_656 . ?
O2 Zr2 O7 123.1(3) 5_656 . ?
O2 Zr2 O13 83.0(2) 5_656 10_554 ?
O2 Zr2 O6 66.4(3) 5_656 . ?
O6 Zr2 Zr1 170.27(15) . . ?
O6 Zr2 O4 107.8(3) . . ?
O6 Zr2 Zr3 112.45(13) . 10_554 ?
O6 Zr2 Zr3 118.94(16) . . ?
O6 Zr2 Zr4 82.10(16) . . ?
O6 Zr2 O9 149.18(19) . . ?
O6 Zr2 O10 86.6(2) . . ?
C58 O4 Zr2 120.0(9) . . ?
C58 O5 Zr1 117.8(9) . . ?
Zr1 Zr3 Zr2 61.29(2) . 10_554 ?
Zr2 Zr3 Zr1 62.74(3) . . ?
Zr2 Zr3 Zr2 93.65(2) . 10_554 ?
Zr2 Zr3 Zr4 62.64(2) . . ?
Zr4 Zr3 Zr1 93.19(4) . . ?
Zr4 Zr3 Zr2 61.17(3) . 10_554 ?
O9 Zr3 Zr1 36.90(14) . . ?
O9 Zr3 Zr2 41.72(14) . . ?
O9 Zr3 Zr2 95.55(14) . 10_554 ?
O9 Zr3 Zr4 99.42(14) . . ?
O9 Zr3 O1 138.5(2) . 14_456 ?
O9 Zr3 O8 72.4(2) . . ?
O9 Zr3 O16 151.2(2) . 4_464 ?
O10 Zr3 Zr1 94.40(12) . . ?
O10 Zr3 Zr2 38.96(12) . . ?
O10 Zr3 Zr2 90.21(11) . 10_554 ?
O10 Zr3 Zr4 33.30(10) . . ?
O10 Zr3 O9 80.68(18) . . ?
O10 Zr3 O1 137.1(2) . 14_456 ?
O10 Zr3 O8 86.0(2) . . ?
O10 Zr3 O16 83.0(2) . 4_464 ?
O13 Zr3 Zr1 33.48(13) . . ?
O13 Zr3 Zr2 86.99(13) . . ?
O13 Zr3 Zr2 31.50(15) . 10_554 ?
O13 Zr3 Zr4 84.68(16) . . ?
O13 Zr3 O9 70.4(2) . . ?
O13 Zr3 O10 103.92(19) . . ?
O13 Zr3 O1 81.6(2) . 14_456 ?
O13 Zr3 O8 139.1(2) . . ?
O13 Zr3 O16 137.1(2) . 4_464 ?
O1 Zr3 Zr1 109.61(17) 14_456 . ?
O1 Zr3 Zr2 72.47(16) 14_456 10_554 ?
O1 Zr3 Zr2 166.07(17) 14_456 . ?
O1 Zr3 Zr4 108.04(19) 14_456 . ?
O1 Zr3 O8 117.8(2) 14_456 . ?
O1 Zr3 O16 66.7(3) 14_456 4_464 ?
O8 Zr3 Zr1 107.43(16) . . ?
O8 Zr3 Zr2 167.82(16) . 10_554 ?
O8 Zr3 Zr2 76.16(17) . . ?
O8 Zr3 Zr4 117.9(2) . . ?
O16 Zr3 Zr1 169.25(14) 4_464 . ?
O16 Zr3 Zr2 108.17(15) 4_464 10_554 ?
O16 Zr3 Zr2 118.5(2) 4_464 . ?
O16 Zr3 Zr4 78.91(16) 4_464 . ?
O16 Zr3 O8 82.9(2) 4_464 . ?
O11 Zr3 Zr1 112.19(11) . . ?
O11 Zr3 Zr2 116.70(13) . . ?
O11 Zr3 Zr2 50.93(11) . 10_554 ?
O11 Zr3 Zr4 54.51(14) . . ?
O11 Zr3 O9 143.38(17) . . ?
O11 Zr3 O10 84.74(18) . . ?
O11 Zr3 O13 81.00(19) . . ?
O11 Zr3 O1 53.6(2) . 14_456 ?
O11 Zr3 O8 139.8(2) . . ?
O11 Zr3 O16 57.25(18) . 4_464 ?
Zr2 Zr4 Zr2 90.85(6) 10_554 . ?
Zr3 Zr4 Zr2 60.88(4) . 10_554 ?
Zr3 Zr4 Zr2 58.12(3) . . ?
Zr3 Zr4 Zr2 58.12(3) 10_554 10_554 ?
Zr3 Zr4 Zr2 60.88(4) 10_554 . ?
Zr3 Zr4 Zr3 87.39(6) . 10_554 ?
O10 Zr4 Zr2 90.05(14) . 10_554 ?
O10 Zr4 Zr2 35.09(10) . . ?
O10 Zr4 Zr2 35.09(10) 10_554 10_554 ?
O10 Zr4 Zr2 90.05(14) 10_554 . ?
O10 Zr4 Zr3 33.44(11) . . ?
O10 Zr4 Zr3 89.56(14) . 10_554 ?
O10 Zr4 Zr3 33.44(11) 10_554 10_554 ?
O10 Zr4 Zr3 89.56(14) 10_554 . ?
O10 Zr4 O10 108.8(3) . 10_554 ?
O10 Zr4 O14 143.7(2) . . ?
O10 Zr4 O14 85.9(3) 10_554 . ?
O10 Zr4 O14 143.7(2) 10_554 10_554 ?
O10 Zr4 O14 85.9(3) . 10_554 ?
O10 Zr4 O17 71.9(2) 10_554 11_644 ?
O10 Zr4 O17 146.7(2) 10_554 4_464 ?
O10 Zr4 O17 71.9(2) . 4_464 ?
O10 Zr4 O17 146.7(2) . 11_644 ?
O14 Zr4 Zr2 174.4(3) 10_554 10_554 ?
O14 Zr4 Zr2 83.6(3) 10_554 . ?
O14 Zr4 Zr2 174.4(3) . . ?
O14 Zr4 Zr2 83.6(3) . 10_554 ?
O14 Zr4 Zr3 117.9(3) 10_554 10_554 ?
O14 Zr4 Zr3 116.2(2) 10_554 . ?
O14 Zr4 Zr3 117.9(3) . . ?
O14 Zr4 Zr3 116.2(2) . 10_554 ?
O14 Zr4 O14 102.0(5) 10_554 . ?
O14 Zr4 O17 77.9(3) . 4_464 ?
O14 Zr4 O17 69.0(3) 10_554 4_464 ?
O14 Zr4 O17 69.0(3) . 11_644 ?
O14 Zr4 O17 77.9(3) 10_554 11_644 ?
O17 Zr4 Zr2 103.71(18) 4_464 . ?
O17 Zr4 Zr2 113.3(2) 4_464 10_554 ?
O17 Zr4 Zr2 113.3(2) 11_644 . ?
O17 Zr4 Zr2 103.71(18) 11_644 10_554 ?
O17 Zr4 Zr3 160.1(2) 4_464 10_554 ?
O17 Zr4 Zr3 73.2(2) 11_644 10_554 ?
O17 Zr4 Zr3 73.2(2) 4_464 . ?
O17 Zr4 Zr3 160.1(2) 11_644 . ?
O17 Zr4 O17 126.4(5) 4_464 11_644 ?
Zr1 O9 Zr2 106.2(2) . . ?
Zr3 O9 Zr1 106.9(2) . . ?
Zr3 O9 Zr2 99.8(2) . . ?
Zr3 O10 Zr2 105.2(2) . . ?
Zr4 O10 Zr2 112.67(16) . . ?
Zr4 O10 Zr3 113.25(17) . . ?
C40 O15 H15 109.5 . . ?
H55A C55 H55B 108.8 . . ?
C56 C55 H55A 110.7 . . ?
C56 C55 H55B 110.7 . . ?
C56 C55 C54 105.0(5) . . ?
C54 C55 H55A 110.7 . . ?
C54 C55 H55B 110.7 . . ?
C57 O7 Zr2 127.8(7) . . ?
C55 C56 H56A 111.7 . . ?
C55 C56 H56B 111.7 . . ?
H56A C56 H56B 109.4 . . ?
C42 C56 C55 100.6(5) . . ?
C42 C56 H56A 111.7 . . ?
C42 C56 H56B 111.7 . . ?
Zr2 O13 Zr1 116.2(2) 10_554 . ?
Zr3 O13 Zr1 114.6(2) . . ?
Zr3 O13 Zr2 118.4(3) . 10_554 ?
C55 C54 C55 118.2(9) . 7_456 ?
C41 C54 C55 110.3(3) . 7_456 ?
C41 C54 C55 100.9(5) 7_456 7_456 ?
C41 C54 C55 100.9(3) . . ?
C41 C54 C55 110.3(6) 7_456 . ?
C41 C54 C41 117.1(9) 7_456 . ?
C38 C37 C42 120.0 . . ?
C38 C37 C32 118.4(4) . . ?
C42 C37 C32 121.3(4) . . ?
C37 C38 H38 120.0 . . ?
C39 C38 C37 120.0 . . ?
C39 C38 H38 120.0 . . ?
C38 C39 C40 120.0 . . ?
C38 C39 C43 118.8(4) . . ?
C40 C39 C43 121.2(4) . . ?
C39 C40 O15 120.9(4) . . ?
C39 C40 C41 120.0 . . ?
C41 C40 O15 118.6(4) . . ?
C40 C41 C54 129.4(4) . . ?
C42 C41 C54 110.6(4) . . ?
C42 C41 C40 120.0 . . ?
C37 C42 C56 130.4(4) . . ?
C41 C42 C56 109.6(4) . . ?
C41 C42 C37 120.0 . . ?
O7 C57 C27 112.4(9) . . ?
O8 C57 O7 136.3(11) . . ?
O8 C57 C27 111.2(9) . . ?
C62 O1 Zr3 135.2(6) . 14_556 ?
O1 C62 O2 116.8(8) . . ?
O2 C62 C1 131.2(9) . . ?
C10 C9 H9 120.0 . . ?
C10 C9 C8 120.0 . . ?
C8 C9 H9 120.0 . . ?
C9 C10 H10 120.0 . . ?
C1 C10 C9 120.0 . . ?
C1 C10 H10 120.0 . . ?
C10 C1 C62 130.9(6) . . ?
C10 C1 C2 120.0 . . ?
C2 C1 C62 108.6(6) . . ?
C1 C2 H2 120.0 . . ?
C3 C2 C1 120.0 . . ?
C3 C2 H2 120.0 . . ?
C2 C3 C4 120.0 . . ?
C8 C3 C2 120.0 . . ?
C8 C3 C4 120.0 . . ?
C3 C8 C9 120.0 . . ?
C7 C8 C9 120.0 . . ?
C7 C8 C3 120.0 . . ?
C8 C7 H7 120.0 . . ?
C6 C7 C8 120.0 . . ?
C6 C7 H7 120.0 . . ?
C7 C6 C11 116.1(8) . . ?
C5 C6 C7 120.0 . . ?
C5 C6 C11 123.7(8) . . ?
C6 C5 H5 120.0 . . ?
C6 C5 C4 120.0 . . ?
C4 C5 H5 120.0 . . ?
C3 C4 H4 120.0 . . ?
C5 C4 C3 120.0 . . ?
C5 C4 H4 120.0 . . ?
C27 C36 H36 120.0 . . ?
C27 C36 C35 120.0 . . ?
C35 C36 H36 120.0 . . ?
C36 C27 C57 121.4(6) . . ?
C36 C27 C28 120.0 . . ?
C28 C27 C57 118.5(6) . . ?
C27 C28 H28 120.0 . . ?
C29 C28 C27 120.0 . . ?
C29 C28 H28 120.0 . . ?
C28 C29 H29 120.0 . . ?
C28 C29 C30 120.0 . . ?
C30 C29 H29 120.0 . . ?
C29 C30 C35 120.0 . . ?
C29 C30 C31 120.0 . . ?
C35 C30 C31 120.0 . . ?
C30 C35 C36 120.0 . . ?
C34 C35 C36 120.0 . . ?
C34 C35 C30 120.0 . . ?
C35 C34 H34 120.0 . . ?
C35 C34 C33 120.0 . . ?
C33 C34 H34 120.0 . . ?
C34 C33 H33 120.0 . . ?
C32 C33 C34 120.0 . . ?
C32 C33 H33 120.0 . . ?
C33 C32 C37 121.6(4) . . ?
C33 C32 C31 120.0 . . ?
C31 C32 C37 118.3(4) . . ?
C30 C31 H31 120.0 . . ?
C32 C31 C30 120.0 . . ?
C32 C31 H31 120.0 . . ?
C62 O2 Zr2 136.4(6) . 5_656 ?
C57 O8 Zr3 120.4(6) . . ?
C14 O3 H3 109.5 . . ?
C11 C12 C13 120.0 . . ?
C11 C12 C61 138.1(14) . . ?
C13 C12 C61 100.4(14) . . ?
C12 C11 C6 120.9(9) . . ?
C12 C11 C16 120.0 . . ?
C16 C11 C6 118.3(9) . . ?
C11 C16 H16 120.0 . . ?
C15 C16 C11 120.0 . . ?
C15 C16 H16 120.0 . . ?
C16 C15 C14 120.0 . . ?
C16 C15 C17 116.9(8) . . ?
C14 C15 C17 120.1(8) . . ?
C15 C14 O3 127.5(15) . . ?
C13 C14 O3 110.5(14) . . ?
C13 C14 C15 120.0 . . ?
C12 C13 C59 116.8(14) . . ?
C14 C13 C12 120.0 . . ?
C14 C13 C59 121.7(12) . . ?
C52 C51 H51 120.0 . . ?
C52 C51 C50 120.0 . . ?
C50 C51 H51 120.0 . . ?
C51 C52 H52 120.0 . . ?
C51 C52 C43 120.0 . . ?
C43 C52 H52 120.0 . . ?
C52 C43 C39 119.5(5) . . ?
C52 C43 C44 120.0 . . ?
C44 C43 C39 120.4(5) . . ?
C43 C44 H44 120.0 . . ?
C45 C44 C43 120.0 . . ?
C45 C44 H44 120.0 . . ?
C44 C45 C46 120.0 . . ?
C50 C45 C44 120.0 . . ?
C50 C45 C46 120.0 . . ?
C45 C50 C51 120.0 . . ?
C45 C50 C49 120.0 . . ?
C49 C50 C51 120.0 . . ?
C50 C49 H49 120.0 . . ?
C48 C49 C50 120.0 . . ?
C48 C49 H49 120.0 . . ?
C49 C48 C47 120.0 . . ?
C49 C48 C53 118.8(7) . . ?
C47 C48 C53 121.1(7) . . ?
C48 C47 H47 120.0 . . ?
C48 C47 C46 120.0 . . ?
C46 C47 H47 120.0 . . ?
C45 C46 H46 120.0 . . ?
C47 C46 C45 120.0 . . ?
C47 C46 H46 120.0 . . ?
C13 C59 C13 115(3) 15_446 . ?
C60 C59 C13 118.2(18) . 15_446 ?
C60 C59 C13 118.2(11) 15_446 . ?
C60 C59 C13 97.7(10) . . ?
C60 C59 C13 97.7(14) 15_446 15_446 ?
C60 C59 C60 111(3) . 15_446 ?
O4 C58 O5 130.4(14) . . ?
O4 C58 C22 115.6(10) . . ?
O5 C58 C22 113.9(9) . . ?
C59 C60 H60A 111.0 . . ?
C59 C60 H60B 111.0 . . ?
H60A C60 H60B 109.0 . . ?
C61 C60 C59 103.7(17) . . ?
C61 C60 H60A 111.0 . . ?
C61 C60 H60B 111.0 . . ?
Zr4 O14 H14A 120.0 . . ?
Zr4 O14 H14B 120.0 . . ?
H14A O14 H14B 120.0 . . ?
C12 C61 H61A 109.3 . . ?
C12 C61 H61B 109.3 . . ?
C60 C61 C12 111.8(19) . . ?
C60 C61 H61A 109.3 . . ?
C60 C61 H61B 109.3 . . ?
H61A C61 H61B 107.9 . . ?
Zr2 O6 H6A 120.0 . . ?
Zr2 O6 H6B 120.0 . . ?
H6A O6 H6B 120.0 . . ?
C53 O17 Zr4 125.7(8) . 3_655 ?
O17 C53 C48 120.9(10) . . ?
O16 C53 C48 101.6(11) . . ?
O16 C53 O17 137.5(12) . . ?
C53 O16 Zr3 120.6(8) . 3_655 ?
C22 C23 H23 120.0 . . ?
C22 C23 C24 120.0 . . ?
C24 C23 H23 120.0 . . ?
C23 C22 C58 120.8(7) . . ?
C21 C22 C58 118.1(7) . . ?
C21 C22 C23 120.0 . . ?
C22 C21 H21 120.0 . . ?
C22 C21 C20 120.0 . . ?
C20 C21 H21 120.0 . . ?
C21 C20 H20 120.0 . . ?
C21 C20 C19 120.0 . . ?
C19 C20 H20 120.0 . . ?
C20 C19 C18 120.0 . . ?
C24 C19 C20 120.0 . . ?
C24 C19 C18 120.0 . . ?
C19 C24 C23 120.0 . . ?
C25 C24 C23 120.0 . . ?
C25 C24 C19 120.0 . . ?
C24 C25 H25 120.0 . . ?
C24 C25 C26 120.0 . . ?
C26 C25 H25 120.0 . . ?
C25 C26 H26 120.0 . . ?
C25 C26 C17 120.0 . . ?
C17 C26 H26 120.0 . . ?
C26 C17 C15 118.4(9) . . ?
C18 C17 C15 117.8(9) . . ?
C18 C17 C26 120.0 . . ?
C19 C18 H18 120.0 . . ?
C17 C18 C19 120.0 . . ?
C17 C18 H18 120.0 . . ?
Zr1 O12 H12A 120.0 . . ?
Zr1 O12 H12B 120.0 . . ?
H12A O12 H12B 120.0 . . ?
loop_
_geom_bond_atom_site_label_1
_geom_bond_atom_site_label_2
_geom_bond_distance
_geom_bond_site_symmetry_2
_geom_bond_publ_flag
Zr1 Zr2 3.5870(17) . ?
Zr1 Zr2 3.5869(17) 10_554 ?
Zr1 O5 2.634(8) 10_554 ?
Zr1 O5 2.635(8) . ?
Zr1 Zr3 3.4839(17) 10_554 ?
Zr1 Zr3 3.4839(17) . ?
Zr1 O9 2.186(5) 10_554 ?
Zr1 O9 2.186(5) . ?
Zr1 O13 2.114(5) 10_554 ?
Zr1 O13 2.114(5) . ?
Zr1 O12 2.321(8) . ?
Zr1 O12 2.321(8) 10_554 ?
Zr2 O4 2.197(8) . ?
Zr2 Zr3 3.4059(12) . ?
Zr2 Zr3 3.5522(12) 10_554 ?
Zr2 Zr4 3.5622(17) . ?
Zr2 O9 2.300(5) . ?
Zr2 O10 2.219(4) . ?
Zr2 O7 2.107(6) . ?
Zr2 O13 2.110(5) 10_554 ?
Zr2 O2 2.062(6) 5_656 ?
Zr2 O6 2.131(5) . ?
O4 C58 1.259(10) . ?
O5 C58 1.273(10) . ?
Zr3 Zr4 3.4467(18) . ?
Zr3 O9 2.152(6) . ?
Zr3 O10 2.067(4) . ?
Zr3 O13 2.024(5) . ?
Zr3 O1 2.155(6) 14_456 ?
Zr3 O8 2.372(5) . ?
Zr3 O16 2.289(7) 4_464 ?
Zr3 O11 1.949(6) . ?
Zr4 O10 2.060(4) . ?
Zr4 O10 2.060(4) 10_554 ?
Zr4 O14 2.114(7) . ?
Zr4 O14 2.114(7) 10_554 ?
Zr4 O17 2.333(7) 4_464 ?
Zr4 O17 2.333(7) 11_644 ?
O15 H15 0.8200 . ?
O15 C40 1.440(5) . ?
C55 H55A 0.9700 . ?
C55 H55B 0.9700 . ?
C55 C56 1.524(9) . ?
C55 C54 1.537(8) . ?
O7 C57 1.342(12) . ?
C56 H56A 0.9700 . ?
C56 H56B 0.9700 . ?
C56 C42 1.519(8) . ?
C54 C41 1.500(8) 7_456 ?
C54 C41 1.501(6) . ?
C37 C38 1.3900 . ?
C37 C42 1.3900 . ?
C37 C32 1.531(5) . ?
C38 H38 0.9300 . ?
C38 C39 1.3900 . ?
C39 C40 1.3900 . ?
C39 C43 1.538(6) . ?
C40 C41 1.3900 . ?
C41 C42 1.3900 . ?
C57 C27 1.532(12) . ?
C57 O8 1.297(11) . ?
O1 C62 1.293(8) . ?
C62 C1 1.519(10) . ?
C62 O2 1.373(9) . ?
C9 H9 0.9300 . ?
C9 C10 1.3900 . ?
C9 C8 1.3900 . ?
C10 H10 0.9300 . ?
C10 C1 1.3900 . ?
C1 C2 1.3900 . ?
C2 H2 0.9300 . ?
C2 C3 1.3900 . ?
C3 C8 1.3900 . ?
C3 C4 1.3900 . ?
C8 C7 1.3900 . ?
C7 H7 0.9300 . ?
C7 C6 1.3900 . ?
C6 C5 1.3900 . ?
C6 C11 1.468(12) . ?
C5 H5 0.9300 . ?
C5 C4 1.3900 . ?
C4 H4 0.9300 . ?
C36 H36 0.9300 . ?
C36 C27 1.3900 . ?
C36 C35 1.3900 . ?
C27 C28 1.3900 . ?
C28 H28 0.9300 . ?
C28 C29 1.3900 . ?
C29 H29 0.9300 . ?
C29 C30 1.3900 . ?
C30 C35 1.3900 . ?
C30 C31 1.3900 . ?
C35 C34 1.3900 . ?
C34 H34 0.9300 . ?
C34 C33 1.3900 . ?
C33 H33 0.9300 . ?
C33 C32 1.3900 . ?
C32 C31 1.3900 . ?
C31 H31 0.9300 . ?
O3 H3 0.8200 . ?
O3 C14 1.461(15) . ?
C12 C11 1.3900 . ?
C12 C13 1.3900 . ?
C12 C61 1.511(19) . ?
C11 C16 1.3900 . ?
C16 H16 0.9300 . ?
C16 C15 1.3900 . ?
C15 C14 1.3900 . ?
C15 C17 1.449(14) . ?
C14 C13 1.3900 . ?
C13 C59 1.585(18) . ?
C51 H51 0.9300 . ?
C51 C52 1.3900 . ?
C51 C50 1.3900 . ?
C52 H52 0.9300 . ?
C52 C43 1.3900 . ?
C43 C44 1.3900 . ?
C44 H44 0.9300 . ?
C44 C45 1.3900 . ?
C45 C50 1.3900 . ?
C45 C46 1.3900 . ?
C50 C49 1.3900 . ?
C49 H49 0.9300 . ?
C49 C48 1.3900 . ?
C48 C47 1.3900 . ?
C48 C53 1.522(12) . ?
C47 H47 0.9300 . ?
C47 C46 1.3900 . ?
C46 H46 0.9300 . ?
C59 C60 1.54(2) . ?
C59 C60 1.54(2) 15_446 ?
C58 C22 1.547(13) . ?
C60 H60A 0.9700 . ?
C60 H60B 0.9700 . ?
C60 C61 1.48(2) . ?
O14 H14A 0.9300 . ?
O14 H14B 0.9300 . ?
C61 H61A 0.9700 . ?
C61 H61B 0.9700 . ?
O6 H6A 0.9300 . ?
O6 H6B 0.9300 . ?
O17 C53 1.345(13) . ?
C53 O16 1.205(13) . ?
C23 H23 0.9300 . ?
C23 C22 1.3900 . ?
C23 C24 1.3900 . ?
C22 C21 1.3900 . ?
C21 H21 0.9300 . ?
C21 C20 1.3900 . ?
C20 H20 0.9300 . ?
C20 C19 1.3900 . ?
C19 C24 1.3900 . ?
C19 C18 1.3900 . ?
C24 C25 1.3900 . ?
C25 H25 0.9300 . ?
C25 C26 1.3900 . ?
C26 H26 0.9300 . ?
C26 C17 1.3900 . ?
C17 C18 1.3900 . ?
C18 H18 0.9300 . ?
O12 H12A 0.9300 . ?
O12 H12B 0.9300 . ?
loop_
_twin_individual_id
_twin_individual_mass_fraction_refined
1 0.53(5)
2 0.47(5)
loop_
_smtbx_masks_void_nr
_smtbx_masks_void_average_x
_smtbx_masks_void_average_y
_smtbx_masks_void_average_z
_smtbx_masks_void_volume
_smtbx_masks_void_count_electrons
_smtbx_masks_void_content
1 -0.431 -0.680 -0.007 53405.7 15383.6 ?
