#------------------------------------------------------------------------------
#$Date: 2021-11-06 22:11:30 +0200 (Sat, 06 Nov 2021) $
#$Revision: 270456 $
#$URL: file:///home/coder/svn-repositories/cod/cif/1/56/20/1562007.cif $
#------------------------------------------------------------------------------
#
# This file is available in the Crystallography Open Database (COD),
# http://www.crystallography.net/
#
# All data on this site have been placed in the public domain by the
# contributors.
#
data_1562007
loop_
_publ_author_name
'Gong, Wei'
'Liu, Yan'
'Cui, Yong'
_publ_section_title
;
 Chiral and robust Zr(IV)-based metal-organic frameworks built from spiro
 skeletons.
;
_journal_issue                   0
_journal_name_full               'Faraday discussions'
_journal_page_first              168
_journal_page_last               180
_journal_paper_doi               10.1039/d1fd00014d
_journal_volume                  231
_journal_year                    2021
_chemical_absolute_configuration rm
_chemical_formula_moiety         'C135 H78 O40 Zr6'
_chemical_formula_sum            'C135 H78 O40 Zr6'
_chemical_formula_weight         2887.30
_space_group_crystal_system      orthorhombic
_space_group_IT_number           20
_space_group_name_Hall           'C 2c 2'
_space_group_name_H-M_alt        'C 2 2 21'
_atom_sites_solution_hydrogens   geom
_audit_block_doi                 10.5517/ccdc.csd.cc251k4y
_audit_creation_date             2020-10-07
_audit_creation_method
;
Olex2 1.3
(compiled 2020.07.31 svn.rc2a77460 for OlexSys, GUI svn.r6145)
;
_audit_update_record
;
2020-10-09 deposited with the CCDC.	2021-04-22 downloaded from the CCDC.
;
_cell_angle_alpha                90
_cell_angle_beta                 90
_cell_angle_gamma                90
_cell_formula_units_Z            8
_cell_length_a                   25.626(5)
_cell_length_b                   30.235(6)
_cell_length_c                   61.873(12)
_cell_measurement_reflns_used    254943
_cell_measurement_temperature    100
_cell_measurement_theta_max      25.991
_cell_measurement_theta_min      1.092
_cell_volume                     47939(16)
_computing_cell_refinement       hkl3000
_computing_data_collection       BL17B
_computing_data_reduction        hkl3000
_computing_molecular_graphics    'Olex2 1.3 (Dolomanov et al., 2009)'
_computing_publication_material  'Olex2 1.3 (Dolomanov et al., 2009)'
_computing_structure_refinement  'SHELXL 2018/3 (Sheldrick, 2015)'
_computing_structure_solution    'SHELXT 2014/5 (Sheldrick, 2014)'
_diffrn_ambient_temperature      100
_diffrn_measured_fraction_theta_full 0.957
_diffrn_measured_fraction_theta_max 0.923
_diffrn_measurement_device_type  synchrotron
_diffrn_measurement_method       '\w scans'
_diffrn_radiation_type           synchrotron
_diffrn_radiation_wavelength     0.71073
_diffrn_reflns_av_R_equivalents  0.116
_diffrn_reflns_av_unetI/netI     0.0480
_diffrn_reflns_Laue_measured_fraction_full 0.957
_diffrn_reflns_Laue_measured_fraction_max 0.923
_diffrn_reflns_number            22879
_diffrn_reflns_point_group_measured_fraction_full 0.505
_diffrn_reflns_point_group_measured_fraction_max 0.486
_diffrn_reflns_theta_full        25.242
_diffrn_reflns_theta_max         25.991
_diffrn_reflns_theta_min         1.092
_exptl_absorpt_coefficient_mu    0.296
_exptl_absorpt_correction_type   none
_exptl_crystal_colour            colorless
_exptl_crystal_density_diffrn    0.800
_exptl_crystal_description       rhombic
_exptl_crystal_F_000             11584
_exptl_crystal_size_max          0.25
_exptl_crystal_size_mid          0.24
_exptl_crystal_size_min          0.13
_refine_diff_density_max         1.354
_refine_diff_density_min         -1.048
_refine_diff_density_rms         0.053
_refine_ls_abs_structure_details
;
No quotients, so Flack parameter determined by classical intensity fit
;
_refine_ls_abs_structure_Flack   0.02(2)
_refine_ls_extinction_method     none
_refine_ls_goodness_of_fit_ref   0.918
_refine_ls_hydrogen_treatment    constr
_refine_ls_matrix_type           full
_refine_ls_number_parameters     1289
_refine_ls_number_reflns         22879
_refine_ls_number_restraints     223
_refine_ls_restrained_S_all      0.970
_refine_ls_R_factor_all          0.0622
_refine_ls_R_factor_gt           0.0470
_refine_ls_shift/su_max          0.002
_refine_ls_shift/su_mean         0.000
_refine_ls_structure_factor_coef Fsqd
_refine_ls_weighting_details
'w=1/[\s^2^(Fo^2^)+(0.0871P)^2^] where P=(Fo^2^+2Fc^2^)/3'
_refine_ls_weighting_scheme      calc
_refine_ls_wR_factor_gt          0.1207
_refine_ls_wR_factor_ref         0.1272
_reflns_Friedel_coverage         0.000
_reflns_Friedel_fraction_full    0.000
_reflns_Friedel_fraction_max     0.000
_reflns_number_gt                15298
_reflns_number_total             22879
_reflns_threshold_expression     'I > 2\s(I)'
_cod_data_source_file            d1fd00014d4.cif
_cod_data_source_block           Spiro-OH
_cod_depositor_comments
'Adding full bibliography for 1562006--1562010.cif.'
_cod_original_cell_volume        47939(17)
_cod_database_code               1562007
_shelx_shelxl_version_number     2018/3
_shelx_space_group_comment
;
The symmetry employed for this shelxl refinement is uniquely defined
by the following loop, which should always be used as a source of
symmetry information in preference to the above space-group names.
They are only intended as comments.
;
_shelx_estimated_absorpt_t_max   0.963
_shelx_estimated_absorpt_t_min   0.930
_olex2_refinement_description
;
1. Fixed Uiso
 At 1.2 times of:
  All C(H) groups, All C(H,H) groups
2. Restrained distances
 C787-C03X
 1.52 with sigma of 0.02
 C922-C409
 1.52 with sigma of 0.02
 C03Y-C03J
 1.52 with sigma of 0.02
 C111-C040
 1.5 with sigma of 0.02
 O271-C787
 1.27 with sigma of 0.02
 O00H-C787
 1.27 with sigma of 0.02
 C900-O447
 1.36 with sigma of 0.02
 C850-C232
 1.52 with sigma of 0.02
 O011-C850
 1.27 with sigma of 0.02
 C280-C04C
 1.55 with sigma of 0.02
 C215-C04C
 1.55 with sigma of 0.02
 C04O-C04C
 1.52 with sigma of 0.02
 C229-C122
 1.52 with sigma of 0.02
 C280-C229
 1.55 with sigma of 0.02
 C405-C04C
 1.52 with sigma of 0.02
 C409-C215
 1.55 with sigma of 0.02
 O325-C850
 1.27 with sigma of 0.02
 O013-C042
 1.27 with sigma of 0.02
 O019-C042
 1.27 with sigma of 0.02
 C662-C546
 1.5 with sigma of 0.02
 C809-C539
 1.5 with sigma of 0.01
 C248-C042
 1.5 with sigma of 0.01
 C049-C048
 1.5 with sigma of 0.01
 O00H-O271
 2.36 with sigma of 0.04
 C656-C567
 2.41 with sigma of 0.02
 O325-O011
 2.25 with sigma of 0.04
 O011-O325
 2.25 with sigma of 0.04
 C04O-C280
 2.36 with sigma of 0.04
 C122-C280
 2.36 with sigma of 0.04
 C405-C215
 2.36 with sigma of 0.04
 C922-C215
 2.36 with sigma of 0.04
 C04O-C215
 2.36 with sigma of 0.02
 H71-H615
 2.6 with sigma of 0.02
 C615-C809 \\sim C809-C104
 with sigma of 0.02
 C71-C539 \\sim C539-C922
 with sigma of 0.02
 C45-C787 \\sim C787-C04J
 with sigma of 0.02
 C583-C042 \\sim C042-C04N
 with sigma of 0.02
 C656-C546 \\sim C546-C567
 with sigma of 0.02
 C777-C850 \\sim C850-C479
 with sigma of 0.02
 C104-C809 \\sim C809-C615
 with sigma of 0.02
 O011-C232 \\sim C232-O325
 with sigma of 0.02
 C405-O447 \\sim O447-C546
 with sigma of 0.02
 C900-C662 \\sim C662-C71
 with sigma of 0.01
 C922-C539 \\sim C539-C71
 with sigma of 0.02
 O011-C850 \\sim C850-O325
 with sigma of 0.01
3. Restrained planarity
 C04O, C35, C049, C111, C03W, C122, C229, C04C
 with sigma of 0.1
 C922, C405, C900, C04C, C409
 with sigma of 0.1
 C04N, C248, C583, C042
 with sigma of 0.1
 C809, C539, C104, C615, C583, C248, C04N, C042, O019, O013
 with sigma of 0.01
 C900, C546, C71, C662
 with sigma of 0.01
 C546, C662, C656, C567, C777, C479, C232, O011, O325, C850
 with sigma of 0.01
 C049, C35, O36, C04O
 with sigma of 0.01
 C615, C539, C104, C809, C04N, C248, C583
 with sigma of 0.001
 C546, C662, C567, C479, C656
 with sigma of 0.001
4. Uiso/Uaniso restraints and constraints
Uanis(C539) = Uanis(C615) = Uanis(C583) = Uanis(C248) = Uanis(C04N) =
Uanis(C104) = Uanis(O013) = Uanis(C042) = Uanis(O019)
Uanis(O271) = Uanis(O00H)
Uanis(O325) = Uanis(O011) = Uanis(C850)
Uanis(C232) = Uanis(C662)
Uanis(C71) = Uanis(C809)
Uanis(C656) = Uanis(C777) = Uanis(C232) = Uanis(C479) = Uanis(C567) =
Uanis(C662)
Uanis(C04C) = Uanis(C04O)
Uanis(C922) = Uanis(C900)
Uanis(C546) = Uanis(C900)
Uanis(C922) = Uanis(C405)
5. Rigid body (RIGU) restrains
 O011, C850, O325, C232, C777, C656, C662, C567, C479
 with sigma for 1-2 distances of 0.002 and sigma for 1-3 distances of 0.002
 C787, O00H, O271
 with sigma for 1-2 distances of 0.004 and sigma for 1-3 distances of 0.004
 C900, C546, C71, C809, C922, C405
 with sigma for 1-2 distances of 0.002 and sigma for 1-3 distances of 0.002
 C900, C546, C662
 with sigma for 1-2 distances of 0.004 and sigma for 1-3 distances of 0.004
 C546, C567, C656, C850, C71, C662, C479, C232, C777, C900, C405, C922, C809
 with sigma for 1-2 distances of 0.004 and sigma for 1-3 distances of 0.004
 C04O, C04C, C280, C229, C122
 with sigma for 1-2 distances of 0.004 and sigma for 1-3 distances of 0.004
6.a Secondary CH2 refined with riding coordinates:
 C01O(H01A,H01B), C023(H02B,H02D), C02I(H02E,H02F), C02L(H02G,H02H), C02M(H02I,
 H02J), C039(H03B,H03C), C03F(H03F,H03G), C03N(H03J,H03K), C215(H21A,H21B),
 C409(H40A,H40B), C229(H22A,H22B), C280(H28A,H28B)
6.b Aromatic/amide H refined with riding coordinates:
 C02O(H02O), C02Z(H02Z), C02U(H02U), C028(H028), C037(H037), C02Q(H02Q),
 C03E(H03E), C02A(H02A), C033(H033), C03I(H03I), C03D(H03D), C02N(H02N),
 C036(H036), C01P(H01P), C01R(H01R), C01X(H01X), C02C(H02C), C02Y(H02Y),
 C02W(H02W), C01K(H01K), C02V(H02V), C03O(H03O), C025(H025), C01M(H01M),
 C030(H030), C02K(H02K), C026(H026), C03A(H03A), C03H(H03H), C038(H038),
 C02R(H02R), C034(H034), C03L(H03L), C03M(H03M), C043(H043), C04E(H04E),
 C196(H196), C04J(H04J), C45(H45), C101(H101), C03R(H03R), C041(H041),
 C044(H044), C046(H046), C03W(H03W), C04N(H04N), C583(H583), C615(H615),
 C104(H104), C71(H71), C567(H567), C479(H479), C777(H777), C656(H656)
6.c Fitted hexagon refined as free rotating group:
 C012(C02O,C022,C02D,C01Y,C01W), C018(C02Z,C02U,C01E,C028,C037), C01A(C01L,
 C01T,C02Q,C03B,C02H), C01D(C01V,C01G,C02T,C027,C03E), C01H(C02A,C033,C031,C03I,
 C03D), C01I(C02N,C036,C020,C01P,C01R), C01J(C01X,C02C,C02E,C02Y,C02W),
 C01K(C01S,C02V,C03O,C01N,C025), C01M(C029,C030,C02K,C01U,C026), C01Z(C03A,C03H,
 C035,C038,C02R), C02G(C03C,C02X,C02P,C032,C034), C03L(C03U,C03M,C043,C048,
 C04E), C03P(C196,C04J,C03X,C45,C101), C03R(C041,C040,C044,C046,C03Y),
 C03W(C111,C122,C04O,C35,C049), C04N(C248,C583,C615,C539,C104), C405(C922,C809,
 C71,C546,C900), C567(C479,C232,C777,C656,C662)
;
_smtbx_masks_void_probe_radius   1.2
_smtbx_masks_void_truncation_radius 1.2
_shelx_res_file
;
TITL a_a.res in C222(1)
    1.res
    created by SHELXL-2018/3 at 20:48:21 on 07-Oct-2020
REM Old TITL a in C222(1)
REM SHELXT solution in C222(1)
REM R1 0.311, Rweak 0.042, Alpha 0.062, Orientation as input
REM Formula found by SHELXT: C114 O55 Zr6
CELL 0.71073 25.626 30.235 61.873 90 90 90
ZERR 8 0.0051 0.006 0.0124 0 0 0
LATT -7
SYMM -X,-Y,0.5+Z
SYMM -X,+Y,0.5-Z
SYMM +X,-Y,-Z
SFAC C H O Zr
UNIT 1080 624 320 48
DFIX 1.52 C787 C03X
DFIX 1.52 C922 C409
DFIX 1.52 C03Y C03J
DFIX 1.5 C111 C040
DFIX 1.27 O271 C787
DFIX 1.27 O00H C787
DFIX 1.36 C900 O447
DFIX 1.52 C850 C232
DFIX 1.27 O011 C850
DFIX 1.55 C280 C04C
DFIX 1.55 C215 C04C
DFIX 1.52 C04O C04C
DFIX 1.52 C229 C122
DFIX 1.55 C280 C229
DFIX 1.52 C405 C04C
DFIX 1.55 C409 C215
DFIX 1.27 O325 C850
DFIX 1.27 O013 C042
DFIX 1.27 O019 C042
DFIX 1.5 C662 C546
DFIX 1.5 0.01 C809 C539
SADI C615 C809 C809 C104
SADI C71 C539 C539 C922
SADI C45 C787 C787 C04J
SADI C583 C042 C042 C04N
SADI C656 C546 C546 C567
SADI C777 C850 C850 C479
SADI C104 C809 C809 C615
SADI O011 C232 C232 O325
SADI C405 O447 O447 C546
SADI 0.01 C900 C662 C662 C71
SADI C922 C539 C539 C71
DANG 2.36 O00H O271
DANG 2.41 0.02 C656 C567
DANG 2.25 O325 O011
DANG 2.25 O011 O325
DANG 2.36 C04O C280
DANG 2.36 C122 C280
DANG 2.36 C405 C215
DANG 2.36 C922 C215
DANG 2.36 0.02 C04O C215
DANG 2.6 0.02 H71 H615
FLAT C04O C35 C049 C111 C03W C122 C229 C04C
FLAT C922 C405 C900 C04C C409
FLAT C04N C248 C583 C042
FLAT 0.01 C809 C539 C104 C615 C583 C248 C04N C042 O019 O013
FLAT 0.01 C900 C546 C71 C662
FLAT 0.01 C546 C662 C656 C567 C777 C479 C232 O011 O325 C850
FLAT 0.01 C049 C35 O36 C04O
EADP C539 C615 C583 C248 C04N C104 O013 C042 O019
EADP O271 O00H
RIGU 0.002 0.002 O011 C850 O325 C232 C777 C656 C662 C567 C479
EADP O325 O011 C850
RIGU C787 O00H O271
RIGU 0.002 0.002 C900 C546 C71 C809 C922 C405
DFIX 1.5 0.01 C248 C042
RIGU C900 C546 C662
DFIX 1.5 0.01 C049 C048
EADP C232 C662
EADP C71 C809
RIGU C546 C567 C656 C850 C71 C662 C479 C232 C777 C900 C405 C922 C809
EADP C656 C777 C232 C479 C567 C662
SADI 0.01 O011 C850 C850 O325
RIGU C04O C04C C280 C229 C122
EADP C04C C04O
EADP C922 C900
EADP C546 C900
EADP C922 C405
FLAT 0.001 C615 C539 C104 C809 C04N C248 C583
FLAT 0.001 C546 C662 C567 C479 C656

L.S. 25
PLAN  225
SIZE 0.25 0.24 0.13
CONF
LIST 6
ABIN
MORE -1
BOND $H
fmap 2
acta
REM <olex2.extras>
REM <HklSrc "%.\\OUTPUT.HKL">
REM </olex2.extras>

WGHT    0.087100
FVAR       0.08147
ZR01  4    0.469260    0.634233    0.363702    11.00000    0.04838    0.04238 =
         0.11733   -0.00986   -0.00762    0.00396
ZR02  4    0.418460    0.725145    0.391220    11.00000    0.05369    0.03683 =
         0.11530   -0.00670   -0.00818    0.00460
ZR03  4    0.384633    0.617940    0.406927    11.00000    0.04942    0.04055 =
         0.11911   -0.00537   -0.00810    0.00290
ZR04  4    0.290965    0.687396    0.382127    11.00000    0.04700    0.04555 =
         0.12462   -0.01066   -0.00837    0.00612
ZR05  4    0.341656    0.596021    0.354353    11.00000    0.04917    0.04431 =
         0.12078   -0.01018   -0.01155    0.00214
ZR06  4    0.376051    0.703768    0.338398    11.00000    0.05604    0.04623 =
         0.11739   -0.00604   -0.01029    0.00355
O007  3   -0.104184    1.047761    0.339917    11.00000    0.05162    0.06972 =
         0.12144   -0.02438   -0.00190    0.01359
O008  3   -0.171016    1.033475    0.372798    11.00000    0.06996    0.03416 =
         0.14700   -0.00503    0.00656   -0.00574
O009  3    0.456900    0.579057    0.415043    11.00000    0.03943    0.04421 =
         0.13159   -0.00106   -0.01949    0.01635
O00A  3    0.510018    0.587742    0.386168    11.00000    0.03419    0.05144 =
         0.16291   -0.01690   -0.01295    0.00448
O00B  3   -0.462577    0.675426    0.374917    11.00000    0.05185    0.05928 =
         0.14489    0.00037   -0.01300   -0.02096
O00C  3   -0.089509    0.845775    0.563758    11.00000    0.08170    0.05104 =
         0.10601    0.00498    0.00463    0.00671
O00D  3   -0.139874    1.045364    0.405521    11.00000    0.04567    0.03982 =
         0.14751    0.00471   -0.01940    0.00134
O00E  3    0.785090    0.250421    0.401129    11.00000    0.05326    0.05144 =
         0.12826   -0.01414   -0.01364    0.00486
O00F  3   -0.023633    1.069621    0.345619    11.00000    0.06919    0.03657 =
         0.19382   -0.04056   -0.01281    0.01175
O00G  3   -0.063336    0.778347    0.574585    11.00000    0.03512    0.05052 =
         0.12476   -0.00944    0.00790   -0.02356
O00H  3    0.244013    0.675114    0.408912    11.00000    0.09065    0.09716 =
         0.23674   -0.02293    0.00555    0.01728
O00I  3    0.250084    0.732553    0.358932    11.00000    0.04505    0.05481 =
         0.15654   -0.00956   -0.01421    0.00285
O00J  3    0.356803    0.682726    0.401341    11.00000    0.08835    0.04972 =
         0.13814    0.00554   -0.01656   -0.00033
O00K  3    0.868429    0.274994    0.407654    11.00000    0.04350    0.04701 =
         0.12088   -0.01319   -0.00527    0.02206
O00L  3   -0.099493    0.821581    0.416095    11.00000    0.04909    0.06672 =
         0.16820    0.00639   -0.00613   -0.00809
O00M  3    0.309281    0.616887    0.386583    11.00000    0.06752    0.04487 =
         0.17010   -0.02155   -0.04301    0.02819
O00N  3    0.433823    0.788919    0.375469    11.00000    0.08458    0.05174 =
         0.17236    0.02736   -0.00630    0.00523
O00O  3    0.406194    0.636315    0.336720    11.00000    0.05310    0.03871 =
         0.14278   -0.00606    0.00188   -0.00337
O00P  3   -0.495093    0.733979    0.391859    11.00000    0.07640    0.04993 =
         0.09471    0.00003   -0.00683    0.01383
O00Q  3    0.305727    0.739708    0.330225    11.00000    0.08363    0.05817 =
         0.12350    0.00291   -0.01915    0.00832
O00R  3    0.435446    0.698305    0.361116    11.00000    0.08601    0.05277 =
         0.14728   -0.01437   -0.02555    0.00655
O00S  3    0.721730    1.149271    0.367992    11.00000    0.06126    0.07564 =
         0.18606   -0.03834   -0.03320   -0.02685
O00T  3    0.662867    0.543062    0.480972    11.00000    0.06375    0.04306 =
         0.14237   -0.01382   -0.01587    0.01945
O00U  3   -0.136514    0.763699    0.461490    11.00000    0.06393    0.09810 =
         0.14849   -0.00275    0.01513    0.01943
O00V  3    0.755777    1.087179    0.351639    11.00000    0.04778    0.05613 =
         0.18122   -0.01213   -0.00833    0.01059
O00W  3    0.450684    0.659324    0.397250    11.00000    0.09192    0.02699 =
         0.14979    0.00233   -0.00294    0.00822
O00X  3    0.327414    0.605256    0.433805    11.00000    0.08068    0.06130 =
         0.12026   -0.01553   -0.00953    0.00390
O00Y  3   -0.047019    0.885956    0.269913    11.00000    0.06675    0.07813 =
         0.14251   -0.00703   -0.03076    0.01518
O00Z  3    0.351673    0.735991    0.367739    11.00000    0.08167    0.06897 =
         0.15850   -0.00955   -0.00043    0.00476
O010  3    0.322248    0.661727    0.353009    11.00000    0.07873    0.04479 =
         0.15728   -0.00085   -0.01368    0.01062
O011  3    0.018094    1.142520    0.337216    11.00000    0.12630    0.20108 =
         0.36335   -0.07000    0.02362   -0.04240
AFIX  66
C012  1    0.733636    0.432687    0.451132    11.00000    0.07118    0.04935 =
         0.12238   -0.01826   -0.01683    0.01519
C02O  1    0.690271    0.452428    0.441696    11.00000    0.05892    0.05532 =
         0.13404   -0.01373   -0.00316    0.01798
AFIX  43
H02O  2    0.676389    0.440919    0.428998    11.00000   -1.20000
AFIX  65
C022  1    0.667655    0.489372    0.451238    11.00000    0.07213    0.04405 =
         0.12217   -0.01658   -0.00694    0.02309
C02D  1    0.688404    0.506574    0.470216    11.00000    0.07716    0.04736 =
         0.15889   -0.00928    0.00879    0.02446
C01Y  1    0.731769    0.486832    0.479653    11.00000    0.06384    0.04928 =
         0.12676   -0.02382   -0.00694    0.00695
C01W  1    0.754385    0.449889    0.470111    11.00000    0.04333    0.05250 =
         0.14691   -0.00016   -0.02018    0.01726
AFIX   0
O013  3    0.184205    1.093281    0.178269    11.00000    0.16634    0.16559 =
         0.26849    0.04126   -0.08985   -0.02379
O014  3    0.401486    0.774156    0.339741    11.00000    0.08202    0.06191 =
         0.18030    0.01296   -0.02506   -0.02514
O016  3    0.429541    0.710014    0.311559    11.00000    0.11827    0.11162 =
         0.14441    0.00605    0.01709   -0.03308
O017  3    0.404320    0.603588    0.374601    11.00000    0.11512    0.07624 =
         0.12119   -0.01385   -0.01998    0.00556
AFIX  66
C018  1   -0.166826    0.973494    0.395337    11.00000    0.06127    0.03978 =
         0.15194   -0.01557   -0.02819    0.01115
C02Z  1   -0.151440    0.954667    0.414816    11.00000    0.07050    0.03684 =
         0.15425   -0.00769   -0.01760   -0.01453
AFIX  43
H02Z  2   -0.136902    0.972261    0.425574    11.00000   -1.20000
AFIX  65
C02U  1   -0.157784    0.909542    0.418215    11.00000    0.07618    0.04830 =
         0.14849    0.02269   -0.02648   -0.00829
AFIX  43
H02U  2   -0.147490    0.896945    0.431248    11.00000   -1.20000
AFIX  65
C01E  1   -0.179512    0.883244    0.402135    11.00000    0.06893    0.04512 =
         0.14359   -0.01103   -0.01453   -0.00405
C028  1   -0.194898    0.902071    0.382656    11.00000    0.11682    0.03501 =
         0.15266    0.00855   -0.01356   -0.01490
AFIX  43
H028  2   -0.209435    0.884476    0.371897    11.00000   -1.20000
AFIX  65
C037  1   -0.188555    0.947196    0.379256    11.00000    0.08486    0.04750 =
         0.13942    0.00126    0.00446   -0.00333
AFIX  43
H037  2   -0.198849    0.959792    0.366223    11.00000   -1.20000
AFIX   0
O019  3    0.162358    1.169777    0.190506    11.00000    0.16634    0.16559 =
         0.26849    0.04126   -0.08985   -0.02379
AFIX  66
C01A  1   -0.077669    0.731241    0.435286    11.00000    0.04366    0.07135 =
         0.14393   -0.01189    0.00868    0.01618
C01L  1   -0.086064    0.749836    0.455536    11.00000    0.04183    0.06835 =
         0.12931   -0.00532    0.00737    0.01204
C01T  1   -0.045832    0.751052    0.470592    11.00000    0.07204    0.07666 =
         0.12973   -0.00282    0.00391    0.02649
C02Q  1    0.002795    0.733675    0.465399    11.00000    0.05842    0.10986 =
         0.14449    0.00277    0.00439    0.01270
AFIX  43
H02Q  2    0.029712    0.734490    0.475472    11.00000   -1.20000
AFIX  65
C03B  1    0.011190    0.715081    0.445149    11.00000    0.06429    0.10252 =
         0.11515   -0.01170    0.01145    0.01780
C02H  1   -0.029041    0.713864    0.430093    11.00000    0.05967    0.09904 =
         0.16163   -0.04023    0.00276    0.01789
AFIX   0
C01B  1   -0.158927    1.020154    0.391603    11.00000    0.08050    0.04977 =
         0.10167    0.01218   -0.00893   -0.02128
C01C  1   -0.070767    0.807599    0.560026    11.00000    0.07501    0.04199 =
         0.12428   -0.01458    0.01139    0.01464
AFIX  66
C01D  1   -0.246354    0.770619    0.402606    11.00000    0.03522    0.05345 =
         0.13662   -0.00772   -0.01011   -0.00183
C01V  1   -0.205598    0.742412    0.408062    11.00000    0.05807    0.04512 =
         0.14474    0.00163   -0.01284    0.00266
C01G  1   -0.156449    0.759579    0.412527    11.00000    0.04489    0.05396 =
         0.14495   -0.00577   -0.00355    0.01402
C02T  1   -0.148055    0.804953    0.411536    11.00000    0.05602    0.05174 =
         0.13413    0.01005   -0.00744   -0.00134
C027  1   -0.188810    0.833160    0.406081    11.00000    0.04163    0.04794 =
         0.15322    0.01041   -0.02449   -0.00527
C03E  1   -0.237960    0.815994    0.401615    11.00000    0.04056    0.05388 =
         0.15612    0.00199   -0.01355   -0.01179
AFIX  43
H03E  2   -0.265228    0.834867    0.397965    11.00000   -1.20000
AFIX   0
C01F  1   -0.117983    0.722920    0.417447    11.00000    0.03100    0.07587 =
         0.13789   -0.01434   -0.00771    0.01095
AFIX  66
C01H  1   -0.066966    0.792093    0.536568    11.00000    0.07085    0.04978 =
         0.12501   -0.00407    0.00730    0.00311
C02A  1   -0.045157    0.750966    0.532186    11.00000    0.09274    0.06338 =
         0.12350   -0.01411    0.02453    0.02631
AFIX  43
H02A  2   -0.035182    0.732532    0.543487    11.00000   -1.20000
AFIX  65
C033  1   -0.038255    0.737391    0.510914    11.00000    0.12862    0.06171 =
         0.11426   -0.01084    0.00385    0.00878
AFIX  43
H033  2   -0.023663    0.709874    0.507982    11.00000   -1.20000
AFIX  65
C031  1   -0.053163    0.764943    0.494023    11.00000    0.07330    0.06452 =
         0.13021   -0.01135    0.01421    0.00430
C03I  1   -0.074972    0.806070    0.498405    11.00000    0.10602    0.05958 =
         0.12591   -0.00659   -0.00163    0.01749
AFIX  43
H03I  2   -0.084946    0.824504    0.487103    11.00000   -1.20000
AFIX  65
C03D  1   -0.081873    0.819646    0.519677    11.00000    0.08676    0.07106 =
         0.15261   -0.03149    0.00556    0.00333
AFIX  43
H03D  2   -0.096465    0.847163    0.522608    11.00000   -1.20000
AFIX  66
C01I  1    0.622555    0.512643    0.439995    11.00000    0.09270    0.06633 =
         0.13168   -0.01632   -0.02623    0.04743
C02N  1    0.628285    0.521625    0.418091    11.00000    0.08511    0.07747 =
         0.12250   -0.00014    0.01055    0.03152
AFIX  43
H02N  2    0.659084    0.514140    0.411032    11.00000   -1.20000
AFIX  65
C036  1    0.587982    0.541796    0.406737    11.00000    0.05721    0.08305 =
         0.14499   -0.01258    0.00217    0.03660
AFIX  43
H036  2    0.591816    0.547806    0.392081    11.00000   -1.20000
AFIX  65
C020  1    0.541950    0.552984    0.417287    11.00000    0.06824    0.04484 =
         0.15167   -0.01546   -0.00568    0.01152
C01P  1    0.536219    0.544002    0.439191    11.00000    0.07226    0.06484 =
         0.16200   -0.00108   -0.01192    0.01922
AFIX  43
H01P  2    0.505420    0.551488    0.446250    11.00000   -1.20000
AFIX  65
C01R  1    0.576521    0.523832    0.450545    11.00000    0.05793    0.08106 =
         0.12487    0.01364   -0.00013    0.02544
AFIX  43
H01R  2    0.572687    0.517822    0.465200    11.00000   -1.20000
AFIX  66
C01J  1   -0.036949    1.002692    0.327819    11.00000    0.05745    0.05705 =
         0.15850   -0.02262   -0.02105   -0.00807
C01X  1   -0.071369    0.969080    0.322191    11.00000    0.06319    0.06046 =
         0.16363   -0.01976   -0.00098    0.00144
AFIX  43
H01X  2   -0.106795    0.972058    0.325110    11.00000   -1.20000
AFIX  65
C02C  1   -0.052841    0.931016    0.312199    11.00000    0.05680    0.07135 =
         0.15353   -0.02417    0.01026   -0.00599
AFIX  43
H02C  2   -0.075871    0.908528    0.308434    11.00000   -1.20000
AFIX  65
C02E  1    0.000108    0.926564    0.307836    11.00000    0.06894    0.05654 =
         0.15857   -0.01968   -0.00472    0.00926
C02Y  1    0.034529    0.960176    0.313465    11.00000    0.05272    0.07457 =
         0.15513   -0.01591   -0.00232    0.01115
AFIX  43
H02Y  2    0.069955    0.957197    0.310545    11.00000   -1.20000
AFIX  65
C02W  1    0.016001    0.998240    0.323456    11.00000    0.02759    0.06266 =
         0.18924   -0.02349    0.00503   -0.00260
AFIX  43
H02W  2    0.039031    1.020728    0.327222    11.00000   -1.20000
AFIX  66
C01K  1   -0.309893    0.716412    0.385515    11.00000    0.07378    0.05153 =
         0.13422   -0.00265   -0.02792    0.00097
AFIX  43
H01K  2   -0.281608    0.700616    0.380121    11.00000   -1.20000
AFIX  65
C01S  1   -0.301614    0.754307    0.397764    11.00000    0.03855    0.04929 =
         0.15366    0.00279   -0.01706   -0.00801
C02V  1   -0.343891    0.777915    0.405827    11.00000    0.09311    0.04487 =
         0.14393   -0.01394    0.00137   -0.01097
AFIX  43
H02V  2   -0.338351    0.803269    0.414021    11.00000   -1.20000
AFIX  65
C03O  1   -0.394447    0.763628    0.401641    11.00000    0.08580    0.04443 =
         0.13773   -0.01734   -0.01959    0.01906
AFIX  43
H03O  2   -0.422732    0.779424    0.407036    11.00000   -1.20000
AFIX  65
C01N  1   -0.402727    0.725733    0.389393    11.00000    0.08643    0.04246 =
         0.12562   -0.01933   -0.02316   -0.01604
C025  1   -0.360451    0.702125    0.381330    11.00000    0.06584    0.04859 =
         0.16168   -0.02709   -0.00742   -0.00709
AFIX  43
H025  2   -0.365990    0.676770    0.373135    11.00000   -1.20000
AFIX  66
C01M  1    0.744372    0.323292    0.421344    11.00000    0.05317    0.06127 =
         0.12069   -0.02092   -0.01239    0.01470
AFIX  43
H01M  2    0.722001    0.301385    0.416298    11.00000   -1.20000
AFIX  65
C029  1    0.798003    0.318592    0.418890    11.00000    0.06273    0.06224 =
         0.11875   -0.01399   -0.01078    0.01406
C030  1    0.831440    0.351335    0.426433    11.00000    0.06059    0.04125 =
         0.14263   -0.01923    0.00426   -0.00012
AFIX  43
H030  2    0.867323    0.348191    0.424790    11.00000   -1.20000
AFIX  65
C02K  1    0.811247    0.388779    0.436430    11.00000    0.04300    0.06592 =
         0.14463   -0.03107   -0.00074    0.01024
AFIX  43
H02K  2    0.833618    0.410686    0.441476    11.00000   -1.20000
AFIX  65
C01U  1    0.757616    0.393480    0.438885    11.00000    0.04825    0.04802 =
         0.14259   -0.00860   -0.00463    0.00162
C026  1    0.724178    0.360737    0.431342    11.00000    0.07011    0.06442 =
         0.14608   -0.01388   -0.02359    0.01938
AFIX  43
H026  2    0.688296    0.363882    0.432985    11.00000   -1.20000
AFIX   0
C01O  1   -0.204046    0.693868    0.409892    11.00000    0.05921    0.05162 =
         0.13773   -0.01224   -0.01743    0.00931
AFIX  23
H01A  2   -0.201600    0.680367    0.395707    11.00000   -1.20000
H01B  2   -0.235215    0.682958    0.417013    11.00000   -1.20000
AFIX   0
C01Q  1    0.764335    0.500000    0.500000    10.50000    0.05789    0.06458 =
         0.10370   -0.02288    0.00000    0.00000
AFIX  66
C01Z  1    0.216400    0.767571    0.329715    11.00000    0.07422    0.09779 =
         0.10806    0.00163   -0.02103    0.02798
C03A  1    0.220611    0.777135    0.307811    11.00000    0.06895    0.09832 =
         0.16560    0.00704   -0.00248    0.02673
AFIX  43
H03A  2    0.250772    0.769583    0.300310    11.00000   -1.20000
AFIX  65
C03H  1    0.179742    0.797985    0.297116    11.00000    0.09511    0.09931 =
         0.12364    0.00717   -0.00263    0.00850
AFIX  43
H03H  2    0.182560    0.804384    0.282461    11.00000   -1.20000
AFIX  65
C035  1    0.134662    0.809272    0.308327    11.00000    0.07297    0.08373 =
         0.14015    0.00244   -0.01586    0.04285
C038  1    0.130451    0.799708    0.330231    11.00000    0.06827    0.10030 =
         0.12459   -0.01472   -0.01457    0.03009
AFIX  43
H038  2    0.100289    0.807260    0.337731    11.00000   -1.20000
AFIX  65
C02R  1    0.171319    0.778858    0.340926    11.00000    0.09055    0.09187 =
         0.11430    0.00197   -0.01167    0.03742
AFIX  43
H02R  2    0.168501    0.772460    0.355581    11.00000   -1.20000
AFIX   0
C023  1   -0.154123    0.683010    0.423719    11.00000    0.10233    0.03693 =
         0.16414    0.00885   -0.00917    0.00217
AFIX  23
H02B  2   -0.161820    0.682724    0.439068    11.00000   -1.20000
H02D  2   -0.138787    0.654923    0.419588    11.00000   -1.20000
AFIX   0
C024  1   -0.052184    1.044546    0.337929    11.00000    0.05767    0.04074 =
         0.18347   -0.02621    0.00329    0.00719
C02B  1   -0.457035    0.709252    0.385719    11.00000    0.05391    0.04739 =
         0.10799   -0.00003   -0.00706   -0.01122
AFIX  66
C02G  1    0.088334    0.829909    0.296498    11.00000    0.07061    0.07254 =
         0.13118   -0.02271   -0.03180    0.01781
C03C  1    0.067626    0.812862    0.277478    11.00000    0.07005    0.07297 =
         0.13094    0.00445   -0.01679    0.01162
C02X  1    0.023067    0.831603    0.268521    11.00000    0.06993    0.06635 =
         0.13773   -0.00228   -0.02598    0.01097
C02P  1   -0.000786    0.867390    0.278584    11.00000    0.07719    0.04896 =
         0.13900   -0.01291   -0.02937    0.02413
C032  1    0.019921    0.884438    0.297603    11.00000    0.06418    0.06765 =
         0.12379   -0.02066   -0.02841    0.01755
C034  1    0.064480    0.865698    0.306560    11.00000    0.08427    0.07426 =
         0.14462   -0.02990   -0.02694    0.03009
AFIX  43
H034  2    0.078334    0.877104    0.319286    11.00000   -1.20000
AFIX   0
C02I  1    0.796330    0.543238    0.495346    11.00000    0.05010    0.06652 =
         0.13708   -0.02960    0.00656   -0.00213
AFIX  23
H02E  2    0.829850    0.536453    0.488862    11.00000   -1.20000
H02F  2    0.777244    0.563080    0.485898    11.00000   -1.20000
AFIX   0
C02J  1    0.258715    0.743789    0.339404    11.00000    0.05829    0.04597 =
         0.16098    0.01028   -0.00525    0.01675
C02L  1   -0.082508    0.715630    0.397301    11.00000    0.06304    0.05952 =
         0.16398   -0.01016   -0.00835    0.00790
AFIX  23
H02G  2   -0.099047    0.696476    0.386754    11.00000   -1.20000
H02H  2   -0.073257    0.743437    0.390486    11.00000   -1.20000
AFIX   0
C02M  1   -0.047454    0.775918    0.256904    11.00000    0.07993    0.09213 =
         0.10236    0.00704   -0.02881   -0.00400
AFIX  23
H02I  2   -0.066619    0.791001    0.268237    11.00000   -1.20000
H02J  2   -0.036621    0.747176    0.262231    11.00000   -1.20000
AFIX   0
C02S  1    0.817447    0.277050    0.409145    11.00000    0.05782    0.03521 =
         0.14144   -0.01463   -0.01495   -0.00184
C039  1    0.802891    0.562955    0.517661    11.00000    0.04533    0.06119 =
         0.15211   -0.01515    0.00932   -0.01894
AFIX  23
H03B  2    0.833740    0.551118    0.524667    11.00000   -1.20000
H03C  2    0.806089    0.594877    0.516829    11.00000   -1.20000
AFIX   0
C03F  1   -0.034336    0.693126    0.407815    11.00000    0.06757    0.09190 =
         0.15165   -0.01196   -0.00376    0.03009
AFIX  23
H03F  2   -0.039672    0.661455    0.408988    11.00000   -1.20000
H03G  2   -0.003233    0.698479    0.399272    11.00000   -1.20000
AFIX   0
C03G  1    0.000000    0.803214    0.250000    10.50000    0.07203    0.06740 =
         0.12264    0.00000   -0.02568    0.00000
C03J  1    0.718347    1.111851    0.356586    11.00000    0.04593    0.05557 =
         0.21419   -0.01629   -0.01351   -0.00091
AFIX  66
C03L  1    0.452161    0.875016    0.364826    11.00000    0.16859    0.07004 =
         0.21515    0.03918   -0.05753   -0.03363
AFIX  43
H03L  2    0.462498    0.864110    0.378212    11.00000   -1.20000
AFIX  65
C03U  1    0.430616    0.846675    0.349554    11.00000    0.13901    0.07601 =
         0.25054    0.02044   -0.06074   -0.03897
C03M  1    0.415166    0.862976    0.329546    11.00000    0.14200    0.07058 =
         0.23824    0.03670   -0.08982   -0.02315
AFIX  43
H03M  2    0.400752    0.844013    0.319328    11.00000   -1.20000
AFIX  65
C043  1    0.421261    0.907618    0.324812    11.00000    0.14335    0.11209 =
         0.26763    0.04290   -0.07933   -0.05177
AFIX  43
H043  2    0.410924    0.918524    0.311425    11.00000   -1.20000
AFIX  65
C048  1    0.442805    0.935960    0.340084    11.00000    0.14780    0.12412 =
         0.33282    0.08704   -0.06804   -0.07443
C04E  1    0.458256    0.919660    0.360091    11.00000    0.13065    0.11884 =
         0.27298    0.04886   -0.09044   -0.03987
AFIX  43
H04E  2    0.472671    0.938623    0.370310    11.00000   -1.20000
AFIX   0
C03N  1   -0.084500    0.770383    0.234808    11.00000    0.08112    0.07127 =
         0.14878    0.01208   -0.02237   -0.01406
AFIX  23
H03J  2   -0.076025    0.743758    0.226796    11.00000   -1.20000
H03K  2   -0.121428    0.770588    0.238249    11.00000   -1.20000
AFIX  66
C03P  1    0.063210    0.694348    0.437965    11.00000    0.06195    0.09640 =
         0.19905   -0.02296    0.01636    0.01724
C196  1    0.067289    0.651254    0.430324    11.00000    0.08388    0.15419 =
         0.23300   -0.00961    0.01132    0.04505
AFIX  43
H196  2    0.038044    0.633048    0.430069    11.00000   -1.20000
AFIX  65
C04J  1    0.115078    0.635370    0.423065    11.00000    0.08829    0.17240 =
         0.23601   -0.02011    0.01980    0.00760
AFIX  43
H04J  2    0.117806    0.606538    0.417954    11.00000   -1.20000
AFIX  65
C03X  1    0.158788    0.662581    0.423447    11.00000    0.07715    0.09995 =
         0.21842    0.00015    0.04082    0.01044
C45   1    0.154710    0.705675    0.431087    11.00000    0.07716    0.12006 =
         0.28477   -0.06429    0.02518    0.00538
AFIX  43
H45   2    0.183955    0.723881    0.431343    11.00000   -1.20000
AFIX  65
C101  1    0.106921    0.721559    0.438346    11.00000    0.09352    0.16430 =
         0.28274   -0.00181    0.05218   -0.02543
AFIX  43
H101  2    0.104193    0.750392    0.443458    11.00000   -1.20000
AFIX  66
C03R  1    0.619702    1.118664    0.359694    11.00000    0.05648    0.11336 =
         0.22250   -0.02907   -0.03283    0.01148
AFIX  43
H03R  2    0.623235    1.144597    0.367644    11.00000   -1.20000
AFIX  65
C041  1    0.570419    1.104004    0.353633    11.00000    0.11280    0.08921 =
         0.34530   -0.02803   -0.04651   -0.04553
AFIX  43
H041  2    0.540979    1.120128    0.357527    11.00000   -1.20000
AFIX  65
C040  1    0.565138    1.065244    0.341751    11.00000    0.15898    0.06745 =
         0.41258    0.03037   -0.07578   -0.00313
C044  1    0.609140    1.041145    0.335931    11.00000    0.11283    0.12260 =
         0.34541   -0.06804   -0.05391   -0.01609
AFIX  43
H044  2    0.605607    1.015212    0.327981    11.00000   -1.20000
AFIX  65
C046  1    0.658423    1.055805    0.341992    11.00000    0.08215    0.12276 =
         0.27529   -0.05108   -0.04016   -0.00833
AFIX  43
H046  2    0.687863    1.039680    0.338098    11.00000   -1.20000
AFIX  65
C03Y  1    0.663705    1.094564    0.353873    11.00000    0.09211    0.05439 =
         0.24512   -0.01180   -0.02237   -0.00592
AFIX   0
C03S  1    0.420255    0.799478    0.353858    11.00000    0.10464    0.07339 =
         0.18458   -0.00016   -0.02822   -0.03014
AFIX  66
C03W  1    0.500288    1.004455    0.342846    11.00000    0.10754    0.10417 =
         0.34610    0.04058   -0.08966   -0.01242
AFIX  43
H03W  2    0.524298    0.987390    0.350429    11.00000   -1.20000
AFIX  65
C111  1    0.511191    1.048539    0.338349    11.00000    0.10157    0.10938 =
         0.30130   -0.00919   -0.04867   -0.00858
C122  1    0.475305    1.074043    0.327014    11.00000    0.15512    0.10428 =
         0.32576    0.03481   -0.05997   -0.03377
C04O  1    0.428517    1.055463    0.320178    11.00000    0.15278    0.13871 =
         0.35159    0.03886   -0.06876   -0.01587
C35   1    0.417614    1.011379    0.324675    11.00000    0.11260    0.17981 =
         0.42868   -0.00683   -0.10798   -0.03452
C049  1    0.453499    0.985874    0.336009    11.00000    0.11805    0.10054 =
         0.33718    0.05595   -0.05313   -0.01345
AFIX   0
C042  1    0.178987    1.128151    0.188309    11.00000    0.16634    0.16559 =
         0.26849    0.04126   -0.08985   -0.02379
C04C  1    0.389044    1.080363    0.308084    11.00000    0.15278    0.13871 =
         0.35159    0.03886   -0.06876   -0.01587
AFIX  66
C04N  1    0.229839    1.076591    0.214144    11.00000    0.16634    0.16559 =
         0.26849    0.04126   -0.08985   -0.02379
AFIX  43
H04N  2    0.228999    1.054231    0.203828    11.00000   -1.20000
AFIX  65
C248  1    0.206927    1.117287    0.209767    11.00000    0.16634    0.16559 =
         0.26849    0.04126   -0.08985   -0.02379
C583  1    0.208184    1.150707    0.225185    11.00000    0.16634    0.16559 =
         0.26849    0.04126   -0.08985   -0.02379
AFIX  43
H583  2    0.192854    1.177936    0.222256    11.00000   -1.20000
AFIX  65
C615  1    0.232352    1.143432    0.244980    11.00000    0.16634    0.16559 =
         0.26849    0.04126   -0.08985   -0.02379
AFIX  43
H615  2    0.233193    1.165792    0.255295    11.00000   -1.20000
AFIX  65
C539  1    0.255265    1.102736    0.249357    11.00000    0.16634    0.16559 =
         0.26849    0.04126   -0.08985   -0.02379
C104  1    0.254009    1.069316    0.233940    11.00000    0.16634    0.16559 =
         0.26849    0.04126   -0.08985   -0.02379
AFIX  43
H104  2    0.269339    1.042088    0.236868    11.00000   -1.20000
AFIX   0
C13   1    0.499770    0.573225    0.406513    11.00000    0.06257    0.05339 =
         0.13816   -0.01174   -0.00560    0.02080
O36   3    0.372587    0.996145    0.317590    11.00000    0.26795    0.19129 =
         0.41924    0.10222   -0.06056   -0.01303
C215  1    0.402188    1.051980    0.286153    11.00000    0.18548    0.19845 =
         0.38393    0.01431    0.00587    0.00938
AFIX  23
H21A  2    0.439539    1.049964    0.283811    11.00000   -1.20000
H21B  2    0.387775    1.022368    0.287017    11.00000   -1.20000
AFIX   0
O271  3    0.223694    0.601367    0.412581    11.00000    0.09065    0.09716 =
         0.23674   -0.02293    0.00555    0.01728
C409  1    0.376177    1.078379    0.268373    11.00000    0.28990    0.21144 =
         0.34053    0.09726   -0.00950   -0.02141
AFIX  23
H40A  2    0.366762    1.060486    0.255958    11.00000   -1.20000
H40B  2    0.396478    1.103842    0.263873    11.00000   -1.20000
AFIX   0
C229  1    0.471998    1.123841    0.321038    11.00000    0.15339    0.15191 =
         0.37201    0.05402   -0.07460   -0.03450
AFIX  23
H22A  2    0.496695    1.131240    0.309721    11.00000   -1.20000
H22B  2    0.478722    1.142351    0.333537    11.00000   -1.20000
AFIX  66
C405  1    0.330492    1.096468    0.304877    11.00000    0.16432    0.40703 =
         0.35150   -0.03293   -0.00666    0.02581
C922  1    0.328754    1.090858    0.282592    11.00000    0.16432    0.40703 =
         0.35150   -0.03293   -0.00666    0.02581
C809  1    0.281831    1.095889    0.271594    11.00000    0.18768    0.30994 =
         0.34204    0.00273   -0.01413    0.02835
C71   1    0.236645    1.106531    0.282882    11.00000    0.18768    0.30994 =
         0.34204    0.00273   -0.01413    0.02835
AFIX  43
H71   2    0.205250    1.109897    0.275523    11.00000   -1.20000
AFIX  65
C546  1    0.238383    1.112141    0.305167    11.00000    0.16432    0.40703 =
         0.35150   -0.03293   -0.00666    0.02581
C900  1    0.285306    1.107110    0.316166    11.00000    0.16432    0.40703 =
         0.35150   -0.03293   -0.00666    0.02581
AFIX   0
C787  1    0.213150    0.646288    0.416998    11.00000    0.13341    0.12126 =
         0.28885    0.01426    0.03082    0.04361
AFIX  66
C567  1    0.183921    1.167894    0.317045    11.00000    0.18535    0.35716 =
         0.50908   -0.04694    0.11002    0.03937
AFIX  43
H567  2    0.211344    1.187566    0.314917    11.00000   -1.20000
AFIX  65
C479  1    0.136251    1.183172    0.324735    11.00000    0.18535    0.35716 =
         0.50908   -0.04694    0.11002    0.03937
AFIX  43
H479  2    0.131778    1.213065    0.327753    11.00000   -1.20000
AFIX  65
C232  1    0.095265    1.153771    0.327914    11.00000    0.18535    0.35716 =
         0.50908   -0.04694    0.11002    0.03937
C777  1    0.101949    1.109091    0.323404    11.00000    0.18535    0.35716 =
         0.50908   -0.04694    0.11002    0.03937
AFIX  43
H777  2    0.074526    1.089420    0.325531    11.00000   -1.20000
AFIX  65
C656  1    0.149619    1.093813    0.315714    11.00000    0.18535    0.35716 =
         0.50908   -0.04694    0.11002    0.03937
AFIX  43
H656  2    0.154091    1.063920    0.312696    11.00000   -1.20000
AFIX  65
C662  1    0.190605    1.123214    0.312534    11.00000    0.18535    0.35716 =
         0.50908   -0.04694    0.11002    0.03937
AFIX   0
O447  3    0.282868    1.094563    0.336586    11.00000    0.51609    0.41113 =
         0.28353    0.07734   -0.02353   -0.19025
C850  1    0.046363    1.172472    0.335745    11.00000    0.12630    0.20108 =
         0.36335   -0.07000    0.02362   -0.04240
C280  1    0.414396    1.129359    0.312966    11.00000    0.16470    0.18639 =
         0.43828    0.01722   -0.07587   -0.01409
AFIX  23
H28A  2    0.413846    1.147067    0.299896    11.00000   -1.20000
H28B  2    0.393903    1.144470    0.323885    11.00000   -1.20000
AFIX   0
O325  3    0.056614    1.212002    0.337966    11.00000    0.12630    0.20108 =
         0.36335   -0.07000    0.02362   -0.04240
HKLF 4




REM  a_a.res in C222(1)
REM wR2 = 0.1272, GooF = S = 0.918, Restrained GooF = 0.970 for all data
REM R1 = 0.0470 for 15298 Fo > 4sig(Fo) and 0.0622 for all 22879 data
REM 1289 parameters refined using 223 restraints

END

WGHT      0.0870      0.0000

REM Highest difference peak  1.354,  deepest hole -1.048,  1-sigma level  0.053
Q1    1   0.3361  0.6506  0.4099  11.00000  0.05    0.33
Q2    1   0.1969  1.1202  0.1638  11.00000  0.05    0.32
Q3    1   0.3447  0.7185  0.4143  11.00000  0.05    0.29
Q4    1   0.0208  1.2552  0.3370  11.00000  0.05    0.28
Q5    1   0.3921  0.6318  0.3434  11.00000  0.05    0.27
Q6    1  -0.1222  1.0681  0.3381  11.00000  0.05    0.27
Q7    1  -0.1584  1.0578  0.3362  11.00000  0.05    0.27
Q8    1   0.4565  0.7029  0.3182  11.00000  0.05    0.26
Q9    1   0.3833  0.6611  0.3929  11.00000  0.05    0.26
Q10   1   0.7885  0.2297  0.3988  11.00000  0.05    0.26
Q11   1  -0.0692  0.8871  0.5705  11.00000  0.05    0.25
Q12   1   0.4045  0.6526  0.3888  11.00000  0.05    0.25
Q13   1   0.3928  0.6498  0.3393  11.00000  0.05    0.24
Q14   1  -0.0023  1.1068  0.3286  11.00000  0.05    0.24
Q15   1   0.3640  0.6500  0.3892  11.00000  0.05    0.24
Q16   1   0.4584  0.6718  0.3444  11.00000  0.05    0.24
Q17   1  -0.0970  1.0463  0.3645  11.00000  0.05    0.24
Q18   1  -0.0258  1.0965  0.3429  11.00000  0.05    0.24
Q19   1   0.4149  0.5867  0.4267  11.00000  0.05    0.24
Q20   1   0.3811  0.6346  0.3612  11.00000  0.05    0.24
Q21   1   0.4192  0.5735  0.3775  11.00000  0.05    0.24
Q22   1   0.3493  0.7217  0.3888  11.00000  0.05    0.23
Q23   1   0.1545  1.1328  0.1658  11.00000  0.05    0.23
Q24   1   0.4164  0.5868  0.3906  11.00000  0.05    0.23
Q25   1   0.3310  0.6580  0.3987  11.00000  0.05    0.23
Q26   1   0.4658  0.6279  0.4267  11.00000  0.05    0.22
Q27   1  -0.0417  1.0985  0.3280  11.00000  0.05    0.22
Q28   1   0.7307  1.0960  0.3200  11.00000  0.05    0.22
Q29   1   0.3495  0.6798  0.3945  11.00000  0.05    0.22
Q30   1  -0.1601  1.0501  0.3683  11.00000  0.05    0.22
Q31   1  -0.1067  1.0008  0.3282  11.00000  0.05    0.22
Q32   1   0.8480  0.2390  0.4230  11.00000  0.05    0.22
Q33   1   0.4180  0.6882  0.4096  11.00000  0.05    0.22
Q34   1   0.4306  0.7335  0.3444  11.00000  0.05    0.22
Q35   1   0.4005  0.6721  0.3566  11.00000  0.05    0.22
Q36   1   0.4300  0.6732  0.3334  11.00000  0.05    0.22
Q37   1   0.4358  0.5376  0.3754  11.00000  0.05    0.22
Q38   1   0.2806  0.6976  0.3403  11.00000  0.05    0.22
Q39   1   0.0157  1.0706  0.3163  11.00000  0.05    0.22
Q40   1   0.3968  0.6227  0.3337  11.00000  0.05    0.22
Q41   1  -0.4995  0.7293  0.4130  11.00000  0.05    0.22
Q42   1   0.3924  0.5778  0.4250  11.00000  0.05    0.21
Q43   1   0.3501  0.5904  0.4262  11.00000  0.05    0.21
Q44   1   0.1110  1.1679  0.1804  11.00000  0.05    0.21
Q45   1   0.4280  0.5585  0.3945  11.00000  0.05    0.21
Q46   1   0.3792  0.6598  0.3233  11.00000  0.05    0.21
Q47   1   0.7710  1.1307  0.3348  11.00000  0.05    0.21
Q48   1   0.7426  0.2259  0.4102  11.00000  0.05    0.21
Q49   1  -0.0081  1.0653  0.3181  11.00000  0.05    0.21
Q50   1   0.2370  0.7801  0.3682  11.00000  0.05    0.21
Q51   1   0.4087  0.6402  0.3476  11.00000  0.05    0.21
Q52   1  -0.0363  0.7978  0.5911  11.00000  0.05    0.21
Q53   1   0.0563  1.2493  0.3593  11.00000  0.05    0.21
Q54   1   0.2912  0.6486  0.4013  11.00000  0.05    0.21
Q55   1   0.7969  0.2076  0.4100  11.00000  0.05    0.21
Q56   1  -0.1160  1.0716  0.4226  11.00000  0.05    0.21
Q57   1   0.3282  0.7128  0.3162  11.00000  0.05    0.20
Q58   1   0.3738  0.5666  0.3747  11.00000  0.05    0.20
Q59   1   0.7151  1.1947  0.3635  11.00000  0.05    0.20
Q60   1   0.0467  1.0461  0.3177  11.00000  0.05    0.20
Q61   1  -0.1379  1.0204  0.3530  11.00000  0.05    0.20
Q62   1   0.2271  0.6993  0.3686  11.00000  0.05    0.20
Q63   1   0.4402  0.6687  0.3120  11.00000  0.05    0.20
Q64   1   0.3741  0.9925  0.3108  11.00000  0.05    0.20
Q65   1   0.3137  0.6212  0.4300  11.00000  0.05    0.20
Q66   1   0.8387  0.3090  0.3886  11.00000  0.05    0.20
Q67   1  -0.4508  0.6291  0.3836  11.00000  0.05    0.20
Q68   1  -0.0794  0.8583  0.5580  11.00000  0.05    0.20
Q69   1   0.3501  0.6821  0.4161  11.00000  0.05    0.20
Q70   1   0.4276  0.7366  0.3272  11.00000  0.05    0.20
Q71   1   0.3084  0.6367  0.3849  11.00000  0.05    0.19
Q72   1  -0.3999  0.6703  0.3763  11.00000  0.05    0.19
Q73   1   0.7975  1.0576  0.3570  11.00000  0.05    0.19
Q74   1  -0.1329  1.0111  0.3328  11.00000  0.05    0.19
Q75   1   0.8808  0.2604  0.4014  11.00000  0.05    0.19
Q76   1   0.3342  0.6325  0.3735  11.00000  0.05    0.19
Q77   1   0.3643  0.7415  0.3186  11.00000  0.05    0.19
Q78   1   0.4512  0.7011  0.3560  11.00000  0.05    0.19
Q79   1  -0.0845  1.0773  0.3203  11.00000  0.05    0.19
Q80   1   0.3440  0.6889  0.4053  11.00000  0.05    0.19
Q81   1  -0.1199  1.0612  0.4288  11.00000  0.05    0.19
Q82   1   0.7321  1.0748  0.3229  11.00000  0.05    0.19
Q83   1   0.2696  0.6171  0.4340  11.00000  0.05    0.19
Q84   1  -0.1179  1.0570  0.3610  11.00000  0.05    0.19
Q85   1   0.3764  0.6868  0.3948  11.00000  0.05    0.19
Q86   1   0.3703  1.0422  0.3344  11.00000  0.05    0.19
Q87   1  -0.1906  1.0740  0.4099  11.00000  0.05    0.19
Q88   1   0.3779  0.7497  0.3221  11.00000  0.05    0.19
Q89   1   0.2524  1.1435  0.3150  11.00000  0.05    0.19
Q90   1  -0.4223  0.6883  0.4069  11.00000  0.05    0.18
Q91   1   0.5204  0.5411  0.3685  11.00000  0.05    0.18
Q92   1  -0.1776  1.0689  0.4164  11.00000  0.05    0.18
Q93   1   0.2435  0.5628  0.4061  11.00000  0.05    0.18
Q94   1  -0.2156  0.9980  0.3820  11.00000  0.05    0.18
Q95   1   0.4304  0.5980  0.3568  11.00000  0.05    0.18
Q96   1  -0.0743  0.8424  0.5654  11.00000  0.05    0.18
Q97   1  -0.1498  1.0503  0.4128  11.00000  0.05    0.18
Q98   1  -0.3386  0.7370  0.4177  11.00000  0.05    0.18
Q99   1   0.5211  1.1213  0.3353  11.00000  0.05    0.18
Q100  1   0.1407  1.1935  0.3365  11.00000  0.05    0.18
Q101  1   0.2925  0.6429  0.4432  11.00000  0.05    0.18
Q102  1   0.7890  1.0403  0.3427  11.00000  0.05    0.18
Q103  1   0.1756  1.0382  0.1930  11.00000  0.05    0.18
Q104  1   0.3813  0.5793  0.3891  11.00000  0.05    0.18
Q105  1   0.4870  0.7165  0.3120  11.00000  0.05    0.18
Q106  1   0.4366  0.6170  0.3900  11.00000  0.05    0.18
Q107  1   0.2476  0.6289  0.3948  11.00000  0.05    0.18
Q108  1   0.6782  1.1202  0.3885  11.00000  0.05    0.18
Q109  1   0.3286  0.6707  0.4202  11.00000  0.05    0.18
Q110  1   0.2908  0.5728  0.3811  11.00000  0.05    0.18
Q111  1   0.4097  0.7569  0.3691  11.00000  0.05    0.17
Q112  1   0.0628  1.1578  0.3218  11.00000  0.05    0.17
Q113  1  -0.0707  1.0081  0.3560  11.00000  0.05    0.17
Q114  1   0.2911  0.6457  0.3653  11.00000  0.05    0.17
Q115  1   0.8382  0.5000  0.5000  10.50000  0.05    0.17
Q116  1   0.9234  0.2623  0.4111  11.00000  0.05    0.17
Q117  1  -0.2140  0.6899  0.4341  11.00000  0.05    0.17
Q118  1   0.6895  1.1104  0.3276  11.00000  0.05    0.17
Q119  1  -0.5352  0.7612  0.3979  11.00000  0.05    0.17
Q120  1   0.3069  0.7007  0.3362  11.00000  0.05    0.17
Q121  1   0.1402  1.0525  0.3208  11.00000  0.05    0.17
Q122  1   0.7421  1.0961  0.3572  11.00000  0.05    0.17
Q123  1   0.0199  1.0465  0.3389  11.00000  0.05    0.17
Q124  1   0.4538  0.7500  0.3344  11.00000  0.05    0.17
Q125  1   0.4059  0.7731  0.3313  11.00000  0.05    0.17
Q126  1   0.3486  0.7317  0.3603  11.00000  0.05    0.17
Q127  1   0.6583  1.1982  0.3611  11.00000  0.05    0.17
Q128  1   0.1280  1.1355  0.3352  11.00000  0.05    0.17
Q129  1   0.4762  0.7520  0.3611  11.00000  0.05    0.17
Q130  1   0.8823  0.3311  0.4343  11.00000  0.05    0.17
Q131  1   0.5718  0.5907  0.3817  11.00000  0.05    0.17
Q132  1   0.4524  0.6283  0.4104  11.00000  0.05    0.17
Q133  1   0.4158  0.6815  0.3765  11.00000  0.05    0.17
Q134  1   0.4039  0.5814  0.3577  11.00000  0.05    0.17
Q135  1   0.8749  0.3500  0.4045  11.00000  0.05    0.17
Q136  1   0.4465  0.5947  0.4341  11.00000  0.05    0.17
Q137  1   0.2457  0.7101  0.3221  11.00000  0.05    0.17
Q138  1   0.2601  0.6035  0.4293  11.00000  0.05    0.17
Q139  1  -0.1402  1.0096  0.4204  11.00000  0.05    0.17
Q140  1  -0.5082  0.7814  0.3917  11.00000  0.05    0.17
Q141  1   0.3888  0.7571  0.3355  11.00000  0.05    0.17
Q142  1   0.7473  0.2908  0.3998  11.00000  0.05    0.17
Q143  1   0.4563  0.5993  0.3841  11.00000  0.05    0.17
Q144  1   0.1952  0.7567  0.3579  11.00000  0.05    0.17
Q145  1   0.5682  0.5676  0.3884  11.00000  0.05    0.17
Q146  1   0.2681  0.7227  0.3063  11.00000  0.05    0.16
Q147  1   0.8754  0.3180  0.4201  11.00000  0.05    0.16
Q148  1   0.4496  0.6827  0.3598  11.00000  0.05    0.16
Q149  1   0.5604  0.5619  0.3850  11.00000  0.05    0.16
Q150  1   0.3309  0.5891  0.4035  11.00000  0.05    0.16
Q151  1   0.5971  1.1068  0.3830  11.00000  0.05    0.16
Q152  1   0.3825  0.8289  0.3730  11.00000  0.05    0.16
Q153  1   0.4259  0.7701  0.3759  11.00000  0.05    0.16
Q154  1  -0.4298  0.6680  0.3977  11.00000  0.05    0.16
Q155  1  -0.1189  1.0692  0.3145  11.00000  0.05    0.16
Q156  1   0.2879  0.7724  0.3574  11.00000  0.05    0.16
Q157  1   0.6999  1.0973  0.3237  11.00000  0.05    0.16
Q158  1   0.2605  0.7262  0.3114  11.00000  0.05    0.16
Q159  1   0.0113  0.7411  0.5695  11.00000  0.05    0.16
Q160  1  -0.0098  0.7387  0.5609  11.00000  0.05    0.16
Q161  1   0.2198  0.5331  0.4086  11.00000  0.05    0.16
Q162  1   0.4103  0.6583  0.3676  11.00000  0.05    0.16
Q163  1   0.4170  0.6096  0.3800  11.00000  0.05    0.16
Q164  1   0.0212  0.7535  0.4254  11.00000  0.05    0.16
Q165  1   0.5815  0.5792  0.4343  11.00000  0.05    0.16
Q166  1   0.3353  1.1497  0.3270  11.00000  0.05    0.16
Q167  1   0.3954  0.7997  0.3871  11.00000  0.05    0.16
Q168  1  -0.0581  0.7565  0.4165  11.00000  0.05    0.16
Q169  1  -0.1371  0.9703  0.3399  11.00000  0.05    0.16
Q170  1   0.5009  0.6026  0.3801  11.00000  0.05    0.16
Q171  1   0.0608  1.1070  0.3242  11.00000  0.05    0.16
Q172  1  -0.0736  0.7500  0.5808  11.00000  0.05    0.16
Q173  1   0.7045  1.0645  0.3181  11.00000  0.05    0.16
Q174  1  -0.1145  0.8787  0.4313  11.00000  0.05    0.16
Q175  1  -0.0856  0.8819  0.5469  11.00000  0.05    0.16
Q176  1   0.7310  1.1402  0.3352  11.00000  0.05    0.16
Q177  1   0.3134  0.7284  0.3111  11.00000  0.05    0.16
Q178  1   0.8295  0.2480  0.4295  11.00000  0.05    0.16
Q179  1   0.0034  0.6767  0.4303  11.00000  0.05    0.16
Q180  1   0.4704  0.6976  0.3398  11.00000  0.05    0.16
Q181  1   0.1401  0.6944  0.4060  11.00000  0.05    0.16
Q182  1   0.6825  1.1196  0.3312  11.00000  0.05    0.16
Q183  1  -0.1159  0.7513  0.5652  11.00000  0.05    0.16
Q184  1   0.2077  0.7089  0.4035  11.00000  0.05    0.16
Q185  1   0.5293  0.5910  0.3776  11.00000  0.05    0.16
Q186  1   0.1901  0.6708  0.4413  11.00000  0.05    0.16
Q187  1   0.1538  1.1183  0.3386  11.00000  0.05    0.16
Q188  1   0.7463  0.2609  0.4256  11.00000  0.05    0.16
Q189  1  -0.3910  0.6929  0.3560  11.00000  0.05    0.16
Q190  1   0.1247  1.2318  0.3318  11.00000  0.05    0.16
Q191  1   0.1908  0.7195  0.4153  11.00000  0.05    0.16
Q192  1   0.1755  1.0581  0.3165  11.00000  0.05    0.16
Q193  1   0.3795  0.6901  0.4226  11.00000  0.05    0.16
Q194  1   0.7426  0.2818  0.4059  11.00000  0.05    0.16
Q195  1   0.7996  0.2211  0.4205  11.00000  0.05    0.15
Q196  1  -0.1523  0.8325  0.4354  11.00000  0.05    0.15
Q197  1   0.2594  0.8196  0.3059  11.00000  0.05    0.15
Q198  1   0.4729  0.5457  0.3878  11.00000  0.05    0.15
Q199  1  -0.2384  0.9251  0.3728  11.00000  0.05    0.15
Q200  1  -0.1835  1.0326  0.3613  11.00000  0.05    0.15
Q201  1   0.3007  1.0935  0.2379  11.00000  0.05    0.15
Q202  1   0.3021  0.6482  0.4176  11.00000  0.05    0.15
Q203  1  -0.4826  0.7523  0.4244  11.00000  0.05    0.15
Q204  1   0.2718  1.0854  0.3355  11.00000  0.05    0.15
Q205  1   0.2917  0.6215  0.4052  11.00000  0.05    0.15
Q206  1   0.3604  1.1055  0.3324  11.00000  0.05    0.15
Q207  1   0.4722  1.1602  0.3347  11.00000  0.05    0.15
Q208  1   0.7872  0.2634  0.3942  11.00000  0.05    0.15
Q209  1  -0.4288  0.7219  0.4163  11.00000  0.05    0.15
Q210  1  -0.3010  0.7209  0.4165  11.00000  0.05    0.15
Q211  1  -0.1226  0.9958  0.3681  11.00000  0.05    0.15
Q212  1   0.0734  0.9944  0.3271  11.00000  0.05    0.15
Q213  1  -0.1335  0.8473  0.5736  11.00000  0.05    0.15
Q214  1   0.4289  0.6352  0.3356  11.00000  0.05    0.15
Q215  1   0.0103  1.0973  0.3554  11.00000  0.05    0.15
Q216  1   0.2896  0.7008  0.3189  11.00000  0.05    0.15
Q217  1   0.4673  0.6475  0.3936  11.00000  0.05    0.15
Q218  1  -0.1194  0.9416  0.3372  11.00000  0.05    0.15
Q219  1  -0.1860  1.0406  0.3577  11.00000  0.05    0.15
Q220  1   0.6999  1.0423  0.3589  11.00000  0.05    0.15
Q221  1   0.2482  1.0932  0.3547  11.00000  0.05    0.15
Q222  1   0.6373  1.0105  0.3286  11.00000  0.05    0.15
Q223  1   0.3898  0.6007  0.3779  11.00000  0.05    0.15
Q224  1   0.2372  0.7363  0.3663  11.00000  0.05    0.15
Q225  1   0.5644  1.1395  0.3866  11.00000  0.05    0.15
;
_shelx_res_checksum              94968
_shelx_fab_file
;
0 0 6 -133.6590 -0.5190
0 0 8 227.9451 -4.4018
0 0 10 -250.3331 0.1827
0 0 12 -667.0259 0.3704
0 0 14 46.0423 0.1804
0 0 16 -109.1672 1.7003
0 0 20 50.3915 -2.1739
0 0 22 19.9643 0.4534
0 0 24 -32.4014 1.4196
0 0 26 -15.4846 -0.2472
0 0 28 -18.4773 -0.5869
0 0 30 -6.1587 0.1067
0 0 32 25.6733 0.9653
0 0 34 22.1532 -0.5709
0 0 36 10.9573 -1.8899
0 0 38 -24.3091 1.1875
0 0 40 30.9213 2.3187
0 0 42 16.3618 -1.3657
0 0 44 19.7533 -1.8300
0 0 46 6.8297 0.9818
0 0 48 -9.9006 0.8144
0 0 50 1.4593 -0.2727
0 0 52 19.9870 -0.0347
0 0 54 -55.8394 -0.2712
0 0 56 6.3536 -0.3312
0 0 58 -22.9626 0.3460
0 0 60 -13.6711 0.2569
0 0 62 -31.8053 -0.1180
0 0 64 2.9692 -0.0333
0 2 0 720.9655 4.8529
0 2 2 462.6380 1.8706
0 2 3 336.5416 4.2770
0 2 4 -307.2941 -2.9723
0 2 5 -421.5867 -4.0432
0 2 6 -768.2209 -0.6096
0 2 7 131.8918 -1.8597
0 2 8 356.5063 0.9674
0 2 9 206.1713 1.6515
0 2 10 323.2700 0.2367
0 2 11 -131.1449 0.0582
0 2 12 -69.4666 0.2480
0 2 13 -9.2132 -0.5439
0 2 14 80.2398 -1.5636
0 2 15 -148.2611 1.2522
0 2 16 -3.9738 -0.1925
0 2 17 -143.9391 0.4097
0 2 18 49.4995 2.5254
0 2 19 38.0047 -1.7559
0 2 20 -64.9646 -0.6709
0 2 21 -194.0647 -0.6148
0 2 22 -72.1065 -2.2752
0 2 23 43.4303 1.3470
0 2 24 -4.9763 1.3808
0 2 25 14.1987 0.8472
0 2 26 11.6417 1.0610
0 2 27 -25.9482 -0.6127
0 2 28 -28.1084 -1.0132
0 2 29 -2.4808 -0.4640
0 2 30 -14.0551 0.4843
0 2 31 24.7405 -0.0894
0 2 32 38.8596 0.2111
0 2 33 -4.0927 -0.2350
0 2 34 66.6778 -1.0126
0 2 35 -37.7490 0.2594
0 2 36 7.9393 0.6574
0 2 37 7.8055 0.9929
0 2 38 21.0442 0.7073
0 2 39 54.5722 -0.1478
0 2 40 0.3431 -0.9994
0 2 41 18.5995 -1.3084
0 2 42 -0.4603 -0.1631
0 2 43 10.2744 -0.0173
0 2 44 2.3785 0.7006
0 2 45 -8.5878 0.9696
0 2 46 -0.0673 -0.2701
0 2 47 -4.1815 0.1178
0 2 48 -4.1926 -0.2571
0 2 49 2.1019 -0.4700
0 2 50 -33.8699 0.3090
0 2 51 24.6376 -0.1305
0 2 52 1.1110 -0.0937
0 2 53 27.6145 0.1014
0 2 54 -24.1750 -0.1829
0 2 55 -15.1380 0.0823
0 2 56 31.0513 0.1670
0 2 57 -6.0384 0.0174
0 2 58 23.1869 0.0750
0 2 59 -26.6574 0.0084
0 2 60 7.1500 -0.0637
0 2 61 11.6994 0.0178
0 2 62 34.6255 -0.0807
0 2 63 -14.6550 -0.0605
0 2 64 -8.5940 -0.0620
0 2 65 -7.5015 -0.0975
0 4 0 -43.2492 2.3139
0 4 1 23.1036 -1.1873
0 4 2 -679.2612 -0.0987
0 4 3 -418.2966 -1.2377
0 4 4 -74.3432 -2.2443
0 4 5 -59.3083 1.8367
0 4 6 25.9503 -1.4869
0 4 7 13.0305 0.1008
0 4 8 81.3155 1.7655
0 4 9 -82.3660 -0.9232
0 4 10 200.1523 0.0710
0 4 11 62.9490 -0.5018
0 4 12 259.4533 -1.0333
0 4 13 -76.0545 -0.4112
0 4 14 -157.6053 2.0741
0 4 15 -133.7772 1.4288
0 4 16 -99.9854 -0.1451
0 4 17 29.7525 1.2455
0 4 18 38.9858 -3.3866
0 4 19 68.6003 -2.2912
0 4 20 -11.3008 1.0026
0 4 21 -19.3358 -0.8263
0 4 22 -22.9761 3.5715
0 4 23 10.0417 2.4883
0 4 24 -43.1297 -1.1001
0 4 25 39.8487 -0.2220
0 4 26 65.7355 -2.1713
0 4 27 15.6206 -1.4751
0 4 28 -25.4047 0.5113
0 4 29 -5.1722 0.9764
0 4 30 1.1595 0.2751
0 4 31 20.9767 0.0934
0 4 32 13.9214 -0.0282
0 4 33 -9.0319 -0.8270
0 4 34 -37.2659 0.9601
0 4 35 -22.4902 0.8373
0 4 36 13.4486 -0.1859
0 4 37 -57.6567 0.2096
0 4 38 5.2243 -1.1139
0 4 39 12.7113 -0.9520
0 4 40 16.7346 -0.0179
0 4 41 -26.7276 0.3585
0 4 42 -2.8419 0.5577
0 4 43 18.5760 0.4658
0 4 44 0.6027 0.4238
0 4 45 1.5527 -0.5531
0 4 46 -6.0485 -0.0120
0 4 47 -32.6525 0.0594
0 4 48 29.5388 -0.6191
0 4 49 -9.6256 0.4390
0 4 50 18.0821 -0.2002
0 4 51 9.5359 -0.2984
0 4 52 -5.2982 0.5320
0 4 53 9.1995 -0.2130
0 4 54 -23.9551 0.1084
0 4 55 -6.3762 0.2706
0 4 56 17.3277 -0.2605
0 4 57 -6.0213 0.0917
0 4 58 -19.0497 0.0285
0 4 59 -2.4990 -0.1211
0 4 60 8.7697 0.0077
0 4 61 -13.4685 -0.1054
0 4 62 -2.6588 -0.1163
0 4 63 11.0825 0.0459
0 4 64 6.4742 0.0946
0 4 65 -2.0311 0.1896
0 6 0 265.3319 0.7493
0 6 1 13.2023 -0.1966
0 6 2 -84.7856 -0.1718
0 6 3 -242.9621 -1.3838
0 6 4 178.7671 -0.1296
0 6 5 -233.5217 -0.8365
0 6 6 -128.1786 0.0570
0 6 7 -120.3620 2.2556
0 6 8 -197.6422 -0.2645
0 6 9 -51.0187 0.3249
0 6 10 -0.8386 -0.1723
0 6 11 59.3489 -0.9813
0 6 12 35.5251 0.9128
0 6 13 -1.8444 1.1857
0 6 14 156.2560 0.3097
0 6 15 13.6506 -1.4622
0 6 16 84.9482 -1.3397
0 6 17 -16.6624 -2.3180
0 6 18 41.9698 -0.5920
0 6 19 84.9339 3.6890
0 6 20 40.2219 1.3783
0 6 21 64.1480 2.3573
0 6 22 53.1997 0.6039
0 6 23 -20.2895 -3.9848
0 6 24 5.1272 -1.2498
0 6 25 41.7040 -1.4038
0 6 26 3.4779 -0.2784
0 6 27 -26.4209 2.4796
0 6 28 3.1312 0.8784
0 6 29 16.5826 0.0410
0 6 30 26.7052 -0.1189
0 6 31 10.0749 -0.2361
0 6 32 -40.5900 -0.3065
0 6 33 14.6051 0.6469
0 6 34 -32.6497 0.4594
0 6 35 14.4944 -1.0823
0 6 36 33.1750 -0.1274
0 6 37 9.8924 -0.6382
0 6 38 11.3413 -0.5014
0 6 39 -11.2380 0.9086
0 6 40 -2.4861 0.2899
0 6 41 10.6251 0.3105
0 6 42 14.2459 0.2611
0 6 43 14.2038 0.0483
0 6 44 -0.9719 -0.4018
0 6 45 11.3898 -0.1633
0 6 46 -21.5832 0.0391
0 6 47 12.2450 -0.8787
0 6 48 22.0401 0.3896
0 6 49 -10.8177 0.2039
0 6 50 0.2672 -0.3431
0 6 51 -16.9020 0.9896
0 6 52 18.5433 -0.3539
0 6 53 -9.3688 -0.2640
0 6 54 -16.0936 0.4680
0 6 55 0.7274 -0.5567
0 6 56 -24.7941 0.2945
0 6 57 19.5755 0.2516
0 6 58 11.0707 -0.4482
0 6 59 7.4255 0.0135
0 6 60 -5.3455 -0.2230
0 6 61 22.2623 -0.1254
0 6 62 -21.4669 0.3239
0 6 63 10.1497 0.2586
0 6 64 7.5902 0.1548
0 6 65 -6.3459 0.0089
0 6 66 5.6619 -0.1959
0 6 67 1.8944 -0.2099
0 6 68 -1.5204 -0.0787
0 6 69 -1.5133 0.0567
0 6 70 -10.5430 0.1075
0 6 71 -16.5237 0.0331
0 6 72 3.5955 -0.0071
0 6 73 -0.5071 -0.0417
0 8 0 -18.0732 -1.1887
0 8 1 -88.1242 -2.4509
0 8 2 60.3130 -0.9439
0 8 3 -19.8628 -1.2586
0 8 4 -91.1162 1.0320
0 8 5 -25.7500 1.8843
0 8 6 -74.8067 1.9843
0 8 7 -91.5034 -0.5115
0 8 8 30.8396 -0.7088
0 8 9 -11.7756 0.1214
0 8 10 -22.1013 -1.1881
0 8 11 94.6634 1.6193
0 8 12 -67.2774 0.1473
0 8 13 -145.1659 -1.7777
0 8 14 -74.7937 -0.7101
0 8 15 -9.0092 -1.4544
0 8 16 -39.7315 0.6291
0 8 17 -13.5026 2.4621
0 8 18 -27.1044 2.7032
0 8 19 -10.6566 0.5434
0 8 20 6.4051 -1.1543
0 8 21 19.2145 -1.6944
0 8 22 -6.7497 -3.4430
0 8 23 12.0938 0.2940
0 8 24 29.4271 1.3004
0 8 25 4.0946 0.5828
0 8 26 -57.8022 2.5491
0 8 27 6.3539 -0.3610
0 8 28 27.0132 -0.9946
0 8 29 73.0112 0.0699
0 8 30 -1.9814 -1.0484
0 8 31 20.4043 0.1341
0 8 32 7.0066 0.4251
0 8 33 28.2635 -0.0061
0 8 34 13.5920 -0.1852
0 8 35 15.8436 0.0684
0 8 36 -65.2183 -0.1198
0 8 37 -9.9008 -0.4000
0 8 38 -18.3896 0.3803
0 8 39 -12.0349 0.0484
0 8 40 -15.1863 0.2735
0 8 41 24.7671 0.5789
0 8 42 -0.5548 0.1067
0 8 43 11.0598 -0.3809
0 8 44 -5.8234 -0.6196
0 8 45 -23.4345 -0.2860
0 8 46 -8.9956 -0.5538
0 8 47 0.6002 0.5693
0 8 48 -15.3653 0.8112
0 8 49 12.6692 -0.2936
0 8 50 -8.1014 0.6540
0 8 51 -7.6582 -0.4715
0 8 52 -12.4807 -0.6459
0 8 53 -24.4540 0.7295
0 8 54 -4.6334 -0.3789
0 8 55 22.2550 0.1765
0 8 56 -17.8000 0.2878
0 8 57 -0.0895 -0.7899
0 8 58 7.6419 0.0551
0 8 59 -2.9811 0.0949
0 8 60 -11.9683 0.0525
0 8 61 4.9183 0.5511
0 8 62 2.2658 0.1417
0 8 63 11.5066 -0.1580
0 8 64 -0.4963 -0.2080
0 8 65 6.7716 -0.2300
0 8 66 2.9498 -0.1513
0 8 67 2.6678 0.0749
0 8 68 3.3060 0.1778
0 8 69 7.7204 0.0145
0 8 70 -8.9774 0.0541
0 10 0 -26.4297 -3.5110
0 10 1 68.3146 2.0370
0 10 2 -75.1920 0.7635
0 10 3 -60.4325 2.3669
0 10 4 -49.4964 2.5109
0 10 5 61.0291 -0.8336
0 10 6 56.8992 -1.3964
0 10 7 -35.2995 -1.4217
0 10 8 91.0008 0.1191
0 10 9 -54.5359 -0.7124
0 10 10 -18.6925 0.9927
0 10 11 -22.0599 0.0667
0 10 12 5.7006 -2.1753
0 10 13 11.1632 1.3787
0 10 14 40.8793 0.1565
0 10 15 46.5175 0.9851
0 10 16 16.1752 2.4054
0 10 17 -15.0814 -0.8551
0 10 18 12.6369 -1.1436
0 10 19 33.3168 -1.4202
0 10 20 32.6538 -1.0878
0 10 21 -23.6012 -0.2976
0 10 22 13.6696 1.1964
0 10 23 -23.1880 1.3215
0 10 24 -4.0821 -0.6019
0 10 25 6.0710 1.2570
0 10 26 -43.6919 -0.7205
0 10 27 2.5162 -1.0804
0 10 28 15.9304 1.3702
0 10 29 12.8809 -1.3170
0 10 30 -34.1492 0.2516
0 10 31 -22.2169 0.8893
0 10 32 1.2561 -1.0303
0 10 33 23.9759 0.6719
0 10 34 9.9263 -0.3542
0 10 35 -11.6564 -0.9241
0 10 36 9.1982 0.2492
0 10 37 -15.6043 0.1308
0 10 38 4.6394 0.7529
0 10 39 -21.7288 0.9389
0 10 40 -36.5991 0.1697
0 10 41 23.7821 -0.6204
0 10 42 -2.7512 -1.1089
0 10 43 16.9574 -0.9259
0 10 44 -10.0763 -0.0514
0 10 45 2.4231 0.6058
0 10 46 7.3167 1.0399
0 10 47 3.2287 0.8643
0 10 48 -5.9743 -0.4063
0 10 49 30.6832 -0.2484
0 10 50 17.5442 -0.5076
0 10 51 0.7685 -0.6507
0 10 52 -28.7618 0.6850
0 10 53 -15.9226 -0.0932
0 10 54 -15.6025 -0.1066
0 10 55 2.6766 0.3137
0 10 56 -2.4855 -0.6005
0 10 57 1.7163 0.2033
0 10 58 1.3039 0.4371
0 10 59 -15.1230 -0.0082
0 10 60 -14.0294 0.2916
0 10 61 10.8975 -0.1487
0 10 62 -14.1763 -0.4086
0 10 63 13.0989 -0.1728
0 10 64 -9.9155 -0.0377
0 10 65 4.9889 0.0446
0 10 66 5.5731 0.1627
0 10 67 9.8352 0.2152
0 10 68 -5.2226 -0.0693
0 10 69 -0.8430 0.0394
0 10 70 -2.3617 0.0760
0 10 71 -3.1931 -0.2270
0 10 72 0.2426 0.1176
0 12 0 84.8491 3.8902
0 12 1 34.7809 1.0496
0 12 2 -30.4347 -0.2832
0 12 3 40.7924 0.9436
0 12 4 -42.9594 -2.7739
0 12 5 -2.3185 -0.7856
0 12 6 -21.7681 0.2854
0 12 7 -36.7445 0.1791
0 12 8 -27.8110 0.2663
0 12 9 11.4980 -0.0130
0 12 10 -13.1834 0.2093
0 12 11 -53.3109 -1.0179
0 12 12 -50.6487 1.8444
0 12 13 -17.2452 0.7922
0 12 14 7.0512 -0.6250
0 12 15 40.5793 1.2036
0 12 16 11.3061 -1.9004
0 12 17 -20.3978 -0.7744
0 12 18 -1.7725 0.5475
0 12 19 -38.7341 -0.6856
0 12 20 -3.8236 0.2209
0 12 21 22.6068 0.1050
0 12 22 -17.3525 0.2249
0 12 23 -14.1163 -0.3035
0 12 24 -21.4765 1.5572
0 12 25 -19.3934 0.6134
0 12 26 34.9217 -1.2856
0 12 27 -25.0721 1.1747
0 12 28 2.5389 -2.1840
0 12 29 -21.8457 -0.7636
0 12 30 -13.1313 1.8072
0 12 31 41.4058 -1.6379
0 12 32 -13.6861 1.2637
0 12 33 10.5281 0.3854
0 12 34 4.8090 -1.4960
0 12 35 -35.0736 1.6901
0 12 36 -24.9221 0.2563
0 12 37 -3.7379 0.2837
0 12 38 -8.8406 0.6378
0 12 39 -1.6561 -1.4501
0 12 40 6.6542 -1.2274
0 12 41 -1.5538 -0.6486
0 12 42 -5.6076 0.1124
0 12 43 7.0531 1.0936
0 12 44 7.7027 1.2734
0 12 45 -8.4843 0.5135
0 12 46 8.8911 -0.3623
0 12 47 8.0305 -0.7243
0 12 48 -4.1940 -0.7367
0 12 49 3.9555 -0.1725
0 12 50 5.2588 0.1703
0 12 51 4.6196 0.4321
0 12 52 9.6185 0.2102
0 12 53 13.8811 -0.1627
0 12 54 7.3147 0.0952
0 12 55 -4.7225 -0.1715
0 12 56 8.1399 0.0731
0 12 57 6.5494 0.2825
0 12 58 -1.8702 -0.1369
0 12 59 14.0571 -0.0135
0 12 60 -11.6263 -0.0909
0 12 61 -22.5988 -0.2086
0 12 62 -12.6589 0.0109
0 12 63 15.2965 0.0808
0 12 64 -2.0471 0.0022
0 12 65 -5.0001 0.0325
0 12 66 -0.5929 0.1616
0 12 67 -7.0943 -0.0661
0 12 68 -0.8535 0.0254
0 12 69 -4.8180 0.1197
0 12 70 0.1591 -0.3169
0 12 71 1.8387 0.1032
0 12 72 0.0319 0.0167
0 14 0 -70.0717 -0.3108
0 14 1 -32.1159 -1.8321
0 14 2 43.7245 0.9778
0 14 3 0.6700 -1.2864
0 14 4 23.1875 0.2362
0 14 5 11.9229 1.1291
0 14 6 -64.2376 -1.9688
0 14 7 30.2843 0.0863
0 14 8 2.0725 0.0091
0 14 9 8.5325 0.2821
0 14 10 12.1283 1.5599
0 14 11 -29.9357 0.7709
0 14 12 2.3080 0.0719
0 14 13 54.2116 -1.3261
0 14 14 1.5461 -0.2451
0 14 15 21.3200 -0.8213
0 14 16 -7.9852 -0.3670
0 14 17 19.1631 0.7609
0 14 18 5.6490 -0.8567
0 14 19 21.8994 0.0163
0 14 20 -2.0198 0.5122
0 14 21 -3.2343 0.9272
0 14 22 -28.6052 0.9586
0 14 23 21.4663 0.8380
0 14 24 -29.8533 -0.3242
0 14 25 4.2771 -2.5807
0 14 26 21.9611 -0.0804
0 14 27 5.5109 -1.0351
0 14 28 -2.3255 -0.3183
0 14 29 -16.4407 2.9457
0 14 30 10.0395 -1.0463
0 14 31 11.4735 0.5667
0 14 32 -11.9901 0.9057
0 14 33 3.5513 -1.9934
0 14 34 -37.3347 1.6639
0 14 35 -9.8968 -0.0012
0 14 36 9.4365 -1.2069
0 14 37 1.6780 0.4248
0 14 38 -6.5323 -1.4240
0 14 39 3.4079 -0.3412
0 14 40 23.6489 0.9946
0 14 41 -10.9874 0.8450
0 14 42 10.8577 0.7197
0 14 43 -8.3832 0.3298
0 14 44 -17.0187 -0.4937
0 14 45 2.2360 -1.1591
0 14 46 -10.8012 -0.1101
0 14 47 22.2354 -0.1556
0 14 48 5.2922 0.0724
0 14 49 3.6175 0.8130
0 14 50 -2.6330 -0.1763
0 14 51 -16.4946 0.0399
0 14 52 -1.1503 0.0891
0 14 53 9.1641 -0.3381
0 14 54 2.1820 0.1702
0 14 55 7.5505 -0.0232
0 14 56 -3.2263 -0.0041
0 14 57 -8.4854 0.0484
0 14 58 -6.5379 -0.1001
0 14 59 26.8068 0.0042
0 14 60 -0.0095 -0.0837
0 14 62 -12.5119 0.0414
0 14 63 8.2349 0.0189
0 14 66 0.0726 -0.0154
0 14 67 3.0463 -0.0912
0 14 68 -11.9160 -0.0060
0 14 69 -12.1805 -0.2629
0 14 70 -13.5220 0.0253
0 16 0 -25.7907 -0.9336
0 16 1 -38.5298 1.2008
0 16 2 71.0142 -0.5370
0 16 3 -44.4887 -0.8990
0 16 4 -7.5221 0.6701
0 16 5 -10.3173 -2.3761
0 16 6 4.9528 1.2259
0 16 7 -5.4095 2.2298
0 16 8 7.8711 -0.3397
0 16 9 -23.0110 2.2743
0 16 10 8.1425 -1.2208
0 16 11 49.2573 -2.0636
0 16 12 -7.1662 0.0563
0 16 13 31.1166 -1.1655
0 16 14 28.8775 0.4387
0 16 15 12.6513 0.4600
0 16 16 15.4309 -0.1111
0 16 17 15.0730 0.0957
0 16 18 -3.3891 0.5832
0 16 19 4.7110 1.0770
0 16 20 20.8561 0.7418
0 16 21 -10.4964 -0.0293
0 16 22 24.8267 -1.2175
0 16 23 9.6054 -1.4099
0 16 24 -10.9048 -1.4053
0 16 25 0.3155 0.4266
0 16 26 9.0930 1.1517
0 16 27 19.7580 0.4505
0 16 28 -19.8272 1.6979
0 16 29 1.1052 -0.8683
0 16 30 -7.0656 -0.6899
0 16 31 -21.1094 0.9983
0 16 32 20.5549 -1.4210
0 16 33 16.4433 0.7530
0 16 34 -11.7480 0.1346
0 16 35 2.7837 -1.6484
0 16 36 -20.9730 0.7091
0 16 37 -21.4987 -0.2079
0 16 38 1.1111 0.1880
0 16 39 -15.2296 1.3660
0 16 40 -4.1070 0.0204
0 16 41 -0.7057 -0.2952
0 16 42 -3.0135 -0.2865
0 16 43 9.2554 -0.3709
0 16 44 22.6582 -0.5847
0 16 45 10.6016 0.5392
0 16 46 9.6413 0.2337
0 16 47 8.6346 -0.4443
0 16 48 -11.8092 0.7478
0 16 49 7.1759 -0.4433
0 16 50 9.1462 -0.1534
0 16 51 -14.7496 0.6324
0 16 52 5.2137 -0.5701
0 16 53 -4.0726 0.2628
0 16 54 -14.4936 0.1367
0 16 55 -2.9996 -0.3698
0 16 56 11.1011 0.2907
0 16 57 29.8943 -0.1540
0 16 58 19.9358 -0.1806
0 16 59 -1.0486 0.0157
0 18 0 25.2177 0.6362
0 18 1 26.0960 -0.4790
0 18 2 -0.9976 -1.0636
0 18 3 -0.4121 1.3400
0 18 4 -28.0307 -0.7675
0 18 5 -53.4352 1.4275
0 18 7 -28.4271 -2.7084
0 18 8 -15.1261 0.8855
0 18 9 16.4921 -1.2764
0 18 10 -25.0167 -2.8487
0 18 11 -23.6947 2.4984
0 18 12 13.1866 -1.0720
0 18 13 34.8135 0.1100
0 18 14 18.8391 1.6654
0 18 15 -5.7700 -1.1709
0 18 16 -6.0837 1.2187
0 18 17 10.9127 0.9421
0 18 18 -20.5996 -0.2703
0 18 19 8.6030 -0.3554
0 18 20 -29.4117 -1.1430
0 18 21 -40.2648 -1.2897
0 18 22 1.5605 -0.3606
0 18 23 -25.5942 0.8746
0 18 24 20.9279 0.7588
0 18 25 12.4079 0.9044
0 18 26 -8.1872 0.1198
0 18 27 3.8534 -0.5004
0 18 28 -21.9264 -0.0358
0 18 29 19.2533 -0.3645
0 18 30 4.4639 0.4861
0 18 31 4.0275 -0.3542
0 18 32 14.4346 -0.4352
0 18 33 -9.0586 0.1207
0 18 34 -18.1159 -0.8363
0 18 35 2.3689 0.7267
0 18 36 -14.2075 0.6047
0 18 37 7.4005 -0.1684
0 18 38 16.8848 0.5440
0 18 39 -10.0396 -0.3786
0 18 40 0.9783 -0.4330
0 18 41 4.8564 0.1476
0 18 42 -7.8486 0.0611
0 18 43 16.1920 -0.2614
0 18 44 10.4296 0.1537
0 18 45 32.5837 0.0721
0 18 46 7.5787 -0.5872
0 18 47 -31.8186 0.7098
0 18 48 -21.1666 0.0098
0 18 49 -2.4552 -0.3108
0 18 50 -20.6103 0.7647
0 18 51 1.9405 -0.6574
0 18 52 9.0676 -0.0389
0 18 53 -0.2780 0.4078
0 18 54 7.5469 -0.6073
0 18 55 3.5948 0.3122
0 18 56 4.8679 -0.0394
0 18 57 -33.5887 -0.3503
0 18 58 13.3875 0.3643
0 18 59 -21.2000 0.0582
0 18 60 15.2426 0.1643
0 18 61 12.1654 0.2042
0 18 62 17.0509 -0.1642
0 18 63 -8.0442 -0.3139
0 18 64 -19.0575 -0.2245
0 20 1 28.6340 -0.4132
0 20 2 6.2207 1.1168
0 20 4 -2.3046 -0.1443
0 20 5 0.9820 1.4969
0 20 6 -13.8061 -2.7924
0 20 9 -7.1050 -2.6976
0 20 10 6.3061 2.6655
0 20 11 46.3539 -0.8338
0 20 12 18.8557 -0.9812
0 20 13 -23.0780 2.9675
0 20 14 -16.6293 -1.1223
0 20 15 -35.7886 0.8392
0 20 16 -20.2971 0.6374
0 20 17 6.6468 -2.1820
0 20 18 9.1344 -0.5857
0 20 19 -4.6956 -0.4528
0 20 20 -11.9689 0.0196
0 20 21 0.1102 0.6718
0 20 22 -2.2939 1.3307
0 20 23 8.8843 -0.2212
0 20 24 4.0362 -0.4197
0 20 25 24.2578 0.6136
0 20 26 7.1772 -0.9398
0 20 27 -3.2047 0.6261
0 20 28 -11.6181 0.3630
0 20 29 15.5738 -1.1029
0 20 30 12.6629 0.2528
0 20 31 -10.8459 -0.7144
0 20 32 -16.4423 -0.0674
0 20 33 -8.6176 0.8402
0 20 34 -5.1697 0.0843
0 20 35 -15.2648 0.5198
0 20 36 -5.4601 -0.2301
0 20 37 -17.7434 -0.1156
0 20 38 25.1699 0.0157
0 20 39 20.4268 -0.1994
0 20 40 16.4856 0.1183
0 20 41 -8.9569 -0.1952
0 20 42 10.3297 -0.3793
0 20 43 -4.6734 -0.0102
0 20 44 2.0225 0.2586
0 20 45 -12.8019 0.0923
0 20 46 -9.7502 0.5910
0 20 47 4.9328 0.2027
0 20 48 19.4166 -0.5552
0 20 49 -14.6394 0.2200
0 20 50 2.8889 -0.4874
0 20 51 -15.3687 -0.2795
0 20 52 -7.2986 0.5501
0 20 53 30.3336 -0.4489
0 20 54 21.4662 0.1865
0 20 55 -29.4253 0.2745
0 20 56 27.6419 -0.3228
0 20 57 -15.0301 0.4575
0 20 58 37.5892 0.0825
0 20 59 -12.9079 -0.1888
0 22 0 5.8993 -0.0437
0 22 1 5.4888 0.1684
0 22 4 -15.9704 0.7586
0 22 5 0.1616 -0.7831
0 22 6 -7.0976 -0.2857
0 22 7 -1.7446 0.5924
0 22 8 13.4280 -2.2999
0 22 9 -10.3485 1.0286
0 22 10 2.6063 0.7131
0 22 11 5.9112 -0.4055
0 22 12 -42.2694 3.1204
0 22 13 20.7386 -0.8710
0 22 14 -17.3227 -1.1749
0 22 15 -21.2306 -0.1232
0 22 16 13.5052 -2.4683
0 22 17 -3.9019 0.2415
0 22 18 2.7486 1.1662
0 22 19 -1.9467 0.5446
0 22 20 7.8497 0.5537
0 22 21 -10.1471 0.3931
0 22 22 -13.0432 -0.5498
0 22 23 15.9065 -0.6715
0 22 24 6.6393 1.4035
0 22 25 4.7825 -0.8114
0 22 26 0.5732 -0.1478
0 22 27 -12.4155 0.5359
0 22 28 16.7115 -2.2360
0 22 29 5.0407 0.7949
0 22 30 19.1403 0.5227
0 22 31 -9.3556 -0.3793
0 22 32 1.7026 1.7834
0 22 33 13.6029 -0.5537
0 22 34 1.9321 -0.2884
0 22 35 8.6795 0.2702
0 22 36 20.9597 -0.7599
0 22 37 6.1464 0.2013
0 22 38 17.8997 -0.1395
0 22 39 3.1663 -0.2475
0 22 40 9.0364 -0.0814
0 22 41 24.4878 0.0483
0 22 42 -25.1472 0.3923
0 22 43 19.9028 0.3529
0 22 44 -11.7360 0.3421
0 22 45 21.6291 -0.1099
0 22 46 12.7203 -0.3010
0 22 47 20.2237 -0.4263
0 22 48 -21.6595 -0.1625
0 22 49 28.6046 0.0966
0 22 50 26.0873 -0.0448
0 22 51 15.2240 0.4198
0 22 52 -14.3447 -0.0825
0 22 53 -30.0192 -0.0599
0 22 57 -1.9186 0.0240
0 22 58 -4.3513 -0.4018
0 22 59 14.8539 0.1259
0 22 60 8.9524 -0.1071
0 22 61 -5.1177 -0.0186
0 24 2 -1.3038 0.3149
0 24 3 -1.6853 -0.3493
0 24 5 28.0681 -1.0297
0 24 6 -8.5330 -0.6800
0 24 7 -12.3237 0.0276
0 24 8 -5.8291 0.9856
0 24 9 -13.0342 2.2139
0 24 10 6.7655 0.4748
0 24 11 -15.6066 0.4020
0 24 12 -5.1209 -1.6232
0 24 13 15.0960 -2.5997
0 24 14 11.9666 -0.1524
0 24 15 4.8123 -0.3196
0 24 16 -8.8449 1.3437
0 24 17 16.3617 1.8679
0 24 18 -0.2663 0.1174
0 24 19 5.5662 -0.2836
0 24 20 -16.9350 -0.2743
0 24 21 24.9151 -0.3503
0 24 22 -13.0519 -0.4510
0 24 23 -11.8518 1.0251
0 24 24 -5.0496 -0.7016
0 24 25 12.4382 -0.9955
0 24 26 -9.7477 0.9545
0 24 27 4.0608 -1.4029
0 24 28 -8.5729 1.0312
0 24 29 -0.5866 1.4654
0 24 30 13.8629 -1.1902
0 24 31 11.4329 1.3370
0 24 32 10.0684 -0.6421
0 24 33 -0.3342 -1.0460
0 24 34 3.7320 0.9160
0 24 35 14.4533 -0.8767
0 24 36 26.4758 0.0338
0 24 37 -4.9414 0.2831
0 24 38 12.5461 -0.3331
0 24 39 -2.2686 0.3906
0 24 40 -28.8926 0.3540
0 24 41 2.6134 0.3218
0 24 42 -16.3567 -0.1396
0 24 43 4.0017 -0.0407
0 24 44 -19.7701 -0.4211
0 24 45 -0.8607 -0.4358
0 24 46 -7.5589 0.2911
0 24 47 -9.1713 -0.1450
0 24 48 7.9468 0.2619
0 24 49 -8.7058 0.1702
0 26 0 23.4316 -0.1316
0 26 1 -4.6508 0.8699
0 26 2 20.2548 -0.9953
0 26 3 13.6607 0.0790
0 26 4 -5.7139 -0.0450
0 26 5 1.1523 -0.7877
0 26 6 -14.1426 2.4273
0 26 7 11.8767 0.8948
0 26 8 -16.5405 0.3349
0 26 9 21.5942 -0.0365
0 26 10 -8.6260 -2.7186
0 26 11 -6.4471 -1.3427
0 26 12 18.4927 -0.6618
0 26 13 -3.6621 0.8040
0 26 14 4.4743 1.9962
0 26 15 -12.4875 1.0416
0 26 16 4.6066 0.5836
0 26 17 -5.0375 -0.7942
0 26 18 3.3635 -1.0132
0 26 19 -9.8060 -0.3396
0 26 20 -2.2047 -0.1616
0 26 21 -10.7536 0.0639
0 26 22 -1.0177 0.3370
0 26 23 35.1209 -0.1623
0 26 24 8.9066 -0.5150
0 26 25 -6.4649 0.8082
0 26 26 9.2425 -0.2769
0 26 27 16.6093 0.2204
0 26 28 15.7966 1.0632
0 26 29 14.9513 -1.2097
0 26 30 2.8845 0.5031
0 26 31 3.1808 0.0568
0 26 32 -1.4482 -1.1685
0 26 33 5.7474 0.8895
0 26 34 0.2358 -0.6669
0 26 35 -14.3683 -0.2784
0 26 36 2.1893 0.8231
0 26 37 0.4569 -0.1836
0 26 38 -12.5587 0.5268
0 26 39 10.6542 0.2667
0 26 40 -8.2118 -0.2283
0 26 41 9.3052 -0.4215
0 26 42 5.7160 -0.1698
0 26 43 2.9181 -0.0632
0 26 44 -12.9609 -0.2042
0 28 0 7.0089 1.1792
0 28 1 3.5068 -0.6728
0 28 2 34.1026 -0.0296
0 28 3 -19.5871 1.1141
0 28 4 4.9231 -0.9769
0 28 5 -15.9279 2.0086
0 28 6 -30.0914 0.0289
0 28 7 -3.9293 -2.1762
0 28 8 7.1377 0.4693
0 28 9 15.1291 -2.2536
0 28 10 35.3781 0.0525
0 28 11 8.7958 2.0795
0 28 12 -25.7433 0.0754
0 28 13 3.3691 1.6012
0 28 14 -30.8631 -0.1701
0 28 15 -0.9500 -1.0454
0 28 16 10.9976 -0.3674
0 28 17 -3.1571 -0.6338
0 28 18 -0.6722 0.1914
0 28 19 2.0883 0.1147
0 28 20 9.6935 0.2965
0 28 21 2.2360 0.0527
0 28 22 -17.4806 -0.1125
0 28 23 -1.5728 0.1165
0 28 24 -14.8198 -0.0211
0 28 25 8.4043 0.1257
0 28 26 21.6230 -0.0214
0 28 27 9.8097 0.4014
0 28 28 -13.0811 -0.1245
0 28 29 9.6800 0.0082
0 28 30 -0.8616 0.1172
0 28 31 -17.7818 -1.0585
0 28 32 -3.7480 0.1511
0 28 33 6.1973 -0.0701
0 28 34 16.3619 -0.0925
0 28 35 -10.5365 1.1771
0 28 36 -5.8844 -0.0184
0 28 37 -17.9225 0.0329
0 28 38 -13.3418 -0.0399
0 28 39 10.0222 -0.7712
0 28 40 7.3183 -0.1566
0 28 41 -23.0880 0.0128
0 30 0 -19.7017 -0.6091
0 30 1 3.1297 -0.4159
0 30 2 -14.3290 0.9306
0 30 3 18.6854 -0.9428
0 30 4 -18.1216 0.5951
0 30 5 24.5458 0.1320
0 30 6 -3.7032 -2.2560
0 30 7 -2.1320 1.3224
0 30 8 -1.5661 -0.5472
0 30 9 -5.2919 -0.1869
0 30 10 -11.1511 2.2521
0 30 11 7.4484 -1.1602
0 30 12 -6.6652 0.4608
0 30 13 2.7250 0.3789
0 30 14 -11.1177 -1.2135
0 30 15 10.5319 0.5960
0 30 16 3.3092 -0.3872
0 30 17 30.7499 -0.2291
0 30 18 7.7919 0.0290
0 30 19 -11.3987 0.1026
0 30 20 5.2513 0.1511
0 30 21 7.4949 -0.1642
0 30 22 2.5693 0.4880
0 30 23 -5.6774 -0.4212
0 30 24 -15.5392 0.1594
0 30 25 -1.7604 0.5008
0 30 26 -18.2896 -0.2505
0 30 27 13.2754 0.2944
0 30 28 -14.2539 -0.5579
0 30 29 10.0355 -0.6106
0 30 30 1.4074 -0.4108
0 30 31 16.3008 0.0723
0 30 32 -15.8502 0.8209
0 30 33 -3.3806 0.4405
0 30 34 -10.0570 0.6823
0 30 35 -0.9770 -0.3133
0 30 36 -20.9237 -0.7505
0 30 37 18.8843 -0.1347
0 30 38 34.2350 -0.6799
0 32 0 15.6557 -0.0765
0 32 1 -11.0945 0.4010
0 32 2 12.4146 -0.3154
0 32 3 -2.4377 -0.0465
0 32 4 0.9391 0.3742
0 32 5 7.1596 -1.1048
0 32 6 -8.3917 0.6843
0 32 7 -8.5618 0.0590
0 32 8 -0.4863 -0.8407
0 32 9 -1.5408 1.5609
0 32 10 1.4637 -0.5049
0 32 11 10.5787 0.2202
0 32 12 14.0665 1.0231
0 32 13 -0.5460 -1.3919
0 32 14 8.8701 -0.0026
0 32 15 10.3865 -0.4657
0 32 16 -1.5553 -0.6422
0 32 17 0.2434 0.7222
0 32 18 9.3165 0.4320
0 32 19 28.2456 0.5386
0 32 20 8.0221 -0.0631
0 32 21 17.5801 0.1842
0 32 22 17.9195 -0.3328
0 32 23 -14.4100 -0.1054
0 32 24 -7.0277 0.5702
0 32 25 9.8690 -0.7240
0 32 26 12.7265 -0.1189
0 32 27 3.4167 -0.4342
0 32 28 0.8920 -0.6970
0 32 29 -0.7455 0.8758
0 32 30 3.8092 0.5367
0 32 31 -4.1081 0.8509
0 32 32 1.4099 0.3747
0 32 33 6.8509 -0.6454
0 32 34 -0.5734 -0.7235
0 32 35 6.1102 -0.8749
0 32 36 -20.9669 0.2787
0 32 37 10.7509 0.0137
0 32 38 -8.5907 0.6101
0 34 0 2.7004 -0.1845
0 34 1 -19.0480 -0.0852
0 34 2 -6.9280 -0.0702
0 34 3 -12.2776 -0.0465
0 34 4 -8.6703 -0.1859
0 34 5 -0.1430 -0.0227
0 34 6 -15.2626 0.2676
0 34 7 -8.8891 -0.0589
0 34 8 -1.1329 1.0011
0 34 9 -3.1892 0.2817
0 34 10 7.8121 -0.3980
0 34 11 15.7609 0.0433
0 34 12 9.4371 -1.5657
0 34 13 -3.1429 -0.4551
0 34 14 3.2619 0.4075
0 34 15 -16.5518 0.1484
0 34 16 -14.4221 1.4342
0 34 17 8.8633 0.4404
0 34 18 -4.9450 -0.2168
0 34 19 -0.7043 -0.3023
0 34 20 4.7690 -0.7063
0 34 21 14.8820 -0.2369
0 34 22 12.7354 -0.0724
0 34 23 6.3510 0.2716
0 34 24 -9.2828 -0.2801
0 34 25 30.6581 -0.0254
0 34 26 -29.7074 0.2839
0 34 27 20.6605 -0.1173
0 34 28 -5.7823 1.0321
0 34 29 -0.2035 0.2304
0 34 30 13.5219 -0.2917
0 34 31 -22.8769 -0.2964
0 36 0 4.1764 -0.0212
0 36 1 5.8422 0.4483
0 36 2 -4.4765 -0.4373
0 36 3 2.7686 0.5445
0 36 4 11.9903 0.1279
0 36 5 -7.5226 0.1736
0 36 6 -8.8536 1.0855
0 36 7 -1.5061 -0.1501
0 36 8 7.9560 -0.2878
0 36 9 -7.5757 -0.9587
0 36 10 4.2826 -1.0370
0 36 11 -13.7935 -0.3822
0 36 12 18.0958 0.3842
0 36 13 -2.7707 1.4636
0 36 14 0.5178 0.5299
0 36 15 0.6178 0.7193
0 36 16 2.9728 -0.3779
0 36 17 0.3741 -1.5341
0 36 18 -13.4174 0.0379
0 36 19 -14.6154 -0.7277
1 1 1 10.6476 -162.4552
1 1 2 -107.1365 574.8243
1 1 3 459.3938 403.5442
1 1 4 81.6917 -162.7393
1 1 5 -760.3044 681.7888
1 1 6 143.0676 156.1785
1 1 7 -175.6746 -138.4833
1 1 8 211.0344 256.7711
1 1 9 139.5443 -126.5552
1 1 10 -193.2368 -248.1230
1 1 11 136.5081 140.4229
1 1 12 -166.2138 -233.8925
1 1 13 287.3753 -248.3976
1 1 14 -99.6865 35.6019
1 1 15 -174.5505 -139.1819
1 1 16 55.6617 -51.4120
1 1 17 -11.2851 0.5906
1 1 18 -8.4354 -116.9246
1 1 19 61.7524 133.9494
1 1 20 -7.7537 74.3880
1 1 21 -39.5430 -27.3696
1 1 22 -10.3035 37.6817
1 1 23 32.2148 3.1364
1 1 24 59.6319 -70.3695
1 1 25 -2.5504 -10.1272
1 1 26 21.5959 65.3183
1 1 27 52.3583 -93.8535
1 1 28 -17.6766 9.8414
1 1 29 -25.4328 -14.6227
1 1 30 59.9705 -1.7813
1 1 31 -49.6638 42.9572
1 1 32 -5.0685 -2.5363
1 1 33 -16.3255 16.7608
1 1 34 27.6754 29.6989
1 1 35 1.7753 28.6445
1 1 36 15.4438 47.6784
1 1 37 -76.7311 33.7796
1 1 38 3.9141 -13.8403
1 1 39 4.2769 -11.5198
1 1 40 28.1197 4.4497
1 1 41 22.2649 8.2924
1 1 42 -50.2434 7.2735
1 1 43 -45.6002 26.6994
1 1 44 45.5218 71.2601
1 1 45 13.1487 -51.8342
1 1 46 27.2974 -18.3168
1 1 47 18.2689 -0.8663
1 1 48 -3.2066 -27.1376
1 1 49 -4.8502 27.2451
1 1 50 14.6332 -0.7855
1 1 51 9.9615 22.6693
1 1 52 5.9297 0.1625
1 1 53 -48.4821 -31.7827
1 1 54 15.5783 -24.4271
1 1 55 21.7025 -1.1532
1 1 56 9.0202 14.8561
1 1 57 -13.6213 -6.7754
1 1 58 -13.0800 3.6254
1 1 59 3.3454 19.1991
1 1 60 7.4940 17.1603
1 1 61 -8.4789 29.6115
1 1 62 15.4248 -20.6537
1 1 63 14.7794 -17.0105
1 1 64 -7.5358 7.0765
1 1 65 9.4467 -8.5695
1 1 66 -4.3025 -1.8688
1 3 0 72.1717 3.6484
1 3 1 -60.2844 245.0996
1 3 2 -493.5819 199.4697
1 3 3 354.5996 483.1994
1 3 4 189.3135 573.0542
1 3 5 315.7281 -154.9060
1 3 6 454.3227 -240.1363
1 3 7 -107.5633 103.7805
1 3 8 187.2279 27.6299
1 3 9 248.3337 214.3150
1 3 10 -77.7756 27.4235
1 3 11 206.0372 6.2128
1 3 12 4.2524 60.1585
1 3 13 121.9339 -73.0983
1 3 14 -50.7231 -31.2718
1 3 15 -41.7296 179.2367
1 3 16 3.7857 62.7889
1 3 17 39.0432 -4.2681
1 3 18 -100.5261 23.6144
1 3 19 63.3880 -8.3633
1 3 20 -36.4449 75.6691
1 3 21 -31.1530 -60.1630
1 3 22 8.3157 -4.5015
1 3 23 20.5077 44.2171
1 3 24 -118.5943 2.0602
1 3 25 49.5811 -72.6035
1 3 26 -53.4862 -23.3520
1 3 27 -6.7991 -13.9769
1 3 28 -29.6936 -27.5814
1 3 29 20.1592 -23.3065
1 3 30 86.5619 -140.1559
1 3 31 -28.2356 116.2752
1 3 32 38.5768 9.4651
1 3 33 -57.9649 -18.5119
1 3 34 32.4347 -8.8618
1 3 35 -23.0498 6.4391
1 3 36 101.3571 -63.0260
1 3 37 -4.6732 8.6879
1 3 38 -50.7302 6.3683
1 3 39 12.4946 4.0250
1 3 40 18.3968 5.4993
1 3 41 -5.6882 -3.3166
1 3 42 -14.6706 42.4443
1 3 43 -28.7134 -10.1108
1 3 44 44.9878 91.0313
1 3 45 -3.4254 19.8287
1 3 46 -50.9766 37.1625
1 3 47 68.2973 -21.1932
1 3 48 28.7247 15.1512
1 3 49 -24.8735 -25.9882
1 3 50 22.4150 -19.1900
1 3 51 -5.5565 -0.5633
1 3 52 14.3547 -1.4383
1 3 53 -16.6494 8.4046
1 3 54 2.4792 -8.8523
1 3 55 16.8032 -17.6798
1 3 56 2.2708 -13.9658
1 3 57 -1.7554 6.6782
1 3 58 17.1194 -5.4052
1 3 59 4.5339 12.5156
1 3 60 -4.0488 -17.1312
1 3 61 6.1093 12.5210
1 3 62 -5.5362 0.9503
1 3 63 3.8254 -3.0143
1 3 64 -12.7730 8.5822
1 3 65 -1.0812 -3.7672
1 5 0 -219.9838 1.4161
1 5 1 -13.5397 206.3880
1 5 2 109.7320 134.4982
1 5 3 494.1233 -10.1666
1 5 4 -73.9675 -302.4937
1 5 5 -47.3497 -144.1407
1 5 6 -91.6010 -82.4138
1 5 7 -100.1066 11.0909
1 5 8 69.0167 2.4958
1 5 9 -169.3081 -17.9616
1 5 10 -125.5106 -51.4684
1 5 11 -69.1988 37.6535
1 5 12 16.0772 61.6493
1 5 13 80.1761 -0.5967
1 5 14 -129.0038 -5.5510
1 5 15 -1.7018 -86.0680
1 5 16 -3.3008 140.2588
1 5 17 19.2593 102.2447
1 5 18 13.4855 -15.8542
1 5 19 -43.1929 45.0107
1 5 20 69.6207 -71.2308
1 5 21 24.6696 -29.3669
1 5 22 -0.2554 -64.9477
1 5 23 -36.2260 -19.3815
1 5 24 -13.3440 38.0170
1 5 25 94.0591 -160.8293
1 5 26 4.3803 68.6415
1 5 27 12.6252 120.7834
1 5 28 -77.2297 48.1806
1 5 29 10.7412 0.1328
1 5 30 -12.8143 12.0062
1 5 31 32.9742 -7.0781
1 5 32 -7.1599 68.4944
1 5 33 41.4764 119.6131
1 5 34 -21.0975 -84.8056
1 5 35 24.2158 13.7061
1 5 36 48.0734 -57.6591
1 5 37 21.5191 2.6027
1 5 38 -19.9399 -61.0364
1 5 39 13.8186 20.3032
1 5 40 128.6274 28.5187
1 5 41 -34.2935 16.8945
1 5 42 -6.9729 -7.9191
1 5 43 7.4090 -15.7678
1 5 44 -8.7721 -7.2864
1 5 45 -3.6287 24.3472
1 5 46 -10.4036 4.8765
1 5 47 43.8024 18.7495
1 5 48 2.0998 -9.9685
1 5 49 -23.4422 -32.8596
1 5 50 -2.3147 -17.0550
1 5 51 31.8916 -15.2665
1 5 52 -18.4808 -8.0314
1 5 53 -20.5425 -30.9756
1 5 54 19.6739 11.9191
1 5 55 8.3737 -16.8455
1 5 56 10.4455 18.9488
1 5 57 -12.1140 -2.5964
1 5 58 -21.5924 -0.7307
1 5 59 -7.5085 -8.4195
1 5 60 -4.1500 5.0077
1 5 61 1.1445 -3.4096
1 5 62 2.6772 0.8269
1 5 63 2.3850 -39.3763
1 5 64 13.2897 -0.2177
1 5 65 10.6394 5.4699
1 5 66 0.6131 4.9947
1 5 67 -13.9336 5.8250
1 5 68 -3.6987 -4.6214
1 5 69 -1.0249 0.6137
1 5 70 -12.7346 3.1010
1 5 71 -10.2257 7.0983
1 5 72 6.4832 -5.7319
1 5 73 15.8031 0.7533
1 7 0 -11.1492 -0.6121
1 7 1 -123.4131 72.0949
1 7 2 61.0324 -45.0635
1 7 3 -29.9593 -137.4722
1 7 4 -115.1639 -48.0284
1 7 5 -56.2189 54.1080
1 7 6 85.7042 -40.5034
1 7 7 5.5928 -189.8233
1 7 8 -160.4230 -1.5268
1 7 9 -125.2089 94.2346
1 7 10 -48.8476 -84.1518
1 7 11 15.6689 7.8576
1 7 12 17.1920 56.3073
1 7 13 120.4448 -113.0088
1 7 14 -52.9372 101.7888
1 7 15 -63.7791 -109.2114
1 7 16 75.2080 8.9851
1 7 17 15.7513 5.3926
1 7 18 35.3385 -76.9907
1 7 19 -58.4814 -22.0564
1 7 20 23.8107 -24.2727
1 7 21 25.6722 -38.2754
1 7 22 -9.0023 1.7471
1 7 23 -9.2353 -21.8291
1 7 24 -32.1538 -33.2922
1 7 25 5.0223 -30.9636
1 7 26 2.2361 -20.0765
1 7 27 18.1182 9.8667
1 7 28 20.2233 -17.0397
1 7 29 7.4413 -27.2701
1 7 30 -40.1387 64.9390
1 7 31 19.8642 -72.1245
1 7 32 -3.4419 -16.6547
1 7 33 -7.5641 -26.6365
1 7 34 -14.1623 -10.2122
1 7 35 -16.1344 -30.8567
1 7 36 8.0887 -22.3285
1 7 37 -24.1552 -27.2173
1 7 38 -9.0245 3.4370
1 7 39 -13.8382 28.5446
1 7 40 11.9361 56.7410
1 7 41 19.9338 -9.1513
1 7 42 -12.1107 2.2831
1 7 43 40.6510 -12.7556
1 7 44 15.2901 12.1124
1 7 45 -16.1701 -3.0334
1 7 46 -6.0670 -7.8587
1 7 47 -18.4546 56.2408
1 7 48 -26.4277 -30.7449
1 7 49 32.0722 24.8447
1 7 50 -54.4473 -35.6419
1 7 51 -10.8875 -29.2472
1 7 52 16.1213 3.6707
1 7 53 -9.8663 12.5606
1 7 54 -24.5031 -8.6116
1 7 55 -19.7749 -1.9722
1 7 56 7.5364 -1.5465
1 7 57 -15.7262 14.0958
1 7 58 -7.3610 9.5293
1 7 59 7.6739 4.3719
1 7 60 1.3416 -3.4576
1 7 61 -1.8085 -8.0442
1 7 62 13.1752 -21.0725
1 7 63 11.0913 1.1908
1 7 64 -12.2124 3.4361
1 7 65 -6.1805 2.9168
1 7 66 0.8921 -0.6475
1 7 67 9.4162 -5.1326
1 7 68 4.1775 -0.0282
1 7 69 0.7279 5.2740
1 7 70 -0.3951 1.9249
1 7 71 1.8002 0.6125
1 7 72 -1.1734 -0.4945
1 7 73 3.2456 0.6276
1 9 0 -14.3905 -4.2846
1 9 1 17.3653 -68.4467
1 9 2 6.9995 87.8510
1 9 3 -127.5692 14.4433
1 9 4 -43.6364 -10.5415
1 9 5 -93.2770 -111.7121
1 9 6 4.8684 -14.8386
1 9 7 -63.5390 17.2701
1 9 8 16.3562 21.0616
1 9 9 80.2916 -15.5396
1 9 10 0.8795 -29.3055
1 9 11 -20.8706 22.1943
1 9 12 -50.5895 -14.7026
1 9 13 30.1066 50.7859
1 9 14 -45.6899 -59.0277
1 9 15 -71.3912 6.8532
1 9 16 36.5319 -21.4603
1 9 17 -6.2632 51.2687
1 9 18 -85.2368 -10.5832
1 9 19 -46.8201 58.9198
1 9 20 -6.1331 -9.2338
1 9 21 41.4444 -22.2190
1 9 22 -28.5109 -30.9522
1 9 23 31.6288 -19.4675
1 9 24 35.7342 -2.9186
1 9 25 -19.6571 44.7570
1 9 26 -16.9890 -35.1317
1 9 27 24.7102 -13.8202
1 9 28 31.8191 -20.1110
1 9 29 -43.4493 35.7535
1 9 30 -5.1817 21.0160
1 9 31 14.2716 -6.5622
1 9 32 35.0906 -38.8274
1 9 33 -7.5754 -26.3140
1 9 34 15.6622 -1.2556
1 9 35 -47.4546 -99.6931
1 9 36 40.6558 -84.6961
1 9 37 -2.8113 -14.6630
1 9 38 -21.2450 16.8409
1 9 39 -4.3848 -10.5619
1 9 40 -57.1130 12.6817
1 9 41 15.9122 -19.2582
1 9 42 12.4921 -9.6597
1 9 43 -28.9297 -58.3275
1 9 44 40.2622 -18.5038
1 9 45 -10.5102 19.3506
1 9 46 19.3388 43.5799
1 9 47 8.5937 -27.2948
1 9 48 31.4108 -8.9886
1 9 49 12.6628 7.4058
1 9 50 -22.8055 -3.7013
1 9 51 -1.3545 -11.8655
1 9 52 37.9414 0.1439
1 9 53 28.6055 -11.5603
1 9 54 12.2891 15.8767
1 9 55 -4.4452 7.5105
1 9 56 13.9562 5.1315
1 9 57 -25.2881 1.4081
1 9 58 -3.4849 6.6364
1 9 59 -0.4161 5.4510
1 9 60 12.4481 7.1615
1 9 61 0.4907 -8.7514
1 9 62 -1.7229 -6.1227
1 9 63 2.9634 -2.7242
1 9 64 9.0929 -0.6730
1 9 65 -2.8929 -1.4566
1 9 66 -5.9214 3.7721
1 9 67 10.3997 2.2568
1 9 68 -6.7940 -6.7780
1 9 69 -2.4505 4.2815
1 9 70 4.9227 -7.4137
1 11 0 14.1711 2.6754
1 11 1 -51.5107 -102.1224
1 11 2 31.4618 -13.0730
1 11 3 69.7886 10.8293
1 11 4 -8.6180 -57.1683
1 11 5 -19.0863 17.4824
1 11 6 0.0792 -42.9799
1 11 7 18.1167 -55.3619
1 11 8 -6.9662 15.4716
1 11 9 -11.3841 6.7086
1 11 10 19.4540 -61.0307
1 11 11 -10.6412 4.5537
1 11 12 14.7514 99.7160
1 11 13 34.9641 13.1303
1 11 14 1.8650 -44.3498
1 11 15 28.0667 -41.3154
1 11 16 12.8113 16.6242
1 11 17 33.6790 -12.7286
1 11 18 23.7591 54.5013
1 11 19 -81.5933 26.0083
1 11 20 -8.8439 101.4084
1 11 21 -15.3660 3.8106
1 11 22 15.9437 -6.4320
1 11 23 46.3318 -0.3155
1 11 24 -9.5873 -28.0059
1 11 25 -8.0103 -43.1129
1 11 26 23.0193 116.6991
1 11 27 -50.6845 -17.8149
1 11 28 19.2755 79.6591
1 11 29 4.5438 4.7079
1 11 30 -11.7405 11.0018
1 11 31 54.7371 31.4525
1 11 32 -11.8858 69.4545
1 11 33 -16.1233 -2.0213
1 11 34 14.5109 -7.3492
1 11 35 -1.7545 13.8801
1 11 36 -11.9364 66.5894
1 11 37 38.0022 -39.1321
1 11 38 5.2090 8.7692
1 11 39 -34.3187 -0.2227
1 11 40 -32.8308 63.1665
1 11 41 38.3311 -12.8330
1 11 42 2.6795 7.2845
1 11 43 -28.9402 -2.7746
1 11 44 4.6647 -4.6299
1 11 45 65.4441 -45.7796
1 11 46 4.2998 0.6716
1 11 47 7.2595 -15.2465
1 11 48 1.7329 13.3936
1 11 49 15.1448 -3.5954
1 11 50 -13.4631 -16.0992
1 11 51 -14.9455 6.0805
1 11 52 12.9824 -3.2437
1 11 53 -9.3566 11.2473
1 11 54 21.0986 3.6419
1 11 55 4.2149 7.5795
1 11 56 36.0560 21.0959
1 11 57 -13.4636 11.5607
1 11 58 3.6951 -5.4713
1 11 59 13.3766 1.3833
1 11 60 5.3052 -4.0194
1 11 61 -2.9614 11.2426
1 11 62 3.9026 -0.0124
1 11 63 2.0820 1.3116
1 11 64 7.0444 -4.5258
1 11 65 0.0292 10.0554
1 11 66 -2.7241 1.9261
1 11 67 -0.5461 -1.1663
1 11 68 -4.2849 3.2544
1 11 69 5.0773 0.2312
1 11 70 -4.2735 -2.0791
1 11 71 13.5524 -7.6004
1 11 72 4.4200 -4.9822
1 13 0 11.9915 1.1969
1 13 1 13.8111 -6.9216
1 13 2 -44.5215 -64.6170
1 13 3 15.5500 -25.4122
1 13 4 12.8719 36.7424
1 13 5 24.1943 3.3942
1 13 6 47.0789 -60.6941
1 13 7 63.6217 33.2250
1 13 8 23.7878 29.5688
1 13 9 -30.4589 -19.9308
1 13 10 75.8551 28.8436
1 13 11 -21.2005 12.4000
1 13 12 4.8561 55.4538
1 13 13 47.2785 6.2182
1 13 14 32.7992 33.5019
1 13 15 -17.8138 27.6111
1 13 16 33.7127 71.5920
1 13 17 -23.0946 0.2082
1 13 18 8.3133 21.9443
1 13 19 -8.3253 21.3262
1 13 20 39.8005 -23.9704
1 13 21 -21.8032 59.5135
1 13 22 53.4646 -35.0194
1 13 23 -22.7313 87.6443
1 13 24 38.4752 -86.6583
1 13 25 -52.1223 -35.5752
1 13 26 41.5259 2.5520
1 13 27 62.5896 -48.3519
1 13 28 25.3839 22.9331
1 13 29 -45.9056 -12.1906
1 13 30 -11.3116 -14.8147
1 13 31 24.1560 12.6061
1 13 32 85.4120 67.9809
1 13 33 -9.2904 0.1113
1 13 34 -25.7043 -25.7272
1 13 35 12.0109 -56.6176
1 13 36 45.0078 37.7735
1 13 37 -42.9154 10.5913
1 13 38 4.3600 -13.9566
1 13 39 7.9253 2.6135
1 13 40 -31.3932 -14.2033
1 13 41 -23.2643 37.2687
1 13 42 10.9567 -4.7991
1 13 43 -20.3605 -1.5714
1 13 44 -0.6098 -31.2955
1 13 45 0.2982 -15.5089
1 13 46 1.6749 -5.2345
1 13 47 26.2138 -3.7370
1 13 48 -1.2466 -0.9649
1 13 49 -7.0445 -5.8318
1 13 50 -7.5562 15.1334
1 13 51 -12.3121 -1.5098
1 13 52 21.8067 12.9848
1 13 53 -13.5368 -13.7860
1 13 54 -4.7266 15.0185
1 13 55 25.4110 8.5850
1 13 56 12.9682 6.1952
1 13 57 -15.0386 -0.7344
1 13 58 4.3651 16.8441
1 13 59 11.3242 11.6594
1 13 60 2.6732 -2.3416
1 13 61 -6.8053 -1.9924
1 13 62 -0.7328 0.9942
1 13 63 7.6899 -1.0584
1 13 64 -7.5890 6.8192
1 13 65 -1.5662 -1.0254
1 13 66 -0.9437 -2.1074
1 13 67 -10.0564 -12.4407
1 13 68 7.0191 -6.4348
1 13 69 5.6147 0.3565
1 13 70 -1.7495 12.9288
1 13 71 0.6947 -0.7292
1 15 0 -2.8115 -0.9334
1 15 1 -17.1425 17.4731
1 15 2 -55.3235 48.0239
1 15 3 15.1128 -9.8402
1 15 4 -33.6195 23.1100
1 15 5 -0.6528 -15.5428
1 15 6 -14.3699 -76.5561
1 15 7 8.7296 12.8874
1 15 8 49.2930 -51.1006
1 15 9 1.9431 -14.8424
1 15 10 -5.2014 36.5730
1 15 11 -35.8732 3.2741
1 15 12 12.2147 -31.9021
1 15 13 -33.5104 7.4908
1 15 14 -5.4300 29.1614
1 15 15 -27.6011 -12.6460
1 15 16 14.4939 27.0971
1 15 17 34.1070 -33.1939
1 15 18 25.8799 32.6170
1 15 19 31.4915 25.5325
1 15 20 30.1442 -17.0588
1 15 21 0.4386 2.4470
1 15 22 29.6830 -26.0295
1 15 23 -12.2526 37.7521
1 15 24 -0.1294 -43.1227
1 15 25 8.0569 24.4620
1 15 26 -13.0429 3.3469
1 15 27 9.4795 -17.3145
1 15 28 0.0031 6.8664
1 15 29 -18.4440 72.7358
1 15 30 -5.0316 -1.2871
1 15 31 -12.6816 16.2971
1 15 32 0.3447 3.7515
1 15 33 -42.8883 73.2748
1 15 34 19.9245 44.8204
1 15 35 9.8743 -5.1325
1 15 36 34.1244 -40.4767
1 15 37 -5.1894 -10.4266
1 15 38 10.4307 -15.4090
1 15 39 4.9685 6.3941
1 15 40 18.2044 -18.7141
1 15 41 -34.9738 32.6985
1 15 42 5.2065 42.6719
1 15 43 -63.1242 -7.6505
1 15 44 15.8058 -23.8090
1 15 45 -22.6857 8.3166
1 15 46 -13.5970 -5.5775
1 15 47 -40.2314 3.1992
1 15 48 4.4815 -16.7449
1 15 49 23.7306 27.7927
1 15 50 -47.6407 -26.7504
1 15 51 1.9625 3.4952
1 15 52 0.5585 3.4823
1 15 53 -1.3220 19.4479
1 15 54 -18.0830 -5.1282
1 15 55 -8.3492 -26.9484
1 15 56 17.8027 5.0269
1 15 57 8.5008 -5.8158
1 15 58 13.7819 2.8407
1 15 59 2.3979 6.4791
1 15 60 -8.1483 -5.2853
1 15 62 7.4177 17.5372
1 15 67 2.9187 -3.2932
1 15 68 -2.7686 2.7378
1 15 69 -3.1666 5.8498
1 17 0 -51.0767 -0.9547
1 17 1 19.8748 -8.8121
1 17 2 -13.9363 13.7304
1 17 3 21.4431 -33.0334
1 17 4 19.6247 13.9921
1 17 5 -10.5096 -12.8100
1 17 6 8.5848 -0.4805
1 17 7 -19.1642 -61.2752
1 17 8 37.0371 1.2340
1 17 9 -49.8903 -38.9914
1 17 10 -41.5986 -99.1553
1 17 11 5.6543 42.9033
1 17 12 -15.7238 2.0634
1 17 13 -10.7808 -13.2741
1 17 14 -4.8336 3.1123
1 17 15 53.9376 -14.5504
1 17 16 -19.7455 -5.8283
1 17 17 3.7568 -14.3291
1 17 18 37.2437 -2.6422
1 17 19 19.4355 -2.4554
1 17 20 25.6699 9.7611
1 17 21 -2.6669 -24.6264
1 17 22 -16.8014 24.9064
1 17 23 -49.9509 -26.0387
1 17 24 -24.5687 -58.4583
1 17 25 53.4502 -122.6980
1 17 26 44.1887 0.2676
1 17 27 -18.3007 1.3702
1 17 28 -17.6320 -15.4449
1 17 29 3.9374 11.2338
1 17 30 16.0259 -10.7732
1 17 31 7.8842 -37.8590
1 17 32 6.3160 2.3629
1 17 33 -3.7866 -1.6611
1 17 34 5.0288 -28.2035
1 17 35 -24.4366 15.8156
1 17 36 -18.3263 -13.3249
1 17 37 19.2916 -1.5574
1 17 38 4.3261 -28.9955
1 17 39 -16.4927 3.3180
1 17 40 0.7496 17.0768
1 17 41 14.3202 5.8792
1 17 42 30.4231 -1.6114
1 17 43 7.1829 4.2536
1 17 44 24.8955 15.2455
1 17 45 -8.3228 -59.7370
1 17 46 20.6440 31.5859
1 17 47 -10.8609 -19.5419
1 17 48 12.8026 4.8054
1 17 49 12.5401 0.8517
1 17 50 -8.3154 -15.1138
1 17 51 4.6591 -16.1521
1 17 52 19.6151 22.6740
1 17 53 -11.3694 0.0282
1 17 54 -6.7547 5.4188
1 17 55 -11.2467 4.3802
1 17 56 14.3820 -18.3773
1 17 57 -0.8588 16.6237
1 17 58 2.8593 -20.3136
1 17 59 38.6796 98.5476
1 17 60 -3.8444 2.9056
1 17 61 10.0151 5.0355
1 17 62 -3.1758 -6.3258
1 17 63 12.7103 11.1034
1 17 64 -3.5394 7.6409
1 17 65 -5.2716 -7.2354
1 17 66 9.1919 -1.7094
1 19 0 -7.7907 1.4136
1 19 1 -13.0137 -4.3992
1 19 2 34.0317 -31.0598
1 19 3 25.1553 44.9380
1 19 4 22.2431 12.1823
1 19 5 -20.5986 -30.1972
1 19 6 37.5192 38.2782
1 19 7 1.5581 4.4891
1 19 8 -24.4934 -9.4702
1 19 9 8.7401 1.0334
1 19 10 16.2822 -44.9606
1 19 11 -3.6700 -7.7008
1 19 12 -29.4268 -3.4196
1 19 13 -23.5454 4.0875
1 19 14 -10.9527 57.9622
1 19 15 -3.6278 26.6544
1 19 16 -13.8330 -0.2755
1 19 17 12.3496 6.6850
1 19 18 -27.3103 22.7125
1 19 19 -26.5295 1.1678
1 19 20 6.8173 5.1825
1 19 21 39.6906 7.8521
1 19 22 -13.1902 -16.2773
1 19 23 2.7021 13.2991
1 19 24 -8.2161 -2.1132
1 19 25 15.0693 -10.6613
1 19 26 -26.3762 -6.1543
1 19 27 -9.3302 11.4442
1 19 28 20.9801 -11.4534
1 19 29 15.0986 27.2420
1 19 30 -2.6343 -3.4351
1 19 31 0.1156 9.4090
1 19 32 -3.2738 -15.7773
1 19 33 31.3604 -11.5615
1 19 34 -0.2949 7.8189
1 19 35 22.6080 8.1663
1 19 36 -4.9232 -7.7601
1 19 37 3.2362 21.4158
1 19 38 3.7164 -18.3158
1 19 39 3.1609 -1.9022
1 19 40 -7.8121 -27.2403
1 19 41 40.6219 4.5336
1 19 42 10.8390 8.1054
1 19 43 -16.9108 -17.8060
1 19 44 38.0327 9.6922
1 19 45 -2.1355 -6.3694
1 19 46 -21.3569 22.2540
1 19 47 -0.3576 -1.3987
1 19 48 -16.3438 -8.2032
1 19 49 6.6883 3.6379
1 19 50 -11.8608 2.6039
1 19 51 -0.3781 -17.2311
1 19 52 4.5762 -12.1517
1 19 53 -20.5821 -4.8573
1 19 54 -6.3562 4.7533
1 19 55 8.5814 -9.5982
1 19 56 10.4822 6.8280
1 19 57 7.2960 -3.2978
1 19 58 0.4728 -15.6088
1 19 59 -0.2575 12.5438
1 19 60 -9.6138 26.3987
1 19 61 -2.0837 -2.7815
1 19 62 11.4424 -17.7168
1 19 63 0.0215 1.6871
1 21 1 9.3203 -19.1334
1 21 2 -9.5104 -27.3254
1 21 3 -0.8656 -10.9302
1 21 4 -7.0795 -23.3699
1 21 5 16.6903 -20.4236
1 21 6 -24.0557 -19.5214
1 21 7 -14.1136 3.1992
1 21 8 -40.9235 -26.9889
1 21 9 13.6091 -8.3981
1 21 10 -9.0201 -33.6001
1 21 11 -63.5298 -57.1910
1 21 12 31.3327 18.1137
1 21 13 -18.3248 34.4614
1 21 14 12.7842 9.7423
1 21 15 -0.4509 14.1028
1 21 16 6.1355 47.8725
1 21 17 -21.8817 -8.6686
1 21 18 12.4845 0.5062
1 21 19 21.9042 -33.3187
1 21 20 45.6737 -7.0776
1 21 21 -7.5143 3.4725
1 21 22 7.7896 -14.8151
1 21 23 21.9266 -11.1702
1 21 24 -12.5843 -13.9730
1 21 25 40.3787 -18.8746
1 21 26 -33.2848 -6.3633
1 21 27 3.7395 30.9166
1 21 28 -37.9179 13.4428
1 21 29 -14.2134 0.8747
1 21 30 -10.2982 4.2060
1 21 31 -4.7000 -3.4725
1 21 32 2.5533 -4.0968
1 21 33 3.7403 -22.9166
1 21 34 -45.2101 -20.6753
1 21 35 13.3353 29.6733
1 21 36 1.4991 16.2714
1 21 37 13.4596 -11.1043
1 21 38 -22.1672 -14.8402
1 21 39 10.5392 -3.9025
1 21 40 7.8098 -4.2655
1 21 41 -18.1091 -1.1930
1 21 42 15.3791 -0.0076
1 21 43 0.0686 21.7661
1 21 44 4.5220 25.1050
1 21 45 11.9713 -11.1391
1 21 46 2.6589 -7.2858
1 21 47 2.9069 2.7092
1 21 48 3.3107 -13.5347
1 21 49 6.9932 -6.2765
1 21 50 -3.7794 -10.7254
1 21 51 4.0189 7.5254
1 21 52 0.6738 4.0620
1 21 53 -5.4747 -20.2180
1 21 54 -10.9283 -0.1773
1 21 55 -3.8778 12.5137
1 21 56 -10.5186 -9.3838
1 21 57 8.6704 -12.2414
1 21 58 15.6516 -4.2770
1 21 59 -10.0338 -17.5559
1 21 60 -5.6919 -7.5193
1 21 61 1.1191 -3.1797
1 21 62 -2.6531 6.0715
1 21 63 4.7875 14.4457
1 23 0 -12.3125 -1.7041
1 23 1 -13.6347 24.2893
1 23 2 -49.6350 9.6187
1 23 3 -2.2258 -12.4613
1 23 4 -7.9296 -4.9184
1 23 5 -14.9061 2.2742
1 23 6 17.2202 14.7826
1 23 7 2.2004 9.2762
1 23 8 23.5455 12.0346
1 23 9 -2.6288 -8.9190
1 23 10 14.5965 -4.9357
1 23 11 -9.6221 -63.2297
1 23 12 7.1472 7.5729
1 23 13 -1.0831 38.4565
1 23 14 -58.5553 -1.8967
1 23 15 21.3384 7.3692
1 23 16 -22.9935 -19.6062
1 23 17 45.2819 -5.5757
1 23 18 -4.8252 8.0396
1 23 19 15.2308 25.8512
1 23 20 -5.0528 3.0530
1 23 21 -1.4930 -1.3404
1 23 22 7.3065 -3.8736
1 23 23 -8.8013 -4.3269
1 23 24 -4.0697 9.7191
1 23 25 5.9938 13.4073
1 23 26 -25.1558 -11.3512
1 23 27 -5.3008 29.4571
1 23 28 48.5873 43.3671
1 23 29 0.3262 -14.5131
1 23 30 26.4563 -2.0108
1 23 31 -14.4644 28.6699
1 23 32 35.1358 5.5778
1 23 33 8.3116 -15.0139
1 23 34 38.6046 5.2603
1 23 35 3.2578 7.2612
1 23 36 5.5860 -5.4519
1 23 37 -3.3788 -5.5457
1 23 38 -5.9293 20.3232
1 23 39 -5.2481 11.6553
1 23 40 0.1970 4.0844
1 23 41 -18.6406 -8.7165
1 23 42 -14.0654 6.7616
1 23 43 5.3190 -10.0985
1 23 44 -1.7042 9.0974
1 23 45 9.3665 3.7061
1 23 46 -1.5677 14.0947
1 23 47 -3.0173 8.6281
1 23 48 0.0547 7.8042
1 23 49 -6.9014 -19.9081
1 23 50 -1.3413 3.8404
1 23 51 -3.1782 8.7987
1 25 0 11.6278 0.6822
1 25 1 -4.1054 -14.0280
1 25 2 14.7595 -1.3555
1 25 3 0.3704 35.7069
1 25 4 48.7369 -40.0176
1 25 5 12.9264 -9.0557
1 25 6 -44.5080 10.2938
1 25 7 -11.8327 34.2026
1 25 8 -27.5581 14.5446
1 25 9 3.5096 -14.7584
1 25 10 -12.3796 -4.9476
1 25 11 15.7105 -44.7257
1 25 12 19.9944 -25.7039
1 25 13 25.9144 -31.8256
1 25 14 -2.6901 11.4902
1 25 15 -0.5828 -10.6033
1 25 16 15.3808 -44.4127
1 25 17 27.5530 -36.2908
1 25 18 -38.1381 2.6784
1 25 19 -16.8520 -29.0315
1 25 20 46.2129 -14.7572
1 25 21 2.4764 12.0756
1 25 22 -16.4226 -9.2219
1 25 23 -48.1318 -13.1561
1 25 24 20.7649 48.7169
1 25 25 -7.6231 -8.8401
1 25 26 20.0425 1.4607
1 25 27 0.5127 -19.2032
1 25 28 7.2126 32.5917
1 25 29 10.0745 35.3329
1 25 30 15.3557 20.5751
1 25 31 4.6500 13.9578
1 25 32 16.0947 15.4522
1 25 33 0.1211 -29.4664
1 25 34 -11.0295 0.5967
1 25 35 32.8540 26.5209
1 25 36 3.8107 6.2381
1 25 37 10.6246 20.8712
1 25 38 8.7017 -9.5054
1 25 39 -2.0715 2.7724
1 25 40 3.8918 8.6912
1 25 41 9.6418 -12.1470
1 25 42 -23.1760 -19.3973
1 25 43 -0.0918 13.8437
1 25 44 -18.4472 -9.9166
1 25 45 8.5178 3.3285
1 25 46 18.4540 -13.3128
1 25 47 -14.5945 11.7613
1 27 0 20.2212 0.4944
1 27 1 7.3195 -13.9983
1 27 2 3.5384 -0.5515
1 27 3 -16.4345 -25.8393
1 27 4 9.5704 -0.5562
1 27 5 -12.7413 -13.6870
1 27 6 28.1637 56.9624
1 27 7 6.7142 -6.4233
1 27 8 -22.0110 9.3027
1 27 9 35.8662 -18.4346
1 27 10 -6.8516 4.9963
1 27 11 1.8681 -49.7814
1 27 12 21.4910 4.7883
1 27 13 8.5848 -9.5165
1 27 14 7.6647 15.1837
1 27 15 -16.6365 -18.4309
1 27 16 44.1590 -5.6241
1 27 17 16.5442 -18.0468
1 27 18 6.5693 -27.8133
1 27 19 -20.7828 3.2820
1 27 20 -7.1175 -15.6183
1 27 21 -11.4064 12.3687
1 27 22 3.8248 -23.0199
1 27 23 1.6728 3.8565
1 27 24 4.1838 38.2029
1 27 25 -20.0788 -8.4851
1 27 26 -26.3916 5.7379
1 27 27 16.5089 -9.2870
1 27 28 -17.2059 -7.6810
1 27 29 -1.9350 -9.8172
1 27 30 13.5233 9.5832
1 27 31 2.2787 6.0977
1 27 32 -2.6197 -14.5833
1 27 33 -10.7382 -42.6520
1 27 34 -9.4679 20.7805
1 27 35 11.9446 6.4871
1 27 36 -4.5500 -13.0582
1 27 37 -8.6536 -5.7240
1 27 38 20.7886 20.8838
1 27 39 4.3995 -2.6961
1 27 40 -19.2392 -11.4751
1 27 41 -14.3230 2.2337
1 27 42 -1.6910 -18.3570
1 27 43 10.8020 -4.4683
1 27 44 10.5790 7.4354
1 27 45 8.8976 -13.2818
1 27 46 0.8372 -6.2557
1 29 0 30.1633 0.3892
1 29 1 4.8557 12.2655
1 29 2 -4.6280 24.6839
1 29 3 16.1410 15.9263
1 29 4 35.9421 -13.0488
1 29 5 -29.9731 -14.3673
1 29 6 11.5215 13.3499
1 29 7 -31.0730 23.0406
1 29 8 46.9369 5.2733
1 29 9 15.7522 4.6112
1 29 10 2.4421 -28.4136
1 29 11 8.9090 -0.4532
1 29 12 38.0482 8.1059
1 29 13 14.4938 17.3947
1 29 14 -6.0464 2.7150
1 29 15 -8.7039 17.7940
1 29 16 0.1040 -8.7698
1 29 17 18.3295 7.7696
1 29 18 -15.1281 3.8019
1 29 19 42.2660 10.8467
1 29 20 -3.3292 -10.1723
1 29 21 -6.6714 24.9831
1 29 22 -2.9155 6.2227
1 29 23 -4.5588 -47.8334
1 29 24 -1.3099 24.5486
1 29 25 -2.3189 22.8865
1 29 26 -11.4370 2.0860
1 29 27 10.6751 -3.4962
1 29 28 1.4643 12.8329
1 29 29 -0.9502 28.3337
1 29 30 -2.9517 -0.5521
1 29 31 1.1280 10.1262
1 29 32 -5.0740 -5.5854
1 29 33 -6.7375 -9.7739
1 29 34 10.6524 -7.6177
1 29 35 1.6558 -0.3716
1 29 36 -2.6717 5.6527
1 29 37 -0.5806 -13.7675
1 29 38 -7.3352 -6.9703
1 29 39 -12.7451 -11.7818
1 31 0 4.2337 -1.1705
1 31 1 -4.8535 -9.7382
1 31 2 7.6785 17.7750
1 31 3 30.0498 36.0450
1 31 4 -9.6021 -2.5151
1 31 5 -1.7766 -7.5829
1 31 6 -18.6539 -9.3509
1 31 7 8.2101 14.0962
1 31 8 8.3495 3.4969
1 31 9 -4.1466 -38.9984
1 31 10 -25.1704 -3.8331
1 31 11 -3.2650 3.6375
1 31 12 -4.6966 -4.7435
1 31 13 -10.0306 -23.2178
1 31 14 -4.0694 0.9141
1 31 15 0.2294 2.4379
1 31 16 13.9080 -2.5213
1 31 17 -4.9572 5.9333
1 31 18 -13.9164 22.4158
1 31 19 3.4191 -0.3720
1 31 20 11.6621 21.9314
1 31 21 0.2722 10.4802
1 31 22 17.1457 20.1467
1 31 23 -9.5756 -8.1236
1 31 24 -1.4822 -0.4663
1 31 25 -8.5842 -4.2805
1 31 26 11.6423 40.4021
1 31 27 11.8926 3.5596
1 31 28 0.8888 24.6970
1 31 29 8.9212 -6.2676
1 31 30 2.1149 5.9435
1 31 31 1.1971 3.5023
1 31 32 -0.3729 4.4227
1 31 33 11.1405 -0.5162
1 31 34 -13.1630 3.2343
1 31 35 8.2761 -0.3114
1 31 36 -16.4196 1.0421
1 31 37 -1.8977 3.8936
1 31 38 -14.4275 4.3531
1 31 39 29.4176 -7.8083
1 31 40 1.1494 -14.0153
1 31 41 -0.9892 -11.2568
1 31 42 13.6095 -1.3511
1 33 0 -3.1539 0.5070
1 33 1 -1.8727 0.5434
1 33 2 -40.2584 21.0049
1 33 3 -7.8302 19.1369
1 33 4 -10.0942 -24.1499
1 33 5 5.0769 16.2666
1 33 6 -14.6064 -10.6818
1 33 7 5.8948 -11.3905
1 33 8 -6.8279 7.5393
1 33 9 17.4737 -18.7194
1 33 10 3.5802 1.6701
1 33 11 5.3244 -13.2442
1 33 12 -9.2892 12.1992
1 33 13 1.1110 -0.1039
1 33 14 18.2017 8.2745
1 33 15 -40.7333 13.1386
1 33 16 17.4883 29.5065
1 33 17 10.1767 -13.8119
1 33 18 -5.8067 3.8670
1 33 19 -5.4681 -0.9911
1 33 20 -20.6542 1.8699
1 33 21 4.6040 -10.9776
1 33 22 5.4343 -2.0805
1 33 23 10.3650 10.8654
1 33 24 4.2204 -27.0458
1 33 25 2.5241 -9.4322
1 33 26 -6.3511 -15.2928
1 33 27 6.9469 4.4963
1 33 28 -3.7979 0.3580
1 33 29 -2.9158 5.7231
1 33 30 -1.3763 9.2869
1 33 31 -6.9900 -3.1734
1 33 32 0.0811 -5.3641
1 33 33 2.3601 -13.5473
1 33 34 -18.0044 -2.2336
1 33 35 7.4040 -9.6369
1 35 0 -11.1986 -0.1618
1 35 1 11.0469 -12.4535
1 35 2 -21.4735 0.7262
1 35 3 5.9517 2.9133
1 35 4 5.5343 -5.5496
1 35 5 4.9403 2.8004
1 35 6 4.1819 -13.5868
1 35 7 -6.2299 -5.9064
1 35 8 12.6198 -0.3154
1 35 9 -4.9194 -0.5386
1 35 10 2.7167 2.2567
1 35 11 1.1523 3.3887
1 35 12 5.4334 -3.5389
1 35 13 4.1741 28.0516
1 35 14 3.9157 -14.1500
1 35 15 0.2823 6.0095
1 35 16 -1.0513 -3.6248
1 35 17 3.8243 8.3516
1 35 18 -1.9884 -2.9820
1 35 19 10.9421 1.6923
1 35 20 -3.1159 -5.9137
1 35 21 3.4901 -13.1549
1 35 22 -0.4722 -18.9276
1 35 23 4.1417 -1.4001
1 35 24 2.9342 -5.5846
1 35 25 -0.2094 -11.6540
1 35 26 3.4176 -3.6737
1 37 0 3.8970 0.7026
1 37 1 4.5249 -29.0001
1 37 2 6.6463 1.4668
1 37 3 10.6730 -15.6473
1 37 4 3.1964 1.2431
1 37 5 7.8866 -4.6083
1 37 6 4.9870 11.2361
1 37 7 -12.4714 -12.0439
1 37 8 7.1812 4.3647
2 0 0 42.2685 0.1735
2 0 2 61.1935 1.4361
2 0 3 -5.8775 113.4900
2 0 4 -1.7885 0.2947
2 0 5 -3.3553 66.0293
2 0 6 -726.2068 -1.2509
2 0 7 2.9581 161.3251
2 0 8 -36.9473 -0.1641
2 0 9 0.5491 -63.0808
2 0 10 168.6684 0.4634
2 0 11 -0.0154 -33.4252
2 0 12 -80.3211 -0.5229
2 0 13 1.2007 112.9476
2 0 14 -7.9918 -0.5255
2 0 15 -2.0938 -43.2798
2 0 16 -26.8272 0.5724
2 0 17 -1.5748 -12.3300
2 0 18 21.1193 1.1395
2 0 19 2.5882 -59.7948
2 0 20 -22.9265 -0.4950
2 0 21 1.1606 -115.2095
2 0 22 -162.0777 -1.5961
2 0 23 -1.6533 -56.1974
2 0 24 4.1269 0.3862
2 0 25 -0.3153 -16.4337
2 0 26 -14.5044 2.0356
2 0 27 0.5159 15.5027
2 0 28 -25.1943 -0.5820
2 0 29 0.0058 -17.4439
2 0 30 9.7720 -2.4994
2 0 31 -0.1650 50.4008
2 0 32 -15.3436 0.9327
2 0 33 0.0301 30.5353
2 0 34 -29.1692 2.4425
2 0 35 0.6578 11.3300
2 0 36 11.3305 -1.3139
2 0 37 0.2375 2.8059
2 0 38 0.9761 -2.1950
2 0 39 -1.2138 2.0529
2 0 40 -7.9289 1.5170
2 0 41 -0.3292 -18.8162
2 0 42 9.0835 1.6002
2 0 43 0.9653 -1.0335
2 0 44 8.7358 -1.3350
2 0 45 0.1282 21.1877
2 0 46 -15.8748 -0.8472
2 0 47 -0.2797 -3.8555
2 0 48 -4.5627 0.8957
2 0 49 0.0481 -0.0049
2 0 50 -10.7036 0.4476
2 0 51 -0.4300 -2.4319
2 0 52 5.2309 -0.4198
2 0 53 -0.1141 10.6111
2 0 54 -8.8857 -0.1103
2 0 55 0.8384 10.6477
2 0 56 20.6632 0.0630
2 0 57 -0.0389 15.6219
2 0 58 -4.8411 -0.0804
2 0 59 -0.6889 -8.3878
2 0 60 14.7942 0.1118
2 0 61 0.1785 -5.1336
2 0 62 12.9148 0.0791
2 0 63 0.2898 -9.8031
2 0 64 12.6074 -0.1310
2 0 65 -0.1826 17.5227
2 0 66 17.5763 -0.0334
2 0 67 0.0103 -14.8400
2 2 0 37.9974 -0.1603
2 2 1 -193.4872 260.5244
2 2 2 249.9982 -148.4573
2 2 3 867.7831 467.6888
2 2 4 583.5420 -229.5168
2 2 5 118.4279 -214.4574
2 2 6 -142.8983 272.8123
2 2 7 53.4833 -106.4708
2 2 8 446.8998 -111.7431
2 2 9 -218.5055 -92.6496
2 2 10 -116.9727 -44.5093
2 2 11 -72.8540 98.2990
2 2 12 -104.1703 -125.4214
2 2 13 -99.1174 -150.7710
2 2 14 -40.2225 158.4856
2 2 15 -200.1084 -69.2578
2 2 16 -62.4514 68.9408
2 2 17 -31.9153 43.3868
2 2 18 0.0021 31.5084
2 2 19 26.3463 -3.0655
2 2 20 26.1671 86.1133
2 2 21 12.4734 -5.1278
2 2 22 -7.2696 36.8928
2 2 23 46.5093 -23.5128
2 2 24 29.2600 98.5642
2 2 25 -18.9859 73.8631
2 2 26 -35.0139 -45.5670
2 2 27 16.7717 30.6735
2 2 28 -12.4780 49.7210
2 2 29 -8.6383 18.5202
2 2 30 49.0405 32.4732
2 2 31 -3.9009 -89.8033
2 2 32 -15.8817 -1.3300
2 2 33 122.1276 47.1107
2 2 34 18.3023 0.4057
2 2 35 34.6507 -39.5789
2 2 36 -42.9059 30.7637
2 2 37 -39.4378 -47.4798
2 2 38 8.7564 -4.9638
2 2 39 -30.2849 -16.2306
2 2 40 -45.5851 1.9868
2 2 41 -49.3119 -6.8011
2 2 42 6.3471 10.3103
2 2 43 -3.2412 -17.8930
2 2 44 4.2630 -12.5147
2 2 45 9.1936 -7.7385
2 2 46 -11.7456 79.3671
2 2 47 -6.9259 -27.0106
2 2 48 51.7851 30.0228
2 2 49 4.8326 -1.4365
2 2 50 -12.7136 49.4859
2 2 51 12.3819 20.1878
2 2 52 8.8918 20.8562
2 2 53 9.9855 21.3253
2 2 54 12.8616 29.8852
2 2 55 13.4712 -7.7045
2 2 56 -25.1962 18.5290
2 2 57 2.3021 -5.8708
2 2 58 -7.2744 16.9453
2 2 59 9.4057 -12.9811
2 2 60 -8.1996 -6.5377
2 2 61 2.9137 -1.9196
2 2 62 3.2644 13.5653
2 2 63 0.3528 -18.7043
2 2 64 5.4740 -11.2319
2 2 65 -2.4099 14.8788
2 2 66 6.9369 -0.6959
2 4 0 -343.7173 -0.1487
2 4 1 -151.9096 173.4693
2 4 2 -153.7421 -267.2607
2 4 3 251.3653 128.1593
2 4 4 -152.3834 -56.0666
2 4 5 76.6181 86.8943
2 4 6 151.9589 -161.5339
2 4 7 -111.5004 -315.3288
2 4 8 200.7209 115.5379
2 4 9 153.8955 -118.1741
2 4 10 -115.9682 -52.5887
2 4 11 -32.9783 -80.3723
2 4 12 82.2017 -43.7294
2 4 13 -111.9180 101.3751
2 4 14 -3.2903 95.0559
2 4 15 -21.0344 57.4262
2 4 16 44.8982 -91.8234
2 4 17 -30.0950 149.3850
2 4 18 63.5709 -38.7408
2 4 19 -63.3734 -85.2482
2 4 20 -74.7303 65.4039
2 4 21 -73.9360 -8.9772
2 4 22 46.1923 -46.5932
2 4 23 -39.4843 134.8223
2 4 24 -64.4947 8.5041
2 4 25 66.2782 22.0283
2 4 26 -38.0042 95.7543
2 4 27 -6.7847 52.9896
2 4 28 16.4419 72.9837
2 4 29 -13.1860 -1.2124
2 4 30 2.5973 17.2207
2 4 31 40.8634 11.3731
2 4 32 -27.8197 1.1743
2 4 33 73.1641 25.0019
2 4 34 57.3054 54.2650
2 4 35 30.1549 -35.1288
2 4 36 -29.1497 6.9442
2 4 37 -4.3635 21.2042
2 4 38 -33.6256 12.9943
2 4 39 37.0181 -99.2981
2 4 40 16.1667 -15.2240
2 4 41 14.6175 5.0287
2 4 42 -14.9228 -5.3560
2 4 43 9.0516 13.4623
2 4 44 -7.0137 14.1818
2 4 45 0.1934 -2.7460
2 4 46 -1.1002 -5.1925
2 4 47 -17.6658 16.7918
2 4 48 -10.5432 -14.1441
2 4 49 1.2962 -19.0354
2 4 50 1.3935 -0.5105
2 4 51 -7.6029 -13.2973
2 4 52 2.4526 19.5970
2 4 53 28.6533 -30.2880
2 4 54 2.7371 -37.8466
2 4 55 20.5421 0.6880
2 4 56 7.0773 -12.4837
2 4 57 9.9605 -23.8094
2 4 58 -10.8030 11.3137
2 4 59 -13.9478 16.1360
2 4 60 18.9547 8.0136
2 4 61 2.9856 -12.7684
2 4 62 -16.5887 -1.0346
2 4 63 4.6826 1.7011
2 4 64 0.8075 8.3045
2 4 65 -5.5460 2.3756
2 4 66 4.3991 1.4016
2 4 67 -4.7541 1.6802
2 4 68 0.9420 -6.3709
2 4 69 5.5622 0.1591
2 4 70 11.0281 7.2592
2 4 71 4.3389 -3.0989
2 6 0 12.5541 -0.2785
2 6 1 58.7769 2.7682
2 6 2 -0.7599 -76.5981
2 6 3 40.6652 69.0814
2 6 4 97.7036 51.1984
2 6 5 -59.5729 -123.1353
2 6 6 -275.1526 -161.3647
2 6 7 3.7004 156.5880
2 6 8 24.0180 154.0147
2 6 9 -54.8385 33.8654
2 6 10 -135.1228 71.6356
2 6 11 -178.4334 -167.7100
2 6 12 94.5070 1.5129
2 6 13 -52.3234 -10.9514
2 6 14 -33.9103 -43.6817
2 6 15 -20.0151 10.8893
2 6 16 -44.2797 48.6464
2 6 17 -39.3467 11.6133
2 6 18 -6.7781 77.0105
2 6 19 -51.6494 -25.1794
2 6 20 -11.4125 -98.3652
2 6 21 -10.0050 73.0010
2 6 22 -85.0527 95.3937
2 6 23 106.3983 43.2405
2 6 24 -14.9911 31.8549
2 6 25 29.4989 -40.3552
2 6 26 25.3615 162.0160
2 6 27 -65.0713 45.2510
2 6 28 41.5074 36.4161
2 6 29 61.7494 -38.2345
2 6 30 -14.7329 71.5204
2 6 31 10.2791 -1.9942
2 6 32 -39.3918 -33.5172
2 6 33 1.5218 19.0122
2 6 34 68.7717 -5.3767
2 6 35 4.0760 73.9224
2 6 36 -77.5499 -19.4293
2 6 37 -41.9434 12.6690
2 6 38 40.2704 -16.9384
2 6 39 10.7581 -21.7378
2 6 40 24.9708 -7.6648
2 6 41 -20.4993 40.3360
2 6 42 11.6954 -27.4031
2 6 43 14.7596 3.0153
2 6 44 8.1308 33.9855
2 6 45 -39.1910 84.0472
2 6 46 -11.4793 -24.3727
2 6 47 -26.8566 -2.0153
2 6 48 20.9195 -18.8983
2 6 49 29.6087 37.3462
2 6 50 0.4350 -13.1656
2 6 51 -1.6405 11.6372
2 6 52 -14.3196 -10.8064
2 6 53 6.6164 -9.0954
2 6 54 -20.5322 -21.2647
2 6 55 15.8945 2.2505
2 6 56 0.8846 -9.9216
2 6 57 -13.1930 -22.1754
2 6 58 26.2170 9.2334
2 6 59 7.8190 6.7294
2 6 60 9.1050 -3.9341
2 6 61 -5.2870 8.5363
2 6 62 2.0960 -4.0596
2 6 63 0.2240 9.5784
2 6 64 -0.1503 9.1680
2 6 65 12.8025 2.1335
2 6 66 3.2579 -4.5387
2 6 67 -2.2342 -1.7702
2 6 68 10.5485 -4.8591
2 6 69 4.0051 9.3536
2 6 70 -3.7519 1.6154
2 6 71 13.5702 13.5780
2 6 72 -0.1823 1.6244
2 6 73 1.2543 1.0210
2 8 0 36.0465 -4.2326
2 8 1 19.3300 -39.1276
2 8 2 109.2104 70.6768
2 8 3 -1.5982 -28.9242
2 8 4 -54.4152 -46.2409
2 8 5 39.6821 35.7505
2 8 6 -28.7592 -15.3284
2 8 7 -37.3516 99.2304
2 8 8 -3.3709 -20.7676
2 8 9 -82.4862 -3.8464
2 8 10 -47.1546 -67.8670
2 8 11 -37.7229 6.8470
2 8 12 -10.6169 -10.8572
2 8 13 11.4181 34.4877
2 8 14 -4.0598 -41.8436
2 8 15 4.5567 -9.3654
2 8 16 11.7358 -15.6920
2 8 17 -27.8082 24.1635
2 8 18 47.9817 -21.8803
2 8 19 -1.4857 3.7916
2 8 20 -23.8392 -61.5293
2 8 21 114.5468 -2.9386
2 8 22 -2.2435 22.8518
2 8 23 93.4039 21.2740
2 8 24 26.4658 -40.0355
2 8 25 50.1695 -21.4219
2 8 26 57.5201 91.7366
2 8 27 21.2775 27.8940
2 8 28 -28.1297 -16.2032
2 8 29 99.2031 -93.1569
2 8 30 53.7094 4.1107
2 8 31 -34.2795 -18.5679
2 8 32 -13.4286 -33.4929
2 8 33 4.6742 23.4455
2 8 34 -25.6662 7.1456
2 8 35 28.1781 4.3905
2 8 36 35.3248 50.3623
2 8 37 -47.4755 -3.0539
2 8 38 15.1601 -12.1267
2 8 39 1.0767 30.6004
2 8 40 4.5220 -51.0338
2 8 41 -27.0720 1.9428
2 8 42 8.9203 1.1154
2 8 43 -12.0427 10.3439
2 8 44 -1.4439 4.1907
2 8 45 -6.5821 -12.9201
2 8 46 -8.7768 39.6697
2 8 47 8.0081 -0.1534
2 8 48 -11.6699 -7.9411
2 8 49 -41.2217 -10.4059
2 8 50 12.9329 9.5895
2 8 51 -35.2371 25.6446
2 8 52 -6.5684 -29.8482
2 8 53 27.8599 13.2065
2 8 54 -1.7473 -5.5720
2 8 55 -3.5603 -19.2797
2 8 56 18.7785 16.6323
2 8 57 -1.1594 -0.3974
2 8 58 -4.1835 -11.7206
2 8 59 -1.2454 10.2059
2 8 60 -6.0859 3.4236
2 8 61 2.8252 14.7489
2 8 62 5.6940 4.7054
2 8 63 4.4811 -4.6091
2 8 64 1.2743 -3.4910
2 8 65 -2.6909 2.6661
2 8 66 4.9360 2.9090
2 8 67 -1.3050 -0.3932
2 8 68 2.7842 -7.7121
2 8 69 1.2079 9.2647
2 8 70 -3.0164 1.6108
2 8 71 1.5711 2.4480
2 8 72 1.5772 6.4245
2 10 0 36.0285 3.9647
2 10 1 117.6450 81.3869
2 10 2 45.7723 -56.3238
2 10 3 25.8645 -17.1835
2 10 4 18.3738 -27.9512
2 10 5 -47.5304 45.8794
2 10 6 5.3400 9.3970
2 10 7 16.3131 -58.4068
2 10 8 -3.3503 4.5453
2 10 9 -85.4828 13.9912
2 10 10 -68.8078 34.7758
2 10 11 15.2651 33.2473
2 10 12 27.3774 69.7334
2 10 13 -2.8051 -20.4151
2 10 14 -16.6968 -32.3560
2 10 15 -44.7590 4.3486
2 10 16 -5.7979 -10.1369
2 10 17 -5.3903 -3.1354
2 10 18 67.6987 -12.6229
2 10 19 63.0530 -30.1273
2 10 20 -13.0412 -13.5923
2 10 21 -2.5971 60.4514
2 10 22 -10.8508 -19.0628
2 10 23 -53.7498 104.1992
2 10 24 -21.9617 -16.5054
2 10 25 9.5306 82.5591
2 10 26 -49.2375 25.6485
2 10 27 17.1454 43.5859
2 10 28 32.8669 23.4775
2 10 29 -59.2315 37.9398
2 10 30 37.5275 -1.3278
2 10 31 33.6051 28.9812
2 10 32 -92.1625 -20.1850
2 10 33 -47.9103 9.0333
2 10 34 31.7947 21.4766
2 10 35 -5.2249 -41.3025
2 10 36 -15.5825 25.3975
2 10 37 92.5738 -30.7330
2 10 38 14.2927 -2.2533
2 10 39 42.7196 -20.0378
2 10 40 -26.5889 -3.5787
2 10 41 -11.4450 35.6947
2 10 42 29.2321 24.1933
2 10 43 24.0294 3.8455
2 10 44 1.8788 -5.6046
2 10 45 10.5885 -17.9193
2 10 46 -54.8871 -5.2288
2 10 47 5.6543 27.8713
2 10 48 2.7949 -11.2018
2 10 49 -22.8131 16.3005
2 10 50 4.7945 -3.6794
2 10 51 -3.6208 -5.2068
2 10 52 -44.8103 -21.2050
2 10 53 -18.6968 26.7086
2 10 54 0.1523 -22.4608
2 10 55 13.7530 9.6327
2 10 56 0.3828 -14.9570
2 10 57 -8.2482 0.9239
2 10 58 6.7871 -14.7188
2 10 59 -19.4409 5.8374
2 10 60 -25.0150 -8.8693
2 10 61 -4.5242 3.4488
2 10 62 1.2172 -13.5854
2 10 63 4.6981 4.7468
2 10 64 -2.4074 1.1461
2 10 65 3.0496 -0.8968
2 10 66 1.7898 4.4523
2 10 67 -0.0259 -2.7777
2 10 68 -1.2639 -5.2751
2 10 69 -2.2934 2.2312
2 10 70 7.6219 4.4145
2 10 71 9.4837 -6.1743
2 12 0 39.2369 3.1462
2 12 1 -21.1226 9.2246
2 12 2 1.9270 -45.9841
2 12 3 4.3827 7.7108
2 12 4 38.4592 -1.9263
2 12 5 41.5809 -32.7401
2 12 6 -28.0075 -37.4989
2 12 7 -83.7228 43.8982
2 12 8 4.7644 4.3588
2 12 9 -3.4422 10.4158
2 12 10 5.1070 95.3415
2 12 11 0.8273 -5.5679
2 12 12 21.0394 -28.6891
2 12 13 47.9169 35.0391
2 12 14 25.0053 12.0606
2 12 15 -40.0279 -8.5908
2 12 16 62.0827 30.4562
2 12 17 -2.7214 -19.3182
2 12 18 -39.2927 66.8617
2 12 19 8.0275 -18.6586
2 12 20 -39.9216 -9.1632
2 12 21 -8.8381 10.6392
2 12 22 -43.3442 -17.4669
2 12 23 -11.1707 13.9630
2 12 24 -49.7602 53.2295
2 12 25 -54.4252 88.4004
2 12 26 24.2850 -25.8267
2 12 27 25.0915 6.6122
2 12 28 -28.2916 7.6826
2 12 29 26.2361 20.0927
2 12 30 -12.5754 -18.0891
2 12 31 -90.6038 1.0747
2 12 32 56.5446 -40.7835
2 12 33 -9.1428 -11.4107
2 12 34 -4.8405 -21.2764
2 12 35 -60.5944 -1.0123
2 12 36 -43.3459 29.5757
2 12 37 32.9827 74.3559
2 12 38 22.9155 9.4137
2 12 39 11.4049 12.9215
2 12 40 55.0833 1.6265
2 12 41 38.0762 8.9000
2 12 42 -13.3208 24.8017
2 12 43 -9.3814 -13.2498
2 12 44 20.7526 -24.1348
2 12 45 -8.4003 -20.1417
2 12 46 -13.5680 -15.9113
2 12 47 3.7912 0.4911
2 12 48 27.7792 0.9415
2 12 49 29.9810 -15.7364
2 12 50 -9.4849 19.9560
2 12 51 -0.7441 -4.8635
2 12 52 11.5218 -4.7399
2 12 53 2.4793 0.6735
2 12 54 -18.5442 -19.0049
2 12 55 -2.2572 -27.4159
2 12 56 -7.5829 -8.8066
2 12 57 17.3081 30.2033
2 12 58 -15.8121 -1.8453
2 12 59 0.2286 -17.7203
2 12 60 5.1342 -4.3376
2 12 61 -3.7547 19.6166
2 12 62 -12.0211 -8.0293
2 12 63 0.6946 4.1925
2 12 64 -4.0063 0.8283
2 12 65 -0.0650 -9.6252
2 12 66 -2.5983 13.6840
2 12 67 -2.2007 -1.9702
2 12 68 1.2144 3.5041
2 12 69 -0.5882 -3.7787
2 12 70 0.4127 -0.0059
2 12 71 -4.3789 -2.9527
2 14 0 -16.5768 -4.2095
2 14 1 38.2012 -12.6583
2 14 2 -67.4029 7.3083
2 14 3 51.5545 -56.9462
2 14 4 -26.2961 -21.6539
2 14 5 -14.4336 -18.9250
2 14 6 60.0209 13.1596
2 14 7 21.1350 4.6730
2 14 8 52.4127 25.3235
2 14 9 -18.0805 -56.1807
2 14 10 33.0231 24.6540
2 14 11 12.8314 33.6287
2 14 12 6.8046 21.2799
2 14 13 -59.3623 -66.0263
2 14 14 -10.2907 7.3006
2 14 15 -48.5258 43.6896
2 14 16 16.4011 -7.8495
2 14 17 -11.4148 37.1440
2 14 18 -86.1652 5.5285
2 14 19 -19.0715 -29.0278
2 14 20 -59.9680 -39.9162
2 14 21 17.6737 -28.9856
2 14 22 32.7174 2.7624
2 14 23 6.6846 -61.4440
2 14 24 -15.4284 -35.4740
2 14 25 4.5290 -24.9300
2 14 26 48.8263 -8.1639
2 14 27 -9.3622 3.0278
2 14 28 -38.0180 -55.3660
2 14 29 -40.4172 -33.4844
2 14 30 54.4245 -7.0017
2 14 31 -57.6539 -61.5707
2 14 32 9.0555 14.0100
2 14 33 -21.6349 -5.2573
2 14 34 41.4159 0.8537
2 14 35 -59.1235 4.0209
2 14 36 -10.9772 -7.0735
2 14 37 -35.1122 -0.4569
2 14 38 1.8727 -7.3576
2 14 39 -35.3857 32.1202
2 14 40 -5.5646 21.2509
2 14 41 42.2644 21.5944
2 14 42 20.0093 6.2280
2 14 43 -9.7341 11.6551
2 14 44 -39.4164 -0.2874
2 14 45 -27.6330 -1.0302
2 14 46 -30.6281 -3.5400
2 14 47 -16.9619 -1.5913
2 14 48 2.4148 -8.5451
2 14 49 9.6477 13.9378
2 14 50 47.7587 22.1433
2 14 51 9.6558 -19.5727
2 14 52 6.8125 -16.3069
2 14 53 24.4938 4.6971
2 14 54 7.1148 -12.9596
2 14 55 -2.7598 -4.5974
2 14 56 -10.4904 8.5751
2 14 57 1.6508 -6.6170
2 14 58 14.5873 1.9754
2 14 59 3.1321 0.4683
2 14 60 -17.2875 -13.0561
2 14 61 -1.4892 0.2271
2 14 62 6.2709 -3.3102
2 14 63 22.1156 -5.0612
2 14 65 -21.5517 10.6270
2 14 66 2.6343 5.1684
2 14 67 0.3197 3.1308
2 14 68 1.4008 -1.5762
2 14 69 1.2738 5.8143
2 14 70 -1.3585 0.1068
2 16 0 36.2780 -0.0963
2 16 1 7.4580 -33.8226
2 16 2 -23.4124 5.6323
2 16 3 38.1275 -2.3160
2 16 4 9.9003 10.3865
2 16 5 24.5838 46.9400
2 16 6 24.5874 25.3925
2 16 7 -25.3605 23.0175
2 16 8 -0.4766 2.2835
2 16 9 57.5801 44.9888
2 16 10 8.4340 72.9068
2 16 11 -3.1858 22.4162
2 16 12 65.1139 -71.7995
2 16 13 23.2238 12.4011
2 16 14 -59.0713 -32.5222
2 16 15 -22.4332 5.4547
2 16 16 -22.2361 -32.3723
2 16 17 -3.1792 12.9273
2 16 18 6.1754 2.6741
2 16 19 10.3690 33.0938
2 16 20 -1.3429 -2.4949
2 16 21 8.8798 18.9731
2 16 22 32.6756 -11.0523
2 16 23 54.0106 20.3718
2 16 24 28.9352 46.6479
2 16 25 -31.2772 -56.1182
2 16 26 -33.9002 14.2122
2 16 27 50.4748 13.8023
2 16 28 -17.3492 -26.4917
2 16 29 -4.9229 -9.7627
2 16 30 -0.6400 -8.0714
2 16 31 75.1982 32.3231
2 16 32 -26.1322 -24.3261
2 16 33 35.2952 -51.6825
2 16 34 33.2696 9.0555
2 16 35 -18.8962 -1.3157
2 16 36 -25.4060 3.8342
2 16 37 21.0211 18.7891
2 16 38 -0.0026 -0.8412
2 16 39 -11.6540 -7.8462
2 16 40 -14.0396 7.6993
2 16 41 -11.1658 32.2038
2 16 42 9.2236 18.8128
2 16 43 -23.9286 9.8645
2 16 44 -15.7828 -9.7725
2 16 45 -16.6558 -3.7043
2 16 46 -1.6443 3.9024
2 16 47 -29.6473 -0.4760
2 16 48 31.8129 0.2589
2 16 49 -23.7913 -2.6861
2 16 50 4.5239 13.8014
2 16 51 18.6584 9.4252
2 16 52 6.1617 -3.0647
2 16 53 -5.4457 2.7764
2 16 54 -2.8265 4.4463
2 16 55 6.9587 -6.2698
2 16 56 1.3877 -6.9263
2 16 57 -4.4528 2.0174
2 16 58 -11.3910 -8.4038
2 16 59 -16.5120 -12.1028
2 16 60 -0.5087 -3.0817
2 16 61 -4.2108 -15.4751
2 16 62 2.3707 4.1688
2 16 63 -6.9675 11.2482
2 16 64 -13.5000 -5.2754
2 16 65 1.5795 -5.3379
2 16 66 -7.4812 1.6515
2 16 67 7.1754 1.2033
2 16 68 3.0458 -0.5664
2 18 0 -33.0153 -0.6683
2 18 1 -21.9384 -28.9065
2 18 2 -8.5607 6.9332
2 18 3 5.2569 -8.8681
2 18 4 5.9968 -2.2813
2 18 5 6.7416 -7.3258
2 18 6 -31.3295 -21.3439
2 18 7 53.9434 -0.9349
2 18 8 14.9117 11.7131
2 18 9 20.2220 9.0379
2 18 10 15.3593 -14.3550
2 18 11 -6.1544 0.2720
2 18 12 34.2159 -0.5157
2 18 13 17.2254 8.5517
2 18 14 -0.0097 -59.3283
2 18 15 -15.1194 35.4153
2 18 16 -52.3683 -22.0414
2 18 17 0.1797 -22.2158
2 18 18 -57.9368 -76.2637
2 18 19 -30.3254 58.2987
2 18 20 -14.0806 -7.6207
2 18 21 -31.4266 33.4015
2 18 22 -14.0881 43.1165
2 18 23 -21.9505 9.5121
2 18 24 -13.7954 13.3760
2 18 25 -16.6597 -23.9266
2 18 26 29.9613 -3.1350
2 18 27 16.0484 6.1352
2 18 28 -9.5358 -8.2043
2 18 29 8.9135 -11.9151
2 18 30 -8.5367 -5.3686
2 18 31 15.6948 22.4750
2 18 32 -23.3762 -32.0523
2 18 33 -9.9725 11.2002
2 18 34 -15.3282 -4.9742
2 18 35 13.6365 7.9393
2 18 36 -0.4491 44.9921
2 18 37 1.5506 -17.6360
2 18 38 -19.3610 -19.8891
2 18 39 -25.7813 30.8175
2 18 40 15.5140 -3.0211
2 18 41 14.7366 22.7836
2 18 42 -3.5492 -4.8977
2 18 43 4.0151 12.6531
2 18 44 1.7626 -45.9140
2 18 45 3.3076 6.7396
2 18 46 16.1108 2.3555
2 18 47 -1.5672 9.8098
2 18 48 0.3377 -10.7507
2 18 49 -11.1054 -1.6834
2 18 50 3.6319 5.0409
2 18 51 -1.8305 -17.1544
2 18 52 2.1472 4.4623
2 18 53 2.0059 9.8756
2 18 54 3.6291 1.4662
2 18 55 5.9467 10.1184
2 18 56 -11.6709 -4.2348
2 18 57 -2.7631 -12.2460
2 18 58 -3.8938 -6.4454
2 18 59 -7.5127 -4.7222
2 18 60 0.5823 1.8827
2 18 61 0.1014 -4.3266
2 18 62 -2.0937 -3.2145
2 18 63 -9.1654 -3.8960
2 18 64 -0.0525 -8.9445
2 18 65 3.8532 -11.3953
2 18 66 -12.1547 2.9822
2 20 0 -9.4671 2.3647
2 20 1 5.1319 -16.8916
2 20 2 12.1889 17.7545
2 20 3 -30.3049 18.5742
2 20 4 30.5825 18.9683
2 20 5 33.0594 17.6780
2 20 6 6.2774 -4.8937
2 20 7 -7.1000 23.3203
2 20 8 -5.4152 -12.6056
2 20 9 29.1427 -7.9328
2 20 10 -14.8812 3.0224
2 20 11 -11.3741 -6.6506
2 20 12 42.0568 59.1142
2 20 13 -55.4450 -49.4697
2 20 14 -8.5133 8.7290
2 20 15 -26.2688 14.0515
2 20 16 16.2225 26.6604
2 20 17 -3.3181 3.4219
2 20 18 -15.0895 2.5907
2 20 19 -8.8249 -45.0625
2 20 20 32.7006 20.3566
2 20 21 16.0160 -22.9274
2 20 22 0.3457 6.8093
2 20 23 -25.4167 -35.8992
2 20 24 24.8596 33.7495
2 20 25 1.7585 3.3750
2 20 26 27.9144 2.8475
2 20 27 -7.0929 1.7359
2 20 28 23.2528 23.1492
2 20 29 2.3187 -24.8594
2 20 30 -10.9224 -21.0761
2 20 31 10.5237 -5.2601
2 20 32 -14.3528 46.8859
2 20 33 -10.9445 -4.1033
2 20 34 3.6692 -10.9847
2 20 35 9.9926 -24.2208
2 20 36 -14.6642 -10.0944
2 20 37 48.9327 16.3276
2 20 38 -10.1639 6.5614
2 20 39 -3.8826 -38.8501
2 20 40 -3.8153 11.5728
2 20 41 -26.5713 -8.0043
2 20 42 -19.6183 12.0787
2 20 43 -0.3497 -11.1832
2 20 44 8.4146 -10.3846
2 20 45 21.2552 -5.8884
2 20 46 -12.4772 14.8999
2 20 47 5.2717 -15.9898
2 20 48 -8.7226 -7.8507
2 20 49 -30.2043 -7.4419
2 20 50 -16.1329 3.6952
2 20 51 33.4507 0.9309
2 20 52 10.6555 -12.1684
2 20 53 -1.7476 5.4268
2 20 54 2.3585 -11.4364
2 20 55 -4.0213 0.0242
2 20 56 1.4903 10.7270
2 20 57 -2.3854 2.6949
2 20 58 20.6408 12.6873
2 20 59 2.0909 6.0637
2 20 60 16.5348 -8.6425
2 20 61 6.2344 -19.8750
2 20 62 -15.8898 -0.8130
2 20 63 12.4283 0.1097
2 20 64 -5.7137 18.6713
2 22 0 14.3350 0.0747
2 22 1 -32.9812 25.0893
2 22 2 15.0729 4.1523
2 22 3 13.0458 33.8485
2 22 4 16.6593 35.4257
2 22 5 -25.8746 3.3771
2 22 6 54.8368 7.1191
2 22 7 7.6665 30.7849
2 22 8 2.7442 -8.6019
2 22 9 63.1812 -17.3193
2 22 10 -6.1262 -9.6402
2 22 11 -25.8592 4.0378
2 22 12 52.3708 -2.0030
2 22 13 14.1653 -4.2806
2 22 14 28.8526 -18.9472
2 22 15 2.1298 9.8896
2 22 16 -2.3860 10.5897
2 22 17 -24.8892 -40.8808
2 22 18 15.1184 23.0127
2 22 19 -24.0173 9.0298
2 22 20 22.8700 13.4843
2 22 21 2.4347 -20.0378
2 22 22 6.0237 -0.3700
2 22 23 -26.6759 -2.8673
2 22 24 9.7789 28.6284
2 22 25 6.9274 24.5373
2 22 26 -7.3820 -22.6413
2 22 27 64.8269 -24.3328
2 22 28 -7.6776 13.5995
2 22 29 15.7936 -4.3963
2 22 30 6.8250 -2.7959
2 22 31 -0.2244 -3.3499
2 22 32 -17.7854 -9.3221
2 22 33 15.9368 -0.6209
2 22 34 -0.0516 -16.2838
2 22 35 30.7464 -5.3509
2 22 36 4.3747 -2.1301
2 22 37 17.5728 -30.1984
2 22 38 -10.9980 15.1722
2 22 39 4.3595 -10.4843
2 22 40 -17.4857 -6.6942
2 22 41 9.5781 -5.7581
2 22 42 -13.4097 -8.2311
2 22 43 9.2917 6.3583
2 22 44 8.9117 12.4961
2 22 45 -14.9748 3.4543
2 22 46 0.9287 -27.8073
2 22 47 -2.1442 -19.6882
2 22 48 -12.4460 -11.4789
2 22 49 -10.9632 10.0576
2 22 50 10.0499 -7.2961
2 22 51 -16.7537 0.6413
2 22 52 3.1039 7.6576
2 22 53 8.0808 -14.8289
2 22 54 30.5900 -2.6463
2 22 55 -6.2296 5.6036
2 22 56 13.6047 2.2861
2 22 57 6.8324 -7.6424
2 22 58 -9.0423 3.7738
2 22 59 11.8805 3.8399
2 22 60 -13.9761 1.8315
2 22 61 191.2233 -111.2270
2 24 1 37.5263 -0.8908
2 24 2 0.7090 22.5977
2 24 3 35.8158 -31.7559
2 24 4 -13.8636 -14.3400
2 24 5 11.7198 8.5358
2 24 6 -19.0578 -20.4095
2 24 7 -13.7745 -31.2567
2 24 8 38.7121 6.8151
2 24 9 -20.2566 -1.8045
2 24 10 16.9790 -3.4087
2 24 11 -6.3741 -23.1982
2 24 12 23.6691 6.9036
2 24 13 -7.0124 -5.8663
2 24 14 23.0925 -8.7169
2 24 15 6.6547 12.7922
2 24 16 13.9216 26.8101
2 24 17 40.4689 -29.7897
2 24 18 -17.2389 -5.4510
2 24 19 6.7616 -16.3471
2 24 20 -9.8359 14.6227
2 24 21 -17.8613 10.4798
2 24 22 46.3155 -0.8351
2 24 23 -38.1280 -7.9740
2 24 24 17.8799 -28.8210
2 24 25 7.4926 -56.9864
2 24 26 -1.4199 18.9975
2 24 27 -21.7653 -5.2444
2 24 28 42.3658 -26.9633
2 24 29 -6.0624 -11.5413
2 24 30 24.3699 -18.8911
2 24 31 8.4676 14.6137
2 24 32 -4.3709 -36.6668
2 24 33 -1.1367 2.7620
2 24 34 -10.3119 1.3139
2 24 35 26.7088 21.7881
2 24 36 6.7532 3.8392
2 24 37 7.5162 -21.8068
2 24 38 -0.7345 20.9913
2 24 39 -2.7065 37.4756
2 24 40 -3.1939 -9.4115
2 24 41 -6.5429 0.6528
2 24 42 -4.4498 -0.4046
2 24 43 -4.5146 19.2241
2 24 44 7.3906 2.6583
2 24 45 16.0952 9.9601
2 24 46 18.4925 -21.1028
2 24 47 -11.0811 -10.3305
2 24 48 -30.5634 21.7002
2 24 49 -11.1490 -1.9613
2 24 50 6.3434 -5.1709
2 26 0 -0.4795 0.3982
2 26 1 -41.9739 -16.9876
2 26 2 -16.7656 -20.7684
2 26 3 -10.4603 -2.7900
2 26 4 -11.0350 -11.5781
2 26 5 -53.8867 2.9886
2 26 6 -7.2580 -16.2995
2 26 7 -5.4417 -14.2675
2 26 8 -18.5118 -3.2382
2 26 9 7.1799 -1.2886
2 26 10 -39.7477 8.1584
2 26 11 4.0278 8.1234
2 26 12 -3.4030 31.0669
2 26 13 35.1454 20.9585
2 26 14 11.9510 9.0114
2 26 15 13.7484 5.1237
2 26 16 13.9617 64.3200
2 26 17 53.5048 3.2942
2 26 18 -8.2046 2.9756
2 26 19 8.5010 4.5136
2 26 20 1.7940 13.8954
2 26 21 -10.0178 44.7618
2 26 22 0.7154 -6.6096
2 26 23 24.6594 -28.0373
2 26 24 -1.2626 -1.3905
2 26 25 7.6265 22.6911
2 26 26 -23.8962 -24.0879
2 26 27 -3.2248 -1.9007
2 26 28 27.5079 -4.5851
2 26 29 -32.5730 -8.6852
2 26 30 24.0160 12.6890
2 26 31 -35.1349 15.5860
2 26 32 -14.6916 -3.8762
2 26 33 -8.1386 12.3484
2 26 34 4.9039 7.6030
2 26 35 -23.5135 12.5591
2 26 36 19.5108 3.6021
2 26 37 12.4855 -9.5134
2 26 38 -0.4407 7.2249
2 26 39 -18.7960 -2.1685
2 26 40 13.4821 9.4953
2 26 41 32.1390 11.7773
2 26 42 -7.0381 -29.5823
2 26 43 -2.2311 -13.0155
2 26 44 2.2931 4.9293
2 26 45 -3.3554 -0.1185
2 26 46 -15.3755 17.8796
2 26 47 9.0280 -36.4321
2 26 48 -17.3017 -23.6236
2 26 49 -12.5044 20.0237
2 28 0 4.8680 -0.0626
2 28 1 -55.4198 -7.0245
2 28 2 20.8977 -18.5376
2 28 3 -25.1450 -1.7612
2 28 4 10.5062 -0.5121
2 28 5 -12.5757 4.1688
2 28 6 6.4715 27.7384
2 28 7 -13.8809 -1.5213
2 28 8 40.2792 13.6954
2 28 9 10.4085 -39.9348
2 28 10 12.3772 -37.4181
2 28 11 1.0884 56.7655
2 28 12 -23.9193 -2.5156
2 28 13 1.5635 -4.8621
2 28 14 -12.3478 11.2957
2 28 15 10.5805 26.4509
2 28 16 -8.8622 -10.3945
2 28 17 4.4814 -12.7643
2 28 18 6.2060 5.6458
2 28 19 -9.9657 -12.9544
2 28 20 24.0993 -9.5622
2 28 21 1.0941 -5.8362
2 28 22 -17.6692 -22.9169
2 28 23 -9.1242 10.7795
2 28 24 -27.3972 2.1094
2 28 25 19.4538 -4.3474
2 28 26 5.4159 -5.7777
2 28 27 -13.1641 -1.2624
2 28 28 -13.7017 4.3737
2 28 29 -16.6217 -2.4586
2 28 30 5.3190 4.4324
2 28 31 -11.2360 6.5827
2 28 32 -2.0985 10.3986
2 28 33 -4.9551 4.7525
2 28 34 -16.2783 12.7370
2 28 35 6.8342 -23.4809
2 28 36 9.6483 19.7241
2 28 37 1.9622 -3.5612
2 28 38 5.9362 -12.3132
2 28 39 9.5854 -0.5261
2 28 40 -4.7813 -3.6924
2 28 41 17.1394 -8.9371
2 28 42 -8.5772 -3.1997
2 30 0 10.1391 -1.0067
2 30 1 8.9699 -12.5630
2 30 2 -46.9542 -27.5592
2 30 3 24.6693 10.6551
2 30 4 -12.3113 -19.5817
2 30 5 9.0292 -5.0027
2 30 6 56.1508 26.9713
2 30 7 7.0496 -3.4017
2 30 8 31.2286 9.5990
2 30 9 -15.7672 8.2981
2 30 10 5.2216 10.0093
2 30 11 -9.4568 0.4080
2 30 12 23.4720 31.3945
2 30 13 -12.0773 5.3292
2 30 14 -8.2320 -4.5453
2 30 15 -3.3741 3.5167
2 30 16 -3.1708 17.4806
2 30 17 12.0160 -13.7013
2 30 18 0.0454 -14.2809
2 30 19 18.9714 2.1426
2 30 20 9.4563 16.2702
2 30 21 -14.2866 -11.3713
2 30 22 1.5608 2.5032
2 30 23 -21.6587 2.2385
2 30 24 8.6021 12.7459
2 30 25 -7.9282 15.5552
2 30 26 0.6044 -11.3191
2 30 27 -8.6091 4.7787
2 30 28 14.2068 -7.8000
2 30 29 12.0647 -9.1987
2 30 30 17.3221 -1.7232
2 30 31 11.2705 15.4946
2 30 32 -24.6606 -9.2560
2 30 33 4.6707 -1.4926
2 30 34 -3.5779 9.3089
2 30 35 12.5729 -0.9232
2 30 36 -4.0296 -23.2891
2 30 37 -0.0802 -1.4754
2 30 38 -3.0374 -0.5718
2 30 39 -0.3895 2.6030
2 30 40 6.9963 6.2539
2 30 41 1.3455 -6.3299
2 30 42 11.7639 1.2187
2 32 0 0.8043 1.5609
2 32 1 60.1467 18.5909
2 32 2 -8.7379 -0.6173
2 32 3 3.8186 -22.3160
2 32 4 11.8099 -6.9674
2 32 5 -3.2126 5.0637
2 32 6 -36.0350 -27.0010
2 32 7 3.7741 -0.3078
2 32 8 -21.0852 2.5422
2 32 9 8.3764 12.1079
2 32 10 -13.7530 -3.7427
2 32 11 -12.1412 6.4334
2 32 12 -36.3288 9.1499
2 32 13 -33.3248 -4.7490
2 32 14 2.1930 2.8322
2 32 15 13.7458 -9.8643
2 32 16 11.1897 3.3241
2 32 17 12.3110 -7.6201
2 32 18 20.2195 -2.2339
2 32 19 5.1826 3.5316
2 32 20 0.5481 -1.6682
2 32 21 18.8821 6.1025
2 32 22 13.9664 22.9382
2 32 23 -5.4029 5.7585
2 32 24 -6.0363 -2.3898
2 32 25 5.3687 3.3197
2 32 26 -6.2514 -13.4349
2 32 27 7.7332 0.4758
2 32 28 -9.5295 -3.8077
2 32 29 11.2395 0.0574
2 32 30 4.7601 5.6911
2 32 31 -6.6227 2.5876
2 32 32 2.3026 -3.2166
2 32 33 -6.4972 -14.4793
2 32 34 2.8952 -6.7971
2 32 35 -13.4249 7.5382
2 32 36 -1.3383 -15.9158
2 32 37 2.4046 31.5806
2 32 38 2.6438 -14.9128
2 34 0 1.3963 0.1394
2 34 1 -1.3954 1.5982
2 34 2 -2.9685 29.8175
2 34 3 3.8651 -19.9196
2 34 4 1.0524 -6.9257
2 34 5 -10.6023 -16.1791
2 34 6 -0.4605 9.4051
2 34 7 -11.9661 -3.5628
2 34 8 7.8255 -1.9632
2 34 9 3.4256 1.5020
2 34 10 -1.6334 -2.7923
2 34 11 -2.1504 5.4543
2 34 12 6.2202 5.6312
2 34 13 -22.6159 -11.0431
2 34 14 -17.0273 -12.9231
2 34 15 -7.8509 -0.2685
2 34 16 6.6969 6.1223
2 34 17 9.0898 1.5834
2 34 18 -6.3099 -5.9119
2 34 19 10.4616 -1.2811
2 34 20 5.9591 -8.2949
2 34 21 -3.4084 -2.5913
2 34 22 4.9498 2.5957
2 34 23 4.8901 -3.1982
2 34 24 2.4885 11.7442
2 34 25 2.9106 -2.4638
2 34 26 -2.3334 -10.6386
2 34 27 2.4438 -15.9075
2 34 28 8.5175 -3.5918
2 34 29 -7.4383 -2.4378
2 34 30 26.3683 -0.5225
2 36 0 6.1641 -0.8994
2 36 1 2.2735 -7.5458
2 36 2 2.1250 6.4477
2 36 3 -8.2826 -4.8740
2 36 4 2.8788 -2.1194
2 36 5 -5.0219 1.2722
2 36 6 5.0351 6.8051
2 36 7 -8.2757 5.1290
2 36 8 11.0631 15.3196
2 36 9 5.8575 3.6590
2 36 10 -1.4263 12.4054
2 36 11 4.4853 8.5875
2 36 12 10.2003 -5.0788
2 36 13 15.7273 -7.6369
2 36 14 -10.9066 -3.3112
2 36 15 1.1149 0.1285
2 36 16 -1.6646 -4.8591
2 36 17 11.5824 -14.2746
2 36 18 -9.4082 -13.3445
2 36 19 24.3724 7.2230
3 1 0 290.8108 2.1238
3 1 1 -160.4946 -33.9894
3 1 2 182.5703 101.1778
3 1 3 369.4322 -350.9088
3 1 4 -339.4429 -10.1358
3 1 5 42.9909 57.0735
3 1 6 -119.0333 -24.1303
3 1 7 -42.5146 94.2072
3 1 8 95.4148 382.0519
3 1 9 425.9841 91.0840
3 1 10 150.9768 -91.1023
3 1 11 -26.3450 -9.7684
3 1 12 -84.9089 104.4121
3 1 13 115.2813 -101.1403
3 1 14 -44.7011 -24.4998
3 1 15 -49.3882 46.5942
3 1 16 106.1674 76.6133
3 1 17 -64.9079 -2.9287
3 1 18 -71.6542 28.9000
3 1 19 -55.0718 -29.3689
3 1 20 62.7071 -26.7970
3 1 21 -2.6907 81.1833
3 1 22 -54.5826 56.9746
3 1 23 -6.4190 -31.0074
3 1 24 3.4100 -41.8198
3 1 25 -10.8081 24.9314
3 1 26 42.2917 -55.9441
3 1 27 55.0327 -2.4661
3 1 28 -110.8553 -3.6068
3 1 29 -32.2042 17.8804
3 1 30 14.0329 -68.7073
3 1 31 20.5406 24.3415
3 1 32 -21.7569 24.8114
3 1 33 -22.4091 6.3963
3 1 34 -13.7307 -92.7289
3 1 35 4.7947 -29.1280
3 1 36 21.4346 -0.7000
3 1 37 29.7679 -36.1231
3 1 38 -6.8274 -7.6026
3 1 39 -14.6141 -4.8039
3 1 40 17.7552 -26.2601
3 1 41 -11.9458 31.4917
3 1 42 60.7386 44.1452
3 1 43 -53.4019 47.9986
3 1 44 20.6882 8.8669
3 1 45 5.6512 -60.9885
3 1 46 6.7204 43.0600
3 1 47 3.5909 -36.8950
3 1 48 -9.1497 -5.1114
3 1 49 -12.7912 -10.8905
3 1 50 3.4005 -17.4333
3 1 51 -23.4627 2.9497
3 1 52 21.7545 -12.5101
3 1 53 -1.1737 2.6160
3 1 54 -15.9577 -12.4095
3 1 55 7.1319 -23.6130
3 1 56 -6.9703 -1.0427
3 1 57 12.5253 -0.3682
3 1 58 18.0170 16.5155
3 1 59 10.3000 7.2403
3 1 60 22.7975 1.2952
3 1 61 3.8935 -7.7369
3 1 62 -10.8303 -8.6496
3 1 63 -8.0923 5.5009
3 1 64 -3.2328 -2.1206
3 1 65 -15.3390 -5.7195
3 1 66 11.1672 0.1660
3 1 67 12.0284 -0.8805
3 3 0 -240.0633 -3.0861
3 3 1 -2.9416 132.5389
3 3 2 359.1820 105.5925
3 3 3 184.6879 253.9293
3 3 4 -122.0261 -49.9464
3 3 5 -215.1170 -66.4311
3 3 6 -345.2356 -332.4316
3 3 7 -152.6954 -333.0370
3 3 8 68.0731 16.2608
3 3 9 -22.4557 45.1325
3 3 10 -84.5798 85.2875
3 3 11 46.9675 -156.1206
3 3 12 179.9852 -58.3430
3 3 13 -5.2537 -159.4280
3 3 14 -39.0709 32.9362
3 3 15 -107.6179 -133.3806
3 3 16 129.0762 -27.3952
3 3 17 58.3553 -108.4713
3 3 18 -78.2065 93.4175
3 3 19 -41.7309 56.5723
3 3 20 20.6469 37.1354
3 3 21 -6.5071 -102.2015
3 3 22 37.5084 114.8994
3 3 23 -26.2648 80.7989
3 3 24 -68.1485 -12.3263
3 3 25 -10.2899 30.7899
3 3 26 30.6339 -72.2261
3 3 27 -9.9642 -13.0759
3 3 28 10.8123 63.4015
3 3 29 29.4298 -45.2920
3 3 30 -2.3797 -3.7361
3 3 31 16.4101 3.4416
3 3 32 33.4327 -17.2778
3 3 33 101.3077 18.8257
3 3 34 91.1857 42.2464
3 3 35 -2.2031 33.1680
3 3 36 -63.1620 51.2976
3 3 37 101.4255 18.4376
3 3 38 -35.2183 -57.0907
3 3 39 28.9170 79.4111
3 3 40 -2.7960 -5.5051
3 3 41 -77.6978 -5.5404
3 3 42 -12.2886 -23.5970
3 3 43 -0.1364 21.2206
3 3 44 57.5098 33.9820
3 3 45 -10.9755 -18.1512
3 3 46 -5.1279 -4.5695
3 3 47 14.5637 29.9560
3 3 48 19.4928 -4.4976
3 3 49 -7.2445 66.4201
3 3 50 -7.6960 -5.0500
3 3 51 5.2894 14.7267
3 3 52 -0.6137 -0.5297
3 3 53 -11.5499 5.8620
3 3 54 9.4846 -0.6811
3 3 55 -9.3232 12.6852
3 3 56 -37.6481 0.5166
3 3 57 -9.7641 -7.8855
3 3 58 9.8203 6.8506
3 3 59 10.8496 -4.6936
3 3 60 4.3122 7.3681
3 3 61 0.4919 1.0035
3 3 62 -19.7740 -7.1715
3 3 63 1.3335 3.3310
3 3 64 -4.7418 2.4142
3 3 65 5.1768 1.0319
3 3 66 -1.0611 13.5961
3 3 68 -4.1271 -3.7973
3 3 69 -6.5622 5.7190
3 5 0 259.3921 0.0200
3 5 1 151.9683 -12.1039
3 5 2 2.7222 -118.0047
3 5 3 -56.5756 -0.1627
3 5 4 75.4087 -14.1209
3 5 5 -177.5262 23.5415
3 5 6 19.7743 49.1214
3 5 7 -88.0076 193.5645
3 5 8 232.3269 31.7405
3 5 9 -12.9863 52.6953
3 5 10 57.5505 23.1239
3 5 11 31.6263 100.9386
3 5 12 171.0485 -13.2854
3 5 13 -146.9340 35.5716
3 5 14 13.5445 -52.8626
3 5 15 120.6609 -46.1863
3 5 16 -29.6026 -91.8869
3 5 17 124.5938 -22.8458
3 5 18 -67.3764 68.9490
3 5 19 14.7701 -21.7944
3 5 20 -10.6253 17.4389
3 5 21 -2.3664 -90.7931
3 5 22 -24.9862 41.3809
3 5 23 -62.5953 -51.2892
3 5 24 -51.3171 -93.6777
3 5 25 -37.8501 -205.1770
3 5 26 59.1889 -48.5494
3 5 27 -7.0949 79.9045
3 5 28 -19.2722 -57.7492
3 5 29 -43.7816 -36.9712
3 5 30 -13.0965 -46.3716
3 5 31 -134.1732 -90.9748
3 5 32 30.4983 -3.3433
3 5 33 -152.3838 -42.7018
3 5 34 -1.7354 -25.9852
3 5 35 15.1195 -36.4814
3 5 36 40.8264 71.1724
3 5 37 -26.5967 40.4763
3 5 38 26.6242 -21.8590
3 5 39 27.4185 -57.9038
3 5 40 14.7679 -9.4210
3 5 41 -18.5170 -14.0904
3 5 42 -17.8315 -2.6790
3 5 43 17.7512 0.9983
3 5 44 2.7095 13.3971
3 5 45 -19.2901 19.6600
3 5 46 13.0842 -18.6286
3 5 47 4.8012 19.8780
3 5 48 -9.6524 -24.3498
3 5 49 -5.5168 -1.9800
3 5 50 -17.7810 22.1781
3 5 51 -10.7338 6.9561
3 5 52 -10.4526 7.5916
3 5 53 12.0691 15.7427
3 5 54 7.6790 7.5257
3 5 55 4.6405 13.1657
3 5 56 20.4283 19.8401
3 5 57 25.8495 -11.5800
3 5 58 15.3120 -5.6236
3 5 59 -4.9346 -1.5369
3 5 60 8.7511 -1.3260
3 5 61 5.1182 -13.6821
3 5 62 -11.3335 -1.9250
3 5 63 10.7090 -1.7412
3 5 64 1.1182 -4.4671
3 5 65 -4.9163 -8.1677
3 5 66 2.3895 -4.5778
3 5 67 -3.1219 0.5275
3 5 68 -4.1381 -2.0571
3 5 69 -1.4680 1.3677
3 5 70 -9.3466 3.6005
3 7 0 12.8470 -4.0241
3 7 1 67.6676 -131.1686
3 7 2 -49.0091 22.0711
3 7 3 -105.8667 44.0780
3 7 4 -65.0629 49.1865
3 7 5 -93.7914 -19.2556
3 7 6 10.1937 -86.9720
3 7 7 -104.3461 -56.7997
3 7 8 42.9103 -70.3985
3 7 9 25.3486 172.7531
3 7 10 -48.3186 -10.0690
3 7 11 47.6875 -69.6205
3 7 12 15.9601 51.2487
3 7 13 16.6873 51.7833
3 7 14 -48.7303 -136.5033
3 7 15 40.2888 45.4299
3 7 16 34.9656 -35.9001
3 7 17 5.5486 54.3964
3 7 18 39.0852 1.6576
3 7 19 -10.6980 64.6623
3 7 20 -17.3868 49.6361
3 7 21 -41.0583 -44.0341
3 7 22 -46.0951 33.4533
3 7 23 -62.1041 -105.4238
3 7 24 15.5578 -45.2948
3 7 25 -31.8429 -11.4653
3 7 26 -37.7831 16.2078
3 7 27 0.2903 -15.6384
3 7 28 38.3531 -31.6050
3 7 29 47.5640 -43.0563
3 7 30 -37.1262 82.4020
3 7 31 -25.3110 -31.4233
3 7 32 -54.9007 -15.7929
3 7 33 -44.4341 1.6906
3 7 34 -3.0326 24.8656
3 7 35 -9.0195 -1.5411
3 7 36 27.0593 15.9015
3 7 37 -125.1263 66.7854
3 7 38 -10.5948 0.9133
3 7 39 4.3504 -17.3315
3 7 40 -1.6067 -10.6243
3 7 41 -62.5805 -53.3082
3 7 42 -22.3853 -30.4549
3 7 43 -8.0334 6.3295
3 7 44 14.5465 -39.2913
3 7 45 -1.1318 -29.0244
3 7 46 8.9806 32.7001
3 7 47 41.0512 8.6115
3 7 48 23.0745 0.6397
3 7 49 2.0744 -31.0256
3 7 50 28.5671 41.1943
3 7 51 15.9894 5.8488
3 7 52 -5.8186 -12.4489
3 7 53 15.2744 7.1408
3 7 54 -9.4553 -3.1182
3 7 55 28.9544 -4.6125
3 7 56 9.6923 -0.9987
3 7 57 2.3657 8.8529
3 7 58 10.3774 -9.6516
3 7 59 4.5087 0.6651
3 7 60 -5.5570 6.3370
3 7 61 10.7832 1.3790
3 7 62 6.4009 2.6834
3 7 63 -9.1410 -7.3393
3 7 64 0.7688 -1.7544
3 7 65 2.1395 -0.0151
3 7 66 3.5247 -0.8072
3 7 67 -9.0057 7.3038
3 7 68 -0.3768 -1.0412
3 7 69 13.3762 -10.4121
3 7 70 10.8561 -6.7310
3 7 71 -2.3097 13.8115
3 7 72 -1.6219 -7.1861
3 9 0 -82.3438 3.2022
3 9 1 34.7142 16.8554
3 9 2 -49.1767 61.6980
3 9 3 -76.5410 29.7791
3 9 4 53.2055 127.4457
3 9 5 71.6029 23.1568
3 9 6 -101.4099 -12.8077
3 9 7 38.7955 -48.9423
3 9 8 59.7425 -33.7739
3 9 9 88.2385 -56.1922
3 9 10 -21.8737 5.9228
3 9 11 -17.6434 -83.0380
3 9 12 7.3457 35.0512
3 9 13 0.9650 27.5555
3 9 14 -23.6302 -1.6814
3 9 15 8.0570 1.8608
3 9 16 -13.6946 39.9251
3 9 17 -4.7651 51.6105
3 9 18 51.8605 23.7244
3 9 19 40.6966 4.1177
3 9 20 1.4231 6.7837
3 9 21 -0.2586 -108.2756
3 9 22 -43.3211 77.0652
3 9 23 30.5072 -13.5105
3 9 24 3.4129 -52.2410
3 9 25 -34.7008 12.9540
3 9 26 -21.5846 -30.0574
3 9 27 -45.4526 -66.6833
3 9 28 -74.5653 35.0529
3 9 29 51.7392 45.2843
3 9 30 20.4921 12.1295
3 9 31 33.8372 18.7456
3 9 32 34.0090 12.9164
3 9 33 -0.6197 12.9253
3 9 34 -14.4634 35.8364
3 9 35 7.8168 18.2442
3 9 36 -41.5736 -17.2392
3 9 37 -2.1922 -7.7072
3 9 38 10.6373 40.5291
3 9 39 57.5716 -8.3932
3 9 40 -21.4460 -0.7256
3 9 41 -21.0428 -45.9897
3 9 42 36.6781 -8.7784
3 9 43 14.0771 -10.2253
3 9 44 -57.8596 -8.7064
3 9 45 -16.6930 -4.6440
3 9 46 -10.4404 -15.1421
3 9 47 -26.0248 -50.0738
3 9 48 10.9061 35.6703
3 9 49 12.7326 7.9696
3 9 50 -0.4049 4.1246
3 9 51 -6.1569 -23.0050
3 9 52 -30.6264 0.0046
3 9 53 -13.7562 4.2221
3 9 54 12.7754 -10.7219
3 9 55 -7.1077 7.1057
3 9 56 8.0563 -23.7283
3 9 57 -4.7887 -4.5627
3 9 58 2.5458 -4.8936
3 9 59 -4.9596 -0.8093
3 9 60 -6.8149 8.5066
3 9 61 6.2807 2.9593
3 9 62 5.7001 -0.0085
3 9 63 11.2835 3.7615
3 9 64 -0.8799 -6.8830
3 9 65 -8.1705 -8.0906
3 9 66 2.1792 -14.4404
3 9 67 -5.4485 -5.2903
3 9 68 1.5041 2.7654
3 9 69 10.1835 4.8907
3 11 0 106.4857 5.1033
3 11 1 15.2470 -46.4894
3 11 2 -92.7421 -19.1732
3 11 3 -28.1298 23.2356
3 11 4 -28.3843 10.7455
3 11 5 69.2657 11.2687
3 11 6 -9.6843 12.3265
3 11 7 28.7014 32.8648
3 11 8 15.4559 -54.5866
3 11 9 -80.4007 27.2381
3 11 10 20.9542 -104.6565
3 11 11 -9.6834 -13.8988
3 11 12 -19.4195 -86.7877
3 11 13 -59.4126 -14.2938
3 11 14 17.3257 -18.2311
3 11 15 34.8060 18.3027
3 11 16 -54.8985 -31.1464
3 11 17 14.8843 -24.1881
3 11 18 -33.1410 41.4079
3 11 19 79.3330 -29.8336
3 11 20 -28.8315 -19.7033
3 11 21 17.3096 6.2633
3 11 22 -35.2510 19.2495
3 11 23 10.9209 61.7238
3 11 24 2.2889 -36.0108
3 11 25 -29.4070 41.2639
3 11 26 -117.7735 62.3503
3 11 27 14.7391 -3.9806
3 11 28 -23.7314 -27.6284
3 11 29 -41.6097 55.5448
3 11 30 -61.9181 18.6530
3 11 31 2.9914 -3.2973
3 11 32 65.9056 52.1955
3 11 33 -20.5199 7.4322
3 11 34 -2.0302 -31.5569
3 11 35 -57.9346 -64.1792
3 11 36 -5.6302 10.4907
3 11 37 -40.0179 -35.0828
3 11 38 -0.2340 -18.0738
3 11 39 -18.2210 5.1182
3 11 40 27.5680 -23.3254
3 11 41 -16.4410 -46.2333
3 11 42 -10.0140 -49.0014
3 11 43 -5.3380 9.5843
3 11 44 4.4059 -1.2916
3 11 45 25.9379 35.0276
3 11 46 25.4404 -7.0065
3 11 47 -18.5944 14.7536
3 11 48 -36.0114 -23.5599
3 11 49 48.7493 -9.0888
3 11 50 28.3926 32.5773
3 11 51 17.4896 11.3483
3 11 52 -20.0910 17.2542
3 11 53 4.5269 -12.6992
3 11 54 21.6390 -16.8620
3 11 55 -15.3093 -3.2385
3 11 56 16.8557 18.2351
3 11 57 10.3442 -8.1930
3 11 58 -7.2062 5.0261
3 11 59 1.7521 3.6363
3 11 60 -15.9269 -10.6070
3 11 61 -4.9637 4.0364
3 11 62 -4.0028 5.9219
3 11 63 -0.0522 -2.2727
3 11 64 6.5165 -10.9896
3 11 65 -1.1656 0.8473
3 11 66 -4.9611 7.0053
3 11 67 2.3354 0.1892
3 11 68 -35.4006 -27.1475
3 11 69 -1.9673 1.0848
3 11 70 8.7466 8.8122
3 11 71 -3.1308 2.8034
3 11 72 -5.6698 -4.8032
3 13 0 -35.1349 -3.2551
3 13 1 20.9859 10.3903
3 13 2 36.7236 -1.4408
3 13 3 -9.0417 -47.6375
3 13 4 -25.2117 -5.0505
3 13 5 -20.5827 -2.4672
3 13 6 0.7969 23.6372
3 13 7 53.2791 -37.1156
3 13 8 34.3808 5.4846
3 13 9 27.1006 -10.4166
3 13 10 -0.9599 -30.5327
3 13 11 -20.6399 56.3894
3 13 12 51.4984 -73.1444
3 13 13 26.8618 -48.2038
3 13 14 1.5509 -51.3938
3 13 15 29.8743 -7.2565
3 13 16 -26.9698 80.4035
3 13 17 87.9434 -84.2334
3 13 18 9.3582 -20.3602
3 13 19 -8.6089 53.6037
3 13 20 -1.7201 39.0290
3 13 21 93.8068 -29.7824
3 13 22 9.1231 -25.3019
3 13 23 8.0375 -13.3497
3 13 24 -0.8020 65.6724
3 13 25 -4.2764 -93.3389
3 13 26 -31.3619 -23.1879
3 13 27 -27.3989 4.3825
3 13 28 -8.1340 38.2111
3 13 29 13.2491 -23.5798
3 13 30 3.1578 63.6615
3 13 31 8.5120 19.9679
3 13 32 -67.7757 46.2388
3 13 33 13.4792 -42.7609
3 13 34 10.0135 31.1766
3 13 35 9.9111 5.2774
3 13 36 18.5455 -5.4403
3 13 37 12.9094 -9.6859
3 13 38 -25.5171 -7.4498
3 13 39 3.0437 4.2208
3 13 40 11.5386 -29.6136
3 13 41 17.1995 -34.0121
3 13 42 -28.5765 -26.9839
3 13 43 18.5474 3.5724
3 13 44 -6.9055 -9.6928
3 13 45 19.4863 12.6699
3 13 46 -12.5690 4.5228
3 13 47 29.6942 18.4570
3 13 48 18.8719 -27.9090
3 13 49 6.2717 1.2315
3 13 50 12.4059 -3.2898
3 13 51 2.7837 -1.0136
3 13 52 -1.5621 -13.7177
3 13 53 -14.2086 -1.0640
3 13 54 8.8057 -0.5323
3 13 55 12.6452 -0.0196
3 13 56 4.9686 -21.2715
3 13 57 8.5461 -1.4488
3 13 58 3.7795 -0.0906
3 13 59 -3.7426 -5.3028
3 13 60 2.2310 -1.6538
3 13 61 -5.5100 0.1260
3 13 62 -0.8680 0.8679
3 13 63 -0.6586 -2.2174
3 13 64 0.5711 3.1088
3 13 65 8.7231 0.2513
3 13 66 -2.0842 1.4632
3 13 67 3.9192 1.4484
3 13 68 -3.0328 -4.5179
3 13 69 -2.4758 -6.1712
3 13 70 -7.2223 -0.0009
3 13 71 6.5501 1.3623
3 15 0 -15.7906 -2.7092
3 15 1 -34.5605 -23.7248
3 15 2 48.3774 -36.3387
3 15 3 -27.6530 53.1826
3 15 4 7.3862 -0.1080
3 15 5 118.4113 -93.2592
3 15 6 -23.7453 54.9197
3 15 7 14.1348 -3.1729
3 15 8 -23.2420 18.9740
3 15 9 11.9422 -4.5205
3 15 10 -9.1793 27.6216
3 15 11 -14.1318 41.6828
3 15 12 -8.4260 58.8182
3 15 13 -43.2744 -25.9994
3 15 14 -17.4840 23.4707
3 15 15 -8.6079 32.3661
3 15 16 -23.4683 25.7818
3 15 17 -35.2911 4.1554
3 15 18 12.9872 -19.0098
3 15 19 -13.6982 28.6124
3 15 20 21.2004 13.7847
3 15 21 -16.2035 -1.2440
3 15 22 21.8076 0.1363
3 15 23 25.5970 -5.9846
3 15 24 31.3119 19.9390
3 15 25 -8.6967 -21.5112
3 15 26 -39.1061 -48.7969
3 15 27 22.2728 -1.6415
3 15 28 45.0434 50.1114
3 15 29 -1.4427 -27.9181
3 15 30 66.2937 21.0702
3 15 31 -0.1676 -5.2130
3 15 32 -12.1568 -26.9093
3 15 33 7.0504 -11.4394
3 15 34 5.6748 2.9694
3 15 35 64.6558 0.2962
3 15 36 -5.2549 9.8353
3 15 37 -19.0853 -2.3535
3 15 38 22.6517 -24.5172
3 15 39 -17.6456 -15.4518
3 15 40 4.9403 -17.3918
3 15 41 26.1220 22.5623
3 15 42 18.3694 -10.0535
3 15 43 14.9568 16.6569
3 15 44 -4.7110 17.9379
3 15 45 5.9169 20.0336
3 15 46 19.3290 -7.1019
3 15 47 17.2764 -13.6345
3 15 48 8.0027 12.7683
3 15 49 8.5784 -6.2732
3 15 50 -3.1081 11.3666
3 15 51 4.2164 10.9359
3 15 52 -10.8434 12.0830
3 15 53 -1.4874 -4.3367
3 15 54 9.7129 19.2137
3 15 55 9.5397 6.3743
3 15 56 5.3876 -6.2215
3 15 57 -0.6012 1.8280
3 15 58 1.5222 5.9870
3 15 59 8.1744 11.7515
3 15 60 -3.6924 2.3950
3 15 61 2.0614 1.5185
3 15 62 -7.1431 1.7091
3 15 63 4.1663 29.4896
3 15 65 21.9404 -3.0595
3 15 66 -17.5032 13.8586
3 15 67 -1.5207 29.4763
3 15 68 -7.9492 29.3532
3 15 69 18.5691 -12.4070
3 17 0 13.9574 -0.2764
3 17 1 -10.5417 20.6728
3 17 2 -9.1871 8.1190
3 17 3 -18.3656 -32.4838
3 17 4 -3.2508 3.2358
3 17 5 -48.6766 -24.5573
3 17 6 5.2076 9.2276
3 17 7 1.5290 35.2021
3 17 8 -46.0100 -6.3923
3 17 9 -25.8114 -2.7548
3 17 10 -23.0852 -0.0893
3 17 11 -4.5249 14.4593
3 17 12 -38.4132 -13.8485
3 17 13 -1.9041 -0.3452
3 17 14 7.4701 -23.3178
3 17 15 50.7777 -67.9482
3 17 16 64.3427 -37.8118
3 17 17 -8.6395 -2.3612
3 17 18 -14.8424 25.2896
3 17 19 10.4123 -10.8789
3 17 20 53.3457 15.8386
3 17 21 -61.8963 24.5377
3 17 22 17.6169 12.6952
3 17 23 -9.6334 11.9386
3 17 24 -10.0631 2.0780
3 17 25 66.4339 -13.5841
3 17 26 -62.4260 -34.8554
3 17 27 21.9573 26.4657
3 17 28 73.4619 -34.6794
3 17 29 -15.1859 32.4125
3 17 30 54.2329 -33.5899
3 17 31 16.0671 -18.6965
3 17 32 37.5337 -40.4036
3 17 33 3.7492 4.5758
3 17 34 -0.5806 -29.6587
3 17 35 -17.5828 -4.6495
3 17 36 -9.5353 0.1888
3 17 37 -33.9917 12.4343
3 17 38 -26.6799 -14.9508
3 17 39 3.0573 -42.0631
3 17 40 9.0560 7.0837
3 17 41 7.7465 6.0616
3 17 42 -2.0711 -19.3920
3 17 43 6.1081 -6.9887
3 17 44 14.5319 -12.1671
3 17 45 -3.3231 12.6927
3 17 46 -26.5333 -11.3099
3 17 47 -6.1804 -23.0995
3 17 48 12.8652 -27.2288
3 17 49 9.1437 -21.0687
3 17 50 2.1458 8.7503
3 17 51 11.8159 16.2115
3 17 52 3.8974 8.9751
3 17 53 17.1181 -0.2816
3 17 54 -23.5414 3.1380
3 17 55 -12.7784 6.3920
3 17 56 -12.1858 6.2408
3 17 57 1.7865 -17.8548
3 17 58 11.7069 11.2777
3 17 59 3.5870 -1.3261
3 17 60 3.3018 -7.7054
3 17 61 3.0563 -15.0257
3 17 62 2.3372 9.6683
3 17 63 14.2839 -16.3064
3 17 64 -13.7469 17.2074
3 17 65 -22.9812 -17.7833
3 17 66 4.5842 -1.8690
3 19 0 -5.4713 2.1752
3 19 1 -5.6382 -7.8411
3 19 2 14.8008 13.4290
3 19 3 -74.7035 4.9713
3 19 4 -17.1885 -3.2999
3 19 5 -2.5216 3.9501
3 19 6 34.6796 8.9054
3 19 7 -11.7299 -13.6430
3 19 8 -73.1632 -19.5693
3 19 9 5.6586 -3.6343
3 19 10 2.2118 2.9351
3 19 11 19.8213 13.8089
3 19 12 6.8481 -3.4151
3 19 13 11.8528 6.1788
3 19 14 12.9915 -2.2663
3 19 15 -10.4632 -2.6170
3 19 16 16.6092 -3.7537
3 19 17 -8.4838 4.6122
3 19 18 38.2983 -38.7410
3 19 19 -18.5934 5.1949
3 19 20 64.5198 -75.1934
3 19 21 -39.6755 52.1114
3 19 22 8.0112 -29.5032
3 19 23 61.6162 48.6974
3 19 24 5.2372 -44.4242
3 19 25 -25.0115 18.9776
3 19 26 20.7615 -2.1309
3 19 27 22.6397 -35.8800
3 19 28 22.1440 -16.1941
3 19 29 -11.5211 5.2152
3 19 30 -26.5262 -4.6671
3 19 31 17.0850 -4.4039
3 19 32 -11.6808 0.7187
3 19 33 5.9995 -6.8328
3 19 34 10.4979 33.5600
3 19 35 -2.5596 -27.2142
3 19 36 -2.6983 8.8979
3 19 37 14.6561 22.7271
3 19 38 -28.6075 -5.0983
3 19 39 -11.6985 -21.3262
3 19 40 10.6938 -5.9166
3 19 41 -7.9607 -22.9494
3 19 42 0.2200 20.9513
3 19 43 -4.5218 1.6282
3 19 44 1.8574 22.5863
3 19 45 26.9431 9.2875
3 19 46 3.3093 6.6432
3 19 47 -4.9242 5.5532
3 19 48 5.5796 -11.2862
3 19 49 7.0746 -7.2874
3 19 50 5.0022 10.5743
3 19 51 5.6936 1.2223
3 19 52 1.7469 -18.4262
3 19 53 7.4786 -6.5133
3 19 54 8.7397 -0.9741
3 19 55 -4.6256 -7.5002
3 19 56 0.4573 1.9706
3 19 57 -2.0032 0.5915
3 19 58 0.2110 23.4589
3 19 59 -10.7001 8.3902
3 19 60 -1.7973 5.3624
3 19 61 -5.8330 -5.3722
3 19 63 -23.7663 -12.6051
3 19 64 3.9718 24.3424
3 19 65 -16.3269 -1.1978
3 21 0 10.0384 1.0895
3 21 1 -16.5271 -13.4697
3 21 2 21.9849 7.3969
3 21 3 -12.1165 -6.4357
3 21 4 31.7721 -7.6895
3 21 5 -14.7051 1.6024
3 21 6 -31.5060 43.8402
3 21 7 13.9691 16.3260
3 21 8 32.2404 -23.4616
3 21 9 -17.4278 -12.0053
3 21 10 -30.0544 23.7954
3 21 11 -1.0403 35.5412
3 21 12 17.6216 2.2032
3 21 13 -1.9439 -12.7983
3 21 14 41.6065 -15.5367
3 21 15 11.2592 -26.0148
3 21 16 10.5887 4.9694
3 21 17 -15.4994 -9.0361
3 21 18 2.9359 23.3960
3 21 19 -38.9645 -12.6595
3 21 20 -12.7376 0.6420
3 21 21 6.2982 5.5352
3 21 22 -4.5347 -10.0433
3 21 23 25.2217 12.2597
3 21 24 12.6382 -39.9415
3 21 25 28.7647 -0.7169
3 21 26 19.5804 -25.3741
3 21 27 -3.0957 37.9544
3 21 28 -30.7517 -4.2981
3 21 29 38.4070 18.4591
3 21 30 19.3064 -9.3564
3 21 31 -21.1518 -9.1672
3 21 32 39.1998 -28.2435
3 21 33 8.4733 26.7206
3 21 34 -33.7663 40.3303
3 21 35 8.5408 26.7187
3 21 36 -4.2148 -8.7962
3 21 37 -9.1434 3.7594
3 21 38 -1.5591 -29.0188
3 21 39 -15.9495 26.4261
3 21 40 1.7462 12.3990
3 21 41 16.0760 -4.2797
3 21 42 -13.1330 22.1747
3 21 43 35.1505 -14.3264
3 21 44 -5.2651 -4.8421
3 21 45 5.6781 16.5492
3 21 46 11.2891 -1.8295
3 21 47 4.0697 -11.6599
3 21 48 1.1721 12.7403
3 21 49 10.4885 -13.1621
3 21 50 14.5395 -11.1630
3 21 51 -3.5701 1.2798
3 21 52 -6.5972 -0.2293
3 21 53 -6.7923 12.2475
3 21 54 -4.7354 -2.7911
3 21 55 6.5869 3.0407
3 21 56 -5.5040 12.3259
3 21 57 -20.4249 -15.1193
3 21 58 15.7139 -14.2601
3 21 60 17.7488 4.4440
3 21 61 -22.4137 18.8782
3 21 62 -11.5362 4.6672
3 23 0 -20.4624 -1.6123
3 23 1 -0.1348 7.1433
3 23 2 -16.1231 -10.4713
3 23 3 -18.0619 -9.5432
3 23 4 -7.9212 -40.4261
3 23 5 43.0977 1.7906
3 23 6 9.2174 12.2478
3 23 7 -9.7639 -14.8185
3 23 8 21.4105 -19.1481
3 23 9 -5.1342 -10.0987
3 23 10 3.9360 7.3068
3 23 11 -1.0440 16.4729
3 23 12 -19.4438 4.1413
3 23 13 9.8920 -16.4388
3 23 14 -17.1743 -1.4447
3 23 15 -8.8775 -3.5779
3 23 16 17.7787 -21.3652
3 23 17 -15.8855 21.9991
3 23 18 7.7807 12.7982
3 23 19 -8.8678 36.1548
3 23 20 9.7648 76.0506
3 23 21 -10.3954 -0.8826
3 23 22 48.6665 27.3176
3 23 23 -37.1101 13.0389
3 23 24 -5.0101 -46.6087
3 23 25 13.8062 47.2376
3 23 26 -33.0352 10.5821
3 23 27 12.2632 12.1157
3 23 28 20.1109 -29.0382
3 23 29 12.4611 1.7713
3 23 30 3.2794 -0.2631
3 23 31 18.7852 -15.4157
3 23 32 -27.5286 -2.7275
3 23 33 69.2903 -27.7632
3 23 34 -0.5385 6.0232
3 23 35 10.7577 -18.3516
3 23 36 -4.6895 8.5792
3 23 37 21.7899 -32.6263
3 23 38 -2.2683 -0.5622
3 23 39 -10.7247 11.0156
3 23 40 -1.9813 -2.4656
3 23 41 11.2225 -12.6094
3 23 42 5.0417 -10.1075
3 23 43 0.4825 29.4238
3 23 44 15.1655 6.7681
3 23 45 7.7515 -17.9366
3 23 46 -0.0998 -24.4250
3 23 47 -5.8512 15.3914
3 23 48 7.5687 -6.8793
3 23 49 -8.6155 4.1830
3 23 50 -4.2185 7.6397
3 23 51 34.3171 -1.1717
3 23 52 -10.6628 -5.4210
3 23 57 15.7486 11.7968
3 23 58 -9.0745 8.1931
3 23 59 3.0304 -7.1997
3 25 0 -5.1578 0.5195
3 25 1 -10.1153 -50.6772
3 25 2 -23.1834 1.6539
3 25 3 24.7200 -22.5134
3 25 4 -5.4086 -17.1322
3 25 5 -0.3885 5.3142
3 25 6 20.5926 -9.9061
3 25 7 7.8833 22.4093
3 25 8 -16.6873 -3.2304
3 25 9 17.9561 1.6473
3 25 10 -27.8614 32.3988
3 25 11 -20.8347 -8.1221
3 25 12 -11.9235 -22.4367
3 25 13 -1.0711 -13.7506
3 25 14 56.9421 -5.5908
3 25 15 4.3955 -27.1805
3 25 16 -18.0103 -35.6093
3 25 17 4.1045 9.2176
3 25 18 17.2416 12.2232
3 25 19 11.1894 23.1905
3 25 20 -7.8628 -27.7312
3 25 21 -13.4623 37.2131
3 25 22 20.7391 25.1311
3 25 23 10.5223 14.8412
3 25 24 -12.7738 -30.9233
3 25 25 -26.8704 -7.7527
3 25 26 21.8708 11.3742
3 25 27 -21.7066 -6.5752
3 25 28 13.5229 -3.8180
3 25 29 -14.4982 -7.2061
3 25 30 13.0561 55.1803
3 25 31 15.6549 -6.4409
3 25 32 -4.2801 12.4385
3 25 33 -21.2206 -2.9016
3 25 34 -5.9591 37.9604
3 25 35 -0.9848 8.4246
3 25 36 22.5155 5.3706
3 25 37 15.7644 5.2761
3 25 38 26.6888 -0.2857
3 25 39 1.8630 5.4396
3 25 40 11.7619 2.6564
3 25 41 -12.0779 -13.3021
3 25 42 7.0463 -12.0728
3 25 43 10.5039 -7.7726
3 25 44 9.4131 5.7712
3 25 45 4.7487 -12.8187
3 25 46 10.5267 24.1763
3 25 47 16.1853 0.0291
3 25 48 5.5227 9.4843
3 25 49 21.0413 -3.5164
3 27 0 -1.7434 0.0518
3 27 1 -0.2785 -48.1686
3 27 2 2.9005 -6.6247
3 27 3 -60.9444 2.8567
3 27 4 52.0376 3.3064
3 27 5 2.7502 4.0998
3 27 6 -3.3482 -26.5746
3 27 7 22.1898 -8.5002
3 27 8 -30.5170 -42.4035
3 27 9 -4.9682 33.2434
3 27 10 -5.4801 7.6773
3 27 11 -20.8100 32.4507
3 27 12 5.1978 -4.5159
3 27 13 -11.1610 -4.8364
3 27 14 11.5378 -9.3556
3 27 15 -4.6351 -4.0839
3 27 16 -5.9988 0.5293
3 27 17 5.8633 3.3013
3 27 18 -9.3633 4.9303
3 27 19 4.2479 -6.0438
3 27 20 5.4457 16.3363
3 27 21 -9.8293 2.6316
3 27 22 -12.5070 6.7817
3 27 23 29.3915 -0.0848
3 27 24 -13.4641 -9.5074
3 27 25 15.3414 -7.7464
3 27 26 -1.7315 33.0155
3 27 27 -4.3847 0.6193
3 27 28 5.5601 -1.9538
3 27 29 -9.4329 0.0754
3 27 30 -16.6773 1.6233
3 27 31 -24.9499 20.3415
3 27 32 2.2340 3.3967
3 27 33 -32.9588 37.7842
3 27 34 1.4731 13.8809
3 27 35 -12.2239 9.3540
3 27 36 -0.6699 -4.2265
3 27 37 -6.4259 1.9380
3 27 38 -14.1334 6.1121
3 27 39 -0.5188 7.4437
3 27 40 7.4977 -20.9901
3 27 41 2.2801 9.1692
3 27 42 -6.6695 -11.9142
3 27 43 -1.5577 -16.8792
3 27 44 -13.4238 30.0286
3 27 48 -6.5396 18.7484
3 29 0 0.0400 -1.2681
3 29 1 -6.9251 50.4052
3 29 2 -38.6199 -7.6523
3 29 3 2.4329 -9.4767
3 29 4 4.0041 48.6995
3 29 5 21.8753 -13.4532
3 29 6 -8.0168 7.7943
3 29 7 -4.5670 -30.8638
3 29 8 25.1623 -6.7723
3 29 9 -10.3278 -7.0600
3 29 10 22.2318 6.4183
3 29 11 -19.4221 -22.7668
3 29 12 54.4945 -44.9320
3 29 13 2.9072 -5.6043
3 29 14 22.8982 -9.9221
3 29 15 -0.4754 7.2075
3 29 16 1.7843 -15.4021
3 29 17 6.3415 -3.3934
3 29 18 7.3242 5.7066
3 29 19 10.8843 -9.3412
3 29 20 -8.0048 -9.9752
3 29 21 5.7529 -16.9883
3 29 22 4.8032 23.2835
3 29 23 2.0661 8.5869
3 29 24 -10.5885 15.0561
3 29 25 -10.4819 6.9051
3 29 26 -1.9383 22.0043
3 29 27 3.8123 12.5450
3 29 28 -11.0093 -8.9935
3 29 29 5.1208 -0.0031
3 29 30 7.1703 13.8060
3 29 31 -18.3630 15.4830
3 29 32 5.7642 -7.1068
3 29 33 1.9096 -15.6209
3 29 34 6.8379 24.3724
3 29 35 -2.8897 -8.9501
3 29 36 -8.8234 4.5208
3 29 37 8.5466 -15.2053
3 29 38 5.5718 -1.8438
3 29 39 -10.4018 5.5359
3 29 40 -0.1318 -3.2027
3 29 41 0.3322 -11.3786
3 29 42 -11.0885 16.5581
3 31 0 3.1983 0.1651
3 31 1 39.2363 11.6809
3 31 2 30.0069 9.8748
3 31 3 10.9365 -23.3542
3 31 4 27.2831 -4.8793
3 31 5 -4.6847 -7.2595
3 31 6 9.8188 19.6021
3 31 7 4.6855 17.7461
3 31 8 7.7112 1.3636
3 31 9 39.1526 0.2638
3 31 10 15.6288 24.4662
3 31 11 -16.1703 22.9195
3 31 12 14.9508 -0.5359
3 31 13 -6.7022 -8.4721
3 31 14 15.2968 20.9190
3 31 15 8.2442 -21.2871
3 31 16 14.6915 12.5957
3 31 17 -22.6670 -21.4559
3 31 18 3.4115 -13.0158
3 31 19 9.3832 -14.3670
3 31 20 25.6895 1.2758
3 31 21 -8.4304 -26.9590
3 31 22 16.3227 -19.5796
3 31 23 -1.5297 0.7932
3 31 24 1.2913 4.3105
3 31 25 -1.1301 6.4166
3 31 26 -3.0944 15.8286
3 31 27 -2.3823 7.2100
3 31 28 -12.1410 11.0712
3 31 29 6.2398 4.2146
3 31 30 9.6399 15.9446
3 31 31 -4.0284 -7.5448
3 31 32 1.7042 -14.8432
3 31 33 10.5217 -3.8254
3 31 34 -5.8247 -0.1045
3 31 35 2.8819 -16.3856
3 31 36 -13.1395 -4.6879
3 31 37 14.5794 -10.7399
3 33 0 -4.7801 1.8193
3 33 1 -4.5538 3.8733
3 33 2 1.1456 -11.4686
3 33 3 -22.4035 8.7025
3 33 4 5.9222 22.0522
3 33 5 -15.2123 13.8750
3 33 6 -20.2358 13.0871
3 33 7 -30.5773 13.8404
3 33 8 -16.1736 -16.1413
3 33 9 23.1220 28.7298
3 33 10 -14.0102 -3.5626
3 33 11 14.0868 -1.1335
3 33 12 -1.5052 -1.4220
3 33 13 -8.7188 -8.7430
3 33 14 -5.9475 6.4231
3 33 15 -10.0150 8.9611
3 33 16 -8.0616 1.9093
3 33 17 -19.0757 -4.3576
3 33 18 -3.0324 3.8924
3 33 19 -0.5790 7.0290
3 33 20 8.0177 0.3240
3 33 21 -11.7494 4.9282
3 33 22 10.4457 -4.0527
3 33 23 0.7892 13.8610
3 33 24 18.5979 -2.6292
3 33 25 -2.0153 7.5639
3 33 26 -13.3189 7.9199
3 33 27 -4.4874 5.0700
3 33 28 -10.0056 6.8705
3 33 29 -0.4091 -7.7834
3 33 30 11.3651 9.6346
3 33 31 8.1868 13.4968
3 33 32 -28.5340 -7.8705
3 33 33 15.6455 -13.8003
3 35 0 -25.1241 -0.1732
3 35 1 11.9039 -5.7179
3 35 2 -6.9373 -1.4437
3 35 3 -8.0582 -19.8377
3 35 4 11.1508 0.5921
3 35 5 -0.8150 -9.4203
3 35 6 12.0276 -1.9055
3 35 7 -7.3291 6.9197
3 35 8 -11.1682 -12.4232
3 35 9 12.7822 -7.1594
3 35 10 29.9414 5.3504
3 35 11 -8.3754 -11.4917
3 35 12 -1.1803 -22.5392
3 35 13 -6.3355 -3.5892
3 35 14 10.8269 2.8355
3 35 15 10.9394 -5.7600
3 35 16 -17.6661 -0.0808
3 35 17 2.7260 -3.3543
3 35 18 -2.1207 11.5442
3 35 19 0.8110 1.7377
3 35 20 -9.9208 5.4739
3 35 21 13.2239 -0.2075
3 35 22 13.0457 -8.3712
3 35 23 -8.1137 8.5085
3 35 24 -5.8722 2.0348
3 37 0 4.4956 -1.6500
3 37 1 -5.2275 -2.3064
3 37 2 10.8649 -1.6375
3 37 3 -10.6215 -20.4483
3 37 4 22.3047 1.7688
3 37 5 -11.7078 -10.8207
4 0 0 321.0314 1.6236
4 0 1 -0.2786 -248.3734
4 0 2 115.5735 0.2398
4 0 3 -0.2242 111.1434
4 0 4 -126.1376 -0.9027
4 0 5 -0.7342 -59.2140
4 0 6 89.4812 0.8656
4 0 7 -1.1051 -101.9955
4 0 8 -145.1589 -1.9450
4 0 9 1.5501 84.8203
4 0 10 60.6912 -0.4770
4 0 11 1.3095 21.9568
4 0 12 96.9287 4.4326
4 0 13 -0.9523 -29.9607
4 0 14 -15.6764 -0.4994
4 0 15 -1.2461 -16.0044
4 0 16 243.6833 -4.7803
4 0 17 0.7732 60.8769
4 0 18 -15.0532 1.1163
4 0 19 0.2499 79.7428
4 0 20 -104.7838 3.5206
4 0 21 0.0124 -59.6235
4 0 22 30.2952 -1.2933
4 0 23 0.5883 -24.3865
4 0 24 9.8742 -1.2946
4 0 25 -1.0600 55.4963
4 0 26 -41.2068 0.7405
4 0 27 -1.2268 -25.0242
4 0 28 68.1811 -0.3219
4 0 29 1.8502 30.3236
4 0 30 69.4680 -0.2089
4 0 31 1.2188 12.1091
4 0 32 62.6402 0.8020
4 0 33 -2.3844 13.8318
4 0 34 -0.7658 0.0412
4 0 35 -0.9584 17.1518
4 0 36 -4.4938 -0.5682
4 0 37 2.5901 -14.6994
4 0 38 4.8275 -0.1801
4 0 39 0.5609 -2.9371
4 0 40 -1.5533 0.1376
4 0 41 -2.2903 -20.0985
4 0 42 -4.8824 0.1611
4 0 43 -0.0925 -4.0219
4 0 44 2.9280 -0.1922
4 0 45 1.7000 2.4832
4 0 46 -20.3700 0.0213
4 0 47 -0.1240 15.0670
4 0 48 -14.6099 0.5354
4 0 49 -1.0248 -0.2042
4 0 50 -2.4260 -0.3977
4 0 51 0.0765 -11.7985
4 0 52 8.3036 -0.7453
4 0 53 0.3610 16.1534
4 0 54 -14.1648 0.6982
4 0 55 -0.0112 34.5697
4 0 56 -2.5358 0.7617
4 0 57 0.1099 5.7460
4 0 58 5.3519 -0.8026
4 0 59 -0.0705 -13.9903
4 0 60 -4.6616 -0.5239
4 0 61 -0.3217 1.6891
4 0 62 -8.8055 0.6528
4 0 63 0.1086 22.7511
4 0 64 8.4162 0.2331
4 0 65 0.3915 23.0667
4 0 66 -8.1778 -0.3770
4 0 67 -0.0646 -3.4606
4 2 0 -35.4638 -0.8020
4 2 1 264.5053 372.2184
4 2 2 -107.1943 -102.2209
4 2 3 31.1985 -56.4731
4 2 4 -37.6200 210.7339
4 2 5 22.6407 92.0468
4 2 6 -64.5376 90.6366
4 2 7 81.6478 55.5149
4 2 8 73.2214 20.0643
4 2 9 25.4050 82.6938
4 2 10 212.3805 77.5005
4 2 11 -46.6517 -145.0019
4 2 12 -15.8356 46.0436
4 2 13 11.9475 -92.1604
4 2 14 -157.4682 70.3934
4 2 15 47.2849 69.7801
4 2 16 -6.2036 -46.1528
4 2 17 -136.3967 35.2389
4 2 18 44.5715 42.8270
4 2 19 66.4581 -68.7770
4 2 20 -92.4077 -62.8569
4 2 21 29.1651 -9.6508
4 2 22 40.9395 -70.1712
4 2 23 22.7283 -59.8158
4 2 24 1.1381 -49.5735
4 2 25 -14.4965 -27.2135
4 2 26 32.3820 54.7108
4 2 27 -81.8476 -30.2100
4 2 28 -117.1635 39.0453
4 2 29 28.8239 -58.0746
4 2 30 -20.7441 -4.7473
4 2 31 -11.9331 -7.4553
4 2 32 -1.6245 -15.8100
4 2 33 3.8893 -21.6791
4 2 34 -15.7007 -11.0334
4 2 35 -12.2050 11.9870
4 2 36 -12.9157 -24.0221
4 2 37 -38.9189 -0.6073
4 2 38 17.9745 29.0712
4 2 39 -6.3158 0.6107
4 2 40 -6.6798 -6.0546
4 2 41 -40.8215 -33.2118
4 2 42 -3.6816 31.5036
4 2 43 -52.2176 32.3657
4 2 44 -69.0223 7.7121
4 2 45 -6.1471 -19.2239
4 2 46 -40.8690 -25.6412
4 2 47 12.3891 -9.2949
4 2 48 -18.5066 -13.0532
4 2 49 3.2729 -20.3217
4 2 50 3.4892 -1.1112
4 2 51 4.0668 15.1667
4 2 52 18.7642 10.4010
4 2 53 -1.4504 6.5119
4 2 54 6.7564 4.6443
4 2 55 11.0986 -10.2286
4 2 56 9.4807 14.5535
4 2 57 6.7158 7.9597
4 2 58 7.5485 2.1214
4 2 59 0.4344 -6.4579
4 2 60 -14.7359 -6.0587
4 2 61 -10.8484 -22.7253
4 2 62 -5.4999 0.0783
4 2 63 -6.2471 15.3756
4 2 64 -9.5516 11.6501
4 2 65 10.7077 -6.0878
4 2 66 -4.7597 -3.6061
4 2 67 1.0174 -3.6302
4 4 0 -0.3243 -0.4745
4 4 1 8.7165 48.5672
4 4 2 -30.0130 -106.7810
4 4 3 -52.5991 67.1393
4 4 4 -42.2374 40.0867
4 4 5 -45.9282 2.5121
4 4 6 31.7930 -127.9815
4 4 7 100.1772 67.8998
4 4 8 76.4423 -96.9654
4 4 9 48.6238 126.4811
4 4 10 28.9127 28.6538
4 4 11 11.1605 -50.4293
4 4 12 28.9492 -0.2899
4 4 13 -69.7517 103.0537
4 4 14 -45.4714 51.0521
4 4 15 -17.8990 -47.2261
4 4 16 -27.4034 19.9432
4 4 17 -55.5701 42.3419
4 4 18 -60.7002 63.7676
4 4 19 78.6778 -55.2304
4 4 20 -17.2208 -55.5661
4 4 21 34.3524 -5.5301
4 4 22 7.7718 0.8094
4 4 23 13.3690 17.8480
4 4 24 29.3191 24.3324
4 4 25 -7.9836 -37.3308
4 4 26 60.8262 -30.8119
4 4 27 79.3551 47.2731
4 4 28 39.9554 -30.3603
4 4 29 -6.5857 15.3994
4 4 30 -32.4711 7.7534
4 4 31 -36.4869 41.3474
4 4 32 11.4003 30.8150
4 4 33 -0.3310 -50.2676
4 4 34 38.9520 28.6271
4 4 35 16.0585 10.7144
4 4 36 -14.4470 -17.5253
4 4 37 16.2408 1.3261
4 4 38 -10.0526 3.5380
4 4 39 -15.4593 -3.2774
4 4 40 39.0682 -36.8919
4 4 41 85.8208 34.0771
4 4 42 17.7867 41.5120
4 4 43 24.6916 22.9533
4 4 44 -6.9694 -18.0019
4 4 45 -22.8334 -10.7235
4 4 46 20.4077 22.6249
4 4 47 23.2692 -22.6357
4 4 48 -31.3693 -7.9095
4 4 49 -22.1190 5.7666
4 4 50 -9.2384 3.0563
4 4 51 -32.2578 10.1318
4 4 52 -35.4055 50.1740
4 4 53 4.7262 -14.3430
4 4 54 8.1320 12.9813
4 4 55 -10.7111 4.5194
4 4 56 -9.1582 16.0841
4 4 57 13.5871 1.9945
4 4 58 4.7560 -2.8345
4 4 59 -4.1052 13.9198
4 4 60 4.6846 12.5935
4 4 61 3.3045 6.9362
4 4 62 -10.5906 12.4489
4 4 63 6.0589 -5.1668
4 4 64 -1.5804 -0.3194
4 4 65 -10.4147 -5.4450
4 4 66 0.6289 -6.9637
4 4 67 -0.1594 2.3926
4 4 68 -7.0227 -8.7168
4 4 69 0.6968 -4.2083
4 6 0 -54.8906 -4.0803
4 6 1 -10.4891 -30.1322
4 6 2 152.1694 75.0302
4 6 3 -7.6373 -30.7193
4 6 4 -69.1773 -59.4899
4 6 5 55.8543 103.3958
4 6 6 -30.5290 43.8004
4 6 7 18.7037 -87.3993
4 6 8 -0.9297 -78.6393
4 6 9 45.3983 91.6047
4 6 10 88.7954 -55.7416
4 6 11 37.9963 71.6776
4 6 12 -13.6804 42.2978
4 6 13 -71.9307 10.6157
4 6 14 81.2835 -25.1483
4 6 15 -10.4286 -74.0708
4 6 16 -35.6275 9.9602
4 6 17 -28.9975 23.0848
4 6 18 -31.9515 -38.4147
4 6 19 16.1065 18.9948
4 6 20 51.9536 -70.4622
4 6 21 33.3851 -124.8385
4 6 22 24.1228 96.9484
4 6 23 3.6983 87.6311
4 6 24 -170.3986 -4.3095
4 6 25 85.9928 -9.6972
4 6 26 5.0432 33.4886
4 6 27 -7.1803 44.5915
4 6 28 42.0740 -20.7510
4 6 29 10.4743 -40.3245
4 6 30 -28.8085 9.3684
4 6 31 -25.3905 116.8677
4 6 32 7.6361 22.3590
4 6 33 14.3828 -25.9156
4 6 34 43.3046 -50.5079
4 6 35 -28.9220 -24.0086
4 6 36 84.4655 26.3526
4 6 37 16.0115 -12.0252
4 6 38 25.0475 -83.4035
4 6 39 22.3671 31.7467
4 6 40 -11.6197 -11.1361
4 6 41 -10.8335 -7.2744
4 6 42 4.2158 -10.9176
4 6 43 -4.9122 -8.7707
4 6 44 -25.7583 7.5638
4 6 45 -2.3006 19.7931
4 6 46 -26.9775 -14.8011
4 6 47 13.1641 8.9735
4 6 48 -18.6158 -2.6623
4 6 49 -20.7168 -25.3305
4 6 50 11.2076 1.7974
4 6 51 -2.5445 9.2166
4 6 52 9.1607 3.9361
4 6 53 16.8180 -5.1772
4 6 54 11.2110 10.6366
4 6 55 11.3108 26.6272
4 6 56 -7.2145 -2.6851
4 6 57 7.1546 1.5496
4 6 58 -0.7881 5.0418
4 6 59 -9.7815 0.8972
4 6 60 1.2914 1.8194
4 6 61 -5.1940 6.7808
4 6 62 2.4973 -8.8270
4 6 63 5.0760 -6.4374
4 6 64 -1.8454 7.8419
4 6 65 1.0684 -3.1686
4 6 66 0.5652 -7.1436
4 6 67 2.8003 0.7829
4 6 68 -6.9317 16.1971
4 6 69 8.7291 -7.9130
4 8 0 22.9209 1.3089
4 8 1 41.3577 175.9505
4 8 2 -54.1669 57.6382
4 8 3 64.7408 26.3565
4 8 4 73.6137 -41.4073
4 8 5 44.7868 55.4241
4 8 6 113.6043 15.2162
4 8 7 34.6548 77.1428
4 8 8 42.4464 -26.2841
4 8 9 11.6869 -22.5895
4 8 10 -9.8100 -73.8128
4 8 11 60.6974 -17.8630
4 8 12 14.8581 25.0864
4 8 13 -62.2325 12.1274
4 8 14 -21.6354 -17.7800
4 8 15 30.5790 68.6378
4 8 16 -1.4903 30.2532
4 8 17 -74.9123 -28.2850
4 8 18 -24.7553 -23.0881
4 8 19 -63.3111 -1.0878
4 8 20 -40.8882 -34.5375
4 8 21 -47.6347 73.0943
4 8 22 7.3224 19.1268
4 8 23 29.3636 -10.9652
4 8 24 -18.6918 -36.5404
4 8 25 20.0073 -24.4641
4 8 26 -9.3132 34.0255
4 8 27 -31.9488 -35.6553
4 8 28 3.2345 -23.3832
4 8 29 6.5606 43.1780
4 8 30 6.7459 -43.3757
4 8 31 -7.4957 -2.9205
4 8 32 -15.0050 -54.6624
4 8 33 50.9860 11.9062
4 8 34 -3.7988 -54.2789
4 8 35 27.5140 -13.1163
4 8 36 -11.0899 -63.4341
4 8 37 11.1366 20.9903
4 8 38 16.4489 -46.0958
4 8 39 16.7358 -17.0241
4 8 40 5.9410 4.6453
4 8 41 -44.6519 -12.3727
4 8 42 -0.7405 4.4219
4 8 43 -16.4252 6.7807
4 8 44 -30.4951 8.9857
4 8 45 19.1012 -7.0837
4 8 46 -13.0911 -10.2365
4 8 47 37.8080 8.7193
4 8 48 -23.7581 14.0031
4 8 49 21.6419 -17.7490
4 8 50 0.1420 -3.7647
4 8 51 8.4180 6.6875
4 8 52 -24.7855 3.1635
4 8 53 -11.2760 1.2223
4 8 54 9.4393 -28.6278
4 8 55 11.3977 -5.3619
4 8 56 -19.7944 -12.3885
4 8 57 -10.9618 2.4156
4 8 58 -2.1471 7.3234
4 8 59 -6.2025 16.4222
4 8 60 3.6580 -13.2770
4 8 61 -6.2978 -1.0063
4 8 62 1.7944 -2.3018
4 8 63 -2.2921 3.4313
4 8 64 5.4772 6.1415
4 8 65 8.6397 -9.8282
4 8 66 -6.9542 7.4829
4 8 67 7.1658 3.3841
4 8 68 14.9303 -1.6638
4 8 69 5.6629 4.9666
4 8 70 -0.1359 7.5461
4 8 71 12.8509 -0.9110
4 10 0 -22.2412 5.2038
4 10 1 18.7917 -73.0712
4 10 2 11.6164 23.5518
4 10 3 -23.1180 75.7827
4 10 4 47.7321 -36.6108
4 10 5 84.0495 -57.1344
4 10 6 -7.8287 -79.0302
4 10 7 26.3715 -73.5118
4 10 8 45.5377 -36.0949
4 10 9 20.1648 -6.2474
4 10 10 -11.4804 -10.8490
4 10 11 13.6000 -0.8988
4 10 12 -28.3097 -49.7979
4 10 13 36.1865 -1.0441
4 10 14 21.9269 -22.9988
4 10 15 12.7766 -10.7600
4 10 16 51.1148 10.9092
4 10 17 -29.3688 -7.8841
4 10 18 34.6867 5.9042
4 10 19 -39.2508 -24.2960
4 10 20 45.6052 53.4825
4 10 21 26.9835 -76.1882
4 10 22 10.9910 -40.7248
4 10 23 -23.8063 -5.6847
4 10 24 10.4476 1.7499
4 10 25 51.6467 -0.7831
4 10 26 -42.3718 5.9554
4 10 27 20.4927 -14.8504
4 10 28 -78.1473 16.2695
4 10 29 35.3171 -44.7186
4 10 30 72.9502 -54.3068
4 10 31 -18.4504 45.0114
4 10 32 20.5624 24.5977
4 10 33 41.9505 -3.1511
4 10 34 -14.2816 15.1381
4 10 35 26.5106 20.0108
4 10 36 -22.2549 12.2047
4 10 37 -15.2367 15.3302
4 10 38 25.7264 -0.3076
4 10 39 10.0130 13.5650
4 10 40 9.3216 -21.0961
4 10 41 14.4853 -45.5096
4 10 42 -23.8246 -34.1679
4 10 43 12.7261 -13.8062
4 10 44 9.9520 -8.2818
4 10 45 -9.1319 -5.8293
4 10 46 14.4964 -13.9832
4 10 47 14.2183 -16.8279
4 10 48 21.0471 -1.2436
4 10 49 0.8875 -12.4864
4 10 50 -12.0834 -17.9188
4 10 51 19.9313 -20.4385
4 10 52 17.4919 -6.6814
4 10 53 -8.6679 3.7251
4 10 54 9.3087 -0.3325
4 10 55 0.6047 22.2186
4 10 56 -9.0387 -3.2799
4 10 57 -9.0856 2.4883
4 10 58 12.1997 -5.9446
4 10 59 -8.1608 6.8595
4 10 60 -3.8565 -1.1150
4 10 61 -0.1342 -1.7733
4 10 62 -0.6443 -2.2113
4 10 63 5.7314 -5.3429
4 10 64 2.7632 4.6295
4 10 65 -11.1670 7.4580
4 10 66 23.5562 -4.8284
4 10 67 1.6774 2.6541
4 10 68 4.6617 0.9446
4 12 0 -3.9410 -1.8845
4 12 1 -3.1450 -74.1618
4 12 2 50.7601 -8.3687
4 12 3 -32.6584 -60.6224
4 12 4 -0.1300 30.4922
4 12 5 -32.3694 -7.2297
4 12 6 -21.6521 -4.3480
4 12 7 -42.9666 -33.6512
4 12 8 -42.6177 14.8486
4 12 9 -4.4081 0.1384
4 12 10 66.6054 -16.2306
4 12 11 -47.7093 23.1283
4 12 12 12.5622 12.5898
4 12 13 -65.2074 -1.2546
4 12 14 17.7723 -30.7863
4 12 15 19.9672 -14.9731
4 12 16 11.2599 -1.6460
4 12 17 -46.1398 -32.6352
4 12 18 -21.4340 60.2994
4 12 19 -32.3700 -1.3338
4 12 20 -31.5832 -13.8639
4 12 21 -100.1971 26.0385
4 12 22 -17.1970 -86.5344
4 12 23 -16.6801 -34.6870
4 12 24 -17.2435 -20.0422
4 12 25 -26.8801 32.7778
4 12 26 -64.6928 -4.7235
4 12 27 -1.2943 32.9640
4 12 28 -24.9206 -9.4261
4 12 29 -39.4793 4.4328
4 12 30 67.7236 -93.8438
4 12 31 -57.3415 -8.3612
4 12 32 7.1178 -51.8490
4 12 33 -30.1412 21.5538
4 12 34 -20.9453 21.4156
4 12 35 -12.9741 -19.5228
4 12 36 43.9054 23.3038
4 12 37 12.9717 -7.3804
4 12 38 20.7148 7.5901
4 12 39 -1.4939 -1.1821
4 12 40 17.8830 43.0575
4 12 41 47.1864 25.6945
4 12 42 -14.7137 -19.7606
4 12 43 13.5613 -15.8219
4 12 44 -7.2950 21.4755
4 12 45 10.5709 15.9253
4 12 46 13.5655 -29.8290
4 12 47 -6.7939 3.2366
4 12 48 4.2343 29.1880
4 12 49 21.2470 6.9008
4 12 50 -3.7061 -2.0921
4 12 51 6.0401 9.6353
4 12 52 2.2269 0.3905
4 12 53 -0.9659 3.6758
4 12 54 -1.6130 -2.8144
4 12 55 -0.2874 7.7288
4 12 56 1.2817 -6.2978
4 12 57 0.8636 -0.9626
4 12 58 -2.4373 -1.0243
4 12 59 0.6091 -6.9140
4 12 60 1.1134 -16.3344
4 12 61 -5.6568 16.2047
4 12 62 3.8040 -0.1495
4 12 63 4.7955 -7.2347
4 12 64 -4.4558 1.3224
4 12 65 0.4100 2.2556
4 12 66 -9.1766 -8.5766
4 12 67 15.1125 4.2280
4 12 68 -4.3173 9.8608
4 12 69 -6.7073 -12.1683
4 12 70 25.6160 -8.9057
4 12 71 -2.9657 -2.9961
4 14 0 28.6776 -1.0625
4 14 1 14.0806 3.1794
4 14 2 -15.9953 21.5407
4 14 3 -39.4065 7.7252
4 14 4 -29.9283 9.9146
4 14 5 4.6176 -20.6825
4 14 6 -11.8340 -3.2212
4 14 7 -36.7928 13.3829
4 14 8 -33.4464 -5.8205
4 14 9 -33.3691 38.1599
4 14 10 -21.7965 -15.9017
4 14 11 59.0388 53.0189
4 14 12 -45.6555 -3.5146
4 14 13 2.5561 67.3274
4 14 14 -8.8140 36.1472
4 14 15 -8.3071 42.3090
4 14 16 9.1500 39.4112
4 14 17 -22.2697 63.8098
4 14 18 -29.6326 43.4344
4 14 19 22.9072 7.6033
4 14 20 9.1694 -10.6133
4 14 21 -16.0826 6.6660
4 14 22 7.1547 -22.1803
4 14 23 -32.6732 -48.5369
4 14 24 104.8950 9.8070
4 14 25 13.1717 13.6964
4 14 26 13.7913 75.4563
4 14 27 -42.7741 -54.7558
4 14 28 45.7870 80.9234
4 14 29 18.2831 -43.6528
4 14 30 47.9375 -12.5071
4 14 31 16.3797 30.1212
4 14 32 39.5769 -8.0880
4 14 33 13.1154 -54.5132
4 14 34 -7.9758 -32.0761
4 14 35 9.8961 10.7457
4 14 36 -9.5593 4.4960
4 14 37 14.1623 -29.5995
4 14 38 -11.5891 29.3777
4 14 39 -44.0565 32.0200
4 14 40 25.8525 24.1788
4 14 41 -21.1318 45.9530
4 14 42 14.1976 2.5781
4 14 43 -5.1044 -23.6699
4 14 44 -20.3010 16.7180
4 14 45 -11.8198 36.2111
4 14 46 -3.7434 47.2962
4 14 47 -13.7709 -10.6174
4 14 48 -14.4721 7.9712
4 14 49 -4.9387 6.8147
4 14 50 2.8311 18.0387
4 14 51 6.0527 10.0863
4 14 52 -0.4547 -12.1197
4 14 53 2.3717 10.6098
4 14 54 -10.2994 -2.9433
4 14 55 -2.5063 3.6632
4 14 56 3.7950 16.4763
4 14 57 21.8835 4.3930
4 14 58 -5.4970 3.0756
4 14 59 1.8913 -1.6117
4 14 60 -16.1015 8.3279
4 14 61 10.7319 3.8245
4 14 62 -1.3025 -5.3836
4 14 63 19.5275 -10.6947
4 14 64 9.9853 -1.0667
4 14 65 13.9000 -14.6395
4 14 66 1.7346 4.9485
4 14 67 9.2343 -1.1521
4 14 68 4.5079 -23.5135
4 14 69 14.1858 0.7197
4 16 0 -1.8703 -2.7513
4 16 1 9.2654 -10.4944
4 16 2 -17.7537 23.0587
4 16 3 33.8188 -90.3213
4 16 4 4.8797 14.1190
4 16 5 26.0072 -25.7463
4 16 6 45.1939 22.9569
4 16 7 -28.4160 53.8247
4 16 8 50.1863 38.5718
4 16 9 27.0311 11.6306
4 16 10 21.5261 38.2501
4 16 11 7.8770 -11.5237
4 16 12 -32.2162 -43.1253
4 16 13 -5.6066 19.9622
4 16 14 1.0114 -44.1483
4 16 15 2.9240 -1.7669
4 16 16 49.0976 16.4637
4 16 17 -35.2776 6.4264
4 16 18 -13.8944 -23.9652
4 16 19 18.7721 6.1945
4 16 20 47.6575 1.0083
4 16 21 40.6110 -29.9873
4 16 22 26.3389 -88.9030
4 16 23 17.5154 37.0527
4 16 24 -25.0468 6.7041
4 16 25 55.5703 2.9124
4 16 26 -1.4498 23.3197
4 16 27 -17.6903 -44.2757
4 16 28 -47.5343 63.1306
4 16 29 23.6950 6.3133
4 16 30 41.3170 -24.8524
4 16 31 -10.9322 -8.7193
4 16 32 13.2693 -16.5556
4 16 33 -0.6453 -11.3579
4 16 34 -8.7650 24.2745
4 16 35 -7.3122 -29.1538
4 16 36 -4.9014 -0.1851
4 16 37 7.1715 7.0132
4 16 38 -6.2904 4.4395
4 16 39 -6.1887 -1.3247
4 16 40 -16.5687 7.9145
4 16 41 -1.2668 11.3617
4 16 42 -21.3892 17.3982
4 16 43 -15.7239 -12.7299
4 16 44 -3.7075 20.5244
4 16 45 -9.6711 -6.2860
4 16 46 -26.9022 -9.6946
4 16 47 2.9997 -24.5285
4 16 48 -3.0420 10.5181
4 16 49 4.8665 8.8602
4 16 50 -5.7056 -14.7836
4 16 51 11.1033 2.9069
4 16 52 -4.7389 -11.8712
4 16 53 3.0591 -5.9653
4 16 54 -4.8637 7.9015
4 16 55 7.2202 -6.3791
4 16 56 -3.3524 -6.9979
4 16 57 8.6128 1.8868
4 16 58 2.5910 22.0006
4 16 59 2.8521 0.1123
4 16 60 4.5689 -0.5876
4 16 61 24.4956 -10.2737
4 16 62 -2.4739 -11.7796
4 16 63 -3.0144 2.9240
4 16 64 15.6571 0.2922
4 16 65 -0.7924 3.1665
4 16 66 18.2608 -29.2916
4 16 67 5.6476 3.0877
4 16 68 -13.1478 -3.1732
4 18 0 35.8927 3.2223
4 18 1 73.6488 54.7128
4 18 2 -31.5036 32.7587
4 18 3 2.7869 14.6555
4 18 4 -22.1145 46.5047
4 18 5 5.0760 29.1054
4 18 6 5.0066 -11.4021
4 18 7 -27.0816 -0.8317
4 18 8 -37.9231 28.6583
4 18 9 3.3701 9.7194
4 18 10 -17.5052 2.8321
4 18 11 7.2646 13.2885
4 18 12 -2.7579 27.1626
4 18 13 -11.8348 -15.2088
4 18 14 -0.4948 -23.6313
4 18 15 -18.5470 1.7751
4 18 16 6.4134 -25.8259
4 18 17 55.5239 -36.4311
4 18 18 -64.7984 -10.7563
4 18 19 -5.1501 5.3676
4 18 20 28.3218 13.3397
4 18 21 -37.7623 39.0682
4 18 22 -15.4761 14.5568
4 18 23 42.1658 39.3643
4 18 24 -41.8072 -7.1045
4 18 25 -7.7758 13.6216
4 18 26 -29.1424 26.4930
4 18 27 -5.1846 5.5487
4 18 28 0.1468 4.6741
4 18 29 -72.1475 58.4319
4 18 30 30.5738 -11.6034
4 18 31 -31.6693 -1.5529
4 18 32 35.7885 14.7841
4 18 33 5.2905 -4.6439
4 18 34 22.4357 0.7561
4 18 35 11.3797 -2.9284
4 18 36 35.5931 13.0689
4 18 37 -6.4522 -11.1046
4 18 38 8.3592 -9.7019
4 18 39 -2.5565 -3.2125
4 18 40 3.0732 -11.6508
4 18 41 28.5058 -23.1734
4 18 42 -3.0780 -2.2126
4 18 43 -8.1517 17.4374
4 18 44 11.6311 2.0882
4 18 45 -4.5904 -5.2985
4 18 46 5.4860 -11.0745
4 18 47 4.3011 -7.5760
4 18 48 3.8845 -10.4538
4 18 49 5.0516 8.4050
4 18 50 -15.8765 9.4750
4 18 51 -0.7075 -2.5987
4 18 52 36.9103 5.7267
4 18 53 -7.5544 -13.7470
4 18 54 8.9818 -7.4838
4 18 55 -13.7567 6.5237
4 18 56 22.4010 6.5114
4 18 57 -25.8216 4.1216
4 18 58 -8.0518 -19.6810
4 18 59 0.6331 11.9162
4 18 60 -8.6649 -6.8274
4 18 61 -4.5447 13.1091
4 18 62 20.5700 1.7241
4 18 63 20.0701 -28.0958
4 18 64 -11.8751 -32.1335
4 18 65 6.1857 -12.3061
4 20 0 -10.7971 0.9275
4 20 1 -3.8229 46.3895
4 20 3 -6.2727 -21.1631
4 20 4 -14.2262 -3.7013
4 20 5 -39.8726 -31.4565
4 20 6 7.7431 16.6762
4 20 7 -38.5663 32.3810
4 20 8 -6.4746 -3.3117
4 20 9 -17.8502 -15.4852
4 20 10 26.2590 -0.8714
4 20 11 -23.6053 -2.8137
4 20 12 21.1707 -13.5261
4 20 13 27.5395 -3.1324
4 20 14 2.5917 69.4961
4 20 15 -18.0728 -10.6124
4 20 16 -9.7809 11.1289
4 20 17 19.5099 33.7454
4 20 18 -64.1480 6.0442
4 20 19 14.3173 -12.2661
4 20 20 23.0406 4.3020
4 20 21 -1.6853 12.7059
4 20 22 -17.9775 -37.5412
4 20 23 18.2047 11.9917
4 20 24 7.3754 -9.0783
4 20 25 -2.4619 15.6300
4 20 26 -13.5838 -29.2767
4 20 27 35.2806 22.3580
4 20 28 -0.9963 5.4592
4 20 29 2.7334 78.5713
4 20 30 6.6562 -15.5233
4 20 31 2.9352 -5.0523
4 20 32 -33.9167 4.3179
4 20 33 42.5076 -8.4201
4 20 34 -8.1934 -2.6913
4 20 35 32.4594 9.8592
4 20 36 45.8544 -5.3737
4 20 37 -8.7621 -7.5849
4 20 38 -27.0419 0.0608
4 20 39 -19.5767 18.6666
4 20 40 -3.4137 10.3407
4 20 41 -7.9482 -17.3446
4 20 42 -29.6524 23.0938
4 20 43 -10.5474 -17.5882
4 20 44 29.5582 14.3578
4 20 45 -2.8237 -2.7755
4 20 46 -20.1585 -14.3982
4 20 47 9.6141 9.8595
4 20 48 1.1111 -9.8120
4 20 49 -3.5644 5.7360
4 20 50 -5.0794 21.9797
4 20 51 -6.6397 1.5711
4 20 52 14.4408 5.5606
4 20 53 -4.7591 2.2660
4 20 54 24.4017 -0.5796
4 20 55 2.0004 10.1040
4 20 56 -0.9775 0.5490
4 20 57 22.6924 8.0841
4 20 58 0.0753 6.9273
4 20 63 31.3089 -9.6215
4 22 0 -12.7693 -2.6302
4 22 1 7.8772 30.2538
4 22 2 11.9809 -14.6146
4 22 3 -9.2755 -27.1428
4 22 4 -13.6134 13.4595
4 22 5 0.9856 27.1782
4 22 6 -4.3426 -6.7277
4 22 7 7.4268 -54.3117
4 22 8 -22.0315 -20.2933
4 22 9 -3.7365 40.5823
4 22 10 31.7338 -13.8066
4 22 11 -11.7930 15.2704
4 22 12 23.7338 -54.4392
4 22 13 2.7173 -33.9567
4 22 14 10.6078 8.2292
4 22 15 -41.1343 -16.4526
4 22 16 -20.5865 -2.5984
4 22 17 -25.1371 6.3621
4 22 18 17.5008 4.0444
4 22 19 9.6270 -5.0781
4 22 20 1.2362 3.4885
4 22 21 -12.4034 -23.2343
4 22 22 -27.5311 -0.4274
4 22 23 24.7025 -12.0488
4 22 24 3.4884 -18.0452
4 22 25 6.5903 -4.7893
4 22 26 14.1414 -12.9396
4 22 27 22.8224 -15.6610
4 22 28 -5.9737 4.7860
4 22 29 5.8252 2.0135
4 22 30 -34.7222 29.8472
4 22 31 5.7544 -19.1697
4 22 32 8.1455 22.5463
4 22 33 -23.8032 -0.9909
4 22 34 16.5716 -15.8211
4 22 35 -1.0301 3.9684
4 22 36 -49.4199 -3.2902
4 22 37 0.8514 10.4852
4 22 38 -7.1294 14.0384
4 22 39 18.0512 -5.5642
4 22 40 -14.5532 29.5548
4 22 41 -11.1871 -4.4121
4 22 42 8.6220 -2.3148
4 22 43 8.0851 3.7189
4 22 44 7.1925 -2.2017
4 22 45 7.7701 3.3160
4 22 46 -1.4800 13.1849
4 22 47 3.9858 -7.9163
4 22 48 -8.6844 4.4291
4 22 49 -4.4311 2.1825
4 22 50 -14.1576 -2.6856
4 22 51 12.6992 0.5584
4 22 52 -4.4565 4.1194
4 22 53 -6.1556 9.1963
4 22 54 4.1060 3.4255
4 22 55 -4.2019 -3.9487
4 22 56 7.5156 -0.9789
4 22 57 -16.4042 -2.6924
4 22 58 4.3383 21.3642
4 22 59 5.4670 -1.0304
4 22 60 -6.3859 -4.1422
4 24 0 8.3368 1.1801
4 24 1 1.1649 -1.4737
4 24 2 -1.1075 -10.0592
4 24 3 29.6804 -34.5664
4 24 4 24.1422 -31.9536
4 24 5 -11.3368 -26.2094
4 24 6 -17.6560 2.8128
4 24 7 -13.1712 8.9478
4 24 8 -11.1463 -3.5753
4 24 9 -31.7611 -5.5747
4 24 10 35.4122 22.6289
4 24 11 -0.9521 4.7586
4 24 12 -24.9673 42.3602
4 24 13 -28.2501 -15.2194
4 24 14 5.7561 -1.8375
4 24 15 23.8560 6.5779
4 24 16 -38.7774 -2.9824
4 24 17 14.3271 -3.7812
4 24 18 -27.3619 13.0737
4 24 19 11.8970 -15.6064
4 24 20 -5.0016 22.1713
4 24 21 26.5391 30.4629
4 24 22 -63.2422 -5.3320
4 24 23 16.5495 -4.6139
4 24 24 -3.2995 -1.5745
4 24 25 -16.4991 -31.8280
4 24 26 -16.5511 -18.7472
4 24 27 12.7633 -16.9280
4 24 28 10.6345 13.1485
4 24 29 8.2129 -1.1476
4 24 30 -6.6203 -10.7643
4 24 31 -17.7259 -23.1011
4 24 32 33.0105 -22.8141
4 24 33 8.7724 15.7836
4 24 34 11.4604 6.3361
4 24 35 2.6566 16.4468
4 24 36 2.6298 12.2324
4 24 37 6.9152 -5.5451
4 24 38 3.7483 12.5618
4 24 39 -1.1666 -9.5684
4 24 40 -12.1427 -6.6379
4 24 41 -0.5773 8.4027
4 24 42 -2.5736 5.3817
4 24 43 -2.6709 18.0258
4 24 44 -10.1394 -19.7395
4 24 45 11.6204 13.3870
4 24 46 0.0669 -7.5294
4 24 47 -7.3175 -9.4465
4 24 48 -1.9852 -9.7961
4 24 49 -20.4446 -6.8997
4 24 50 0.5598 -12.3073
4 24 51 -1.5217 -3.8620
4 24 52 -1.7006 -5.4309
4 26 0 35.4904 0.8985
4 26 1 -8.1936 8.5900
4 26 2 -7.7033 -11.7621
4 26 3 -7.4435 -28.3668
4 26 4 4.1203 -8.0742
4 26 5 -14.6288 -12.6974
4 26 6 4.9771 -29.0577
4 26 7 -10.3226 -8.5505
4 26 8 -14.8032 7.0264
4 26 9 1.3218 29.6445
4 26 10 -10.1837 17.8692
4 26 11 42.0568 39.1276
4 26 12 23.7324 12.5745
4 26 13 -1.5133 -3.0418
4 26 14 7.7256 -19.3567
4 26 15 12.7806 18.3290
4 26 16 1.8097 -24.7897
4 26 17 62.2092 -13.2663
4 26 18 5.1919 14.2385
4 26 19 24.2127 -1.0619
4 26 20 25.2022 -15.2965
4 26 21 14.3106 9.6174
4 26 22 26.6057 27.9264
4 26 23 -13.4111 -2.0304
4 26 24 19.7181 -34.0940
4 26 25 26.6502 25.1576
4 26 26 -1.9698 1.3162
4 26 27 23.4402 -37.2847
4 26 28 7.8284 -30.5344
4 26 29 -13.9820 -4.3412
4 26 30 -10.0240 -2.1694
4 26 31 -14.3036 25.7215
4 26 32 -0.1159 10.0729
4 26 33 10.2324 -2.6405
4 26 34 -1.5047 -18.2470
4 26 35 -22.1002 2.7268
4 26 36 -2.8163 -17.8633
4 26 37 13.5970 -13.6867
4 26 38 19.2592 5.7992
4 26 39 1.9203 -0.6876
4 26 40 9.5761 -3.4443
4 26 41 -10.7713 6.4782
4 26 42 5.1712 -5.2390
4 26 43 4.0404 15.9779
4 26 44 21.4343 13.7064
4 26 45 -27.2275 -2.1614
4 26 46 12.9377 7.3418
4 26 47 2.9999 -7.5012
4 26 48 8.0620 -1.9493
4 26 49 -14.1778 0.6492
4 26 50 -9.6886 -10.0955
4 28 0 -12.1269 -1.3649
4 28 1 28.5141 14.9200
4 28 2 2.2446 14.5539
4 28 3 -12.4656 -52.8719
4 28 4 1.0447 2.5734
4 28 5 14.1303 -16.2576
4 28 6 -9.0765 19.1792
4 28 7 -4.5076 -5.8370
4 28 8 -20.0316 -14.5427
4 28 9 11.2725 -24.6299
4 28 10 44.0809 1.3621
4 28 11 -11.8536 -38.5524
4 28 12 13.1871 -12.2106
4 28 13 -10.3990 31.1856
4 28 14 1.9722 4.2993
4 28 15 9.4062 -4.3804
4 28 16 15.5813 -13.8527
4 28 17 11.3221 -10.2133
4 28 18 12.4995 6.3456
4 28 19 -18.0822 17.8178
4 28 20 11.2573 9.1643
4 28 21 -0.2143 15.8281
4 28 22 25.0012 3.8375
4 28 23 -34.0324 55.6442
4 28 24 -6.6696 12.7300
4 28 25 9.3774 13.3943
4 28 26 -7.3899 4.4103
4 28 27 5.5915 21.3080
4 28 28 -15.5035 26.0237
4 28 29 -14.8200 27.7710
4 28 30 2.1001 6.2809
4 28 31 -2.9826 -8.3458
4 28 32 3.7931 6.5431
4 28 33 -8.4107 1.1256
4 28 34 -17.2576 -1.2205
4 28 35 -1.2699 -7.5030
4 28 36 -13.7737 9.0518
4 28 37 3.0861 -11.0791
4 28 38 4.2708 -9.6986
4 28 39 -2.2272 1.7475
4 28 40 15.5478 13.4350
4 28 41 -1.3484 -10.2375
4 28 42 -9.8109 20.7116
4 28 43 -6.3017 7.7477
4 30 0 -13.4208 -0.2767
4 30 1 30.4264 4.1550
4 30 2 4.9258 -11.5068
4 30 3 -3.4285 10.0711
4 30 4 -41.1976 -24.4121
4 30 5 47.7111 6.4435
4 30 6 8.7237 -28.1491
4 30 7 -8.6907 21.5802
4 30 8 -7.7784 6.0068
4 30 9 -5.0676 8.3448
4 30 10 -10.9760 -3.4323
4 30 11 4.5288 -15.0920
4 30 12 -7.4597 2.1230
4 30 13 4.8654 -3.6468
4 30 14 -0.5502 14.9031
4 30 15 -7.1652 -0.3780
4 30 16 -11.0308 0.6522
4 30 17 29.3896 -1.0773
4 30 18 3.9060 2.4569
4 30 19 13.4531 12.4669
4 30 20 -25.3835 5.0815
4 30 21 0.4041 -11.3635
4 30 22 9.6853 0.4941
4 30 23 -10.4722 -20.8497
4 30 24 -0.8356 -16.7662
4 30 25 -5.1238 7.5067
4 30 26 -6.2325 -2.8297
4 30 27 -4.6715 25.9974
4 30 28 -5.2617 -5.0950
4 30 29 3.1480 10.3443
4 30 30 7.4138 -29.7986
4 30 31 -9.3883 -7.6087
4 30 32 -4.0535 10.1269
4 30 33 1.7523 -9.5112
4 30 34 6.1168 -18.2474
4 30 35 2.9513 4.7979
4 30 36 -5.5419 16.4771
4 30 37 -2.5519 -4.1079
4 30 38 3.7772 -2.7752
4 30 39 -0.3867 15.7890
4 32 0 20.6162 0.0570
4 32 1 14.2778 -20.9677
4 32 2 11.3729 -5.1996
4 32 3 7.6375 13.1746
4 32 4 11.5850 -7.5156
4 32 5 -26.1320 0.2089
4 32 6 -22.5124 4.6529
4 32 7 -17.4678 4.5512
4 32 8 -14.0752 -16.8423
4 32 9 -16.3943 38.6758
4 32 10 -19.2149 -3.0035
4 32 11 -7.6552 9.9187
4 32 12 -0.2193 -2.5294
4 32 13 -11.8580 14.7596
4 32 14 10.6863 23.1176
4 32 15 -5.2236 3.2521
4 32 16 -31.3606 -11.8192
4 32 17 1.8123 3.9555
4 32 18 6.3378 -3.2405
4 32 19 4.9018 -27.6591
4 32 20 -7.7173 29.5438
4 32 21 1.6772 0.4909
4 32 22 -6.5036 -4.0782
4 32 23 -1.5540 -5.4361
4 32 24 -2.6124 -17.9917
4 32 25 7.1426 -8.9586
4 32 26 6.4870 -20.5868
4 32 27 13.9743 10.1461
4 32 28 1.9549 8.3227
4 32 29 -7.1188 1.5490
4 32 30 10.7130 -4.1923
4 32 31 -1.0652 3.2013
4 32 32 0.2482 4.1234
4 32 33 -1.3387 -2.3058
4 32 34 -10.2971 -21.1051
4 32 35 3.7438 -6.6592
4 32 36 11.1805 26.4434
4 34 0 -9.9523 1.8672
4 34 1 -10.2138 17.2908
4 34 2 9.7348 6.8276
4 34 3 17.6151 -1.3277
4 34 4 4.6392 25.1203
4 34 5 -8.3102 6.9627
4 34 6 3.0817 -4.5894
4 34 7 1.6909 -7.0655
4 34 8 1.9845 -8.9419
4 34 9 9.5910 -2.6636
4 34 10 -4.3538 1.6741
4 34 11 -19.3907 -12.7622
4 34 12 16.2104 15.2474
4 34 13 9.9606 10.5689
4 34 14 -0.1779 -7.5832
4 34 15 -0.4585 2.3746
4 34 16 4.1928 0.8682
4 34 17 4.3415 -10.1344
4 34 18 -4.8623 -11.2887
4 34 19 10.9451 5.3870
4 34 20 1.8126 -1.7260
4 34 21 -0.3030 6.7386
4 34 22 -4.6982 -11.8445
4 34 23 -0.4957 5.8305
4 34 24 -8.7174 5.0207
4 34 25 5.3074 5.7912
4 34 26 3.5227 -1.4809
4 34 27 -5.6708 -8.7781
4 34 28 -8.6848 4.6367
4 34 29 -9.4859 8.6797
4 36 0 6.8509 -0.6324
4 36 1 8.3438 1.2772
4 36 2 -7.1760 -11.5599
4 36 3 3.3460 -1.5404
4 36 4 -16.0076 4.0054
4 36 5 13.8126 -0.0737
4 36 6 -8.8057 -5.5130
4 36 7 -1.3107 -5.0501
4 36 8 7.6229 -13.4577
4 36 9 0.6562 3.2992
4 36 10 14.8279 -11.0957
4 36 11 -13.4327 -3.4851
4 36 12 -7.9489 3.9321
4 36 13 -18.9256 -4.4985
4 36 14 2.8432 -5.2123
4 36 15 -7.1821 7.2483
4 36 16 5.7038 -17.6716
4 36 17 -5.3496 -2.2056
5 1 0 -74.2540 0.3957
5 1 1 131.5694 -9.5411
5 1 2 49.7708 72.8499
5 1 3 -244.0602 -231.4188
5 1 4 40.3799 -10.5697
5 1 5 -45.7544 -51.5839
5 1 6 75.9862 127.4020
5 1 7 -112.2243 -84.9494
5 1 8 51.1735 92.0889
5 1 9 21.6664 -3.7967
5 1 10 -11.2603 -52.4113
5 1 11 -29.5522 60.0615
5 1 12 62.6272 76.6172
5 1 13 20.7119 -16.4556
5 1 14 -87.7857 4.1867
5 1 15 -7.4625 -40.0569
5 1 16 110.7762 -10.0523
5 1 17 -57.4684 11.0398
5 1 18 59.6993 0.8233
5 1 19 2.4387 110.0930
5 1 20 108.4037 25.6389
5 1 21 8.5080 -38.0776
5 1 22 -37.9315 -1.6587
5 1 23 50.4524 -86.7517
5 1 24 19.0733 66.2994
5 1 25 -4.7847 -41.7391
5 1 26 56.5953 -21.3673
5 1 27 108.6831 56.6481
5 1 28 11.3847 29.5472
5 1 29 43.6688 59.8836
5 1 30 -69.1322 88.9191
5 1 31 -16.5266 -2.9297
5 1 32 6.2668 67.2348
5 1 33 45.1203 68.1790
5 1 34 1.3974 12.2454
5 1 35 107.6557 -16.7108
5 1 36 -49.6095 25.1199
5 1 37 -1.9960 -15.0819
5 1 38 -20.4959 -18.6545
5 1 39 -5.4863 -37.8139
5 1 40 23.0761 -20.6832
5 1 41 51.0512 5.4147
5 1 42 -12.5102 7.5507
5 1 43 -1.1961 -20.9195
5 1 44 40.2822 14.4880
5 1 45 8.8271 2.9714
5 1 46 11.0506 -8.4303
5 1 47 9.6906 21.9731
5 1 48 -5.7815 -9.6899
5 1 49 3.0675 1.9601
5 1 50 -48.5562 -14.0931
5 1 51 11.9419 13.7779
5 1 52 -18.5825 35.6766
5 1 53 -30.1008 -2.0361
5 1 54 13.0017 -12.9238
5 1 55 8.5972 -7.4148
5 1 56 27.4689 24.9392
5 1 57 11.2119 6.6784
5 1 58 -23.2416 12.6084
5 1 59 8.5260 7.5112
5 1 60 -26.3904 -8.4479
5 1 61 1.4623 -20.4142
5 1 62 -11.7801 -14.8152
5 1 63 -11.5546 6.7480
5 1 64 10.8037 -16.1911
5 1 65 17.5598 -15.4738
5 1 66 -24.8822 -21.3184
5 1 67 6.0210 -11.9487
5 3 0 55.9972 -1.0820
5 3 1 61.0364 47.5759
5 3 2 -40.4024 -130.9446
5 3 3 32.4095 70.2730
5 3 4 -20.7552 38.1879
5 3 5 98.5125 -69.9726
5 3 6 152.9993 12.5151
5 3 7 -115.7984 47.5207
5 3 8 -9.4794 -58.3035
5 3 9 -71.6829 38.0888
5 3 10 8.3805 55.2058
5 3 11 16.4905 112.0597
5 3 12 -85.9823 -50.1962
5 3 13 -65.7065 35.2405
5 3 14 -30.8289 56.2684
5 3 15 -71.3454 84.4197
5 3 16 85.0506 -54.4751
5 3 17 51.0474 -11.5013
5 3 18 -57.8356 102.3174
5 3 19 31.5501 -40.5876
5 3 20 -85.4507 -50.4261
5 3 21 10.2692 -86.8687
5 3 22 93.9487 -95.8150
5 3 23 -12.1386 -12.2833
5 3 24 17.2931 20.5312
5 3 25 29.8920 2.9141
5 3 26 -67.6811 19.1064
5 3 27 -44.1802 -40.6986
5 3 28 -97.6311 -20.0649
5 3 29 -14.1951 8.7068
5 3 30 17.5016 -33.2224
5 3 31 60.8344 118.8978
5 3 32 -44.5379 -28.8194
5 3 33 15.0332 -21.8610
5 3 34 3.8021 31.2441
5 3 35 26.6668 77.0893
5 3 36 102.9498 -33.9147
5 3 37 53.5706 15.0242
5 3 38 2.6372 -8.6359
5 3 39 -10.8522 47.0583
5 3 40 28.8964 -0.6829
5 3 41 -30.9652 20.8277
5 3 42 14.9033 15.6812
5 3 43 -12.2162 -74.5342
5 3 44 -8.0097 -8.0364
5 3 45 22.6716 -2.1416
5 3 46 -23.1941 -24.3256
5 3 47 -5.1549 9.2826
5 3 48 6.0819 -36.9277
5 3 49 -8.2412 -9.8788
5 3 50 -1.8310 -16.9276
5 3 51 -11.3696 -2.2178
5 3 52 -30.8640 2.7584
5 3 53 -19.4706 -26.0556
5 3 54 8.1797 -16.4421
5 3 55 -18.0167 -31.7194
5 3 56 -16.6484 27.5079
5 3 57 13.4818 -28.2732
5 3 58 11.5749 2.4598
5 3 59 -8.2493 -1.4388
5 3 60 -4.2406 15.7007
5 3 61 18.2668 -1.8844
5 3 62 3.2392 -4.7958
5 3 63 2.5565 -7.2337
5 3 64 3.7033 -1.6945
5 3 65 4.8960 -4.6252
5 3 66 8.9071 8.4047
5 3 67 0.2624 0.7081
5 3 68 -7.9211 10.8091
5 3 69 2.7401 5.1035
5 3 70 5.3222 0.8837
5 3 71 1.8992 12.3075
5 5 0 -169.9044 0.6434
5 5 1 145.6835 52.1379
5 5 2 39.4435 16.6588
5 5 3 112.5859 -77.7580
5 5 4 -25.2851 44.2500
5 5 5 91.5829 -68.6613
5 5 6 0.9025 58.8206
5 5 7 77.2141 82.1086
5 5 8 -101.0923 -10.0920
5 5 9 -38.3454 11.3270
5 5 10 22.9519 -41.1078
5 5 11 -19.1890 -65.3703
5 5 12 -2.3539 30.7268
5 5 13 -23.4889 -24.4612
5 5 14 -15.7027 6.2893
5 5 15 23.8571 -56.9060
5 5 16 9.6015 -61.3634
5 5 17 -21.3107 89.1416
5 5 18 39.5376 56.4979
5 5 19 19.5142 -11.2540
5 5 20 -15.2519 -38.6636
5 5 21 -30.6597 30.7131
5 5 22 -0.6338 50.6300
5 5 23 -37.9095 19.9584
5 5 24 -32.0824 67.1628
5 5 25 -20.1479 -29.9641
5 5 26 0.5635 42.0467
5 5 27 76.8507 -64.8303
5 5 28 28.7676 -52.6785
5 5 29 -56.9024 60.5104
5 5 30 -3.9851 38.4141
5 5 31 -1.0389 -40.0199
5 5 32 0.4921 40.9528
5 5 33 87.8587 27.7106
5 5 34 23.0290 -9.9168
5 5 35 -37.3888 -18.6684
5 5 36 -0.9673 -38.7046
5 5 37 29.9970 8.0845
5 5 38 -3.7290 -14.0882
5 5 39 -24.3695 -26.7168
5 5 40 16.1347 -51.4951
5 5 41 12.3903 -9.7240
5 5 42 12.6623 32.6785
5 5 43 10.5340 8.5920
5 5 44 13.2429 36.1916
5 5 45 -65.0638 -8.6658
5 5 46 -35.9867 -22.7208
5 5 47 -2.9272 -15.7441
5 5 48 0.7772 1.5597
5 5 49 -5.6293 -11.6713
5 5 50 3.3016 11.0184
5 5 51 -0.8712 24.8424
5 5 52 -1.7693 5.5778
5 5 53 9.5307 -2.5185
5 5 54 -15.5990 -6.3677
5 5 55 14.5226 -4.6116
5 5 56 15.3617 -0.7665
5 5 57 10.7195 10.4320
5 5 58 6.2388 8.6162
5 5 59 -13.8232 8.1214
5 5 60 3.7503 2.8649
5 5 61 1.8254 2.2113
5 5 62 5.8796 0.5063
5 5 63 6.2230 -9.4892
5 5 64 -7.7879 -1.9306
5 5 65 2.7755 -2.0826
5 5 66 -7.0659 2.7376
5 5 67 3.3290 -5.0532
5 5 68 1.9759 -4.0428
5 5 69 14.8519 -6.1847
5 7 0 57.4889 -1.5490
5 7 1 21.1226 63.8514
5 7 2 -1.1388 -11.8705
5 7 3 4.3547 54.6922
5 7 4 107.1705 -4.5465
5 7 5 41.4630 -51.3773
5 7 6 53.5868 -92.2217
5 7 7 24.6559 56.8550
5 7 8 60.8878 1.7966
5 7 9 -59.7414 16.3230
5 7 10 51.6617 -48.2647
5 7 11 35.2237 74.1751
5 7 12 -93.2237 -40.0719
5 7 13 70.9439 -96.7953
5 7 14 61.8178 -31.1515
5 7 15 75.9608 -55.1211
5 7 16 59.8844 -21.5776
5 7 17 -28.0991 59.7100
5 7 18 -13.1054 -22.5622
5 7 19 1.1614 -0.5768
5 7 20 10.2373 0.0644
5 7 21 54.4096 36.2144
5 7 22 72.0018 39.0236
5 7 23 64.9713 -39.5092
5 7 24 -7.8074 -59.1760
5 7 25 -45.7081 36.0042
5 7 26 1.2642 -12.6098
5 7 27 -15.5834 0.2263
5 7 28 21.4976 12.7692
5 7 29 57.7200 -55.9779
5 7 30 21.1523 22.9468
5 7 31 -18.2655 5.5228
5 7 32 2.5827 20.1958
5 7 33 -79.0819 -12.5916
5 7 34 -7.0616 -38.3318
5 7 35 -5.1393 26.2618
5 7 36 12.6246 -8.3731
5 7 37 12.5289 -51.4006
5 7 38 -2.2222 -32.6742
5 7 39 10.5750 -14.8334
5 7 40 8.5429 17.0303
5 7 41 -3.2189 -9.2950
5 7 42 -3.0667 16.6964
5 7 43 17.4717 12.7207
5 7 44 -25.6613 -21.4910
5 7 45 3.4509 39.6381
5 7 46 12.6679 9.5162
5 7 47 -7.8224 14.7267
5 7 48 9.0429 0.9972
5 7 49 4.6399 -5.1855
5 7 50 43.3443 1.3450
5 7 51 1.1167 8.9146
5 7 52 4.3341 13.9961
5 7 53 -22.2716 -8.7231
5 7 54 -4.2347 1.1570
5 7 55 -7.9285 -1.8063
5 7 56 -2.4553 -6.7256
5 7 57 -1.1925 5.1846
5 7 58 50.1766 -15.2868
5 7 59 20.4536 16.4549
5 7 60 -0.6806 -2.9857
5 7 61 0.0336 -6.3102
5 7 62 7.0152 3.6016
5 7 63 -0.5563 -0.8611
5 7 64 6.5611 -1.7039
5 9 0 41.2482 4.2569
5 9 1 -29.1949 37.9149
5 9 2 -13.5321 -22.1716
5 9 3 7.3659 33.2554
5 9 4 50.0908 -72.4901
5 9 5 -31.5090 -29.3967
5 9 6 -36.0757 -57.6884
5 9 7 -2.9697 -41.5310
5 9 8 93.7164 0.9654
5 9 9 13.2747 -22.9485
5 9 10 -52.9768 -0.9966
5 9 11 17.1223 79.6846
5 9 12 -34.2723 63.5088
5 9 13 -51.5895 22.7696
5 9 14 10.8401 -14.7081
5 9 15 -35.8431 -15.0801
5 9 16 -13.4899 -35.1814
5 9 17 -40.4194 4.9823
5 9 18 27.4266 37.2309
5 9 19 -11.9210 57.6587
5 9 20 -11.1559 -26.6848
5 9 21 0.7234 -35.4176
5 9 22 -0.2357 -5.5392
5 9 23 -9.0194 -15.2805
5 9 24 7.7829 -15.6986
5 9 25 13.2042 36.5311
5 9 26 -64.2299 -17.0053
5 9 27 25.6929 -52.1092
5 9 28 -22.8800 17.2714
5 9 29 23.9583 -84.0578
5 9 30 -99.3924 57.1311
5 9 31 48.2397 -116.9649
5 9 32 58.1047 -36.2678
5 9 33 -47.3189 36.8100
5 9 34 -23.7060 -20.8577
5 9 35 0.8363 59.1734
5 9 36 -25.9760 -2.9565
5 9 37 25.6334 -21.7234
5 9 38 -20.9933 -1.7707
5 9 39 0.2328 14.0743
5 9 40 3.8136 -8.7317
5 9 41 -16.0911 30.0018
5 9 42 17.0582 10.6274
5 9 43 3.4876 36.3427
5 9 44 8.3359 28.6550
5 9 45 -3.7762 -10.1354
5 9 46 6.3600 -12.6821
5 9 47 -12.7176 -16.4106
5 9 48 12.2599 3.8993
5 9 49 -2.2825 -6.3608
5 9 50 4.7705 25.7048
5 9 51 32.9831 -11.3109
5 9 52 -11.0102 -1.6466
5 9 53 -0.1932 0.7753
5 9 54 -14.2827 9.9200
5 9 55 9.3628 -22.1101
5 9 56 -11.3031 2.9713
5 9 57 -19.9863 -1.7332
5 9 58 -6.5240 -1.7140
5 9 59 10.5843 -1.3483
5 9 60 -12.9870 -1.1986
5 9 61 -2.5195 6.1720
5 9 62 -5.4457 6.8678
5 9 63 -3.2072 -5.4107
5 9 64 -1.7799 4.4972
5 9 65 -7.8086 -10.0147
5 9 66 6.9005 -4.7839
5 9 67 -0.0002 4.2685
5 9 68 -5.2341 -1.9512
5 9 69 6.1308 0.4238
5 9 70 -7.8559 3.5950
5 11 0 79.0482 -3.9060
5 11 1 5.2330 34.6202
5 11 2 61.8643 -12.0797
5 11 3 45.9482 -73.3076
5 11 4 48.5933 -36.8885
5 11 5 21.8739 -12.5383
5 11 6 27.9611 78.8662
5 11 7 75.3112 76.8542
5 11 8 -21.7673 61.7042
5 11 9 -0.0586 1.8970
5 11 10 1.8184 74.2653
5 11 11 48.6205 -3.0305
5 11 12 33.3751 27.7174
5 11 13 -46.4237 11.9379
5 11 14 -54.5719 -20.8856
5 11 15 66.8576 122.3282
5 11 16 -75.4828 -30.6413
5 11 17 14.6756 -25.4632
5 11 18 19.5607 1.1698
5 11 19 40.3522 -95.0416
5 11 20 -48.8535 16.0617
5 11 21 31.4111 51.8351
5 11 22 -19.2847 32.7517
5 11 23 20.1024 -82.6042
5 11 24 -9.3552 -25.4536
5 11 25 67.1835 -15.3312
5 11 26 34.7761 27.6316
5 11 27 57.6240 17.9330
5 11 28 2.3157 -56.2462
5 11 29 74.8117 -56.5430
5 11 30 -16.9610 -7.8382
5 11 31 -100.6271 -40.5666
5 11 32 55.2376 -2.8240
5 11 33 44.0106 -40.3816
5 11 34 26.0292 -45.3424
5 11 35 -15.2578 19.2328
5 11 36 -30.5609 -12.8511
5 11 37 25.6890 -16.2763
5 11 38 -2.2825 25.4252
5 11 39 -3.6588 -10.6072
5 11 40 -6.8594 0.7363
5 11 41 41.9195 24.2099
5 11 42 20.8356 44.4819
5 11 43 -13.3032 7.8368
5 11 44 4.5594 -12.8598
5 11 45 -14.4195 -45.2739
5 11 46 38.2749 0.9728
5 11 47 -8.3450 11.5080
5 11 48 -10.8972 6.5053
5 11 49 0.2337 8.9063
5 11 50 -12.9973 -16.0393
5 11 51 -0.6885 19.8402
5 11 52 -16.9834 3.7749
5 11 53 -1.5607 23.6722
5 11 54 -2.2565 -13.1845
5 11 55 2.4770 -14.1051
5 11 56 0.8484 -6.0404
5 11 57 6.4112 -2.5392
5 11 58 14.7220 -6.0849
5 11 59 -3.2124 -7.6634
5 11 60 -6.7865 -0.2749
5 11 61 7.2049 -1.1055
5 11 63 -9.3974 4.0177
5 11 64 2.5155 -1.3735
5 11 65 -5.2300 3.2644
5 11 66 3.7256 0.4694
5 11 67 -2.0164 2.3107
5 11 68 -2.9160 -2.8526
5 11 69 19.4078 -0.1537
5 13 0 1.8987 0.0747
5 13 1 -18.9923 41.4050
5 13 2 46.4788 32.3039
5 13 3 -0.3794 -18.7564
5 13 4 -58.3061 -5.1824
5 13 5 66.1968 12.2122
5 13 6 -53.3219 -36.2078
5 13 7 57.5511 45.5840
5 13 8 -19.6764 -13.8106
5 13 9 -3.7255 7.8057
5 13 10 38.0987 5.2429
5 13 11 -8.8174 -0.4150
5 13 12 2.9282 -51.4074
5 13 13 -2.4988 2.8540
5 13 14 -89.0710 -69.9583
5 13 15 13.2547 22.7147
5 13 16 25.9128 31.8272
5 13 17 13.4459 82.3740
5 13 18 -37.5761 -37.8069
5 13 19 -13.0606 -20.1312
5 13 20 -21.4878 -23.2558
5 13 21 14.7062 26.7540
5 13 22 -6.8555 -4.2844
5 13 23 -2.2718 -49.6764
5 13 24 -97.2332 37.3920
5 13 25 -2.0343 -9.0499
5 13 26 44.2973 -82.6455
5 13 27 -1.2851 -11.4679
5 13 28 -30.5710 6.2526
5 13 29 -4.1772 -23.0362
5 13 30 21.3357 33.5088
5 13 31 -13.7431 7.6511
5 13 32 -0.5435 44.7985
5 13 33 -21.9771 -24.6866
5 13 34 -12.7969 15.9814
5 13 35 -39.9888 35.3548
5 13 36 22.7426 -23.5325
5 13 37 -20.5062 -18.9310
5 13 38 -19.3503 -3.3343
5 13 39 9.2672 -7.5141
5 13 40 9.8246 -6.5968
5 13 41 -8.5155 -10.4832
5 13 42 5.0299 7.4692
5 13 43 11.6161 15.6547
5 13 44 7.5070 -14.4258
5 13 45 9.9143 21.7330
5 13 46 -16.8837 -8.0560
5 13 47 6.8083 -2.3291
5 13 48 7.0043 9.0480
5 13 49 -3.9780 -7.6968
5 13 50 -25.7248 7.2072
5 13 51 -11.9509 8.1735
5 13 52 -17.0864 36.7393
5 13 53 2.6167 5.9404
5 13 54 -6.9641 8.4018
5 13 55 -8.2930 -4.5319
5 13 56 -13.6269 1.1693
5 13 57 16.1153 -2.3623
5 13 58 10.6052 -3.7354
5 13 59 1.8713 -8.0447
5 13 60 6.3641 5.5141
5 13 61 3.7893 -1.7599
5 13 62 -4.2358 -6.6538
5 13 63 -3.8724 -1.8559
5 13 64 5.0149 -10.3714
5 13 65 6.8801 23.1546
5 13 66 -0.9339 0.2458
5 13 67 -6.5262 -11.7368
5 13 68 -16.6744 0.0699
5 13 69 -2.4697 18.7803
5 13 70 -1.5817 -5.6839
5 15 0 18.4553 -0.3695
5 15 1 32.6341 0.3086
5 15 2 41.2430 6.9983
5 15 3 -29.8087 -3.1047
5 15 4 -42.4780 -7.6702
5 15 5 -25.8650 -41.4421
5 15 6 29.7043 -81.5034
5 15 7 54.8599 -36.7870
5 15 8 -17.3861 -25.2925
5 15 9 34.0989 -34.3781
5 15 10 16.6828 -46.8706
5 15 11 -12.3361 -3.7465
5 15 12 -11.4316 21.1192
5 15 13 -2.1438 55.7490
5 15 14 -9.4286 -53.9898
5 15 15 38.0135 50.0715
5 15 16 -12.4622 28.5497
5 15 17 86.6509 52.9336
5 15 18 -15.0903 -11.6615
5 15 19 35.7368 48.0584
5 15 20 25.1843 30.4429
5 15 21 9.4378 -21.9077
5 15 22 -12.2873 -58.6017
5 15 23 4.2182 -67.2636
5 15 24 71.9567 -12.6341
5 15 25 52.7790 -46.7296
5 15 26 -18.4988 -31.9999
5 15 27 -25.0673 46.7036
5 15 28 23.8619 -2.7391
5 15 29 33.3019 -53.8483
5 15 30 -4.1247 -43.1917
5 15 31 26.8620 34.5532
5 15 32 4.0738 39.7589
5 15 33 18.3678 26.4741
5 15 34 -15.7850 -1.5717
5 15 35 11.4643 13.2609
5 15 36 -0.7002 4.3650
5 15 37 47.6265 37.0610
5 15 38 -13.3862 -4.9401
5 15 39 -3.1415 -23.8708
5 15 40 -27.6337 -2.6831
5 15 41 10.1450 -33.4316
5 15 42 4.7331 -4.2453
5 15 43 17.2262 -13.3155
5 15 44 18.6785 -2.7403
5 15 45 21.6351 -22.3823
5 15 46 8.0088 -31.2633
5 15 47 -21.2273 -10.3679
5 15 48 -17.2336 11.1327
5 15 49 -4.9543 -10.3454
5 15 50 -17.2048 -6.5053
5 15 51 10.6193 14.5233
5 15 52 3.0421 10.6874
5 15 53 -1.0680 21.5052
5 15 54 -8.7988 -16.6313
5 15 55 4.6750 -3.4042
5 15 56 -7.0889 -3.8431
5 15 57 7.0373 6.7154
5 15 58 0.6479 3.2910
5 15 59 4.9107 -0.7192
5 15 60 -3.8034 -6.4097
5 15 61 -1.5377 -5.9067
5 15 62 4.8449 -6.0597
5 15 63 -10.7992 -7.5689
5 15 64 -10.2533 18.3308
5 15 65 1.9929 17.5138
5 15 66 -2.1466 25.2849
5 15 67 11.2201 -22.3001
5 15 68 -2.9982 11.4209
5 17 0 -56.1220 1.7294
5 17 1 26.2564 32.5991
5 17 2 27.1613 -5.3957
5 17 3 38.9389 17.4881
5 17 4 -71.2863 17.4242
5 17 5 -9.0791 -46.1866
5 17 6 77.8456 -2.1468
5 17 7 -26.4657 -17.9669
5 17 8 27.2711 15.6025
5 17 9 -35.8798 6.1242
5 17 10 -24.9099 77.4088
5 17 11 -36.8947 -11.1607
5 17 12 -38.6639 -7.3154
5 17 13 -53.8865 10.3740
5 17 14 14.1143 -45.3914
5 17 15 -17.6584 -21.7945
5 17 16 -58.5775 -29.2707
5 17 17 22.3742 15.9529
5 17 18 13.1928 -4.9565
5 17 19 2.4076 0.6045
5 17 20 15.0074 31.9226
5 17 21 -21.3324 -28.2188
5 17 22 10.5860 -34.8595
5 17 23 -6.1828 -3.7896
5 17 24 14.3995 -7.3761
5 17 25 5.5370 -9.4493
5 17 26 1.4063 21.8328
5 17 27 36.4288 8.5353
5 17 28 -1.7934 -0.6801
5 17 29 11.7318 52.9233
5 17 30 0.5854 15.8635
5 17 31 48.1285 -3.6516
5 17 32 19.5848 -2.7959
5 17 33 5.7474 -9.1708
5 17 34 -5.2337 37.8494
5 17 35 -2.9501 -3.8487
5 17 36 13.8274 2.8944
5 17 37 -15.2187 11.3989
5 17 38 2.4752 -10.3273
5 17 39 19.0975 -23.6884
5 17 40 -35.8093 -14.4801
5 17 41 18.3928 -24.9189
5 17 42 -14.2017 -7.6804
5 17 43 10.3395 -12.6258
5 17 44 9.3355 -1.4213
5 17 45 -4.0602 -10.3202
5 17 46 15.1922 5.2346
5 17 47 -2.7758 3.8831
5 17 48 -19.6838 -6.3528
5 17 49 6.3547 -2.1313
5 17 50 -8.6409 23.4046
5 17 51 2.2784 -0.4423
5 17 52 20.9670 -3.9284
5 17 53 12.0554 2.8656
5 17 54 14.5351 2.6900
5 17 55 -7.0896 2.3121
5 17 56 0.3742 -3.6462
5 17 57 -3.4584 0.9152
5 17 58 -3.9119 5.8048
5 17 59 -14.9642 -8.2011
5 17 60 -2.7067 1.7591
5 17 61 -13.4019 10.2625
5 17 62 -26.6399 29.9417
5 17 63 6.0715 3.8799
5 17 64 -22.5670 -7.8365
5 17 66 -52.2350 219.4286
5 19 1 -14.0736 -24.6856
5 19 2 19.9911 3.8771
5 19 3 13.2557 11.5935
5 19 4 -11.0429 -3.7318
5 19 5 -44.8229 19.7246
5 19 6 -44.7782 -40.5285
5 19 7 -45.7468 22.4881
5 19 8 -11.6027 3.6494
5 19 9 12.4410 19.9560
5 19 10 3.8897 -21.5703
5 19 11 12.1282 31.4805
5 19 12 11.3746 8.9550
5 19 13 30.5050 7.7353
5 19 14 -29.0162 1.9869
5 19 15 23.7973 -49.8150
5 19 16 29.1414 31.5246
5 19 17 -14.2423 3.7122
5 19 18 19.9690 19.3820
5 19 19 -13.0616 -24.9059
5 19 20 14.7935 1.3223
5 19 21 -49.5297 -1.9543
5 19 22 -2.2612 -12.9899
5 19 23 -27.5863 -86.3102
5 19 24 -30.1023 1.0503
5 19 25 -15.6030 21.2539
5 19 26 18.0162 1.7766
5 19 27 5.6163 -5.4361
5 19 28 -36.7951 -26.0935
5 19 29 -8.9546 3.8333
5 19 30 12.7120 3.5095
5 19 31 -36.7246 28.4328
5 19 32 -10.9034 -14.0918
5 19 33 3.0666 6.7351
5 19 34 20.8434 -14.4499
5 19 35 0.2746 7.6884
5 19 36 -3.1792 -15.5037
5 19 37 -33.3956 0.5576
5 19 38 8.7505 16.9254
5 19 39 -5.6721 -0.2880
5 19 40 7.7335 15.1684
5 19 41 41.2433 10.4028
5 19 42 -8.8690 2.4006
5 19 43 7.2856 6.9879
5 19 44 7.4396 -7.1198
5 19 45 -13.4305 5.4640
5 19 46 10.1052 6.6132
5 19 47 -4.4296 3.0716
5 19 48 -2.7679 17.6356
5 19 49 -20.5415 20.5002
5 19 50 -9.7665 2.8195
5 19 51 8.4107 7.2091
5 19 52 4.3270 -8.7082
5 19 53 -6.2795 -6.5517
5 19 54 -24.7590 13.5359
5 19 55 -0.1917 -5.5011
5 19 57 3.1477 3.6500
5 19 58 0.2521 10.0698
5 19 61 8.8662 13.1185
5 19 62 -15.9294 18.0045
5 19 63 -11.7612 -22.4599
5 19 64 -3.9883 13.3423
5 21 0 -7.1540 -4.7554
5 21 1 -3.2809 -55.5945
5 21 2 -20.3491 -2.5233
5 21 3 4.8680 11.1577
5 21 4 -16.8370 35.1816
5 21 5 28.8734 -51.0401
5 21 6 -1.3962 -18.6641
5 21 7 -0.1284 5.2126
5 21 8 -51.0496 6.6735
5 21 9 -2.3811 -8.1259
5 21 10 24.0564 12.4974
5 21 11 12.5644 -30.2161
5 21 12 29.1056 -22.7719
5 21 13 -15.9099 10.4016
5 21 14 -20.6842 -2.2364
5 21 15 1.9937 12.2857
5 21 16 -18.2114 27.2705
5 21 17 -40.1441 16.2882
5 21 18 4.7545 -19.4079
5 21 19 6.5047 21.5589
5 21 20 23.4545 26.3115
5 21 21 -8.7334 38.2232
5 21 22 -3.3577 -15.4496
5 21 23 -14.4455 3.5484
5 21 24 -43.4425 10.7159
5 21 25 16.7756 -25.0889
5 21 26 -11.2866 5.8490
5 21 27 25.7718 27.0911
5 21 28 35.7973 -34.3464
5 21 29 19.2690 46.6334
5 21 30 13.0929 29.7853
5 21 31 39.4876 27.1076
5 21 32 -36.4608 -5.3965
5 21 33 17.6206 -22.7216
5 21 34 -20.6141 -19.5847
5 21 35 8.3516 12.0874
5 21 36 -1.2390 -9.2795
5 21 37 -14.9026 11.4137
5 21 38 -10.1228 1.8909
5 21 39 17.5531 7.6431
5 21 40 5.0516 -7.4560
5 21 41 -2.7008 16.7592
5 21 42 8.3212 -7.0590
5 21 43 -11.7330 4.2473
5 21 44 7.3387 -6.4583
5 21 45 6.9306 13.5174
5 21 46 -4.8403 5.1885
5 21 47 -23.4571 -3.6730
5 21 48 10.9993 -8.1655
5 21 49 -4.4267 15.9971
5 21 50 -32.5069 2.7029
5 21 51 6.6224 -0.4863
5 21 52 7.2583 -3.9504
5 21 53 14.2919 -11.1742
5 21 54 -22.0092 -44.8907
5 23 0 23.0235 -0.9860
5 23 1 -20.1711 -10.7161
5 23 2 45.7033 1.7422
5 23 3 53.7557 -29.5545
5 23 4 -6.2818 -4.9266
5 23 5 -5.6542 -39.4706
5 23 6 10.4557 -24.3531
5 23 7 14.0025 0.6316
5 23 8 41.7900 23.7366
5 23 9 -28.0460 -24.7223
5 23 10 10.6975 -21.4040
5 23 11 -5.0186 -24.7932
5 23 12 23.2311 -8.2389
5 23 13 -27.1208 11.3504
5 23 14 0.8600 -39.6167
5 23 15 -10.0484 40.9364
5 23 16 -12.5139 -3.3039
5 23 17 -2.1935 -12.5853
5 23 18 -17.3992 11.3717
5 23 19 13.9856 -30.5855
5 23 20 37.7426 -15.0133
5 23 21 22.3205 -9.9471
5 23 22 -25.1008 36.1294
5 23 23 23.7510 5.8361
5 23 24 9.4733 8.3836
5 23 25 4.6667 -7.2300
5 23 26 -12.8476 12.8087
5 23 27 -8.3331 3.9766
5 23 28 6.8694 1.4888
5 23 29 16.1834 -5.6733
5 23 30 15.0419 -27.5988
5 23 31 3.4006 13.5187
5 23 32 8.2788 4.2516
5 23 33 -14.1491 -5.9625
5 23 34 6.6042 8.6104
5 23 35 33.6291 -35.7693
5 23 36 -19.6317 1.0297
5 23 37 -3.9859 9.8545
5 23 38 -11.4445 -8.4490
5 23 39 -1.8868 17.6830
5 23 40 -12.4216 -3.5528
5 23 41 9.4742 -2.5726
5 23 42 -7.1150 6.9212
5 23 43 -13.3287 -6.0898
5 23 44 18.5875 -5.2734
5 23 45 -6.6862 3.3526
5 23 46 3.6517 2.2497
5 23 47 -9.8254 4.2767
5 23 48 6.7477 23.0147
5 23 49 -5.7653 1.5958
5 23 50 -12.3970 8.1576
5 23 51 21.1767 -6.5410
5 23 52 9.9382 29.3797
5 23 53 -7.2028 -1.4830
5 23 54 3.3744 4.1347
5 23 55 7.4546 2.0936
5 23 56 8.4079 -2.5389
5 23 57 -20.1387 6.7743
5 23 58 -5.0510 2.1041
5 25 0 15.0471 3.0826
5 25 1 41.7393 1.8463
5 25 2 29.9215 -19.7113
5 25 3 14.7768 30.0623
5 25 4 11.5369 6.1616
5 25 5 44.5970 0.9642
5 25 6 15.7750 -25.8397
5 25 7 -8.1428 -11.4364
5 25 8 -2.5996 -21.3066
5 25 9 3.0264 9.0837
5 25 10 7.5069 8.5358
5 25 11 30.9031 -10.8762
5 25 12 -8.7755 14.1002
5 25 13 10.5755 10.7974
5 25 14 27.9069 26.9398
5 25 15 -16.9851 -19.5122
5 25 16 -1.0434 7.0643
5 25 17 -22.2715 -2.8456
5 25 18 52.9041 17.2357
5 25 19 5.1173 -5.7798
5 25 20 -26.1040 -27.5750
5 25 21 24.3560 3.4224
5 25 22 4.5085 -9.8265
5 25 23 -31.6709 29.0580
5 25 24 19.2241 0.2767
5 25 25 8.4553 4.5423
5 25 26 -2.2583 18.3675
5 25 27 8.4511 -27.7604
5 25 28 0.7213 12.4471
5 25 29 2.4853 24.8312
5 25 30 -19.1252 -0.0991
5 25 31 -1.1856 -13.9694
5 25 32 -10.6515 4.8001
5 25 33 14.9053 -12.5585
5 25 34 12.6669 -1.9386
5 25 35 4.3954 -9.4816
5 25 36 -14.6181 -14.5341
5 25 37 -0.3171 -11.2548
5 25 38 9.6140 4.0778
5 25 39 -8.8409 -10.6644
5 25 40 0.6350 -9.1046
5 25 41 6.7743 -8.0979
5 25 42 6.7117 -2.9861
5 25 43 -3.4964 0.2142
5 25 44 3.8708 -12.4254
5 25 45 -2.0236 16.8349
5 25 46 -15.8804 9.5960
5 25 47 18.2417 -14.2302
5 25 48 -16.5195 -4.4489
5 25 49 14.6713 -12.7095
5 25 50 -25.2627 -9.5290
5 25 51 0.3950 -12.9880
5 25 52 15.9203 -0.6608
5 27 0 -34.6469 0.6708
5 27 1 16.8035 -17.5471
5 27 2 4.0157 29.9858
5 27 3 -7.8070 -9.4575
5 27 4 -42.2074 32.5563
5 27 5 -30.4734 8.2215
5 27 6 3.2243 12.5732
5 27 7 -7.5876 -8.7404
5 27 8 39.2371 -29.2928
5 27 9 49.2005 -34.9989
5 27 10 -5.7196 -24.7857
5 27 11 44.9565 0.0651
5 27 12 8.6988 -12.4009
5 27 13 -8.3903 10.3725
5 27 14 28.9631 15.3996
5 27 15 3.2251 2.0465
5 27 16 27.1348 -6.6962
5 27 17 -1.0104 -2.5831
5 27 18 3.0131 -19.9388
5 27 19 29.7686 29.3394
5 27 20 -1.5955 9.5309
5 27 21 30.7748 26.8574
5 27 22 -12.6614 3.1064
5 27 23 -9.8623 -6.3318
5 27 24 -35.5296 31.3603
5 27 25 2.6863 14.5690
5 27 26 2.9567 -1.8592
5 27 27 8.5072 7.4280
5 27 28 -9.7849 33.9246
5 27 29 -7.6381 2.4972
5 27 30 47.2875 17.7581
5 27 31 -10.0182 -11.3815
5 27 32 4.9755 3.1176
5 27 33 7.0524 13.8394
5 27 34 18.9626 -12.7691
5 27 35 -7.2982 -3.6604
5 27 36 6.7799 17.9316
5 27 37 -13.8020 -2.7470
5 27 38 5.6546 -4.6114
5 27 39 -4.8399 -3.4220
5 27 40 -2.1246 -1.0604
5 27 41 11.6152 1.0652
5 27 42 -7.4722 7.7257
5 27 43 -15.9280 10.9460
5 27 44 0.9418 -11.1433
5 29 0 -0.6046 -1.2577
5 29 1 -19.5905 15.1578
5 29 2 0.4805 4.8012
5 29 3 3.1385 12.0242
5 29 4 -7.4798 -4.8664
5 29 5 16.5937 12.2326
5 29 6 4.0285 22.8655
5 29 7 -0.3477 -21.9566
5 29 8 0.5236 6.0698
5 29 9 4.3338 -18.8583
5 29 10 -24.1422 3.1504
5 29 11 11.0478 -13.4786
5 29 12 -8.4377 0.8083
5 29 13 -0.0309 10.2160
5 29 14 -19.6704 0.8754
5 29 15 -1.5800 10.0307
5 29 16 -6.5822 9.3257
5 29 17 1.6943 2.2403
5 29 18 -3.6491 -6.4719
5 29 19 0.5401 -2.3349
5 29 20 7.3447 -6.0802
5 29 21 1.8975 -0.7913
5 29 22 1.3944 42.1678
5 29 23 -11.9599 0.6165
5 29 24 -9.9777 10.6571
5 29 25 5.4657 -11.3604
5 29 26 4.3430 15.4189
5 29 27 8.6921 13.3413
5 29 28 8.2540 -1.2587
5 29 29 -18.2824 9.0529
5 29 30 0.5313 -14.2628
5 29 31 10.4664 6.3266
5 29 32 -9.6047 -3.4156
5 29 33 -0.9998 -5.0055
5 29 34 5.6639 -4.4952
5 29 35 7.6570 -5.1028
5 29 36 3.9413 -5.7057
5 29 37 0.3481 -11.7911
5 29 38 0.5270 -4.6633
5 29 39 6.4920 10.0542
5 29 40 8.4933 -10.1443
5 29 41 1.1956 5.0144
5 29 42 12.5573 12.3841
5 31 0 9.0178 -1.0854
5 31 1 -14.7227 3.1337
5 31 2 -15.7531 0.3143
5 31 3 -0.2626 -12.1201
5 31 4 1.3865 -37.3797
5 31 5 5.3401 -1.8105
5 31 6 17.7214 -11.0607
5 31 7 17.5156 22.7754
5 31 8 12.5638 -11.6105
5 31 9 4.5147 -2.1693
5 31 10 -10.0613 4.4879
5 31 11 -1.9712 3.6656
5 31 12 4.0351 -6.6424
5 31 13 27.6683 12.0799
5 31 14 -7.6866 10.7674
5 31 15 7.3021 -8.2503
5 31 16 19.9182 -7.2816
5 31 17 31.8696 11.6433
5 31 18 -3.3264 -11.1869
5 31 19 6.0037 8.9585
5 31 20 5.3914 3.2896
5 31 21 -24.4975 -4.4012
5 31 22 0.1803 -4.6738
5 31 23 -10.7529 2.4684
5 31 24 -4.0745 3.1021
5 31 25 -3.7510 -18.0572
5 31 26 -6.4313 -21.4487
5 31 27 4.7726 -16.7529
5 31 28 -19.2583 -14.8867
5 31 29 -0.9542 -7.2606
5 31 30 4.3010 10.7491
5 31 31 6.3110 -16.3871
5 31 32 -1.6135 -0.8471
5 31 33 -14.8864 -3.4611
5 31 34 -3.3049 -0.9312
5 31 35 5.0447 12.9826
5 31 36 12.5373 12.7684
5 31 37 5.2298 -4.5706
5 31 38 23.1032 6.4809
5 33 0 22.6807 -0.0369
5 33 1 7.7170 -23.3676
5 33 2 13.4867 -9.5885
5 33 3 -19.0218 -20.8322
5 33 4 -1.6794 0.1443
5 33 5 5.6508 -2.5157
5 33 6 -13.7380 17.0666
5 33 7 6.2653 0.0998
5 33 8 5.6411 -1.4121
5 33 9 -8.2194 9.8527
5 33 10 -20.8339 5.6835
5 33 11 -2.1028 -3.1851
5 33 12 -7.7885 18.1116
5 33 13 -8.9292 -20.1932
5 33 14 3.4898 10.1331
5 33 15 -2.8722 10.7531
5 33 16 1.7176 1.4545
5 33 17 -3.0902 6.4556
5 33 18 11.0987 23.1279
5 33 19 2.2137 -1.4875
5 33 20 0.3300 -1.4609
5 33 21 6.0813 -6.8586
5 33 22 -0.7360 4.8013
5 33 23 15.5617 6.0432
5 33 24 -15.5852 -6.9131
5 33 25 6.6224 -4.4127
5 33 26 -3.5756 -10.5806
5 33 27 8.7279 -3.5127
5 33 28 -2.3610 12.1978
5 33 29 -6.2455 -2.9210
5 33 30 -3.3588 -2.8297
5 33 31 -5.4565 10.9730
5 33 32 21.5756 27.9774
5 35 0 0.4232 2.6643
5 35 1 -13.5432 -2.7391
5 35 2 -10.2686 1.1838
5 35 3 5.3473 -6.0573
5 35 4 -4.2893 -5.8359
5 35 5 -1.7336 5.4935
5 35 6 2.2772 -4.3105
5 35 7 -1.8409 8.0016
5 35 8 24.3141 15.5346
5 35 9 -0.6603 -14.3349
5 35 10 -6.1136 -12.2435
5 35 11 -6.4646 -1.8966
5 35 12 -6.0829 -5.0329
5 35 13 12.3839 0.9419
5 35 14 2.3360 -0.7420
5 35 15 -12.3947 5.6005
5 35 16 -12.8056 -16.2174
5 35 17 13.8009 -8.1586
5 35 18 4.3842 -9.1833
5 35 19 -0.8742 -11.1440
5 35 20 2.5036 2.0409
5 35 21 1.6573 -0.6432
5 35 22 0.4094 -7.5166
5 35 23 6.2768 2.7748
6 0 0 77.2274 -0.9200
6 0 1 1.0681 112.1121
6 0 2 257.1034 0.5221
6 0 3 -0.1110 -82.0553
6 0 4 -120.9349 0.5868
6 0 5 -2.2883 -30.7868
6 0 6 -0.0705 -4.0449
6 0 7 1.2883 18.3753
6 0 8 35.3251 -0.7571
6 0 9 3.1928 -76.7023
6 0 10 15.3556 5.1543
6 0 11 -3.0006 -91.6147
6 0 12 59.3468 0.1982
6 0 13 -3.6393 -117.0879
6 0 14 106.5591 -4.6342
6 0 15 3.8985 -59.8701
6 0 16 55.3828 0.4120
6 0 17 2.7259 -75.9746
6 0 18 -13.0091 3.5550
6 0 19 -2.9583 9.7078
6 0 20 -19.1051 -0.8337
6 0 21 -1.0407 37.0682
6 0 22 -66.5197 -1.8982
6 0 23 1.0685 -9.6283
6 0 24 -65.4662 0.9480
6 0 25 -0.3870 -7.9046
6 0 26 -8.4811 0.4772
6 0 27 0.5761 53.2343
6 0 28 33.0155 -0.6888
6 0 29 0.8591 -43.9403
6 0 30 10.0105 0.4794
6 0 31 -1.2828 -47.4185
6 0 32 25.3205 0.2436
6 0 33 -0.6713 -7.5316
6 0 34 -16.8695 -0.9914
6 0 35 1.0146 -5.7041
6 0 36 -20.6402 0.2622
6 0 37 0.3318 -26.9238
6 0 38 -9.1087 1.1573
6 0 39 -0.2886 0.0381
6 0 40 12.1643 -0.5339
6 0 41 -0.1680 -8.7165
6 0 42 21.9948 -0.8659
6 0 43 -0.0198 18.2782
6 0 44 -12.6511 0.5781
6 0 45 0.1901 -10.5561
6 0 46 8.4166 0.6207
6 0 47 -0.1093 -7.0353
6 0 48 2.5761 -0.4875
6 0 49 -0.1907 21.7497
6 0 50 -8.5632 -0.3482
6 0 51 0.5099 20.0053
6 0 52 12.1715 0.1423
6 0 53 0.1672 9.9106
6 0 54 -28.4857 0.0455
6 0 55 -0.8517 -16.3637
6 0 56 -12.9318 0.2249
6 0 57 0.0000 -5.1705
6 0 58 26.1989 0.1486
6 0 59 0.8183 2.8036
6 0 60 7.8981 -0.3860
6 0 61 -0.1420 9.3207
6 0 62 -23.0951 -0.1834
6 0 63 -0.5535 -5.0176
6 0 64 -15.3699 0.3527
6 0 65 0.2084 -10.6920
6 0 66 9.2512 0.1290
6 2 0 18.8940 -1.5863
6 2 1 -107.7092 -35.3924
6 2 2 86.5940 94.4756
6 2 3 16.5211 -7.1305
6 2 4 37.3732 41.7584
6 2 5 14.6003 76.3495
6 2 6 17.7681 -97.9507
6 2 7 -23.3639 16.7811
6 2 8 6.3095 -135.3388
6 2 9 46.1581 26.2614
6 2 10 -66.0026 -99.5718
6 2 11 155.7078 -10.4788
6 2 12 -30.1205 -93.4719
6 2 13 -14.4017 36.4611
6 2 14 -67.7752 87.2726
6 2 15 39.4555 41.0625
6 2 16 -35.7381 -17.4668
6 2 17 5.5878 -14.8034
6 2 18 15.8298 82.1467
6 2 19 46.6150 -43.1146
6 2 20 -7.2314 -12.3363
6 2 21 -75.5513 -0.3237
6 2 22 46.0189 64.9679
6 2 23 40.1874 52.7834
6 2 24 41.0164 -95.0556
6 2 25 -29.0195 34.6002
6 2 26 33.6177 -20.5695
6 2 27 28.2373 39.2531
6 2 28 70.9337 110.9553
6 2 29 -3.0707 124.1487
6 2 30 19.7442 21.7617
6 2 31 -47.8803 -4.8813
6 2 32 -33.1984 -24.1325
6 2 33 -67.0148 -36.4866
6 2 34 52.7589 5.9696
6 2 35 -52.5256 41.7455
6 2 36 9.7714 9.8054
6 2 37 12.0691 -1.0294
6 2 38 19.3175 5.3548
6 2 39 -2.4969 -1.4766
6 2 40 -34.8725 53.8863
6 2 41 31.1568 4.4979
6 2 42 11.3517 15.8634
6 2 43 28.5566 68.0849
6 2 44 48.2107 -7.8048
6 2 45 5.8076 -18.7299
6 2 46 -3.6370 -21.2123
6 2 47 6.1031 -41.0413
6 2 48 12.9090 -7.6211
6 2 49 -19.8953 -9.2990
6 2 50 16.2533 -28.5849
6 2 51 -13.0990 -3.5390
6 2 52 -27.0156 18.0764
6 2 53 6.7284 -5.8493
6 2 54 -21.4144 1.2967
6 2 55 20.8462 -30.4892
6 2 56 -17.8658 13.3975
6 2 57 -6.2620 10.1787
6 2 58 -13.1838 -8.0387
6 2 59 9.8872 2.2103
6 2 60 14.4168 -4.1150
6 2 61 6.4448 21.1261
6 2 62 -0.2812 9.3012
6 2 63 9.4407 -20.6025
6 2 64 5.5889 4.4559
6 2 65 -6.9419 8.0470
6 2 66 -2.5482 -5.8522
6 4 0 -7.8520 3.3609
6 4 1 -30.4553 13.8771
6 4 2 -71.0728 56.8953
6 4 3 1.4406 20.7826
6 4 4 -102.2378 -62.1946
6 4 5 -72.8551 107.1791
6 4 6 41.9981 69.2759
6 4 7 53.3734 42.6214
6 4 8 -26.3576 124.3020
6 4 9 -40.9502 48.3071
6 4 10 -82.1124 63.6391
6 4 11 19.1737 142.7809
6 4 12 2.6359 64.6088
6 4 13 -78.0782 -9.7394
6 4 14 3.3868 12.4584
6 4 15 -57.1235 -44.1417
6 4 16 -33.9517 21.9539
6 4 17 -30.2140 33.1368
6 4 18 -32.7449 -39.8294
6 4 19 6.3679 -26.7353
6 4 20 5.1125 20.2725
6 4 21 6.1008 -54.4842
6 4 22 22.3373 50.5497
6 4 23 -6.5639 -105.0265
6 4 24 18.1594 55.4291
6 4 25 27.1525 4.8401
6 4 26 8.2305 -7.3743
6 4 27 34.0408 -55.3420
6 4 28 -39.6518 5.1119
6 4 29 94.5917 -18.5617
6 4 30 21.6861 -13.9678
6 4 31 1.0692 -1.7016
6 4 32 50.8369 -14.5449
6 4 33 11.4928 -16.2213
6 4 34 -18.6493 -32.5359
6 4 35 6.0330 -3.2234
6 4 36 -60.0324 5.1745
6 4 37 27.4000 -14.2568
6 4 38 63.9569 52.8243
6 4 39 -29.1257 11.2383
6 4 40 -20.1336 -31.6341
6 4 41 -17.9241 12.5774
6 4 42 -11.3370 27.1389
6 4 43 -2.2835 -18.0884
6 4 44 -5.1688 13.3523
6 4 45 12.2681 11.9617
6 4 46 -4.0367 -14.6830
6 4 47 -12.6630 -16.0569
6 4 48 3.7664 -6.5007
6 4 49 12.2213 7.4841
6 4 50 -5.4639 -6.5779
6 4 51 38.1311 -10.7994
6 4 52 -12.9387 -2.5807
6 4 53 8.1521 0.3638
6 4 54 -12.2874 6.4841
6 4 55 -11.7116 3.5873
6 4 56 1.8281 -15.0706
6 4 57 -0.0398 -13.7210
6 4 58 -4.5535 10.9149
6 4 59 -3.4825 13.1717
6 4 60 -3.0089 -12.7323
6 4 61 8.5636 0.4876
6 4 62 5.4061 -1.5301
6 4 63 -3.2448 -3.9110
6 4 64 5.1330 3.2450
6 4 65 -6.0715 2.5491
6 4 66 9.9950 0.6033
6 4 67 1.2548 -0.8463
6 4 68 3.4392 -3.5495
6 4 69 9.0381 11.6119
6 4 70 7.3555 -0.5204
6 4 71 -15.6214 3.8001
6 6 0 -0.9890 0.5441
6 6 1 65.9436 73.9729
6 6 2 -57.8314 -7.7527
6 6 3 156.4430 109.1197
6 6 4 -3.8005 46.4670
6 6 5 -1.2856 17.6539
6 6 6 -107.0354 24.5820
6 6 7 116.9602 55.0513
6 6 8 -43.8845 -32.2003
6 6 9 -44.1299 8.3155
6 6 10 17.3761 96.9831
6 6 11 8.4482 -36.8340
6 6 12 15.9292 -8.9986
6 6 13 -85.6003 -0.3018
6 6 14 7.6802 -56.7835
6 6 15 -19.7964 -38.4203
6 6 16 -15.3544 19.0003
6 6 17 -20.4835 25.8130
6 6 18 -58.0598 41.6289
6 6 19 -50.4149 -50.1836
6 6 20 -83.1028 -2.5763
6 6 21 50.9845 -64.9378
6 6 22 45.6123 -52.2214
6 6 23 65.0027 -55.6629
6 6 24 21.5253 -6.0560
6 6 25 -4.0372 16.2497
6 6 26 -29.5795 -21.4360
6 6 27 -11.2807 2.8535
6 6 28 -23.5638 -35.8005
6 6 29 -13.5743 -17.3615
6 6 30 28.4066 -28.6951
6 6 31 9.2156 -15.7307
6 6 32 -109.7081 -26.3484
6 6 33 -10.8473 15.8764
6 6 34 -59.2984 97.9239
6 6 35 -1.9518 45.6578
6 6 36 19.0148 -19.0254
6 6 37 28.0658 9.9874
6 6 38 -58.6479 32.7575
6 6 39 17.7897 12.3129
6 6 40 -55.8581 4.1910
6 6 41 -9.4685 -18.7575
6 6 42 4.1303 9.4643
6 6 43 1.5563 16.1933
6 6 44 2.6457 29.4934
6 6 45 27.6556 36.7682
6 6 46 15.0222 -11.6771
6 6 47 -2.0302 9.8392
6 6 48 -15.2702 25.3764
6 6 49 -19.3923 -48.2379
6 6 50 29.8098 25.3361
6 6 51 13.8586 19.0008
6 6 52 -22.6927 -3.7875
6 6 53 10.2306 -11.2254
6 6 54 7.6901 4.7081
6 6 55 1.2587 12.8289
6 6 56 17.9516 3.5591
6 6 57 -5.8184 0.2903
6 6 58 2.7219 -10.6083
6 6 59 -6.3712 6.3626
6 6 60 -0.0665 -11.6233
6 6 61 1.0424 -0.9216
6 6 62 -0.5780 -1.1609
6 6 63 6.3730 -14.7589
6 6 66 -2.9365 -2.0268
6 6 67 -1.5546 1.1162
6 6 68 8.5862 1.9087
6 6 69 -2.6266 0.6097
6 6 70 -32.5582 -4.8299
6 8 0 -7.2010 0.0399
6 8 1 -52.8217 0.3830
6 8 2 95.3040 63.1924
6 8 3 -20.0670 -4.2647
6 8 4 50.2766 3.2832
6 8 5 -0.1847 26.1148
6 8 6 -4.6086 -8.7221
6 8 7 -15.8334 -66.2064
6 8 8 -46.9617 -50.2024
6 8 9 52.4361 -39.2905
6 8 10 -3.5824 27.4458
6 8 11 -45.1896 0.7541
6 8 12 80.8034 12.5242
6 8 13 102.7614 -0.8622
6 8 14 -68.2276 -4.4178
6 8 15 40.4365 -52.6846
6 8 16 6.9502 7.0272
6 8 17 92.5309 22.5587
6 8 18 37.4039 50.1532
6 8 19 9.0836 20.8712
6 8 20 12.7148 -9.6890
6 8 21 -17.8961 -28.1477
6 8 22 -45.7751 -78.2036
6 8 23 -2.8755 -75.2990
6 8 24 -18.6730 -20.9619
6 8 25 -29.6121 -24.7934
6 8 26 1.6510 -30.4921
6 8 27 -38.8708 12.4525
6 8 28 -12.7112 -43.4189
6 8 29 7.1504 6.1093
6 8 30 -57.7760 -30.5439
6 8 31 20.2045 44.7144
6 8 32 13.2198 2.1197
6 8 33 -1.4483 -13.6325
6 8 34 33.0107 -44.5769
6 8 35 -29.0126 129.0130
6 8 36 18.9627 -19.1721
6 8 37 2.0805 13.7266
6 8 38 -61.9423 -7.3017
6 8 39 -10.2513 -18.7989
6 8 40 -4.7248 -6.3326
6 8 41 18.5695 -1.3813
6 8 42 -16.1195 -15.3893
6 8 43 -5.9209 1.0062
6 8 44 -30.2648 2.0316
6 8 45 -6.6838 -3.8586
6 8 46 7.1250 3.6987
6 8 47 -6.7473 2.7755
6 8 48 -3.2119 2.9184
6 8 49 -12.8581 -25.4256
6 8 50 14.3697 -6.3751
6 8 51 6.9524 12.7954
6 8 52 10.4418 -6.3895
6 8 53 -4.9425 -15.9759
6 8 54 1.7043 8.2204
6 8 55 -4.4212 6.8615
6 8 56 -8.3754 -8.1552
6 8 57 1.6996 1.2611
6 8 58 -2.5555 -12.7239
6 8 59 17.6915 4.8164
6 8 60 1.9842 20.2494
6 8 61 9.3658 -0.2265
6 8 62 4.0117 -28.1259
6 8 68 0.6018 8.9943
6 8 69 -1.1865 -0.8496
6 8 70 -11.1665 -4.6587
6 10 0 -31.7878 -1.1222
6 10 1 -61.0337 12.5899
6 10 2 -8.8960 -82.4473
6 10 3 -15.7845 10.0042
6 10 4 38.6328 48.3145
6 10 5 -43.9024 17.5119
6 10 6 11.9115 -36.6621
6 10 7 22.8889 17.5300
6 10 8 22.1622 4.2318
6 10 9 16.4696 -59.0357
6 10 10 -32.8325 -53.2680
6 10 11 31.8452 47.5693
6 10 12 2.6375 31.8026
6 10 13 -3.6185 -25.2086
6 10 14 2.9385 20.5077
6 10 15 3.8156 6.9135
6 10 16 23.4394 -34.9742
6 10 17 58.1911 22.6482
6 10 18 -24.0272 -14.0646
6 10 19 -2.3715 -26.3388
6 10 20 36.0930 12.4523
6 10 21 -27.1583 -47.1016
6 10 22 16.4226 38.8774
6 10 23 9.4127 -8.4640
6 10 24 -13.7306 -18.0739
6 10 25 -34.5815 -62.5022
6 10 26 14.9266 1.7887
6 10 27 -45.3740 7.1878
6 10 28 30.8512 -31.0835
6 10 29 36.3307 26.6790
6 10 30 -6.6846 -32.8289
6 10 31 72.0646 10.1717
6 10 32 59.6243 -38.3223
6 10 33 43.5724 6.5092
6 10 34 44.9361 -26.9756
6 10 35 9.4269 -1.4139
6 10 36 -18.7302 21.0471
6 10 37 61.2452 48.9705
6 10 38 1.1517 7.3885
6 10 39 -31.9789 12.0165
6 10 40 -3.5857 -1.4356
6 10 41 10.9868 -3.5758
6 10 42 -7.2113 -23.1566
6 10 43 25.4863 -11.3180
6 10 44 -5.1477 9.2572
6 10 45 -23.2710 22.5162
6 10 46 -1.3544 -1.9082
6 10 47 -9.1234 1.8678
6 10 48 11.2768 9.7066
6 10 49 -19.1302 -19.2424
6 10 50 -6.8784 -18.7994
6 10 51 14.7464 4.7380
6 10 52 -18.0822 4.7899
6 10 53 -4.1703 -15.6112
6 10 54 9.7420 -8.9251
6 10 55 -1.7785 -17.5752
6 10 56 -17.9942 1.1153
6 10 57 20.9111 1.5968
6 10 58 -9.3192 11.4896
6 10 59 -0.8551 -3.1296
6 10 60 -5.7599 12.7267
6 10 61 6.6809 -2.3133
6 10 62 -5.6978 -7.5836
6 10 63 2.1610 3.3255
6 10 64 -5.9432 5.3485
6 10 65 -8.1561 -2.6243
6 10 66 -5.6686 10.6328
6 10 67 0.1135 1.6767
6 10 68 -5.9638 2.2570
6 12 0 -27.3551 -2.4533
6 12 1 -15.5635 20.0892
6 12 2 -27.7680 41.9647
6 12 3 -24.5957 -47.6982
6 12 4 8.6745 24.8829
6 12 5 23.3266 85.5681
6 12 6 32.5568 32.8667
6 12 7 -43.9664 61.8020
6 12 8 16.8780 32.2143
6 12 9 1.4958 19.0351
6 12 10 -43.4571 2.8156
6 12 11 -77.4818 -41.6650
6 12 12 3.8841 -37.6565
6 12 13 -2.6207 5.4861
6 12 14 -42.9289 -41.1564
6 12 15 -60.9242 23.8026
6 12 16 -42.4858 -79.0845
6 12 17 -4.6405 -0.5773
6 12 18 -43.8309 4.6760
6 12 19 -30.0156 -32.6912
6 12 20 33.2172 7.6411
6 12 21 28.2166 54.4697
6 12 22 -34.2595 43.8181
6 12 23 58.9146 -6.2267
6 12 24 84.8235 38.5522
6 12 25 33.1095 -37.0764
6 12 26 20.9418 57.3641
6 12 27 34.7062 28.5692
6 12 28 77.9862 50.7392
6 12 29 -18.8445 -10.4204
6 12 30 16.8858 29.3434
6 12 31 65.6502 8.3995
6 12 32 59.5705 30.6308
6 12 33 39.9310 -23.3666
6 12 34 1.8909 27.2233
6 12 35 23.1364 24.4436
6 12 36 -5.2916 13.5365
6 12 37 0.5330 -5.3681
6 12 38 -7.7558 18.3603
6 12 39 4.4816 -10.3910
6 12 40 -0.5113 -0.0290
6 12 41 24.5719 -10.5966
6 12 42 -15.7904 -24.8903
6 12 43 -0.7207 12.9245
6 12 44 8.2363 -33.3760
6 12 45 2.7679 -22.7950
6 12 46 -18.8908 6.2690
6 12 47 -26.8515 -5.4074
6 12 48 10.1527 -1.6838
6 12 49 -9.4915 -1.2084
6 12 50 1.7911 -1.2054
6 12 51 20.7233 21.4955
6 12 52 -1.5619 8.2336
6 12 53 2.3401 -8.5715
6 12 54 6.9575 -3.6420
6 12 55 -6.3837 -4.9935
6 12 56 1.1187 -6.1219
6 12 57 -3.0834 4.9048
6 12 58 7.1597 1.4718
6 12 59 3.3675 13.2092
6 12 60 -1.4616 -10.4740
6 12 61 -4.1067 -5.0523
6 12 63 -3.9825 -4.9586
6 12 64 12.1288 6.7322
6 12 65 -3.5105 4.7110
6 12 66 -1.0183 -8.5927
6 12 67 0.9733 2.2961
6 12 68 7.9400 0.8848
6 12 69 -4.2605 -11.5027
6 12 70 2.2163 1.3707
6 14 0 44.4301 1.1417
6 14 1 30.9626 -1.7127
6 14 2 47.8207 36.4056
6 14 3 6.4729 48.8431
6 14 4 23.0090 15.1194
6 14 5 56.6289 34.7489
6 14 6 40.8296 -11.6507
6 14 7 -20.1546 -11.3635
6 14 8 -25.0743 -14.2612
6 14 9 5.6068 73.5694
6 14 10 -27.7964 -17.9901
6 14 11 -14.0756 -31.4297
6 14 12 -1.2097 -14.9090
6 14 13 36.1222 12.9146
6 14 14 9.3765 -18.8728
6 14 15 33.9345 17.8182
6 14 16 1.8813 4.6996
6 14 17 -46.7342 26.9078
6 14 18 -3.9475 9.3165
6 14 19 -41.1593 -14.7127
6 14 20 33.9957 -7.4366
6 14 21 -0.7250 7.7543
6 14 22 -23.5117 -69.8229
6 14 23 27.1283 30.5245
6 14 24 16.7947 -9.5349
6 14 25 -29.6823 -3.7442
6 14 26 -17.1471 -1.0395
6 14 27 27.1907 6.4989
6 14 28 33.4640 45.2489
6 14 29 -29.2585 9.8098
6 14 30 -50.7790 15.2095
6 14 31 -17.4019 -23.3980
6 14 32 12.0448 1.9931
6 14 33 22.6712 15.4892
6 14 34 -17.3923 -14.7737
6 14 35 18.3616 -44.4724
6 14 36 18.4984 -2.4099
6 14 37 -10.5257 3.1393
6 14 38 7.5672 11.3000
6 14 39 -2.1429 -50.5142
6 14 40 2.2541 -9.4436
6 14 41 -12.3808 3.9744
6 14 42 3.1900 9.5310
6 14 43 19.6488 -31.2063
6 14 44 -3.3063 -1.1807
6 14 45 5.4315 -12.5717
6 14 46 5.4674 -11.2575
6 14 47 6.9886 18.5289
6 14 48 -6.1652 19.2375
6 14 49 1.0509 0.8993
6 14 50 -1.7171 7.0561
6 14 51 -4.6807 -4.5392
6 14 52 4.0671 -5.6196
6 14 53 4.8563 6.3057
6 14 54 13.3321 -7.2737
6 14 55 -7.0159 -5.3682
6 14 56 3.6967 -0.3796
6 14 57 -3.1788 4.6469
6 14 58 -9.7590 -4.3007
6 14 59 10.6426 16.0506
6 14 60 6.5285 15.0602
6 14 61 -12.5573 2.2980
6 14 62 -4.0387 6.4092
6 14 63 -2.4904 -2.3411
6 14 64 1.4309 -20.5363
6 14 65 1.3798 -12.7920
6 14 66 6.6808 21.1107
6 14 67 -11.1634 1.1055
6 14 68 -6.3428 -13.8828
6 14 69 -2.6207 0.7636
6 16 0 -42.1398 1.3181
6 16 1 -34.2607 0.4191
6 16 2 -37.7913 -48.0148
6 16 3 -64.0080 32.5701
6 16 4 -91.7054 -10.1777
6 16 5 -10.2431 -11.6119
6 16 6 -7.5578 33.2312
6 16 7 -23.5725 -23.3923
6 16 8 -24.7707 4.0839
6 16 9 29.6014 -16.3586
6 16 10 -30.7830 -18.7145
6 16 11 72.6097 -1.5326
6 16 12 -35.9525 -20.4504
6 16 13 41.0106 -46.2309
6 16 14 -12.5363 -7.5257
6 16 15 -40.5249 8.2790
6 16 16 19.8495 -19.9573
6 16 17 94.7764 -86.8867
6 16 18 4.7986 30.2668
6 16 19 -72.9640 27.3765
6 16 20 38.1362 12.0972
6 16 21 37.0521 -33.0537
6 16 22 -0.5239 -9.7994
6 16 23 -31.0585 43.0868
6 16 24 -1.6627 -23.8344
6 16 25 59.1432 -1.7827
6 16 26 -30.5762 1.1000
6 16 27 18.7472 -8.1146
6 16 28 25.8282 -15.3995
6 16 29 -24.8379 -7.7686
6 16 30 -21.2081 57.4495
6 16 31 -41.1756 2.8016
6 16 32 -13.0723 -23.1495
6 16 33 -35.2909 24.5673
6 16 34 -19.1790 36.6186
6 16 35 36.2363 1.5468
6 16 36 9.3921 -13.4127
6 16 37 -10.1736 3.4559
6 16 38 8.7307 -3.6659
6 16 39 -30.8517 43.0031
6 16 40 33.4958 29.5083
6 16 41 -1.4814 17.7006
6 16 42 -18.2346 -8.0218
6 16 43 15.6908 -4.3478
6 16 44 14.3624 -17.1661
6 16 45 8.3393 -22.6221
6 16 46 7.4568 -2.2481
6 16 47 -10.5015 -6.7471
6 16 48 17.9482 16.4989
6 16 49 15.3161 -20.0229
6 16 50 7.2171 -24.5215
6 16 51 13.4454 -7.4233
6 16 52 2.2497 -15.2532
6 16 53 5.8953 12.7620
6 16 54 0.9907 1.8254
6 16 55 0.3736 1.2663
6 16 56 3.4337 -15.0119
6 16 57 4.9041 5.9198
6 16 58 -2.8628 1.1765
6 16 59 9.4869 -6.8272
6 16 60 -2.8913 -2.9725
6 16 61 -9.2901 -31.5440
6 16 62 8.3476 -4.9766
6 16 63 6.5474 1.3170
6 16 64 15.4204 2.2261
6 16 65 -0.0064 -20.9876
6 16 66 -3.0536 -13.8534
6 16 67 16.4584 13.6889
6 18 0 19.1970 2.9141
6 18 1 -12.5747 -55.0439
6 18 2 20.9423 -13.1206
6 18 3 -98.7338 11.0542
6 18 4 25.3372 -41.5749
6 18 5 -73.2041 -0.8342
6 18 6 -15.1410 2.3124
6 18 7 14.4648 8.5941
6 18 8 -30.2988 47.2040
6 18 9 91.0510 56.7076
6 18 10 10.9755 18.5231
6 18 11 -27.2886 2.5032
6 18 12 37.3919 -35.4329
6 18 13 -5.9443 -3.1180
6 18 14 16.1355 -29.9537
6 18 15 1.0910 -22.9440
6 18 16 2.6609 19.3291
6 18 17 -14.2812 -11.7394
6 18 18 4.3397 -8.6307
6 18 19 -15.2296 -1.0297
6 18 20 6.5006 -5.0936
6 18 21 56.3724 77.9465
6 18 22 -59.5655 5.8411
6 18 23 10.8424 11.7438
6 18 24 -9.4799 28.6462
6 18 25 55.1050 39.5318
6 18 26 -61.2960 28.4073
6 18 27 77.7705 -7.5062
6 18 28 -6.1007 21.0416
6 18 29 17.8910 -24.0039
6 18 30 11.4710 31.9783
6 18 31 4.4819 2.9010
6 18 32 -22.9221 27.8598
6 18 33 -0.0684 5.6967
6 18 34 50.1754 -33.4296
6 18 35 -28.6125 -19.1384
6 18 36 10.2041 47.8176
6 18 37 19.2310 -32.4537
6 18 38 14.7280 0.8006
6 18 39 -11.5560 -24.7321
6 18 40 17.8253 7.1257
6 18 41 -21.4039 23.4518
6 18 42 26.5280 -18.3091
6 18 43 -0.0968 -6.4410
6 18 44 12.2438 2.6416
6 18 45 -6.5674 -18.4938
6 18 46 -2.6947 1.9459
6 18 47 -2.9693 -4.0899
6 18 48 -12.9193 9.1809
6 18 49 2.4582 -8.3711
6 18 50 -7.0838 -1.8152
6 18 51 10.8350 5.8245
6 18 52 -22.0167 -11.1329
6 18 53 3.0544 -18.1665
6 18 54 -21.5404 -6.5794
6 18 55 25.6690 34.6782
6 18 57 -10.0806 3.9668
6 18 58 -5.7673 23.3747
6 18 59 1.3332 12.0789
6 18 60 10.6668 7.3528
6 18 61 -0.0865 -4.3530
6 18 62 1.1141 -15.9152
6 18 63 -5.9739 -9.5757
6 18 64 13.6720 3.3975
6 20 0 10.1969 -3.2625
6 20 1 -40.5910 -63.7892
6 20 2 0.7978 5.0797
6 20 3 -11.6145 8.9049
6 20 4 -10.2750 -21.5524
6 20 5 -20.8754 16.5819
6 20 6 -34.3483 14.9167
6 20 7 23.2910 -29.3661
6 20 8 -13.4973 -16.4331
6 20 9 75.0294 1.6947
6 20 10 40.1909 -46.2130
6 20 11 52.1162 -48.9668
6 20 12 20.9317 -34.5180
6 20 13 -59.0246 -15.5076
6 20 14 -33.2079 -53.8318
6 20 15 8.0672 -13.3002
6 20 16 -0.3925 41.5333
6 20 17 5.9783 -23.7640
6 20 18 -10.9176 2.2558
6 20 19 7.1423 21.1904
6 20 20 -9.8883 -16.5014
6 20 21 -25.4226 -4.3800
6 20 22 6.2815 -19.6708
6 20 23 7.9453 -24.4845
6 20 24 -17.0881 -50.8893
6 20 25 -7.9338 -22.9082
6 20 26 3.0936 8.2161
6 20 27 7.2901 -28.9984
6 20 28 12.2550 33.4832
6 20 29 -27.6301 3.4394
6 20 30 12.5752 -2.2650
6 20 31 -9.4310 32.0405
6 20 32 9.6828 -60.9663
6 20 33 -27.7458 2.0068
6 20 34 -3.3014 3.2119
6 20 35 26.2805 -24.7519
6 20 36 35.6345 -26.5577
6 20 37 -5.7232 -10.0369
6 20 38 18.7051 0.9230
6 20 39 13.0171 -19.2191
6 20 40 7.8425 -12.9774
6 20 41 23.9930 5.3456
6 20 42 4.4496 3.1137
6 20 43 -4.2145 24.1387
6 20 44 10.5337 7.4259
6 20 45 -6.3851 -26.5148
6 20 46 -0.7160 8.0128
6 20 47 2.3303 -1.7926
6 20 48 13.5014 11.4995
6 20 49 -2.8866 -10.8854
6 20 50 -0.8010 2.1346
6 20 51 -16.9830 -0.2093
6 20 52 19.5557 -3.6418
6 20 53 0.1366 -5.3255
6 20 54 -13.0893 -13.5900
6 20 55 12.8188 3.4418
6 20 61 8.5482 0.7767
6 20 62 26.8412 5.3933
6 22 0 -1.4565 -1.4047
6 22 1 -11.7517 -5.1418
6 22 2 0.7005 -19.5624
6 22 3 -42.5994 35.7190
6 22 4 32.4970 22.9097
6 22 5 -35.3759 -18.0993
6 22 6 -5.9310 15.6418
6 22 7 10.2137 -8.9479
6 22 8 -3.3218 -17.0952
6 22 9 -39.5538 -3.3938
6 22 10 -10.3783 -52.0926
6 22 11 -5.2747 -32.4002
6 22 12 52.0771 -21.1579
6 22 13 3.0636 13.4446
6 22 14 -7.8816 18.0004
6 22 15 -15.0384 -31.8479
6 22 16 28.4058 22.0556
6 22 17 -31.3505 34.0059
6 22 18 11.0639 28.2567
6 22 19 -11.9300 -31.6743
6 22 20 11.4479 18.7876
6 22 21 -5.4308 45.3866
6 22 22 13.5998 11.1790
6 22 23 -15.0556 -23.2831
6 22 24 1.6891 -8.5307
6 22 25 23.4391 3.7513
6 22 26 -15.4235 -14.4883
6 22 27 -5.7065 -0.7998
6 22 28 6.8032 -45.3882
6 22 29 -13.2307 2.1426
6 22 30 23.0592 -10.3867
6 22 31 8.9657 7.8446
6 22 32 -40.6213 18.4686
6 22 33 -11.1121 -11.2004
6 22 34 5.4235 -6.8929
6 22 35 1.4056 -20.4443
6 22 36 -29.3139 13.3782
6 22 37 -29.2040 -6.6540
6 22 38 -8.5105 4.0214
6 22 39 -2.2310 -6.7316
6 22 40 6.6660 -1.5802
6 22 41 -19.8437 19.8460
6 22 42 -6.3007 5.5566
6 22 43 -1.7379 7.6193
6 22 44 -3.7656 -11.7143
6 22 45 -9.6039 16.7532
6 22 46 -4.0248 2.6790
6 22 47 -8.6420 -15.6814
6 22 48 14.0778 -8.4241
6 22 49 -1.2194 -1.3531
6 22 50 -14.7867 -7.8782
6 22 51 4.7955 4.5168
6 22 52 -3.9459 2.4051
6 22 53 -16.7783 -5.0161
6 22 54 -5.5722 3.1361
6 22 55 -5.5953 -26.9661
6 22 56 6.6425 0.1101
6 22 57 5.3142 -17.5747
6 22 58 -0.8648 0.1141
6 22 59 12.4352 -6.9895
6 24 0 -4.9477 -0.0890
6 24 1 19.9921 -4.7285
6 24 2 27.4165 -11.3184
6 24 3 29.3568 2.7732
6 24 4 10.7648 -2.1954
6 24 5 7.1003 -10.4380
6 24 6 1.5542 8.9297
6 24 7 21.9562 29.2347
6 24 8 0.8222 21.0202
6 24 9 5.7546 8.6962
6 24 10 -17.7140 31.3898
6 24 11 -11.9828 12.8075
6 24 12 18.1835 12.0021
6 24 13 -4.5298 5.1783
6 24 14 23.3998 -20.7006
6 24 15 9.7480 17.9483
6 24 16 35.2809 40.4669
6 24 17 -13.1403 43.9099
6 24 18 14.7672 -41.9729
6 24 19 24.1280 71.9301
6 24 20 3.4334 9.8221
6 24 21 -13.1084 -0.4938
6 24 22 41.9538 -18.9968
6 24 23 11.4488 2.6184
6 24 24 -39.7171 44.1572
6 24 25 30.3871 -5.2173
6 24 26 -4.0410 21.3472
6 24 27 -0.9881 -28.4960
6 24 28 10.2128 2.9347
6 24 29 -35.8830 7.5257
6 24 30 -4.5033 6.1347
6 24 31 1.6435 -6.5678
6 24 32 11.7635 -13.6026
6 24 33 21.7311 9.6769
6 24 34 -14.8857 -7.5776
6 24 35 3.4504 -3.6039
6 24 36 3.8730 1.7131
6 24 37 -4.8911 10.0241
6 24 38 -10.6332 -12.7907
6 24 39 -11.0220 6.0250
6 24 40 -9.0702 10.5882
6 24 41 6.4898 3.4558
6 24 42 -8.3292 -0.4016
6 24 43 -11.3737 0.1342
6 24 44 -6.2272 6.8750
6 24 45 14.7169 -23.2692
6 24 46 29.4311 9.9540
6 24 47 13.3112 14.2500
6 24 48 -17.8713 13.5288
6 24 49 -18.1409 -12.2529
6 24 50 -15.0108 15.2427
6 24 51 2.8888 15.7313
6 24 52 18.5646 33.6214
6 24 53 -18.9928 3.0680
6 26 0 -23.4984 2.9596
6 26 1 -6.5325 -19.4757
6 26 2 -6.4589 1.7652
6 26 3 -15.1893 -8.9437
6 26 4 7.0755 -22.1470
6 26 5 -29.5787 20.5123
6 26 6 -34.5519 1.0547
6 26 7 5.0734 6.4865
6 26 8 -17.0949 6.1809
6 26 9 -16.0229 -8.2523
6 26 10 -4.8603 -9.4287
6 26 11 4.9902 3.1101
6 26 12 11.1043 3.8306
6 26 13 16.1095 -13.2423
6 26 14 8.9144 4.4573
6 26 15 -9.5019 -23.1700
6 26 16 -42.2402 8.3260
6 26 17 27.9978 -21.4096
6 26 18 -14.0025 2.5788
6 26 19 2.6459 -0.1135
6 26 20 -12.7626 -4.0776
6 26 21 -31.1130 23.4909
6 26 22 -21.7454 11.8303
6 26 23 45.3638 10.5477
6 26 24 0.3488 -1.9285
6 26 25 -16.9202 8.6395
6 26 26 5.8490 14.0932
6 26 27 -2.5184 6.7674
6 26 28 -7.7164 3.4707
6 26 29 -18.6834 16.2498
6 26 30 -22.7920 2.9567
6 26 31 -12.2869 9.4238
6 26 32 6.7963 10.4022
6 26 33 -3.9559 6.7457
6 26 34 3.0769 13.6210
6 26 35 14.4933 -2.9074
6 26 36 3.3223 18.9720
6 26 37 3.3368 4.8202
6 26 38 -14.4811 -15.1044
6 26 39 18.0563 -4.0772
6 26 40 -6.0536 -0.9778
6 26 41 3.7393 0.5372
6 26 42 3.3036 7.6429
6 26 43 8.4428 6.6319
6 26 44 4.8533 -21.0539
6 26 45 -7.3914 10.8801
6 26 46 10.2255 -19.3245
6 26 47 5.4346 -20.2573
6 26 48 12.2148 1.2974
6 28 0 -19.5328 0.0600
6 28 1 16.0154 -4.2057
6 28 2 40.0365 13.9987
6 28 3 -10.1743 35.6393
6 28 4 53.1166 -3.3890
6 28 5 -17.3545 -31.5054
6 28 6 0.9711 21.8542
6 28 7 0.3752 38.9202
6 28 8 -43.7773 2.6827
6 28 9 -25.7289 -10.1757
6 28 10 18.8079 1.7355
6 28 11 9.3030 14.4787
6 28 12 30.6228 -1.4028
6 28 13 6.6044 15.8841
6 28 14 21.1411 22.2076
6 28 15 34.3885 5.6091
6 28 16 -29.7883 10.8216
6 28 17 -2.2406 0.0533
6 28 18 12.4148 42.9686
6 28 19 16.1761 -60.7424
6 28 20 23.5919 -2.5547
6 28 21 6.5807 1.4615
6 28 22 17.7306 5.3427
6 28 23 7.4552 9.0622
6 28 24 -10.8572 -8.8609
6 28 25 14.6180 27.4211
6 28 26 -5.6612 0.8828
6 28 27 -4.5966 -0.9893
6 28 28 -9.8040 -10.6262
6 28 29 -2.0352 9.7366
6 28 30 -0.5842 5.5682
6 28 31 -12.0069 20.4829
6 28 32 -26.2314 0.6313
6 28 33 -3.8671 6.5699
6 28 34 3.8324 -4.6750
6 28 35 15.8083 18.7530
6 28 36 3.6583 2.1808
6 28 37 10.1788 6.9100
6 28 38 -5.7368 -8.5131
6 28 39 -6.1346 4.7130
6 28 40 5.9324 -0.3462
6 28 41 -3.7476 9.4028
6 28 42 28.4935 -64.2386
6 28 43 5.9775 0.7414
6 28 44 13.7408 7.4852
6 28 45 3.0456 -3.0767
6 30 0 19.6959 -1.9529
6 30 1 11.5863 5.2076
6 30 2 -23.9677 -27.3513
6 30 3 -2.3925 -10.7687
6 30 4 -0.3801 -16.1542
6 30 5 15.3262 -6.1828
6 30 6 -25.6303 -24.1347
6 30 7 -16.6018 -39.7721
6 30 8 -1.5667 -10.3861
6 30 9 1.1563 -3.3156
6 30 10 -20.5810 -0.6482
6 30 11 -0.5004 13.2052
6 30 12 -3.6479 -10.7210
6 30 13 6.3285 -31.6106
6 30 14 7.1929 -8.9715
6 30 15 8.8980 8.7983
6 30 16 -3.1191 8.5882
6 30 17 -13.1740 1.4733
6 30 18 10.4115 5.2654
6 30 19 3.4596 -10.4012
6 30 20 23.1022 -9.6201
6 30 21 -20.6589 -13.2168
6 30 22 14.9815 27.3786
6 30 23 32.8936 -2.5868
6 30 24 -14.4951 25.5286
6 30 25 -7.8723 0.2482
6 30 26 -2.2755 10.5245
6 30 27 -13.7400 -11.0855
6 30 28 -6.1273 4.7007
6 30 29 0.4921 4.9366
6 30 30 -12.3911 2.0036
6 30 31 -9.9882 -5.0211
6 30 32 9.6354 -7.4274
6 30 33 -2.8063 9.2666
6 30 34 -6.9420 -4.8040
6 30 35 -7.8476 -1.1722
6 30 36 12.6043 6.8187
6 30 37 -7.4689 1.9151
6 30 38 13.3441 -5.1385
6 30 39 -14.3350 7.5707
6 30 40 -9.2120 2.9601
6 30 42 2.0700 5.1774
6 32 0 1.5052 -0.3972
6 32 1 21.3280 -4.9447
6 32 2 -36.3280 4.6397
6 32 3 3.0030 -12.1362
6 32 4 4.0595 1.7841
6 32 5 -0.9531 -5.6851
6 32 6 -14.2890 8.1766
6 32 7 -5.9683 11.8673
6 32 8 12.6098 -9.1741
6 32 9 -2.2257 -7.4075
6 32 10 -0.4602 -7.9315
6 32 11 1.1367 8.0726
6 32 12 21.0409 -2.4002
6 32 13 -0.0371 -13.9727
6 32 14 -3.4484 -2.1272
6 32 15 5.2468 -7.6324
6 32 16 -23.4123 24.7063
6 32 17 -4.6561 1.3182
6 32 18 -3.4606 3.3216
6 32 19 -0.1494 -9.2899
6 32 20 15.0826 3.2741
6 32 21 10.4912 2.0536
6 32 22 -9.3125 -0.6520
6 32 23 -8.7242 3.0816
6 32 24 -19.9370 0.9362
6 32 25 -4.8381 5.2067
6 32 26 6.6966 -7.3355
6 32 27 -10.5775 -14.9683
6 32 28 -7.0901 7.8678
6 32 29 -14.4838 -7.3066
6 32 30 5.1911 0.9026
6 32 31 -4.9577 6.0073
6 32 32 1.5643 13.5626
6 32 33 13.5528 -2.3113
6 34 0 6.5938 0.4452
6 34 1 -16.3812 13.0445
6 34 2 10.4079 6.5686
6 34 3 -2.5651 -12.3847
6 34 4 24.6276 6.5012
6 34 5 -16.6892 10.6193
6 34 6 27.4963 6.8842
6 34 7 1.6982 3.8102
6 34 8 -0.0463 -15.3830
6 34 9 -12.3092 12.0164
6 34 10 9.4185 -8.7012
6 34 11 18.5146 1.0511
6 34 12 -15.7177 -1.6527
6 34 13 -0.1672 3.9579
6 34 14 -4.1536 -3.5846
6 34 15 -3.4916 0.8855
6 34 16 3.8947 0.3445
6 34 17 9.8274 1.4123
6 34 18 -7.5938 3.3659
6 34 19 -13.5844 -2.9168
6 34 20 -8.8803 7.6226
6 34 21 3.7843 -7.8181
6 34 22 14.5926 -4.0452
6 34 23 3.8653 13.2504
6 34 24 -10.4646 6.7620
6 34 25 -19.2066 -9.3619
6 34 26 -7.3184 1.7107
6 34 27 -8.7827 -7.2832
6 36 0 3.6198 1.0229
6 36 1 7.3663 -7.8144
6 36 2 -7.6573 -1.0206
6 36 3 -14.0311 -8.2408
6 36 4 0.0032 1.8866
6 36 5 -6.1895 -7.6142
6 36 6 15.1477 6.0377
6 36 7 6.9480 -12.6929
6 36 8 17.2178 10.6126
6 36 9 -16.5778 -4.7099
6 36 10 -8.4510 6.4016
6 36 11 1.3703 -6.0265
6 36 12 17.8278 10.8310
6 36 13 -14.5609 -5.2071
7 1 0 70.8661 -2.2516
7 1 1 46.6324 53.9374
7 1 2 -6.4919 32.2036
7 1 3 73.5845 42.7679
7 1 4 -36.0158 -7.3618
7 1 5 60.9697 148.2815
7 1 6 -16.2173 -25.8534
7 1 7 26.3246 -2.0911
7 1 8 54.8835 -53.8235
7 1 9 177.7916 -6.5829
7 1 10 -40.9643 -160.6157
7 1 11 73.8125 -11.5170
7 1 12 -1.7446 -15.2309
7 1 13 93.9121 -69.2762
7 1 14 -149.1127 35.0846
7 1 15 20.6480 25.0930
7 1 16 124.3082 -50.5251
7 1 17 -79.1799 -20.3393
7 1 18 -15.1626 37.2541
7 1 19 -46.2095 186.1727
7 1 20 41.5156 1.5151
7 1 21 -79.7619 63.7002
7 1 22 9.0121 87.1653
7 1 23 6.5400 161.0064
7 1 24 38.9647 -67.9771
7 1 25 -23.9749 98.3418
7 1 26 -30.3659 -45.2341
7 1 27 -18.3441 9.6665
7 1 28 68.3846 -1.5724
7 1 29 -13.7324 -1.2696
7 1 30 15.9213 -10.7723
7 1 31 73.4112 -18.7921
7 1 32 -44.7070 17.1671
7 1 33 -32.4170 60.1048
7 1 34 -38.4282 18.6412
7 1 35 -11.1864 5.7031
7 1 36 32.5956 61.2428
7 1 37 -26.6737 26.0124
7 1 38 -22.8415 6.6946
7 1 39 -23.4978 37.4051
7 1 40 -17.6272 17.7542
7 1 41 -0.6397 21.5013
7 1 42 38.9849 38.6751
7 1 43 43.3943 1.9907
7 1 44 -21.0079 -0.7754
7 1 45 28.3324 -20.7991
7 1 46 -21.6696 5.7301
7 1 47 13.8786 -40.5110
7 1 48 -8.1725 -8.0658
7 1 49 -12.2460 4.9353
7 1 50 -10.5671 -20.7721
7 1 51 25.8703 -5.1707
7 1 52 8.9017 -17.6615
7 1 53 -1.0659 30.1576
7 1 54 -5.5349 -0.6676
7 1 55 5.8164 -2.1041
7 1 56 19.8394 -0.8445
7 1 57 -4.8879 -9.8430
7 1 58 2.4881 13.8325
7 1 59 -7.3072 -24.5040
7 1 60 6.8413 -8.6313
7 1 61 4.1755 -9.1885
7 1 62 16.3023 12.6107
7 1 63 -26.6901 -12.7849
7 1 64 -7.8049 8.4874
7 1 65 -23.5669 -12.4670
7 1 66 23.3775 10.8568
7 3 0 33.5328 -0.3331
7 3 1 72.8899 32.3105
7 3 2 73.3175 -37.4301
7 3 3 -61.6302 -76.0420
7 3 4 24.0904 102.0790
7 3 5 117.9929 -119.8895
7 3 6 -19.8446 86.8798
7 3 7 52.6670 36.9211
7 3 8 -28.8016 69.0794
7 3 9 -4.1323 -109.2655
7 3 10 -28.4109 -5.8182
7 3 11 52.2676 12.8427
7 3 12 -36.5174 -51.0957
7 3 13 -45.7614 34.9145
7 3 14 13.3884 -11.9704
7 3 15 8.5436 98.3798
7 3 16 -0.6474 -20.8296
7 3 17 -29.1519 6.1398
7 3 18 21.3809 -54.7043
7 3 19 24.2249 -48.4073
7 3 20 27.9011 -4.7466
7 3 21 -65.9941 -2.8965
7 3 22 -11.4056 21.8462
7 3 23 -40.4177 -56.4906
7 3 24 64.8717 33.9652
7 3 25 9.5047 -3.1009
7 3 26 -19.3156 41.5658
7 3 27 -71.1915 -30.6055
7 3 28 -25.9830 -110.9175
7 3 29 5.9213 -9.0004
7 3 30 -74.1494 14.7987
7 3 31 56.7691 13.0973
7 3 32 20.5890 -40.9718
7 3 33 -32.7787 49.0692
7 3 34 -89.8113 49.8106
7 3 35 62.7713 -37.8623
7 3 36 20.9789 -0.9613
7 3 37 -20.2821 27.7416
7 3 38 15.6214 10.5817
7 3 39 11.1016 -9.4902
7 3 40 -0.8504 -22.3541
7 3 41 -18.5176 42.8387
7 3 42 1.1609 -15.6648
7 3 43 24.4240 21.2973
7 3 44 -45.1502 -30.9662
7 3 45 0.5486 -16.8078
7 3 46 -13.1035 19.9069
7 3 47 -12.4955 -13.9091
7 3 48 2.5897 -24.9379
7 3 49 13.9415 -2.9162
7 3 50 35.2556 17.0547
7 3 51 17.4208 30.6650
7 3 52 -5.8669 14.4743
7 3 53 10.3546 -21.8654
7 3 54 11.4396 20.9016
7 3 55 -0.9519 8.6302
7 3 56 -8.6406 11.8010
7 3 57 13.1905 0.9628
7 3 58 5.9555 -8.7241
7 3 59 -4.9077 1.9282
7 3 60 -19.5502 -13.7809
7 3 61 10.7589 -8.8214
7 3 62 1.9190 -7.7929
7 3 63 9.5811 2.9987
7 3 64 1.4304 -14.5002
7 3 65 1.2839 -9.1736
7 3 66 -6.6874 -8.8504
7 3 67 1.8822 -3.8217
7 3 68 2.8098 -2.2166
7 3 69 0.0673 2.3182
7 3 70 -1.2433 3.1693
7 3 71 -1.0921 0.3172
7 5 0 93.4925 5.4257
7 5 1 84.9728 -18.0362
7 5 2 -59.7612 -37.3182
7 5 3 -8.5139 75.8256
7 5 4 -12.8284 -26.5105
7 5 5 55.9362 -42.7784
7 5 6 52.1897 -79.0484
7 5 7 -15.2064 43.3701
7 5 8 65.6150 80.8542
7 5 9 -5.5347 23.0948
7 5 10 47.6935 32.4865
7 5 11 -180.9643 -43.7164
7 5 12 34.5688 -64.8543
7 5 13 -23.5622 -43.8404
7 5 14 -4.2724 31.8573
7 5 15 -3.0814 1.1040
7 5 16 -57.0512 -98.0337
7 5 17 6.4770 38.3039
7 5 18 -51.3042 -59.0222
7 5 19 29.0912 54.9750
7 5 20 21.1350 56.8892
7 5 21 -0.6100 15.2607
7 5 22 -44.4448 8.4590
7 5 23 68.3546 37.2609
7 5 24 45.6384 43.9134
7 5 25 6.6272 -46.8245
7 5 26 -44.2857 46.1619
7 5 27 23.3211 26.5353
7 5 28 -31.9273 16.6826
7 5 29 -29.3488 85.9303
7 5 30 -29.7236 35.3416
7 5 31 -38.8336 85.5605
7 5 32 -22.1133 27.3015
7 5 33 40.7942 -8.9590
7 5 34 -63.6925 76.7561
7 5 35 -26.4622 -0.5900
7 5 36 8.6130 -0.8210
7 5 37 -77.2199 27.0233
7 5 38 57.2420 -69.5997
7 5 39 -54.1340 46.6361
7 5 40 8.4291 -16.5915
7 5 41 32.2237 2.3240
7 5 42 30.6943 -35.7971
7 5 43 -7.8654 20.2125
7 5 44 -0.9328 4.4329
7 5 45 -0.5564 10.7174
7 5 46 16.9504 0.3898
7 5 47 -12.3484 -8.7174
7 5 48 -34.9769 34.9994
7 5 49 16.8590 21.5748
7 5 50 -1.9556 -5.0782
7 5 51 -9.9894 -13.1515
7 5 52 8.3676 14.0512
7 5 53 -8.3279 3.1978
7 5 54 -3.8543 -8.3847
7 5 55 9.1389 9.1355
7 5 56 9.2389 -0.9587
7 5 57 4.8982 -2.4345
7 5 58 -1.9134 3.0901
7 5 59 -7.5361 13.3016
7 5 60 1.1258 -9.8087
7 5 61 -2.1098 10.9606
7 5 62 -3.7374 -1.7206
7 5 63 7.3686 -9.0727
7 5 64 -0.8954 5.5859
7 5 65 0.1184 -9.7460
7 5 66 1.5981 3.6063
7 5 67 -3.1182 2.1771
7 5 68 1.0693 1.3876
7 5 69 -11.7175 -17.0856
7 7 0 -5.5614 -1.1565
7 7 1 -10.3972 -31.9396
7 7 2 -34.7179 -0.4420
7 7 3 5.5987 -41.1693
7 7 4 22.8096 42.2831
7 7 5 19.7925 8.2887
7 7 6 -48.9968 -3.4214
7 7 7 -50.7455 33.6285
7 7 8 -22.9359 -46.7880
7 7 9 60.0045 -67.0001
7 7 10 -0.6291 -22.5074
7 7 11 -51.7199 30.9495
7 7 12 -28.4010 31.9138
7 7 13 43.6753 -199.1638
7 7 14 50.0382 -128.1544
7 7 15 26.3294 -16.6080
7 7 16 48.4390 -8.2548
7 7 17 4.3983 -41.8774
7 7 18 35.3335 -54.6306
7 7 19 3.3379 1.1358
7 7 20 -5.9914 25.5798
7 7 21 -22.2917 16.7077
7 7 22 12.3902 -0.1784
7 7 23 -28.7276 -11.5558
7 7 24 -52.5224 31.3404
7 7 25 34.6413 22.1902
7 7 26 -10.4605 -4.0353
7 7 27 5.3440 -1.3493
7 7 28 8.8241 -44.1961
7 7 29 -3.5076 -1.7909
7 7 30 -46.9989 8.3545
7 7 31 -8.2534 19.0530
7 7 32 -4.2100 45.1516
7 7 33 8.8073 -25.3574
7 7 34 -42.4529 -5.5077
7 7 35 -69.7255 -74.8975
7 7 36 7.5926 -21.5775
7 7 37 -11.9683 31.0933
7 7 38 -13.9742 9.3586
7 7 39 -16.7943 -8.8086
7 7 40 -8.6838 -0.6036
7 7 41 43.1812 -18.2991
7 7 42 7.3462 7.8254
7 7 43 -6.5410 3.5307
7 7 44 -41.5791 9.6262
7 7 45 14.6881 -13.2005
7 7 46 0.1172 -7.2089
7 7 47 18.1386 11.3946
7 7 48 6.0726 -15.2834
7 7 49 -25.5201 -2.5648
7 7 50 -15.0923 -15.0540
7 7 51 -20.3739 -15.9895
7 7 52 -7.2100 7.5039
7 7 53 -37.0065 -12.6937
7 7 54 -8.6507 10.1344
7 7 55 -7.2173 3.3613
7 7 56 8.9577 8.8833
7 7 57 5.6165 29.0038
7 7 58 0.1416 27.2974
7 7 59 7.8858 -10.1242
7 7 60 -16.9943 3.7411
7 7 61 -4.1434 3.3137
7 7 69 1.9961 -5.9106
7 7 70 -4.2470 -10.5503
7 9 0 -15.8110 -1.9579
7 9 1 -19.3721 47.3891
7 9 2 11.2680 52.3645
7 9 3 1.9031 -34.7318
7 9 4 11.3613 -11.6174
7 9 5 34.9533 -23.0506
7 9 6 27.5988 -46.1754
7 9 7 28.7888 25.9475
7 9 8 -33.5479 -10.6860
7 9 9 71.0435 -42.0474
7 9 10 0.0775 -6.2707
7 9 11 117.7315 -80.9667
7 9 12 4.8362 27.6692
7 9 13 56.9640 -33.5687
7 9 14 -3.0212 37.5053
7 9 15 17.2757 23.7777
7 9 16 -13.3244 25.6200
7 9 17 3.7889 -51.3298
7 9 18 42.7300 -40.4565
7 9 19 4.8522 -13.9906
7 9 20 15.3993 15.1986
7 9 21 -16.2733 -73.0874
7 9 22 66.7678 -40.2424
7 9 23 18.8993 43.5552
7 9 24 12.8736 -2.6402
7 9 25 44.1392 -51.1180
7 9 26 -22.4545 -19.5123
7 9 27 30.1154 20.2470
7 9 28 -8.1930 -14.9150
7 9 29 71.1259 -16.8735
7 9 30 18.7409 -25.1881
7 9 31 -20.9579 -29.5021
7 9 32 -36.9703 -47.3421
7 9 33 -8.9139 -40.7727
7 9 34 7.2694 22.4918
7 9 35 -15.4309 -22.8632
7 9 36 -49.0304 -30.4357
7 9 37 -4.6404 -7.3227
7 9 38 -16.6429 -6.7248
7 9 39 0.5454 -22.9371
7 9 40 -22.1062 3.1402
7 9 41 -0.2874 -29.3564
7 9 42 22.4131 -33.7473
7 9 43 3.0760 -14.5341
7 9 44 -12.4257 6.7394
7 9 45 22.8975 14.0757
7 9 46 -3.8765 3.9285
7 9 47 -24.5560 -7.2750
7 9 48 21.5373 -9.4086
7 9 49 -6.7580 7.5240
7 9 50 16.6021 13.6776
7 9 51 -15.2784 1.3423
7 9 52 -9.3692 -2.8765
7 9 53 -8.6801 -20.3532
7 9 54 -4.6276 1.4675
7 9 55 1.9656 19.6346
7 9 56 8.8193 -11.9422
7 9 57 2.0855 9.0227
7 9 58 -0.7154 17.6574
7 9 59 7.7059 4.6414
7 9 60 -6.8007 9.0297
7 9 61 13.6368 -6.7501
7 9 62 -5.9284 0.2017
7 9 63 0.7223 -15.0705
7 9 64 10.7613 -8.1204
7 9 65 -8.0199 3.6831
7 9 66 3.9862 -0.9893
7 9 67 5.5422 2.4276
7 11 0 -42.6672 -0.7975
7 11 1 -2.0370 9.6074
7 11 2 58.9313 1.4257
7 11 3 -10.8959 83.8189
7 11 4 -0.7167 -28.7779
7 11 5 -24.2753 -76.2767
7 11 6 17.6361 -17.4254
7 11 7 46.2910 -49.1871
7 11 8 30.5461 32.7649
7 11 9 -43.8462 -0.3173
7 11 10 -16.2751 35.5379
7 11 11 -45.9428 52.5963
7 11 12 11.2917 -9.7955
7 11 13 -7.8332 -27.5105
7 11 14 -43.4052 -47.3201
7 11 15 -18.1045 32.6949
7 11 16 -10.6720 9.6490
7 11 17 -35.3543 52.9096
7 11 18 -10.9683 -30.7384
7 11 19 -45.5397 47.1908
7 11 20 3.8283 32.3680
7 11 21 3.3942 -52.4607
7 11 22 94.1237 1.3725
7 11 23 4.9131 -7.6013
7 11 24 -21.3288 9.9009
7 11 25 29.2853 9.2538
7 11 26 -13.7117 10.0884
7 11 27 89.9174 -20.0400
7 11 28 15.8210 -8.8779
7 11 29 13.9260 -1.9641
7 11 30 0.7959 -10.5423
7 11 31 5.5531 -4.9895
7 11 32 -2.8118 9.3318
7 11 33 -11.2225 7.6222
7 11 34 -43.2748 -26.9408
7 11 35 -17.2162 1.9893
7 11 36 -13.4821 31.2263
7 11 37 55.8436 25.3992
7 11 38 -4.6296 0.1351
7 11 39 -9.2398 22.7682
7 11 40 -9.1518 2.1965
7 11 41 5.1460 2.0331
7 11 42 21.1524 -21.9176
7 11 43 11.5065 -4.9059
7 11 44 -16.3767 -6.5243
7 11 45 -41.9296 11.4908
7 11 46 -20.8520 13.7386
7 11 47 4.6100 -11.8572
7 11 48 -0.0411 -1.8482
7 11 49 -14.5927 12.0647
7 11 50 17.0395 -33.7064
7 11 51 14.8328 -19.0573
7 11 52 6.3910 1.0066
7 11 53 3.8168 20.7512
7 11 54 1.1705 -5.7757
7 11 55 -1.2703 -0.6245
7 11 56 17.4827 -4.0753
7 11 57 -17.3115 -4.8319
7 11 58 14.3040 -9.3195
7 11 59 10.8084 -13.3315
7 11 60 -28.8842 -18.1455
7 11 61 10.9543 9.4585
7 11 62 -10.6247 2.3284
7 11 63 3.8695 8.0306
7 11 64 -8.1194 -15.3874
7 11 65 0.0627 6.7495
7 11 66 0.3509 -25.9917
7 11 67 -4.0629 -1.7343
7 13 0 -23.0617 0.9612
7 13 1 58.0693 4.9433
7 13 2 53.6195 -21.8429
7 13 3 33.1577 -18.7029
7 13 4 -34.7532 6.2924
7 13 5 43.6259 -45.4460
7 13 6 -11.2369 30.5961
7 13 7 -0.5793 5.8540
7 13 8 18.1674 43.8434
7 13 9 -24.3054 6.6810
7 13 10 -48.1125 -28.0928
7 13 11 63.4241 -25.1469
7 13 12 -22.1698 2.9847
7 13 13 -82.6682 3.5255
7 13 14 51.0727 -8.6256
7 13 15 -3.2587 -29.5247
7 13 16 6.8062 -26.7658
7 13 17 55.0162 -12.5861
7 13 18 44.1686 33.5560
7 13 19 5.3371 -66.5704
7 13 20 -25.0440 59.5830
7 13 21 -33.2242 0.6020
7 13 22 64.1195 0.4050
7 13 23 -27.2322 14.7218
7 13 24 -4.2272 -7.8130
7 13 25 5.8120 -8.1225
7 13 26 -7.0455 31.1538
7 13 27 -72.3453 -37.2852
7 13 28 49.1190 8.3265
7 13 29 -35.3774 15.0968
7 13 30 -6.4246 1.8039
7 13 31 -0.0518 14.9343
7 13 32 26.3005 -7.3968
7 13 33 -5.3976 9.1857
7 13 34 7.5623 -4.6272
7 13 35 27.0038 -3.7613
7 13 36 -16.0743 4.5292
7 13 37 25.1756 -31.1260
7 13 38 -4.1390 -2.7272
7 13 39 15.1034 -16.9509
7 13 40 -22.7941 2.9031
7 13 41 53.1008 -1.0735
7 13 42 -10.7000 -10.7981
7 13 43 8.9713 0.9369
7 13 44 26.8509 6.8894
7 13 45 -8.4723 29.3324
7 13 46 1.2364 15.0096
7 13 47 -7.2196 28.9028
7 13 48 -8.9827 3.6010
7 13 49 -0.5464 23.6201
7 13 50 8.5379 7.2608
7 13 51 -0.4807 -6.8262
7 13 52 -11.5670 3.1737
7 13 53 2.0212 3.1126
7 13 54 -6.8857 -10.4845
7 13 55 10.5949 -5.0305
7 13 56 1.3734 7.9979
7 13 57 17.8122 6.2063
7 13 58 4.4856 -0.8433
7 13 59 3.9443 5.9020
7 13 60 -4.2463 -15.1597
7 13 61 16.6591 6.8945
7 13 62 4.3081 1.4016
7 13 63 -20.3710 18.4004
7 13 64 8.8199 6.7824
7 13 65 7.0844 7.1265
7 13 66 0.5398 -3.9135
7 13 67 -26.6485 0.0324
7 13 68 -10.8014 -2.9087
7 13 69 -3.1396 -8.4572
7 15 0 26.3656 -0.1073
7 15 1 -24.5565 -18.8842
7 15 2 67.0189 -26.7705
7 15 3 -15.7927 -0.1566
7 15 4 -6.3925 30.0079
7 15 5 11.4987 25.3068
7 15 6 -61.8966 -4.4167
7 15 7 -26.1670 17.1682
7 15 8 1.8054 6.4406
7 15 9 -11.8433 29.9418
7 15 10 -14.6256 8.2009
7 15 11 14.6083 -12.2048
7 15 12 17.3516 33.9821
7 15 13 -33.1221 -8.7033
7 15 14 9.9063 -15.4416
7 15 15 -9.9086 30.6807
7 15 16 48.0445 -34.2166
7 15 17 -10.8737 -16.1766
7 15 18 32.0969 -26.5482
7 15 19 46.6322 -38.4053
7 15 20 -98.0653 -17.4552
7 15 21 16.5219 17.2127
7 15 22 -5.7823 -34.3483
7 15 23 -35.9268 35.8750
7 15 24 -30.7046 -4.1498
7 15 25 -11.3656 -22.5204
7 15 26 -19.3532 39.6627
7 15 27 -3.5948 10.2544
7 15 28 -0.5314 26.2667
7 15 29 0.7089 8.3548
7 15 30 -85.0433 43.5370
7 15 31 -0.6475 -24.1665
7 15 32 38.0797 11.5224
7 15 33 13.6245 -6.4702
7 15 34 5.3430 -45.0251
7 15 35 -0.0241 -34.3708
7 15 36 42.2108 36.8369
7 15 37 -30.1171 -52.6806
7 15 38 15.2714 4.2100
7 15 39 -15.8153 8.6927
7 15 40 15.2187 34.6088
7 15 41 11.9356 9.5723
7 15 42 21.4728 -22.3412
7 15 43 -16.3167 -4.6437
7 15 44 11.5596 -0.9280
7 15 45 23.6026 22.8375
7 15 46 -35.3945 -0.8670
7 15 47 5.1031 -0.2935
7 15 48 -5.3972 -5.1476
7 15 49 15.6766 -3.6697
7 15 50 -1.7845 -9.3677
7 15 51 -4.2203 8.2330
7 15 52 -13.7663 -3.4421
7 15 53 2.4159 1.6683
7 15 54 1.2224 12.5369
7 15 55 1.5414 -1.9150
7 15 56 -2.6564 -2.6995
7 15 57 2.8866 -0.4057
7 15 58 2.4259 9.8141
7 15 59 0.6182 -3.3522
7 15 60 -0.8107 5.4686
7 15 61 6.1833 5.9343
7 15 62 4.4956 8.2882
7 15 63 -1.4514 0.5039
7 15 64 1.3483 12.6558
7 15 65 -6.8775 -5.1594
7 15 66 -0.9535 -7.6188
7 15 67 -4.6304 12.5584
7 17 0 1.4265 2.7185
7 17 1 -14.8566 0.6901
7 17 2 19.3780 -5.8843
7 17 3 7.3444 -45.5062
7 17 4 -23.4401 -26.9850
7 17 5 -2.5795 10.0427
7 17 6 -23.9516 19.9542
7 17 7 -33.0207 4.7192
7 17 8 8.2580 39.8235
7 17 9 55.9752 2.6457
7 17 10 -66.1084 -13.4261
7 17 11 19.8675 4.4391
7 17 12 -26.0792 -11.6152
7 17 13 -24.4406 45.6881
7 17 14 -77.6538 -8.4883
7 17 15 6.6254 -1.9101
7 17 16 -27.3969 -28.3012
7 17 17 4.4855 1.9889
7 17 18 -38.0337 -5.6331
7 17 19 46.9156 21.7866
7 17 20 -9.1837 -44.4689
7 17 21 1.3613 -1.2823
7 17 22 6.0292 38.0968
7 17 23 24.7229 10.9853
7 17 24 5.9189 -3.2357
7 17 25 -11.3445 2.9819
7 17 26 18.8086 -14.0022
7 17 27 11.4273 -60.6069
7 17 28 15.2677 4.4383
7 17 29 -14.6017 -20.5046
7 17 30 -20.0725 -30.9235
7 17 31 1.0048 -11.6699
7 17 32 17.3322 12.7856
7 17 33 0.2391 5.2193
7 17 34 -6.9554 6.5438
7 17 35 -8.2681 -31.1261
7 17 36 31.0395 51.1051
7 17 37 -25.1538 27.6073
7 17 38 14.3828 -4.7742
7 17 39 4.7576 44.6952
7 17 40 -39.6519 38.0984
7 17 41 5.0594 36.8924
7 17 42 -0.7958 -6.8068
7 17 43 4.6919 37.8761
7 17 44 -12.2510 0.0544
7 17 45 11.4166 2.6610
7 17 46 -3.0562 -3.6282
7 17 47 0.7456 15.6083
7 17 48 -5.4987 -18.4851
7 17 49 12.6259 3.1535
7 17 50 -0.5047 15.1670
7 17 51 7.9429 2.8125
7 17 52 -0.1392 -3.0393
7 17 53 4.4968 3.6269
7 17 54 -6.4433 6.4936
7 17 55 3.7878 5.9484
7 17 56 -3.7340 1.8387
7 17 57 4.6635 -3.7079
7 17 58 -6.8171 6.0945
7 17 59 1.2980 1.6023
7 17 60 6.4155 -1.3909
7 17 61 -18.7348 -1.4431
7 17 62 8.1116 -0.7585
7 17 63 2.2071 -2.7618
7 17 64 -0.0829 7.6361
7 17 65 14.8549 9.6093
7 19 0 16.8017 -2.7063
7 19 1 41.2899 29.5023
7 19 2 27.2159 50.0451
7 19 3 10.5060 -39.3404
7 19 4 -10.3360 27.4060
7 19 5 -12.7248 21.0878
7 19 6 37.3149 37.8037
7 19 7 22.2496 -3.8076
7 19 8 35.6629 26.2766
7 19 9 13.6772 36.8693
7 19 10 4.8396 12.6795
7 19 11 -2.5197 -8.8105
7 19 12 -29.1068 7.0397
7 19 13 6.3936 11.0480
7 19 14 -38.2009 44.2278
7 19 15 65.4820 14.3114
7 19 16 37.6274 -26.0319
7 19 17 71.3655 -18.8758
7 19 18 24.3650 50.9719
7 19 19 7.6009 -26.5021
7 19 20 2.0626 1.2539
7 19 21 4.1081 15.1918
7 19 22 70.2293 47.8847
7 19 23 8.1192 -3.8873
7 19 24 -15.6680 14.2184
7 19 25 14.0517 -14.8144
7 19 26 13.6529 53.1413
7 19 27 29.3671 7.6868
7 19 28 -13.5158 1.3359
7 19 29 8.9949 -20.0293
7 19 30 -7.8620 -19.3666
7 19 31 17.0314 38.3552
7 19 32 -21.3560 -5.6354
7 19 33 2.8041 2.0548
7 19 34 20.5790 -2.3287
7 19 35 -0.6628 10.0174
7 19 36 -50.9123 -16.1024
7 19 37 55.2248 6.6524
7 19 38 -13.6605 -1.4368
7 19 39 -8.7045 28.8645
7 19 40 0.7462 -11.1958
7 19 41 22.3721 -18.2071
7 19 42 -2.9462 25.8996
7 19 43 -14.0273 -1.0550
7 19 44 0.4250 5.4960
7 19 45 -21.0907 34.9258
7 19 46 -4.1424 -4.4356
7 19 47 -11.2018 3.3231
7 19 48 6.5095 -5.8529
7 19 49 12.9673 -7.8148
7 19 50 -8.5321 9.0872
7 19 51 -5.6536 9.7417
7 19 52 -4.6415 17.2883
7 19 53 0.5218 2.0044
7 19 54 18.9441 11.2495
7 19 55 6.7768 -8.8743
7 19 56 3.1997 -11.2324
7 19 57 -20.3263 0.7496
7 19 58 3.4420 -10.6752
7 19 59 -15.0900 -12.8516
7 19 60 -3.2218 0.1382
7 19 61 -23.3362 -11.1358
7 19 62 9.1163 18.0243
7 21 0 -3.3852 0.1701
7 21 1 -4.3342 29.8404
7 21 2 7.3774 9.6553
7 21 3 87.1231 -7.9410
7 21 4 37.3531 7.4272
7 21 5 31.9714 25.2110
7 21 6 -27.8488 3.5830
7 21 7 1.6943 -6.9640
7 21 8 -5.7287 9.6729
7 21 9 -3.3035 16.8098
7 21 10 9.2838 15.0227
7 21 11 -21.7889 24.8795
7 21 12 17.8386 15.9496
7 21 13 -6.5959 17.3207
7 21 14 -11.8653 28.8709
7 21 15 -21.6801 -51.6865
7 21 16 30.3914 14.5406
7 21 17 6.8209 -9.7102
7 21 18 12.4389 53.1949
7 21 19 13.2565 -34.3194
7 21 20 33.3034 4.3163
7 21 21 -11.1084 -0.9307
7 21 22 11.3323 1.4743
7 21 23 -2.7843 19.0524
7 21 24 -15.5115 -3.6247
7 21 25 -6.0781 32.5227
7 21 26 -50.2530 -73.3782
7 21 27 4.1817 -31.5251
7 21 28 14.1532 8.2621
7 21 29 32.2607 36.5312
7 21 30 -10.8677 -10.5120
7 21 31 -4.9856 -5.2794
7 21 32 32.7989 32.6735
7 21 33 3.5189 2.6104
7 21 34 -25.8123 11.9766
7 21 35 7.1259 0.9832
7 21 36 19.1563 15.3962
7 21 37 -31.3391 -0.1207
7 21 38 -14.1273 11.0082
7 21 39 -0.4852 0.4639
7 21 40 5.3634 -2.3098
7 21 41 -2.2600 -3.6782
7 21 42 24.5263 -14.9813
7 21 43 -8.9174 11.2544
7 21 44 7.5057 18.5229
7 21 45 11.7662 1.7910
7 21 46 -26.9030 4.1253
7 21 47 9.3590 9.0400
7 21 48 -2.4252 -7.2007
7 21 49 -11.3699 -2.4681
7 21 50 14.7196 9.3324
7 21 51 -22.3151 -2.1648
7 21 52 17.8449 -12.5150
7 21 53 -17.5071 -2.7609
7 21 54 1.4222 6.6468
7 21 55 4.2136 -1.3983
7 21 60 -1.6756 0.1084
7 23 0 15.1556 0.0257
7 23 1 18.5907 17.6729
7 23 2 11.2657 -22.7573
7 23 3 5.4714 -27.8429
7 23 4 -55.1671 -63.0621
7 23 5 26.1182 -26.2196
7 23 6 30.8779 -7.5524
7 23 7 18.5006 33.3830
7 23 8 -10.8996 30.4742
7 23 9 24.3628 -15.9224
7 23 10 21.5106 -8.0400
7 23 11 -2.0941 -6.0100
7 23 12 -15.6108 -4.3188
7 23 13 -45.3402 30.9905
7 23 14 17.7439 1.3042
7 23 15 -10.2337 20.2105
7 23 16 -27.2636 -70.4144
7 23 17 -25.2556 17.3085
7 23 18 -26.6696 -13.9770
7 23 19 -3.1254 -7.5472
7 23 20 -30.9574 17.6073
7 23 21 -67.0736 3.0992
7 23 22 19.2916 25.7834
7 23 23 5.8009 44.1111
7 23 24 10.0598 -8.1514
7 23 25 14.2532 36.2613
7 23 26 8.5124 -12.4126
7 23 27 2.4474 -7.0989
7 23 28 -36.4305 1.9073
7 23 29 -20.9228 8.3401
7 23 30 16.3533 12.7043
7 23 31 -13.4709 -9.3626
7 23 32 -2.7367 5.0453
7 23 33 51.8140 14.2343
7 23 34 0.3037 -5.3548
7 23 35 10.2073 -22.4665
7 23 36 -8.6283 8.6567
7 23 37 -1.4752 5.9585
7 23 38 24.7040 -18.6007
7 23 39 -1.6633 -7.7471
7 23 40 13.5900 2.3551
7 23 41 -7.1510 -7.8778
7 23 42 7.9885 3.6831
7 23 43 -4.1623 -8.0005
7 23 44 4.8366 -4.3990
7 23 45 1.2629 15.0155
7 23 46 0.7915 7.2960
7 23 47 3.1692 0.7540
7 23 48 2.6273 -15.8059
7 23 49 13.8308 2.4497
7 23 50 -14.5192 -8.9753
7 23 51 8.3273 -10.0794
7 23 52 -9.4737 -2.2503
7 23 55 -0.3364 -9.3304
7 23 56 12.1637 7.2110
7 23 57 -4.2749 0.8100
7 25 0 3.1191 -1.0385
7 25 1 38.8053 -24.2436
7 25 2 6.0207 3.3142
7 25 3 -19.9015 3.7119
7 25 4 19.7980 -55.1997
7 25 5 -20.6560 -80.1704
7 25 6 -9.7903 -30.5326
7 25 7 -1.0690 101.6319
7 25 8 -47.4343 -6.0092
7 25 9 -1.1692 16.7749
7 25 10 11.2770 48.4657
7 25 11 9.7586 4.1404
7 25 12 9.7927 -14.9942
7 25 13 5.4326 -24.9805
7 25 14 -16.0435 11.9831
7 25 15 23.2988 51.9886
7 25 16 6.3842 -14.2731
7 25 17 40.9549 -4.9189
7 25 18 -75.8204 51.8065
7 25 19 0.6197 -4.3462
7 25 20 -8.9233 8.1461
7 25 21 -35.1495 27.9125
7 25 22 -30.9162 31.0686
7 25 23 -1.1780 21.8292
7 25 24 -10.3195 -8.8639
7 25 25 18.4463 -23.3352
7 25 26 9.9354 -8.2335
7 25 27 -5.8047 -13.1864
7 25 28 34.1692 20.2692
7 25 29 -11.3819 -4.0489
7 25 30 13.9969 -6.9207
7 25 31 -26.4033 15.9658
7 25 32 -14.0785 11.0779
7 25 33 4.4615 -6.4761
7 25 34 7.0542 1.1298
7 25 35 -14.9834 3.5905
7 25 36 -2.7953 -17.1194
7 25 37 -1.1388 6.6976
7 25 38 -3.5847 -3.3709
7 25 39 -4.6410 -10.8193
7 25 40 -2.2136 10.6208
7 25 41 6.9653 5.5346
7 25 42 -8.7693 7.6267
7 25 43 2.5001 -1.8402
7 25 44 -14.7101 -6.5971
7 25 45 9.9754 -0.5428
7 25 46 -23.3312 -17.7849
7 25 47 2.6145 27.2194
7 25 48 14.8284 13.2811
7 27 0 9.0478 3.1855
7 27 1 14.7189 -8.6867
7 27 2 -27.1672 34.3126
7 27 3 41.1502 -41.4900
7 27 4 -14.5797 46.2994
7 27 5 -6.0227 3.7660
7 27 6 25.1469 25.6069
7 27 7 4.0148 -2.7653
7 27 8 -11.2036 4.1568
7 27 9 9.8130 1.7020
7 27 10 -11.5826 5.9739
7 27 11 18.9572 12.0881
7 27 12 -2.4927 -12.8995
7 27 13 -24.3754 -41.6987
7 27 14 -9.5790 13.5815
7 27 15 -23.4277 -6.8398
7 27 16 -1.5896 5.5067
7 27 17 36.9146 1.5130
7 27 18 -17.3949 21.8976
7 27 19 10.7015 14.3524
7 27 20 9.4936 -8.9453
7 27 21 -32.9443 -17.6445
7 27 22 7.1570 -5.9520
7 27 23 -3.9202 36.1735
7 27 24 11.8594 -4.7720
7 27 25 -25.9841 8.7037
7 27 26 11.0733 -19.3244
7 27 27 20.3416 -5.4471
7 27 28 2.1854 -4.7330
7 27 29 7.4723 4.9219
7 27 30 1.5422 -3.4190
7 27 31 7.3755 -10.0096
7 27 32 -17.7575 14.3135
7 27 33 -1.0189 -11.3262
7 27 34 -18.4266 -9.7702
7 27 35 -5.1984 5.1877
7 27 36 -8.0350 -4.9699
7 27 37 -12.5676 -2.4079
7 27 38 -0.3356 3.2130
7 27 39 3.2590 1.9511
7 27 40 5.0609 -4.9218
7 27 41 15.7980 -2.4593
7 27 42 -0.1719 10.2497
7 27 43 17.7822 2.5782
7 27 44 2.3624 6.1139
7 27 45 1.3076 3.0110
7 27 46 -3.4892 -12.4230
7 27 47 7.9170 10.9181
7 27 48 3.9780 -2.3775
7 29 0 18.0206 -2.3575
7 29 1 31.1459 -10.0739
7 29 2 -21.2401 -0.2596
7 29 3 20.1477 -8.8174
7 29 4 0.5238 16.4470
7 29 5 65.2703 -47.8841
7 29 6 24.8801 9.0802
7 29 7 13.3034 -14.9408
7 29 8 -3.9347 28.5937
7 29 9 16.4306 0.5275
7 29 10 25.2332 -6.7506
7 29 11 10.1453 -1.3666
7 29 12 6.1173 -7.4665
7 29 13 9.8965 16.2256
7 29 14 13.3227 -32.5834
7 29 15 -8.1833 8.0268
7 29 16 -0.7636 0.1707
7 29 17 20.3671 15.4295
7 29 18 4.2372 -2.6333
7 29 19 -2.2956 -14.5395
7 29 20 16.0872 8.3668
7 29 21 -5.7611 1.2394
7 29 22 -11.8488 -27.7298
7 29 23 -16.2452 -22.8517
7 29 24 24.8960 1.2125
7 29 25 8.2911 -10.7005
7 29 26 -18.1823 -14.1300
7 29 27 -16.8774 7.4515
7 29 28 17.9960 6.7319
7 29 29 6.6394 4.0268
7 29 30 -5.2813 -8.6775
7 29 31 5.6657 4.8245
7 29 32 14.5717 1.2176
7 29 33 14.0257 13.3504
7 29 34 -13.5031 -13.5979
7 29 35 -5.8713 -10.9718
7 29 36 -1.5664 -4.5455
7 29 37 15.1062 6.1547
7 29 38 5.5945 -9.4712
7 29 39 1.5065 1.9289
7 29 40 6.0727 12.9016
7 29 41 4.3057 -0.2393
7 29 42 1.4025 1.5187
7 29 43 -6.9275 2.3328
7 31 0 -15.6318 0.6446
7 31 1 22.8469 15.6262
7 31 2 -22.8841 -1.4538
7 31 3 15.8253 -13.0997
7 31 4 7.5446 -3.8895
7 31 5 -49.7580 -24.1046
7 31 6 4.2225 9.1586
7 31 7 -0.4235 11.3951
7 31 8 -3.7855 3.9618
7 31 9 4.4997 -1.2944
7 31 10 9.8074 20.3835
7 31 11 -15.8581 -9.5265
7 31 12 -20.0683 27.5951
7 31 13 -4.8628 -1.6611
7 31 14 3.2842 -2.9353
7 31 15 -4.6631 -0.8050
7 31 16 4.0814 -2.5081
7 31 17 13.4518 -2.9565
7 31 18 7.9161 23.9694
7 31 19 -3.9695 9.9335
7 31 20 12.6997 2.5092
7 31 21 -6.3747 -11.8628
7 31 22 9.7379 4.5317
7 31 23 9.9364 -13.9125
7 31 24 33.6343 -5.5713
7 31 25 0.0317 7.3678
7 31 26 5.1212 -1.3036
7 31 27 15.6807 -16.1028
7 31 28 -2.8681 7.8610
7 31 29 -7.3540 3.6730
7 31 30 -9.5439 -9.6180
7 31 31 -6.0443 -9.2330
7 31 32 -2.1275 1.1989
7 31 33 1.6851 7.1230
7 31 34 -12.0186 3.6533
7 31 35 -8.9241 -1.1481
7 31 36 -3.0108 -8.9163
7 31 37 -7.7254 13.2178
7 31 38 -11.2276 6.1413
7 33 0 10.2880 -0.6083
7 33 1 -8.7081 -16.8791
7 33 2 -1.3756 10.7341
7 33 3 -9.9432 35.6201
7 33 4 -3.8434 10.7287
7 33 5 23.1090 5.3552
7 33 6 -15.3579 -1.6630
7 33 7 -9.6686 -8.8722
7 33 8 -14.0681 -5.6986
7 33 9 -6.1641 26.1953
7 33 10 -9.4688 -3.0360
7 33 11 2.5613 10.9317
7 33 12 -3.7742 -5.8145
7 33 13 -10.7205 -1.8919
7 33 14 7.6401 7.4990
7 33 15 -1.0354 0.2809
7 33 16 -0.5672 2.6220
7 33 17 -3.4042 -0.5531
7 33 18 8.8023 -9.0358
7 33 19 3.5091 2.6438
7 33 20 -10.6601 19.9854
7 33 21 6.7279 5.3910
7 33 22 12.0385 -3.9278
7 33 23 0.9871 7.8008
7 33 24 3.2312 -8.6433
7 33 25 3.2340 5.4280
7 33 26 -2.8697 5.2434
7 33 27 -5.1270 0.1403
7 33 28 11.6598 15.5862
7 33 29 6.4777 3.7845
7 33 30 -5.8667 -17.6024
7 33 31 -7.9251 -17.3562
7 35 0 26.1021 -0.2561
7 35 1 1.7455 10.1096
7 35 2 -13.2297 -19.7501
7 35 3 1.7034 13.8046
7 35 4 2.5248 -0.0547
7 35 5 -0.0117 -5.7625
7 35 6 -0.2276 -11.5108
7 35 7 1.7621 -3.4956
7 35 8 1.1375 -25.0863
7 35 9 -3.8316 -7.5007
7 35 10 -5.8215 -9.9840
7 35 11 0.2978 3.4944
7 35 12 4.0816 11.1587
7 35 13 -3.7944 6.2041
7 35 14 -6.2021 -3.1460
7 35 15 -7.5045 -5.4117
7 35 16 -3.2973 10.3740
7 35 17 -4.8083 -3.6139
7 35 18 -18.8482 1.3416
7 35 19 -4.9767 0.7736
8 0 0 -158.5950 -0.8302
8 0 1 0.0228 -66.8558
8 0 2 41.3673 0.3927
8 0 3 -1.4657 -18.4338
8 0 4 43.3351 -0.1189
8 0 5 2.4006 -30.1495
8 0 6 22.8014 -0.9959
8 0 7 3.6800 60.7899
8 0 8 -39.5050 1.9530
8 0 9 -3.5592 6.7529
8 0 10 46.0970 1.3450
8 0 11 -4.2750 63.6669
8 0 12 13.7814 -3.3171
8 0 13 4.1772 -47.2540
8 0 14 151.0752 -0.7657
8 0 15 3.5049 -57.8180
8 0 16 25.9900 2.8293
8 0 17 -4.2515 -2.6380
8 0 18 -17.5767 0.4735
8 0 19 -2.4774 49.5783
8 0 20 46.5014 -0.9657
8 0 21 3.7283 32.0849
8 0 22 45.9503 -0.6092
8 0 23 0.9961 35.2554
8 0 24 13.0566 -1.3050
8 0 25 -2.7048 78.7587
8 0 26 13.4383 0.9651
8 0 27 0.1714 59.8472
8 0 28 -7.4811 2.0797
8 0 29 1.9117 -54.0809
8 0 30 -13.1064 -1.0692
8 0 31 -0.4427 -21.4582
8 0 32 -12.0987 -1.7063
8 0 33 -1.1114 -13.3352
8 0 34 -13.0327 0.9346
8 0 35 0.3512 -12.9881
8 0 36 10.3973 0.5335
8 0 37 0.2510 4.7913
8 0 38 -7.6462 -0.3483
8 0 39 -0.1151 21.2987
8 0 40 3.1537 0.3706
8 0 41 0.2922 22.1887
8 0 42 7.5303 -0.2535
8 0 43 -0.1477 7.6748
8 0 44 4.7986 -0.6982
8 0 45 -0.4062 7.4723
8 0 46 -17.2858 0.5826
8 0 47 0.1940 5.8787
8 0 48 4.4355 0.5363
8 0 49 0.2359 -20.3027
8 0 50 -0.5119 -0.4399
8 0 51 -0.0737 -5.3430
8 0 52 -15.7551 -0.0370
8 0 53 0.0279 -15.7993
8 0 54 12.1776 0.1289
8 0 55 -0.0529 10.0124
8 0 56 -6.7682 -0.2162
8 0 57 -0.2534 -1.1851
8 0 58 22.5035 0.1101
8 0 59 0.1536 6.5249
8 0 60 -4.0720 0.1576
8 0 61 0.3167 11.0178
8 0 62 13.5699 -0.1964
8 0 63 -0.1841 12.6857
8 0 64 11.3260 -0.0309
8 2 0 -82.0833 0.4267
8 2 1 45.8448 -9.7830
8 2 2 -37.9236 -52.1005
8 2 3 -108.7502 34.1810
8 2 4 14.7307 184.0062
8 2 5 20.2702 -35.5651
8 2 6 6.7994 77.0060
8 2 7 -34.6116 10.4017
8 2 8 24.3094 -40.8669
8 2 9 -153.8545 1.0242
8 2 10 -89.5306 -88.5760
8 2 11 -0.5605 -17.2295
8 2 12 20.5143 -8.6400
8 2 13 -15.3855 16.2004
8 2 14 0.6220 60.1023
8 2 15 63.1906 34.1990
8 2 16 -15.8398 -16.7056
8 2 17 33.3103 -42.7078
8 2 18 -71.3961 33.2755
8 2 19 21.6319 -8.1447
8 2 20 -58.8862 41.9723
8 2 21 -15.4267 -35.6019
8 2 22 -17.5424 -65.4263
8 2 23 -36.2070 -35.1572
8 2 24 40.9430 -56.9031
8 2 25 -30.6301 21.0754
8 2 26 -42.9051 17.3837
8 2 27 -12.7557 -37.0835
8 2 28 -48.4173 47.1246
8 2 29 30.1974 45.6809
8 2 30 -61.6473 -1.2592
8 2 31 50.2894 55.2274
8 2 32 -12.6053 11.9072
8 2 33 24.5433 -21.5238
8 2 34 47.2965 -34.2432
8 2 35 -17.9091 -1.9434
8 2 36 -25.6907 -18.1194
8 2 37 9.6634 2.9390
8 2 38 -17.7691 -10.4055
8 2 39 9.7335 -8.3457
8 2 40 14.3008 15.2881
8 2 41 -6.9217 14.5196
8 2 42 8.0203 1.6187
8 2 43 -23.5341 1.4017
8 2 44 -2.0334 -37.4325
8 2 45 -8.7220 13.4707
8 2 46 -7.8168 -1.4534
8 2 47 -21.8598 -15.7357
8 2 48 -13.3389 20.5137
8 2 49 11.9992 -10.8820
8 2 50 5.0767 -26.5213
8 2 51 -19.6462 -9.9493
8 2 52 -10.8401 -30.2604
8 2 53 -9.8645 -15.9058
8 2 54 -9.1313 -30.0656
8 2 55 10.4819 -10.8931
8 2 56 6.7573 11.7644
8 2 57 12.4712 -7.6922
8 2 58 -4.9155 -7.7435
8 2 59 -0.2170 8.0258
8 2 60 -2.7280 1.6734
8 2 61 -9.1995 -5.3145
8 2 62 -1.4969 -7.0337
8 2 63 20.2849 -1.3951
8 2 64 -5.3178 0.0824
8 2 65 0.9280 0.3188
8 2 69 4.3089 3.2832
8 2 70 9.1462 -5.1036
8 2 71 1.5611 12.5961
8 4 0 -30.7481 2.2729
8 4 1 -66.3699 91.8260
8 4 2 -16.6123 -14.5570
8 4 3 -27.0926 -65.2048
8 4 4 -5.5471 -79.0827
8 4 5 -3.1833 -8.4623
8 4 6 -50.0139 35.3146
8 4 7 26.4374 23.5473
8 4 8 -32.5736 -28.1554
8 4 9 40.6974 -18.6490
8 4 10 -12.6308 51.6002
8 4 11 2.8469 -1.7171
8 4 12 -34.4679 -21.9436
8 4 13 -67.0425 28.6406
8 4 14 38.7892 -12.0211
8 4 15 -60.4610 0.2136
8 4 16 -81.4912 -11.3743
8 4 17 12.8184 -22.0838
8 4 18 -7.2753 -6.2874
8 4 19 11.2956 15.3286
8 4 20 4.0961 -35.0212
8 4 21 -28.2861 -61.4212
8 4 22 -20.2112 15.7968
8 4 23 -16.4434 -118.5624
8 4 24 -71.9695 -13.0276
8 4 25 -55.7947 40.5687
8 4 26 -96.5696 44.7544
8 4 27 -28.0585 0.6891
8 4 28 -74.1075 29.0889
8 4 29 -30.3986 -8.2593
8 4 30 10.9086 -2.7423
8 4 31 -5.9151 2.2085
8 4 32 6.7760 -9.0565
8 4 33 -34.4630 21.4075
8 4 34 7.5542 -45.5665
8 4 35 -5.5735 -30.9398
8 4 36 -55.9196 5.5910
8 4 37 84.9488 -14.5291
8 4 38 -65.8512 -8.4992
8 4 39 19.3859 -25.3555
8 4 40 -43.0064 -46.6467
8 4 41 -20.1894 11.5637
8 4 42 -4.5891 -23.0602
8 4 43 -8.0057 -11.8502
8 4 44 -14.9626 -9.2242
8 4 45 10.3129 29.9080
8 4 46 23.4993 -2.9985
8 4 47 0.5733 -0.4636
8 4 48 -16.0017 -5.1729
8 4 49 -0.9693 0.3755
8 4 50 11.4083 4.5022
8 4 51 8.3488 -2.4571
8 4 52 -3.6182 3.2283
8 4 53 -11.5540 7.8237
8 4 54 -0.3382 -0.2705
8 4 55 -7.8459 10.1710
8 4 56 -23.3044 0.9562
8 4 57 -1.8216 -11.4181
8 4 58 2.1176 13.7451
8 4 59 -2.0044 4.9285
8 4 60 -9.5156 -2.4313
8 4 61 -0.0058 -1.1675
8 4 62 -9.1057 -33.8941
8 4 63 -2.4790 -3.4471
8 4 64 2.2119 -1.4198
8 4 65 -4.6845 4.4983
8 4 66 11.8587 -4.5062
8 4 67 -3.4692 8.3649
8 4 68 -8.1357 -5.8188
8 4 69 -1.5540 -1.3982
8 4 70 -6.1848 1.3644
8 6 0 -0.0770 0.0278
8 6 1 -52.5307 -53.2540
8 6 2 43.2221 -37.0607
8 6 3 -23.9660 -17.8464
8 6 4 75.3587 -14.0933
8 6 5 59.9091 -22.7110
8 6 6 72.8263 -66.7935
8 6 7 25.4473 7.0650
8 6 8 43.2575 64.9398
8 6 9 -1.8023 106.3954
8 6 10 62.8196 28.5287
8 6 11 -48.7419 2.8011
8 6 12 34.7058 23.2684
8 6 13 -27.5488 3.0525
8 6 14 -5.3025 21.5864
8 6 15 -41.9859 -57.0462
8 6 16 -56.3555 40.9913
8 6 17 -1.3056 -7.3980
8 6 18 -53.9778 9.3404
8 6 19 12.2434 -27.1155
8 6 20 3.4429 13.5777
8 6 21 23.7229 -26.4217
8 6 22 -41.2075 -94.5478
8 6 23 37.5979 -29.4199
8 6 24 30.4452 8.6337
8 6 25 47.4400 5.7804
8 6 26 46.0485 -5.6679
8 6 27 46.4023 -29.8234
8 6 28 -37.6099 12.8575
8 6 29 47.4490 -17.0817
8 6 30 8.4726 1.9046
8 6 31 1.1599 -7.5043
8 6 32 37.0644 -4.6853
8 6 33 60.7567 7.4519
8 6 34 22.2581 -10.8741
8 6 35 -15.8245 -26.6494
8 6 36 -26.4991 -57.7145
8 6 37 21.4890 -15.6556
8 6 38 -25.8448 30.8074
8 6 39 -6.7881 16.2270
8 6 40 27.4225 -3.7197
8 6 41 -1.1806 12.8562
8 6 42 -23.6535 0.8601
8 6 43 -16.9319 30.4389
8 6 44 0.9488 6.5919
8 6 45 -23.0755 11.1548
8 6 46 6.2684 -1.7449
8 6 47 11.0967 -1.2704
8 6 48 7.3765 19.2302
8 6 49 -9.1334 -18.6289
8 6 50 8.3246 -20.8884
8 6 51 2.9649 40.8223
8 6 52 22.0579 4.2835
8 6 53 -8.2148 -16.8285
8 6 54 4.4976 -9.0393
8 6 55 -0.0911 -20.1042
8 6 56 15.9480 -12.5583
8 6 57 6.0243 -6.5839
8 6 58 2.7847 10.7102
8 6 59 21.0388 -19.7575
8 6 60 -10.4812 2.2388
8 6 61 -0.5164 23.1378
8 6 62 -26.0013 17.9685
8 6 66 -6.0089 -6.0361
8 6 67 -10.1005 -0.5977
8 6 68 2.9211 -4.2637
8 6 69 0.5303 14.7328
8 6 70 -0.6460 0.6535
8 6 71 1.5718 0.9263
8 8 0 -9.2553 -1.4304
8 8 1 -44.8825 3.3504
8 8 2 -26.8761 43.6314
8 8 3 58.6272 -18.5723
8 8 4 -80.6320 107.9339
8 8 5 -50.0100 3.0409
8 8 6 41.1364 58.9564
8 8 7 17.4999 12.6801
8 8 8 76.7697 21.3823
8 8 9 115.0988 -52.7523
8 8 10 51.8734 22.5038
8 8 11 -10.5292 -5.9846
8 8 12 -0.5972 -16.4460
8 8 13 47.6029 8.6708
8 8 14 -0.1005 32.6455
8 8 15 68.5797 9.1949
8 8 16 74.7514 -6.2094
8 8 17 13.1879 20.8231
8 8 18 -9.7034 86.7429
8 8 19 4.6726 -3.1878
8 8 20 26.1871 9.2911
8 8 21 -77.8404 4.5776
8 8 22 26.3771 -12.0973
8 8 23 -27.9294 50.4977
8 8 24 42.0562 -53.3435
8 8 25 -33.3645 -79.8602
8 8 26 11.7710 -28.5784
8 8 27 16.7654 13.5755
8 8 28 -24.9210 -29.0314
8 8 29 -4.1900 -44.8693
8 8 30 -5.9299 8.7649
8 8 31 -14.5436 68.4787
8 8 32 -39.5423 -2.5718
8 8 33 9.0664 -0.4819
8 8 34 -9.9081 9.0514
8 8 35 5.9879 14.1447
8 8 36 37.9246 23.5163
8 8 37 37.1670 10.9555
8 8 38 -27.9736 25.9006
8 8 39 -33.9684 -4.0703
8 8 40 -11.9148 7.2497
8 8 41 14.8922 -7.1644
8 8 42 20.0909 5.0462
8 8 43 10.3770 2.0363
8 8 44 1.1435 12.1971
8 8 45 0.1570 0.7346
8 8 46 -12.2853 12.3554
8 8 47 -7.6200 5.7311
8 8 48 -18.8109 2.8877
8 8 49 14.5265 27.3443
8 8 50 9.8075 11.1681
8 8 51 -2.7991 15.7352
8 8 52 2.9816 4.1803
8 8 53 -14.3871 16.4226
8 8 54 -23.0095 6.0306
8 8 55 0.1784 0.3868
8 8 56 -3.9466 -3.6592
8 8 57 -7.5589 -2.0773
8 8 58 -8.8411 7.2566
8 8 59 -1.7141 13.6307
8 8 60 -7.0598 5.5445
8 8 61 4.7781 -6.8074
8 8 62 -1.5937 -7.4295
8 8 67 5.0675 -9.0485
8 8 68 0.3696 12.7156
8 8 69 -8.0748 -5.4541
8 10 0 -35.1968 -1.7342
8 10 1 33.6521 57.7950
8 10 2 85.4020 24.2728
8 10 3 53.0441 49.7626
8 10 4 -29.2514 -16.8733
8 10 5 -14.7225 -25.8764
8 10 6 40.3901 -16.2530
8 10 7 24.3141 -5.0946
8 10 8 -71.9396 65.6188
8 10 9 103.3130 -87.5020
8 10 10 91.7585 -5.9232
8 10 11 -5.8173 -92.3328
8 10 12 7.4844 -11.9557
8 10 13 -15.7101 73.7355
8 10 14 -4.2793 1.1390
8 10 15 -60.2291 22.2356
8 10 16 -23.5466 -15.2134
8 10 17 -2.2525 11.3007
8 10 18 73.6743 20.6960
8 10 19 -8.3508 -13.0595
8 10 20 15.8977 -40.7165
8 10 21 21.4596 -11.0105
8 10 22 14.1734 26.1027
8 10 23 54.0894 -14.2327
8 10 24 -15.3578 -22.3174
8 10 25 99.7078 -60.0861
8 10 26 -26.4372 17.0242
8 10 27 64.6663 46.1446
8 10 28 -24.3448 25.7209
8 10 29 -2.3489 -67.6738
8 10 30 -22.8328 38.7039
8 10 31 35.6740 39.4687
8 10 32 -34.4358 53.3146
8 10 33 18.0336 2.4886
8 10 34 -7.7060 13.7614
8 10 35 -2.0763 -42.0145
8 10 36 -2.9886 -14.1644
8 10 37 17.8829 -11.2016
8 10 38 -1.9847 -1.1115
8 10 39 11.3810 -0.4285
8 10 40 -12.6362 -5.4692
8 10 41 15.9139 -37.5814
8 10 42 -35.3889 -13.0200
8 10 43 4.7498 -4.2914
8 10 44 -0.7736 5.1573
8 10 45 1.9914 -17.6912
8 10 46 -24.5966 12.7837
8 10 47 21.3538 -9.2969
8 10 48 -4.3274 17.9823
8 10 49 -8.4117 4.3953
8 10 50 5.8491 15.7081
8 10 51 -1.8725 -3.6521
8 10 52 -1.0898 -8.5772
8 10 53 9.1745 -1.4924
8 10 54 0.6327 2.2490
8 10 55 12.2720 -17.7774
8 10 56 -3.6056 -11.2684
8 10 57 0.0646 -15.2754
8 10 58 0.9724 -9.1285
8 10 59 0.5907 16.6721
8 10 60 5.4101 12.7537
8 10 61 1.6672 5.4119
8 10 62 2.0561 1.6481
8 10 63 4.0206 2.3333
8 10 64 3.9046 -6.7804
8 10 65 -7.7861 6.2175
8 10 66 17.1838 11.2873
8 10 67 11.3382 -3.5487
8 12 0 -47.2168 3.2777
8 12 1 19.3050 -20.9649
8 12 2 39.5301 -44.0447
8 12 3 26.9623 2.6942
8 12 4 -6.8490 -60.4157
8 12 5 -2.1884 5.5333
8 12 6 45.4972 -8.5480
8 12 7 32.4969 38.3196
8 12 8 -49.6194 37.4182
8 12 9 -9.2729 23.6023
8 12 10 76.4168 45.7653
8 12 11 57.7852 20.5075
8 12 12 16.2133 27.9301
8 12 13 26.7336 -7.2624
8 12 14 32.2094 -5.0600
8 12 15 -92.5274 50.8843
8 12 16 59.3758 -34.3738
8 12 17 3.6020 54.4184
8 12 18 -113.8561 -26.5226
8 12 19 -23.3328 -16.0117
8 12 20 13.9036 3.4388
8 12 21 -28.0785 -23.2188
8 12 22 4.3950 -19.4619
8 12 23 40.0749 -4.4843
8 12 24 -21.1462 -50.4534
8 12 25 26.6052 -17.8459
8 12 26 -12.8840 12.4511
8 12 27 -35.4688 -11.1084
8 12 28 5.9932 16.3404
8 12 29 33.0143 -8.8930
8 12 30 -5.9906 -0.0126
8 12 31 -12.5721 -14.2904
8 12 32 -6.2912 -5.3489
8 12 33 32.4045 23.9172
8 12 34 13.6523 4.2898
8 12 35 4.5635 8.8819
8 12 36 11.3967 -11.0617
8 12 37 -13.9165 -11.3019
8 12 38 6.4339 -20.2902
8 12 39 10.9496 9.9923
8 12 40 12.8982 -2.3789
8 12 41 18.6998 8.1507
8 12 42 -1.7204 -7.1118
8 12 43 5.8980 11.8042
8 12 44 -14.0095 -15.3733
8 12 45 -5.1889 -2.8946
8 12 46 16.9274 -1.7684
8 12 47 -6.3936 16.3438
8 12 48 4.1281 1.5926
8 12 49 5.9587 13.9252
8 12 50 -0.7996 -2.9160
8 12 51 15.8429 6.1867
8 12 52 8.4560 -5.8875
8 12 53 7.1832 -0.9606
8 12 54 -0.0857 -12.5870
8 12 55 10.9300 -4.0766
8 12 56 1.4115 -7.7067
8 12 57 5.9082 3.1541
8 12 58 -5.0458 12.5617
8 12 59 -7.1315 -15.0394
8 12 60 -0.5817 -2.7867
8 12 61 -3.0304 -1.9446
8 12 62 -0.1103 -6.8779
8 12 63 -0.5049 -5.0529
8 12 64 -2.0195 7.7499
8 12 65 23.0504 -15.7157
8 12 66 -1.6283 8.2627
8 12 67 4.2268 6.2172
8 14 0 -16.8224 0.0403
8 14 1 -34.4375 26.2062
8 14 2 22.4759 12.0105
8 14 3 -17.5394 69.0496
8 14 4 7.3619 -81.4362
8 14 5 -38.2656 -4.4993
8 14 6 22.4392 -15.2133
8 14 7 -10.9679 25.5290
8 14 8 -7.0660 -32.6410
8 14 9 -43.3649 -31.6784
8 14 10 -34.8005 25.7664
8 14 11 -62.4588 50.0365
8 14 12 -17.5547 -17.0921
8 14 13 5.0242 -24.2215
8 14 14 49.8102 -12.0255
8 14 15 27.2978 -12.5755
8 14 16 5.4940 3.1992
8 14 17 32.1408 58.1451
8 14 18 -1.0937 -16.3807
8 14 19 53.7100 2.9909
8 14 20 -4.7563 -9.6798
8 14 21 -20.9018 -25.4511
8 14 22 13.5695 -11.7614
8 14 23 48.5508 -3.5182
8 14 24 -1.0439 10.4863
8 14 25 -4.8797 11.1502
8 14 26 17.6918 -5.1886
8 14 27 14.7262 -8.1720
8 14 28 -24.4199 37.0626
8 14 29 1.2774 22.6944
8 14 30 33.7707 21.4443
8 14 31 10.0008 34.0119
8 14 32 5.2452 -4.0520
8 14 33 -9.8995 18.7842
8 14 34 -39.6795 -7.9591
8 14 35 -19.1260 8.0107
8 14 36 53.2754 31.8017
8 14 37 -10.7954 10.1422
8 14 38 -36.6071 8.9814
8 14 39 33.7217 5.4692
8 14 40 -14.7843 7.4239
8 14 41 4.2773 -1.5819
8 14 42 -29.7219 3.4750
8 14 43 19.0436 5.5493
8 14 44 29.9054 6.2258
8 14 45 17.4554 -14.3837
8 14 46 -13.0772 -17.4941
8 14 47 14.7255 1.5036
8 14 48 -8.9003 -25.5124
8 14 49 11.6122 -8.9895
8 14 50 9.5469 10.4507
8 14 51 -9.2649 10.0952
8 14 52 -1.7640 2.7358
8 14 53 -15.9455 -3.1437
8 14 54 3.0283 0.1899
8 14 55 -7.0259 -3.9586
8 14 56 -2.5636 -3.1782
8 14 57 -13.5988 0.4717
8 14 58 5.9233 23.1817
8 14 59 14.9757 19.9902
8 14 60 15.8020 -7.2444
8 14 61 -6.2102 0.9720
8 14 62 -0.6488 -1.0724
8 14 63 1.1690 9.6030
8 14 64 1.2675 13.0447
8 14 65 -4.4522 -10.5954
8 14 66 4.0812 -2.4647
8 14 67 -4.3692 -5.5734
8 14 68 5.5512 15.0320
8 16 0 -29.3389 -1.6353
8 16 1 9.0450 51.1349
8 16 2 -77.1387 28.6567
8 16 3 -27.5585 0.9273
8 16 4 3.4697 0.6142
8 16 5 -14.7988 0.4325
8 16 6 -16.8433 -7.2786
8 16 7 3.7677 -13.8495
8 16 8 -23.3721 -4.8670
8 16 9 24.6136 -43.9757
8 16 10 -23.2074 -6.9122
8 16 11 -22.6484 -92.0126
8 16 12 16.2302 -29.3480
8 16 13 26.1483 75.3443
8 16 14 -11.1867 -30.7039
8 16 15 -42.5028 -5.3670
8 16 16 -10.0996 -16.4851
8 16 17 12.0386 15.4222
8 16 18 -11.5701 50.3129
8 16 19 -10.1531 -6.8990
8 16 20 50.6360 -29.8775
8 16 21 -24.4017 28.0251
8 16 22 14.5634 -21.2408
8 16 23 6.6150 42.1210
8 16 24 6.6830 -8.2885
8 16 25 -35.9775 -24.0472
8 16 26 -2.3208 29.8638
8 16 27 38.7059 -35.2743
8 16 28 -10.7134 10.3551
8 16 29 -79.2303 -50.2392
8 16 30 31.5909 51.9522
8 16 31 83.6542 15.3818
8 16 32 15.1532 29.2019
8 16 33 -66.0905 -0.0511
8 16 34 -10.2049 -0.7980
8 16 35 -28.1832 -43.0044
8 16 36 4.5357 14.1668
8 16 37 1.7025 21.7712
8 16 38 -22.1438 -14.9041
8 16 39 31.5269 44.7939
8 16 40 1.0332 13.9085
8 16 41 -11.5971 0.6419
8 16 42 -2.0614 -0.3534
8 16 43 -40.9261 -5.7454
8 16 44 -32.9983 5.9073
8 16 45 -9.0113 -12.2524
8 16 46 -4.6613 -7.4164
8 16 47 4.3693 0.0321
8 16 48 -10.4342 -1.7333
8 16 49 -21.3160 1.4359
8 16 50 -1.2699 4.2237
8 16 51 2.5345 -2.1970
8 16 52 4.0994 -0.7665
8 16 53 1.5158 -2.5669
8 16 54 3.2748 -1.6969
8 16 55 -1.0603 8.9939
8 16 56 -0.9058 -11.6801
8 16 57 3.4419 -1.3545
8 16 58 -6.4006 3.5283
8 16 59 -3.3417 -0.9860
8 16 60 6.8167 6.0789
8 16 61 -1.4928 7.7712
8 16 62 5.6836 4.6210
8 16 63 10.5932 -1.1439
8 16 64 15.6560 4.2761
8 16 65 8.5229 14.5113
8 18 0 -33.5650 -0.3920
8 18 1 -11.4971 22.1610
8 18 2 -21.0023 14.1497
8 18 3 -49.4379 -17.7360
8 18 4 34.3572 0.9010
8 18 5 -52.4861 -66.6860
8 18 6 8.0738 -23.0083
8 18 7 17.8445 -53.1787
8 18 8 -11.3060 -29.6391
8 18 9 -39.2142 -34.0712
8 18 10 3.9238 -1.1022
8 18 11 -20.0275 16.1487
8 18 12 60.7778 -33.6555
8 18 13 21.3507 20.2917
8 18 14 -2.6380 19.1449
8 18 15 6.2078 26.7179
8 18 16 5.0706 -7.6583
8 18 17 36.5708 11.3584
8 18 18 -40.3086 74.8114
8 18 19 -8.8555 18.6523
8 18 20 50.5063 -10.4536
8 18 21 -5.6148 -27.2089
8 18 22 -14.0987 29.1113
8 18 23 -2.7107 -3.4245
8 18 24 -7.1836 -37.1399
8 18 25 -21.7025 -14.9904
8 18 26 -27.3245 48.8247
8 18 27 -2.8354 -20.5626
8 18 28 -3.0483 -8.1202
8 18 29 2.0617 -8.9685
8 18 30 -31.0877 -9.3361
8 18 31 23.0457 1.2774
8 18 32 69.6799 60.6528
8 18 33 -55.8754 -22.8038
8 18 34 3.9664 -5.7939
8 18 35 -3.2008 -14.3795
8 18 36 -38.3670 -2.8371
8 18 37 5.8251 -12.5819
8 18 38 -21.0897 3.0372
8 18 39 11.4999 19.3709
8 18 40 4.6664 -12.1270
8 18 41 3.6746 -1.5679
8 18 42 1.7019 4.3792
8 18 43 -20.8246 -8.6932
8 18 44 13.2004 2.0227
8 18 45 -13.2049 -1.3546
8 18 46 22.4181 5.8265
8 18 47 6.6181 -1.8866
8 18 48 17.2499 -7.2945
8 18 49 10.0709 -2.8136
8 18 50 1.1043 8.2671
8 18 51 3.8315 2.3906
8 18 52 -9.4980 -2.4078
8 18 53 2.3885 4.9757
8 18 54 -1.6164 12.1352
8 18 55 -6.0858 -1.0991
8 18 56 -4.1084 14.5862
8 18 57 -2.0392 0.3831
8 18 58 5.5380 11.9225
8 18 59 -6.3628 2.3150
8 18 60 1.4082 3.9398
8 18 61 -1.7781 20.6454
8 18 62 -6.8673 -6.0237
8 18 63 15.7853 -6.0280
8 20 0 -0.8648 -0.6670
8 20 1 33.9290 31.3908
8 20 2 -2.4297 -44.5160
8 20 3 -22.3668 -1.0516
8 20 4 20.8504 -18.6281
8 20 5 -6.7583 19.0244
8 20 6 -40.0203 -62.4084
8 20 7 -3.8930 -61.7575
8 20 8 16.3481 1.4119
8 20 9 13.3752 -11.3314
8 20 10 38.2334 -61.8617
8 20 11 -2.9894 -2.5297
8 20 12 5.8691 -0.4875
8 20 13 11.3731 15.5909
8 20 14 15.4268 -53.8320
8 20 15 -19.1535 4.8304
8 20 16 -95.2766 -11.6665
8 20 17 40.3809 77.0369
8 20 18 12.2413 -12.3603
8 20 19 -0.7554 22.6907
8 20 20 -20.3271 -22.9255
8 20 21 17.2805 9.9989
8 20 22 -16.6361 -26.3969
8 20 23 -31.5228 4.4009
8 20 24 -27.3929 -3.0794
8 20 25 -13.3444 5.9248
8 20 26 -24.5815 -18.0063
8 20 27 8.3914 3.9412
8 20 28 -26.9069 8.6462
8 20 29 2.4933 29.4569
8 20 30 38.7038 -26.2793
8 20 31 -52.2703 -44.7739
8 20 32 67.4690 12.3711
8 20 33 0.4673 29.3285
8 20 34 5.2919 -27.5625
8 20 35 -26.8652 -36.8817
8 20 36 16.7858 -12.2671
8 20 37 -16.4587 2.8987
8 20 38 -5.3534 16.0637
8 20 39 2.8250 5.7156
8 20 40 8.9796 26.9632
8 20 41 2.6024 1.3114
8 20 42 -7.1212 21.5209
8 20 43 -2.7546 -3.5209
8 20 44 -2.9460 4.5796
8 20 45 0.4400 -1.1480
8 20 46 2.5465 16.2778
8 20 47 1.0083 -0.1233
8 20 48 -9.3971 -3.5831
8 20 49 -5.2710 4.8795
8 20 50 3.1995 -12.5511
8 20 51 2.0051 12.0614
8 20 52 9.7563 4.0092
8 20 53 -2.9659 9.3812
8 20 54 -2.7135 2.2448
8 20 55 8.7666 -15.3522
8 20 56 1.0231 -2.2304
8 20 57 13.5922 32.3599
8 20 58 0.9874 23.8928
8 20 59 -1.6867 14.5418
8 20 60 -24.6881 -0.6011
8 22 0 -18.9791 3.6228
8 22 1 -33.1358 40.1767
8 22 2 24.5855 -27.6147
8 22 3 -7.7514 -42.5610
8 22 4 -11.9398 78.2794
8 22 5 -24.5131 -21.8193
8 22 6 3.8349 11.5610
8 22 7 25.6442 -29.7787
8 22 8 -10.0959 21.4456
8 22 9 -18.6527 1.9825
8 22 10 -20.2394 20.9762
8 22 11 44.1176 -15.4827
8 22 12 43.9301 44.5829
8 22 13 -19.4126 15.7999
8 22 14 28.0582 -31.3914
8 22 15 43.9594 -12.4268
8 22 16 11.0349 4.9367
8 22 17 -97.3701 -1.8930
8 22 18 -58.9489 -66.3706
8 22 19 -0.7922 -15.1964
8 22 20 12.9802 10.3112
8 22 21 47.6263 12.7746
8 22 22 -1.8938 -4.2276
8 22 23 50.6801 -24.8705
8 22 24 -2.7723 24.0302
8 22 25 5.6465 12.6564
8 22 26 -5.9856 -6.5864
8 22 27 9.4968 -15.3732
8 22 28 6.1026 -33.9812
8 22 29 -9.4769 2.2538
8 22 30 37.1242 36.7162
8 22 31 19.1503 17.7550
8 22 32 0.5504 -38.4846
8 22 33 -9.8896 25.5861
8 22 34 -4.6819 -0.6017
8 22 35 13.3209 6.7158
8 22 36 -2.1905 -26.4873
8 22 37 12.2164 13.0670
8 22 38 -10.4824 5.2931
8 22 39 -25.1224 26.0728
8 22 40 4.4528 -28.2667
8 22 41 -10.3613 6.8943
8 22 42 11.4598 3.3422
8 22 43 13.2888 -0.9448
8 22 44 1.1143 12.3358
8 22 45 -25.0997 -18.2432
8 22 46 -6.8439 -13.1329
8 22 47 -5.9308 6.9504
8 22 48 6.7268 -3.0844
8 22 49 -34.9085 -6.9429
8 22 50 1.6161 10.0486
8 22 51 -27.1746 2.4910
8 22 52 -11.0608 -9.8750
8 22 53 -9.8337 -4.9357
8 22 54 10.3170 -8.2700
8 22 55 3.4286 2.9802
8 24 0 15.5758 -2.6670
8 24 1 -26.5853 42.4192
8 24 2 -18.7773 -17.0225
8 24 3 -37.7476 -34.7006
8 24 4 -15.0111 -25.7649
8 24 5 -22.9451 -1.3197
8 24 6 11.8990 4.8358
8 24 7 -27.0095 -13.8712
8 24 8 8.4553 -7.0218
8 24 9 8.6900 -0.6291
8 24 10 2.6907 -12.4924
8 24 11 -19.5710 -25.6627
8 24 12 -31.4902 47.9878
8 24 13 -41.9514 -21.1932
8 24 14 -30.1180 10.6353
8 24 15 4.6489 -23.9569
8 24 16 69.0836 0.5595
8 24 17 -25.0216 -24.8437
8 24 18 3.3843 -20.6268
8 24 19 -31.7935 -41.8223
8 24 20 -11.5770 0.0843
8 24 21 1.6588 -18.5766
8 24 22 -1.5413 -7.3014
8 24 23 27.5771 -7.4764
8 24 24 -15.7873 6.3088
8 24 25 -19.6220 -1.8380
8 24 26 -35.9964 22.2096
8 24 27 -13.2162 -15.7066
8 24 28 10.7174 11.5791
8 24 29 -7.0844 -7.9084
8 24 30 20.3528 11.8940
8 24 31 -7.4518 -9.2274
8 24 32 -7.3377 4.0133
8 24 33 2.4420 -2.6219
8 24 34 4.2856 -1.4383
8 24 35 6.9881 10.1118
8 24 36 22.0432 10.9542
8 24 37 -3.1960 5.4123
8 24 38 5.6195 0.2209
8 24 39 -16.1798 16.6809
8 24 40 -9.2386 0.3229
8 24 41 -3.7241 -1.5416
8 24 42 -18.0060 -11.3224
8 24 43 -11.7483 16.8688
8 24 44 10.5338 -4.7260
8 24 45 -19.5542 -8.8973
8 24 46 -30.7027 -28.0722
8 24 54 -3.2415 2.0632
8 26 0 63.2549 -0.2506
8 26 1 -43.7278 21.5540
8 26 2 27.1319 14.6891
8 26 3 -14.7349 11.7185
8 26 4 -20.1915 6.2384
8 26 5 28.3269 -25.8325
8 26 6 44.0545 -1.8924
8 26 7 -12.0362 1.3458
8 26 8 74.4139 -7.2208
8 26 9 -6.7495 6.2654
8 26 10 24.2497 8.1789
8 26 11 9.4438 16.2052
8 26 12 -5.6247 -11.7464
8 26 13 33.0714 -7.5369
8 26 14 -22.9428 -6.6557
8 26 15 -37.6729 -17.7687
8 26 16 33.4555 13.3740
8 26 17 22.2945 -22.3473
8 26 18 20.4293 -50.2680
8 26 19 -25.5502 1.5791
8 26 20 7.3813 -13.1075
8 26 21 -5.6495 -0.3767
8 26 22 6.8210 -26.4957
8 26 23 -17.6066 10.9304
8 26 24 24.9331 -2.4786
8 26 25 40.0988 -7.2546
8 26 26 -11.1533 -21.2165
8 26 27 -12.4588 10.9535
8 26 28 -11.7444 18.9493
8 26 29 -11.4034 -3.5423
8 26 30 -15.2536 9.9419
8 26 31 8.8592 7.2287
8 26 32 4.3202 -7.7502
8 26 33 -9.0132 2.3157
8 26 34 5.3025 -21.7220
8 26 35 0.3968 6.0880
8 26 36 -8.6263 12.5997
8 26 37 -1.3137 2.0860
8 26 38 7.1777 -4.4806
8 26 39 -3.6598 -7.1991
8 26 40 -10.9223 0.3396
8 26 41 3.6170 3.8661
8 26 42 -8.8224 -4.2604
8 26 43 -0.2865 12.4188
8 26 44 -1.8668 7.5044
8 26 45 14.4042 7.4482
8 26 46 -1.6955 0.9753
8 26 47 -3.1058 -6.4479
8 26 48 20.0672 4.9926
8 26 49 -9.1574 -0.7887
8 26 50 -6.1582 15.9431
8 28 0 -15.4514 0.2900
8 28 1 -5.4900 13.5233
8 28 2 -19.6794 16.5854
8 28 3 20.3677 -4.1671
8 28 4 13.2680 9.8096
8 28 5 5.8179 -11.5706
8 28 6 -29.9340 -2.4679
8 28 7 11.7547 -9.6160
8 28 8 5.6777 -12.0723
8 28 9 -3.1817 -0.3210
8 28 10 12.6652 -7.0745
8 28 11 -14.3967 -39.8860
8 28 12 33.6534 10.4706
8 28 13 -24.3922 17.8910
8 28 14 -7.7461 3.1318
8 28 15 5.3602 -12.3391
8 28 16 -11.8778 18.2069
8 28 17 25.7771 19.7812
8 28 18 3.9524 5.2139
8 28 19 10.4478 -23.4083
8 28 20 25.8667 9.3578
8 28 21 6.9991 12.5983
8 28 22 -1.5451 10.1068
8 28 23 -8.2943 24.7487
8 28 24 7.9806 -14.2313
8 28 25 2.7626 27.0641
8 28 26 4.2065 -8.0984
8 28 27 3.9219 14.5697
8 28 28 -6.9810 -9.6543
8 28 29 3.5390 -1.5749
8 28 30 -8.5510 -1.8303
8 28 31 -3.9750 -4.4423
8 28 32 1.6178 -1.4753
8 28 33 9.4435 -11.7239
8 28 34 1.7252 -6.1204
8 28 35 0.8064 -10.5516
8 28 36 -5.0949 10.3070
8 28 37 -4.8627 5.1539
8 28 38 -6.1911 6.8940
8 28 39 2.5743 -13.5066
8 28 40 -3.7171 -12.5796
8 28 41 -20.1131 15.6911
8 28 42 1.6151 -7.7970
8 28 43 -5.7719 8.1112
8 28 44 -1.5786 0.9980
8 30 0 50.7328 0.2436
8 30 1 -28.0010 -27.8709
8 30 2 19.1943 -23.5722
8 30 3 -31.1324 10.4629
8 30 4 -24.4058 -26.8181
8 30 5 36.7802 35.7892
8 30 6 22.2502 -35.1614
8 30 7 -7.9520 3.6133
8 30 8 -14.5540 16.0016
8 30 9 4.9480 -1.1842
8 30 10 5.9981 -33.5205
8 30 11 -40.6003 7.7656
8 30 12 4.1735 -3.0676
8 30 13 -2.4513 15.0522
8 30 14 18.1676 2.4712
8 30 15 -12.2267 12.0534
8 30 16 -14.8937 -3.4502
8 30 17 -15.9515 -7.9089
8 30 18 -1.8822 -18.1357
8 30 19 -5.4542 3.7651
8 30 20 -9.4051 24.0185
8 30 21 0.2856 8.0643
8 30 22 6.2023 16.5035
8 30 23 2.7199 -18.6529
8 30 24 -17.6025 6.7402
8 30 25 1.8657 8.2823
8 30 26 -9.1255 -6.4493
8 30 27 -4.3225 -7.8145
8 30 28 -4.0859 2.7591
8 30 29 -4.2652 -4.4205
8 30 30 11.1199 2.4612
8 30 31 4.8170 7.0616
8 30 32 -2.5354 14.5312
8 30 33 8.1018 5.4097
8 30 34 7.4872 6.7716
8 30 35 -5.3942 5.7923
8 30 36 -12.6008 6.4640
8 30 37 -13.2660 -15.8777
8 30 38 -8.6351 4.8084
8 30 39 12.3927 14.4812
8 30 40 0.8727 -25.0817
8 32 0 -9.0302 1.3468
8 32 1 -18.0295 -45.9774
8 32 2 0.4534 0.5311
8 32 3 0.8191 30.6290
8 32 4 8.9008 -18.8088
8 32 5 45.1649 7.4280
8 32 6 0.8697 1.6784
8 32 7 8.6402 17.3099
8 32 8 2.4131 -8.1303
8 32 9 -6.9681 9.8400
8 32 10 -1.0177 6.9648
8 32 11 -7.6357 -12.0227
8 32 12 -25.9926 -13.9888
8 32 13 2.3568 -7.6878
8 32 14 -1.0893 -2.9049
8 32 15 -3.5454 5.2208
8 32 16 9.3940 -3.1946
8 32 17 -5.1886 5.8822
8 32 18 10.3057 -5.6555
8 32 19 -8.9773 -9.0866
8 32 20 -3.7762 8.6632
8 32 21 0.1712 5.2781
8 32 22 13.1057 11.1874
8 32 23 -8.1826 -23.1997
8 32 24 -12.6644 5.3468
8 32 25 9.9145 -0.3087
8 32 26 1.1821 -8.2170
8 32 27 -3.4579 -17.6622
8 32 28 5.3383 2.1389
8 32 29 -10.5199 -3.5076
8 32 30 -0.1229 -8.8580
8 32 31 -11.6605 -7.1380
8 32 32 8.5713 2.6718
8 32 33 14.2045 1.0270
8 34 0 1.5444 -1.9008
8 34 1 6.3788 -8.3309
8 34 2 -22.3206 -8.8602
8 34 3 1.8133 -3.5308
8 34 4 3.3886 5.9730
8 34 5 -3.8852 9.5827
8 34 6 10.8246 14.0266
8 34 7 3.2444 -0.2185
8 34 8 8.1825 14.8227
8 34 9 -1.9053 -5.8720
8 34 10 -2.4356 6.2852
8 34 11 -20.7582 -18.0599
8 34 12 -2.5368 0.4386
8 34 13 -0.3207 1.7757
8 34 14 0.2906 -12.2685
8 34 15 7.5795 -9.0849
8 34 16 6.8926 -2.1150
8 34 17 -9.2873 2.5206
8 34 18 13.6361 1.0676
8 34 19 3.5049 7.9976
8 34 20 -9.7459 -12.1097
8 34 21 1.2249 14.2976
8 34 22 -1.0954 -0.6021
8 34 23 11.9783 17.2696
8 34 24 -9.3001 -9.0777
8 36 0 5.6718 0.5395
8 36 1 -5.9294 -0.4763
8 36 2 21.5730 -6.7692
8 36 3 2.9826 4.3823
8 36 4 11.8269 -8.1667
9 1 0 75.7634 0.3354
9 1 1 -30.1751 12.4534
9 1 2 15.4062 65.8144
9 1 3 -27.3644 22.3468
9 1 4 41.3075 28.6447
9 1 5 -61.8545 -5.5246
9 1 6 43.8479 -32.6212
9 1 7 -56.8033 4.2107
9 1 8 4.2010 27.1473
9 1 9 -71.1164 16.7420
9 1 10 -41.8520 14.4738
9 1 11 -20.2745 -3.0587
9 1 12 -103.1405 -13.0075
9 1 13 -0.2748 -26.2496
9 1 14 48.7224 -83.5716
9 1 15 48.3996 -32.6321
9 1 16 -7.0810 21.3570
9 1 17 12.9330 11.2256
9 1 18 -10.6719 58.1140
9 1 19 -8.4153 37.1199
9 1 20 -4.1282 -25.9742
9 1 21 9.2389 16.9151
9 1 22 -63.1852 18.1029
9 1 23 10.3597 61.0373
9 1 24 3.2071 -46.6451
9 1 25 -80.1147 -9.9325
9 1 26 -15.3529 11.2885
9 1 27 12.0064 -88.8524
9 1 28 -17.2547 -33.3530
9 1 29 10.1828 -40.2293
9 1 30 1.7459 13.3592
9 1 31 18.2551 -47.7600
9 1 32 -9.7457 -22.8484
9 1 33 6.4997 -12.5885
9 1 34 46.2648 3.6056
9 1 35 12.4065 -29.5650
9 1 36 18.0844 12.3303
9 1 37 -0.3522 -13.1845
9 1 38 1.5809 44.1566
9 1 39 16.7386 -13.0819
9 1 40 9.3972 -19.5074
9 1 41 0.4446 -25.6618
9 1 42 -51.3086 11.1316
9 1 43 -17.5661 -7.5726
9 1 44 -40.5756 -9.8133
9 1 45 -12.8757 1.3193
9 1 46 -28.1372 15.9952
9 1 47 12.0667 12.4296
9 1 48 -12.9526 -18.7865
9 1 49 -11.4405 -20.6341
9 1 50 16.0078 -21.4545
9 1 51 -2.7871 15.6877
9 1 52 -4.3860 -15.0899
9 1 53 -3.6786 -1.2694
9 1 54 11.2580 -15.9592
9 1 55 -0.2751 24.5892
9 1 56 6.7588 -15.0780
9 1 57 8.2040 -0.2629
9 1 58 6.9291 13.0646
9 1 59 -1.7724 -1.9448
9 1 60 9.0226 1.4381
9 1 61 5.5723 -5.1220
9 1 62 -7.4551 -7.8156
9 1 63 -0.2181 5.7898
9 1 64 22.5341 8.4049
9 3 0 14.7219 3.3396
9 3 1 -37.4098 49.5929
9 3 2 69.8518 46.8269
9 3 3 -45.1412 18.0065
9 3 4 28.5672 -62.1322
9 3 5 -8.3038 25.6741
9 3 6 3.7231 -57.7759
9 3 7 12.7237 -40.6046
9 3 8 -2.1832 27.5970
9 3 9 -81.9591 32.8339
9 3 10 44.1005 45.1196
9 3 11 30.2441 -39.4848
9 3 12 -25.1798 -28.6394
9 3 13 -22.2686 43.8875
9 3 14 38.6887 7.6283
9 3 15 12.6306 9.6818
9 3 16 22.7962 -39.1775
9 3 17 11.2644 8.9369
9 3 18 -43.3046 -2.4823
9 3 19 4.4376 21.8279
9 3 20 -46.3820 -12.3438
9 3 21 63.8840 23.6205
9 3 22 -27.1673 -6.7256
9 3 23 -114.6112 61.3657
9 3 24 17.0758 82.2580
9 3 25 14.5361 25.7700
9 3 26 -6.8968 34.8000
9 3 27 6.1438 47.6475
9 3 28 -1.5741 104.9643
9 3 29 17.9159 37.1931
9 3 30 -60.8315 -4.2060
9 3 31 5.0246 1.1957
9 3 32 -19.5381 -1.3466
9 3 33 -17.0757 23.3292
9 3 34 -14.0567 11.5464
9 3 35 67.6453 45.8153
9 3 36 2.7337 -10.8820
9 3 37 -33.3550 -11.5505
9 3 38 -7.7469 7.2820
9 3 39 -6.0766 32.3915
9 3 40 21.8278 -5.5464
9 3 41 -8.6411 8.5776
9 3 42 -5.0980 7.3460
9 3 43 -12.4324 12.1279
9 3 44 -10.2946 1.3642
9 3 45 -22.0369 15.3344
9 3 46 16.3909 21.6801
9 3 47 1.3073 12.1051
9 3 48 -24.7627 -17.4352
9 3 49 -8.3912 35.7474
9 3 50 19.0650 5.3295
9 3 51 17.6312 6.1426
9 3 52 -7.9324 -9.0244
9 3 53 -15.3728 -0.8990
9 3 54 -1.9554 9.4197
9 3 55 11.2009 22.5064
9 3 56 -5.9502 -9.2790
9 3 57 -14.1054 7.4892
9 3 58 -4.1979 -7.1164
9 3 59 7.7607 -0.1534
9 3 60 -0.7724 5.9160
9 3 61 1.4580 -3.2395
9 3 62 2.8043 -3.1583
9 3 63 -17.1195 -2.9085
9 3 64 6.0579 -1.5299
9 3 65 0.4430 -5.1987
9 3 66 12.3098 -2.0324
9 3 67 9.1236 2.8592
9 3 68 5.8248 -2.7719
9 3 69 5.1158 10.4326
9 3 70 -5.3276 -3.2255
9 5 0 93.0935 -3.2761
9 5 1 -15.9391 16.1227
9 5 2 -45.2146 40.8361
9 5 3 6.2539 52.5137
9 5 4 -48.4960 4.3427
9 5 5 39.9747 -32.3507
9 5 6 16.8610 -10.9023
9 5 7 -37.6448 -37.6672
9 5 8 -56.0208 8.3680
9 5 9 45.3883 -73.3109
9 5 10 -6.9048 3.0112
9 5 11 62.3664 -62.5436
9 5 12 26.8841 15.3143
9 5 13 -14.8826 -92.0107
9 5 14 35.2154 -70.3526
9 5 15 6.4685 -4.9307
9 5 16 8.0844 -54.5208
9 5 17 -30.5284 14.7848
9 5 18 22.6234 -14.0930
9 5 19 -52.3529 -23.9646
9 5 20 65.3726 -9.6570
9 5 21 -19.7361 18.1786
9 5 22 13.8519 57.6634
9 5 23 -24.5350 -26.7879
9 5 24 73.6139 21.6061
9 5 25 19.7291 1.1969
9 5 26 -75.0012 -27.0062
9 5 27 -9.2763 -54.8969
9 5 28 6.7295 8.9508
9 5 29 14.1620 13.0587
9 5 30 -38.6270 -36.3274
9 5 31 79.2071 9.6060
9 5 32 -13.7814 -46.3979
9 5 33 -3.3501 -26.0228
9 5 34 -72.5272 -6.7766
9 5 35 16.0857 6.3167
9 5 36 -70.8815 -17.2255
9 5 37 5.4353 -23.9044
9 5 38 23.3573 13.0062
9 5 39 17.4602 18.1369
9 5 40 12.1524 10.8151
9 5 41 5.2186 -17.4760
9 5 42 -61.6606 -6.7088
9 5 43 -19.0948 -31.7942
9 5 44 2.1497 5.5232
9 5 45 -5.8589 4.9430
9 5 46 -1.0133 6.1312
9 5 47 -14.9698 -2.7758
9 5 48 7.8657 1.4998
9 5 49 -9.7916 15.4231
9 5 50 -27.3041 -22.1793
9 5 51 -20.8526 6.0352
9 5 52 -0.5067 -24.0628
9 5 53 19.4499 1.6112
9 5 54 8.1707 1.3531
9 5 55 -5.4354 -8.8289
9 5 56 12.2198 3.8444
9 5 57 14.7207 -0.1283
9 5 58 2.6399 -4.7805
9 5 59 -5.8806 18.8613
9 5 60 -12.7061 -5.2958
9 5 61 -1.0854 -3.2368
9 5 62 11.7443 10.7310
9 5 63 -13.7910 0.6506
9 5 64 9.9546 1.3640
9 5 65 -3.8879 8.8023
9 5 66 -1.5401 -9.0944
9 5 67 -15.5056 -6.7369
9 5 68 -9.0781 -3.9353
9 7 0 -11.9870 -0.2857
9 7 1 45.9137 -22.6247
9 7 2 -37.0563 39.0576
9 7 3 110.6348 16.5342
9 7 4 -1.6615 57.0731
9 7 5 -58.6925 -16.6870
9 7 6 21.3412 -2.2199
9 7 7 38.2781 139.1153
9 7 8 -25.2639 -64.1859
9 7 9 -82.1264 -34.8982
9 7 10 29.4673 14.5918
9 7 11 -10.9072 104.5404
9 7 12 -56.3437 -25.0637
9 7 13 -25.6771 -71.1464
9 7 14 -53.9810 -43.8486
9 7 15 60.8516 -10.8474
9 7 16 -47.7584 -4.4226
9 7 17 -28.3097 -29.2414
9 7 18 -6.2155 62.2927
9 7 19 -5.4601 19.3345
9 7 20 -20.4909 51.1501
9 7 21 7.4336 18.9926
9 7 22 41.6584 -4.5092
9 7 23 15.5908 33.3710
9 7 24 45.2659 34.9464
9 7 25 -6.7218 17.9815
9 7 26 17.5806 -43.5693
9 7 27 -57.7151 -25.6056
9 7 28 -68.8740 97.3403
9 7 29 -31.1739 -18.5142
9 7 30 -13.2492 -5.9916
9 7 31 -2.7234 4.6126
9 7 32 -29.9596 10.8990
9 7 33 -35.0398 -26.8527
9 7 34 -33.8824 84.2968
9 7 35 -13.9035 4.4196
9 7 36 -27.3433 3.6968
9 7 37 -16.7864 -14.3986
9 7 38 15.8475 -34.7974
9 7 39 -11.0665 4.1021
9 7 40 7.7532 -11.9031
9 7 41 17.4860 18.1311
9 7 42 -1.3419 10.8899
9 7 43 23.8613 -12.1934
9 7 44 1.2862 -5.9620
9 7 45 -4.0480 4.2428
9 7 46 -5.8029 -1.8403
9 7 47 7.5766 27.2323
9 7 48 27.1510 -2.4718
9 7 49 8.4023 -6.5644
9 7 50 -5.4075 -19.0924
9 7 51 -1.5052 -22.2376
9 7 52 -5.9845 10.6238
9 7 53 0.0397 -7.5656
9 7 54 -4.1996 14.2450
9 7 55 -13.1987 -20.9623
9 7 56 -13.6827 -12.4179
9 7 57 3.7857 -7.8264
9 7 58 -2.0343 3.1148
9 7 59 -12.1228 3.1829
9 7 60 17.1051 15.0943
9 7 68 10.0152 -5.7036
9 7 69 -30.0566 9.7055
9 7 70 -15.0572 0.4892
9 7 71 5.9935 -17.7369
9 9 0 1.4553 -0.6701
9 9 1 -48.3679 -1.2565
9 9 2 -68.9014 18.1654
9 9 3 43.0100 64.2525
9 9 4 79.5068 1.3022
9 9 5 -66.9201 -44.3010
9 9 6 -19.3038 65.5555
9 9 7 27.2810 59.1027
9 9 8 46.8972 -3.0455
9 9 9 -108.3371 -29.6647
9 9 10 22.7904 -6.8630
9 9 11 65.5587 36.9037
9 9 12 -78.2499 -29.9405
9 9 13 -8.9649 7.1158
9 9 14 30.6438 -11.1255
9 9 15 81.7866 60.0373
9 9 16 -3.7724 -69.9546
9 9 17 24.3916 -31.2459
9 9 18 -7.2539 6.2630
9 9 19 76.4951 64.8721
9 9 20 -12.5165 19.1576
9 9 21 19.6037 -50.7592
9 9 22 48.2990 -104.2251
9 9 23 -58.5195 -27.8276
9 9 24 28.0346 -0.1111
9 9 25 -22.4468 8.7277
9 9 26 -8.7670 6.4003
9 9 27 -92.1738 -70.1654
9 9 28 -7.9351 -11.9384
9 9 29 17.3856 -0.1940
9 9 30 15.4446 -2.8136
9 9 31 -58.0363 -31.6251
9 9 32 13.5178 -15.0220
9 9 33 -23.1161 16.5442
9 9 34 -10.1488 -15.8225
9 9 35 -6.4942 14.4896
9 9 36 23.1198 -15.7263
9 9 37 -5.4491 75.3803
9 9 38 15.9399 -10.1811
9 9 39 11.1237 0.6422
9 9 40 14.6016 15.8957
9 9 41 -9.0356 1.9807
9 9 42 -36.8693 20.1420
9 9 43 -5.2438 -4.7852
9 9 44 9.0311 21.2750
9 9 45 28.3796 13.6134
9 9 46 -16.6058 -10.1386
9 9 47 -2.8177 2.3811
9 9 48 -9.0759 9.3723
9 9 49 -7.2436 -13.1439
9 9 50 -1.1094 8.4760
9 9 51 10.2672 0.0067
9 9 52 -26.1631 -4.3185
9 9 53 14.5401 16.6207
9 9 54 -6.2248 1.2595
9 9 55 2.1412 5.0781
9 9 56 -0.3687 -10.7139
9 9 57 6.3747 0.4273
9 9 58 8.7066 -13.0269
9 9 59 -9.0072 -5.7716
9 9 60 4.7332 9.9935
9 9 61 -11.7099 -10.1194
9 9 62 2.0414 2.6895
9 9 63 -10.7021 5.9093
9 9 64 -12.2883 -16.5152
9 9 65 5.5745 7.8653
9 9 66 -2.0533 1.1587
9 9 67 2.8614 -0.5761
9 9 68 6.1570 -9.1910
9 9 69 20.0890 -19.7756
9 11 0 0.3557 0.7152
9 11 1 -4.8578 17.4371
9 11 2 -54.9149 -64.2028
9 11 3 -43.4022 -57.7733
9 11 4 -35.1266 1.7648
9 11 5 -19.2844 -82.6879
9 11 6 -39.3397 101.1259
9 11 7 35.3880 -33.6190
9 11 8 106.6403 97.4962
9 11 9 10.4578 -31.1922
9 11 10 19.0384 -1.1656
9 11 11 46.3259 -43.1825
9 11 12 8.0554 -14.1051
9 11 13 6.4982 -25.6603
9 11 14 48.4572 -50.7528
9 11 15 -41.2366 33.7712
9 11 16 43.7268 -75.8684
9 11 17 5.8382 37.8716
9 11 18 40.8565 -26.2129
9 11 19 15.7650 -14.9756
9 11 20 6.8274 -56.1093
9 11 21 -48.1971 -19.1521
9 11 22 13.4837 59.2469
9 11 23 -100.6575 -10.7509
9 11 24 -28.8410 -32.9348
9 11 25 -5.0370 16.1273
9 11 26 14.4507 7.8517
9 11 27 -68.8465 -71.1587
9 11 28 16.1304 6.7337
9 11 29 -12.4519 -23.6205
9 11 30 -1.1859 -18.0141
9 11 31 -69.1528 -15.0717
9 11 32 37.5735 9.6857
9 11 33 10.3507 -35.4865
9 11 34 -15.0932 -14.9533
9 11 35 -13.6240 -6.0242
9 11 36 2.9021 13.4037
9 11 37 26.3400 -24.0654
9 11 38 -37.5374 -38.5536
9 11 39 36.9168 -4.1231
9 11 40 15.5562 24.5261
9 11 41 -7.6629 -29.8408
9 11 42 -1.8741 2.5584
9 11 43 6.3532 -2.5811
9 11 44 -14.5440 31.9454
9 11 45 4.0599 -8.0196
9 11 46 9.9442 11.7602
9 11 47 -33.7972 -13.8650
9 11 48 -11.9293 -2.2777
9 11 49 -20.9113 23.2625
9 11 50 2.7447 5.5502
9 11 51 -0.1543 -6.1838
9 11 52 -15.5568 0.7302
9 11 53 -2.1473 9.8920
9 11 54 -2.0490 -3.4263
9 11 55 8.9481 7.6399
9 11 56 6.8805 0.6902
9 11 57 5.7093 1.5921
9 11 58 -1.7570 10.3443
9 11 59 -3.3550 10.5606
9 11 60 -3.7422 0.9374
9 11 61 3.3574 -8.1857
9 11 64 8.3256 -17.2357
9 11 65 3.3403 3.3581
9 11 66 -2.1339 -2.0376
9 11 67 2.8199 14.0405
9 13 0 8.2588 4.1437
9 13 1 -59.4247 80.0209
9 13 2 17.1900 48.9773
9 13 3 -32.4343 1.1280
9 13 4 53.4034 63.1739
9 13 5 -39.1518 -38.8025
9 13 6 93.4975 65.3769
9 13 7 -0.7199 16.5829
9 13 8 5.2196 56.3365
9 13 9 10.5927 2.7833
9 13 10 84.0305 57.0873
9 13 11 -47.5325 62.1961
9 13 12 6.0890 -25.3906
9 13 13 -12.8468 -10.6967
9 13 14 -58.4248 -34.6695
9 13 15 -8.2330 -6.0702
9 13 16 -48.6120 48.6539
9 13 17 5.6899 -72.7885
9 13 18 -41.7670 33.3190
9 13 19 -64.7282 30.5845
9 13 20 -20.9953 64.5550
9 13 21 -12.7737 -0.3719
9 13 22 -96.6974 52.8265
9 13 23 30.6056 -44.8816
9 13 24 12.2601 34.1066
9 13 25 14.5210 -12.0874
9 13 26 23.5885 9.7833
9 13 27 23.1967 -8.9200
9 13 28 -55.3741 -31.5920
9 13 29 34.4436 -22.6919
9 13 30 11.1394 -5.9968
9 13 31 -17.6474 7.9309
9 13 32 -18.1855 -14.9674
9 13 33 71.0539 -1.4539
9 13 34 -13.1886 21.1954
9 13 35 -3.7003 -15.9764
9 13 36 14.0188 -1.7991
9 13 37 0.2774 -11.3319
9 13 38 -75.1652 -10.0384
9 13 39 -25.4453 5.0430
9 13 40 -2.8797 23.9020
9 13 41 -17.5129 -3.6111
9 13 42 -3.4331 -14.7193
9 13 43 -29.4032 -22.1443
9 13 44 13.7295 15.6775
9 13 45 5.5788 -2.5382
9 13 46 25.2738 -37.1175
9 13 47 -3.7890 -11.9030
9 13 48 4.3960 -5.9594
9 13 49 2.6299 7.9222
9 13 50 15.3663 -6.8389
9 13 51 7.6639 6.3204
9 13 52 -6.3006 0.0562
9 13 53 -9.5366 1.1037
9 13 54 -3.4495 -11.0203
9 13 55 1.4340 4.2119
9 13 56 -1.9082 -11.3789
9 13 57 4.4839 -7.9258
9 13 58 8.9917 -6.9610
9 13 59 -6.8767 -0.2136
9 13 60 4.9387 5.7667
9 13 61 -6.9230 -9.2027
9 13 62 0.8998 -1.5356
9 13 63 -3.9023 5.9221
9 13 64 7.4508 -7.5765
9 13 65 12.5890 -11.6277
9 13 66 2.1622 -3.4518
9 13 67 5.9200 -0.1652
9 13 68 -26.3161 -14.7246
9 15 0 -46.0778 -3.2989
9 15 1 34.8948 -34.5012
9 15 2 -33.8491 24.2278
9 15 3 -13.2583 -24.4038
9 15 4 -20.8455 -7.6376
9 15 5 -4.0023 -38.0834
9 15 6 0.2930 0.0887
9 15 7 -11.4815 -59.6280
9 15 8 -17.8778 -35.0401
9 15 9 -20.9624 -37.9317
9 15 10 2.1146 19.4127
9 15 11 -28.4778 -67.1341
9 15 12 -16.4888 21.1703
9 15 13 36.9747 14.0094
9 15 14 -42.3868 36.2487
9 15 15 -35.2559 -7.5038
9 15 16 -2.2443 13.4037
9 15 17 19.0663 13.9943
9 15 18 23.5949 20.2671
9 15 19 6.9363 15.6695
9 15 20 2.1809 8.0345
9 15 21 -7.1251 12.2905
9 15 22 9.3979 27.5717
9 15 23 -2.1541 -7.5899
9 15 24 42.8347 -4.3993
9 15 25 49.0733 28.5038
9 15 26 40.9805 19.2842
9 15 27 -20.6023 -0.7249
9 15 28 28.2568 11.7926
9 15 29 10.7948 3.2315
9 15 30 -19.8262 -7.8737
9 15 31 -6.4827 27.7339
9 15 32 14.9222 -4.0456
9 15 33 -1.8060 -12.7780
9 15 34 5.7063 -6.9652
9 15 35 3.3957 -27.1108
9 15 36 -7.8725 -4.7697
9 15 37 18.6040 5.7745
9 15 38 -3.1849 4.7204
9 15 39 -1.2378 -29.0297
9 15 40 -4.6618 24.2905
9 15 41 -27.4428 4.3496
9 15 42 -3.3804 7.5074
9 15 43 9.9857 -16.6041
9 15 44 -10.2052 3.8503
9 15 45 8.5742 6.2263
9 15 46 7.0687 12.2188
9 15 47 13.5051 40.1857
9 15 48 6.6211 3.7819
9 15 49 15.1607 -3.5943
9 15 50 -9.9483 -4.3051
9 15 51 2.2692 -4.9876
9 15 52 -1.1999 -9.5123
9 15 53 12.7892 -3.3658
9 15 54 10.3222 1.5606
9 15 55 -6.6754 0.2472
9 15 56 -7.6420 -8.3062
9 15 57 6.1840 20.1403
9 15 58 -2.3168 2.1790
9 15 59 2.0659 0.3383
9 15 60 -3.3405 -6.9936
9 15 61 -0.0635 20.9651
9 15 62 -8.0249 7.7646
9 15 63 3.7006 -7.9534
9 15 64 -3.1087 0.5059
9 15 65 9.1441 9.7095
9 15 66 -15.6264 -0.9965
9 17 0 2.0753 -2.5659
9 17 1 -3.9968 25.7081
9 17 2 15.1376 -37.4221
9 17 3 17.9213 17.2840
9 17 4 -1.8049 -27.3604
9 17 5 -15.6347 37.2005
9 17 6 13.6849 -28.0927
9 17 7 18.0395 -12.8868
9 17 8 4.7716 -21.6849
9 17 9 -24.6564 -5.6796
9 17 10 -18.0527 16.2668
9 17 11 9.4854 1.2821
9 17 12 -27.9769 -42.2796
9 17 13 28.0788 13.9897
9 17 14 4.0274 -1.7567
9 17 15 -12.2488 -12.1341
9 17 16 -8.5327 19.2073
9 17 17 9.0326 4.3177
9 17 18 4.5589 6.7551
9 17 19 51.2967 -4.7276
9 17 20 6.8645 -10.1225
9 17 21 -10.4444 -3.8345
9 17 22 5.1914 1.3027
9 17 23 11.9853 6.3625
9 17 24 23.4389 -17.1009
9 17 25 -6.0358 -16.6526
9 17 26 12.8369 29.2863
9 17 27 -27.9070 -9.2726
9 17 28 -45.4065 -19.3657
9 17 29 -8.6405 13.0393
9 17 30 19.6033 -18.3931
9 17 31 -36.9380 19.5401
9 17 32 -16.2750 -8.7005
9 17 33 9.3959 -11.8123
9 17 34 24.6846 -19.5668
9 17 35 -0.7053 60.8660
9 17 36 -35.2474 11.4715
9 17 37 22.1409 -11.8065
9 17 38 15.6556 -29.2795
9 17 39 -0.7567 11.0642
9 17 40 22.4427 -9.8962
9 17 41 -30.3973 11.8361
9 17 42 -24.1548 0.3537
9 17 43 -5.8504 -2.6045
9 17 44 -20.0758 3.9406
9 17 45 17.0853 -17.0866
9 17 46 7.9348 -0.7982
9 17 47 -10.3532 5.5203
9 17 48 5.9565 -7.4142
9 17 49 1.5916 9.7578
9 17 50 -2.6920 -3.9136
9 17 51 5.9848 -9.0914
9 17 52 1.1022 -1.5191
9 17 53 -10.9102 -4.2845
9 17 54 -8.2698 -9.3287
9 17 55 -0.5231 12.7802
9 17 56 -10.0770 -13.8897
9 17 57 0.3757 -10.0495
9 17 58 12.8872 6.1922
9 17 59 -6.3113 3.3210
9 17 60 0.5774 4.6184
9 17 61 5.4331 1.0590
9 17 62 -4.5587 -5.4917
9 17 63 5.7084 -4.1056
9 17 64 3.7007 -12.6556
9 19 0 -18.5471 0.6496
9 19 1 -16.8138 -29.1083
9 19 2 -10.4694 -6.6900
9 19 3 8.6620 -44.1012
9 19 4 -36.4919 -29.6874
9 19 5 -13.6994 24.4589
9 19 6 -4.2575 -2.1977
9 19 7 12.7195 -29.2146
9 19 8 -17.2254 -23.8935
9 19 9 -14.8643 21.3894
9 19 10 -20.6021 -11.0304
9 19 11 33.7867 -15.8123
9 19 12 14.2675 -11.0025
9 19 13 -27.0411 4.5204
9 19 14 25.4699 11.6813
9 19 15 47.6701 -20.2946
9 19 16 -1.9156 -6.8628
9 19 17 -21.2502 -15.5707
9 19 18 -6.1096 -8.4698
9 19 19 44.4913 -75.0775
9 19 20 26.6218 3.2582
9 19 21 -34.4022 -3.0365
9 19 22 -78.2219 1.3566
9 19 23 -15.7247 -25.4777
9 19 24 29.6755 25.6735
9 19 25 26.2233 12.6602
9 19 26 67.3337 -31.9250
9 19 27 4.3429 2.4222
9 19 28 -22.1003 -11.4330
9 19 29 -27.5984 -1.3470
9 19 30 41.5770 -41.7618
9 19 31 -63.6686 11.2235
9 19 32 9.5297 -3.7846
9 19 33 -39.1523 2.3435
9 19 34 1.1017 -4.5360
9 19 35 -24.7371 -13.5220
9 19 36 -23.2612 -2.4360
9 19 37 -19.3927 9.3056
9 19 38 -11.7913 9.1376
9 19 39 4.4957 0.0576
9 19 40 -10.6712 0.5198
9 19 41 14.3304 -14.2873
9 19 42 -6.2614 12.8023
9 19 43 3.9164 -3.3512
9 19 44 -13.0961 12.4576
9 19 45 14.1661 -0.5003
9 19 46 -13.3512 0.7525
9 19 47 2.5847 17.8702
9 19 48 16.6039 14.5681
9 19 49 -5.9960 2.4025
9 19 50 -27.5819 -9.0622
9 19 51 -14.7629 12.9963
9 19 52 10.9956 3.5786
9 19 53 12.4327 -6.4091
9 19 54 -2.2399 -9.4732
9 19 55 4.7622 -7.2123
9 19 56 1.1945 -6.4035
9 19 57 -31.3663 7.5689
9 19 58 8.8505 -35.1055
9 19 59 8.6429 5.0404
9 19 60 22.5693 -21.2839
9 21 0 6.8737 2.5651
9 21 1 -7.3282 2.4608
9 21 2 46.9680 -23.1362
9 21 3 56.7623 -2.5274
9 21 4 -28.3716 22.0379
9 21 5 16.8311 2.8475
9 21 6 3.3927 9.8844
9 21 7 22.3273 26.9713
9 21 8 -33.2359 14.3326
9 21 9 8.7006 96.6764
9 21 10 27.7446 15.5688
9 21 11 21.4911 4.3905
9 21 12 -13.3967 16.7414
9 21 13 32.0627 9.8143
9 21 14 13.4452 -26.0440
9 21 15 35.8971 43.2781
9 21 16 -22.6086 13.9955
9 21 17 16.7171 -27.7738
9 21 18 3.6365 41.9012
9 21 19 50.6609 42.0090
9 21 20 20.3652 -7.8764
9 21 21 -3.6834 10.0436
9 21 22 -11.0089 -6.1480
9 21 23 20.1691 -17.1966
9 21 24 6.8612 10.5356
9 21 25 -18.1521 9.7434
9 21 26 -4.1810 83.8858
9 21 27 -3.7613 2.0467
9 21 28 -18.5217 -16.9196
9 21 29 -2.2097 21.5776
9 21 30 23.3068 38.2878
9 21 31 5.1327 -14.1229
9 21 32 -11.8597 -30.7588
9 21 33 2.4825 -6.7249
9 21 34 11.6043 2.8819
9 21 35 10.5183 15.8767
9 21 36 -41.8550 -19.4825
9 21 37 -14.0143 -3.9952
9 21 38 -10.7236 -12.1815
9 21 39 -8.5553 -31.1815
9 21 40 1.1634 -11.7250
9 21 41 -9.4739 4.1309
9 21 42 7.4874 -18.8691
9 21 43 -5.4825 -24.0192
9 21 44 1.4926 -8.4911
9 21 45 8.6922 -2.7320
9 21 46 -7.8571 -12.8926
9 21 47 13.9396 8.9285
9 21 48 -24.8653 -21.0524
9 21 49 -15.9718 4.4367
9 21 50 -10.0711 10.0343
9 21 51 11.6646 -13.6700
9 21 52 -7.7155 -17.4427
9 21 53 -7.3588 4.8661
9 21 54 3.1467 -8.3944
9 21 55 -0.3859 -8.3350
9 21 57 7.8334 1.1629
9 21 58 8.6692 5.1768
9 23 0 11.4537 1.5708
9 23 1 -13.3275 2.0116
9 23 2 57.1192 14.4966
9 23 3 13.3694 67.1152
9 23 4 -19.8218 26.5113
9 23 5 -14.9721 1.2461
9 23 6 13.1696 -19.5015
9 23 7 -20.6097 19.7696
9 23 8 36.9905 10.2428
9 23 9 11.8527 7.8144
9 23 10 -22.2267 -13.6622
9 23 11 -2.3079 96.4060
9 23 12 31.1550 -1.0762
9 23 13 4.0900 21.2886
9 23 14 38.1022 38.8013
9 23 15 18.0148 -5.5095
9 23 16 -23.0698 19.5362
9 23 17 -3.1672 23.9223
9 23 18 -11.3357 -17.2759
9 23 19 -28.5241 25.7777
9 23 20 -2.2373 -7.9211
9 23 21 29.8041 -2.2533
9 23 22 13.9825 -7.6113
9 23 23 17.1034 8.8050
9 23 24 -9.1029 -14.1583
9 23 25 22.9081 6.5049
9 23 26 -49.7943 -11.4471
9 23 27 -14.0987 28.0037
9 23 28 -71.6101 20.6924
9 23 29 -24.9473 -25.4383
9 23 30 20.5899 24.0284
9 23 31 -18.8998 16.9707
9 23 32 -1.4441 11.1188
9 23 33 5.5751 7.9473
9 23 34 30.3288 -14.6210
9 23 35 9.3221 -9.4029
9 23 36 -8.9069 0.0409
9 23 37 3.8120 0.1895
9 23 38 1.2808 -4.2278
9 23 39 -2.7820 -1.1247
9 23 40 -4.1103 -23.0467
9 23 41 -7.9411 1.9881
9 23 42 -12.5602 6.9724
9 23 43 10.1122 10.3210
9 23 44 -13.1187 -9.0366
9 23 45 25.5443 26.0941
9 23 46 -7.9757 -8.2216
9 23 51 -5.9956 1.1551
9 23 52 -6.1750 -9.5763
9 23 53 16.2950 1.1199
9 23 54 0.2824 -12.1291
9 23 55 0.0025 2.7966
9 25 0 2.2240 -2.6747
9 25 1 -18.2706 30.6593
9 25 2 33.0444 -7.8716
9 25 3 26.4128 47.6455
9 25 4 -9.4579 10.0413
9 25 5 -38.9193 28.8936
9 25 6 -46.1075 -8.6754
9 25 7 -24.5997 -4.9289
9 25 8 -12.0818 5.7166
9 25 9 -11.8706 50.5359
9 25 10 67.1308 -4.8366
9 25 11 32.5986 -18.3214
9 25 12 19.1103 -31.5572
9 25 13 -3.0715 -13.9120
9 25 14 32.2647 3.9815
9 25 15 64.2122 19.4667
9 25 16 32.7468 41.4541
9 25 17 -6.8981 22.2778
9 25 18 62.1633 -15.4290
9 25 19 41.4935 4.5561
9 25 20 1.9440 21.0426
9 25 21 -30.1796 19.5529
9 25 22 28.6749 -18.8850
9 25 23 6.5103 36.5827
9 25 24 31.9800 15.2524
9 25 25 -7.2895 -2.8233
9 25 26 -13.4288 -12.4805
9 25 27 4.3345 1.8273
9 25 28 8.2496 -0.1123
9 25 29 -16.7942 -11.2775
9 25 30 39.2723 22.5250
9 25 31 11.4716 22.3858
9 25 32 15.3801 8.8287
9 25 33 -5.0054 -0.1955
9 25 34 -3.3472 -11.8732
9 25 35 5.8969 -3.9539
9 25 36 -9.4393 -9.2222
9 25 37 -0.2116 -2.2106
9 25 38 -4.6774 3.1264
9 25 39 9.3179 -0.0004
9 25 40 6.5486 0.4828
9 25 41 -2.5653 15.2503
9 25 42 -4.4322 -6.5061
9 25 43 2.3136 18.6274
9 25 44 11.8542 -3.8922
9 25 45 9.0293 18.7723
9 25 46 4.4116 9.8906
9 25 47 -8.0028 4.3297
9 25 48 -6.0791 -16.9007
9 25 49 8.2717 -9.8833
9 25 50 10.0057 -3.1135
9 25 51 6.3063 6.8332
9 27 0 27.0540 -1.7233
9 27 1 18.9993 -28.3068
9 27 2 6.3968 14.2686
9 27 3 57.9609 29.2992
9 27 4 -0.3316 20.8875
9 27 5 1.7845 7.1635
9 27 6 -15.5705 18.6014
9 27 7 -66.4152 -21.7661
9 27 8 11.1099 -2.6423
9 27 9 20.2177 5.4738
9 27 10 -0.4041 -11.4247
9 27 11 10.1449 -12.4658
9 27 12 2.0757 -24.4357
9 27 13 -17.7685 6.3777
9 27 14 -6.8448 11.7677
9 27 15 -4.9540 1.8472
9 27 16 0.1994 -13.0532
9 27 17 13.6821 6.6045
9 27 18 -8.0016 20.0901
9 27 19 20.8618 21.8746
9 27 20 19.9398 -10.5164
9 27 21 -25.7294 8.3261
9 27 22 -5.1841 24.7775
9 27 23 -0.3114 14.5467
9 27 24 -3.0386 16.5118
9 27 25 20.7830 10.7171
9 27 26 19.8542 16.1272
9 27 27 -10.7963 3.6204
9 27 28 4.7293 0.0793
9 27 29 -12.4902 3.1232
9 27 30 2.4789 0.2040
9 27 31 7.2899 7.7926
9 27 32 -1.7389 7.7367
9 27 33 12.1675 -4.1460
9 27 34 9.1341 -12.9078
9 27 35 -2.5940 -1.5752
9 27 36 -6.0001 -22.5464
9 27 37 -17.5518 5.8010
9 27 38 -5.8055 0.9862
9 27 39 10.5265 18.5047
9 27 40 -11.0293 -13.8829
9 27 41 2.7552 1.6357
9 27 42 -19.6410 13.6443
9 27 43 5.9494 7.7435
9 27 44 -14.0453 -6.4864
9 27 45 -3.7623 -2.6167
9 27 46 3.2291 2.0561
9 27 47 -0.9334 0.4079
9 29 0 -39.6836 1.4271
9 29 1 -45.9382 -45.9597
9 29 2 -23.9255 -17.4584
9 29 3 53.4403 -2.8810
9 29 4 13.8551 20.5707
9 29 5 -7.4232 -9.7385
9 29 6 -24.9570 -16.4917
9 29 7 15.3303 -18.0581
9 29 8 -22.9522 -10.7312
9 29 9 -18.0844 -6.0804
9 29 10 -0.9870 8.2406
9 29 11 30.4902 -0.8108
9 29 12 -0.4145 -8.6107
9 29 13 19.2792 9.8778
9 29 14 10.6020 5.6963
9 29 15 14.6004 4.1737
9 29 16 -10.9195 -1.2425
9 29 17 -21.6877 2.4119
9 29 18 5.8191 -9.1476
9 29 19 10.7880 -25.4007
9 29 20 8.0835 12.1437
9 29 21 18.4654 -3.2775
9 29 22 -10.4117 -9.8678
9 29 23 -11.5974 -7.3571
9 29 24 0.1786 23.4911
9 29 25 2.2982 5.5924
9 29 26 -6.2305 -0.2008
9 29 27 8.0246 3.6367
9 29 28 9.3116 -2.9099
9 29 29 -10.4036 -8.5021
9 29 30 -3.9896 6.8471
9 29 31 -1.1687 2.3388
9 29 32 -9.2962 -17.1960
9 29 33 11.3050 -2.6189
9 29 34 7.7168 -17.2205
9 29 35 12.8518 -12.2790
9 29 36 -2.6904 -15.7265
9 29 37 -9.2884 -4.3284
9 29 38 3.2638 11.8242
9 29 39 -10.7299 -12.4216
9 29 40 7.8025 3.4463
9 29 41 9.4030 1.6243
9 29 42 13.5483 2.0602
9 31 0 -18.1018 1.7453
9 31 1 19.1225 -2.2662
9 31 2 -31.3343 3.5485
9 31 3 11.0798 -30.5646
9 31 4 1.3837 23.0137
9 31 5 10.0670 7.3606
9 31 6 -28.4060 -17.0723
9 31 7 -6.0795 -22.4060
9 31 8 -11.0483 27.5406
9 31 9 33.7940 1.0930
9 31 10 -14.4624 -14.6436
9 31 11 0.2579 13.8686
9 31 12 -10.3561 -3.4349
9 31 13 24.5461 -6.8208
9 31 14 -13.3838 -5.8247
9 31 15 -2.8352 -14.7816
9 31 16 4.8739 11.9780
9 31 17 -7.7432 -0.7764
9 31 18 -1.9570 -10.4644
9 31 19 -9.5730 -2.5933
9 31 20 -6.1177 -4.1239
9 31 21 -2.7693 0.7693
9 31 22 -17.5951 -4.9007
9 31 23 10.9246 13.0270
9 31 24 -16.9775 -7.1360
9 31 25 11.6341 -8.1836
9 31 26 -10.1473 -3.7515
9 31 27 -4.3921 7.8287
9 31 28 6.8833 -3.3036
9 31 29 -6.3891 -7.5018
9 31 30 -14.5042 -11.8055
9 31 31 1.3312 16.0002
9 31 32 -2.7828 1.9314
9 31 33 -6.6941 9.6197
9 31 34 0.9093 -10.1505
9 31 35 -9.7187 -3.3862
9 31 36 2.5045 2.9338
9 33 0 -0.6779 -0.6311
9 33 1 -0.7064 -7.6485
9 33 2 8.7364 0.0148
9 33 3 -0.1358 -12.7861
9 33 4 23.3920 17.9159
9 33 5 -4.4520 -0.2969
9 33 6 -7.1920 -1.1716
9 33 7 -19.8877 -8.1952
9 33 8 22.2278 7.4689
9 33 9 -5.6445 8.8786
9 33 10 0.8011 -15.9836
9 33 11 -1.1163 8.9367
9 33 12 10.9310 -11.0984
9 33 13 4.4889 19.1492
9 33 14 14.8190 13.3016
9 33 15 3.2820 -10.2757
9 33 16 -10.8656 -1.4619
9 33 17 1.4015 -10.0340
9 33 18 7.4458 13.1482
9 33 19 9.1444 3.7667
9 33 20 0.4427 11.8286
9 33 21 9.8060 6.3027
9 33 22 -1.0702 -11.8220
9 33 23 4.1939 12.0878
9 33 24 -12.1956 13.1235
9 33 25 8.4213 -6.5621
9 33 26 2.0240 -16.9386
9 33 27 19.5582 -0.9262
9 35 0 -7.5857 -0.9262
9 35 1 1.2199 1.9967
9 35 2 1.8412 11.7456
9 35 3 2.0562 -9.2971
9 35 4 1.8033 -1.1828
9 35 5 4.0609 -0.1664
9 35 6 -11.1944 11.2484
9 35 7 0.1995 9.4697
9 35 8 0.2127 11.1949
9 35 9 0.8066 7.8463
9 35 10 -2.0929 -4.8328
9 35 11 0.1535 14.8106
9 35 12 -9.0823 -5.9946
9 35 13 0.0681 -10.6580
9 35 14 5.8959 1.5592
10 0 0 -1.8736 0.8528
10 0 1 1.3938 19.3708
10 0 2 -26.7749 -1.3374
10 0 3 -2.2731 3.5537
10 0 4 -46.7884 -0.2433
10 0 5 0.5239 46.1081
10 0 6 -37.1816 3.1488
10 0 7 1.4511 0.4476
10 0 8 -42.1343 -0.0628
10 0 9 -1.1467 93.2164
10 0 10 -18.1051 -3.7457
10 0 11 -0.2271 -54.5755
10 0 12 13.5847 0.5015
10 0 13 1.0463 -60.9408
10 0 14 -37.3025 3.5998
10 0 15 0.3540 -59.5690
10 0 16 43.1825 -1.0780
10 0 17 -0.3947 -8.2635
10 0 18 -1.7158 -3.0613
10 0 19 -1.1911 61.0140
10 0 20 34.3145 1.6939
10 0 21 -0.3308 15.1350
10 0 22 25.2619 1.7243
10 0 23 2.2339 -11.5875
10 0 24 16.8507 -1.7771
10 0 25 0.9517 20.8541
10 0 26 -21.4833 -0.6476
10 0 27 -3.0952 0.1329
10 0 28 -14.5295 1.5866
10 0 29 -0.7581 -31.2990
10 0 30 1.1307 0.0756
10 0 31 2.7091 -7.3797
10 0 32 5.1287 -1.0079
10 0 33 0.1984 11.5126
10 0 34 -37.5117 0.1172
10 0 35 -1.2367 -2.8580
10 0 36 18.1381 0.2807
10 0 37 0.3683 -3.8481
10 0 38 1.6566 -0.0735
10 0 39 -0.3465 9.1320
10 0 40 9.8846 0.3089
10 0 41 -0.5388 31.3550
10 0 42 19.4613 -0.0587
10 0 43 1.3592 9.3236
10 0 44 5.3640 -0.5962
10 0 45 0.3715 1.8887
10 0 46 5.9086 0.1501
10 0 47 -1.6473 -4.7219
10 0 48 -1.1159 0.4845
10 0 49 -0.1652 -5.0119
10 0 50 21.4322 -0.1594
10 0 51 1.2723 3.8666
10 0 52 12.3853 -0.2679
10 0 53 -0.0521 -22.9135
10 0 54 41.1415 0.2269
10 0 55 -0.7746 -13.2306
10 0 56 -11.8607 0.0591
10 0 57 0.1497 1.5232
10 0 58 -4.0525 -0.1852
10 0 59 0.3599 2.7453
10 0 60 4.7844 0.1342
10 0 61 -0.0886 15.6989
10 0 62 4.9062 0.1370
10 2 0 -60.8575 1.6983
10 2 1 -50.6598 14.0239
10 2 2 31.8105 63.0010
10 2 3 1.1766 35.8425
10 2 4 9.6246 -42.0454
10 2 5 -106.3163 70.4789
10 2 6 -3.4714 -14.0519
10 2 7 -48.4490 120.5057
10 2 8 -36.0372 -70.3299
10 2 9 -5.8559 -15.8865
10 2 10 55.2545 -35.2647
10 2 11 5.7390 82.4979
10 2 12 100.5137 7.8662
10 2 13 -8.2432 -27.7887
10 2 14 -6.3864 -9.2659
10 2 15 15.0274 65.8741
10 2 16 83.2185 49.1284
10 2 17 50.0891 26.9212
10 2 18 -37.4306 -19.8144
10 2 19 -0.5653 38.7127
10 2 20 -41.1320 28.1153
10 2 21 27.1901 26.8099
10 2 22 -7.6403 -8.7354
10 2 23 -64.2799 -66.4244
10 2 24 -19.8134 -21.3463
10 2 25 20.3041 -59.9987
10 2 26 11.0021 12.1375
10 2 27 -60.0966 -9.8993
10 2 28 -2.4885 24.3289
10 2 29 14.9262 -13.1407
10 2 30 61.9059 -34.7201
10 2 31 -36.4816 -35.0604
10 2 32 34.7246 -9.2895
10 2 33 35.7580 -28.8648
10 2 34 -14.8673 13.8626
10 2 35 -23.5418 -10.4877
10 2 36 14.8849 17.9935
10 2 37 23.8211 -9.5363
10 2 38 -33.3676 -11.5452
10 2 39 31.5495 -2.0142
10 2 40 -55.6206 -33.7795
10 2 41 2.9203 13.1436
10 2 42 -8.5217 4.7703
10 2 43 40.9039 8.2172
10 2 44 3.1814 6.3654
10 2 45 -24.1217 -31.0701
10 2 46 6.5526 1.4128
10 2 47 -11.5726 12.7252
10 2 48 -2.8567 -46.6006
10 2 49 2.4817 -20.0519
10 2 50 -9.9312 4.5391
10 2 51 -9.4367 -5.2400
10 2 52 -11.8643 -16.9099
10 2 53 12.0526 9.6143
10 2 54 -24.5181 14.0397
10 2 55 5.7715 -12.7644
10 2 56 -18.7015 -6.5129
10 2 57 3.7794 13.5825
10 2 58 -22.7467 -7.0608
10 2 59 -6.7844 1.2792
10 2 60 -7.1507 -6.6044
10 2 61 -1.2032 -15.6122
10 2 62 -20.5954 16.8342
10 2 64 1.2051 -11.6611
10 2 65 0.9455 -19.5024
10 2 66 -8.4218 1.4896
10 2 67 3.5335 -6.2375
10 2 68 2.6117 14.4005
10 2 69 -1.1252 10.8825
10 2 70 -8.8993 -4.3359
10 4 0 34.3118 -1.1952
10 4 1 -2.6218 -37.3322
10 4 2 -67.3616 11.4367
10 4 3 -40.9815 8.0547
10 4 4 13.3212 -75.1774
10 4 5 22.6662 64.6798
10 4 6 41.7710 -24.0575
10 4 7 16.7824 4.1607
10 4 8 7.7957 31.7707
10 4 9 12.8315 -17.6252
10 4 10 -12.3501 104.0620
10 4 11 31.3048 76.5036
10 4 12 10.3727 49.9764
10 4 13 -18.7494 -45.0928
10 4 14 -22.0926 9.3032
10 4 15 -10.6627 10.8260
10 4 16 -4.7332 24.1856
10 4 17 -49.0360 17.6646
10 4 18 -109.6403 -29.5520
10 4 19 16.1782 -24.7975
10 4 20 5.3724 -30.9678
10 4 21 23.1807 -16.4840
10 4 22 -54.5361 13.4266
10 4 23 86.5121 -5.8388
10 4 24 -4.9135 52.0323
10 4 25 -53.5618 -61.9243
10 4 26 21.1396 2.3331
10 4 27 32.5385 29.9337
10 4 28 14.0040 -0.6091
10 4 29 14.2254 21.2130
10 4 30 53.6391 7.4189
10 4 31 -12.2598 -64.2051
10 4 32 -32.8678 -41.5087
10 4 33 -24.4383 -67.5496
10 4 34 3.7528 -15.1886
10 4 35 -18.3892 -18.2265
10 4 36 -25.5828 25.5595
10 4 37 -1.7071 -2.6115
10 4 38 -27.5763 16.5734
10 4 39 -12.9509 2.6980
10 4 40 -25.0244 -5.8964
10 4 41 -21.4218 2.3924
10 4 42 -17.5992 31.6343
10 4 43 -7.4918 -24.2123
10 4 44 11.8358 29.4400
10 4 45 8.0429 3.0325
10 4 46 5.0594 -34.3261
10 4 47 1.1180 -16.1334
10 4 48 -12.1244 -31.2017
10 4 49 3.2163 -11.4207
10 4 50 -2.3650 -26.3856
10 4 51 -19.1198 -11.5781
10 4 52 -13.9836 -2.7711
10 4 53 29.4349 2.6003
10 4 54 -10.1370 1.2740
10 4 55 2.9100 -3.0038
10 4 56 11.5562 27.1978
10 4 57 3.7219 -2.2681
10 4 58 -0.9406 -1.4650
10 4 59 -11.7050 -3.6889
10 4 60 -4.9562 7.7453
10 4 61 -2.2856 -19.5108
10 4 62 3.4420 -10.6048
10 4 63 -5.8670 -5.8939
10 4 64 3.3142 -4.8833
10 4 65 -5.3164 12.2429
10 4 66 6.0212 4.9511
10 4 67 -0.1376 -0.4068
10 6 0 13.7019 -1.7986
10 6 1 -17.5481 -102.7940
10 6 2 -19.3389 -33.2716
10 6 3 -11.7743 -84.2177
10 6 4 95.9797 -50.1514
10 6 5 -76.5512 -58.2236
10 6 6 7.3890 19.9916
10 6 7 73.4850 -97.5520
10 6 8 62.2858 4.9428
10 6 9 1.6382 -27.7610
10 6 10 -52.3968 -34.1877
10 6 11 23.5934 -88.1008
10 6 12 -66.1925 -45.2760
10 6 13 -38.7630 -29.7941
10 6 14 -6.0113 18.7864
10 6 15 3.9584 20.7806
10 6 16 -36.0999 -111.4317
10 6 17 4.6190 32.7267
10 6 18 -33.2345 2.5577
10 6 19 -60.7082 38.6163
10 6 20 4.7412 -10.0645
10 6 21 -1.5838 12.1162
10 6 22 52.8978 -46.0393
10 6 23 -15.9831 -38.5780
10 6 24 64.9009 -39.5783
10 6 25 -15.1306 -42.7463
10 6 26 -45.5891 -34.5315
10 6 27 0.9293 5.3773
10 6 28 3.0208 -3.5482
10 6 29 -17.4793 -6.5228
10 6 30 6.0452 -6.6752
10 6 31 0.7660 -17.5522
10 6 32 -16.6958 -12.3295
10 6 33 19.3043 16.6200
10 6 34 5.6008 29.8901
10 6 35 -11.0500 -0.8929
10 6 36 -0.6339 4.9026
10 6 37 0.8792 -2.4039
10 6 38 -1.4643 -35.8863
10 6 39 8.9666 5.2749
10 6 40 41.7557 -6.1587
10 6 41 34.9213 12.3130
10 6 42 -1.1871 -22.7437
10 6 43 -21.3301 -5.0851
10 6 44 22.2650 4.5223
10 6 45 -8.1892 -23.5777
10 6 46 -20.5058 -25.7045
10 6 47 -1.9957 -5.7425
10 6 48 4.1630 -3.2475
10 6 49 4.6327 12.7298
10 6 50 10.7144 7.6462
10 6 51 -0.7826 -11.9916
10 6 52 -22.0139 -0.2940
10 6 53 18.1669 -10.4532
10 6 54 -9.0099 9.5285
10 6 55 -4.1106 4.8666
10 6 56 -10.2347 5.6443
10 6 57 -11.5786 19.6657
10 6 58 -3.7113 9.8470
10 6 59 0.2367 -5.6505
10 6 60 -8.2732 -14.2104
10 6 65 0.5589 7.8378
10 6 66 1.3603 -5.5292
10 6 67 0.2191 -0.9903
10 6 68 -8.7737 -11.5188
10 6 69 -1.4192 -4.0885
10 6 70 8.1344 -5.0210
10 8 0 13.9219 0.8015
10 8 1 -39.7265 1.8677
10 8 2 22.1663 10.1885
10 8 3 -4.7613 49.0649
10 8 4 47.3086 12.4977
10 8 5 27.3960 0.7604
10 8 6 8.5619 17.2485
10 8 7 3.5626 149.4527
10 8 8 3.6967 -1.5008
10 8 9 17.5918 56.3524
10 8 10 -23.3880 -24.5213
10 8 11 12.3032 -64.7650
10 8 12 45.4118 21.6579
10 8 13 -34.6012 -18.9683
10 8 14 -16.5737 -109.8546
10 8 15 38.6327 -25.5751
10 8 16 -11.0722 -18.8517
10 8 17 16.1832 -51.4656
10 8 18 73.0181 -33.3108
10 8 19 6.4402 -34.7498
10 8 20 14.0570 -95.4003
10 8 21 -77.6220 -36.5273
10 8 22 64.0678 2.0830
10 8 23 -29.5876 25.8539
10 8 24 17.4848 49.0929
10 8 25 -34.1410 -9.1490
10 8 26 30.5914 -1.4145
10 8 27 -4.6161 -26.0654
10 8 28 -9.4931 -2.3976
10 8 29 64.7677 35.3693
10 8 30 23.2087 -4.5471
10 8 31 -76.0753 -2.1414
10 8 32 4.8645 29.1555
10 8 33 14.9288 -28.6391
10 8 34 11.9183 7.4352
10 8 35 6.3443 -44.2452
10 8 36 12.8999 -26.4494
10 8 37 2.5200 17.1220
10 8 38 -6.4982 -16.4050
10 8 39 4.9144 -16.3962
10 8 40 -3.1841 23.0862
10 8 41 15.8816 -0.5387
10 8 42 -17.9100 -8.5050
10 8 43 6.1925 16.4005
10 8 44 -4.7952 -45.6214
10 8 45 3.2979 4.5268
10 8 46 8.4218 -18.1037
10 8 47 2.0151 0.6832
10 8 48 -16.7377 6.0597
10 8 49 -11.6904 -5.6897
10 8 50 7.9141 14.6600
10 8 51 -5.4063 -4.8738
10 8 52 -1.4290 -10.2317
10 8 53 3.3221 -3.7861
10 8 54 5.4445 -2.8338
10 8 55 11.4851 -14.6050
10 8 56 3.5043 6.4313
10 8 57 17.0690 10.6440
10 8 58 4.7707 0.6827
10 8 59 -2.8356 3.5258
10 8 60 10.4989 10.1357
10 8 61 -2.1810 5.9697
10 8 62 -6.9431 0.2519
10 8 63 -12.1834 -2.1678
10 8 64 -12.1842 -6.9365
10 8 65 -17.9703 -6.1943
10 8 66 -2.1279 -2.7669
10 8 67 1.8153 -5.0285
10 8 68 1.8934 -7.4531
10 8 69 3.5996 10.1213
10 8 70 3.6955 -6.2798
10 10 0 -31.3450 -0.0615
10 10 1 -25.3675 -57.2641
10 10 2 2.2584 49.0734
10 10 3 -18.4215 17.6672
10 10 4 -73.2747 9.1548
10 10 5 -15.5963 79.9610
10 10 6 -21.2015 -48.5599
10 10 7 43.8323 32.9168
10 10 8 -49.0541 -34.1189
10 10 9 -19.5064 4.8568
10 10 10 -15.2490 99.5244
10 10 11 -31.3731 -21.7491
10 10 12 -41.1745 -61.5548
10 10 13 39.0454 93.5176
10 10 14 -44.3391 94.6799
10 10 15 39.3109 -40.7997
10 10 16 -25.0859 -28.5945
10 10 17 9.7021 0.9834
10 10 18 -51.8459 -47.0700
10 10 19 -33.1897 26.5323
10 10 20 -75.6467 -63.4152
10 10 21 36.5576 -46.1189
10 10 22 -46.0777 11.8427
10 10 23 -13.9531 18.1975
10 10 24 48.9050 24.7182
10 10 25 -16.5658 6.6867
10 10 26 -23.2885 -11.1945
10 10 27 57.0963 17.2054
10 10 28 -111.1803 -85.6243
10 10 29 -48.8444 -14.8702
10 10 30 92.3255 -7.6657
10 10 31 56.9642 0.4455
10 10 32 -38.7322 -33.6967
10 10 33 34.1827 -29.5760
10 10 34 -33.5224 -9.4612
10 10 35 10.7991 -9.7326
10 10 36 -13.4989 -3.1726
10 10 37 13.5881 -18.5676
10 10 38 -9.4342 19.1070
10 10 39 12.2630 0.1106
10 10 40 26.5960 22.2424
10 10 41 1.7616 19.8391
10 10 42 -5.7230 -41.8124
10 10 43 10.2651 7.0540
10 10 44 7.6350 -17.4608
10 10 45 -8.8399 10.3221
10 10 46 -25.4152 15.0964
10 10 47 -2.9810 19.0406
10 10 48 -13.0493 4.0867
10 10 49 2.1263 4.2622
10 10 50 9.9171 -3.2326
10 10 51 -4.0069 13.0318
10 10 52 -8.3662 -12.5037
10 10 53 -3.1794 12.6748
10 10 54 4.4717 0.2085
10 10 55 -1.4932 -7.2332
10 10 56 8.8301 2.6026
10 10 57 12.6182 -1.0346
10 10 58 0.5797 -7.3430
10 10 59 -7.2576 -3.3402
10 10 60 -1.0327 -0.8058
10 10 61 -11.5500 -4.7627
10 10 62 4.7103 0.5642
10 10 63 9.0652 -5.0917
10 10 64 0.5224 4.5855
10 10 65 -18.5303 -20.2731
10 10 66 -0.3987 -1.5736
10 12 0 4.1341 2.1164
10 12 1 -22.5007 -44.7061
10 12 2 26.1922 4.0110
10 12 3 50.3211 40.9555
10 12 4 10.0174 6.0363
10 12 5 12.2289 12.7073
10 12 6 42.5812 -2.2667
10 12 7 3.6664 22.8806
10 12 8 36.7853 43.6145
10 12 9 -1.8954 2.9924
10 12 10 -56.3379 38.3811
10 12 11 -5.4666 10.7035
10 12 12 32.6549 9.4355
10 12 13 -39.8342 -47.0635
10 12 14 35.9187 2.0920
10 12 15 18.7909 -44.2037
10 12 16 14.3921 7.7027
10 12 17 -59.3875 -15.4474
10 12 18 -51.0464 -7.6348
10 12 19 -22.6291 11.7367
10 12 20 12.1504 15.6144
10 12 21 32.3117 64.0935
10 12 22 48.6315 30.5045
10 12 23 -12.9743 -24.0432
10 12 24 -62.8372 -30.3558
10 12 25 56.8476 50.4655
10 12 26 -35.2650 36.2641
10 12 27 30.8123 -2.3309
10 12 28 1.0466 2.6239
10 12 29 -9.6296 7.3997
10 12 30 -48.9757 16.2495
10 12 31 21.8181 21.2937
10 12 32 11.4129 -8.6118
10 12 33 24.5799 -6.9455
10 12 34 6.2507 -0.9517
10 12 35 12.3076 -22.9994
10 12 36 22.9388 8.9608
10 12 37 -28.5427 -3.1732
10 12 38 -1.3574 63.9239
10 12 39 -17.1926 3.8303
10 12 40 12.9776 -11.4459
10 12 41 6.0949 -24.2437
10 12 42 -3.5785 7.3835
10 12 43 19.0315 -7.4640
10 12 44 -26.9483 12.9077
10 12 45 -13.8546 -8.8617
10 12 46 -6.1425 10.2212
10 12 47 -9.8870 13.6237
10 12 48 -13.0321 22.0131
10 12 49 5.5921 -21.0394
10 12 50 0.7683 -4.9915
10 12 51 -13.0939 -9.7402
10 12 52 5.9283 -9.9936
10 12 53 8.1768 7.4644
10 12 54 -7.6174 6.4598
10 12 55 -17.9271 -4.7056
10 12 56 1.9523 3.9544
10 12 57 -2.9570 3.6903
10 12 58 0.1600 10.6757
10 12 59 -1.2323 10.5260
10 12 60 -3.5261 -6.5397
10 12 61 -4.0588 -12.7568
10 12 62 3.0424 -4.6266
10 12 63 20.4363 -10.1883
10 12 64 -1.7385 18.7513
10 12 65 -8.0698 3.4293
10 12 66 -4.6218 8.0583
10 12 67 3.6085 -5.1825
10 12 68 -6.1992 26.6256
10 14 0 8.6930 0.4889
10 14 1 37.9566 -29.0295
10 14 2 13.8105 -5.2893
10 14 3 -28.7428 -44.7120
10 14 4 27.3212 14.7630
10 14 5 -3.1131 -36.5451
10 14 6 -31.3694 -6.4524
10 14 7 -44.0698 -11.9611
10 14 8 1.2808 -39.1878
10 14 9 30.4170 0.2513
10 14 10 6.6507 33.5920
10 14 11 -117.4160 52.4367
10 14 12 -12.6549 0.6237
10 14 13 -33.3087 5.1733
10 14 14 -17.4624 16.4231
10 14 15 15.4081 2.1543
10 14 16 31.9764 -56.4144
10 14 17 31.8011 -37.3971
10 14 18 65.8241 30.1998
10 14 19 27.8892 -12.8954
10 14 20 36.0879 -44.6054
10 14 21 -5.1616 -33.0266
10 14 22 17.0262 11.4968
10 14 23 -18.2637 13.2236
10 14 24 18.7427 -80.3033
10 14 25 15.8249 -29.9687
10 14 26 -3.0141 -6.1086
10 14 27 -42.3599 -26.9135
10 14 28 21.4614 12.0583
10 14 29 5.7765 14.3853
10 14 30 9.7291 12.3767
10 14 31 -7.9311 -6.9492
10 14 32 1.2099 17.6710
10 14 33 -3.6743 -1.8319
10 14 34 6.1940 -7.3510
10 14 35 -3.1872 8.5860
10 14 36 -17.0722 27.1978
10 14 37 11.7459 -4.3251
10 14 38 0.1350 -5.2131
10 14 39 -13.1506 7.9214
10 14 40 12.8605 13.6559
10 14 41 -17.9105 23.3189
10 14 42 -16.8035 -17.4293
10 14 43 26.1852 -0.7634
10 14 44 -7.6497 -10.8413
10 14 45 9.3264 -1.4441
10 14 46 -4.4051 2.9821
10 14 47 -2.9959 9.7264
10 14 48 3.9148 0.1766
10 14 49 -1.4054 0.6724
10 14 50 -2.3829 -13.3541
10 14 51 10.7218 7.3006
10 14 52 3.7882 11.1119
10 14 53 0.7624 -3.1465
10 14 54 -7.8740 -10.8203
10 14 55 2.2161 1.2825
10 14 56 -2.0102 -7.8028
10 14 57 3.1598 -8.6981
10 14 58 7.6203 -4.9380
10 14 59 6.4289 -0.0734
10 14 60 -4.3915 -2.1514
10 14 61 5.3222 -1.2586
10 14 62 -7.4110 18.6073
10 14 63 -8.1958 -3.8449
10 14 64 10.1379 10.2437
10 14 65 -1.8034 -8.6412
10 14 66 -31.7124 138.0739
10 16 0 34.2149 -3.0227
10 16 1 -15.3373 10.8140
10 16 2 46.9206 11.9276
10 16 3 -81.4506 -2.9213
10 16 4 -3.5130 -10.7935
10 16 5 94.3668 41.1011
10 16 6 25.0408 18.7658
10 16 7 -10.1989 -0.9940
10 16 8 -2.2849 -8.4023
10 16 9 -34.8719 -5.3887
10 16 10 30.3365 23.0509
10 16 11 -8.9736 11.1448
10 16 12 60.4034 -31.5120
10 16 13 -39.1394 -6.4450
10 16 14 -17.8463 38.0719
10 16 15 -7.9501 34.4507
10 16 16 43.4750 50.0985
10 16 17 -18.5425 9.4708
10 16 18 0.3024 31.3404
10 16 19 30.9592 19.5495
10 16 20 51.2560 61.0492
10 16 21 40.5518 -16.1005
10 16 22 14.2290 -13.8796
10 16 23 18.9233 20.5141
10 16 24 -22.8557 5.6665
10 16 25 -7.4608 -2.8332
10 16 26 22.8019 -5.9108
10 16 27 38.9158 14.0768
10 16 28 -8.6404 -6.0365
10 16 29 17.3606 -26.6430
10 16 30 -23.7178 3.3907
10 16 31 -14.0768 -35.9470
10 16 32 7.9738 -19.2192
10 16 33 7.9634 12.2283
10 16 34 -43.4528 34.1382
10 16 35 -9.2398 -4.8312
10 16 36 -15.8334 -5.9261
10 16 37 -23.3711 -44.9104
10 16 38 3.6518 -9.9445
10 16 39 -3.1200 2.4826
10 16 40 10.7732 -5.6852
10 16 41 1.9326 -11.3716
10 16 42 7.3599 6.8885
10 16 43 -4.6167 13.0390
10 16 44 -4.7330 -9.6014
10 16 45 -6.4397 0.9207
10 16 46 4.4485 -18.2229
10 16 47 -22.8031 -16.8915
10 16 48 -11.2557 -7.6622
10 16 49 -2.1854 3.9088
10 16 50 -4.9707 0.0106
10 16 51 -6.1965 12.7496
10 16 52 7.4174 14.1140
10 16 53 15.7069 2.2882
10 16 54 -20.0536 -8.4641
10 16 55 2.5914 -3.3560
10 16 56 -15.4461 -2.7180
10 16 57 -9.8268 -9.4260
10 16 58 -7.0348 16.7401
10 16 59 -6.8030 -7.7724
10 16 60 -4.6142 -4.2274
10 16 61 -1.5360 14.7774
10 16 62 -4.8855 7.2511
10 16 63 2.2925 -26.6505
10 16 64 -4.6346 10.9642
10 18 0 31.0011 -1.1962
10 18 1 60.5539 -52.6401
10 18 2 68.3573 11.9484
10 18 3 -29.5008 -47.4897
10 18 4 -28.8235 -29.6106
10 18 5 41.5721 -32.2365
10 18 6 -31.7397 23.3851
10 18 7 11.5690 5.4112
10 18 8 38.4776 -4.8913
10 18 9 -13.2558 29.4244
10 18 10 -5.0265 -13.7148
10 18 11 16.4718 -22.8283
10 18 12 -13.3946 30.2583
10 18 13 -24.7093 -15.7877
10 18 14 65.0305 -87.5595
10 18 15 32.4312 18.7474
10 18 16 -32.2059 15.2513
10 18 17 7.3357 -12.9784
10 18 18 -15.7142 -31.6533
10 18 19 13.5863 26.1620
10 18 20 -51.0406 -11.4433
10 18 21 -0.4934 39.5342
10 18 22 15.6396 36.4161
10 18 23 -37.3488 2.1143
10 18 24 -8.3674 -4.6043
10 18 25 -13.8385 14.8291
10 18 26 -6.9377 -32.0920
10 18 27 -17.4780 -11.9772
10 18 28 20.7000 -36.1183
10 18 29 -29.9594 34.0258
10 18 30 13.7971 35.0869
10 18 31 1.8621 8.7222
10 18 32 -18.0139 5.3956
10 18 33 -5.3905 8.8263
10 18 34 6.4282 31.1868
10 18 35 -8.3587 -6.6598
10 18 36 -14.1701 -4.0664
10 18 37 -41.8387 52.9959
10 18 38 -6.3478 -7.9300
10 18 39 10.9748 -22.3013
10 18 40 -6.1557 -11.7168
10 18 41 28.3729 -40.6499
10 18 42 9.7262 22.6208
10 18 43 -0.1940 -7.3181
10 18 44 4.9402 2.8817
10 18 45 -1.3557 -9.9183
10 18 46 -9.4365 -2.9810
10 18 47 -7.6754 -14.0343
10 18 48 3.1779 6.0153
10 18 49 13.7497 32.3292
10 18 50 0.3741 9.6618
10 18 51 -8.1575 3.1813
10 18 52 10.0112 -1.4794
10 18 53 127.5849 170.9327
10 18 54 -0.3309 13.6737
10 18 55 5.1422 -3.6097
10 18 56 9.6484 7.6299
10 18 57 21.9201 37.0785
10 18 62 13.9313 22.8646
10 20 0 -8.0428 2.2329
10 20 1 0.8173 -14.8361
10 20 2 2.5876 -25.1678
10 20 3 15.2197 -13.8136
10 20 4 -34.5466 -43.9563
10 20 5 5.5727 -2.5783
10 20 6 -6.4490 0.7693
10 20 7 16.5731 28.8229
10 20 8 -8.1971 4.2080
10 20 9 2.2105 -11.0260
10 20 10 -25.3100 3.5728
10 20 11 12.1007 -4.4466
10 20 12 30.1399 -21.1145
10 20 13 -79.6174 -42.2874
10 20 14 -87.6167 9.0381
10 20 15 -24.7571 33.6606
10 20 16 20.6286 -46.1746
10 20 17 38.4038 11.1911
10 20 18 -5.6725 39.9398
10 20 19 -20.4658 -17.8373
10 20 20 11.1135 -3.0521
10 20 21 55.9643 4.3167
10 20 22 20.8087 35.7636
10 20 23 -20.6516 31.1858
10 20 24 5.6735 -54.5623
10 20 25 8.8422 9.7457
10 20 26 -22.7968 2.3720
10 20 27 12.4326 2.3644
10 20 28 -5.7261 -12.5266
10 20 29 21.3871 7.1247
10 20 30 -11.8679 18.4614
10 20 31 34.1821 32.2743
10 20 32 -27.2838 12.3012
10 20 33 2.3905 -14.7971
10 20 34 0.6509 -1.7753
10 20 35 7.3808 6.3133
10 20 36 9.3126 -6.3141
10 20 37 24.2865 -3.2428
10 20 38 7.2425 -10.9977
10 20 39 1.4545 -30.1746
10 20 40 19.4609 -5.8545
10 20 41 5.5593 -5.4229
10 20 42 -1.0971 -12.6718
10 20 43 18.7826 -6.4891
10 20 44 -4.1776 3.8406
10 20 45 -5.1352 -3.1573
10 20 46 -13.7261 -3.9294
10 20 47 -17.7643 -5.6294
10 20 48 -3.2934 -9.5792
10 20 49 -12.5415 11.4377
10 20 50 -10.5612 11.5866
10 20 51 28.0734 14.2915
10 20 52 -15.2163 -24.4893
10 20 54 14.2991 17.1614
10 20 55 15.8929 23.1993
10 20 56 7.3726 -1.8220
10 20 57 -7.2522 -4.9392
10 20 58 -14.5332 8.6449
10 20 59 -3.6711 10.1986
10 22 0 2.1178 1.3138
10 22 1 37.8661 2.0288
10 22 2 -10.7324 10.3004
10 22 3 39.8066 12.8761
10 22 4 -21.3948 18.5318
10 22 5 45.6087 41.3790
10 22 6 -33.2608 -39.0032
10 22 7 17.1517 -4.4574
10 22 8 0.3756 40.6101
10 22 9 -0.1114 -2.3468
10 22 10 5.7732 -3.9584
10 22 11 83.9586 -4.4607
10 22 12 -26.9607 -6.4585
10 22 13 27.6790 -14.4452
10 22 14 -12.3307 -54.2377
10 22 15 -65.1239 -2.9564
10 22 16 1.6919 7.1939
10 22 17 -33.7450 -22.7470
10 22 18 -4.1232 36.5704
10 22 19 41.2194 5.1013
10 22 20 -12.8462 -1.7244
10 22 21 -6.5073 17.3975
10 22 22 -15.7248 -44.8554
10 22 23 5.5796 -20.8638
10 22 24 29.0035 -10.5121
10 22 25 1.9792 5.8035
10 22 26 -3.8108 -38.7211
10 22 27 0.4371 31.6300
10 22 28 4.2358 -10.4181
10 22 29 -21.6424 12.2917
10 22 30 3.6735 -28.2019
10 22 31 13.4189 3.4625
10 22 32 41.7213 -17.0059
10 22 33 -1.3310 6.8416
10 22 34 -4.2563 -6.4620
10 22 35 10.1350 -15.1234
10 22 36 11.9747 -23.5721
10 22 37 0.3614 -21.0722
10 22 38 5.1976 -12.0238
10 22 39 13.3301 -1.0154
10 22 40 9.9059 19.5357
10 22 41 -19.1222 -9.5834
10 22 42 1.8870 -17.7488
10 22 43 0.5132 -8.2651
10 22 44 7.7570 -0.4195
10 22 45 -7.2456 -4.5083
10 22 46 -5.4959 -1.2212
10 22 47 -0.1838 5.9931
10 22 48 19.3012 -5.5546
10 22 49 -2.8399 -11.6993
10 22 50 -1.7540 9.7068
10 22 51 -3.0387 -26.0345
10 22 52 1.2915 -1.6340
10 22 53 6.7733 -3.2310
10 22 54 13.2116 -3.0682
10 22 56 -3.7155 -4.6774
10 24 0 -40.0533 0.4572
10 24 1 32.5247 -37.5474
10 24 2 43.6116 2.1071
10 24 3 -22.0005 -13.6278
10 24 4 -5.0337 41.5804
10 24 5 -30.0532 47.3651
10 24 6 31.3858 -11.8058
10 24 7 29.1118 28.2704
10 24 8 -14.9579 77.7313
10 24 9 18.9751 -30.3112
10 24 10 -1.8696 -10.5966
10 24 11 14.6528 7.7791
10 24 12 -14.1559 43.5311
10 24 13 -44.1506 25.8406
10 24 14 4.6502 2.0396
10 24 15 18.3392 57.2064
10 24 16 30.3045 -13.8659
10 24 17 30.0350 -31.6069
10 24 18 10.3783 -3.7762
10 24 19 -14.2855 16.6224
10 24 20 3.9578 10.0349
10 24 21 -11.6127 -8.0007
10 24 22 -12.2076 16.6478
10 24 23 12.6663 6.8689
10 24 24 -2.0328 -2.3809
10 24 25 10.9567 8.9839
10 24 26 16.5192 14.0392
10 24 27 11.4006 0.1466
10 24 28 -16.7280 -5.6567
10 24 29 1.7515 6.5617
10 24 30 -14.1623 -16.4778
10 24 31 1.0269 -6.7911
10 24 32 1.7993 -22.5891
10 24 33 4.8282 3.8957
10 24 34 -4.7666 4.3298
10 24 35 8.8120 14.8050
10 24 36 -10.6987 -18.8763
10 24 37 -1.0734 17.5067
10 24 38 -10.2474 -3.1329
10 24 39 3.0188 -6.8369
10 24 40 9.0660 12.4655
10 24 41 1.0774 -6.5268
10 24 42 -13.1234 21.0240
10 24 43 3.9024 -22.8296
10 24 44 -8.9449 9.9095
10 24 45 1.2383 -11.9134
10 24 46 3.4677 -14.8065
10 24 47 -4.5441 7.1104
10 24 48 -2.4587 -1.1928
10 24 50 5.6558 -12.3131
10 24 51 0.2292 4.8791
10 24 52 5.8688 -1.8761
10 24 53 -3.1567 -16.6934
10 26 0 17.5191 -3.2003
10 26 1 15.3952 -15.3653
10 26 2 3.2243 25.9890
10 26 3 -69.0231 13.7440
10 26 4 -16.6037 -19.3334
10 26 5 4.0979 45.3075
10 26 6 -54.3991 -22.7327
10 26 7 -9.5482 -8.2594
10 26 8 8.6866 -7.5894
10 26 9 -21.9063 11.1282
10 26 10 -30.8136 -29.5180
10 26 11 -55.1389 19.9652
10 26 12 -11.3905 13.4714
10 26 13 -13.5451 -0.8249
10 26 14 -1.9505 -22.5726
10 26 15 -25.8810 56.6957
10 26 16 -30.1476 8.7654
10 26 17 -35.9086 2.9514
10 26 18 1.0751 20.0724
10 26 19 -9.5311 28.0067
10 26 20 3.4152 -0.9423
10 26 21 -9.3091 15.1461
10 26 22 -0.4953 17.4620
10 26 23 -17.9919 11.6843
10 26 24 9.7761 0.0569
10 26 25 21.3720 2.6901
10 26 26 -4.2700 -13.3502
10 26 27 14.0897 -18.1862
10 26 28 10.6117 -7.5157
10 26 29 13.8840 -14.3993
10 26 30 27.0098 -2.2423
10 26 31 3.4014 -3.4482
10 26 32 7.0323 -1.8580
10 26 33 15.1946 5.0143
10 26 34 -21.0974 -1.5982
10 26 35 9.2883 -3.8212
10 26 36 14.1221 -1.8507
10 26 37 2.8954 10.0030
10 26 38 0.0300 11.2134
10 26 39 -1.7960 7.1617
10 26 40 3.1130 16.0672
10 26 41 -1.3553 -9.6860
10 26 42 -9.8454 -14.1720
10 26 43 -0.2513 -2.9551
10 26 44 -0.9718 -7.3065
10 26 45 -3.8586 10.8402
10 26 46 -12.7809 -19.9884
10 26 47 -29.7315 -1.5727
10 26 48 -10.7833 -3.6940
10 28 0 10.1909 -0.0907
10 28 1 -0.8453 34.2672
10 28 2 33.6017 10.6401
10 28 3 43.9072 -68.0249
10 28 4 -26.4504 5.3846
10 28 5 -16.0679 72.5108
10 28 6 -11.6072 -22.2993
10 28 7 -3.7789 -62.9815
10 28 8 -43.8807 5.6433
10 28 9 1.4422 28.2306
10 28 10 -16.4374 -16.2123
10 28 11 8.7331 -36.7688
10 28 12 -18.9820 -15.1435
10 28 13 7.7275 11.7254
10 28 14 -5.0801 -20.7203
10 28 15 -2.3880 3.7980
10 28 16 7.6373 2.5819
10 28 17 12.2791 -6.4041
10 28 18 -18.5328 -15.7179
10 28 19 -30.1653 10.9820
10 28 20 -6.7026 2.5440
10 28 21 3.1815 -32.2011
10 28 22 8.2440 -7.4819
10 28 23 -7.7697 0.6849
10 28 24 -1.6044 13.6636
10 28 25 -9.7721 -7.4217
10 28 26 9.3669 -6.8929
10 28 27 -2.6532 13.7712
10 28 28 13.2775 9.9582
10 28 29 2.8835 -6.6682
10 28 30 -12.3655 -0.7677
10 28 31 21.0452 0.7301
10 28 32 -4.7849 -1.8810
10 28 33 1.5475 4.7592
10 28 34 -4.6309 1.8007
10 28 35 -4.5650 -1.9343
10 28 36 -6.0802 -10.4892
10 28 37 3.9441 -4.5427
10 28 38 5.5332 0.6795
10 28 39 -3.6650 -4.0734
10 28 40 4.3220 -1.5174
10 28 41 -15.8907 0.7394
10 28 42 -17.0491 -15.3569
10 28 43 -31.1451 0.0998
10 30 0 -15.7239 2.3166
10 30 1 24.6063 16.4844
10 30 2 63.0469 18.2367
10 30 3 3.2391 -1.2246
10 30 4 -2.3026 -18.6879
10 30 5 -12.7193 9.8069
10 30 6 28.2675 16.8935
10 30 7 -8.4339 -9.9035
10 30 8 -1.6650 45.2955
10 30 9 18.7007 -0.6017
10 30 10 3.2277 23.6833
10 30 11 9.9131 -8.3840
10 30 12 21.0639 -13.2997
10 30 13 7.3360 2.1591
10 30 14 22.6993 -16.2575
10 30 15 13.5023 11.4849
10 30 16 -8.1634 8.3242
10 30 17 -5.6769 -7.4621
10 30 18 12.7413 -1.1157
10 30 19 -3.5678 18.1271
10 30 20 -8.8061 9.3912
10 30 21 -6.7994 -12.5858
10 30 22 7.8176 -9.5920
10 30 23 -2.6118 -8.1540
10 30 24 -2.9353 2.2350
10 30 25 -6.7157 0.9090
10 30 26 8.1630 17.0489
10 30 27 -18.8358 -19.4813
10 30 28 -22.3839 15.8050
10 30 29 -9.9774 4.4418
10 30 30 4.8577 -8.9703
10 30 31 -10.5578 -0.4013
10 30 32 -2.9979 -14.8854
10 30 33 -2.4333 8.8739
10 30 34 6.9034 -8.9583
10 30 35 -1.2036 14.1456
10 30 36 -6.4626 3.9599
10 30 37 6.6443 -4.1747
10 30 38 -6.8688 -0.9569
10 32 0 1.2347 -0.2310
10 32 1 0.9630 4.6384
10 32 2 24.6042 -2.0335
10 32 3 17.1294 0.4555
10 32 4 25.2289 -1.3224
10 32 5 -24.1290 9.6714
10 32 6 7.6970 -0.6435
10 32 7 6.1478 -11.2125
10 32 8 1.6906 4.6610
10 32 9 12.3954 6.2594
10 32 10 -0.8535 1.6166
10 32 11 -8.6623 16.6637
10 32 12 -10.3833 -12.1046
10 32 13 15.0335 -10.9588
10 32 14 -4.5148 -6.5157
10 32 15 -2.2563 0.2504
10 32 16 1.6155 -3.1202
10 32 17 2.8338 19.2646
10 32 18 -2.3060 2.8726
10 32 19 -4.9060 -3.0994
10 32 20 -0.7455 -1.7096
10 32 21 -8.5022 2.8812
10 32 22 -12.0660 -14.2914
10 32 23 -1.8443 1.4592
10 32 24 -3.6311 0.9072
10 32 25 -11.5887 -6.6218
10 32 26 0.1531 6.5757
10 34 0 10.1726 -0.3406
10 34 1 -3.1589 0.6809
10 34 2 7.6030 -7.9900
10 34 3 -18.7431 3.2958
10 34 4 7.3650 -8.4989
10 34 5 10.1110 -0.7739
10 34 6 10.1850 3.0770
10 34 7 1.1287 0.0575
10 34 8 -6.1066 0.1071
10 34 9 21.6170 1.3201
10 34 10 10.1673 1.8523
10 34 11 -5.8250 -1.3446
10 34 12 -6.3586 -3.8659
10 34 13 1.2052 5.1057
10 34 14 -8.8294 -3.3908
10 34 15 3.7985 -3.1953
10 34 16 -3.3826 3.9607
10 34 17 5.5483 1.9523
10 34 18 -1.3988 -0.7635
10 34 19 0.1136 -10.0920
11 1 0 7.7191 1.7288
11 1 1 5.2652 -22.7804
11 1 2 -68.9956 20.5558
11 1 3 58.0138 10.9881
11 1 4 -7.5401 25.0159
11 1 5 -19.0492 28.2249
11 1 6 32.0336 13.7425
11 1 7 -5.8729 33.1667
11 1 8 11.6388 -33.4161
11 1 9 -14.2331 -12.1814
11 1 10 16.9939 -33.7016
11 1 11 -36.5750 -7.0447
11 1 12 -14.9152 -54.1315
11 1 13 4.0013 17.3280
11 1 14 -29.8232 -0.9516
11 1 15 27.0604 -10.6454
11 1 16 10.3629 9.7495
11 1 17 11.0951 -33.3202
11 1 18 -14.6559 3.3219
11 1 19 32.2761 -81.4480
11 1 20 -20.0656 17.4738
11 1 21 -24.2535 17.1510
11 1 22 7.1166 31.3677
11 1 23 35.1023 4.5053
11 1 24 -57.1929 31.5981
11 1 25 -14.9197 22.6877
11 1 26 -12.5222 26.3852
11 1 27 -69.0256 -22.5236
11 1 28 24.6236 -2.6226
11 1 29 46.8072 -45.1852
11 1 30 80.9609 -10.1532
11 1 31 -30.7058 6.4863
11 1 32 39.3554 30.3387
11 1 33 0.3968 69.0942
11 1 34 -11.2382 -22.1678
11 1 35 13.1125 7.7842
11 1 36 10.6860 15.4152
11 1 37 26.7420 3.9113
11 1 38 2.4370 2.5541
11 1 39 -3.5100 -13.5766
11 1 40 8.4386 0.1024
11 1 41 21.2361 9.0702
11 1 42 -47.8669 -16.2415
11 1 43 30.2758 5.0986
11 1 44 -44.6806 6.5664
11 1 45 -4.8491 -14.9820
11 1 46 19.3068 5.9812
11 1 47 -5.1774 -1.6943
11 1 48 34.4399 3.1068
11 1 49 -4.8996 0.3544
11 1 50 -1.3698 5.7056
11 1 51 -30.1274 13.1470
11 1 52 -18.4603 1.2546
11 1 53 -23.0114 17.0253
11 1 54 20.1561 15.7304
11 1 55 -8.5780 1.9761
11 1 56 22.4431 0.7439
11 1 57 5.3206 11.2427
11 1 58 -2.0531 7.0297
11 1 59 10.8991 -8.9177
11 1 60 -8.2866 14.4123
11 1 61 -28.2090 -7.8428
11 3 0 19.3005 -1.9282
11 3 1 5.0052 62.6489
11 3 2 22.7464 -25.3447
11 3 3 53.2945 -26.2751
11 3 4 -30.3785 17.4120
11 3 5 13.7724 15.8372
11 3 6 17.7089 15.6578
11 3 7 -15.1037 11.5860
11 3 8 6.0742 -37.9010
11 3 9 2.2690 -8.2623
11 3 10 17.7843 8.5566
11 3 11 15.1922 -86.5757
11 3 12 78.1998 6.1670
11 3 13 18.3073 53.8596
11 3 14 71.3310 33.6857
11 3 15 43.7219 24.5279
11 3 16 -37.2769 -6.7965
11 3 17 39.3639 -34.9422
11 3 18 15.5001 30.5886
11 3 19 15.8842 -56.6657
11 3 20 -39.3843 -4.0766
11 3 21 18.8031 -34.4955
11 3 22 -57.6372 -49.5232
11 3 23 -10.5919 8.6999
11 3 24 -16.4602 3.5183
11 3 25 63.6340 -4.3232
11 3 26 4.0471 12.9040
11 3 27 -6.0626 5.4138
11 3 28 1.5396 2.6478
11 3 29 25.2632 -22.8273
11 3 30 23.6886 -38.9574
11 3 31 38.6386 41.1728
11 3 32 23.0194 -3.9620
11 3 33 -24.5596 18.4381
11 3 34 -0.1642 19.1151
11 3 35 -3.9959 -12.3797
11 3 36 7.5519 4.5564
11 3 37 1.6755 -18.8368
11 3 38 -4.1319 56.0834
11 3 39 -1.9362 5.6634
11 3 40 -42.4610 11.9378
11 3 41 -12.9683 19.6591
11 3 42 -9.6823 16.5025
11 3 43 -9.2470 0.1260
11 3 44 23.5275 9.0085
11 3 45 2.5291 -9.7416
11 3 46 -5.9709 7.5640
11 3 47 6.1900 -2.6691
11 3 48 22.8735 3.3938
11 3 49 -11.2513 34.6061
11 3 50 -12.1017 8.0812
11 3 51 -30.6615 2.0738
11 3 52 3.7495 -0.7407
11 3 53 -19.4018 -4.2288
11 3 54 -13.2344 -0.1644
11 3 55 9.1848 -18.3762
11 3 56 4.9906 -0.3069
11 3 57 5.1716 -4.0959
11 3 58 -7.4956 -1.6321
11 3 59 -13.4874 -9.3379
11 3 60 -7.2895 3.4480
11 3 61 3.2397 -4.9650
11 3 62 1.6963 -12.6748
11 3 63 12.9634 -2.5505
11 3 64 10.9589 -12.1626
11 3 65 -6.7021 6.7352
11 3 66 1.5839 3.9200
11 3 67 -9.6896 12.1488
11 3 68 -9.8817 0.6897
11 5 0 -19.1056 -0.0226
11 5 1 73.6310 -2.4539
11 5 2 56.2155 46.2664
11 5 3 4.3076 -27.5217
11 5 4 8.0610 -40.9601
11 5 5 -12.1821 38.0915
11 5 6 -24.6297 -14.1815
11 5 7 -9.6938 26.8104
11 5 8 -111.5208 12.4508
11 5 9 18.0487 41.0041
11 5 10 0.8915 -22.8494
11 5 11 61.9432 -39.7917
11 5 12 -28.1851 -2.1491
11 5 13 82.1700 60.9480
11 5 14 8.6768 44.4008
11 5 15 1.4436 29.4041
11 5 16 20.6974 43.4904
11 5 17 50.3687 -81.1586
11 5 18 11.1363 45.9434
11 5 19 75.8272 -21.5615
11 5 20 40.8529 -0.5545
11 5 21 64.4621 -16.1524
11 5 22 39.6019 -60.4397
11 5 23 1.6834 15.8744
11 5 24 43.8961 -55.6586
11 5 25 19.3692 12.1802
11 5 26 25.5828 -41.7218
11 5 27 3.5704 25.6005
11 5 28 -34.8850 -45.7982
11 5 29 46.7079 -8.4036
11 5 30 -63.7885 -41.4795
11 5 31 -74.7174 28.2474
11 5 32 -17.3702 18.8569
11 5 33 18.8234 1.5607
11 5 34 -2.5342 6.6166
11 5 35 6.4399 -12.8753
11 5 36 -26.6812 10.2753
11 5 37 19.3690 -11.1366
11 5 38 -2.7307 9.1234
11 5 39 0.5447 -20.1479
11 5 40 -23.4076 -58.5796
11 5 41 -25.7361 12.1783
11 5 42 7.3566 -11.8616
11 5 43 -5.1324 0.2334
11 5 44 -6.3233 -24.1631
11 5 45 15.0957 -20.1898
11 5 46 -28.7360 16.5967
11 5 47 17.7160 -10.5673
11 5 48 8.0982 1.2932
11 5 49 22.7117 21.0967
11 5 50 -9.7826 16.8158
11 5 51 -4.4468 22.0884
11 5 52 -9.1912 3.9678
11 5 53 -0.8399 -0.7694
11 5 54 23.1480 3.9507
11 5 55 -3.7622 -8.1563
11 5 56 -2.7817 -3.5499
11 5 57 -0.4394 4.4216
11 5 58 13.1792 3.1978
11 5 59 2.6370 -5.9414
11 5 60 8.0472 -1.5419
11 5 61 -17.7900 3.2970
11 5 62 -1.1360 1.5689
11 5 63 -8.7777 3.1623
11 5 64 183.7820 -94.0147
11 5 65 0.9479 24.1668
11 5 66 -9.7914 -4.0574
11 7 0 7.4584 0.7754
11 7 1 17.4449 -71.7504
11 7 2 38.1571 -37.5698
11 7 3 15.8931 25.1314
11 7 4 -139.0199 27.1503
11 7 5 -17.5008 -26.1765
11 7 6 31.6965 -42.0400
11 7 7 -32.1818 -19.5383
11 7 8 -26.1750 17.5686
11 7 9 -23.5143 -0.0393
11 7 10 -37.0140 -25.5129
11 7 11 25.6365 -39.8579
11 7 12 -45.4072 -15.3825
11 7 13 -88.6861 16.7120
11 7 14 36.4741 -32.1942
11 7 15 12.1792 17.1336
11 7 16 90.9136 53.8255
11 7 17 -14.0834 0.9941
11 7 18 -57.1752 -25.8320
11 7 19 7.2790 -11.6657
11 7 20 49.9305 14.9027
11 7 21 -18.0979 28.1105
11 7 22 -2.7415 -61.9293
11 7 23 -13.9140 -35.8247
11 7 24 96.1675 -88.4062
11 7 25 -17.0776 -32.6927
11 7 26 92.7917 -72.9327
11 7 27 5.8534 -12.6087
11 7 28 4.5748 -29.5884
11 7 29 -13.9226 21.3980
11 7 30 51.1653 -10.0110
11 7 31 -9.9524 -18.1735
11 7 32 26.8294 6.8277
11 7 33 26.6524 10.7910
11 7 34 51.2158 -18.4738
11 7 35 68.6241 -39.9347
11 7 36 1.4040 -6.9892
11 7 37 -1.0846 -17.1342
11 7 38 -12.7926 -19.6151
11 7 39 33.3527 15.5557
11 7 40 -10.2747 -12.8181
11 7 41 -8.0936 -19.4843
11 7 42 -1.0273 3.6033
11 7 43 -4.2099 -25.8949
11 7 44 -14.8386 24.0063
11 7 45 -18.4760 14.4527
11 7 46 -9.5528 -2.1298
11 7 47 6.2384 18.4649
11 7 48 18.1430 -13.9567
11 7 49 4.3282 -10.6635
11 7 50 20.9994 3.5985
11 7 51 4.7982 -16.7017
11 7 52 10.9034 19.1028
11 7 53 -13.8616 12.1872
11 7 54 15.5029 -15.2173
11 7 55 3.8282 -4.7570
11 7 56 8.4565 1.1876
11 7 57 0.7098 0.1388
11 7 58 -0.3987 -1.8258
11 7 59 2.9681 1.6437
11 7 60 -5.7412 7.1397
11 7 61 6.2836 12.8732
11 7 67 -0.2077 5.1353
11 7 68 -6.8547 -3.7235
11 7 69 5.0903 4.3029
11 7 70 -9.3181 8.3810
11 9 0 13.7169 -0.1000
11 9 1 44.9745 -50.9110
11 9 2 26.8283 25.5921
11 9 3 104.8519 -75.8819
11 9 4 -31.3561 -40.4645
11 9 5 -11.9598 -4.0263
11 9 6 -1.4730 -49.9276
11 9 7 -23.8699 8.6792
11 9 8 -26.0989 -66.6953
11 9 9 33.3676 -93.8490
11 9 10 -14.6947 80.4367
11 9 11 16.2050 -6.3228
11 9 12 -35.1071 -24.4827
11 9 13 -59.2101 -24.3996
11 9 14 33.6268 -24.0309
11 9 15 23.0770 -37.4021
11 9 16 -38.1741 -4.9742
11 9 17 26.5570 21.1266
11 9 18 -28.4788 32.2290
11 9 19 -30.9635 50.6468
11 9 20 -142.1075 -18.1479
11 9 21 32.2447 74.6750
11 9 22 -70.9903 14.9441
11 9 23 -24.8968 54.4671
11 9 24 68.3360 -41.6840
11 9 25 27.8273 6.6351
11 9 26 -45.1144 30.4489
11 9 27 -66.4734 18.1678
11 9 28 36.7203 24.0257
11 9 29 39.3031 -1.1184
11 9 30 -35.6976 20.5420
11 9 31 -56.4271 4.9680
11 9 32 34.8614 84.9147
11 9 33 35.5021 -24.4080
11 9 34 -15.9940 -13.3274
11 9 35 -50.6230 0.9492
11 9 36 22.0505 -0.5086
11 9 37 10.5084 -19.7491
11 9 38 -0.4383 -29.3677
11 9 39 28.8647 10.2957
11 9 40 24.5634 -4.3036
11 9 41 0.1496 -12.9863
11 9 42 29.1795 23.0576
11 9 43 28.2255 2.6838
11 9 44 4.2738 10.2948
11 9 45 -7.4884 -8.7392
11 9 46 -9.9191 -10.5809
11 9 47 15.2699 -6.1357
11 9 48 4.9733 11.2991
11 9 49 -2.2672 -13.4182
11 9 50 -9.5880 10.1300
11 9 51 -12.7286 -7.6919
11 9 52 1.1642 10.6376
11 9 53 -8.8063 1.7812
11 9 54 -1.9403 1.0646
11 9 55 -4.1915 3.3621
11 9 56 -6.8915 -9.2425
11 9 57 -3.9425 -20.8250
11 9 58 0.4640 0.2013
11 9 59 1.5285 0.2732
11 9 60 -27.3291 4.5051
11 9 61 1.3722 -7.5970
11 9 62 -0.0600 3.0066
11 9 63 1.4620 2.3447
11 9 64 -20.1986 -9.6714
11 9 65 3.3880 -6.8764
11 9 66 -7.5284 1.9751
11 9 67 -1.8865 -1.6685
11 9 68 -0.2911 16.1118
11 9 69 2.8000 -2.2170
11 11 0 -20.5452 0.7284
11 11 1 -60.8803 -56.9488
11 11 2 -55.2914 -24.4506
11 11 3 -1.7204 90.0005
11 11 4 14.0034 -8.5886
11 11 5 -53.4241 71.2914
11 11 6 -21.4128 44.4613
11 11 7 -86.4193 -32.8816
11 11 8 -34.3269 12.4146
11 11 9 -56.1366 -5.0219
11 11 10 8.1803 95.3726
11 11 11 2.4644 10.7510
11 11 12 11.3334 32.2031
11 11 13 34.8882 3.7524
11 11 14 -6.0531 8.4860
11 11 15 -64.8268 -2.0663
11 11 16 -86.8150 29.0446
11 11 17 23.8248 25.4593
11 11 18 33.9604 84.3407
11 11 19 65.6395 -14.3568
11 11 20 -26.0316 14.2267
11 11 21 52.4735 18.9786
11 11 22 23.0198 38.0330
11 11 23 -20.1765 -2.9940
11 11 24 12.5029 -22.0214
11 11 25 120.3383 -32.4627
11 11 26 -4.0372 -1.5572
11 11 27 2.2569 9.8824
11 11 28 -61.0532 -92.9306
11 11 29 57.1163 -7.5067
11 11 30 1.6024 1.8823
11 11 31 -26.7199 29.7080
11 11 32 -15.1201 88.0660
11 11 33 -18.1939 33.4020
11 11 34 3.6030 -2.1235
11 11 35 -7.4664 24.0535
11 11 36 -16.4848 22.3683
11 11 37 -24.0160 -2.0175
11 11 38 -11.8292 -0.1462
11 11 39 -9.2081 13.7015
11 11 40 14.0232 16.6833
11 11 41 -2.8492 3.5075
11 11 42 4.5085 1.9732
11 11 43 13.2648 4.2430
11 11 44 20.1989 -3.6648
11 11 45 10.4657 -11.1213
11 11 46 14.9969 -4.1862
11 11 47 -5.0002 8.3033
11 11 48 -4.9272 -3.9914
11 11 49 2.4083 1.3525
11 11 50 -7.2848 -1.2721
11 11 51 -5.7357 -2.7525
11 11 52 -6.5734 14.0599
11 11 53 7.0281 -5.0004
11 11 54 8.0180 -8.2115
11 11 55 -1.3066 4.4704
11 11 56 6.0779 -0.6549
11 11 57 -6.3383 -0.5071
11 11 58 6.4676 13.9943
11 11 59 5.7129 -0.3879
11 11 60 13.7219 5.7308
11 11 61 -0.2028 8.9198
11 11 62 -4.5701 -3.2519
11 11 63 -10.6846 -15.3218
11 11 64 -8.6741 -29.0186
11 11 65 -3.2845 -4.2938
11 11 66 16.9617 2.2234
11 11 67 -17.7787 -3.4063
11 13 0 13.0570 -2.3889
11 13 1 -45.8726 0.0090
11 13 2 -15.7554 -34.5953
11 13 3 69.6786 -64.8110
11 13 4 -35.4140 -15.0279
11 13 5 -97.6108 19.1632
11 13 6 52.4443 19.4996
11 13 7 48.4622 13.9237
11 13 8 44.8948 -18.4688
11 13 9 44.5783 -28.0751
11 13 10 33.1391 29.9465
11 13 11 31.9249 29.3116
11 13 12 20.8099 7.1126
11 13 13 38.3547 -0.9142
11 13 14 82.8766 36.9915
11 13 15 4.7113 7.4685
11 13 16 -96.8838 -58.5832
11 13 17 16.0431 49.3858
11 13 18 -22.5832 2.6444
11 13 19 -62.2715 17.4804
11 13 20 28.7757 7.2245
11 13 21 -15.7930 27.3310
11 13 22 45.3715 28.9359
11 13 23 -41.5635 -6.1236
11 13 24 13.2979 12.0690
11 13 25 -15.3193 28.2076
11 13 26 -44.6797 -42.5993
11 13 27 -32.3273 -37.3964
11 13 28 19.2066 -4.1487
11 13 29 26.0843 -27.7707
11 13 30 -14.8535 3.1730
11 13 31 -34.7404 -1.9730
11 13 32 47.2438 23.5528
11 13 33 15.2887 -14.7624
11 13 34 11.9247 6.6899
11 13 35 -37.5722 -18.9606
11 13 36 -3.7516 -13.1746
11 13 37 11.7562 -23.8884
11 13 38 17.2838 -1.8908
11 13 39 26.0966 17.8913
11 13 40 -17.7235 -2.6107
11 13 41 -26.1383 33.0556
11 13 42 -12.4007 15.3578
11 13 43 26.3234 1.5814
11 13 44 12.8998 -10.7645
11 13 45 -12.5554 -8.7816
11 13 46 7.4960 -27.1671
11 13 47 -18.3000 -2.0519
11 13 48 9.7252 20.7321
11 13 49 4.2052 -9.3640
11 13 50 13.9508 -11.1529
11 13 51 -7.2178 16.2796
11 13 52 0.8470 13.8314
11 13 53 8.8966 3.9337
11 13 54 -1.5748 -6.0107
11 13 55 14.6201 12.8821
11 13 56 9.4423 -4.6640
11 13 57 1.4633 -0.2941
11 13 58 3.6014 -6.6022
11 13 59 7.5019 -8.8684
11 13 60 1.9380 5.1740
11 13 61 -0.7040 -4.7215
11 13 62 -0.5496 5.6112
11 13 63 -4.9300 18.4834
11 13 64 1.2040 -11.7631
11 13 65 -3.3677 1.3752
11 13 66 1.8887 -1.8786
11 15 0 -94.3990 2.5428
11 15 1 -39.4774 -16.7426
11 15 2 63.6663 -23.6216
11 15 3 39.6024 2.2818
11 15 4 100.5867 -11.4318
11 15 5 -82.1825 21.8838
11 15 6 -4.1224 1.7934
11 15 7 -84.4289 4.4704
11 15 8 -19.8230 -43.4352
11 15 9 39.2214 -48.6177
11 15 10 6.8066 6.7008
11 15 11 52.6404 -62.3491
11 15 12 24.7191 -17.7856
11 15 13 -16.9551 8.3425
11 15 14 -2.8531 -36.7425
11 15 15 25.0600 2.7724
11 15 16 -5.4000 -16.3291
11 15 17 -51.7709 -17.9054
11 15 18 -10.0794 -34.7968
11 15 19 -22.0738 -48.9841
11 15 20 -40.2164 -3.4280
11 15 21 -34.6429 -6.2220
11 15 22 -48.6732 19.9010
11 15 23 -47.8400 -3.7612
11 15 24 -55.4483 5.9572
11 15 25 21.8208 -4.7246
11 15 26 -1.5685 23.2373
11 15 27 1.3990 2.9299
11 15 28 -18.7306 -3.8247
11 15 29 -12.3718 -21.9979
11 15 30 -46.6331 -23.2967
11 15 31 -9.6744 4.1486
11 15 32 6.4671 7.0973
11 15 33 -1.7936 -21.5633
11 15 34 8.1498 -1.0260
11 15 35 28.5091 -3.3886
11 15 36 -13.9156 -23.0310
11 15 37 -28.3930 -17.6177
11 15 38 9.0415 3.2961
11 15 39 56.7308 24.1337
11 15 40 -0.3981 -19.6708
11 15 41 24.7906 -3.2439
11 15 42 -6.3658 -7.1101
11 15 43 8.6886 5.8950
11 15 44 -18.9343 -5.0266
11 15 45 -19.1772 -10.6708
11 15 46 5.2935 -18.4763
11 15 47 7.2668 -12.7485
11 15 48 12.2370 4.7648
11 15 49 -1.9339 -5.2382
11 15 50 -0.1656 -7.9660
11 15 51 -14.0707 -6.9003
11 15 52 -7.4405 -10.6296
11 15 53 -4.9508 7.8409
11 15 54 -4.0829 -5.2510
11 15 55 -15.6775 6.9535
11 15 56 -1.7585 4.8675
11 15 57 3.3009 -1.4067
11 15 58 -1.6106 -5.1270
11 15 59 0.0498 0.2805
11 15 60 -1.9034 -2.4222
11 15 61 -9.3609 8.7892
11 15 62 -12.5318 10.1540
11 15 63 -4.5713 -6.9453
11 15 64 3.0324 -2.5812
11 17 0 23.0046 -0.9452
11 17 1 -13.4550 66.0929
11 17 2 -108.4773 27.8668
11 17 3 57.2367 -43.4232
11 17 4 49.3819 -85.9888
11 17 5 -27.2850 1.8746
11 17 6 -4.0763 -42.7667
11 17 7 -31.3485 41.6220
11 17 8 -12.1494 1.7757
11 17 9 22.8941 -29.3544
11 17 10 -58.4329 6.2835
11 17 11 22.2837 -9.1814
11 17 12 38.1626 -70.8559
11 17 13 -4.3592 21.5703
11 17 14 -14.7634 19.9198
11 17 15 -9.6662 19.0846
11 17 16 -4.0939 7.0408
11 17 17 -44.1021 4.5765
11 17 18 9.7774 26.8233
11 17 19 -28.2668 -15.7466
11 17 20 5.6097 7.6005
11 17 21 9.4833 13.3343
11 17 22 -7.4020 19.0666
11 17 23 18.9874 4.5711
11 17 24 -4.1964 7.1941
11 17 25 18.5658 -12.9550
11 17 26 -63.8239 17.7851
11 17 27 -35.6937 -19.2451
11 17 28 -9.3355 -3.2554
11 17 29 8.8947 19.5862
11 17 30 -16.9949 10.7045
11 17 31 8.3729 -17.5555
11 17 32 13.1438 -52.2869
11 17 33 -13.5119 4.1293
11 17 34 -3.1395 27.1413
11 17 35 5.7206 -7.3384
11 17 36 14.0588 26.4977
11 17 37 -2.2141 -7.3290
11 17 38 16.0303 9.4949
11 17 39 8.4619 16.1509
11 17 40 -2.9918 4.4234
11 17 41 -16.6587 8.3777
11 17 42 2.6795 17.7324
11 17 43 1.9881 -19.8249
11 17 44 9.7954 9.1851
11 17 45 -16.7443 9.8342
11 17 46 2.4544 11.7869
11 17 47 5.9990 2.1964
11 17 48 1.3142 -10.8090
11 17 49 5.2931 -9.6288
11 17 50 -3.1277 -5.1931
11 17 51 2.6367 -15.6297
11 17 52 6.9601 -1.9500
11 17 53 -4.8966 -18.6340
11 17 54 -11.9936 1.4503
11 17 55 3.6552 -4.0286
11 17 56 -16.0402 -1.3973
11 17 57 2.0490 -7.0097
11 17 58 -1.4395 6.1099
11 17 59 10.9692 4.1726
11 19 0 2.0104 -0.4933
11 19 1 -33.8856 63.6964
11 19 2 -20.2338 72.4421
11 19 3 39.6914 56.8566
11 19 4 3.0931 -44.3426
11 19 5 -12.4755 23.2109
11 19 6 -24.5477 12.3566
11 19 7 13.1556 2.8870
11 19 8 19.2953 9.6893
11 19 9 7.2407 41.6495
11 19 10 -11.5881 15.1584
11 19 11 30.1197 15.5218
11 19 12 12.5598 50.0099
11 19 13 11.2886 -33.8890
11 19 14 22.8606 18.7734
11 19 15 47.6802 -12.2759
11 19 16 54.4600 140.1017
11 19 17 -29.5580 68.4705
11 19 18 -47.0903 -54.5949
11 19 19 0.1278 7.9495
11 19 20 33.8392 30.7351
11 19 21 -5.0630 7.7401
11 19 22 20.7646 22.9903
11 19 23 30.1012 20.4580
11 19 24 20.2852 -7.2518
11 19 25 13.7309 -2.2387
11 19 26 -33.4822 -12.5233
11 19 27 -17.4737 -7.0821
11 19 28 35.4777 -21.3465
11 19 29 27.0490 -45.5319
11 19 30 -35.2144 2.1917
11 19 31 19.4764 16.2800
11 19 32 35.6140 -19.6003
11 19 33 -11.7451 -6.5962
11 19 34 9.7665 -2.0456
11 19 35 17.9169 27.3523
11 19 36 -6.8474 -10.5640
11 19 37 4.4483 -9.1971
11 19 38 -21.8405 0.6562
11 19 39 7.3491 -4.1207
11 19 40 16.6512 5.0745
11 19 41 -15.2840 -9.6403
11 19 42 -18.8717 -5.3667
11 19 43 3.1613 0.5271
11 19 44 -11.8629 -6.7944
11 19 45 11.2348 -7.7794
11 19 46 0.2487 -10.9988
11 19 47 1.1220 -11.1424
11 19 48 4.9156 15.6542
11 19 49 -3.6860 -7.8928
11 19 50 -15.8758 -26.2750
11 19 51 9.4572 -14.8428
11 19 52 -14.5706 -14.7683
11 19 54 -7.0213 2.4731
11 19 55 -1.1777 3.7491
11 19 56 4.3386 16.0916
11 19 57 -4.5709 1.9191
11 21 0 -6.3207 0.6476
11 21 1 33.4518 60.0037
11 21 2 -29.7497 19.8092
11 21 3 -80.3063 6.0771
11 21 4 8.0185 -7.5592
11 21 5 50.0379 41.2004
11 21 6 -23.0474 -7.4690
11 21 7 5.5722 9.3106
11 21 8 31.7652 -6.9989
11 21 9 28.9787 6.8862
11 21 10 31.1794 -5.8242
11 21 11 -78.9279 7.2918
11 21 12 44.9200 -4.2327
11 21 13 -0.1184 5.5788
11 21 14 -49.7624 1.9100
11 21 15 7.9635 33.7254
11 21 16 15.3858 23.6037
11 21 17 21.5104 27.4513
11 21 18 -13.3467 11.4523
11 21 19 -38.6788 6.6348
11 21 20 65.4953 -43.8251
11 21 21 -41.9513 -17.1652
11 21 22 -33.6427 -18.8477
11 21 23 -12.9335 79.1642
11 21 24 -0.5604 -2.9784
11 21 25 -13.6431 5.6358
11 21 26 -34.5195 18.4902
11 21 27 -6.5891 4.6145
11 21 28 31.1367 -17.0887
11 21 29 -0.0304 2.3746
11 21 30 -12.8557 2.3829
11 21 31 -11.1993 12.7468
11 21 32 -4.3827 35.3889
11 21 33 -14.4115 -7.3697
11 21 34 5.0304 2.0980
11 21 35 11.0829 -11.6064
11 21 36 6.8232 -5.0544
11 21 37 -16.1578 -0.1688
11 21 38 -11.4269 28.2411
11 21 39 -37.8079 19.2774
11 21 40 -9.0791 1.9644
11 21 41 -3.2027 -2.2418
11 21 42 6.8041 3.2656
11 21 43 -5.6552 11.6388
11 21 44 -15.6717 10.4316
11 21 45 -0.8006 5.9837
11 21 46 2.1559 1.3767
11 21 47 8.1253 9.4059
11 21 48 -8.2645 -11.0594
11 21 49 -1.1838 -11.3400
11 21 50 -2.6180 19.2992
11 21 51 -2.3415 -27.3978
11 21 55 -0.5841 17.0220
11 21 56 13.8472 7.4163
11 23 0 -14.6305 -0.2185
11 23 1 -13.9716 -13.3635
11 23 2 -9.9345 -15.4645
11 23 3 -14.9132 -28.2031
11 23 4 11.0085 6.1504
11 23 5 -75.0629 -25.5839
11 23 6 22.0578 25.5028
11 23 7 30.8830 -24.5296
11 23 8 -11.3177 8.7398
11 23 9 -30.8472 -11.7889
11 23 10 -16.9366 -11.4861
11 23 11 -21.2442 68.7623
11 23 12 52.5941 25.0316
11 23 13 17.5873 58.7463
11 23 14 34.5530 6.7385
11 23 15 23.3364 34.9081
11 23 16 -4.7580 -4.9487
11 23 17 22.0109 13.4202
11 23 18 13.0806 -5.9386
11 23 19 -56.4677 7.0045
11 23 20 33.8467 12.9916
11 23 21 5.0142 21.1218
11 23 22 -14.2222 4.0486
11 23 23 17.8981 -34.3559
11 23 24 22.0958 8.9033
11 23 25 14.4483 4.7299
11 23 26 14.8495 37.6533
11 23 27 -15.7178 17.7157
11 23 28 1.0651 19.5727
11 23 29 -30.7143 8.1396
11 23 30 3.0597 12.2294
11 23 31 -8.9079 -9.1904
11 23 32 17.6599 -11.2737
11 23 33 -15.9529 8.8882
11 23 34 6.0120 5.7369
11 23 35 5.9948 16.1144
11 23 36 19.0662 -6.5078
11 23 37 17.2361 -7.5319
11 23 38 5.9519 -10.1371
11 23 39 -8.9714 -3.1935
11 23 40 2.0341 7.0427
11 23 41 14.4766 4.2243
11 23 42 -3.0036 7.4958
11 23 43 16.7202 -7.5010
11 23 44 7.6001 10.4772
11 23 45 24.5126 16.7733
11 23 47 -4.1256 0.3838
11 23 48 -11.1066 -5.9483
11 23 49 2.0518 3.0635
11 23 50 0.4243 -15.1971
11 23 51 8.3089 1.1642
11 23 52 -3.4448 14.2590
11 23 53 -13.4751 1.0303
11 25 0 -25.5619 0.6116
11 25 1 4.6191 4.4122
11 25 2 52.0900 2.6887
11 25 3 -13.3986 -32.7027
11 25 4 26.8049 -47.3143
11 25 5 -13.0567 27.2240
11 25 6 7.2090 -11.8952
11 25 7 -14.2758 -10.4257
11 25 8 -45.4642 -7.9279
11 25 9 -0.0491 -3.4742
11 25 10 42.7276 9.4101
11 25 11 -36.2458 -13.4406
11 25 12 -32.8303 6.1793
11 25 13 39.3965 1.1457
11 25 14 -4.0381 -13.4026
11 25 15 17.0432 -8.1195
11 25 16 13.6433 20.1958
11 25 17 33.0387 -11.2318
11 25 18 1.4664 37.7487
11 25 19 -13.1942 7.6730
11 25 20 -27.6603 -23.8673
11 25 21 17.3401 -4.8831
11 25 22 4.6228 2.0724
11 25 23 6.7565 1.4869
11 25 24 5.7238 -5.2759
11 25 25 10.4024 -16.4911
11 25 26 -14.4395 -18.2193
11 25 27 7.6296 -1.5870
11 25 28 -1.7187 -3.9876
11 25 29 -6.0871 -5.2061
11 25 30 -31.6710 10.8527
11 25 31 5.8823 -33.7828
11 25 32 7.3010 -13.7471
11 25 33 -5.4200 -3.8146
11 25 34 -3.5315 6.0596
11 25 35 -4.4259 10.6405
11 25 36 -5.0443 3.9700
11 25 37 1.8814 4.3070
11 25 38 5.2321 -0.3481
11 25 39 11.3144 -3.0517
11 25 40 -9.4314 -15.7919
11 25 41 -0.3441 -13.7828
11 25 42 -14.3272 -21.3104
11 25 43 3.8526 25.9271
11 25 44 6.2026 -21.5767
11 25 45 -0.1209 8.6604
11 25 49 -4.7714 -0.6389
11 27 0 -6.9403 -1.3925
11 27 1 5.9987 14.5145
11 27 2 -27.3541 -5.3551
11 27 3 38.6934 31.3551
11 27 4 19.8245 -26.1994
11 27 5 -7.0672 -7.8276
11 27 6 -15.7154 25.3117
11 27 7 -1.1601 14.6484
11 27 8 4.3826 -17.4174
11 27 9 -37.8167 -47.1088
11 27 10 16.6129 11.5219
11 27 11 -9.8817 32.1603
11 27 12 -0.4448 -14.9054
11 27 13 3.9606 0.6736
11 27 14 -17.7990 -7.9826
11 27 15 12.9003 -26.1981
11 27 16 -11.2303 19.4674
11 27 17 11.6535 -0.3363
11 27 18 28.1337 15.4074
11 27 19 -17.9038 16.4215
11 27 20 -13.4357 19.7676
11 27 21 -19.1034 -12.2630
11 27 22 21.1768 -9.1494
11 27 23 -1.3382 -1.2244
11 27 24 -13.8224 -0.1695
11 27 25 -10.3870 13.1027
11 27 26 8.6931 -2.9377
11 27 27 5.9692 4.9233
11 27 28 -29.5665 8.7057
11 27 29 -8.8736 0.9726
11 27 30 4.7125 11.4427
11 27 31 33.1239 0.6388
11 27 32 -1.0516 7.6906
11 27 33 1.0341 10.7362
11 27 34 -3.6365 7.6169
11 27 35 3.5514 4.8380
11 27 36 15.1090 -3.5042
11 27 37 -0.1180 -12.7985
11 27 38 3.6909 1.0731
11 27 39 1.8037 11.5671
11 27 40 14.1224 -11.9601
11 27 41 -5.6367 -0.3814
11 27 42 4.2314 -4.9211
11 27 43 -3.6534 13.7941
11 27 44 -5.5356 5.7524
11 27 45 -3.4013 -0.6753
11 29 0 1.3843 1.1856
11 29 1 -6.7846 9.5116
11 29 2 12.4600 -4.0146
11 29 3 -19.6310 -8.2533
11 29 4 10.6889 16.9956
11 29 5 7.5826 -3.4182
11 29 6 22.2976 7.4895
11 29 7 19.5224 14.1493
11 29 8 -0.7241 8.8266
11 29 9 -14.2232 -4.4438
11 29 10 -18.8138 -29.2605
11 29 11 7.4225 -9.6945
11 29 12 1.5210 9.7468
11 29 13 -1.8356 11.4790
11 29 14 -11.2304 -10.2707
11 29 15 -6.5350 -12.3043
11 29 16 -21.3206 -14.4712
11 29 17 -0.5716 -7.4866
11 29 18 -9.0917 -9.5544
11 29 19 5.0612 5.0849
11 29 20 -10.6540 -21.7954
11 29 21 -13.1554 -14.3294
11 29 22 -23.2811 14.8245
11 29 23 12.4035 11.0091
11 29 24 -7.4933 3.9080
11 29 25 -2.7774 -9.9189
11 29 26 -11.2010 -4.9688
11 29 27 5.1681 -1.4517
11 29 28 -6.6292 10.4463
11 29 29 -2.1936 8.3214
11 29 30 -4.1339 -0.8167
11 29 31 -5.9659 6.4651
11 29 32 21.2704 -6.8084
11 29 33 6.1840 18.0491
11 29 34 7.0590 -0.4505
11 29 35 -0.6430 1.8933
11 29 36 -3.0208 -4.4865
11 29 37 1.8286 5.1983
11 29 38 -1.2885 -6.1675
11 29 39 6.8541 -7.8610
11 31 0 5.2739 -0.4604
11 31 1 13.7042 2.8666
11 31 2 -35.5528 -8.9485
11 31 3 -26.9008 2.8983
11 31 4 -15.7061 -6.4029
11 31 5 -2.7021 8.1888
11 31 6 18.7997 -25.1763
11 31 7 30.0772 20.9827
11 31 8 2.3619 -0.0199
11 31 9 14.9112 -7.4207
11 31 10 -2.7110 -13.5711
11 31 11 2.7773 -11.9797
11 31 12 8.8407 -7.5826
11 31 13 5.6540 -5.6623
11 31 14 -6.2535 20.1333
11 31 15 10.0907 -3.3566
11 31 16 -6.3855 -1.0971
11 31 17 21.1634 -1.7366
11 31 18 -0.9650 -4.8895
11 31 19 3.9774 -4.2780
11 31 20 19.4765 10.5803
11 31 21 -1.5240 1.4377
11 31 22 1.7507 1.3084
11 31 23 11.3387 -6.3509
11 31 24 7.5445 -5.6516
11 31 25 9.1239 -11.1640
11 31 26 -12.4484 -12.8449
11 31 27 2.1839 -6.8020
11 31 28 -5.0912 -6.7958
11 31 29 10.0455 4.0966
11 31 30 -6.5430 9.6826
11 31 31 -9.6150 1.4578
11 31 32 8.4470 -0.4682
11 33 0 -25.0637 0.2718
11 33 1 6.3789 3.5275
11 33 2 -2.5638 6.3447
11 33 3 3.9206 7.8351
11 33 4 -12.9639 28.8335
11 33 5 -5.8756 0.4139
11 33 6 -10.8268 16.0715
11 33 7 -0.6815 -3.4373
11 33 8 -10.7358 10.6115
11 33 9 0.6401 -4.1283
11 33 10 -18.9650 5.2164
11 33 11 5.2569 0.1270
11 33 12 6.7940 10.6204
11 33 13 1.0015 -7.0531
11 33 14 2.0384 -10.6347
11 33 15 20.8084 5.8760
11 33 16 8.5138 -14.7744
11 33 17 -3.7068 -11.1207
11 33 18 7.9221 4.1583
11 33 19 -6.5895 -0.3942
11 33 20 21.4258 -4.4010
11 33 21 -3.1712 2.0073
11 33 22 2.2582 6.6514
11 33 23 -14.6370 4.6981
12 0 0 85.5268 0.7789
12 0 1 0.3479 3.8418
12 0 2 19.7503 0.7477
12 0 3 -0.1396 -8.7956
12 0 4 -13.0455 -0.4112
12 0 5 -0.4668 -10.5080
12 0 6 -4.8404 -0.0110
12 0 7 -0.3459 18.6719
12 0 8 8.1375 0.0525
12 0 9 0.6614 -10.9029
12 0 10 -36.2430 -0.5589
12 0 11 0.5432 38.7528
12 0 12 -42.9382 0.1819
12 0 13 -0.4671 15.6801
12 0 14 17.5702 0.0179
12 0 15 0.3713 33.5546
12 0 16 -24.8272 0.8110
12 0 17 0.0482 5.0958
12 0 18 25.7029 0.4589
12 0 19 -1.3100 -22.2595
12 0 20 4.0041 -2.3822
12 0 21 0.3427 -13.0240
12 0 22 35.3265 0.2298
12 0 23 1.9898 5.4217
12 0 24 7.9326 3.6392
12 0 25 -0.5852 -30.9826
12 0 26 -11.9538 -0.8743
12 0 27 -2.0246 -17.9679
12 0 28 -22.9187 -3.5939
12 0 29 0.5265 -8.3277
12 0 30 1.0824 1.1854
12 0 31 1.4706 12.5236
12 0 32 -9.8727 2.2986
12 0 33 -0.5671 36.6347
12 0 34 -14.9190 -0.9776
12 0 35 -0.6532 -5.8504
12 0 36 -26.6649 -0.6083
12 0 37 0.5775 -25.6129
12 0 38 1.3752 0.3065
12 0 39 -0.1519 -1.6927
12 0 40 -4.2386 -0.7029
12 0 41 -0.5719 2.4187
12 0 42 1.9327 0.4544
12 0 43 0.5732 17.7837
12 0 44 -0.6339 1.3250
12 0 45 0.5532 7.0475
12 0 46 1.8360 -1.0079
12 0 47 -0.6771 -20.3664
12 0 48 7.0273 -1.2240
12 0 49 -0.3577 -14.0883
12 0 50 -6.1254 1.0543
12 0 51 0.5893 10.7835
12 0 52 -8.2801 0.7664
12 0 53 0.1391 2.3664
12 0 54 14.3460 -0.9348
12 0 55 -0.5002 -6.8658
12 0 56 -2.0500 -0.4336
12 0 57 0.0724 -0.6396
12 0 58 -9.5388 0.5547
12 0 59 0.2986 -10.9287
12 0 60 -6.5269 0.2586
12 2 0 -15.4336 -2.4667
12 2 1 36.1780 -27.4482
12 2 2 91.1689 4.2584
12 2 3 -35.3784 75.6321
12 2 4 -4.7950 56.5965
12 2 5 11.5171 -32.9998
12 2 6 4.8222 44.9373
12 2 7 -17.5797 68.5408
12 2 8 49.3200 -21.6004
12 2 9 16.5160 -33.5071
12 2 10 -5.1247 52.0201
12 2 11 37.2023 -20.3505
12 2 12 52.9922 37.1062
12 2 13 14.1048 -25.2493
12 2 14 -8.9038 -44.5670
12 2 15 31.5939 7.9608
12 2 16 13.9250 -13.2757
12 2 17 54.9426 23.6549
12 2 18 7.5211 47.7349
12 2 19 6.9877 12.4961
12 2 20 6.5502 38.2109
12 2 21 1.0632 41.3758
12 2 22 -37.3127 -58.9135
12 2 23 39.4993 -49.2167
12 2 24 29.7974 28.5210
12 2 25 29.3154 28.6714
12 2 26 9.1299 -0.7046
12 2 27 0.3789 -20.6162
12 2 28 9.0199 25.7150
12 2 29 -6.6723 37.4776
12 2 30 -32.3820 -33.1112
12 2 31 46.6116 26.6213
12 2 32 -26.8924 -42.5200
12 2 33 25.9898 -9.8951
12 2 34 29.3626 52.6932
12 2 35 23.5548 -3.2257
12 2 36 -5.7614 31.4309
12 2 37 -44.3562 -27.7904
12 2 38 8.7245 -24.9898
12 2 39 8.1916 -13.7322
12 2 40 11.3267 3.7937
12 2 41 16.1255 -12.8885
12 2 42 13.9340 5.5711
12 2 43 15.8035 -1.0348
12 2 44 2.8805 6.6155
12 2 45 -12.2485 28.8243
12 2 46 -10.5814 -16.4066
12 2 47 -34.7126 5.4122
12 2 48 21.8349 -10.8052
12 2 49 0.6752 19.6693
12 2 50 -15.6781 25.4102
12 2 51 7.1689 -11.3316
12 2 52 5.2179 10.5111
12 2 53 -10.5964 28.7265
12 2 54 3.2128 21.6705
12 2 55 -9.9460 -2.3684
12 2 56 -8.7670 -6.6637
12 2 57 3.3384 -5.6810
12 2 58 -3.1453 15.1969
12 2 59 0.7321 -1.4736
12 2 60 -12.9369 8.1366
12 2 61 -8.3203 -1.3160
12 2 62 -8.0023 -2.2783
12 2 63 3.3822 8.7444
12 2 64 7.8553 -3.9174
12 2 65 14.2380 -1.0925
12 2 66 -7.0626 -5.9262
12 2 67 3.5901 21.9907
12 4 0 131.4677 -2.4212
12 4 1 34.6032 27.6710
12 4 2 137.3481 -37.8906
12 4 3 -11.0601 -48.9532
12 4 4 -21.6314 -89.4328
12 4 5 -38.6594 -17.2365
12 4 6 74.8847 -145.9079
12 4 7 -0.4279 14.2737
12 4 8 -26.7890 34.4579
12 4 9 -11.4291 18.6148
12 4 10 11.9897 13.7011
12 4 11 26.0117 -25.2334
12 4 12 28.2452 -14.2485
12 4 13 10.4189 3.3548
12 4 14 -23.0816 -22.2682
12 4 15 -33.2901 18.3044
12 4 16 64.6138 2.4100
12 4 17 -44.8430 18.0483
12 4 18 26.4353 -9.2517
12 4 19 2.0036 -2.3460
12 4 20 32.2532 -0.5151
12 4 21 19.6219 0.3080
12 4 22 13.8975 34.8850
12 4 23 -6.7462 -16.6977
12 4 24 30.8178 11.9035
12 4 25 89.8123 -12.9033
12 4 26 23.8723 84.8221
12 4 27 -1.2492 10.3806
12 4 28 -24.2050 -7.3842
12 4 29 60.3356 31.3172
12 4 30 18.1395 -11.7744
12 4 31 30.9984 78.5251
12 4 32 -9.3745 10.7816
12 4 33 24.5837 -2.8768
12 4 34 -8.0740 -22.7975
12 4 35 -4.3021 -6.1619
12 4 36 -1.7287 -1.8007
12 4 37 11.5601 -11.2725
12 4 38 -5.2305 -20.0951
12 4 39 -13.9881 20.8391
12 4 40 32.4425 -27.9839
12 4 41 23.7305 -7.9947
12 4 42 0.6239 -26.2728
12 4 43 30.0794 -11.6670
12 4 44 14.7102 -25.0936
12 4 45 -25.7462 26.1261
12 4 46 -0.0920 -2.6670
12 4 47 -26.9310 29.8474
12 4 48 2.3639 -6.3586
12 4 49 12.1836 19.3050
12 4 50 23.2327 18.6407
12 4 51 32.9563 -20.3523
12 4 52 -8.0020 7.5547
12 4 53 4.7047 4.3486
12 4 54 -27.3287 -1.3329
12 4 55 -0.7785 -10.2430
12 4 56 14.1097 -1.6240
12 4 57 -9.0673 5.3678
12 4 58 2.1517 -3.6201
12 4 59 -11.6030 12.7557
12 4 60 9.7751 -2.4030
12 4 61 8.2277 -4.1369
12 4 62 14.2721 -2.3432
12 6 0 -14.1593 3.7472
12 6 1 -24.5337 32.2946
12 6 2 52.0031 -0.3520
12 6 3 -80.0092 -39.9319
12 6 4 -36.7408 90.9797
12 6 5 37.1732 0.0748
12 6 6 45.3487 -13.2971
12 6 7 31.5142 -82.2383
12 6 8 -9.1189 22.4610
12 6 9 -4.1265 -49.2823
12 6 10 -76.5656 58.5032
12 6 11 -20.0706 -2.3305
12 6 12 4.2013 43.5313
12 6 13 -8.6678 29.4337
12 6 14 49.1130 6.4423
12 6 15 24.0998 9.8585
12 6 16 11.5352 40.0965
12 6 17 -35.3315 -15.3360
12 6 18 34.0091 71.8048
12 6 19 21.2783 42.9875
12 6 20 91.6092 10.0660
12 6 21 13.9520 38.6263
12 6 22 19.3368 50.3420
12 6 23 -23.1667 -35.0625
12 6 24 11.9698 -0.5472
12 6 25 6.2191 -29.0420
12 6 26 -19.2422 60.6427
12 6 27 7.2749 -21.7814
12 6 28 50.8706 -49.4882
12 6 29 -10.4961 4.8001
12 6 30 3.7258 -41.6686
12 6 31 14.1338 -23.0091
12 6 32 23.8142 -33.9849
12 6 33 0.5978 -10.3796
12 6 34 -0.9911 1.8017
12 6 35 -25.0469 -103.9372
12 6 36 0.5786 23.8330
12 6 37 -26.8792 -0.7735
12 6 38 15.7274 0.0234
12 6 39 -26.5376 2.4447
12 6 40 -7.2302 -10.1347
12 6 41 5.7647 -3.6231
12 6 42 -40.2480 11.6106
12 6 43 3.4794 -8.5764
12 6 44 -2.3496 17.5011
12 6 45 -9.5029 15.6628
12 6 46 -15.4471 5.7511
12 6 47 -3.7933 13.1067
12 6 48 -7.5308 -14.6283
12 6 49 -1.4649 5.0298
12 6 50 -11.8792 -26.5658
12 6 51 -3.5820 -20.7027
12 6 52 -7.0334 6.2499
12 6 53 -1.6005 -21.8050
12 6 54 5.8941 -1.1910
12 6 55 -6.2869 4.7030
12 6 56 7.7073 -2.5040
12 6 57 -8.7275 -4.8573
12 6 58 23.1486 -19.3924
12 6 59 13.4540 28.7807
12 6 64 -10.9719 -2.6376
12 6 65 -0.1808 8.6311
12 6 66 -6.6812 -8.9402
12 6 67 10.8882 5.1760
12 6 68 -0.8317 -2.7684
12 8 0 -7.4642 -0.4122
12 8 1 57.9523 -8.4046
12 8 2 27.9620 -28.4878
12 8 3 -31.9720 -58.8211
12 8 4 -5.6474 48.8991
12 8 5 0.2112 26.3868
12 8 6 13.1694 -9.0634
12 8 7 18.4384 -129.1272
12 8 8 -18.3217 9.0955
12 8 9 20.8821 -89.0174
12 8 10 37.2007 -37.7199
12 8 11 -28.7224 75.1263
12 8 12 -44.5055 -44.9858
12 8 13 12.1953 -79.4038
12 8 14 -22.2399 -17.4489
12 8 15 -5.1541 4.7544
12 8 16 -54.6302 -17.5693
12 8 17 76.4903 -4.6496
12 8 18 -0.4228 -40.6390
12 8 19 56.2263 -30.8025
12 8 20 -23.3965 2.6589
12 8 21 -12.0321 30.4040
12 8 22 -65.0989 55.8143
12 8 23 -19.0217 18.8165
12 8 24 -88.8884 35.5541
12 8 25 46.5524 -81.5214
12 8 26 -24.5400 72.7604
12 8 27 -15.4933 -3.8761
12 8 28 -20.4674 56.9929
12 8 29 31.5410 -9.4302
12 8 30 21.8306 -32.5869
12 8 31 -0.8778 32.9874
12 8 32 -23.1402 -27.5622
12 8 33 7.4877 -44.7903
12 8 34 -14.7949 -2.9056
12 8 35 -0.7099 -18.0661
12 8 36 2.9460 -2.3579
12 8 37 -13.3500 -16.1643
12 8 38 31.6416 26.5290
12 8 39 15.2024 -0.9498
12 8 40 -3.4280 20.0547
12 8 41 15.0464 -23.1641
12 8 42 -16.4299 -7.1601
12 8 43 -9.2771 5.9112
12 8 44 12.3336 12.6343
12 8 45 -1.7526 -25.0676
12 8 46 11.3777 -20.8543
12 8 47 2.4287 7.7429
12 8 48 1.5189 -13.8512
12 8 49 10.9895 16.6421
12 8 50 0.5854 -16.9333
12 8 51 -8.8014 -3.7290
12 8 52 2.1021 2.4654
12 8 53 -8.9270 -6.3194
12 8 54 10.7933 1.2413
12 8 55 -20.9456 0.1983
12 8 56 -1.7855 -3.1957
12 8 57 5.6487 4.5772
12 8 58 18.9992 -0.2193
12 8 59 -6.5550 -3.8101
12 8 60 -1.0054 -15.2625
12 8 61 -42.7321 8.7500
12 8 62 -12.7359 5.6011
12 8 63 -8.4941 1.4927
12 8 64 -19.4998 -4.9595
12 8 65 -4.9959 -6.6511
12 8 66 -0.5638 -1.0177
12 8 67 -1.1862 -0.4456
12 8 68 -3.5331 2.3019
12 10 0 10.6107 0.9475
12 10 1 -19.7097 -36.8572
12 10 2 101.7055 60.1042
12 10 3 71.6078 65.0166
12 10 4 23.2351 -8.2647
12 10 5 -21.7078 3.0513
12 10 6 53.8446 27.4609
12 10 7 -26.3287 3.7116
12 10 8 -45.8409 38.3456
12 10 9 -15.9529 -21.8506
12 10 10 2.5466 -58.3472
12 10 11 82.3934 35.9643
12 10 12 -29.4447 1.6811
12 10 13 -14.0696 -1.6770
12 10 14 -3.0404 -83.2307
12 10 15 -24.9385 -18.4690
12 10 16 -33.1765 -71.9095
12 10 17 39.6552 -81.8283
12 10 18 -0.4235 -25.5282
12 10 19 -12.9184 -45.9845
12 10 20 36.8179 -21.7241
12 10 21 -42.1253 -46.3167
12 10 22 -33.7065 -150.3258
12 10 23 9.9387 1.9929
12 10 24 -15.4737 15.0313
12 10 25 61.7483 -9.4200
12 10 26 -11.3466 14.8641
12 10 27 -3.6031 17.0043
12 10 28 17.7277 26.8874
12 10 29 -8.9831 103.5453
12 10 30 -20.3777 -9.5874
12 10 31 33.6737 9.2651
12 10 32 -11.4526 -11.2508
12 10 33 -0.3427 -4.7143
12 10 34 -32.0744 28.4781
12 10 35 11.2226 8.0185
12 10 36 -2.5392 20.5933
12 10 37 9.5782 17.7881
12 10 38 19.5443 -10.5416
12 10 39 10.0117 38.3010
12 10 40 18.5924 1.6898
12 10 41 3.6285 -39.0018
12 10 42 -4.9209 -6.4119
12 10 43 -15.1383 -5.3660
12 10 44 2.0054 -8.0030
12 10 45 9.7343 0.5422
12 10 46 -1.1038 -11.0996
12 10 47 -6.9036 3.4188
12 10 48 -8.5821 6.2655
12 10 49 -0.5165 -2.1711
12 10 50 -0.1637 -3.0296
12 10 51 3.6378 -0.4863
12 10 52 1.8078 7.9279
12 10 53 -0.3989 0.4855
12 10 54 3.5982 -7.4941
12 10 55 -4.0387 0.4702
12 10 56 -22.8354 -6.7021
12 10 57 -0.2529 16.0515
12 10 59 2.6561 -4.3680
12 10 62 -16.9346 -26.0674
12 10 63 -6.0029 -0.1744
12 10 64 2.0131 36.7263
12 10 65 9.4516 15.0451
12 12 0 44.6163 -4.4173
12 12 1 -8.6892 24.3514
12 12 2 -64.7418 -66.7598
12 12 3 13.5824 -31.5963
12 12 4 1.2900 -4.0745
12 12 5 -49.1562 4.2920
12 12 6 13.0467 -35.7088
12 12 7 15.0131 -40.1787
12 12 8 -21.0273 10.1955
12 12 9 -41.9296 -23.3312
12 12 10 -19.8599 -64.0906
12 12 11 11.7257 -45.5621
12 12 12 -18.3434 -29.2761
12 12 13 24.8033 -27.6477
12 12 14 -27.7594 -115.4518
12 12 15 17.6604 -33.6624
12 12 16 -32.6771 13.4222
12 12 17 -11.2424 -77.0958
12 12 18 -23.5011 61.1191
12 12 19 12.9095 -52.5622
12 12 20 -3.8377 -51.1623
12 12 21 -2.2677 -46.3489
12 12 22 -25.2721 56.3596
12 12 23 -7.3042 -35.5302
12 12 24 12.8555 1.4294
12 12 25 -30.3708 -66.6565
12 12 26 8.3784 6.1159
12 12 27 -10.4469 34.8016
12 12 28 -6.9521 9.1354
12 12 29 19.5304 28.2020
12 12 30 -1.6178 -11.0054
12 12 31 -5.5359 -4.6283
12 12 32 -19.1348 8.2255
12 12 33 1.8528 12.3081
12 12 34 -7.8209 -14.3275
12 12 35 -29.8047 21.8707
12 12 36 -12.1815 -4.8589
12 12 37 -32.4011 60.4830
12 12 38 17.6793 27.6913
12 12 39 8.2530 20.3160
12 12 40 -11.4364 18.2459
12 12 41 -8.1937 -4.2221
12 12 42 9.3612 -10.2443
12 12 43 1.3121 10.8583
12 12 44 3.8473 23.6846
12 12 45 -18.4226 18.7506
12 12 46 -7.4975 0.3784
12 12 47 12.7204 6.2925
12 12 48 20.7536 15.1533
12 12 49 12.4562 18.3382
12 12 50 -9.7547 -4.0150
12 12 51 -6.3702 -10.4730
12 12 52 -4.2401 -5.1157
12 12 53 -2.6688 0.0717
12 12 54 -4.5037 0.5879
12 12 55 11.3438 11.2175
12 12 56 -8.5699 6.2758
12 12 57 -13.2801 -10.4959
12 12 58 -7.0932 -7.4425
12 12 59 -10.8322 -3.7969
12 12 60 3.8012 -4.0451
12 12 61 -4.2811 9.7577
12 12 62 -0.9556 12.7024
12 12 63 -10.7557 -2.1158
12 12 64 6.8681 -14.5010
12 12 65 -3.5283 3.0888
12 14 0 42.8934 -0.1732
12 14 1 7.3544 37.7411
12 14 2 19.2239 64.0234
12 14 3 29.7914 25.5340
12 14 4 -31.8328 20.1375
12 14 5 5.1486 -58.3708
12 14 6 -22.5146 -20.0711
12 14 7 23.8459 -34.7290
12 14 8 -12.0105 63.3277
12 14 9 -16.4589 -24.8224
12 14 10 18.4924 55.8577
12 14 11 -51.4456 -8.7742
12 14 12 13.0398 53.8490
12 14 13 -47.2515 26.1517
12 14 14 10.4649 22.5600
12 14 15 -51.4220 -34.2801
12 14 16 24.2690 5.4578
12 14 17 15.7510 19.6511
12 14 18 -4.0281 11.8346
12 14 19 -10.6319 -68.6608
12 14 20 -4.4239 16.0197
12 14 21 10.6314 37.7637
12 14 22 -40.9327 -23.9019
12 14 23 -7.1518 -23.2509
12 14 24 5.3024 22.3432
12 14 25 -3.9581 23.6964
12 14 26 -30.0295 -32.1597
12 14 27 -14.0193 -24.5734
12 14 28 -22.1160 44.3065
12 14 29 6.1668 -15.6066
12 14 30 24.2719 -6.3089
12 14 31 -9.4149 -15.2321
12 14 32 -7.1723 0.7963
12 14 33 -50.3441 4.4153
12 14 34 -2.0879 25.4642
12 14 35 -13.5689 6.6421
12 14 36 -26.6567 -42.6210
12 14 37 -17.8197 -26.0212
12 14 38 25.3786 22.3846
12 14 39 -6.4421 -9.9551
12 14 40 -29.5360 11.2959
12 14 41 2.1696 -18.0306
12 14 42 5.3514 -9.6866
12 14 43 -16.2636 -8.5981
12 14 44 0.5671 2.8171
12 14 45 6.0907 11.7673
12 14 46 -15.3511 -7.2843
12 14 47 14.0833 6.1808
12 14 48 -7.5829 -20.8887
12 14 49 -3.4081 6.2723
12 14 50 2.9685 11.4072
12 14 51 2.0656 -2.9604
12 14 52 -9.6922 -0.0161
12 14 53 -2.6323 3.9783
12 14 54 -2.5173 2.2230
12 14 55 13.3922 -14.5141
12 14 56 -8.6951 -2.8140
12 14 57 7.7100 -6.3366
12 14 58 -14.6140 19.6077
12 14 59 -2.3526 -2.5542
12 14 60 -4.5789 -4.3381
12 14 61 -10.5545 5.5228
12 14 62 2.8552 1.3404
12 14 63 -0.9905 8.9869
12 14 64 -5.1116 2.1603
12 16 0 16.0750 5.7535
12 16 1 -12.6028 81.0752
12 16 2 79.8624 -31.0976
12 16 3 -24.3127 -31.2191
12 16 4 -37.0463 84.1433
12 16 5 -39.4115 -79.6018
12 16 6 -19.1236 6.8289
12 16 7 -1.3992 12.2802
12 16 8 -19.4247 64.1886
12 16 9 42.5916 -52.9155
12 16 10 -23.6483 -18.6298
12 16 11 -16.5853 16.6478
12 16 12 -34.1838 51.2394
12 16 13 -1.5149 51.5797
12 16 14 -61.1408 -0.5020
12 16 15 -5.7449 41.5400
12 16 16 -31.0132 9.4875
12 16 17 23.7655 5.4614
12 16 18 -5.7309 9.7542
12 16 19 -2.2328 -12.4821
12 16 20 -4.2361 23.1612
12 16 21 -6.8999 15.2108
12 16 22 18.7782 -28.7144
12 16 23 -5.5662 0.7220
12 16 24 9.4473 -27.4674
12 16 25 21.4417 -39.5211
12 16 26 -21.8022 -0.4860
12 16 27 9.1481 -7.7074
12 16 28 19.7231 9.7296
12 16 29 7.3775 37.1124
12 16 30 -31.5175 72.1244
12 16 31 -35.2395 -19.6929
12 16 32 -3.6557 12.9765
12 16 33 -7.3209 7.6079
12 16 34 -3.0494 25.5846
12 16 35 16.0485 50.7601
12 16 36 -15.4686 10.1302
12 16 37 26.0228 3.0768
12 16 38 7.8158 -7.8343
12 16 39 -9.4506 -37.2020
12 16 40 9.4827 -1.3837
12 16 41 -14.2458 -20.7410
12 16 42 21.0779 -8.7283
12 16 43 2.8552 19.2164
12 16 44 -7.9614 2.1031
12 16 45 16.1804 1.4172
12 16 46 -7.8454 5.7741
12 16 47 5.0589 -0.4181
12 16 48 -5.4216 -4.5581
12 16 49 9.3253 20.7510
12 16 50 -9.2762 4.7342
12 16 51 1.4481 22.8518
12 16 52 -6.4369 0.1411
12 16 53 20.2844 25.4897
12 16 54 -1.0155 6.1573
12 16 55 -1.0840 -0.8083
12 16 56 -10.8988 -12.1017
12 16 57 6.0623 11.7530
12 16 58 -3.3273 -8.3676
12 16 59 2.3394 8.5885
12 18 0 15.9954 -2.3496
12 18 1 32.7651 -42.5058
12 18 2 -69.1576 -7.6850
12 18 3 -38.2055 69.2103
12 18 4 -10.6283 -25.5208
12 18 5 50.3430 -31.5282
12 18 6 -64.9679 -8.4705
12 18 7 -23.4028 2.6114
12 18 8 6.1890 89.8652
12 18 9 31.0695 -25.4937
12 18 10 20.1765 36.5497
12 18 11 -65.1675 25.5196
12 18 12 -21.9976 -49.2602
12 18 13 19.7394 48.5067
12 18 14 -26.0370 2.7054
12 18 15 -29.6756 -27.7978
12 18 16 32.6778 -34.9727
12 18 17 28.2181 42.3035
12 18 18 -11.4901 2.8414
12 18 19 0.2016 12.3109
12 18 20 -9.8258 -14.8362
12 18 21 20.6424 34.2276
12 18 22 -20.7110 31.4163
12 18 23 7.1684 -48.2405
12 18 24 22.3785 -6.9257
12 18 25 4.2296 28.6133
12 18 26 -2.6355 23.9168
12 18 27 22.9836 -37.8945
12 18 28 2.7627 -13.8253
12 18 29 -40.2520 -11.9343
12 18 30 -33.4274 5.0173
12 18 31 27.1079 -74.7103
12 18 32 -9.8766 17.0178
12 18 33 -3.1421 6.6444
12 18 34 -21.1898 13.6985
12 18 35 -12.2970 -49.5252
12 18 36 -10.6982 -37.0230
12 18 37 5.3345 -14.3224
12 18 38 4.5578 11.2478
12 18 39 -7.2003 -15.7127
12 18 40 -15.1064 -3.5002
12 18 41 2.6558 10.5353
12 18 42 20.1285 -3.0308
12 18 43 -0.1339 3.6979
12 18 44 7.0193 1.2126
12 18 45 8.0739 -7.6732
12 18 46 -5.4283 -6.0794
12 18 47 -6.0829 7.5129
12 18 48 8.7041 1.3419
12 18 49 6.6423 -1.2924
12 18 50 -3.4393 -6.6570
12 18 51 9.4999 4.1817
12 18 52 4.6425 -12.7572
12 18 53 7.8358 6.4827
12 18 54 13.1132 6.5112
12 18 55 -9.4651 -2.7111
12 18 56 -11.7941 -11.2434
12 18 57 9.2170 -0.7260
12 20 0 -33.7725 -0.2080
12 20 1 25.9509 -13.5347
12 20 2 -36.0073 -11.4064
12 20 3 23.3399 15.3512
12 20 4 -22.4860 46.3597
12 20 5 13.3762 29.8419
12 20 6 19.7702 -12.1998
12 20 7 -8.7655 -11.2087
12 20 8 8.0797 5.0251
12 20 9 78.3800 -33.1387
12 20 10 24.9727 60.3691
12 20 11 -34.2711 28.9478
12 20 12 -5.6728 -9.4958
12 20 13 6.9497 -9.0961
12 20 14 -0.4313 44.0706
12 20 15 -67.0739 83.4941
12 20 16 -38.1517 -83.3073
12 20 17 92.8507 15.7543
12 20 18 2.6773 -16.7555
12 20 19 -2.9799 26.4160
12 20 20 -21.6298 21.5274
12 20 21 -11.9782 13.6576
12 20 22 -5.3666 -43.2489
12 20 23 14.0260 49.9997
12 20 24 51.1845 -59.4953
12 20 25 17.3756 11.6116
12 20 26 -3.2957 -18.5458
12 20 27 -23.8230 -36.1414
12 20 28 -11.1504 -15.4700
12 20 29 -2.4244 -3.9422
12 20 30 -8.9085 -24.7661
12 20 31 15.1127 -12.4114
12 20 32 11.2388 -27.6803
12 20 33 -18.6132 -15.2258
12 20 34 -2.8847 9.9505
12 20 35 -22.4018 4.1895
12 20 36 -21.5922 19.7598
12 20 37 -30.0055 -5.1190
12 20 38 -5.7931 -14.5484
12 20 39 6.9163 -1.2457
12 20 40 1.8394 0.0898
12 20 41 33.8067 -6.4745
12 20 42 1.8567 19.6904
12 20 43 -4.6483 0.0209
12 20 44 8.2255 -14.7835
12 20 45 4.0160 1.9408
12 20 46 8.2092 -10.4024
12 20 47 3.6316 -19.9192
12 20 48 24.1576 9.3399
12 20 49 -2.6142 9.0034
12 20 50 -6.4749 5.0690
12 22 0 25.6493 -2.3037
12 22 1 -33.2704 -7.5888
12 22 2 -26.6638 -8.2137
12 22 3 27.4306 -2.6186
12 22 4 -2.1774 -3.7050
12 22 5 1.3565 -10.0595
12 22 6 -7.8135 -13.2831
12 22 7 -25.1892 -57.5291
12 22 8 18.2986 -20.6722
12 22 9 -26.3436 22.6639
12 22 10 22.5960 10.3069
12 22 11 -30.7946 -36.3084
12 22 12 17.2487 -27.2258
12 22 13 20.3776 40.0331
12 22 14 13.2172 -57.5783
12 22 15 -11.8211 45.5715
12 22 16 1.3620 14.2694
12 22 17 -16.4494 -9.0020
12 22 18 -15.6340 32.9025
12 22 19 11.7468 -1.9667
12 22 20 0.3880 -41.3783
12 22 21 11.7169 -4.6328
12 22 22 29.3518 31.0606
12 22 23 32.8414 43.5045
12 22 24 -4.5276 5.7483
12 22 25 -7.0887 -12.5623
12 22 26 18.1749 10.9836
12 22 27 7.4479 -12.5247
12 22 28 6.0020 -19.6842
12 22 29 -0.1393 7.2525
12 22 30 4.0931 20.7444
12 22 31 43.7009 15.6523
12 22 32 17.5717 -1.8574
12 22 33 -3.5731 5.3436
12 22 34 -6.8696 -16.3077
12 22 35 3.2272 16.3177
12 22 36 -20.9964 22.4674
12 22 37 16.7971 4.4868
12 22 38 -14.3545 10.7404
12 22 39 11.1502 3.0676
12 22 40 -1.9580 36.2592
12 22 41 -4.3620 -5.1377
12 22 42 -5.6994 -19.4473
12 22 43 0.5212 10.8639
12 22 44 -4.3793 -0.7480
12 22 45 -5.4406 -8.5521
12 22 46 -3.2431 7.2030
12 22 47 -8.3335 -52.6993
12 22 48 -9.7215 -4.0364
12 22 49 -1.6581 -7.9549
12 22 50 8.9397 -1.5717
12 24 0 1.1758 1.5196
12 24 1 18.3107 83.7487
12 24 2 -52.8354 -32.2286
12 24 3 0.1098 -19.9821
12 24 4 -4.9190 20.2822
12 24 5 -38.3223 -26.4427
12 24 6 0.4415 -22.9101
12 24 7 -16.8904 -6.3064
12 24 8 -60.3241 12.2322
12 24 9 19.1654 -0.0805
12 24 10 -16.8445 -9.8897
12 24 11 -20.5712 22.5347
12 24 12 -31.6134 -31.5106
12 24 13 -14.7725 23.2738
12 24 14 -20.8983 3.8736
12 24 15 -24.6681 -3.2143
12 24 16 5.1156 -16.7047
12 24 17 3.1776 12.5443
12 24 18 18.9686 -34.8022
12 24 19 1.7718 15.0268
12 24 20 -3.0644 30.5327
12 24 21 3.3349 1.4099
12 24 22 7.5011 -2.4645
12 24 23 8.2720 23.7327
12 24 24 -9.1692 -14.4927
12 24 25 1.8117 0.9504
12 24 26 -4.7435 8.1033
12 24 27 19.9897 -34.6504
12 24 28 5.6203 11.7868
12 24 29 -15.2016 2.0022
12 24 30 -2.4531 3.5816
12 24 31 1.6342 9.7335
12 24 32 19.1843 7.7465
12 24 33 0.6195 21.3429
12 24 34 4.9029 -16.0193
12 24 35 16.6714 7.6877
12 24 36 9.8813 3.0840
12 24 37 13.2534 6.2378
12 24 38 -10.7713 -1.6160
12 24 39 11.3800 6.7175
12 24 40 -0.4347 -3.5773
12 24 41 -2.1590 4.3092
12 24 42 -0.4019 -6.3258
12 24 43 4.7006 4.7303
12 24 44 4.1246 6.3848
12 24 45 5.8123 -20.9747
12 24 46 7.5009 -2.3177
12 24 47 -6.9503 2.3732
12 24 48 1.1697 -4.3839
12 24 49 -5.1045 -1.7677
12 24 50 -0.3297 -18.7714
12 26 0 -9.5996 1.0131
12 26 1 0.1160 19.9870
12 26 2 -18.6948 -1.7353
12 26 3 -11.7383 17.5003
12 26 4 27.3238 23.7065
12 26 5 -7.0444 2.4087
12 26 6 -2.5985 2.2023
12 26 7 -21.9616 -11.3784
12 26 8 -27.2810 -3.1040
12 26 9 -2.7588 3.2884
12 26 10 -3.6874 -0.5794
12 26 11 3.6780 33.5477
12 26 12 -7.1536 9.7738
12 26 13 -15.3031 16.2653
12 26 14 -17.8653 -2.2121
12 26 15 -33.0859 -10.0569
12 26 16 -23.1809 37.2656
12 26 17 -2.5269 29.0079
12 26 18 20.2056 -9.6981
12 26 19 32.8466 4.2085
12 26 20 28.7842 -29.5726
12 26 21 -42.8875 26.6255
12 26 22 -3.0838 -0.1267
12 26 23 29.7080 7.0520
12 26 24 0.6183 -22.5724
12 26 25 -11.2942 -0.1941
12 26 26 8.9369 9.7159
12 26 27 5.5930 -15.5880
12 26 28 -16.0042 -20.0838
12 26 29 7.2446 -11.9528
12 26 30 1.2561 14.0739
12 26 31 3.6927 -11.6867
12 26 32 25.3102 3.2555
12 26 33 -3.4140 2.2894
12 26 34 2.3702 1.0497
12 26 35 9.7535 -5.9381
12 26 36 2.2166 2.4720
12 26 37 -4.7614 -4.5868
12 26 38 -10.6451 -19.1906
12 26 39 -12.8021 14.2387
12 26 40 16.4067 -7.0460
12 26 41 1.4250 -12.5073
12 26 42 3.7528 -10.3303
12 26 43 0.4864 -3.7502
12 26 44 10.7338 -1.8212
12 26 45 6.7418 -12.6778
12 28 0 -7.3826 0.2431
12 28 1 33.4693 7.3960
12 28 2 3.1047 -15.3541
12 28 3 8.6938 22.4381
12 28 4 -3.8547 -30.2689
12 28 5 15.0097 28.6041
12 28 6 17.9745 13.4952
12 28 7 0.3645 6.0123
12 28 8 -1.2293 -12.9765
12 28 9 -3.5449 -6.3160
12 28 10 18.7444 -4.7004
12 28 11 -3.7139 -5.7525
12 28 12 11.7524 16.2469
12 28 13 -5.0224 6.1454
12 28 14 16.5779 23.9670
12 28 15 3.2341 1.7299
12 28 16 11.5275 -13.4476
12 28 17 -3.6432 -4.6829
12 28 18 -1.2770 2.9670
12 28 19 4.6674 38.5495
12 28 20 -18.1515 -8.9174
12 28 21 3.2088 -11.0907
12 28 22 2.6782 4.9419
12 28 23 9.7777 5.6426
12 28 24 -0.2630 1.8458
12 28 25 -4.5197 -4.1463
12 28 26 14.7793 16.8416
12 28 27 3.2573 2.8934
12 28 28 -5.7405 -5.1049
12 28 29 -21.6219 4.1472
12 28 30 10.7959 4.5263
12 28 31 3.8215 7.2988
12 28 32 4.2070 0.4287
12 28 33 8.1550 -15.3776
12 28 34 -1.8245 -5.9811
12 28 35 20.1515 0.7848
12 28 36 -2.8414 -15.0083
12 28 37 -1.6998 -0.8849
12 28 38 0.7025 -13.7877
12 28 39 11.9994 -4.0142
12 28 40 -9.9822 -12.9812
12 28 41 -5.8218 -9.1164
12 30 0 4.2686 -0.7831
12 30 1 -3.6737 0.1636
12 30 2 1.9500 -11.7719
12 30 3 14.6007 12.9806
12 30 4 -9.5878 -21.9657
12 30 5 -8.9695 21.0763
12 30 6 6.1258 -8.0360
12 30 7 17.6500 -17.7478
12 30 8 -0.0422 -1.4962
12 30 9 17.3632 0.5518
12 30 10 -8.1062 -14.5031
12 30 11 18.7733 -14.4970
12 30 12 -8.0824 -1.8224
12 30 13 21.5437 -9.9252
12 30 14 -9.3149 5.4233
12 30 15 -3.6431 -6.8491
12 30 16 10.9563 0.1468
12 30 17 12.0089 6.7168
12 30 18 -19.1792 4.2368
12 30 19 -11.9177 -4.8366
12 30 20 -1.9117 9.9966
12 30 21 0.7228 6.9988
12 30 22 2.0478 7.6688
12 30 23 -1.0580 -3.2602
12 30 24 -3.3548 -8.5081
12 30 25 9.1670 -6.4344
12 30 26 -0.4558 9.9520
12 30 27 -1.3757 3.6071
12 30 28 -1.8160 6.2312
12 30 29 -20.3085 -17.6575
12 30 30 13.1941 1.9308
12 30 31 -12.2376 -3.6974
12 30 32 -11.1495 7.2664
12 30 33 -12.4907 -4.7803
12 30 34 -6.1607 0.4804
12 32 0 8.1298 -0.8635
12 32 1 18.7559 -31.0910
12 32 2 -11.9880 -15.3365
12 32 3 9.9583 8.2610
12 32 4 -1.0227 6.4477
12 32 5 25.8510 -6.9765
12 32 6 -5.5202 27.5756
12 32 7 0.9043 1.7546
12 32 8 7.0104 -12.3912
12 32 9 -8.4395 22.5593
12 32 10 -5.7613 -7.8094
12 32 11 11.2659 13.6113
12 32 12 -8.3701 7.4485
12 32 13 -3.9396 4.3218
12 32 14 -6.3080 4.4814
12 32 15 14.1227 6.0038
12 32 16 -7.3736 4.9518
12 32 17 8.4238 -2.1701
12 32 18 2.6042 6.3431
12 32 19 19.6953 10.7567
12 32 20 0.1050 -8.1770
12 32 21 7.0499 -10.6694
12 32 22 -7.7771 -6.1641
12 32 23 15.8856 18.6882
12 32 24 -8.7579 -1.4855
12 32 25 -19.1203 -5.2805
12 32 26 6.5858 -3.2680
12 34 0 -0.5103 0.5986
12 34 1 8.5941 -5.3651
12 34 2 -1.4328 -14.1853
12 34 3 -2.4977 -3.0925
12 34 4 -6.3982 -4.0955
12 34 5 3.5810 2.2020
12 34 6 -8.5324 2.0319
12 34 7 6.9507 13.9118
12 34 8 -7.1999 -2.2903
12 34 9 6.1573 -5.0921
12 34 10 -2.9166 -13.3066
12 34 11 -4.1804 -25.6466
13 1 0 -32.2866 1.5481
13 1 1 -54.5695 161.3295
13 1 2 -37.1272 74.9676
13 1 3 35.6983 9.1165
13 1 4 3.4003 -28.6399
13 1 5 -10.8541 -12.8388
13 1 6 -53.4415 -18.0481
13 1 7 -37.1761 17.1684
13 1 8 -57.7285 43.5098
13 1 9 -30.6937 21.3134
13 1 10 -39.3775 -38.7952
13 1 11 -44.9529 23.1419
13 1 12 53.1268 -0.0984
13 1 13 4.9702 12.1241
13 1 14 46.9810 -17.2826
13 1 15 -16.6912 55.4481
13 1 16 -31.6986 -21.7811
13 1 17 -38.6580 -7.0022
13 1 18 22.2389 6.5977
13 1 19 -9.6069 -26.7340
13 1 20 30.5472 -38.6636
13 1 21 -17.1311 -29.5123
13 1 22 70.1479 -36.8108
13 1 23 -11.8237 -33.1795
13 1 24 9.1307 -41.9546
13 1 25 20.0698 66.9840
13 1 26 -6.4090 15.4205
13 1 27 8.0505 -42.3907
13 1 28 -18.1508 31.7538
13 1 29 -12.5200 -34.3207
13 1 30 -0.9659 -22.1429
13 1 31 22.9411 13.1481
13 1 32 -1.6757 20.2585
13 1 33 3.7517 82.2388
13 1 34 -16.5754 -10.3995
13 1 35 4.8230 23.9886
13 1 36 -26.1434 -0.2107
13 1 37 -1.3989 -10.6057
13 1 38 -11.1206 22.6093
13 1 39 1.8564 11.5994
13 1 40 -17.9001 -21.3763
13 1 41 7.2423 42.5823
13 1 42 -8.2981 -1.8996
13 1 43 -6.2749 4.0682
13 1 44 -8.9915 -15.1912
13 1 45 14.6819 16.1077
13 1 46 -22.7006 28.4586
13 1 47 -8.5706 -9.2529
13 1 48 -31.8660 -37.9601
13 1 49 8.5775 59.7423
13 1 50 6.5227 2.6652
13 1 51 -11.2078 10.3269
13 1 52 5.5546 3.1084
13 1 53 0.9429 -15.2137
13 1 54 6.3809 -5.3633
13 1 55 -4.1920 -15.9267
13 1 56 8.6098 8.3508
13 1 57 19.1909 -2.0073
13 1 58 0.4481 -1.2583
13 1 59 0.2036 -4.2092
13 1 60 -2.8884 5.8586
13 1 61 4.3968 7.8080
13 1 62 -11.9756 3.4757
13 1 63 7.2833 -0.6224
13 3 0 27.5362 -3.1402
13 3 1 2.2817 114.9711
13 3 2 -35.0017 -19.1610
13 3 3 10.7286 38.9385
13 3 4 -21.5117 -35.4334
13 3 5 72.1017 0.2009
13 3 6 0.5198 -8.9954
13 3 7 0.4754 40.0352
13 3 8 24.8584 -18.9768
13 3 9 -22.7837 -7.6787
13 3 10 62.4729 4.0678
13 3 11 4.8604 -48.7457
13 3 12 -57.0363 -11.3428
13 3 13 -11.4929 6.4060
13 3 14 17.1824 23.4979
13 3 15 48.1977 -30.0665
13 3 16 -16.2163 17.0294
13 3 17 -61.3276 12.2020
13 3 18 6.6334 -40.2005
13 3 19 27.2938 -5.6605
13 3 20 -17.8468 -11.1331
13 3 21 10.0114 -4.8539
13 3 22 30.6383 -0.9072
13 3 23 -32.1503 -10.9272
13 3 24 22.0985 -52.6207
13 3 25 12.7458 -12.6888
13 3 26 8.3452 -50.8695
13 3 27 -1.4070 -10.9334
13 3 28 13.9190 63.7931
13 3 29 -8.0612 2.9992
13 3 30 -27.0716 7.2407
13 3 31 -38.6963 -4.2115
13 3 32 21.4043 11.7311
13 3 33 6.8687 13.9751
13 3 34 -9.3824 -29.0952
13 3 35 -2.1808 -6.1992
13 3 36 -16.2663 12.8762
13 3 37 3.8955 -1.3247
13 3 38 7.3531 -9.3890
13 3 39 -9.4670 27.5151
13 3 40 -4.8544 -16.9283
13 3 41 9.5469 -9.1561
13 3 42 6.4362 -27.9230
13 3 43 -1.7672 -49.1992
13 3 44 -28.7976 -22.2103
13 3 45 6.1342 -9.6129
13 3 46 -3.2522 17.2937
13 3 47 16.5122 5.8670
13 3 48 -5.7499 -29.7362
13 3 49 39.4116 -8.7567
13 3 50 -17.5038 -15.8549
13 3 51 16.5547 24.2077
13 3 52 -14.3174 4.0913
13 3 53 -2.0731 4.0788
13 3 54 3.5664 9.3466
13 3 55 -6.7774 -2.5351
13 3 56 3.0464 8.9238
13 3 57 5.3566 7.5437
13 3 58 0.8295 -8.2219
13 3 59 -3.4745 10.5153
13 3 60 10.4432 -3.1935
13 3 61 8.0123 -2.0694
13 3 62 0.5995 -0.4866
13 3 63 13.1622 -7.9513
13 5 0 58.2311 -0.0420
13 5 1 -21.8162 13.4189
13 5 2 9.8755 13.7391
13 5 3 22.5571 48.7906
13 5 4 -20.8592 48.7638
13 5 5 -23.9844 48.4836
13 5 6 26.2712 -25.3141
13 5 7 21.3837 -49.6730
13 5 8 74.6153 -4.8528
13 5 9 17.0652 92.3677
13 5 10 -51.4554 9.7786
13 5 11 41.6738 42.5131
13 5 12 30.9967 35.1982
13 5 13 31.9855 -22.3597
13 5 14 12.6741 -50.4021
13 5 15 22.0928 53.8588
13 5 16 -11.1545 -16.2648
13 5 17 -15.6373 74.8998
13 5 18 15.9159 -41.0397
13 5 19 -9.0608 -18.6486
13 5 20 46.6436 32.4531
13 5 21 17.5389 0.5867
13 5 22 14.7908 -54.3978
13 5 23 22.3479 34.7855
13 5 24 32.3297 2.1394
13 5 25 42.0363 -12.1974
13 5 26 1.7619 -18.9849
13 5 27 3.5968 -27.2091
13 5 28 6.7106 14.7090
13 5 29 -2.5637 19.3298
13 5 30 -16.1519 39.1987
13 5 31 -17.1512 -8.9741
13 5 32 -3.1202 5.9926
13 5 33 28.6650 -0.9046
13 5 34 59.9736 23.5719
13 5 35 17.7095 -33.8416
13 5 36 -17.7438 -8.7764
13 5 37 -13.4837 -32.3497
13 5 38 9.0576 16.4770
13 5 39 12.6267 -1.4959
13 5 40 -10.4112 44.1187
13 5 41 -20.1466 6.0275
13 5 42 -4.1439 35.5605
13 5 43 -6.0900 -9.3483
13 5 44 -3.9452 37.3294
13 5 45 9.4429 27.9314
13 5 46 10.4864 24.0151
13 5 47 -4.5104 11.9229
13 5 48 -16.6006 14.9078
13 5 49 -6.4244 24.1166
13 5 50 -11.8694 -8.1621
13 5 51 7.6026 2.6574
13 5 52 5.4147 0.2007
13 5 53 -26.9779 11.4180
13 5 54 -10.1694 -12.8353
13 5 55 -5.7887 -2.6138
13 5 56 10.0541 -8.3819
13 5 57 -2.9362 14.1524
13 5 58 -14.1785 -8.0333
13 5 59 5.4913 0.7767
13 5 60 14.2750 -1.0177
13 5 61 -3.0763 -0.4208
13 5 62 13.4800 -15.5542
13 5 63 2.1706 -7.8311
13 5 64 9.5424 -10.5999
13 7 0 35.3704 3.6520
13 7 1 38.9499 15.3250
13 7 2 -16.1602 -21.4922
13 7 3 -34.5185 -5.0175
13 7 4 -7.4710 106.9310
13 7 5 -17.5473 43.0628
13 7 6 -49.9095 -61.6257
13 7 7 32.2828 28.5982
13 7 8 -5.5279 24.9385
13 7 9 21.1025 28.6017
13 7 10 22.7246 -14.1857
13 7 11 39.9724 -52.5525
13 7 12 31.1071 31.0567
13 7 13 39.1023 50.8078
13 7 14 -21.2213 45.1967
13 7 15 10.0530 -4.0300
13 7 16 35.2803 43.0927
13 7 17 -38.5986 25.9819
13 7 18 -17.3037 15.7221
13 7 19 3.6250 -49.6604
13 7 20 -20.7325 -0.0568
13 7 21 21.2955 73.7349
13 7 22 22.6997 62.0051
13 7 23 -16.2450 76.9629
13 7 24 28.7888 24.4709
13 7 25 3.1424 -9.0019
13 7 26 -78.4332 -83.9786
13 7 27 -69.1278 -24.0220
13 7 28 -21.9186 16.1150
13 7 29 -2.8191 12.1885
13 7 30 -16.4424 4.1448
13 7 31 23.5844 5.6884
13 7 32 15.6978 26.3209
13 7 33 -1.4369 -28.6524
13 7 34 13.3818 -31.8333
13 7 35 12.5856 -3.5940
13 7 36 17.2478 3.1690
13 7 37 47.8022 0.2159
13 7 38 13.2369 -53.8435
13 7 39 6.4711 -8.1687
13 7 40 22.3652 19.0485
13 7 41 -6.4076 -19.6368
13 7 42 -9.1581 19.0574
13 7 43 -0.5088 1.0913
13 7 44 -14.0482 -3.3186
13 7 45 17.0191 26.8872
13 7 46 -1.7116 6.8358
13 7 47 -4.4407 -19.3888
13 7 48 -2.7668 -15.2627
13 7 49 -12.5489 5.4015
13 7 50 2.2461 17.3440
13 7 51 -3.1754 2.2959
13 7 52 8.5755 1.3316
13 7 53 2.3500 1.2729
13 7 54 15.9975 -7.1541
13 7 55 6.1446 16.3231
13 7 56 0.1344 -14.3922
13 7 57 21.0254 -5.8840
13 7 58 -4.5785 3.6857
13 7 59 9.5447 -4.4617
13 7 60 -4.5939 -2.6464
13 7 61 -12.3765 5.8863
13 7 62 0.0793 -5.3567
13 7 63 -0.3804 -3.3546
13 7 64 11.2665 0.5812
13 7 65 9.6170 -12.0135
13 7 66 -0.5670 -11.0767
13 7 67 19.7545 0.5053
13 9 0 -10.8173 0.3738
13 9 1 17.1404 59.4585
13 9 2 31.3658 13.4090
13 9 3 31.2670 -11.2211
13 9 4 59.7526 -88.4172
13 9 5 24.2368 4.3329
13 9 6 -61.7692 -25.0276
13 9 7 42.8639 25.1101
13 9 8 -53.6414 -38.3430
13 9 9 -66.1350 18.1161
13 9 10 59.9115 -23.1243
13 9 11 2.5209 -38.1517
13 9 12 27.3365 53.6778
13 9 13 44.3254 -18.3874
13 9 14 -2.2427 6.1524
13 9 15 3.4114 6.0245
13 9 16 19.9682 -17.8724
13 9 17 -59.6808 71.0732
13 9 18 -86.6124 49.9099
13 9 19 -4.1511 70.3813
13 9 20 37.6662 -10.4218
13 9 21 1.1294 21.9325
13 9 22 80.4488 65.0561
13 9 23 -4.2722 85.0210
13 9 24 30.3521 46.9825
13 9 25 -74.6201 48.9009
13 9 26 3.2343 -35.4380
13 9 27 22.7700 -109.8300
13 9 28 -0.3048 -40.9145
13 9 29 -66.6282 -24.6674
13 9 30 -16.7824 -14.2335
13 9 31 -23.9863 -39.3691
13 9 32 -14.2269 -4.2369
13 9 33 3.9813 23.9399
13 9 34 -17.5806 -35.2767
13 9 35 0.4840 17.1770
13 9 36 -39.5479 18.6700
13 9 37 4.3714 -1.0723
13 9 38 6.0090 -21.1140
13 9 39 -14.5822 0.3383
13 9 40 -3.4996 35.1362
13 9 41 37.1112 -10.8352
13 9 42 26.9401 18.0927
13 9 43 -7.6427 -4.4293
13 9 44 -3.9677 5.4982
13 9 45 8.6674 9.0381
13 9 46 -20.7986 -18.5749
13 9 47 3.6994 4.2889
13 9 48 8.2848 -16.2057
13 9 49 9.0786 8.6284
13 9 50 -0.8977 -18.7144
13 9 51 3.9107 8.2454
13 9 52 4.4641 16.5099
13 9 53 3.3381 -2.3226
13 9 54 5.4066 -12.5121
13 9 55 -5.5711 6.5059
13 9 56 7.8116 3.2296
13 9 57 4.5565 -2.0518
13 9 58 3.8445 -3.1618
13 9 59 -10.7042 11.2637
13 9 60 2.0572 0.1411
13 9 61 3.8194 7.4222
13 9 62 -3.1725 8.7250
13 9 63 -9.9630 -0.6846
13 9 64 -1.4045 -3.1805
13 9 65 8.9409 2.5184
13 11 0 66.4823 -2.4567
13 11 1 -8.5119 -21.1663
13 11 2 -55.9008 -59.8513
13 11 3 -49.0221 28.8640
13 11 4 123.7890 -59.1096
13 11 5 109.0966 10.4344
13 11 6 -24.7333 -8.0726
13 11 7 52.8434 -7.9061
13 11 8 15.9461 6.7031
13 11 9 -44.9215 -20.0342
13 11 10 8.5912 43.3732
13 11 11 59.7175 17.6645
13 11 12 -62.1383 28.2796
13 11 13 45.3259 -63.7168
13 11 14 -17.0374 29.0417
13 11 15 25.2106 -4.0797
13 11 16 -41.0207 -44.7912
13 11 17 89.9327 -19.1022
13 11 18 -26.9752 1.9139
13 11 19 -47.2048 -24.6335
13 11 20 -4.4920 35.1584
13 11 21 2.3456 19.9539
13 11 22 33.5507 38.7730
13 11 23 16.1637 -38.9339
13 11 24 69.8822 -11.3345
13 11 25 -8.7574 72.4950
13 11 26 -17.1228 11.7576
13 11 27 -17.5123 7.5652
13 11 28 17.0171 -17.4382
13 11 29 9.8349 -58.9798
13 11 30 -15.4984 -21.5364
13 11 31 -13.9372 -18.6161
13 11 32 -31.4147 10.1633
13 11 33 7.9296 -49.9568
13 11 34 -30.0272 18.1626
13 11 35 -5.2181 -4.9281
13 11 36 -3.4756 5.8047
13 11 37 -15.0667 -30.5341
13 11 38 -1.3343 -4.1097
13 11 39 0.6588 7.6147
13 11 40 0.5956 11.8161
13 11 41 -1.9614 13.9159
13 11 42 -5.2410 -9.0752
13 11 43 7.9436 -6.7837
13 11 44 10.7779 -4.4469
13 11 45 9.0526 11.1134
13 11 46 23.1610 34.0568
13 11 47 -10.1189 4.4580
13 11 48 9.2262 -4.5677
13 11 49 12.9880 0.7687
13 11 50 0.7912 4.4332
13 11 51 -7.8637 -2.6713
13 11 52 -2.3558 13.2026
13 11 53 -2.9345 14.0151
13 11 54 10.2770 9.1678
13 11 55 -2.7670 -5.6962
13 11 56 11.1630 3.6366
13 11 57 -16.9453 4.0780
13 11 58 0.6561 -6.3848
13 11 59 9.3079 1.2444
13 11 60 1.6207 -12.0858
13 11 61 3.5855 -1.5607
13 11 62 1.6756 2.6846
13 11 63 -5.9501 -6.4299
13 11 64 -9.4402 7.3535
13 11 65 -1.2529 -15.1890
13 13 0 -13.6202 -4.0793
13 13 1 -56.8001 -29.5476
13 13 2 -77.1130 17.3112
13 13 3 51.0041 -25.9837
13 13 4 8.0839 -57.8626
13 13 5 -5.4442 -45.7733
13 13 6 37.3795 -35.5058
13 13 7 -33.1777 -0.0823
13 13 8 53.5110 -13.1984
13 13 9 -2.3519 -15.4476
13 13 10 0.4593 2.5349
13 13 11 -38.6696 -52.4408
13 13 12 31.1384 30.3022
13 13 13 -21.9020 -42.1657
13 13 14 -2.5155 54.7748
13 13 15 -6.4091 25.9406
13 13 16 -6.5544 2.1314
13 13 17 15.4108 10.1784
13 13 18 -30.8051 63.4846
13 13 19 16.1855 -11.1980
13 13 20 -4.0991 31.9400
13 13 21 5.8106 -25.7387
13 13 22 -4.6026 31.2544
13 13 23 54.0443 -13.5334
13 13 24 5.3687 28.4786
13 13 25 35.2024 24.0859
13 13 26 -35.0083 31.1541
13 13 27 -7.7627 15.3708
13 13 28 40.2893 -45.9325
13 13 29 5.0745 31.5145
13 13 30 21.6890 -2.9104
13 13 31 24.3702 -2.1518
13 13 32 4.2825 2.4012
13 13 33 -31.8280 8.4055
13 13 34 33.5805 -7.4935
13 13 35 25.1720 -7.9841
13 13 36 7.1763 14.9559
13 13 37 -3.7240 7.4054
13 13 38 39.3797 -20.5977
13 13 39 -2.5024 6.5086
13 13 40 -8.9579 -17.3808
13 13 41 1.6010 4.0277
13 13 42 9.8791 -15.5022
13 13 43 28.1293 -2.0252
13 13 44 -20.7690 -28.4455
13 13 45 -3.7153 -10.3162
13 13 46 1.2077 9.6992
13 13 47 8.3840 -3.9616
13 13 48 3.8419 0.7174
13 13 49 5.3885 -2.9417
13 13 50 -12.8902 1.6756
13 13 51 -0.9402 -8.8866
13 13 52 11.8328 3.6500
13 13 53 -2.2433 8.2903
13 13 54 -4.9606 -8.3777
13 13 55 -14.0905 -5.5320
13 13 56 3.9416 3.8893
13 13 57 -6.9687 12.4816
13 13 59 -6.0239 -1.2796
13 13 60 14.6299 -11.7685
13 13 61 13.9376 -4.1924
13 13 62 -9.9586 -5.6043
13 13 63 2.2826 0.5838
13 13 64 -1.7751 10.5935
13 15 0 23.5535 5.1981
13 15 1 46.8431 -67.3544
13 15 2 -120.1520 -12.0461
13 15 3 5.4909 93.8456
13 15 4 -37.0751 132.0810
13 15 5 40.2832 35.3631
13 15 6 -12.2060 14.8584
13 15 7 53.1359 49.0564
13 15 8 -22.0134 44.9992
13 15 9 -55.1191 62.2924
13 15 10 -28.3851 -22.2984
13 15 11 -11.8079 13.0990
13 15 12 6.8878 -23.0677
13 15 13 -9.2711 23.2113
13 15 14 71.1555 3.8663
13 15 15 11.7343 15.9059
13 15 16 4.0671 7.9708
13 15 17 -33.1819 48.6572
13 15 18 -11.8041 7.3186
13 15 19 -63.8452 -32.4495
13 15 20 20.0636 -40.9120
13 15 21 30.6113 20.8367
13 15 22 -53.1097 -13.1797
13 15 23 1.0683 -1.5256
13 15 24 8.8887 27.8880
13 15 25 11.4714 25.8603
13 15 26 19.4808 -2.5871
13 15 27 -45.9197 17.9404
13 15 28 23.8160 -16.2431
13 15 29 -19.6824 -20.7405
13 15 30 46.3104 -2.9016
13 15 31 -0.5902 -18.5854
13 15 32 33.5938 -22.0017
13 15 33 -19.7955 -18.6167
13 15 34 1.8853 11.9977
13 15 35 -15.9752 -5.1491
13 15 36 11.5160 -26.8702
13 15 37 -14.4335 -12.1916
13 15 38 -1.4897 -13.5966
13 15 39 8.6953 -8.0237
13 15 40 -18.6456 24.4343
13 15 41 -16.2941 -1.3423
13 15 42 -10.7582 -7.3550
13 15 43 -2.4792 4.2343
13 15 44 -7.5390 5.5285
13 15 45 1.0242 13.1138
13 15 46 -12.5041 -7.9683
13 15 47 -2.6791 -2.4027
13 15 48 -8.1815 -26.7633
13 15 49 -5.1520 9.4245
13 15 50 1.8048 9.4237
13 15 51 6.8607 1.2227
13 15 52 15.6171 -13.4488
13 15 53 -1.8298 -4.0623
13 15 56 3.6901 -4.8747
13 15 57 9.6301 5.7373
13 15 58 -4.7666 -5.8849
13 15 59 -2.4024 -7.1014
13 17 0 7.1497 1.3940
13 17 1 -5.6521 -43.2873
13 17 2 -40.4581 40.5133
13 17 3 -16.5251 -26.3958
13 17 4 5.5914 32.0692
13 17 5 -10.2493 -27.4639
13 17 6 14.5749 62.9282
13 17 7 -28.0698 23.7134
13 17 8 4.4638 -43.6644
13 17 9 -64.6024 -48.6838
13 17 10 -3.1049 32.1357
13 17 11 -34.3003 11.1011
13 17 12 -23.5970 -46.4612
13 17 13 -26.1789 -18.4652
13 17 14 -14.3352 -7.4326
13 17 15 -18.0612 -1.0055
13 17 16 -14.1553 -27.1474
13 17 17 -27.6765 -31.9869
13 17 18 -14.4851 16.9585
13 17 19 -51.1049 -16.1121
13 17 20 -1.9298 -2.3085
13 17 21 34.9873 -27.2722
13 17 22 -1.4321 -17.6384
13 17 23 5.0830 -21.3136
13 17 24 24.0178 9.6476
13 17 25 4.7573 21.6178
13 17 26 12.9461 -5.6254
13 17 27 -2.3417 -3.9841
13 17 28 20.1048 10.7989
13 17 29 -21.0989 -27.5327
13 17 30 15.9336 9.8384
13 17 31 -10.6832 14.0807
13 17 32 -16.3276 2.6453
13 17 33 44.9700 -9.5001
13 17 34 -10.3046 -28.5226
13 17 35 -4.5569 -2.2319
13 17 36 5.9978 -17.5928
13 17 37 -36.3355 21.8602
13 17 38 6.4423 18.5592
13 17 39 -8.2423 15.2234
13 17 40 -4.3996 -5.4053
13 17 41 -7.0985 -8.6847
13 17 42 13.1622 22.6157
13 17 43 3.1513 -14.6084
13 17 44 3.2834 -5.0984
13 17 45 5.1608 -11.4557
13 17 46 4.7261 -0.1012
13 17 47 6.1092 2.8684
13 17 48 -5.2662 6.0899
13 17 49 -7.4601 -0.6157
13 17 50 6.8644 -6.6231
13 17 51 2.6170 -0.1031
13 17 52 7.6844 -9.3580
13 17 53 6.8834 4.6488
13 17 54 -2.5255 -1.6195
13 17 55 -3.2331 -6.1812
13 17 56 7.0171 -14.1762
13 17 57 -2.7190 -6.6564
13 19 0 -16.2878 -1.1229
13 19 1 51.3875 19.0421
13 19 2 -82.2728 33.8828
13 19 3 9.0052 4.4472
13 19 4 13.3850 22.5351
13 19 5 -30.1092 -2.8640
13 19 6 20.4936 21.9103
13 19 7 12.2029 7.2190
13 19 8 12.4383 -68.0196
13 19 9 35.6901 -5.1476
13 19 10 -6.5176 -25.0102
13 19 11 40.4155 -46.8505
13 19 12 -18.0598 -16.9515
13 19 13 19.7108 -17.4804
13 19 14 -16.5718 -85.7837
13 19 15 21.4597 -36.2941
13 19 16 -5.3396 9.5320
13 19 17 -13.7925 -6.5867
13 19 18 16.0366 -46.9892
13 19 19 -10.2064 28.5503
13 19 20 -63.3552 60.1047
13 19 21 -11.6189 -0.7641
13 19 22 -3.7866 16.9441
13 19 23 -3.7573 7.2875
13 19 24 -10.5906 5.1010
13 19 25 37.2031 -39.2747
13 19 26 -20.1189 8.6200
13 19 27 4.1170 1.6507
13 19 28 -5.8199 42.7705
13 19 29 -6.2181 -0.3763
13 19 30 -32.6599 0.3610
13 19 31 21.8691 -24.2643
13 19 32 -21.1764 -7.5375
13 19 33 -26.2552 -16.1425
13 19 34 16.2474 -16.9983
13 19 35 -3.2030 19.1333
13 19 36 0.8971 4.9843
13 19 37 -29.6770 -1.2958
13 19 38 7.4103 -28.9281
13 19 39 -1.2135 12.5116
13 19 40 -2.8960 11.4464
13 19 41 -11.2922 -7.1239
13 19 42 1.7294 -15.4857
13 19 43 6.1334 -0.0180
13 19 44 -6.3632 -1.2151
13 19 45 14.6987 4.1212
13 19 46 16.1564 -4.9874
13 19 47 -7.1673 6.8265
13 19 48 -12.7268 2.2964
13 19 49 -7.2326 4.8129
13 19 50 2.4703 -0.2591
13 19 51 10.6809 1.3801
13 21 0 31.0277 -2.3098
13 21 1 8.4465 -18.4323
13 21 2 -27.0492 38.8018
13 21 3 22.3650 3.2104
13 21 4 148.4755 -46.8289
13 21 5 -8.1893 22.1578
13 21 6 14.4678 -23.8180
13 21 7 -8.3939 -12.5053
13 21 8 21.2383 0.9667
13 21 9 -30.6536 -5.5621
13 21 10 10.2372 -5.1013
13 21 11 16.8943 7.0688
13 21 12 24.7195 46.1264
13 21 13 -16.5964 49.5823
13 21 14 4.7757 23.7996
13 21 15 33.0291 40.7530
13 21 16 3.1725 -52.8464
13 21 17 -16.9792 11.0685
13 21 18 -20.4130 6.1279
13 21 19 29.5464 3.3434
13 21 20 21.1301 56.2313
13 21 21 -31.8490 30.6982
13 21 22 7.9484 -9.4799
13 21 23 -10.9862 1.9433
13 21 24 14.3546 9.2321
13 21 25 -16.0462 -4.5779
13 21 26 7.9529 15.4693
13 21 27 13.4734 -23.7104
13 21 28 -28.4813 34.8744
13 21 29 -9.4383 6.4716
13 21 30 7.1264 14.3333
13 21 31 -5.6879 -5.8294
13 21 32 16.2789 -3.6508
13 21 33 1.2753 -4.5369
13 21 34 -13.9503 -28.8965
13 21 35 -1.9470 9.7578
13 21 36 16.6718 -6.9674
13 21 37 13.4843 -5.0224
13 21 38 9.9657 -1.1242
13 21 39 3.9155 -29.8232
13 21 40 -2.1982 -0.0045
13 21 41 -2.1454 -10.0499
13 21 42 4.6300 20.8319
13 21 43 8.7809 -14.9002
13 21 44 -0.8924 7.0974
13 21 45 7.4564 -2.5349
13 21 46 6.3121 -3.0372
13 21 47 1.0087 -1.4659
13 21 48 -20.7820 5.6705
13 21 49 17.9531 5.4911
13 23 0 29.6375 -0.6296
13 23 1 6.0037 -2.5147
13 23 2 -42.2121 -31.5401
13 23 3 0.1457 -4.6720
13 23 4 5.5883 23.2162
13 23 5 -9.8234 21.4698
13 23 6 -49.3374 -28.4771
13 23 7 36.8418 -43.9903
13 23 8 46.7390 5.6855
13 23 9 6.5272 36.4748
13 23 10 -13.2520 18.8928
13 23 11 19.9832 0.4523
13 23 12 -10.8823 13.2524
13 23 13 -12.1171 6.6924
13 23 14 -26.8386 -2.8327
13 23 15 0.6919 4.3048
13 23 16 -5.5188 3.0007
13 23 17 2.7262 -10.0005
13 23 18 -39.5720 12.2294
13 23 19 -5.3900 16.3512
13 23 20 -29.7570 -12.7737
13 23 21 10.9030 39.4759
13 23 22 14.7554 -21.7445
13 23 23 -1.0735 21.2549
13 23 24 39.7563 -12.0909
13 23 25 3.6895 11.7792
13 23 26 -0.9750 17.4314
13 23 27 4.0782 31.1567
13 23 28 7.6686 2.2102
13 23 29 -18.1033 -14.5429
13 23 30 -10.0196 4.6461
13 23 31 -17.5987 8.1157
13 23 32 14.2330 4.4283
13 23 33 9.8488 -7.3852
13 23 34 2.4192 -1.9836
13 23 35 -12.9448 -12.6780
13 23 36 -5.4708 4.1329
13 23 37 -12.5423 -21.5243
13 23 38 -14.5292 -2.0777
13 23 39 4.8073 -4.5119
13 23 40 -4.9131 13.3874
13 23 41 11.5957 -7.8602
13 23 42 7.2110 -0.0473
13 23 43 -10.1034 -0.9028
13 23 44 13.9380 -1.8805
13 23 45 -4.0335 0.5092
13 23 46 3.3478 -6.9854
13 23 47 3.1838 5.2346
13 23 48 -5.5567 -14.4957
13 25 0 7.5139 2.8454
13 25 1 -4.2946 -24.2771
13 25 2 32.7441 -4.8376
13 25 3 -31.6080 26.2285
13 25 4 4.6543 -18.9170
13 25 5 2.8529 -31.8103
13 25 6 -58.2650 -10.5420
13 25 7 -31.2451 10.8784
13 25 8 -27.8546 -40.9882
13 25 9 -16.1091 20.5088
13 25 10 24.7708 -6.8199
13 25 11 0.9022 -39.5045
13 25 12 1.9592 8.2443
13 25 13 -30.3664 -10.8146
13 25 14 -21.7173 5.5018
13 25 15 -21.3054 0.6820
13 25 16 -13.9253 -4.6865
13 25 17 -29.1734 -7.3940
13 25 18 6.6162 8.3029
13 25 19 1.2867 13.9241
13 25 20 -0.2461 -17.8430
13 25 21 -27.7030 15.5165
13 25 22 6.7005 6.7674
13 25 23 -1.5881 8.1701
13 25 24 4.2135 20.2538
13 25 25 -19.7895 -4.5218
13 25 26 16.0013 -6.0040
13 25 27 11.1994 -12.7434
13 25 28 -6.6169 12.2340
13 25 29 14.7890 19.1716
13 25 30 -1.4195 -8.5747
13 25 31 1.1862 -7.4124
13 25 32 7.9365 -6.0568
13 25 33 2.2783 -9.0743
13 25 34 28.5660 -9.1298
13 25 35 0.2040 3.1361
13 25 36 5.0490 -4.3707
13 25 37 -8.7816 2.6254
13 25 38 -7.4334 6.8451
13 25 39 0.1468 13.6675
13 25 40 2.4896 -13.2923
13 25 41 -15.7272 10.9238
13 25 42 8.9651 1.2181
13 25 43 -17.3655 2.2283
13 25 44 -1.3124 14.7762
13 25 45 2.0498 3.5149
13 25 46 7.8862 -9.0080
13 27 0 1.8000 -0.3728
13 27 1 -33.1791 9.8893
13 27 2 23.7167 -9.4502
13 27 3 26.2573 -28.7694
13 27 4 -7.3484 27.4599
13 27 5 23.9181 -10.8252
13 27 6 -19.7177 1.2219
13 27 7 -12.3661 -10.6035
13 27 8 -20.0314 12.8894
13 27 9 -15.2334 12.2202
13 27 10 14.9375 7.8026
13 27 11 -13.1382 -34.9032
13 27 12 -2.9636 -8.7396
13 27 13 15.0304 12.0565
13 27 14 -5.9108 36.4182
13 27 15 -0.4531 4.3007
13 27 16 -37.5874 -22.5165
13 27 17 -8.6394 -3.7270
13 27 18 -3.3232 11.6202
13 27 19 -10.7630 -4.7157
13 27 20 -6.1833 36.3734
13 27 21 -8.2445 5.3668
13 27 22 2.0336 -6.4558
13 27 23 -16.9951 -15.5410
13 27 24 -2.5970 6.9810
13 27 25 6.1259 -0.4194
13 27 26 -19.7512 -4.7794
13 27 27 -0.3521 -6.7296
13 27 28 8.0961 8.2371
13 27 29 -5.3832 1.2859
13 27 30 -1.7925 -0.7443
13 27 31 -2.8299 -0.6889
13 27 32 -11.5790 -7.4241
13 27 33 -1.0566 3.6689
13 27 34 -7.7299 8.1460
13 27 35 0.0700 5.7478
13 27 36 8.7198 9.8004
13 27 37 -2.3192 5.5708
13 27 38 -4.4370 2.2113
13 27 39 -10.5081 -0.7544
13 27 40 15.3853 9.8637
13 27 41 -10.6535 -20.3959
13 29 0 -7.8935 0.4098
13 29 1 -10.5056 2.6123
13 29 2 -3.5418 3.8121
13 29 3 9.3694 1.4396
13 29 4 -4.6971 27.7339
13 29 5 39.5919 3.1154
13 29 6 -13.0492 2.7210
13 29 7 -9.6163 -11.6666
13 29 8 1.3682 -19.7590
13 29 9 16.2790 -2.6351
13 29 10 -21.3808 2.2951
13 29 11 25.1567 9.2440
13 29 12 17.4679 -8.2505
13 29 13 17.9445 -18.4189
13 29 14 -16.2289 13.7408
13 29 15 5.6067 11.1314
13 29 16 -2.6043 8.0797
13 29 17 -6.0297 -7.6096
13 29 18 -0.1446 -6.5178
13 29 19 -7.4765 3.4629
13 29 20 -18.8418 -14.0612
13 29 21 0.4630 -1.4202
13 29 22 -6.2081 9.2112
13 29 23 3.1559 -6.3211
13 29 24 -22.5501 -7.2625
13 29 25 9.7723 -7.9539
13 29 26 7.1286 10.0639
13 29 27 -7.4126 6.3797
13 29 28 12.4477 2.5113
13 29 29 -2.2328 -14.2669
13 29 30 4.1910 0.7758
13 29 31 -4.0953 0.5034
13 29 32 -1.9431 4.4172
13 29 33 1.9235 10.9860
13 29 34 12.4798 -21.0969
13 29 35 3.7696 8.2255
13 29 36 -8.0884 0.1991
13 31 0 -1.0695 -1.8694
13 31 1 9.7231 8.5976
13 31 2 12.8973 5.8594
13 31 3 -22.2997 12.1784
13 31 4 3.7481 -1.4107
13 31 5 -5.9552 3.0620
13 31 6 1.0862 1.2499
13 31 7 -0.9745 -9.3608
13 31 8 7.6910 13.7441
13 31 9 0.0682 -19.4950
13 31 10 -5.2664 -4.1320
13 31 11 9.9691 -13.6267
13 31 12 6.3407 13.5602
13 31 13 0.3763 -15.3043
13 31 14 -1.4286 8.3486
13 31 15 15.0199 9.0142
13 31 16 8.6349 5.8712
13 31 17 9.3207 11.7882
13 31 18 4.6962 0.4775
13 31 19 10.0647 16.0028
13 31 20 -3.2335 -5.6883
13 31 21 -9.4535 -6.0218
13 31 22 7.8956 3.7912
13 31 23 -6.8435 -3.4707
13 31 24 -4.5171 -0.0556
13 31 25 4.9381 11.6831
13 31 26 8.5210 -1.5206
13 31 27 10.9325 1.8190
13 31 28 2.8333 7.0280
13 33 0 -1.5950 0.3710
13 33 1 -1.1315 13.0358
13 33 2 -3.5281 -2.3208
13 33 3 4.1356 14.6898
13 33 4 -13.4526 -3.8041
13 33 5 4.5266 6.8648
13 33 6 -2.4311 5.9177
13 33 7 1.0646 -0.5093
13 33 8 -5.6336 15.9853
13 33 9 -3.7387 6.1354
13 33 10 13.5480 5.3412
13 33 11 -2.8460 -1.0069
13 33 12 10.9612 2.5629
13 33 13 6.9538 0.6047
13 33 14 8.5765 3.4452
13 33 15 6.6140 -10.2042
13 33 16 16.4130 -10.2670
14 0 0 -25.0451 0.2581
14 0 1 0.8232 -2.2943
14 0 2 12.9527 0.0480
14 0 3 -0.8716 2.5597
14 0 4 23.4004 0.2931
14 0 5 -1.1095 4.5693
14 0 6 32.2496 0.3796
14 0 7 1.8256 3.7274
14 0 8 29.2922 -0.7717
14 0 9 0.6763 -44.7958
14 0 10 39.6317 -1.1668
14 0 11 -2.1895 -0.9187
14 0 12 25.2354 0.9445
14 0 13 0.2272 -105.5543
14 0 14 -36.6042 2.0831
14 0 15 1.7223 -39.1378
14 0 16 -18.4690 -0.6343
14 0 17 -1.4139 -60.8778
14 0 18 -14.9674 -2.7180
14 0 19 -0.3315 21.1621
14 0 20 -4.1189 0.0448
14 0 21 2.3009 1.5213
14 0 22 6.9244 3.0851
14 0 23 -1.2810 -4.7863
14 0 24 -33.3403 0.3816
14 0 25 -2.5623 -5.1865
14 0 26 10.7028 -2.9151
14 0 27 2.5556 21.3378
14 0 28 2.0744 -0.6295
14 0 29 1.9385 -28.6710
14 0 30 2.0001 2.1324
14 0 31 -2.5383 10.8101
14 0 32 -3.5959 0.3385
14 0 33 -0.9620 4.0573
14 0 34 16.4539 -1.2042
14 0 35 1.4519 -1.7570
14 0 36 12.1329 0.0940
14 0 37 0.1448 -4.8182
14 0 38 -3.1380 0.5355
14 0 39 -0.2328 1.6914
14 0 40 1.4483 -0.4084
14 0 41 0.2210 -5.9934
14 0 42 -11.4600 -0.0365
14 0 43 -0.6122 -13.6099
14 0 44 5.2199 0.6333
14 0 45 -0.2120 13.2048
14 0 46 0.5945 -0.1939
14 0 47 0.9916 17.7788
14 0 48 0.7745 -0.6536
14 0 49 -0.0558 15.5349
14 0 50 -17.5357 0.1778
14 0 51 -0.7958 17.3938
14 0 52 -14.0809 0.5177
14 0 53 0.2516 -21.3650
14 0 54 13.5972 -0.1391
14 0 55 0.4671 5.3674
14 0 56 -7.3398 -0.2918
14 0 57 -0.2741 -18.9876
14 0 58 -8.2241 0.0816
14 0 59 -0.1562 -4.7964
14 2 0 32.4730 1.2496
14 2 1 42.6899 -100.5197
14 2 2 -0.7466 14.3515
14 2 3 -34.9789 -14.9628
14 2 4 -21.2732 42.9173
14 2 5 38.0498 100.8824
14 2 6 34.4920 26.2489
14 2 7 52.1498 -54.5093
14 2 8 92.2767 -25.4284
14 2 9 48.5280 -57.9931
14 2 10 -4.8373 -30.2441
14 2 11 -21.7004 -29.8875
14 2 12 62.4490 -76.6739
14 2 13 60.8799 50.6133
14 2 14 -50.3299 47.2897
14 2 15 -4.3383 -67.4474
14 2 16 -6.8403 17.0690
14 2 17 -5.3393 -56.6506
14 2 18 23.5757 -7.8063
14 2 19 17.6059 62.1300
14 2 20 -45.7706 30.2258
14 2 21 -14.7096 54.1305
14 2 22 27.2695 19.5872
14 2 23 5.5561 9.8590
14 2 24 -55.2257 39.5740
14 2 25 -4.9640 -2.2630
14 2 26 24.6396 16.2350
14 2 27 -15.4866 4.4785
14 2 28 -9.4348 29.5145
14 2 29 5.9610 -21.6997
14 2 30 -38.7805 9.4897
14 2 31 28.9979 -22.6367
14 2 32 7.7383 7.8101
14 2 33 12.1575 -29.2760
14 2 34 7.7996 6.6653
14 2 35 -12.7566 -18.1838
14 2 36 -3.0229 -1.9923
14 2 37 0.5166 7.8791
14 2 38 6.5926 -3.6113
14 2 39 -2.9487 -5.0950
14 2 40 -9.4919 -1.9667
14 2 41 9.5976 2.9427
14 2 42 -3.3340 -14.1523
14 2 43 -2.1220 16.1940
14 2 44 -20.1818 19.4585
14 2 45 28.3226 -1.4864
14 2 46 15.9040 16.5405
14 2 47 1.9096 -9.6565
14 2 48 8.9557 8.2389
14 2 49 -8.0729 8.5952
14 2 50 -20.8573 8.0006
14 2 51 -7.4442 -17.6762
14 2 52 4.0474 21.9882
14 2 53 0.4819 12.6192
14 2 54 2.9162 -3.1813
14 2 55 10.8147 -10.0748
14 2 56 0.0190 -4.3226
14 2 57 -17.1904 -0.7352
14 2 58 -5.9664 3.1788
14 2 59 -8.0127 8.2096
14 2 60 -4.9612 -2.9596
14 2 61 2.4758 12.8306
14 4 0 -63.6759 -3.6474
14 4 1 9.9196 -130.9910
14 4 2 16.0643 -37.8960
14 4 3 24.4377 -62.1611
14 4 4 -21.4853 -20.8906
14 4 5 135.4651 -38.6430
14 4 6 -48.2281 -7.6923
14 4 7 -19.7805 -34.1540
14 4 8 149.9813 108.4615
14 4 9 -48.4507 -47.4565
14 4 10 31.9593 37.9579
14 4 11 35.2409 -6.7249
14 4 12 -27.5894 -0.4036
14 4 13 4.2807 8.3363
14 4 14 -51.5489 68.5379
14 4 15 -64.3070 59.2106
14 4 16 -55.9311 10.7430
14 4 17 38.6566 2.5576
14 4 18 -49.9562 -30.0470
14 4 19 16.4368 -38.5339
14 4 20 6.4002 -10.0121
14 4 21 7.6347 -19.4109
14 4 22 -7.3723 -23.6250
14 4 23 7.7142 47.2209
14 4 24 -15.3430 8.5908
14 4 25 -2.0342 10.8333
14 4 26 32.1059 -50.2420
14 4 27 1.5571 -5.8490
14 4 28 2.2121 -27.1736
14 4 29 -5.6446 -19.0654
14 4 30 4.0684 -34.4341
14 4 31 58.2534 28.3913
14 4 32 7.5685 -19.8910
14 4 33 -7.0573 -10.8438
14 4 34 18.3849 11.2530
14 4 35 -9.6443 -23.2188
14 4 36 3.8328 -4.7804
14 4 37 8.0177 -1.5290
14 4 38 0.6606 2.0842
14 4 39 -0.9067 0.7512
14 4 40 -26.0988 -28.0169
14 4 41 -23.0041 5.8139
14 4 42 7.2149 -23.8956
14 4 43 -11.9223 3.1687
14 4 44 0.7553 -13.5271
14 4 45 1.0717 3.4832
14 4 46 7.8915 12.2989
14 4 47 -8.1846 -15.5712
14 4 48 -9.3889 4.9017
14 4 49 9.1531 1.4557
14 4 50 5.3058 14.6687
14 4 51 7.2898 -1.8104
14 4 52 5.9554 0.3604
14 4 53 -14.3417 -8.9091
14 4 54 -8.2964 6.7884
14 4 55 0.3148 -0.8831
14 4 56 9.1774 -9.9275
14 4 57 6.4176 1.8210
14 4 58 2.3527 -1.6121
14 4 59 7.8675 -6.7441
14 6 0 46.6917 0.0076
14 6 1 9.7451 -9.6540
14 6 2 4.0755 79.2246
14 6 3 77.4502 54.0837
14 6 4 -38.2465 -21.2912
14 6 5 64.8285 0.6301
14 6 6 71.8920 -40.5709
14 6 7 -23.9785 -41.5681
14 6 8 15.3210 -2.3601
14 6 9 -38.3789 61.1616
14 6 10 -11.8690 -19.9060
14 6 11 -31.9920 -46.2011
14 6 12 -27.5290 7.3945
14 6 13 -37.0965 48.8415
14 6 14 17.9039 -56.3787
14 6 15 10.1264 -37.6822
14 6 16 5.5455 -39.4901
14 6 17 6.4589 -13.3123
14 6 18 0.4137 31.2373
14 6 19 -32.1492 4.6502
14 6 20 -22.0022 -29.1317
14 6 21 39.5560 -21.6588
14 6 22 -0.5436 -16.2656
14 6 23 12.0893 15.2738
14 6 24 -47.1819 -25.6078
14 6 25 -21.5275 -19.3662
14 6 26 -10.6492 29.9220
14 6 27 -6.8143 -14.7917
14 6 28 -8.8040 15.4551
14 6 29 1.6051 26.9893
14 6 30 -5.4789 -42.2369
14 6 31 -32.9534 -33.6011
14 6 32 -5.0396 -11.2246
14 6 33 7.8225 8.8116
14 6 34 -12.6237 -17.9988
14 6 35 7.0135 3.0910
14 6 36 35.7563 10.9141
14 6 37 27.4539 22.1110
14 6 38 -1.9557 -51.5782
14 6 39 -16.7072 -1.7099
14 6 40 1.8276 -16.8354
14 6 41 -1.3150 -0.5997
14 6 42 -2.8144 19.9181
14 6 43 0.3044 16.3869
14 6 44 4.0842 6.2775
14 6 45 1.7686 -48.0655
14 6 46 -1.4421 23.7958
14 6 47 3.1361 -9.3418
14 6 48 -36.0456 8.8374
14 6 49 -6.9797 -10.9273
14 6 50 -14.8355 -0.6794
14 6 51 -4.4827 0.6418
14 6 52 -5.8113 -7.1351
14 6 53 9.5652 1.3933
14 6 54 -4.8364 -0.7497
14 6 55 2.4387 -5.2038
14 6 56 -12.6915 0.2083
14 6 57 -7.4023 -1.7226
14 6 58 3.3678 -7.0991
14 6 59 0.1926 -5.4129
14 6 62 3.5406 -15.7802
14 6 63 -6.1868 -1.0149
14 6 64 3.5144 -14.0233
14 6 65 -15.5967 6.5635
14 6 66 9.4477 1.0930
14 6 67 4.3235 0.0130
14 8 0 11.2615 4.3333
14 8 1 8.7613 -8.5880
14 8 2 -30.1430 33.3040
14 8 3 58.5125 37.1122
14 8 4 -27.8083 111.4844
14 8 5 25.8604 -0.0093
14 8 6 -44.5755 -38.7086
14 8 7 64.8679 19.9972
14 8 8 -11.6715 49.7784
14 8 9 -17.6185 -21.4726
14 8 10 -68.8499 -7.0766
14 8 11 28.9024 -19.9715
14 8 12 22.8902 -44.8683
14 8 13 -7.3058 -66.4181
14 8 14 54.1279 5.1344
14 8 15 61.1433 -89.0646
14 8 16 27.3909 5.2647
14 8 17 6.7100 1.3200
14 8 18 13.4858 -10.5279
14 8 19 13.5820 19.3139
14 8 20 -6.6608 -9.0399
14 8 21 38.7483 35.3615
14 8 22 -15.6974 -20.6197
14 8 23 -8.8249 -12.0039
14 8 24 -13.7598 20.0729
14 8 25 26.5996 35.5421
14 8 26 4.4374 -13.3253
14 8 27 36.6374 39.4178
14 8 28 35.4527 -30.0810
14 8 29 14.1558 -2.6326
14 8 30 20.9976 -7.0654
14 8 31 -4.1599 -25.7623
14 8 32 40.4488 -2.7874
14 8 33 -8.5685 -6.5820
14 8 34 -7.1083 -3.7527
14 8 35 1.7459 -8.9634
14 8 36 25.6638 -4.6012
14 8 37 -42.1413 -11.9670
14 8 38 6.2343 51.0626
14 8 39 -2.2902 12.2006
14 8 40 -21.2011 28.2908
14 8 41 -14.1086 -10.8994
14 8 42 -11.6186 1.5535
14 8 43 -1.9055 2.3740
14 8 44 -9.0717 13.9975
14 8 45 -2.2805 -0.1368
14 8 46 1.2253 4.4114
14 8 47 -22.6024 0.4442
14 8 48 -15.7315 19.4492
14 8 49 19.0090 -0.2342
14 8 50 6.1352 4.4029
14 8 51 -10.2107 -3.8863
14 8 52 3.5022 7.2691
14 8 53 -9.6109 3.8404
14 8 54 -15.4293 9.4901
14 8 55 18.2828 -6.5304
14 8 56 2.2927 1.5697
14 8 57 -18.5695 5.3133
14 8 58 5.2573 -3.8493
14 8 59 -15.0420 8.0225
14 8 60 -1.3018 -4.9691
14 8 61 3.9054 14.6676
14 8 62 2.7668 3.7875
14 8 63 -30.0701 24.8034
14 8 64 1.7321 -2.9224
14 8 65 0.5610 4.0457
14 8 66 15.2402 -6.8334
14 10 0 -14.6384 -1.6606
14 10 1 -8.1922 -60.8369
14 10 2 -5.2116 -2.4071
14 10 3 -8.1879 -1.9194
14 10 4 -26.2613 36.4282
14 10 5 39.3882 24.4044
14 10 6 -22.3646 -34.4675
14 10 7 -45.3921 1.1765
14 10 8 -69.3076 26.1551
14 10 9 6.0779 4.2690
14 10 10 8.6690 15.2267
14 10 11 6.2857 -63.6815
14 10 12 -27.6305 22.2928
14 10 13 -9.2941 -3.7130
14 10 14 -19.5096 11.5870
14 10 15 48.2483 21.3340
14 10 16 7.7062 -3.3821
14 10 17 -67.6288 -23.2145
14 10 18 -47.0203 18.6798
14 10 19 57.9413 6.9173
14 10 20 -4.1583 -31.9929
14 10 21 -1.5726 -28.0749
14 10 22 2.7478 -17.2378
14 10 23 -43.8581 -1.2645
14 10 24 -14.1790 7.3315
14 10 25 -61.4632 -37.7194
14 10 26 12.9981 -70.6408
14 10 27 10.1584 16.8965
14 10 28 14.9797 -19.2195
14 10 29 5.2927 -1.2354
14 10 30 3.0727 -6.7968
14 10 31 5.8138 17.7344
14 10 32 -23.7105 16.8506
14 10 33 27.8897 13.6791
14 10 34 23.5866 -20.8707
14 10 35 8.3422 -11.2954
14 10 36 6.8875 -16.7688
14 10 37 -30.2792 -16.7868
14 10 38 -19.5415 6.4724
14 10 39 -19.4692 -11.1030
14 10 40 11.1211 -13.5028
14 10 41 -14.1187 1.9692
14 10 42 -10.9093 -11.5997
14 10 43 -12.0887 -11.7300
14 10 44 3.8197 -0.7512
14 10 45 6.7369 13.2087
14 10 46 2.0058 10.0731
14 10 47 -14.1471 -1.9785
14 10 48 8.5652 9.5232
14 10 49 -2.6919 7.9742
14 10 50 8.5162 -3.3774
14 10 51 9.9940 21.1567
14 10 52 3.9733 6.3528
14 10 53 10.2208 -2.4927
14 10 54 -14.8991 8.4390
14 10 55 -7.7976 -6.2311
14 10 56 7.9736 -10.1998
14 10 61 -5.7585 -3.9245
14 10 62 8.6893 2.7768
14 10 63 -5.1227 0.5189
14 10 64 2.7456 -8.6364
14 10 65 6.7517 3.6983
14 12 0 26.3205 -2.7084
14 12 1 -36.0235 -3.9066
14 12 2 47.9459 -29.1227
14 12 3 -5.9155 -47.9931
14 12 4 6.4066 17.1496
14 12 5 -59.5037 67.2557
14 12 6 10.1545 5.2007
14 12 7 -9.0531 8.2855
14 12 8 22.3639 10.0382
14 12 9 -8.5719 0.8465
14 12 10 -13.2360 42.6822
14 12 11 46.0436 -55.1678
14 12 12 -42.2884 8.7074
14 12 13 -23.1760 4.6502
14 12 14 -39.0382 50.2373
14 12 15 -24.5754 -16.5562
14 12 16 -50.4624 -7.1503
14 12 17 2.9302 -16.4821
14 12 18 -37.7821 24.5027
14 12 19 33.5589 -10.2305
14 12 20 -29.3222 11.0799
14 12 21 19.1415 -5.4446
14 12 22 5.3788 -21.8856
14 12 23 -6.2338 2.7465
14 12 24 25.0493 20.9707
14 12 25 -39.8088 13.8610
14 12 26 -18.6003 -34.4042
14 12 27 -2.4549 2.2789
14 12 28 21.2162 -42.2607
14 12 29 7.4128 -6.9066
14 12 30 -12.8223 -35.1371
14 12 31 8.8179 7.9579
14 12 32 -11.8192 7.2772
14 12 33 -2.4136 22.7903
14 12 34 48.1421 15.9073
14 12 35 -5.5931 2.6958
14 12 36 -13.2788 -0.6094
14 12 37 11.8644 -16.8442
14 12 38 -5.7931 -1.2365
14 12 39 -4.5289 -10.1132
14 12 40 -4.1692 -0.8620
14 12 41 -13.8929 25.2020
14 12 42 -16.8183 0.5659
14 12 43 -0.5162 -4.2777
14 12 44 4.4385 15.3568
14 12 45 13.6923 -14.6766
14 12 46 4.5690 13.7840
14 12 47 8.8729 -0.4424
14 12 48 14.0920 12.9996
14 12 49 -9.7824 -0.8428
14 12 50 3.4032 -8.5100
14 12 51 5.2207 1.3423
14 12 52 1.3587 -11.1356
14 12 53 26.2229 15.4622
14 12 54 -5.2664 0.4892
14 12 55 3.0681 2.3927
14 12 56 -14.5365 -14.9750
14 12 57 3.6962 18.2567
14 12 58 0.2059 12.5324
14 14 0 -17.0321 0.9999
14 14 1 -29.4667 -24.6052
14 14 2 -77.3327 -15.6305
14 14 3 -13.8098 3.7576
14 14 4 22.4619 -47.8559
14 14 5 -78.3605 -6.5525
14 14 6 1.1419 -5.2777
14 14 7 -13.6680 -43.6793
14 14 8 7.7665 -26.3993
14 14 9 -57.2154 -12.0548
14 14 10 11.4614 -8.1955
14 14 11 66.2963 -31.3444
14 14 12 -9.4341 77.1165
14 14 13 -30.9946 15.1263
14 14 14 -10.6290 -1.2800
14 14 15 30.0268 -35.7392
14 14 16 -25.8900 -12.8736
14 14 17 39.4415 -6.5383
14 14 18 -16.8524 29.9156
14 14 19 -2.9656 -27.3859
14 14 20 -35.9300 7.5136
14 14 21 -42.7856 -6.6791
14 14 22 20.8844 -13.3267
14 14 23 3.9517 -4.7298
14 14 24 4.9573 10.9953
14 14 25 -15.6495 19.5279
14 14 26 -2.2695 -1.4840
14 14 27 5.7642 5.1016
14 14 28 -24.8177 22.4467
14 14 29 26.4430 -8.5347
14 14 30 13.1443 -7.8889
14 14 31 22.6445 60.6800
14 14 32 24.9914 9.0440
14 14 33 25.9821 21.9950
14 14 34 6.2182 3.9337
14 14 35 -8.6455 14.6730
14 14 36 -1.9738 5.3929
14 14 37 11.7333 -7.5060
14 14 38 -11.0424 -11.0323
14 14 39 4.6416 13.4509
14 14 40 -6.9469 12.4498
14 14 41 13.4661 14.5784
14 14 42 11.2550 1.2396
14 14 43 -9.3705 12.8584
14 14 44 -3.2136 2.3911
14 14 45 1.0431 -1.2489
14 14 46 15.3240 -6.4824
14 14 47 -15.2349 6.3430
14 14 48 -2.5755 -0.2606
14 14 49 -6.5137 -1.3214
14 14 50 -1.3703 9.7753
14 14 51 3.6482 -2.7436
14 14 52 -10.8365 -50.3045
14 14 53 -5.7576 -2.2706
14 14 57 8.6559 15.5375
14 14 58 12.5673 9.2499
14 14 59 0.8296 -3.5544
14 14 60 8.5025 -19.4589
14 14 61 -6.9817 6.2457
14 16 0 -52.6043 1.7806
14 16 1 34.9595 2.1637
14 16 2 -11.5705 -18.1601
14 16 3 3.1380 -3.4548
14 16 4 -29.5710 -0.4545
14 16 5 -83.0416 -82.7379
14 16 6 3.5601 -33.9066
14 16 7 -18.8867 58.2664
14 16 8 1.7641 7.5738
14 16 9 -30.5384 7.6229
14 16 10 17.8204 -7.2476
14 16 11 -30.8979 25.4858
14 16 12 90.0964 11.8103
14 16 13 -36.3223 -2.8332
14 16 14 -0.9205 -31.1768
14 16 15 7.6061 2.7177
14 16 16 19.7117 30.3064
14 16 17 22.3292 -29.5953
14 16 18 -8.2127 -10.1448
14 16 19 -12.7639 -23.5383
14 16 20 12.7919 27.6663
14 16 21 13.6098 42.3620
14 16 22 3.8069 -53.4190
14 16 23 -45.7767 13.6050
14 16 24 3.3575 -14.3947
14 16 25 11.5451 34.7169
14 16 26 13.3878 -27.4241
14 16 27 10.1542 -8.1028
14 16 28 -22.8291 -43.8006
14 16 29 -23.5460 35.5951
14 16 30 -11.5690 34.8777
14 16 31 14.7675 0.6962
14 16 32 20.9606 -7.3178
14 16 33 1.4708 2.5860
14 16 34 3.1416 -3.2107
14 16 35 3.4565 -17.2307
14 16 36 -10.2755 -5.8620
14 16 37 4.9430 8.8901
14 16 38 -1.3728 -0.9516
14 16 39 15.3007 -4.0896
14 16 40 -4.1372 -2.4818
14 16 41 22.9018 17.9225
14 16 42 12.8079 11.3789
14 16 43 29.3200 11.7926
14 16 44 -2.0083 -13.3119
14 16 45 -3.2679 0.6688
14 16 46 3.9789 -6.1340
14 16 47 -9.9033 4.7129
14 16 48 -3.6681 2.2548
14 16 49 7.8972 -3.4139
14 16 50 -13.7230 -15.7450
14 16 51 -3.9963 -4.6612
14 16 52 -12.6032 9.7474
14 16 53 -1.8236 -13.7575
14 16 55 -4.2414 17.2973
14 16 56 -0.2619 2.9054
14 16 57 6.7114 -1.6568
14 18 0 7.4798 -0.0499
14 18 1 29.2189 -7.4808
14 18 2 -1.5850 -1.8843
14 18 3 -19.0082 -6.0902
14 18 4 71.6425 -45.1325
14 18 5 41.7603 -13.3839
14 18 6 1.2242 9.1709
14 18 7 10.6527 48.5356
14 18 8 -21.0364 -6.1477
14 18 9 12.4156 18.6944
14 18 10 -7.7584 5.9275
14 18 11 -28.9643 11.2800
14 18 12 21.4640 66.5526
14 18 13 -40.0560 31.3324
14 18 14 25.5094 15.9490
14 18 15 -4.3280 -36.5871
14 18 16 -54.8011 24.5831
14 18 17 27.8087 -27.5644
14 18 18 -31.7140 30.1992
14 18 19 -21.4871 -36.1291
14 18 20 2.8891 -39.1622
14 18 21 -45.2522 68.9370
14 18 22 -32.5197 23.3236
14 18 23 -3.8071 7.5124
14 18 24 -34.9568 -21.7940
14 18 25 -69.6359 19.0626
14 18 26 -17.4715 4.0637
14 18 27 -18.4220 -15.4539
14 18 28 -0.6430 17.4794
14 18 29 -27.7085 -1.7886
14 18 30 -23.9200 28.4312
14 18 31 -10.4681 -9.5937
14 18 32 -24.3825 23.1485
14 18 33 7.4481 7.5312
14 18 34 18.2426 31.8386
14 18 35 -24.2086 -22.6431
14 18 36 1.0540 12.4766
14 18 37 13.7847 0.6481
14 18 38 0.3880 -19.6816
14 18 39 5.3263 9.5074
14 18 40 14.1036 -18.0904
14 18 41 19.8672 15.3417
14 18 42 -7.3546 -26.2781
14 18 43 1.0881 9.9150
14 18 44 -11.7430 -21.8342
14 18 45 -6.5676 -3.0816
14 18 46 -12.5573 6.8181
14 18 47 -1.9192 -5.3089
14 18 48 5.2799 -6.5072
14 18 49 2.8848 6.6357
14 18 50 -5.9266 0.0560
14 18 51 8.2893 12.4124
14 18 52 5.4998 10.2547
14 18 53 5.6155 0.8203
14 18 54 -10.6727 14.3475
14 18 55 3.6299 8.1617
14 20 0 4.6096 -1.1162
14 20 1 28.7530 3.8989
14 20 2 48.4380 10.7324
14 20 3 28.8277 -21.5363
14 20 4 23.9934 -59.6433
14 20 5 42.6954 -16.8786
14 20 6 -58.1137 -7.8892
14 20 7 -1.3770 2.5353
14 20 8 48.5789 -55.4358
14 20 9 26.5703 -42.1766
14 20 10 15.6728 -7.6684
14 20 11 -16.1194 -27.8262
14 20 12 32.6293 8.0555
14 20 13 33.5867 -31.3257
14 20 14 -1.1130 32.4466
14 20 15 18.5059 18.3533
14 20 16 3.4946 42.9632
14 20 17 35.4640 -30.3763
14 20 18 -7.8351 -16.0285
14 20 19 40.8981 22.9431
14 20 20 41.7660 22.6755
14 20 21 30.3295 -14.6653
14 20 22 1.3632 -20.6230
14 20 23 -36.4285 -27.2840
14 20 24 -27.5608 22.9019
14 20 25 -39.1115 3.6422
14 20 26 -4.1620 -16.0632
14 20 27 6.1340 -14.3869
14 20 28 23.2114 -27.2262
14 20 29 20.3104 4.0460
14 20 30 23.3262 -7.8519
14 20 31 8.6727 -21.7995
14 20 32 18.7576 -28.1735
14 20 33 12.5843 9.3332
14 20 34 15.1137 14.6540
14 20 35 8.4118 -15.4992
14 20 36 12.1122 -8.6774
14 20 37 19.5114 5.0010
14 20 38 0.5393 11.4746
14 20 39 -3.1287 -13.3096
14 20 40 -4.5815 -8.1294
14 20 41 3.7383 6.5428
14 20 42 9.0239 10.1375
14 20 43 -1.9715 -4.2239
14 20 44 -13.3912 -0.6148
14 20 45 -9.2751 -10.8745
14 20 46 2.0282 11.3609
14 20 47 8.4204 -7.5200
14 20 48 4.8477 7.5781
14 20 49 -1.3826 1.3046
14 20 50 2.7072 -1.5031
14 22 0 53.2732 -1.2458
14 22 1 -28.6011 -33.0491
14 22 2 -25.0493 46.8550
14 22 3 -34.9159 43.6363
14 22 4 -25.6243 -7.3595
14 22 5 20.6010 51.4061
14 22 6 -28.8207 59.1384
14 22 7 -38.7083 41.0263
14 22 8 -21.0790 -10.1420
14 22 9 -33.1304 27.4751
14 22 10 -16.4545 56.0413
14 22 11 16.2197 -53.4322
14 22 12 44.4791 -51.8443
14 22 13 -2.3107 16.4190
14 22 14 -8.3120 -33.7589
14 22 15 26.3589 -3.0796
14 22 16 -36.3614 25.3123
14 22 17 27.8623 -2.3605
14 22 18 4.9837 4.3321
14 22 19 -29.7767 -7.4434
14 22 20 6.8239 -27.9073
14 22 21 29.0174 -23.3724
14 22 22 -15.5360 9.4212
14 22 23 22.1089 -4.3595
14 22 24 -11.4858 4.8590
14 22 25 3.0992 -9.2834
14 22 26 10.8135 -6.2728
14 22 27 32.5034 -9.5078
14 22 28 17.0608 -9.6624
14 22 29 17.8480 -21.3856
14 22 30 20.2240 -26.7618
14 22 31 -0.7202 -5.0605
14 22 32 8.1494 1.5607
14 22 33 13.9129 -10.9110
14 22 34 9.5331 0.8682
14 22 35 -6.9598 1.9396
14 22 36 -19.2774 12.2078
14 22 37 3.0854 9.6894
14 22 38 -1.9897 -0.0268
14 22 39 -6.3521 6.1686
14 22 40 8.4495 8.0588
14 22 41 -0.2813 8.7627
14 22 42 3.6164 6.0528
14 22 43 -0.8941 -15.7308
14 22 44 -2.3420 4.7118
14 22 45 12.2380 2.7451
14 22 46 9.3846 1.6179
14 22 47 8.8726 1.9714
14 24 0 9.5989 2.3836
14 24 1 -41.1531 -41.1092
14 24 2 -8.7870 16.1597
14 24 3 33.7078 31.2107
14 24 4 -3.3228 14.9737
14 24 5 -37.3200 25.5513
14 24 6 -22.1151 -2.0329
14 24 7 8.3326 34.8052
14 24 8 21.6402 62.0139
14 24 9 -1.7970 8.5207
14 24 10 34.6667 -38.1311
14 24 11 -26.1922 27.5956
14 24 12 18.6443 -11.8395
14 24 13 -12.8536 47.0522
14 24 14 -17.0877 -18.9682
14 24 15 -20.9446 -4.0356
14 24 16 -9.6371 -17.9763
14 24 17 -2.6098 -9.8779
14 24 18 26.0594 1.3232
14 24 19 -6.5867 0.0283
14 24 20 18.0141 -19.2877
14 24 21 1.3153 4.8785
14 24 22 -18.0451 -6.2323
14 24 23 9.4219 -8.1481
14 24 24 2.1376 -5.2432
14 24 25 0.7556 -11.4686
14 24 26 -9.7526 -0.9975
14 24 27 -1.7283 9.0916
14 24 28 18.7196 -1.8002
14 24 29 0.1395 -4.3208
14 24 30 14.5951 13.2508
14 24 31 -1.0156 -10.6192
14 24 32 19.4633 -5.5346
14 24 33 -7.8178 -12.6886
14 24 34 0.5248 15.8181
14 24 35 0.5666 11.4947
14 24 36 -8.9152 -3.4977
14 24 37 6.2047 2.9332
14 24 38 5.7961 -7.7883
14 24 39 10.5470 4.7856
14 24 40 2.2588 -10.6055
14 24 41 -4.5669 0.1697
14 24 42 -4.1276 -3.2715
14 24 43 5.7427 -1.3006
14 24 44 10.7631 10.3823
14 24 45 -0.9520 -1.9173
14 24 46 -9.9291 -18.9470
14 24 47 5.8163 6.6281
14 26 0 11.3032 -0.8270
14 26 1 -11.3383 -12.2403
14 26 2 -41.7556 -5.0569
14 26 3 2.5481 -14.5750
14 26 4 -6.5377 35.6881
14 26 5 2.4160 -10.2613
14 26 6 -5.3757 -12.2561
14 26 7 -12.6615 -6.8263
14 26 8 8.3389 -4.8308
14 26 9 -17.9734 3.0680
14 26 10 22.0686 1.2200
14 26 11 -41.1511 -5.4463
14 26 12 0.5648 -2.9760
14 26 13 2.6295 -15.6067
14 26 14 -3.7196 -2.3336
14 26 15 9.0421 5.6361
14 26 16 5.3585 3.0559
14 26 17 -21.8228 -13.2780
14 26 18 2.5364 -4.1189
14 26 19 6.0914 1.3726
14 26 20 -4.3873 -6.1450
14 26 21 24.3932 7.3567
14 26 22 7.0408 12.5737
14 26 23 -15.3671 31.3883
14 26 24 -8.5743 -11.4568
14 26 25 -10.4188 -16.3590
14 26 26 -2.1296 -0.9336
14 26 27 7.3157 20.3260
14 26 28 -7.0627 -5.3910
14 26 29 -12.1945 -4.9762
14 26 30 7.9458 -16.1957
14 26 31 -11.8838 7.4163
14 26 32 1.9924 4.3339
14 26 33 5.6233 -7.7135
14 26 34 2.9491 -4.0808
14 26 35 9.8163 8.7436
14 26 36 1.0941 0.6857
14 26 37 1.9457 -6.2202
14 26 38 -13.4096 -12.7682
14 26 39 -3.1493 16.8682
14 26 40 19.6863 -0.5016
14 26 41 -4.0151 -26.7458
14 26 42 6.0391 7.3815
14 28 0 -15.3462 -0.0554
14 28 1 4.7248 -22.4335
14 28 2 -9.7190 -0.1937
14 28 3 -5.0815 -3.0735
14 28 4 -9.1412 11.7646
14 28 5 4.2742 -9.2937
14 28 6 5.6040 -14.8137
14 28 7 3.4353 -2.9674
14 28 8 27.4028 3.1203
14 28 9 -8.0359 -15.5878
14 28 10 8.4648 13.1745
14 28 11 6.4909 -3.6489
14 28 12 8.4116 24.9207
14 28 13 -2.5388 4.1859
14 28 14 -10.5477 -20.0321
14 28 15 4.0161 -9.9089
14 28 16 14.0151 3.0192
14 28 17 -15.0972 25.8709
14 28 18 -11.6910 21.3703
14 28 19 -3.0626 -20.6034
14 28 20 3.7902 -2.4021
14 28 21 8.5912 11.3258
14 28 22 -4.7856 1.5032
14 28 23 -3.5784 -13.8528
14 28 24 1.1468 -4.7636
14 28 25 -10.3536 -2.6046
14 28 26 3.9398 -15.7026
14 28 27 3.6191 0.8007
14 28 28 -6.6218 -18.4128
14 28 29 -1.2000 -1.5300
14 28 30 -4.7137 1.2188
14 28 31 -9.0245 4.1265
14 28 32 0.9027 7.4770
14 28 33 -5.5368 -2.4320
14 28 34 8.6235 -9.4293
14 28 35 10.4922 11.4256
14 28 36 3.7654 -16.3569
14 28 37 3.0543 10.3791
14 30 0 -24.9378 0.3370
14 30 1 3.4228 0.5177
14 30 2 16.2695 -8.8038
14 30 3 -10.0555 -16.4854
14 30 4 1.2838 -6.1888
14 30 5 0.0425 -9.8298
14 30 6 -17.4806 9.8759
14 30 7 14.5003 -11.2502
14 30 8 -15.2586 -1.5893
14 30 9 3.6912 1.2902
14 30 10 3.1341 -10.5047
14 30 11 12.2819 -6.0061
14 30 12 -6.7495 0.8583
14 30 13 13.8868 35.9912
14 30 14 -10.6941 4.4275
14 30 15 -3.5372 10.4485
14 30 16 1.5029 -6.6425
14 30 17 -29.1467 16.2489
14 30 18 0.9714 0.2452
14 30 19 -4.0786 2.6529
14 30 20 -9.5274 18.6739
14 30 21 -5.5897 -1.8545
14 30 22 -5.6281 6.4472
14 30 23 16.5032 -8.8765
14 30 24 1.0516 1.6877
14 30 25 -1.2531 -3.2507
14 30 26 -5.1680 -5.6180
14 30 27 15.8424 -9.2689
14 30 28 -8.7938 9.6221
14 30 29 -2.0853 -6.4815
14 32 0 7.0903 -0.9518
14 32 1 -19.4481 8.3101
14 32 2 5.2145 6.9886
14 32 3 -1.9156 -0.5210
14 32 4 -10.8224 2.7760
14 32 5 -1.2980 6.8850
14 32 6 -1.7679 -6.4852
14 32 7 -6.4215 -6.7125
14 32 8 7.5538 -18.5613
14 32 9 -9.1405 4.8960
14 32 10 -1.3573 5.1282
14 32 11 6.2164 3.5645
14 32 12 3.5306 -3.4759
14 32 13 10.1559 -7.5392
14 32 14 -9.8980 1.2107
14 32 15 5.5696 -0.4451
14 32 16 1.8173 -5.3361
14 32 17 -18.3880 3.0784
14 32 18 -9.0249 -4.6905
14 32 19 -2.2467 0.3232
15 1 0 6.2090 2.3953
15 1 1 -9.9671 87.4464
15 1 2 102.1088 34.3022
15 1 3 28.7047 33.9798
15 1 4 -49.8658 83.5221
15 1 5 15.8673 -24.9820
15 1 6 -20.7756 -32.4755
15 1 7 -54.7977 54.8871
15 1 8 -29.3434 -6.8589
15 1 9 1.1095 81.7607
15 1 10 20.8842 57.1787
15 1 11 -147.6442 43.4291
15 1 12 42.1901 -54.2829
15 1 13 -14.2870 -0.8950
15 1 14 33.3242 4.6140
15 1 15 12.7677 -1.2926
15 1 16 37.1535 20.9305
15 1 17 27.1301 7.8010
15 1 18 53.8595 109.7906
15 1 19 5.8859 -32.5280
15 1 20 59.2674 -35.1717
15 1 21 11.5809 -34.7304
15 1 22 69.7770 -19.9497
15 1 23 25.0497 64.6015
15 1 24 20.1622 3.5041
15 1 25 17.1556 -36.7639
15 1 26 38.6955 -5.0463
15 1 27 -43.9398 -69.0114
15 1 28 35.0458 -14.3978
15 1 29 18.9219 38.0323
15 1 30 27.2401 -10.7451
15 1 31 26.3974 11.6191
15 1 32 19.5916 -1.2552
15 1 33 -8.4925 23.3927
15 1 34 -47.4425 -6.0597
15 1 35 -36.5111 -29.7567
15 1 36 -7.1437 -6.1154
15 1 37 19.9098 -20.1424
15 1 38 -5.9504 -19.3651
15 1 39 5.7014 3.0974
15 1 40 14.9647 -3.3461
15 1 41 -28.9809 -7.6460
15 1 42 -5.7033 -2.9352
15 1 43 -31.3991 3.0609
15 1 44 -28.9633 -9.7974
15 1 45 7.7200 -12.2796
15 1 46 10.0223 -0.2667
15 1 47 10.8375 -5.9988
15 1 48 -3.8377 -5.2453
15 1 49 3.6476 -1.7692
15 1 50 10.6818 1.7023
15 1 51 3.8869 -19.0884
15 1 52 2.7341 -5.5529
15 1 53 10.7744 -8.8928
15 1 54 7.5993 -3.3284
15 1 55 -9.1008 7.4798
15 1 56 1.0322 -8.7070
15 1 57 18.6772 -18.9124
15 3 0 2.1505 -0.1040
15 3 1 -44.0462 70.6075
15 3 2 -54.5575 92.1513
15 3 3 -34.4217 134.9930
15 3 4 115.9864 -10.4881
15 3 5 -17.4256 -74.5246
15 3 6 -74.8833 14.6170
15 3 7 -7.0741 -46.8941
15 3 8 -109.2884 12.3553
15 3 9 -95.9015 -74.1039
15 3 10 -22.0299 -105.5209
15 3 11 1.8957 62.6608
15 3 12 24.3323 -0.6523
15 3 13 -56.0506 11.0841
15 3 14 8.5202 33.6508
15 3 15 -17.4285 -3.5168
15 3 16 15.7259 -16.0698
15 3 17 77.9598 69.9409
15 3 18 16.2754 22.8575
15 3 19 -39.1211 8.3014
15 3 20 23.8479 -1.8077
15 3 21 -21.7390 16.1475
15 3 22 2.8866 -15.1599
15 3 23 18.4842 -30.8773
15 3 24 -4.9707 -15.5107
15 3 25 39.3042 -42.4071
15 3 26 38.6050 -67.3003
15 3 27 15.8424 -10.0843
15 3 28 -0.1532 -15.0983
15 3 29 -2.8222 3.8854
15 3 30 0.8525 -20.6842
15 3 31 24.2746 2.5809
15 3 32 38.4695 -15.0170
15 3 33 31.6678 2.3895
15 3 34 -41.3839 22.4971
15 3 35 -1.4765 -2.4493
15 3 36 -23.9880 9.0473
15 3 37 -0.3033 14.4279
15 3 38 14.0815 3.5962
15 3 39 -30.0016 -4.8641
15 3 40 42.9399 -15.0340
15 3 41 26.9974 38.1077
15 3 42 -3.7224 34.6561
15 3 43 -39.0442 -18.8809
15 3 44 -14.9585 -8.1484
15 3 45 -29.3449 -8.4389
15 3 46 15.3748 0.5298
15 3 47 -1.2899 6.4767
15 3 48 4.9744 6.9905
15 3 49 -17.5449 5.2783
15 3 50 -3.4250 0.2485
15 3 51 0.3330 -11.8517
15 3 52 -10.5468 -5.3807
15 3 53 -4.6222 3.3173
15 3 54 -7.8363 4.9119
15 3 55 -7.6906 7.5659
15 3 56 13.6580 24.7012
15 3 57 21.2478 5.2443
15 5 0 -13.8019 -4.6115
15 5 1 -63.4927 -15.0501
15 5 2 -62.7532 89.1211
15 5 3 -34.6784 37.9320
15 5 4 -7.9138 57.1721
15 5 5 -56.0594 3.8449
15 5 6 31.7188 50.9801
15 5 7 46.9033 7.1327
15 5 8 -8.8749 -2.7651
15 5 9 20.2126 -4.4390
15 5 10 -103.3904 48.7959
15 5 11 108.6865 -11.8945
15 5 12 88.1479 34.0496
15 5 13 71.1407 31.5652
15 5 14 52.1854 60.8807
15 5 15 10.5465 30.1698
15 5 16 -38.9876 -26.5217
15 5 17 -15.9849 1.9078
15 5 18 33.5734 -4.3720
15 5 19 8.2914 37.2972
15 5 20 -17.4131 27.6472
15 5 21 16.2005 24.8836
15 5 22 0.6930 -1.8081
15 5 23 -7.7331 3.8410
15 5 24 -41.9213 -5.7432
15 5 25 -9.3872 -10.2121
15 5 26 5.9025 0.4514
15 5 27 -0.4841 -18.9423
15 5 28 12.2585 -11.4943
15 5 29 17.5060 15.7976
15 5 30 -13.0625 -8.0753
15 5 31 -13.9181 45.1554
15 5 32 7.8272 17.7284
15 5 33 35.5051 13.6493
15 5 34 -25.0184 17.4671
15 5 35 16.2909 -0.6930
15 5 36 2.0122 4.9333
15 5 37 15.4925 21.1898
15 5 38 -12.9389 -7.5331
15 5 39 -12.3027 11.3352
15 5 40 2.4979 -8.8323
15 5 41 8.9469 -2.9554
15 5 42 13.9599 5.3243
15 5 43 15.0214 -29.7046
15 5 44 7.6164 -7.2894
15 5 45 2.4096 3.0737
15 5 46 2.8977 -5.7385
15 5 47 -5.5412 -0.4486
15 5 48 -0.9211 0.9489
15 5 49 -6.5799 11.2750
15 5 50 -4.8349 0.6286
15 5 51 5.3666 0.8819
15 5 52 3.7149 0.9040
15 5 53 -21.8509 7.1586
15 5 54 4.8294 1.6490
15 5 55 -11.3639 -6.2902
15 5 56 -2.8134 9.1880
15 5 57 -6.9583 -1.3522
15 5 58 9.0812 -4.8245
15 5 59 2.4705 -5.6388
15 5 60 -4.5604 -4.3003
15 5 61 9.6260 -3.9018
15 7 0 14.0333 2.8228
15 7 1 -8.6933 -42.6497
15 7 2 66.5971 70.6052
15 7 3 11.9205 99.0072
15 7 4 24.1459 47.6617
15 7 5 -72.5237 52.9705
15 7 6 -43.7336 27.3788
15 7 7 -14.9427 20.3115
15 7 8 -29.8988 -6.5814
15 7 9 103.7275 -57.6699
15 7 10 38.3682 32.3035
15 7 11 28.6282 2.9863
15 7 12 5.2753 -6.5915
15 7 13 30.3859 -38.3453
15 7 14 62.1896 -19.2459
15 7 15 27.1317 26.4643
15 7 16 23.1085 21.3837
15 7 17 -33.2361 -55.2743
15 7 18 -6.3099 -6.5537
15 7 19 31.0653 85.0436
15 7 20 16.6677 -55.0504
15 7 21 21.0468 14.8268
15 7 22 -74.1419 -12.7787
15 7 23 21.6468 21.5916
15 7 24 -23.7824 31.7947
15 7 25 -52.8238 0.5529
15 7 26 -52.3127 2.2168
15 7 27 -18.1682 -3.2065
15 7 28 -22.4214 -1.9501
15 7 29 -8.5601 -46.6353
15 7 30 -20.1753 -13.9190
15 7 31 -4.4422 2.8190
15 7 32 -0.3507 0.4201
15 7 33 -15.9392 -23.7107
15 7 34 -17.7692 -30.3317
15 7 35 53.1807 -14.1948
15 7 36 19.0985 -9.8360
15 7 37 8.4041 1.4987
15 7 38 3.6184 15.2284
15 7 39 11.8748 11.2755
15 7 40 15.5533 -6.5795
15 7 41 5.9627 34.5683
15 7 42 -1.7118 6.3079
15 7 43 -12.0406 -8.7451
15 7 44 -8.6913 0.0074
15 7 45 -8.4824 13.7748
15 7 46 -12.5971 -9.0142
15 7 47 6.5686 -4.7950
15 7 48 -11.2278 -15.4824
15 7 49 3.2035 -3.9006
15 7 50 -16.9244 -14.7351
15 7 51 2.4021 -12.0569
15 7 52 -5.8052 3.8648
15 7 53 8.6720 -10.0590
15 7 54 0.4395 8.3575
15 7 55 10.9465 6.4935
15 7 56 -5.0404 -3.8232
15 7 57 1.6023 2.4432
15 7 58 6.2276 10.3121
15 7 59 -0.0799 11.3399
15 7 60 -3.7868 -1.8586
15 7 61 2.5892 -1.2538
15 7 62 7.8280 9.3045
15 7 63 9.4605 1.5477
15 7 64 16.5138 -0.1783
15 7 65 7.1444 3.5924
15 9 0 11.2534 1.2859
15 9 1 -15.1476 -10.2007
15 9 2 74.1645 42.3853
15 9 3 13.9741 20.4916
15 9 4 -2.7047 -11.1174
15 9 5 11.6726 36.2819
15 9 6 11.3925 -6.4681
15 9 7 -9.4214 -3.9432
15 9 8 -31.8731 -6.6625
15 9 9 4.4493 -29.0943
15 9 10 2.2595 11.5503
15 9 11 -4.1162 -10.0892
15 9 12 23.7964 -27.1487
15 9 13 -8.9833 0.1273
15 9 14 -3.0878 -13.0862
15 9 15 7.2287 -7.8335
15 9 16 -11.4763 4.9895
15 9 17 16.4371 4.8094
15 9 18 8.5887 1.5040
15 9 19 -36.8372 6.2411
15 9 20 4.6917 67.1439
15 9 21 -8.9034 -22.4567
15 9 22 -18.8024 -14.0978
15 9 23 44.8664 -31.1675
15 9 24 -2.9636 -27.6582
15 9 25 1.6963 16.7562
15 9 26 12.4826 37.2093
15 9 27 16.1487 -8.5908
15 9 28 -36.8897 -0.5502
15 9 29 -18.8943 -7.3928
15 9 30 -13.5369 24.9111
15 9 31 46.2282 14.7084
15 9 32 -17.2675 -11.9858
15 9 33 -4.6058 -25.3035
15 9 34 -12.9592 -7.3474
15 9 35 -35.1800 -25.6751
15 9 36 14.9895 6.0767
15 9 37 34.3023 -3.0038
15 9 38 25.1774 36.9185
15 9 39 11.0166 -20.9892
15 9 40 25.4193 -8.0904
15 9 41 7.9276 -14.2988
15 9 42 -7.2828 -9.6056
15 9 43 -6.4698 -5.9527
15 9 44 -20.6486 -4.8778
15 9 45 7.9971 -7.1094
15 9 46 -6.1874 -4.8340
15 9 47 23.1765 7.9483
15 9 48 -3.3433 -5.1453
15 9 49 -4.3556 6.6190
15 9 50 1.4915 4.3017
15 9 51 0.2236 -3.2427
15 9 52 5.2685 11.5915
15 9 53 -0.6160 7.6775
15 9 54 4.9231 14.6570
15 9 55 0.9605 3.7865
15 9 56 -4.4814 7.5770
15 9 58 10.7365 -18.7207
15 9 59 -2.7490 -1.3559
15 9 60 3.2924 1.5983
15 9 61 27.0240 17.4248
15 11 0 -1.7814 -1.3527
15 11 1 0.3113 -0.7851
15 11 2 -61.1377 -13.5710
15 11 3 -11.4605 28.0426
15 11 4 -0.4618 0.4522
15 11 5 28.7275 -24.9663
15 11 6 18.6611 -12.1599
15 11 7 53.5968 15.7904
15 11 8 -25.3381 36.7620
15 11 9 -28.5375 -39.5864
15 11 10 -8.9520 -0.3626
15 11 11 -36.6369 -11.6991
15 11 12 -36.8941 -54.3414
15 11 13 -25.8773 18.3237
15 11 14 64.3450 11.0294
15 11 15 35.2068 20.7140
15 11 16 3.8038 43.8562
15 11 17 -19.8554 -26.3126
15 11 18 10.1346 -7.2686
15 11 19 -8.4362 0.4455
15 11 20 -21.9841 13.5660
15 11 21 -3.8489 4.1150
15 11 22 3.1038 4.0925
15 11 23 -1.2712 12.3268
15 11 24 1.6041 -0.5514
15 11 25 6.1458 15.2980
15 11 26 11.6608 10.3329
15 11 27 3.6016 10.3113
15 11 28 -1.7789 12.5880
15 11 29 38.2876 64.6700
15 11 30 -56.3876 -24.5348
15 11 31 8.5523 25.0185
15 11 32 -53.7745 33.3850
15 11 33 -15.1358 19.7769
15 11 34 -33.7580 -14.8501
15 11 35 7.1398 -23.0705
15 11 36 -18.9862 -14.9022
15 11 37 -18.1529 4.0319
15 11 38 -12.9630 8.6680
15 11 39 -16.0610 6.0478
15 11 40 -0.0264 -6.4062
15 11 41 11.4342 6.9617
15 11 42 5.9146 1.1359
15 11 43 -29.4322 -5.6560
15 11 44 12.6636 -23.2153
15 11 45 22.5966 -7.7116
15 11 46 -11.8929 0.8358
15 11 47 -3.9343 0.0930
15 11 48 -2.5299 5.4409
15 11 49 -2.5741 1.0649
15 11 50 -5.4989 -16.5103
15 11 51 9.3718 5.9391
15 11 52 1.9953 16.2818
15 11 53 2.0657 -2.9343
15 11 54 -15.6076 5.2923
15 11 55 -12.3714 5.1568
15 13 0 -33.9349 0.9807
15 13 1 -29.5921 13.1065
15 13 2 39.5500 38.2662
15 13 3 51.8007 -31.5503
15 13 4 -68.4382 20.8829
15 13 5 7.1404 4.1934
15 13 6 42.0816 27.1989
15 13 7 -35.1642 -36.3181
15 13 8 -25.7180 18.7353
15 13 9 -16.0473 6.5265
15 13 10 -6.8604 -36.3079
15 13 11 -31.3063 5.5963
15 13 12 -36.0864 14.1950
15 13 13 30.6567 -7.7280
15 13 14 3.2623 4.2250
15 13 15 -20.8924 -16.3118
15 13 16 53.4832 28.9119
15 13 17 -34.5897 25.8886
15 13 18 -10.7559 -34.3011
15 13 19 11.1131 2.4605
15 13 20 35.2579 13.6790
15 13 21 -12.1287 22.1835
15 13 22 -28.8709 -24.6870
15 13 23 -11.5610 22.1868
15 13 24 -2.7204 4.6155
15 13 25 10.5641 -0.0362
15 13 26 -4.1522 -7.7517
15 13 27 32.7245 35.3349
15 13 28 -55.5564 7.6618
15 13 29 4.6998 -11.1066
15 13 30 23.2973 -19.1025
15 13 31 2.3253 -10.6145
15 13 32 7.1688 -18.8929
15 13 33 -18.0107 -9.3490
15 13 34 -4.0853 4.9146
15 13 35 -14.8963 -30.2009
15 13 36 25.1191 -6.3124
15 13 37 -20.3980 -8.3442
15 13 38 4.3825 -2.8409
15 13 39 6.8647 4.0724
15 13 40 26.0682 -8.3239
15 13 41 -16.1577 5.6957
15 13 42 2.2553 21.9010
15 13 43 -0.9754 4.1814
15 13 44 -8.8921 -1.5652
15 13 45 0.7417 2.0408
15 13 46 -0.9536 0.4766
15 13 47 22.8613 7.2724
15 13 48 6.4144 -7.5843
15 13 49 -15.8222 3.4328
15 13 50 2.5268 13.9475
15 13 51 -6.8440 7.8953
15 13 52 -3.8230 -5.4692
15 13 53 16.4795 6.3183
15 15 0 23.9008 -0.4182
15 15 1 -26.4578 -39.2419
15 15 2 2.4111 -0.5248
15 15 3 88.0170 -39.4818
15 15 4 -13.9312 -6.1831
15 15 5 2.7223 -12.9211
15 15 6 -15.7803 -35.4168
15 15 7 -1.3985 49.9485
15 15 8 12.2163 6.2646
15 15 9 -36.8595 -23.8079
15 15 10 35.3938 -24.7079
15 15 11 -10.8864 -14.9362
15 15 12 17.4218 37.4498
15 15 13 -32.3086 21.4509
15 15 14 -1.4719 -8.2991
15 15 15 1.3745 21.4623
15 15 16 -17.7997 -7.2445
15 15 17 31.3715 -25.2332
15 15 18 -14.4477 21.8906
15 15 19 -35.2816 -1.8290
15 15 20 -17.1458 15.7910
15 15 21 -3.9796 11.5701
15 15 22 -4.9998 -13.6992
15 15 23 39.3978 0.4489
15 15 24 21.9672 -21.0496
15 15 25 21.6935 -20.4204
15 15 26 -0.2320 15.8704
15 15 27 7.1658 8.3985
15 15 28 3.6697 -6.4780
15 15 29 5.0933 12.1267
15 15 30 6.2862 -17.3585
15 15 31 23.0797 0.7439
15 15 32 3.2739 -14.5175
15 15 33 -1.3568 -31.5944
15 15 34 11.9076 5.6519
15 15 35 1.9841 -15.1143
15 15 36 -12.5526 -10.4543
15 15 37 15.4728 26.5781
15 15 38 5.4580 -15.8725
15 15 39 -11.2511 -22.3766
15 15 40 11.6329 10.0767
15 15 41 2.8058 -11.7221
15 15 42 9.8818 -8.9616
15 15 43 -8.1961 -13.1252
15 15 44 -12.4587 -3.1922
15 15 45 -4.5947 -0.0628
15 15 46 -5.8142 12.0144
15 15 47 -9.8300 -7.2029
15 15 48 -0.3571 -1.1311
15 15 49 5.5189 10.8111
15 15 50 -8.2799 -10.4484
15 15 54 -1.4742 -10.1200
15 17 0 3.4711 -0.5762
15 17 1 13.8466 10.4809
15 17 2 -6.1521 15.2654
15 17 3 10.6488 60.8589
15 17 4 -40.2376 23.5735
15 17 5 7.4942 6.8165
15 17 6 -9.4124 -19.0454
15 17 7 -12.2149 6.5847
15 17 8 4.6088 30.4171
15 17 9 -13.0211 5.2053
15 17 10 5.1605 32.6771
15 17 11 -19.0799 2.7240
15 17 12 9.9949 21.0252
15 17 13 10.8789 0.9784
15 17 14 35.1048 -18.9298
15 17 15 12.9738 37.7580
15 17 16 18.0571 9.0786
15 17 17 -50.6281 6.6959
15 17 18 -35.6343 -2.1277
15 17 19 -2.2364 -0.0379
15 17 20 10.9593 59.2281
15 17 21 18.5347 7.0097
15 17 22 13.9876 31.5905
15 17 23 21.8351 3.5893
15 17 24 25.3235 -30.4774
15 17 25 70.1767 -60.0132
15 17 26 8.3914 3.5771
15 17 27 7.1379 9.3947
15 17 28 -6.6372 42.7454
15 17 29 24.7100 -16.0580
15 17 30 36.6368 3.1411
15 17 31 -6.0790 -9.0067
15 17 32 -10.5436 27.6626
15 17 33 24.5668 17.2782
15 17 34 -10.5308 -21.3365
15 17 35 -3.0504 -6.8384
15 17 36 8.3621 13.5809
15 17 37 -8.6179 7.6788
15 17 38 10.4972 22.4674
15 17 39 15.6339 -2.8159
15 17 40 2.8443 -0.3121
15 17 41 -18.3212 -0.7139
15 17 42 -10.6220 -0.9755
15 17 43 -4.5091 6.7664
15 17 44 4.3074 -8.5356
15 17 45 -4.7651 -3.7926
15 17 46 -4.1945 10.2201
15 17 47 -7.8226 -7.0888
15 17 48 -6.3210 -3.1748
15 17 49 5.1670 -5.3697
15 17 50 10.3271 0.7456
15 17 51 19.9148 -2.8717
15 17 52 2.9973 23.2190
15 17 53 1.4007 7.3513
15 17 54 7.1483 12.7546
15 17 55 5.8613 5.9847
15 19 0 -29.1616 -0.6295
15 19 1 -28.9079 3.4883
15 19 2 -28.1790 38.2590
15 19 3 -30.0571 -1.1014
15 19 4 9.1876 13.5740
15 19 5 4.2003 25.8719
15 19 6 31.1782 -10.2338
15 19 7 64.5777 -5.2585
15 19 8 37.5801 -2.1804
15 19 9 -3.9822 9.1542
15 19 10 9.5048 -11.4844
15 19 11 -39.5325 -36.0443
15 19 12 -12.2447 -1.4784
15 19 13 -29.9556 13.7879
15 19 14 5.3051 -21.0819
15 19 15 -23.9930 -27.0280
15 19 16 34.9118 11.0633
15 19 17 -42.9746 16.4705
15 19 18 23.8739 -38.1074
15 19 19 -62.0193 -37.6622
15 19 20 18.4234 10.5528
15 19 21 0.0834 5.3645
15 19 22 14.8323 10.3144
15 19 23 -25.2841 45.6196
15 19 24 4.5999 13.8858
15 19 25 -10.4620 -6.8940
15 19 26 35.4928 -47.8208
15 19 27 12.9229 -38.3621
15 19 28 -20.4697 7.8094
15 19 29 0.8927 18.2844
15 19 30 5.4393 19.8967
15 19 31 -4.2535 22.4541
15 19 32 -48.7473 15.8740
15 19 33 -1.5361 13.1655
15 19 34 7.9706 23.4485
15 19 35 17.3022 17.0829
15 19 36 -1.9005 18.8395
15 19 37 -8.1708 17.7750
15 19 38 -14.1484 -17.3851
15 19 39 -2.8461 -5.9134
15 19 40 2.9899 -20.8651
15 19 41 12.6703 14.3157
15 19 42 -17.1603 -5.0115
15 19 43 4.7508 -4.1212
15 19 44 4.6466 -13.3763
15 19 45 -4.6671 -1.4159
15 19 46 -6.7920 -12.9865
15 19 47 3.3538 -22.5631
15 19 48 0.5987 4.4869
15 21 0 -92.8403 0.6748
15 21 1 -75.3370 -67.6533
15 21 2 -87.7521 -15.3662
15 21 3 -20.7125 -17.3109
15 21 4 41.9851 -12.7832
15 21 5 2.4703 7.7034
15 21 6 -3.9741 -2.0940
15 21 7 -17.2220 1.5081
15 21 8 14.2974 -47.0269
15 21 9 53.7698 72.1499
15 21 10 9.2776 -0.5541
15 21 11 30.6931 -3.3149
15 21 12 28.6544 29.4962
15 21 13 31.0920 6.5746
15 21 14 8.9786 -73.7001
15 21 15 -8.0897 3.0435
15 21 16 0.0735 -8.4072
15 21 17 71.4448 6.9575
15 21 18 -1.3775 -3.2490
15 21 19 19.6179 -4.1398
15 21 20 -41.2151 -5.8756
15 21 21 -6.2281 9.9814
15 21 22 -2.8395 28.2657
15 21 23 17.9071 27.3084
15 21 24 23.0639 28.2789
15 21 25 -5.8684 43.8036
15 21 26 10.0604 -33.6903
15 21 27 -27.0313 8.3419
15 21 28 -3.3956 -9.4120
15 21 29 0.8932 -0.8468
15 21 30 1.0352 -12.9209
15 21 31 -5.0757 2.4540
15 21 32 -2.5412 16.2156
15 21 33 -14.8429 8.7855
15 21 34 5.0491 -10.0897
15 21 35 0.7063 10.8912
15 21 36 -18.2783 -0.9867
15 21 37 -7.1133 7.3540
15 21 38 -6.0546 3.0811
15 21 39 16.8063 -11.0846
15 21 40 -11.9744 -2.4874
15 21 41 12.4199 8.2625
15 21 42 4.7558 -2.3988
15 21 43 -4.1976 6.6245
15 21 44 2.6208 -0.9443
15 21 45 11.0768 5.6761
15 21 46 -1.0281 -6.9561
15 21 47 -8.7296 -21.5413
15 21 48 13.0420 -2.5800
15 23 0 13.4510 1.9245
15 23 1 32.8710 57.2475
15 23 2 5.5876 10.8993
15 23 3 -83.9407 -31.6971
15 23 4 -1.9619 40.5400
15 23 5 -28.0985 20.6581
15 23 6 43.2331 -9.1277
15 23 7 22.0526 24.4490
15 23 8 -18.5498 6.9032
15 23 9 -9.7749 -62.5350
15 23 10 15.4616 20.5076
15 23 11 -12.0065 -8.0919
15 23 12 -28.9311 -25.1455
15 23 13 -1.9920 27.0777
15 23 14 -12.9104 14.5790
15 23 15 21.0950 18.0425
15 23 16 -29.7393 -23.5566
15 23 17 3.7833 -18.4567
15 23 18 -19.0588 -1.3288
15 23 19 16.1241 39.2009
15 23 20 -23.6014 -14.1334
15 23 21 31.3108 -21.9804
15 23 22 -7.6679 15.1248
15 23 23 5.7487 10.5088
15 23 24 9.5332 -5.6733
15 23 25 33.2977 -8.1636
15 23 26 2.9316 2.0986
15 23 27 -1.6219 -9.0229
15 23 28 0.9605 10.0869
15 23 29 1.7688 8.1002
15 23 30 7.3602 0.1680
15 23 31 -6.5256 -3.4391
15 23 32 -14.1087 -6.1776
15 23 33 0.1770 16.0025
15 23 34 -8.1340 1.3153
15 23 35 -0.7839 10.2197
15 23 36 -1.1997 2.3276
15 23 37 19.8106 -6.5822
15 23 38 1.3798 -10.5104
15 23 39 -12.6386 3.9878
15 23 40 0.2545 -7.8703
15 23 41 6.7888 5.5706
15 23 42 0.4735 -8.4835
15 23 43 8.8202 0.6971
15 23 44 8.2468 4.6552
15 25 0 72.1423 -1.4594
15 25 1 -39.7248 -16.4040
15 25 2 74.3712 19.5554
15 25 3 55.8218 -61.6442
15 25 4 -44.6826 16.4061
15 25 5 -36.5992 -25.3977
15 25 6 19.3059 25.9968
15 25 7 -4.1198 -3.0472
15 25 8 -11.2628 58.3495
15 25 9 -39.5962 -30.0481
15 25 10 0.0183 13.8385
15 25 11 6.4472 3.6265
15 25 12 -11.7088 -1.5146
15 25 13 -5.2646 1.8587
15 25 14 6.5779 29.9990
15 25 15 7.0297 3.3790
15 25 16 -0.9437 -5.3272
15 25 17 -36.4516 11.5983
15 25 18 -11.8007 -11.2712
15 25 19 2.1040 -6.1088
15 25 20 49.5938 -41.9158
15 25 21 -2.0389 -7.6749
15 25 22 -11.5029 -9.5395
15 25 23 21.8305 -27.8237
15 25 24 16.7530 0.0005
15 25 25 7.4828 -7.3811
15 25 26 -5.1353 1.6573
15 25 27 -7.0160 -2.1028
15 25 28 0.6394 -1.5098
15 25 29 7.1857 -5.9010
15 25 30 -12.0839 -6.0576
15 25 31 11.0711 15.0244
15 25 32 8.8352 5.0060
15 25 33 -6.1724 -9.6165
15 25 34 6.5301 9.5848
15 25 35 -1.8248 -11.6882
15 25 36 -7.9949 13.5036
15 25 37 -17.0443 -2.1277
15 25 38 6.8193 -1.8467
15 25 39 -4.9261 -11.5559
15 25 40 5.3052 -9.0581
15 25 41 7.3418 -2.8349
15 25 42 1.6123 4.4530
15 25 43 -10.9561 -5.7659
15 27 0 2.3632 -1.4158
15 27 1 -7.2946 12.2701
15 27 2 15.5241 -0.4932
15 27 3 58.4743 10.6122
15 27 4 -7.6760 -39.9115
15 27 5 -2.3869 -23.6940
15 27 6 -29.9772 -6.7938
15 27 7 -8.4982 -1.0660
15 27 8 6.8913 12.1402
15 27 9 -8.0568 1.3567
15 27 10 6.9571 -15.6738
15 27 11 -7.3298 -4.1513
15 27 12 -11.2759 -2.1962
15 27 13 27.9869 15.4965
15 27 14 15.3370 -0.0828
15 27 15 -22.0445 -6.8885
15 27 16 -7.4225 8.6348
15 27 17 -5.1853 -0.0159
15 27 18 5.7312 -16.1104
15 27 19 -13.1285 2.0410
15 27 20 6.1989 0.8380
15 27 21 8.6144 1.5333
15 27 22 -1.3933 16.5135
15 27 23 3.9040 -5.3825
15 27 24 22.0326 14.3555
15 27 25 0.5277 -1.0654
15 27 26 22.9159 -6.2546
15 27 27 -2.9174 5.3884
15 27 28 3.5851 9.6044
15 27 29 8.4617 3.9113
15 27 30 6.1271 7.6284
15 27 31 -25.4882 -1.3301
15 27 32 25.4911 10.5498
15 27 33 6.8647 -2.1065
15 27 34 17.0849 -7.3315
15 27 35 3.1264 -3.1127
15 27 36 -9.3167 -17.2341
15 27 37 7.8776 -16.0190
15 29 0 0.5225 1.0503
15 29 1 -16.8181 -0.1224
15 29 2 -9.8511 2.9685
15 29 3 7.8858 10.9571
15 29 4 6.4224 -14.5848
15 29 5 9.7245 -16.9974
15 29 6 15.8109 -3.0291
15 29 7 -2.5474 -2.6082
15 29 8 -8.4518 -10.6224
15 29 9 5.0210 -13.4121
15 29 10 -17.8692 -7.6043
15 29 11 -15.0656 -0.8760
15 29 12 -6.9248 -21.1274
15 29 13 15.0112 2.6412
15 29 14 -2.0041 3.5671
15 29 15 -3.8195 7.2953
15 29 16 11.0704 9.8339
15 29 17 -5.3761 -1.5430
15 29 18 -9.5484 -17.0112
15 29 19 -0.7645 -6.5054
15 29 20 -25.3142 -15.3066
15 29 21 5.0668 4.6435
15 29 22 -7.8983 9.3375
15 29 23 7.5333 4.2846
15 29 24 13.7942 -3.3831
15 29 25 3.8183 3.5320
15 29 26 -14.4143 -2.5995
15 29 27 1.6287 -9.3397
15 29 28 14.1834 2.6434
15 29 29 -9.5144 -3.5618
15 29 30 6.2917 9.1271
15 29 31 -9.1956 5.4173
15 31 0 -7.4353 0.6931
15 31 1 -21.0810 5.8557
15 31 2 -0.9004 -13.7571
15 31 3 -2.4498 11.4329
15 31 4 0.6246 -9.5028
15 31 5 6.1182 7.0263
15 31 6 8.3133 -3.2547
15 31 7 23.8957 8.3590
15 31 8 7.9270 -13.8731
15 31 9 -5.0370 2.9152
15 31 10 -5.8954 9.2335
15 31 11 -4.3866 4.4789
15 31 12 -4.4499 -1.5603
15 31 13 3.0326 0.5608
15 31 14 11.6164 8.2356
15 31 15 -6.3733 11.1486
15 31 16 13.2768 -1.5510
15 31 17 4.1567 18.3658
15 31 18 -0.2943 -1.5512
15 31 19 -7.0772 -12.1973
15 31 20 8.3346 -6.3716
15 31 21 -2.1624 0.5818
16 0 0 -62.3025 2.8891
16 0 1 1.1548 14.2401
16 0 2 41.6620 0.2156
16 0 3 -1.0695 29.2016
16 0 4 32.1609 -3.1016
16 0 5 -1.5448 2.7670
16 0 6 -6.3322 1.1449
16 0 7 0.7229 11.5047
16 0 8 31.6906 3.4700
16 0 9 1.7703 -7.4546
16 0 10 16.7091 -1.6851
16 0 11 -0.4870 -77.5783
16 0 12 -19.4111 -2.6862
16 0 13 -2.1860 17.2617
16 0 14 -7.5366 2.1575
16 0 15 -0.1821 54.2199
16 0 16 -13.2496 1.2582
16 0 17 2.3158 -11.4030
16 0 18 11.7624 -2.3153
16 0 19 0.9675 20.4495
16 0 20 14.8076 0.6063
16 0 21 -1.9063 2.9387
16 0 22 -6.9067 1.4210
16 0 23 -1.2117 -13.4565
16 0 24 -13.1025 -1.9013
16 0 25 1.0227 -0.2683
16 0 26 3.2681 -0.2461
16 0 27 1.2218 -11.2576
16 0 28 -7.1204 2.3117
16 0 29 -0.3020 0.1755
16 0 30 7.1116 -0.5427
16 0 31 -0.8502 -10.9055
16 0 32 20.0876 -1.8159
16 0 33 -0.2624 -7.9507
16 0 34 -2.4281 0.9538
16 0 35 0.3144 -18.6024
16 0 36 -14.0036 0.7448
16 0 37 0.5435 -3.5479
16 0 38 10.0011 -0.8696
16 0 39 0.0178 -17.7631
16 0 40 -27.1669 -0.0040
16 0 41 -0.5301 4.2215
16 0 42 -14.4891 0.3703
16 0 43 -0.2403 5.2955
16 0 44 -10.1982 -0.3269
16 0 45 0.3593 9.0393
16 0 46 -5.1119 0.1244
16 0 47 0.2088 12.0113
16 0 48 -17.4633 0.2989
16 0 49 -0.0286 -1.8785
16 0 50 5.9163 -0.3032
16 0 51 -0.0583 -12.2003
16 0 52 0.1344 -0.0051
16 0 53 -0.1672 -0.0307
16 0 54 -14.9456 0.2266
16 0 55 -0.0146 -28.2497
16 2 0 -70.1919 0.8276
16 2 1 -10.5987 6.0081
16 2 2 85.9277 51.8499
16 2 3 45.0118 -3.3132
16 2 4 59.9688 105.5890
16 2 5 60.1541 16.2854
16 2 6 -18.7132 -85.2930
16 2 7 -33.2828 -4.1218
16 2 8 -59.3280 80.7754
16 2 9 13.6086 10.0631
16 2 10 48.1496 45.0911
16 2 11 30.8957 4.1027
16 2 12 28.3216 66.1810
16 2 13 -59.0787 -137.5886
16 2 14 -10.3401 44.0034
16 2 15 13.8650 73.8791
16 2 16 -13.5572 25.2676
16 2 17 27.1128 13.2518
16 2 18 -51.3688 -13.4600
16 2 19 12.5552 -12.6993
16 2 20 -29.5434 19.5419
16 2 21 39.7086 11.0120
16 2 22 -26.6209 -3.3795
16 2 23 -34.9449 26.5487
16 2 24 -19.8235 -3.0230
16 2 25 -5.8736 20.7258
16 2 26 -5.1706 9.4591
16 2 27 -9.9805 7.4668
16 2 28 -5.4169 8.7119
16 2 29 7.5988 34.5676
16 2 30 7.1991 -22.3931
16 2 31 -2.7785 28.6647
16 2 32 29.3287 3.4944
16 2 33 -2.6781 -7.3425
16 2 34 -17.8671 -3.2520
16 2 35 0.8565 2.6943
16 2 36 7.7387 12.7860
16 2 37 -3.3459 -3.6786
16 2 38 0.4786 5.6835
16 2 39 -8.2830 9.8557
16 2 40 -3.3399 16.0526
16 2 41 4.4707 -5.8252
16 2 42 11.0490 2.9724
16 2 43 13.5569 -11.7642
16 2 44 0.2136 -2.8198
16 2 45 -1.8885 14.6877
16 2 46 -0.8457 -7.6003
16 2 47 -10.0650 20.4677
16 2 48 14.7847 -7.4909
16 2 49 -17.0888 9.1136
16 2 50 1.7774 6.6227
16 2 51 -1.0506 -1.5518
16 2 52 10.5252 -4.7662
16 2 53 0.4644 21.7003
16 2 54 11.7254 11.3019
16 2 55 -7.8024 5.9171
16 4 0 22.1198 -2.7864
16 4 1 -76.2985 33.1963
16 4 2 -47.8043 -39.1288
16 4 3 -63.6645 -80.9626
16 4 4 -32.7259 -67.7245
16 4 5 -13.5120 7.7140
16 4 6 -17.5985 -28.0701
16 4 7 4.3451 -17.8027
16 4 8 -16.5241 -66.7806
16 4 9 -57.8071 53.5591
16 4 10 73.6518 94.8376
16 4 11 16.1692 70.6659
16 4 12 71.0349 46.6992
16 4 13 35.3486 -29.1847
16 4 14 -4.2618 -57.3708
16 4 15 55.6491 81.1736
16 4 16 -58.2551 -25.6804
16 4 17 -32.4665 95.3174
16 4 18 -18.9276 -80.1380
16 4 19 -36.4837 6.9941
16 4 20 -26.5178 -15.0362
16 4 21 47.4039 -66.6059
16 4 22 -64.0651 -0.7459
16 4 23 25.1953 12.4531
16 4 24 -44.0766 9.7473
16 4 25 -1.2140 -2.0885
16 4 26 -21.8762 19.5578
16 4 27 6.7775 12.5486
16 4 28 17.1357 2.2291
16 4 29 -28.3152 11.3120
16 4 30 11.4962 11.6188
16 4 31 11.6356 3.6359
16 4 32 26.9394 -20.4511
16 4 33 -6.4920 22.9102
16 4 34 33.4635 6.2403
16 4 35 5.6256 2.6194
16 4 36 14.6843 -15.6084
16 4 37 -29.3530 -5.2364
16 4 38 -8.0905 1.9594
16 4 39 10.6108 10.8867
16 4 40 -25.2816 15.4807
16 4 41 16.9313 31.0865
16 4 42 -13.1265 -8.6047
16 4 43 -9.8455 -18.0372
16 4 44 0.1991 -1.2473
16 4 45 -18.5221 0.1217
16 4 46 -6.9825 -2.3350
16 4 47 10.2213 16.7644
16 4 48 -9.1765 3.7408
16 4 49 -1.4675 3.0533
16 4 50 6.0690 3.8172
16 4 51 -2.5650 -3.1719
16 4 52 6.2186 -2.3200
16 4 53 5.6577 2.2756
16 4 54 9.1312 4.4099
16 4 55 17.6049 -16.5370
16 6 0 -19.5822 -0.4823
16 6 1 12.2613 -6.2260
16 6 2 -145.3093 59.5926
16 6 3 64.8166 -75.9421
16 6 4 -48.6656 -23.1833
16 6 5 -56.8543 -131.8170
16 6 6 -8.3860 10.7123
16 6 7 -4.8659 -105.1713
16 6 8 70.4911 42.2402
16 6 9 -0.4173 -138.5236
16 6 10 108.0536 -72.9574
16 6 11 -20.6436 -70.2912
16 6 12 70.3283 21.7044
16 6 13 44.6953 -41.0375
16 6 14 -40.7275 -57.6329
16 6 15 -16.2963 22.2915
16 6 16 -14.9783 -38.7526
16 6 17 -41.2400 26.9894
16 6 18 29.8399 12.2323
16 6 19 -82.0692 -37.1577
16 6 20 -0.7701 11.0786
16 6 21 7.4589 32.8799
16 6 22 -26.1235 -5.0114
16 6 23 14.5406 26.0415
16 6 24 -0.2173 -44.7443
16 6 25 10.6597 -3.2724
16 6 26 36.3157 -13.0538
16 6 27 0.6114 -19.2888
16 6 28 -4.2543 -3.2392
16 6 29 -38.9286 -29.4515
16 6 30 22.1414 13.9572
16 6 31 3.7409 -9.1580
16 6 32 12.8680 16.8067
16 6 33 36.9709 26.6523
16 6 34 39.4938 17.6882
16 6 35 -13.9750 13.9390
16 6 36 -28.5204 5.5693
16 6 37 1.2456 -18.4883
16 6 38 -11.0227 -0.4128
16 6 39 -18.1427 28.4728
16 6 40 -10.0965 12.3245
16 6 41 12.2196 -15.9345
16 6 42 3.7043 15.8529
16 6 43 -14.7026 13.4019
16 6 44 -3.2432 -7.3317
16 6 45 8.5740 11.5988
16 6 46 8.9280 5.5034
16 6 47 13.6850 12.5314
16 6 48 -3.5597 28.9930
16 6 49 6.2205 5.4515
16 6 50 -7.0151 16.1459
16 6 51 -7.5438 -12.8190
16 6 52 16.5130 -1.7955
16 6 53 7.0858 7.0623
16 6 54 -5.8404 8.5242
16 6 55 -7.2216 8.3598
16 6 56 3.4676 -0.5540
16 6 57 -1.9663 -1.1348
16 6 58 0.6609 -4.6537
16 6 59 -5.6482 5.3447
16 6 60 -5.9726 -1.9017
16 6 61 -0.5102 -2.6274
16 6 62 -5.1267 1.9348
16 6 63 -4.8691 7.5647
16 6 64 0.4031 -4.9418
16 8 0 -49.3677 1.1438
16 8 1 54.5362 49.6322
16 8 2 -16.6428 44.2283
16 8 3 59.6853 8.4631
16 8 4 40.8368 8.0433
16 8 5 -65.7420 16.8635
16 8 6 -20.1816 30.7134
16 8 7 43.6697 -33.3932
16 8 8 3.1275 -56.2556
16 8 9 -120.7716 15.9902
16 8 10 42.8036 -8.6169
16 8 11 61.9905 -60.7625
16 8 12 65.9101 -35.4401
16 8 13 7.7416 -10.5925
16 8 14 -38.3120 -0.2744
16 8 15 -22.8731 15.0602
16 8 16 24.6844 5.9555
16 8 17 -16.8498 11.1733
16 8 18 -6.8671 6.5496
16 8 19 -9.9093 -69.6140
16 8 20 12.7541 12.5642
16 8 21 5.7487 69.0158
16 8 22 -21.8189 -4.5743
16 8 23 -12.3315 45.4090
16 8 24 -47.2044 -11.6885
16 8 25 -4.2094 31.4350
16 8 26 -24.8277 -48.8089
16 8 27 21.0670 -84.6467
16 8 28 29.6312 37.7281
16 8 29 -2.0600 -23.7217
16 8 30 -17.2855 -6.6262
16 8 31 29.0613 -6.4193
16 8 32 -13.6906 11.1078
16 8 33 2.0733 -20.5497
16 8 34 7.2013 -14.8501
16 8 35 7.1313 2.1476
16 8 36 46.0969 -7.5522
16 8 37 39.6418 15.0371
16 8 38 -4.8561 -9.4312
16 8 39 5.5401 -32.5345
16 8 40 -35.5035 13.7444
16 8 41 27.8692 -27.7733
16 8 42 8.9268 -1.8368
16 8 43 -13.8177 0.6052
16 8 44 -0.4878 5.4170
16 8 45 -0.6625 -3.6915
16 8 46 -8.8713 1.2753
16 8 47 -1.3034 5.7189
16 8 48 -1.5136 7.1496
16 8 49 -13.0408 -16.5267
16 8 50 6.9640 -5.2376
16 8 51 15.2138 0.9965
16 8 52 -2.3797 11.3828
16 8 53 -5.8096 -1.1382
16 8 54 3.7296 3.5831
16 8 55 -1.3843 -0.5887
16 8 56 -2.6034 -0.1332
16 8 57 0.5751 0.4072
16 8 58 -7.9223 5.7713
16 8 59 -3.4553 0.9066
16 8 60 1.3594 -0.9224
16 10 0 -10.2613 -0.5012
16 10 1 -14.2314 -43.5567
16 10 2 19.7431 30.5285
16 10 3 -3.4041 12.0160
16 10 4 48.0986 6.6776
16 10 5 -2.7869 0.1846
16 10 6 10.8473 2.9833
16 10 7 -2.0328 2.9010
16 10 8 3.4838 -12.6139
16 10 9 -2.1701 48.6078
16 10 10 -13.2111 -0.9551
16 10 11 -11.3213 -20.5641
16 10 12 -20.1305 79.9644
16 10 13 -13.3750 56.4161
16 10 14 37.8631 14.3327
16 10 15 -3.9382 -28.6547
16 10 16 -1.5784 16.0038
16 10 17 -29.2165 7.8456
16 10 18 -10.2527 54.8180
16 10 19 -8.5531 -37.4236
16 10 20 -10.5410 -3.6076
16 10 21 53.4124 3.7110
16 10 22 38.8474 11.3781
16 10 23 18.2687 32.6057
16 10 24 7.0773 -33.1743
16 10 25 20.4027 5.6855
16 10 26 -34.4205 -6.2160
16 10 27 -19.8522 -3.0800
16 10 28 17.4633 -4.4757
16 10 29 -9.6646 -11.2252
16 10 30 -20.0924 -39.7301
16 10 31 14.7588 35.4759
16 10 32 9.1584 41.1960
16 10 33 -9.4626 24.7801
16 10 34 0.3152 16.9513
16 10 35 -4.2594 12.5151
16 10 36 7.3204 15.6998
16 10 37 -5.9561 -17.0487
16 10 38 11.0068 -6.2234
16 10 39 0.2243 30.9034
16 10 40 -8.4757 -9.8440
16 10 41 -3.8815 0.2782
16 10 42 -5.8405 -3.0007
16 10 43 -3.8397 0.1128
16 10 44 -14.0502 17.5312
16 10 45 -8.2347 11.1627
16 10 46 -10.7989 -3.3861
16 10 47 6.3924 16.4055
16 10 48 -6.7271 13.0439
16 10 49 6.0254 -4.4143
16 10 50 4.4246 13.7928
16 10 51 -2.6342 -4.8090
16 10 52 -9.4134 -7.5430
16 10 53 -4.3679 6.6953
16 10 54 7.1484 -9.4192
16 10 55 -2.1559 -8.7989
16 10 56 -20.4534 7.1489
16 10 57 9.2324 -4.8648
16 10 58 1.2284 -8.0717
16 10 59 -15.7825 -13.7085
16 10 60 -11.0215 -7.5486
16 12 0 7.4288 1.7301
16 12 1 -11.2687 -16.8589
16 12 2 2.8791 13.1268
16 12 3 -29.1094 -26.0193
16 12 4 -12.3578 6.6029
16 12 5 -12.5348 -3.2295
16 12 6 -37.3942 14.2908
16 12 7 56.4758 12.8306
16 12 8 2.3660 -35.9274
16 12 9 31.7658 54.1275
16 12 10 8.3298 54.9939
16 12 11 -23.6046 15.6620
16 12 12 18.5185 5.4117
16 12 13 5.2368 23.9884
16 12 14 -37.9645 -0.7528
16 12 15 10.2743 -11.3709
16 12 16 -3.8687 -2.9366
16 12 17 -3.1471 48.1258
16 12 18 -0.1537 -20.3346
16 12 19 -24.2250 -65.9809
16 12 20 -25.0537 2.2298
16 12 21 -55.6393 7.9132
16 12 22 20.9193 -17.4883
16 12 23 101.7958 -13.6631
16 12 24 13.3467 38.7328
16 12 25 19.1442 -16.2647
16 12 26 64.5863 -15.0984
16 12 27 -17.1882 -14.8595
16 12 28 20.9739 20.4487
16 12 29 -37.0077 -43.0267
16 12 30 33.4314 -13.2692
16 12 31 -11.0905 10.2647
16 12 32 30.4717 35.2224
16 12 33 25.4587 -68.9111
16 12 34 15.2493 -13.9999
16 12 35 0.6197 -9.1127
16 12 36 23.7146 12.4874
16 12 37 26.0023 4.2349
16 12 38 1.7334 -8.3529
16 12 39 9.0444 -32.3174
16 12 40 28.9180 0.6541
16 12 41 -5.0181 -19.3854
16 12 42 2.8525 -10.3049
16 12 43 10.7218 -2.4283
16 12 44 28.1050 10.2494
16 12 45 0.6809 9.0902
16 12 46 2.5978 -1.8247
16 12 47 3.6116 13.3375
16 12 48 2.5391 12.2298
16 12 49 5.7239 -20.0891
16 12 50 5.7273 -7.2686
16 12 51 -21.2362 16.0530
16 12 52 -8.6529 7.9226
16 12 53 5.8271 -8.7452
16 12 54 17.1247 -10.6612
16 12 55 3.5914 15.7156
16 14 0 -2.8575 -0.1582
16 14 1 -40.5275 -9.5799
16 14 2 6.3206 -45.5014
16 14 3 8.3300 -14.0275
16 14 4 0.1811 -19.3906
16 14 5 4.7360 -6.1441
16 14 6 -31.6857 -83.6960
16 14 7 3.7659 5.5331
16 14 8 -9.9095 14.5739
16 14 9 -11.0280 32.9514
16 14 10 -12.1331 19.8048
16 14 11 -16.6124 19.0157
16 14 12 29.7109 -14.0409
16 14 13 -6.8753 39.2899
16 14 14 15.4139 -14.4401
16 14 15 13.2216 53.1749
16 14 16 27.4516 11.3934
16 14 17 11.1357 -4.7295
16 14 18 23.6202 12.0219
16 14 19 -11.5692 -28.2572
16 14 20 17.8273 20.6258
16 14 21 -13.2851 24.5896
16 14 22 20.7702 -28.9601
16 14 23 2.1961 33.9693
16 14 24 0.4098 -17.4017
16 14 25 20.8053 -10.2254
16 14 26 3.2024 9.0359
16 14 27 4.8473 -10.7841
16 14 28 32.0484 35.1705
16 14 29 5.5298 20.1700
16 14 30 -3.5733 -16.3563
16 14 31 -8.9892 -43.2968
16 14 32 22.2812 -4.4698
16 14 33 1.3682 14.8869
16 14 34 -23.8695 -11.4232
16 14 35 -3.0740 -7.5119
16 14 36 -11.8902 -4.9998
16 14 37 23.2153 12.6689
16 14 38 -1.7099 -0.5914
16 14 39 -15.2424 12.2445
16 14 40 5.2835 18.2812
16 14 41 11.9933 -12.8310
16 14 42 6.6324 -13.0863
16 14 43 -7.7613 -5.6714
16 14 44 8.2032 1.6377
16 14 45 -3.1085 2.1529
16 14 46 8.5285 -2.0557
16 14 47 -12.5467 -9.0727
16 14 48 -11.6646 8.5003
16 14 49 -8.2397 9.6669
16 14 50 -6.3746 3.0911
16 14 51 -7.0035 -3.4862
16 14 52 12.6796 -25.6323
16 14 55 6.3589 -11.9540
16 14 56 -10.4962 13.4195
16 16 0 9.9458 -0.8123
16 16 1 6.8462 8.9824
16 16 2 65.9555 -56.5245
16 16 3 2.9271 -29.9951
16 16 4 4.7724 -18.1443
16 16 5 -3.6000 -12.9660
16 16 6 4.9275 10.0835
16 16 7 23.0048 -3.1657
16 16 8 -1.8733 -14.0209
16 16 9 -35.2680 14.3619
16 16 10 -34.2189 -6.8686
16 16 11 -42.3677 2.8828
16 16 12 25.8962 -44.2828
16 16 13 -12.4761 -15.2714
16 16 14 -29.9240 -42.5989
16 16 15 -77.2460 -61.0376
16 16 16 5.9465 -20.2394
16 16 17 -5.9709 16.7624
16 16 18 47.5348 6.1265
16 16 19 5.8507 -28.5831
16 16 20 -0.9182 15.1097
16 16 21 0.3174 -2.8464
16 16 22 25.2160 -17.3347
16 16 23 16.6666 -8.5053
16 16 24 -1.1123 -13.1998
16 16 25 -42.1672 20.4114
16 16 26 -1.6535 0.8123
16 16 27 -8.7414 29.0100
16 16 28 -42.8106 23.9295
16 16 29 -1.6541 -7.5458
16 16 30 38.9253 -0.2849
16 16 31 12.5323 14.6594
16 16 32 -6.1971 14.6875
16 16 33 -11.5256 -25.4164
16 16 34 -14.9159 -8.0696
16 16 35 -0.3335 -5.1823
16 16 36 -7.5620 12.1600
16 16 37 13.9906 22.4182
16 16 38 14.5694 -10.9996
16 16 39 7.6295 -0.6596
16 16 40 -13.3872 4.1897
16 16 41 1.6589 6.3707
16 16 42 -2.7148 1.1761
16 16 43 -5.6253 13.0521
16 16 44 -0.4078 -10.2570
16 16 45 -8.2791 1.5302
16 16 46 2.2090 -16.8647
16 16 47 -14.4037 6.8946
16 16 48 -22.1654 -9.7561
16 16 49 4.9156 22.4400
16 16 52 13.6897 -8.0798
16 16 53 -0.1969 7.6832
16 18 0 -22.5429 -1.9470
16 18 1 12.0106 76.7902
16 18 2 41.1709 46.7712
16 18 3 2.5599 -22.3372
16 18 4 67.7076 20.6107
16 18 5 -21.3520 -54.4563
16 18 6 11.1775 -26.2917
16 18 7 -2.1392 22.7670
16 18 8 -3.8798 -19.7664
16 18 9 34.4870 13.5677
16 18 10 27.1810 35.0948
16 18 11 -3.4051 28.3990
16 18 12 2.0571 40.0234
16 18 13 28.6409 14.3873
16 18 14 3.1711 -3.4729
16 18 15 -7.9473 -36.7034
16 18 16 -6.4980 7.0735
16 18 17 -7.9355 19.2597
16 18 18 0.8971 26.5875
16 18 19 17.8547 10.9083
16 18 20 -25.1775 13.2960
16 18 21 -21.7149 5.7177
16 18 22 -18.4352 6.0327
16 18 23 0.4476 -3.0296
16 18 24 6.7727 0.4842
16 18 25 33.0644 15.0224
16 18 26 -0.5131 10.2418
16 18 27 -1.1828 20.4396
16 18 28 -30.9574 9.6830
16 18 29 30.0501 24.3293
16 18 30 -24.5017 4.5450
16 18 31 -0.1072 -8.1166
16 18 32 13.6925 18.0811
16 18 33 15.4403 3.5265
16 18 34 6.2393 -10.7094
16 18 35 -10.2358 -2.7749
16 18 36 -27.2476 -12.9198
16 18 37 -6.0877 2.8283
16 18 38 -3.4160 1.4085
16 18 39 7.5122 10.0220
16 18 40 -2.7948 20.7124
16 18 41 -8.6117 9.7301
16 18 42 5.2806 -18.6713
16 18 43 2.5258 -14.9860
16 18 44 -0.5378 -1.5100
16 18 45 1.1293 -0.8260
16 18 46 -16.9896 17.0220
16 18 47 4.0153 2.6205
16 18 48 20.2469 -8.4551
16 18 49 -6.7225 -22.4083
16 18 50 4.3948 -20.7795
16 18 51 -10.4319 -5.3672
16 20 0 23.9420 0.0975
16 20 1 -4.1586 37.3888
16 20 2 24.2971 43.4820
16 20 3 -17.1234 12.7274
16 20 4 -55.3115 7.8112
16 20 5 5.1902 -7.7065
16 20 6 -29.7955 -43.5923
16 20 7 -100.1768 -5.5838
16 20 8 6.4846 -3.3400
16 20 9 -9.6310 14.4650
16 20 10 -1.5536 0.4604
16 20 11 16.6820 23.1937
16 20 12 -20.7616 -72.5958
16 20 13 30.6834 4.0325
16 20 14 10.9519 73.7384
16 20 15 25.6640 10.9115
16 20 16 -2.5484 23.6481
16 20 17 -11.4935 -15.4173
16 20 18 18.5528 -0.8071
16 20 19 7.6525 -3.5258
16 20 20 -1.4811 19.3986
16 20 21 -6.2330 12.2929
16 20 22 -5.0569 -3.3547
16 20 23 -18.5519 -11.6713
16 20 24 -55.3871 28.5728
16 20 25 -9.7378 -5.0248
16 20 26 -19.6802 5.1199
16 20 27 -7.2952 -3.3557
16 20 28 -16.8942 -3.0074
16 20 29 27.0979 24.8848
16 20 30 -1.0079 9.1784
16 20 31 -18.3223 -14.5155
16 20 32 -10.1450 23.4250
16 20 33 -0.9105 6.3036
16 20 34 -5.7693 4.5720
16 20 35 1.8648 -10.0406
16 20 36 13.4374 -9.0549
16 20 37 -15.3910 -2.3360
16 20 38 7.4843 2.0166
16 20 39 -9.6705 -4.3547
16 20 40 -1.1498 -11.9912
16 20 41 6.2672 -3.2831
16 20 42 4.6094 6.2884
16 20 43 12.8804 -8.6600
16 20 44 2.1718 -13.6753
16 20 45 8.9037 -15.3172
16 20 46 9.7725 11.8221
16 20 47 -0.5782 7.9541
16 20 48 6.6829 5.5248
16 22 0 -4.0199 4.4510
16 22 1 19.4682 31.0271
16 22 2 7.4338 -5.0871
16 22 3 49.3142 -66.9272
16 22 4 3.0696 -18.5206
16 22 5 -51.9963 18.9690
16 22 6 59.7123 52.9604
16 22 7 -3.0777 -35.3802
16 22 8 6.1265 -2.2376
16 22 9 -16.6373 -8.1579
16 22 10 19.1825 -6.0798
16 22 11 -24.8892 4.2949
16 22 12 21.9954 -32.2913
16 22 13 -8.8938 -5.0535
16 22 14 -8.0090 12.7240
16 22 15 48.8780 17.1880
16 22 16 11.5855 -0.8933
16 22 17 -36.4900 0.7600
16 22 18 0.8897 -7.9748
16 22 19 11.3597 6.9828
16 22 20 5.9378 20.7257
16 22 21 13.2032 25.1719
16 22 22 -24.0555 7.6528
16 22 23 22.9083 4.2357
16 22 24 8.6826 22.3448
16 22 25 11.1677 -13.9267
16 22 26 -9.8279 -14.1634
16 22 27 -27.0594 11.8415
16 22 28 12.8233 13.1511
16 22 29 -0.2576 1.9685
16 22 30 14.3431 3.4596
16 22 31 -10.1458 4.9377
16 22 32 3.9115 2.2604
16 22 33 20.4409 16.0777
16 22 34 3.9651 1.5727
16 22 35 5.8211 2.7586
16 22 36 -7.8123 0.8304
16 22 37 8.4057 10.8455
16 22 38 -8.2632 3.5474
16 22 39 17.5487 -29.1434
16 22 40 -13.3207 -2.4142
16 22 41 8.7403 3.1837
16 22 42 -1.7113 -1.1853
16 22 43 1.0104 0.5062
16 22 44 -2.8111 -8.9109
16 24 0 43.1124 -1.6834
16 24 1 -6.1823 0.5231
16 24 2 -7.8505 -50.7891
16 24 3 -29.2847 34.5778
16 24 4 97.8772 -79.4897
16 24 5 25.9780 30.3505
16 24 6 -36.5039 57.6174
16 24 7 19.2337 -42.2475
16 24 8 39.7022 -27.8238
16 24 9 -10.3704 -13.4407
16 24 10 -28.9280 4.8090
16 24 11 -5.5089 -18.5475
16 24 12 -12.3129 -5.9036
16 24 13 -20.1058 0.0719
16 24 14 -18.8559 3.2524
16 24 15 9.7199 -27.6670
16 24 16 -1.3670 13.1104
16 24 17 -8.6416 4.8257
16 24 18 17.1238 -5.7162
16 24 19 10.2901 -30.3865
16 24 20 -0.0259 1.4662
16 24 21 -45.2571 -12.9207
16 24 22 3.0365 -18.1731
16 24 23 1.6815 8.9664
16 24 24 2.2079 3.8562
16 24 25 13.3504 18.5899
16 24 26 -1.2786 8.7445
16 24 27 -1.9831 -7.3525
16 24 28 10.1453 12.7954
16 24 29 -16.3810 -20.3735
16 24 30 -1.5083 -3.2877
16 24 31 -1.6650 -2.8035
16 24 32 24.4418 -3.7408
16 24 33 -2.8099 -7.8886
16 24 34 10.4300 -10.4915
16 24 35 -11.6778 11.9222
16 24 36 -3.9609 -6.6111
16 24 37 -14.7274 4.8261
16 24 39 -2.8325 -4.9292
16 24 40 -12.3335 13.8955
16 24 41 21.6595 -5.4755
16 26 0 8.7105 -2.3102
16 26 1 -3.0450 -32.5576
16 26 2 -13.8716 -5.6376
16 26 3 -30.2522 25.0672
16 26 4 -10.2277 -1.7291
16 26 5 -3.0385 9.9330
16 26 6 33.8007 21.3522
16 26 7 -28.0935 17.1627
16 26 8 21.6373 34.5150
16 26 9 -3.0647 -3.3419
16 26 10 20.1962 19.6789
16 26 11 -35.9311 -4.9400
16 26 12 -2.3514 0.7780
16 26 13 -10.4611 5.3509
16 26 14 -14.6918 45.5754
16 26 15 13.0460 18.4256
16 26 16 22.1770 -7.5799
16 26 17 27.8435 -35.1798
16 26 18 -20.7275 29.3546
16 26 19 8.3361 -1.6918
16 26 20 15.1806 -17.6429
16 26 21 -10.7794 -16.0184
16 26 22 10.6973 -4.5352
16 26 23 7.7910 6.1611
16 26 24 7.9646 -12.0024
16 26 25 11.3221 -39.6701
16 26 26 22.2568 -12.6028
16 26 27 2.6598 9.8541
16 26 28 -7.1652 -2.7410
16 26 29 15.8348 4.3822
16 26 30 -9.5245 5.9088
16 26 31 4.4210 4.5509
16 26 32 -11.6883 4.3657
16 26 33 11.2211 -14.7806
16 26 34 3.0711 -17.6066
16 26 35 8.8915 11.6874
16 26 36 -0.1978 3.2842
16 28 0 -2.6548 0.2254
16 28 1 -2.2959 -26.2277
16 28 2 -1.5172 -1.0132
16 28 3 7.1449 -1.4823
16 28 4 1.9010 3.5833
16 28 5 -0.5735 1.4729
16 28 6 11.7904 1.4315
16 28 7 -8.2392 5.1929
16 28 8 0.0470 -29.9232
16 28 9 4.0041 -37.6344
16 28 10 -32.0901 -0.7752
16 28 11 2.4001 -21.6597
16 28 12 12.4015 -8.9716
16 28 13 -13.7951 24.0016
16 28 14 -22.0758 1.6753
16 28 15 -7.9900 -13.2304
16 28 16 -24.4098 8.8908
16 28 17 8.5950 22.2611
16 28 18 -13.2763 8.0569
16 28 19 19.4438 -14.1684
16 28 20 -0.2023 -5.2755
16 28 21 -0.0994 21.4906
16 28 22 -15.5585 9.2737
16 28 23 2.3025 -6.2218
16 28 24 19.9924 6.3110
16 28 25 -7.2381 -8.5524
16 28 26 3.2939 2.9826
16 28 27 -1.1373 7.5645
16 28 28 10.4394 -4.4611
16 28 29 13.7378 -2.2668
16 28 30 3.8555 12.2640
16 28 31 5.8564 3.1660
16 30 0 2.6445 1.1592
16 30 1 8.8094 0.4657
16 30 2 2.4689 13.9667
16 30 3 -1.4445 13.3411
16 30 4 8.3675 -1.2051
16 30 5 -4.0449 -8.2426
16 30 6 -14.0241 4.2960
16 30 7 19.4286 9.1409
16 30 8 3.9600 -16.3406
16 30 9 2.2539 -8.5480
16 30 10 -5.3205 -16.8809
16 30 11 11.6021 11.0382
16 30 12 8.4112 -15.6347
16 30 13 3.8413 5.6154
16 30 14 4.1576 -2.0098
16 30 15 2.4396 -5.0294
16 30 16 -8.7734 10.4038
16 30 17 -17.8218 -10.9956
16 30 18 -12.2459 3.4211
16 30 19 6.6158 13.5419
16 30 20 5.7042 -2.4805
16 30 21 -15.9173 8.3312
16 30 22 -0.3186 -6.2321
16 30 23 -3.9901 -12.4955
16 32 0 -10.6667 1.4415
16 32 1 0.1376 7.7965
16 32 2 -4.5217 9.7682
16 32 3 5.7486 1.6830
16 32 4 -36.4094 10.5705
16 32 5 33.5909 0.9518
17 1 0 -59.8715 0.5065
17 1 1 55.5565 96.2436
17 1 2 -76.8387 -51.0922
17 1 3 -7.9209 23.6641
17 1 4 6.6861 -6.0208
17 1 5 18.5330 6.5724
17 1 6 -5.1071 -78.1057
17 1 7 8.9580 -57.2027
17 1 8 40.2807 85.1570
17 1 9 -22.5082 33.1854
17 1 10 65.5078 -94.5459
17 1 11 -17.1120 51.7886
17 1 12 -24.1308 -62.3923
17 1 13 1.3128 36.2390
17 1 14 -34.9819 -11.6227
17 1 15 0.4524 -20.6518
17 1 16 -2.4224 -6.7711
17 1 17 18.5486 -68.2637
17 1 18 19.9400 -52.4765
17 1 19 29.2934 -45.7576
17 1 20 16.3390 -12.1893
17 1 21 1.8135 -12.7892
17 1 22 -8.3649 21.7964
17 1 23 -16.5176 9.4090
17 1 24 11.9910 -13.8876
17 1 25 -6.6368 -27.6106
17 1 26 -10.3717 -0.8075
17 1 27 15.3916 -17.9829
17 1 28 -4.2576 -27.4034
17 1 29 8.3094 4.2224
17 1 30 -10.2563 5.6242
17 1 31 0.6685 -5.5854
17 1 32 -15.7600 -36.3118
17 1 33 3.6439 6.5972
17 1 34 49.8885 4.1735
17 1 35 20.3473 8.6088
17 1 36 -13.7509 -34.9688
17 1 37 -3.9414 9.5837
17 1 38 -15.2126 -1.8132
17 1 39 7.4836 -11.9016
17 1 40 0.2266 -12.4959
17 1 41 10.3983 -3.1086
17 1 42 8.5274 -9.8704
17 1 43 1.0668 14.0090
17 1 44 28.5597 2.2812
17 1 45 -11.5490 -11.3769
17 1 46 4.2783 9.4509
17 1 47 6.6448 12.1782
17 1 48 -1.4176 -5.0335
17 1 49 15.0662 -8.4487
17 1 50 2.5225 -19.1969
17 1 51 -9.8574 13.1592
17 1 52 -4.3282 15.1629
17 1 53 0.0306 2.3444
17 1 54 9.7259 10.5433
17 3 0 8.5461 -1.3853
17 3 1 74.1275 -47.5484
17 3 2 -14.9482 -28.6521
17 3 3 -32.3269 -40.2833
17 3 4 9.1555 -46.3132
17 3 5 -1.4585 -81.3017
17 3 6 -103.3126 60.9528
17 3 7 -24.1073 -84.2269
17 3 8 45.4720 -77.9967
17 3 9 -67.3168 92.4780
17 3 10 -15.6468 -5.7184
17 3 11 -17.7182 61.2204
17 3 12 -2.7741 11.4436
17 3 13 -39.2580 57.1527
17 3 14 -93.1471 -23.6831
17 3 15 8.4432 10.5600
17 3 16 7.7058 21.0726
17 3 17 38.3812 -26.3871
17 3 18 -29.3157 9.9713
17 3 19 -14.9209 1.6265
17 3 20 -31.0505 25.4949
17 3 21 12.8561 16.6928
17 3 22 1.6082 16.9109
17 3 23 -54.2191 -1.8898
17 3 24 15.9748 -3.8846
17 3 25 11.8223 22.5809
17 3 26 19.9186 -9.4873
17 3 27 4.4473 27.6044
17 3 28 25.0007 -23.2592
17 3 29 -17.3111 27.6440
17 3 30 -13.8024 0.1338
17 3 31 5.4706 24.2708
17 3 32 -12.0401 24.3509
17 3 33 5.5954 10.3212
17 3 34 -34.7317 -6.2776
17 3 35 3.2268 -2.4630
17 3 36 -8.1407 -14.8185
17 3 37 0.3957 -15.6729
17 3 38 2.5707 -6.2797
17 3 39 -13.7365 8.9093
17 3 40 11.0885 -4.0256
17 3 41 -27.5177 -28.9872
17 3 42 -2.9414 10.3909
17 3 43 -10.2478 -15.8613
17 3 44 2.9572 -1.4701
17 3 45 -5.6394 -2.8440
17 3 46 2.8027 6.8391
17 3 47 4.1918 12.6323
17 3 48 -7.0440 -0.9090
17 3 49 11.3720 12.3341
17 3 50 -16.4613 -2.2031
17 3 51 -12.2425 -4.5871
17 3 52 -6.8294 -4.1956
17 3 53 -5.8667 -11.7861
17 5 0 -72.1066 1.1540
17 5 1 -14.0800 -20.6601
17 5 2 4.1686 7.8450
17 5 3 3.6672 -18.4175
17 5 4 39.8045 19.0529
17 5 5 -19.7004 -95.3154
17 5 6 -13.6991 27.9260
17 5 7 8.4692 28.0384
17 5 8 -2.8977 -105.7247
17 5 9 -44.5765 -19.8722
17 5 10 9.7462 48.3602
17 5 11 58.4312 13.7708
17 5 12 -19.9235 -52.8135
17 5 13 1.1185 59.3177
17 5 14 -14.2037 -18.0544
17 5 15 -19.5225 41.3077
17 5 16 -26.0519 -10.3638
17 5 17 -26.7269 16.5591
17 5 18 -5.8944 26.6427
17 5 19 3.2364 -14.2033
17 5 20 24.3421 6.2426
17 5 21 -11.0596 0.1834
17 5 22 -21.5192 4.3090
17 5 23 21.3127 31.8918
17 5 24 14.8964 -8.9847
17 5 25 0.9339 -0.1410
17 5 26 -7.7115 -34.2227
17 5 27 8.4726 -20.7483
17 5 28 10.3312 -30.8430
17 5 29 12.5187 8.4497
17 5 30 -9.6200 -11.7109
17 5 31 1.5483 1.3402
17 5 32 -6.6944 -15.9005
17 5 33 19.9591 -12.2653
17 5 34 7.7496 3.7929
17 5 35 -2.9152 7.7656
17 5 36 -28.4265 16.5319
17 5 37 10.3125 15.8356
17 5 38 5.1640 1.2836
17 5 39 -22.0953 32.3956
17 5 40 -9.3377 -16.9371
17 5 41 6.5237 6.5568
17 5 42 2.8155 16.3140
17 5 43 -25.1141 -18.1074
17 5 44 -4.4946 4.0347
17 5 45 14.4106 -7.3657
17 5 46 4.1336 -2.8056
17 5 47 -1.5191 -5.4755
17 5 48 12.6181 10.6395
17 5 49 -11.5554 5.2721
17 5 50 16.2378 1.6970
17 5 51 11.5632 12.1038
17 5 52 -1.4260 15.6574
17 5 57 -15.2377 -1.5972
17 5 58 7.0606 3.4976
17 5 59 12.0418 13.9751
17 5 60 -4.5635 1.0362
17 5 61 11.0299 -5.3482
17 5 62 -4.5036 8.7382
17 5 63 -3.8526 -1.4856
17 7 0 -22.0528 0.0355
17 7 1 -95.6569 46.2048
17 7 2 35.7204 9.2186
17 7 3 2.9015 -16.9521
17 7 4 26.5140 -64.8591
17 7 5 1.6143 85.8041
17 7 6 73.9899 84.2222
17 7 7 -22.4934 21.3363
17 7 8 -7.7112 -83.7740
17 7 9 -19.7403 66.2604
17 7 10 -47.1773 99.3895
17 7 11 -19.0176 117.8021
17 7 12 -28.6646 21.3161
17 7 13 37.0786 37.5062
17 7 14 -27.1669 79.4207
17 7 15 8.7763 29.1624
17 7 16 -57.4606 23.5674
17 7 17 14.4853 -6.8823
17 7 18 -78.9401 6.4060
17 7 19 18.2027 8.3160
17 7 20 -62.7410 21.7716
17 7 21 54.4418 -17.9800
17 7 22 29.1540 -3.3063
17 7 23 -30.4434 -18.5680
17 7 24 -32.0338 2.1986
17 7 25 2.6928 28.1956
17 7 26 -20.0636 32.6597
17 7 27 -12.4623 31.3087
17 7 28 -21.6716 -12.7403
17 7 29 -14.4853 -0.7634
17 7 30 -18.5228 -7.3854
17 7 31 -8.3669 9.5990
17 7 32 0.4205 -6.3266
17 7 33 -19.1491 -15.8226
17 7 34 12.0435 58.0789
17 7 35 1.0907 -1.9624
17 7 36 -9.0404 46.2700
17 7 37 -52.2740 -4.2784
17 7 38 -10.9768 -8.7755
17 7 39 -0.8878 -16.1371
17 7 40 -21.9450 23.5492
17 7 41 -18.9831 -15.1915
17 7 42 -19.0830 7.5104
17 7 43 21.2281 -2.3792
17 7 44 -9.0348 4.2108
17 7 45 -12.7608 -7.2431
17 7 46 5.4944 -1.3356
17 7 47 17.0101 -10.5587
17 7 48 -15.7766 -5.2215
17 7 49 0.2206 -3.5832
17 7 50 -5.6433 14.9652
17 7 51 2.9818 -0.1241
17 7 52 9.2664 2.0759
17 7 53 -17.2236 4.4485
17 7 54 -16.2741 -8.5966
17 7 55 -7.7060 -9.4650
17 7 56 10.5343 0.1167
17 7 57 -5.4845 2.1915
17 7 58 -0.2744 -9.7281
17 7 59 10.8148 -3.4071
17 7 60 -10.6283 -7.6529
17 7 61 -11.8101 11.7266
17 7 62 5.7650 -8.3437
17 9 0 30.6863 -0.8383
17 9 1 29.8370 49.4205
17 9 2 -59.8360 2.8022
17 9 3 -15.6526 8.1191
17 9 4 22.3334 -40.1427
17 9 5 -8.9926 -68.6215
17 9 6 18.9880 5.5652
17 9 7 28.2771 15.0523
17 9 8 -20.3285 -51.6297
17 9 9 8.0527 3.3004
17 9 10 -4.2805 23.7493
17 9 11 -25.1571 0.7063
17 9 12 18.5893 82.7695
17 9 13 14.2735 -16.3061
17 9 14 89.6164 2.2144
17 9 15 3.0657 14.7241
17 9 16 7.3453 -26.7479
17 9 17 -20.5079 8.3864
17 9 18 -11.8661 -59.7689
17 9 19 18.8037 5.3185
17 9 20 -23.3503 -36.1756
17 9 21 31.4868 -12.3609
17 9 22 -15.7089 -8.6976
17 9 23 14.2007 24.4221
17 9 24 4.4001 -68.0833
17 9 25 -79.2527 17.2103
17 9 26 -10.4759 7.2532
17 9 27 -10.4367 31.3754
17 9 28 -6.1555 -24.4290
17 9 29 2.8805 -22.7829
17 9 30 -44.5316 -16.4700
17 9 31 23.2231 4.9625
17 9 32 -20.9950 23.7855
17 9 33 -44.7237 -26.1302
17 9 34 -3.3898 18.2009
17 9 35 -8.6846 15.0094
17 9 36 -25.1930 23.4643
17 9 37 -22.4598 -7.5488
17 9 38 -0.4406 20.0737
17 9 39 8.6349 22.1684
17 9 40 -22.3184 -29.2291
17 9 41 -16.0586 3.4935
17 9 42 2.3506 -10.5435
17 9 43 2.2171 37.0481
17 9 44 -20.5834 -33.2871
17 9 45 10.5050 4.4403
17 9 46 -6.9035 6.5225
17 9 47 12.0378 1.1749
17 9 48 -18.9569 -22.5533
17 9 49 -9.4673 -8.8855
17 9 50 -12.3331 -1.0253
17 9 51 16.3046 -7.3413
17 9 52 -7.2797 -1.5814
17 11 0 54.2407 -0.1158
17 11 1 -24.1754 9.0650
17 11 2 42.2110 47.8772
17 11 3 -40.4457 -80.8680
17 11 4 56.7865 61.9308
17 11 5 2.0818 -12.6750
17 11 6 15.7493 -9.7752
17 11 7 80.0431 -11.3383
17 11 8 -11.2001 6.4628
17 11 9 0.5880 35.0261
17 11 10 -6.2298 24.0907
17 11 11 8.2305 7.8376
17 11 12 30.4417 -13.4032
17 11 13 -4.6860 16.2702
17 11 14 23.0835 -42.3362
17 11 15 -0.8589 53.1754
17 11 16 33.4694 -22.5594
17 11 17 12.2304 25.7966
17 11 18 -8.2232 -26.2266
17 11 19 18.3164 -45.0982
17 11 20 33.1681 5.0598
17 11 21 -24.9104 32.3816
17 11 22 1.2672 1.4069
17 11 23 3.9671 -3.9833
17 11 24 35.6897 18.8677
17 11 25 -6.8843 5.7203
17 11 26 -8.5846 -18.8825
17 11 27 -21.5123 1.5174
17 11 28 33.4429 -8.5885
17 11 29 2.7915 68.6628
17 11 30 18.7621 12.1762
17 11 31 56.8741 -26.0798
17 11 32 34.2862 -39.7558
17 11 33 -13.8220 5.3393
17 11 34 -2.4142 25.9517
17 11 35 -22.0536 1.0819
17 11 36 15.1127 -17.8315
17 11 37 -11.0091 8.9253
17 11 38 16.2185 35.7282
17 11 39 18.6686 2.0374
17 11 40 12.2210 -8.0671
17 11 41 8.0632 -4.4080
17 11 42 -1.0771 20.2680
17 11 43 18.4336 25.0551
17 11 44 10.5506 -6.8389
17 11 45 17.5311 15.2673
17 11 46 3.4332 17.3297
17 11 47 2.7656 4.0771
17 11 48 3.1851 11.6774
17 11 49 8.7830 -0.8068
17 11 50 18.6156 -6.8164
17 11 51 10.3603 18.4188
17 11 52 -16.8153 4.6943
17 11 53 -3.3476 -4.5214
17 11 54 2.1271 -6.4693
17 13 0 -9.5943 1.5998
17 13 1 -53.6217 -24.0871
17 13 2 75.2595 -24.7726
17 13 3 30.7709 10.2201
17 13 4 24.7726 11.5962
17 13 5 18.9290 -22.8790
17 13 6 -31.3320 -17.7774
17 13 7 8.0300 20.9625
17 13 8 37.1043 -12.9709
17 13 9 -18.0462 0.5131
17 13 10 18.3793 -3.2172
17 13 11 -44.0105 2.6433
17 13 12 -12.0278 29.0734
17 13 13 -2.7063 -4.2295
17 13 14 43.7385 -19.4283
17 13 15 18.9555 20.4333
17 13 16 -10.7815 4.4163
17 13 17 -9.5733 2.6839
17 13 18 24.8676 2.4965
17 13 19 -21.5431 7.3023
17 13 20 2.3768 23.6724
17 13 21 12.1357 -14.6713
17 13 22 51.4851 -3.8227
17 13 23 -12.5317 25.1829
17 13 24 -19.7189 -12.4806
17 13 25 -8.2507 27.7894
17 13 26 -25.8783 -8.9522
17 13 27 -26.2625 38.0436
17 13 28 7.9844 8.1839
17 13 29 8.6998 29.4958
17 13 30 -8.4050 -12.6947
17 13 31 -9.7119 38.2302
17 13 32 -2.3287 0.9157
17 13 33 -13.5159 1.7303
17 13 34 -6.7485 -37.5273
17 13 35 -29.7404 37.0629
17 13 36 -16.4588 -20.6170
17 13 37 -2.1460 -11.2441
17 13 38 -24.6834 1.3531
17 13 39 -5.9238 -17.4454
17 13 40 0.5210 -2.0016
17 13 41 2.8301 -2.9942
17 13 42 9.4256 -2.4477
17 13 43 8.3172 10.2537
17 13 44 3.7334 3.6662
17 13 45 -10.2240 1.5019
17 13 46 3.2240 -0.4608
17 13 47 -9.7189 -1.6464
17 13 48 0.1261 8.3240
17 13 49 1.3807 10.9803
17 13 50 19.2009 -3.4891
17 13 51 31.5581 -27.5682
17 15 0 -13.4110 0.0638
17 15 1 -5.0036 11.1135
17 15 2 17.6042 -13.6380
17 15 3 -24.5025 3.5301
17 15 4 -43.1091 6.6363
17 15 5 11.9939 41.8202
17 15 6 53.7143 -9.4881
17 15 7 4.3307 37.9904
17 15 8 6.7054 -4.5317
17 15 9 11.4811 2.4400
17 15 10 21.0464 -26.3947
17 15 11 -52.6475 26.0262
17 15 12 21.4296 32.4121
17 15 13 5.3245 2.4371
17 15 14 -13.2032 -38.6072
17 15 15 -14.4078 30.8511
17 15 16 4.2983 3.4743
17 15 17 -35.5578 16.6475
17 15 18 -32.4141 29.8125
17 15 19 -10.6703 0.3268
17 15 20 1.7818 12.7875
17 15 21 -31.3444 -8.7659
17 15 22 -3.9118 19.3069
17 15 23 15.2404 26.1003
17 15 24 2.1012 25.4339
17 15 25 0.8750 -33.6172
17 15 26 -0.5782 4.8378
17 15 27 0.4978 24.4628
17 15 28 16.7999 -12.1489
17 15 29 -23.3028 25.5096
17 15 30 4.4262 13.8118
17 15 31 -12.1738 -9.1827
17 15 32 9.9040 20.6503
17 15 33 -15.7209 -5.6504
17 15 34 -0.4969 2.6807
17 15 35 -19.9587 5.1185
17 15 36 19.7783 1.4366
17 15 37 -12.2458 4.1450
17 15 38 8.8417 4.2503
17 15 39 -18.8570 5.6605
17 15 40 6.1987 -7.6043
17 15 41 12.4017 0.7945
17 15 42 -0.1484 -8.9315
17 15 43 2.0694 7.3570
17 15 44 -6.3690 -6.2348
17 15 45 7.9312 -8.2228
17 15 46 0.0336 0.1788
17 15 47 -5.1847 -0.0065
17 15 48 12.8547 -4.5213
17 15 49 -14.2910 -9.3720
17 15 50 16.4066 -9.3459
17 15 54 -17.4549 -12.1589
17 17 0 -3.0501 -0.6472
17 17 1 -36.0822 31.7053
17 17 2 5.9660 -0.3475
17 17 3 19.7387 -33.5052
17 17 4 13.4242 -2.1410
17 17 5 9.5146 3.3706
17 17 6 5.7183 28.2051
17 17 7 -4.6173 20.0228
17 17 8 18.4692 3.5849
17 17 9 -34.3579 24.4319
17 17 10 13.3262 -0.5328
17 17 11 23.3615 8.8514
17 17 12 -20.0471 6.4636
17 17 13 -5.5532 26.0333
17 17 14 -20.5343 -34.9753
17 17 15 24.4361 33.3849
17 17 16 10.8652 -14.8129
17 17 17 -13.6415 -18.8824
17 17 18 5.0124 36.1923
17 17 19 6.6804 14.1007
17 17 20 -26.9269 26.5011
17 17 21 24.7713 31.2281
17 17 22 -4.3719 -0.1202
17 17 23 18.9728 13.7708
17 17 24 -9.3073 23.6692
17 17 25 10.6787 -26.2826
17 17 26 13.0400 20.3729
17 17 27 28.0572 8.0401
17 17 28 3.7272 -23.4792
17 17 29 26.1797 10.3457
17 17 30 -4.1370 9.8612
17 17 31 35.1276 -9.1059
17 17 32 4.7888 22.8331
17 17 33 13.7697 10.1783
17 17 34 5.6956 11.0286
17 17 35 8.2284 -23.8325
17 17 36 -5.9185 -3.3903
17 17 37 0.1211 1.2065
17 17 38 1.0820 14.4997
17 17 39 -21.7419 -11.3581
17 17 40 0.3150 5.8372
17 17 41 -2.4280 3.8123
17 17 42 -23.1647 -2.2857
17 17 43 -15.9764 -12.2484
17 17 44 -3.5586 15.0202
17 17 45 13.7024 7.6758
17 17 46 -1.2184 -10.8681
17 17 47 3.7577 -12.2467
17 17 48 19.4541 -9.2101
17 17 49 26.5505 -3.0710
17 19 0 -15.5686 -2.5720
17 19 1 -21.4759 -40.4590
17 19 2 -8.6041 9.0183
17 19 3 -20.5560 23.6846
17 19 4 -0.3325 3.2855
17 19 5 28.7736 -5.1175
17 19 6 -3.5556 1.3512
17 19 7 44.2735 53.3339
17 19 8 22.0851 -82.4805
17 19 9 -38.6950 -0.4947
17 19 10 10.4898 -20.9827
17 19 11 -34.0290 10.9941
17 19 12 -4.7616 16.5037
17 19 13 11.9149 68.4664
17 19 14 -20.9382 -4.8689
17 19 15 -1.4278 16.4771
17 19 16 15.6637 -14.5628
17 19 17 8.9578 -57.6486
17 19 18 13.4994 7.6397
17 19 19 -6.2499 -18.0116
17 19 20 -4.1668 -2.2295
17 19 21 -5.1854 65.4633
17 19 22 -4.4991 -0.5528
17 19 23 1.7226 16.9017
17 19 24 -7.2018 23.7089
17 19 25 36.4726 10.9244
17 19 26 -15.9737 7.2732
17 19 27 -1.2837 -18.7469
17 19 28 -5.5008 -1.5881
17 19 29 13.5546 -7.0833
17 19 30 -13.2959 -11.3652
17 19 31 7.3022 12.0552
17 19 32 -5.6150 4.8079
17 19 33 16.4759 0.4966
17 19 34 6.3616 6.0655
17 19 35 -0.2216 2.0442
17 19 36 -10.7729 -3.6223
17 19 37 -13.3495 -10.4595
17 19 38 -2.2009 5.9299
17 19 39 -2.7982 -4.0742
17 19 40 -4.3871 -6.4849
17 19 41 -8.1365 3.4451
17 19 42 -16.3695 -0.2232
17 19 43 19.0700 8.2628
17 19 44 -31.0190 -0.0397
17 19 45 5.7634 3.7229
17 19 46 20.3977 -6.5427
17 19 47 2.7344 -1.2686
17 19 48 10.9014 2.0551
17 21 0 17.5471 3.1619
17 21 1 -16.6091 22.3202
17 21 2 -73.9931 40.6698
17 21 3 -27.2904 -28.5942
17 21 4 -63.0989 60.2946
17 21 5 6.9773 59.6332
17 21 6 2.7296 -53.7053
17 21 7 47.4217 31.8609
17 21 8 88.5845 9.6947
17 21 9 -3.5358 -63.8183
17 21 10 1.2857 19.8611
17 21 11 -3.9518 22.7552
17 21 12 54.0830 -7.2744
17 21 13 6.8745 9.7849
17 21 14 7.5909 -5.5716
17 21 15 9.0786 25.5523
17 21 16 -27.5300 40.1531
17 21 17 16.4880 -11.7372
17 21 18 -38.4579 -23.8304
17 21 19 -17.6202 10.7972
17 21 20 10.0961 16.3133
17 21 21 2.1821 4.1029
17 21 22 -18.2784 -29.0570
17 21 23 -12.8515 -1.8498
17 21 24 -6.9726 -4.6465
17 21 25 0.1692 6.7035
17 21 26 -14.6649 0.5008
17 21 27 -34.0943 -6.0310
17 21 28 1.7228 -3.6326
17 21 29 0.8227 -12.5886
17 21 30 -18.4779 -2.6845
17 21 31 -7.3497 -11.4038
17 21 32 -3.0853 4.2926
17 21 33 -6.8713 -1.1173
17 21 34 1.2379 -10.1191
17 21 35 -0.5576 2.8849
17 21 36 -4.4754 -2.8500
17 21 37 -7.2050 -2.7202
17 21 38 -5.5472 10.1650
17 21 39 0.0600 -15.5706
17 21 40 0.7708 1.1024
17 21 41 8.4435 3.3711
17 21 42 9.9744 -3.0341
17 21 43 13.6864 3.2559
17 21 44 9.0864 10.2254
17 21 45 4.3624 -13.8229
17 23 0 -0.2795 1.5653
17 23 1 -7.0562 -26.3175
17 23 2 14.7346 106.5535
17 23 3 -30.1602 67.9896
17 23 4 -22.8915 7.0442
17 23 5 -3.8392 51.2561
17 23 6 2.6601 -75.9539
17 23 7 34.3310 -66.0234
17 23 8 13.7001 -7.4270
17 23 9 15.6406 16.4430
17 23 10 -6.7215 6.7313
17 23 11 -8.8719 20.8715
17 23 12 3.5254 3.9689
17 23 13 11.2169 -3.2584
17 23 14 19.0251 -7.7029
17 23 15 -7.6911 17.6470
17 23 16 11.7331 -37.0784
17 23 17 -1.7874 3.2772
17 23 18 -16.6902 32.9778
17 23 19 -12.8565 -27.2967
17 23 20 15.8027 0.3121
17 23 21 22.7546 7.0973
17 23 22 -3.8387 14.7743
17 23 23 -21.5003 16.5298
17 23 24 5.4728 -5.7940
17 23 25 -12.7305 -5.9702
17 23 26 -0.8136 -11.0802
17 23 27 20.2608 -1.1649
17 23 28 -8.4525 7.3996
17 23 29 -2.3314 -7.7126
17 23 30 4.1763 3.2687
17 23 31 7.6191 -7.3818
17 23 32 -7.2894 -13.8924
17 23 33 -13.0334 -1.1611
17 23 34 -0.2147 -10.9637
17 23 35 -2.9387 -19.5031
17 23 36 -12.1549 -2.6094
17 23 37 19.2761 -19.6805
17 23 38 -13.2285 10.5281
17 23 39 -24.9981 0.7265
17 25 0 -3.9722 -3.2066
17 25 1 -43.1654 -14.5596
17 25 2 -27.1737 -14.7545
17 25 3 -46.5123 -11.3787
17 25 4 9.5003 39.9983
17 25 5 -19.1231 32.3681
17 25 6 -24.3766 -0.3331
17 25 7 -17.1076 5.1556
17 25 8 -2.7587 -33.3604
17 25 9 1.1350 -0.9537
17 25 10 15.3492 4.1165
17 25 11 -4.1103 5.9827
17 25 12 -14.5857 39.6071
17 25 13 10.4731 3.0384
17 25 14 -12.1263 -5.5290
17 25 15 4.2605 -23.6609
17 25 16 -10.1585 -44.5958
17 25 17 -28.2657 -34.0364
17 25 18 12.3252 13.9474
17 25 19 -11.6401 -18.3256
17 25 20 3.7704 47.3237
17 25 21 0.5712 8.7068
17 25 22 18.3307 -5.3579
17 25 23 7.5760 4.6435
17 25 24 -9.4221 32.7268
17 25 25 6.5523 -9.6631
17 25 26 -1.0090 -0.1280
17 25 27 -5.9014 -4.5414
17 25 28 -10.1250 25.2897
17 25 29 27.8784 15.1892
17 25 30 -6.9509 -18.5533
17 25 31 -3.2859 -10.8489
17 25 32 -5.7096 -1.0048
17 25 33 -2.6749 -15.6843
17 25 34 1.5442 12.9434
17 25 37 -19.2998 13.7338
17 27 0 21.9787 0.2178
17 27 1 4.5783 12.9313
17 27 2 9.0898 -15.3244
17 27 3 0.8077 -18.3873
17 27 4 -0.6389 -7.3353
17 27 5 -2.5244 -13.4481
17 27 6 31.1766 -4.9375
17 27 7 -1.6555 -8.7369
17 27 8 30.7694 -10.1863
17 27 9 -23.4635 15.9974
17 27 10 0.3636 12.9132
17 27 11 10.0719 31.6250
17 27 12 -1.0183 5.7104
17 27 13 13.9145 -16.3538
17 27 14 0.3946 -24.3597
17 27 15 0.1484 9.2462
17 27 16 -26.0329 -21.4237
17 27 17 -6.9239 -13.8189
17 27 18 -10.1253 -15.7515
17 27 19 11.6661 -7.9995
17 27 20 24.5527 -24.3857
17 27 21 27.9449 -3.6564
17 27 22 8.9658 10.1814
17 27 23 23.0622 -19.9508
17 27 24 23.1697 15.8494
17 27 25 -3.8770 0.4628
17 27 26 -1.2673 5.5932
17 27 27 0.0076 -2.1890
17 27 28 10.4013 -9.4624
17 27 29 -13.4589 2.3144
17 27 30 18.2437 6.3167
17 27 31 2.0840 29.2640
17 27 32 -17.3827 16.6577
17 29 0 17.2147 0.0061
17 29 1 -10.9301 10.7046
17 29 2 -4.4605 -1.3276
17 29 3 9.0671 -0.5114
17 29 4 2.7823 -16.0694
17 29 5 5.4782 -15.1482
17 29 6 1.9145 -8.0131
17 29 7 3.1086 2.2514
17 29 8 13.7716 -7.2580
17 29 9 4.6653 -3.4602
17 29 10 4.2616 -1.7851
17 29 11 -2.3973 8.2047
17 29 12 2.5193 -9.6357
17 29 13 11.6773 -8.3581
17 29 14 4.0786 -5.8806
17 29 15 13.2890 -7.5035
17 29 16 2.9082 -2.1956
17 29 17 -16.7889 -1.2042
17 29 18 -10.9240 -1.0016
17 29 19 -17.5484 28.5820
17 29 20 -1.6226 10.8475
17 29 21 9.6594 -3.7710
17 29 22 15.8109 -12.7727
17 29 23 -1.6704 17.3683
17 29 24 5.4069 17.7206
17 31 0 18.0394 2.1393
17 31 1 -1.9576 -10.2083
17 31 2 -12.9345 10.7237
17 31 3 -9.9276 -16.8362
17 31 4 -18.0648 0.1709
17 31 5 -5.2333 11.8211
17 31 6 -11.5021 23.7333
17 31 7 2.6043 -13.7117
17 31 8 -0.0827 7.9804
17 31 9 -14.1390 -5.0521
17 31 10 15.1699 7.6140
18 0 0 -13.4885 0.4328
18 0 1 -1.4533 27.1723
18 0 2 3.6215 0.0914
18 0 3 0.9536 5.9501
18 0 4 15.4297 -1.0635
18 0 5 0.9585 22.2178
18 0 6 17.6678 -0.0153
18 0 7 -1.7044 -4.5412
18 0 8 -18.4692 1.0122
18 0 9 -0.8591 -15.2953
18 0 10 26.9846 0.5022
18 0 11 2.1508 -23.8034
18 0 12 8.3800 -1.6353
18 0 13 0.4518 52.6714
18 0 14 -29.1548 -0.7529
18 0 15 -2.1911 4.7780
18 0 16 -14.6289 1.5047
18 0 17 0.2694 -40.9320
18 0 18 5.2134 0.7286
18 0 19 1.1856 -8.0557
18 0 20 10.5772 -0.7823
18 0 21 -0.6182 4.2261
18 0 22 -0.3546 -0.4622
18 0 23 0.0799 -2.1879
18 0 24 0.6852 0.0600
18 0 25 0.6857 11.6211
18 0 26 -21.2554 -0.0532
18 0 27 -1.0768 2.4485
18 0 28 -15.7091 0.5562
18 0 29 -0.0843 8.0064
18 0 30 20.9181 0.7903
18 0 31 1.3458 -16.4816
18 0 32 17.2741 -0.9782
18 0 33 -0.6055 1.0485
18 0 34 -37.3938 -1.2616
18 0 35 -0.9941 -2.6012
18 0 36 -4.6051 1.0204
18 0 37 1.1473 27.7980
18 0 38 -17.2236 1.4513
18 0 39 0.3143 10.3295
18 0 40 0.8188 -0.8525
18 0 41 -1.1147 -14.2332
18 0 42 0.9204 -1.1749
18 0 43 0.1230 -5.7925
18 0 44 -0.8507 0.5465
18 0 45 0.7387 21.4347
18 0 46 0.9906 0.6877
18 0 47 -0.3104 -9.2384
18 0 48 -5.3657 -0.3614
18 0 49 -0.2447 -12.8953
18 0 50 -26.1744 -0.1838
18 0 51 0.1493 25.7560
18 0 52 -33.5137 0.2278
18 0 53 -0.1019 56.4330
18 2 0 12.4039 -1.5091
18 2 1 -35.5596 -28.1850
18 2 2 31.6457 -14.0181
18 2 3 -2.1044 -5.4299
18 2 4 -17.7338 -21.9587
18 2 5 -53.5625 -15.1305
18 2 6 32.2852 -25.1182
18 2 7 91.2361 68.2784
18 2 8 12.8259 -51.6798
18 2 9 -3.2892 23.9106
18 2 10 -15.5408 35.6340
18 2 11 4.0457 46.6347
18 2 12 10.7522 83.6208
18 2 13 84.7926 -28.8275
18 2 14 -50.7331 17.0632
18 2 15 40.3976 17.3079
18 2 16 -19.1645 20.4524
18 2 17 24.4011 -0.3798
18 2 18 -1.1249 -47.3265
18 2 19 23.1535 15.8628
18 2 20 6.4838 -57.1919
18 2 21 44.9051 17.4440
18 2 22 26.2285 -3.6583
18 2 23 -31.8044 -25.4250
18 2 24 2.4340 -2.1151
18 2 25 -15.3566 1.0297
18 2 26 -17.5882 -4.6382
18 2 27 -1.3011 -33.9034
18 2 28 -0.8063 -7.2548
18 2 29 9.6231 10.2778
18 2 30 12.2982 2.6820
18 2 31 1.7078 -4.8045
18 2 32 -6.2430 4.1321
18 2 33 14.4636 9.4026
18 2 34 5.0942 -25.2745
18 2 35 -9.4748 11.4887
18 2 36 -6.8862 13.0323
18 2 37 -20.7110 10.2857
18 2 38 14.5325 2.0565
18 2 39 14.6030 -11.2856
18 2 40 -14.7566 3.2244
18 2 41 1.9429 -2.6004
18 2 42 -11.2586 2.1119
18 2 43 14.4053 -0.3159
18 2 44 -46.0029 -9.4636
18 2 45 4.6992 -16.2004
18 2 46 2.8242 -0.9894
18 2 47 3.5752 9.1112
18 2 48 -15.7344 4.8986
18 2 49 7.0512 7.1678
18 2 50 -0.6360 -11.1285
18 2 51 -3.0530 -8.2796
18 2 52 10.9044 -6.3373
18 2 53 -18.9675 -5.4819
18 4 0 20.5745 1.7451
18 4 1 6.3859 13.5669
18 4 2 -32.5491 22.0090
18 4 3 28.4189 -16.7943
18 4 4 -0.4251 3.6604
18 4 5 31.5769 -37.2445
18 4 6 1.8292 -80.1681
18 4 7 4.6576 62.7710
18 4 8 2.9750 -6.8932
18 4 9 56.0343 -72.3763
18 4 10 97.7574 -79.6627
18 4 11 -62.4766 -49.1912
18 4 12 -94.5707 90.0428
18 4 13 36.6278 -46.9767
18 4 14 27.9198 -31.2648
18 4 15 -103.5186 -18.6645
18 4 16 4.0497 3.6154
18 4 17 28.0209 -20.9232
18 4 18 33.6687 -15.6297
18 4 19 7.0417 47.8007
18 4 20 -9.3278 -24.7777
18 4 21 18.7972 -43.6074
18 4 22 14.6584 44.5504
18 4 23 -20.6103 3.4054
18 4 24 -21.9868 -18.2047
18 4 25 31.7832 -25.3032
18 4 26 8.1814 -25.3657
18 4 27 -4.2995 3.7140
18 4 28 -4.5472 -13.2875
18 4 29 -1.8040 -25.5159
18 4 30 -1.6813 10.8363
18 4 31 13.8874 -4.4223
18 4 32 -42.0131 -37.2418
18 4 33 6.2559 21.1066
18 4 34 -30.9724 -2.0483
18 4 35 9.7533 11.4795
18 4 36 -72.0188 4.3708
18 4 37 -22.0873 -4.8099
18 4 38 11.3556 -3.5319
18 4 39 12.3105 -23.6476
18 4 40 21.5740 15.8424
18 4 41 -14.9772 13.9527
18 4 42 3.1454 12.1173
18 4 43 -7.9492 14.4872
18 4 44 -3.2372 8.2210
18 4 45 -2.7727 -15.5496
18 4 46 0.8562 -12.4207
18 4 47 2.7379 -2.8312
18 4 48 7.0540 4.4346
18 4 49 12.2138 2.6646
18 4 50 -18.0066 13.2809
18 4 51 3.8496 -2.8129
18 4 52 3.7195 -6.7135
18 6 0 -4.1007 1.0464
18 6 1 0.7856 -4.8821
18 6 2 -43.9447 2.6580
18 6 3 -10.6834 47.2079
18 6 4 41.4976 14.4686
18 6 5 49.1926 -31.8917
18 6 6 -62.8137 -13.4516
18 6 7 -8.5371 -9.2172
18 6 8 -50.8308 -39.4725
18 6 9 -20.9736 -22.1037
18 6 10 -94.2423 -55.1484
18 6 11 -11.3568 -53.2959
18 6 12 -138.6136 -110.6604
18 6 13 16.9490 9.1265
18 6 14 -18.8165 -16.2007
18 6 15 -64.8214 -0.6472
18 6 16 -62.2299 -20.3455
18 6 17 11.8582 5.3016
18 6 18 6.9457 -3.4253
18 6 19 -0.9478 24.1919
18 6 20 39.9719 7.4244
18 6 21 49.9208 -89.9452
18 6 22 -14.5552 -18.8160
18 6 23 3.8652 -13.4607
18 6 24 -16.2150 -9.9820
18 6 25 11.4318 -9.5937
18 6 26 -14.7375 4.1740
18 6 27 12.7444 -33.4631
18 6 28 -1.4221 10.6516
18 6 29 10.1719 2.4580
18 6 30 -17.1383 40.0815
18 6 31 -20.2683 5.9331
18 6 32 -23.9109 19.1901
18 6 33 3.9604 5.5006
18 6 34 -10.4512 6.9362
18 6 35 8.6937 -18.2708
18 6 36 -10.5184 2.3577
18 6 37 19.8150 3.3739
18 6 38 18.2193 14.2056
18 6 39 -19.6401 -20.0454
18 6 40 42.1000 6.9634
18 6 41 -18.0881 -25.6161
18 6 42 6.5340 4.6190
18 6 43 -8.0371 17.1442
18 6 44 -13.8943 -1.8684
18 6 45 -7.5323 4.8462
18 6 46 6.3675 -11.9601
18 6 47 -2.2297 9.5313
18 6 48 -15.7826 16.4812
18 6 49 -17.0581 22.4996
18 6 50 -4.9142 8.8702
18 6 51 10.0940 21.0342
18 6 55 -3.9840 -13.5563
18 6 56 -2.2141 5.8817
18 6 57 -6.7980 -11.8991
18 6 58 -1.2168 1.8114
18 6 59 -1.7511 4.2214
18 6 60 1.2726 -13.6681
18 6 61 17.3626 -5.3947
18 8 0 16.2023 0.3432
18 8 1 4.5154 21.6542
18 8 2 6.4013 -81.1029
18 8 3 31.2694 -94.1089
18 8 4 20.5451 61.7793
18 8 5 63.7657 66.2876
18 8 6 8.7854 53.2209
18 8 7 -42.6498 -36.3355
18 8 8 16.2879 23.4282
18 8 9 -14.9086 12.9264
18 8 10 -11.4118 -41.2349
18 8 11 -63.6041 -27.4917
18 8 12 21.4264 -66.2894
18 8 13 -8.7848 -16.3927
18 8 14 7.3355 21.2824
18 8 15 -24.9625 76.2948
18 8 16 -35.0565 28.8931
18 8 17 1.9421 18.4694
18 8 18 22.6343 28.7768
18 8 19 32.7218 95.3223
18 8 20 6.3897 15.2660
18 8 21 -24.1923 24.7183
18 8 22 -27.1701 -20.8703
18 8 23 -2.0818 20.4388
18 8 24 -9.6587 9.1233
18 8 25 10.4549 -0.6001
18 8 26 9.9416 8.2776
18 8 27 -19.8907 -4.1297
18 8 28 0.6212 -11.2442
18 8 29 16.9542 -10.5721
18 8 30 -10.2042 28.6505
18 8 31 -47.3167 19.9760
18 8 32 -8.6117 0.8369
18 8 33 -16.6257 -5.1608
18 8 34 11.4425 5.5069
18 8 35 -27.4140 11.2019
18 8 36 -20.4561 11.3451
18 8 37 -3.6258 -14.2477
18 8 38 44.5836 25.4493
18 8 39 -20.1876 24.4311
18 8 40 -17.7826 31.9412
18 8 41 1.3808 5.8679
18 8 42 2.3498 -0.1582
18 8 43 -3.4348 -2.5846
18 8 44 -18.7595 7.4002
18 8 45 6.4708 -4.6051
18 8 46 -3.3361 10.2655
18 8 47 -1.1109 1.3330
18 8 48 -11.1517 1.8763
18 8 49 -0.2479 -6.6998
18 8 50 9.9815 -16.3053
18 8 51 -7.5937 -9.9362
18 8 52 24.0761 -3.2509
18 10 0 -16.7964 -2.5894
18 10 1 2.1034 27.2979
18 10 2 43.1071 -3.0099
18 10 3 12.7289 2.3393
18 10 4 -9.4781 -4.8640
18 10 5 33.2323 55.5458
18 10 6 23.7921 23.9381
18 10 7 -16.2615 50.3850
18 10 8 24.1400 -14.8079
18 10 9 32.0640 72.5781
18 10 10 25.1357 -73.0113
18 10 11 2.4873 4.0707
18 10 12 15.9962 -18.9432
18 10 13 -17.8181 -13.1854
18 10 14 25.8023 28.4558
18 10 15 28.2597 -21.2608
18 10 16 9.6245 13.5599
18 10 17 33.0105 20.3950
18 10 18 -13.3451 37.4851
18 10 19 21.0851 -0.5415
18 10 20 -23.2667 -2.1381
18 10 21 15.4486 37.8763
18 10 22 -6.9805 -18.2563
18 10 23 -30.5595 25.1470
18 10 24 -47.4887 -25.3361
18 10 25 -8.6391 1.5395
18 10 26 -20.0487 -1.1392
18 10 27 -12.3841 -18.9778
18 10 28 -26.4523 -9.5736
18 10 29 -19.3131 29.4328
18 10 30 59.4200 -20.2119
18 10 31 -55.6884 25.9414
18 10 32 -3.9769 -67.8738
18 10 33 12.8891 -18.8518
18 10 34 26.8891 16.4418
18 10 35 48.4122 -49.9680
18 10 36 18.8846 6.5345
18 10 37 32.7747 -6.8883
18 10 38 26.9778 -48.8967
18 10 39 10.1463 -11.4963
18 10 40 -5.6345 12.6180
18 10 41 18.0468 -1.6753
18 10 42 -13.4800 14.2172
18 10 43 -7.0971 3.1681
18 10 44 3.2484 6.0095
18 10 45 7.1164 -24.3575
18 10 46 0.8932 -4.6868
18 10 47 -6.2814 6.2519
18 10 48 -8.6252 12.8454
18 10 49 -6.0614 -2.2408
18 10 50 16.7960 6.5109
18 10 51 -2.9327 -9.8808
18 12 0 80.3199 -0.6327
18 12 1 44.5792 -25.0052
18 12 2 42.4421 60.8959
18 12 3 -2.0034 72.9668
18 12 4 12.8618 35.7585
18 12 5 -73.6386 32.2513
18 12 6 22.4714 -31.0372
18 12 7 8.1834 53.9327
18 12 8 1.6440 14.1160
18 12 9 -13.8798 5.4926
18 12 10 -39.0266 -7.2263
18 12 11 -65.1886 -17.7193
18 12 12 1.8214 18.0969
18 12 13 -33.4483 -37.6821
18 12 14 -54.4446 -2.9725
18 12 15 -39.3414 5.8631
18 12 16 -28.0774 -39.3686
18 12 17 -11.3335 12.6633
18 12 18 -31.8746 -13.6214
18 12 19 -17.2588 41.0281
18 12 20 15.6337 -11.3533
18 12 21 19.8479 37.1636
18 12 22 -3.9591 -4.3903
18 12 23 5.9751 -28.0893
18 12 24 -15.7840 -2.5709
18 12 25 -4.0807 65.3575
18 12 26 -7.7214 -14.4800
18 12 27 13.1025 -32.1057
18 12 28 -7.1018 20.0125
18 12 29 -36.7133 -5.4375
18 12 30 -46.9950 -21.6356
18 12 31 1.0639 39.9984
18 12 32 -34.4730 4.3574
18 12 33 -36.0468 -22.8972
18 12 34 -2.8945 8.1284
18 12 35 22.6761 21.4706
18 12 36 28.1896 -32.2761
18 12 37 -12.7192 -5.0878
18 12 38 -3.9855 -5.0507
18 12 39 31.8191 15.4573
18 12 40 -5.5950 -9.3923
18 12 41 -5.7757 -9.9600
18 12 42 8.6246 -15.2217
18 12 43 1.2927 1.0260
18 12 44 6.0137 -12.8996
18 12 45 7.4946 -14.1395
18 12 46 -2.2160 7.3795
18 12 47 17.8129 -8.6377
18 12 48 -6.2735 17.8347
18 12 49 13.7963 -16.9264
18 12 50 -1.4435 -1.5773
18 12 52 -3.9997 40.9465
18 14 0 -52.0862 2.9960
18 14 1 -34.4963 9.3784
18 14 2 41.9451 -0.1420
18 14 3 -15.2665 -35.7236
18 14 4 14.2508 60.5103
18 14 5 62.1140 86.7562
18 14 6 -2.0408 -10.2368
18 14 7 56.4957 12.8200
18 14 8 15.3450 -61.0427
18 14 9 -18.0558 -4.5909
18 14 10 38.0942 2.9392
18 14 11 12.2294 -26.0794
18 14 12 46.5386 16.3382
18 14 13 4.2307 -26.3046
18 14 14 49.6432 -17.9631
18 14 15 -11.8320 -7.1054
18 14 16 23.4384 -30.7094
18 14 17 20.3641 4.4393
18 14 18 6.5063 1.9704
18 14 19 -15.3197 39.5417
18 14 20 -17.8630 52.5370
18 14 21 -30.7367 -42.6104
18 14 22 43.7151 12.7944
18 14 23 -31.9243 37.5189
18 14 24 1.6596 -0.2740
18 14 25 -43.0240 -2.4079
18 14 26 1.4395 37.0630
18 14 27 27.5129 -13.7921
18 14 28 3.5409 -0.5921
18 14 29 19.9626 -20.2602
18 14 30 -18.0235 18.3946
18 14 31 9.8568 -6.7774
18 14 32 9.7681 -37.2465
18 14 33 -11.7636 6.8614
18 14 34 -3.9907 17.4572
18 14 35 16.8510 -17.0298
18 14 36 24.8208 -4.2240
18 14 37 1.1375 4.9254
18 14 38 11.3561 0.5231
18 14 39 17.1783 -3.7864
18 14 40 14.3152 11.0098
18 14 41 -3.5044 13.5546
18 14 42 10.1894 -8.0299
18 14 43 -0.8786 -2.5063
18 14 44 17.1059 -1.2258
18 14 45 -16.9011 17.2682
18 14 46 7.7415 8.7951
18 14 47 -11.8574 8.3917
18 14 48 -4.3027 -13.0293
18 14 49 -11.5836 -9.1444
18 14 51 4.9951 -4.4741
18 14 52 -1.7155 8.9474
18 16 0 -43.7771 -0.1446
18 16 1 5.7446 18.6168
18 16 2 30.4820 16.4169
18 16 3 -81.0867 40.8490
18 16 4 -49.6049 -15.8444
18 16 5 53.3689 28.7905
18 16 6 -7.9420 1.1826
18 16 7 15.5754 51.7677
18 16 8 52.2067 6.0176
18 16 9 37.9194 -15.1607
18 16 10 -2.5602 -2.1923
18 16 11 -21.6306 -24.2916
18 16 12 19.7037 33.8265
18 16 13 -8.2242 -13.8067
18 16 14 -11.3156 46.6116
18 16 15 0.2774 48.8008
18 16 16 -17.2710 -19.6750
18 16 17 -23.2539 -21.9010
18 16 18 19.0699 -17.1194
18 16 19 25.0882 22.4839
18 16 20 23.2838 5.7974
18 16 21 -8.3614 23.9814
18 16 22 29.6607 -32.9559
18 16 23 6.8141 -12.2307
18 16 24 -33.5612 -22.5959
18 16 25 -17.7737 -9.0750
18 16 26 -18.3406 9.4102
18 16 27 7.9125 -5.4802
18 16 28 -21.6196 -16.9021
18 16 29 -4.5846 7.9159
18 16 30 -28.6020 -3.9085
18 16 31 0.5368 -6.4098
18 16 32 -42.1605 -5.8992
18 16 33 7.6793 -21.5870
18 16 34 -24.1979 -9.5273
18 16 35 3.5714 24.5121
18 16 36 -0.5584 3.3414
18 16 37 -1.1512 6.1086
18 16 38 -4.0077 4.8028
18 16 39 -5.8919 -2.8914
18 16 40 5.9479 15.7419
18 16 41 9.6871 11.6140
18 16 42 -6.7303 16.0277
18 16 43 8.5815 -1.1858
18 16 44 -2.8206 11.4199
18 16 45 -17.5666 -1.2655
18 16 46 -9.3729 -4.4778
18 16 47 -15.3720 -11.8927
18 16 48 10.5817 -14.8849
18 16 49 18.5359 -5.4932
18 18 0 62.6316 -1.0586
18 18 1 -30.3750 -0.3929
18 18 2 -15.2536 27.5441
18 18 3 -15.7555 0.0281
18 18 4 -59.3719 -28.2607
18 18 5 21.3514 16.3332
18 18 6 -24.3758 -77.8827
18 18 7 9.5486 34.6529
18 18 8 -61.3827 1.5819
18 18 9 -14.7907 -3.6174
18 18 10 -18.6870 17.0398
18 18 11 30.1757 19.1570
18 18 12 -34.7018 24.2167
18 18 13 1.2951 -6.2517
18 18 14 -6.3666 2.6700
18 18 15 -8.8362 20.6401
18 18 16 -21.9915 6.1587
18 18 17 -6.5700 -24.1336
18 18 18 -16.3753 -18.9958
18 18 19 18.1158 1.4378
18 18 20 21.4789 -3.5024
18 18 21 8.9209 15.9703
18 18 22 13.0327 0.5575
18 18 23 14.6950 17.4595
18 18 24 -5.6035 -7.1831
18 18 25 19.8122 -17.7946
18 18 26 -12.5720 -24.3784
18 18 27 -6.3268 19.5911
18 18 28 -10.1037 -8.6909
18 18 29 -10.0654 23.8162
18 18 30 7.5847 49.6925
18 18 31 4.1375 -6.0717
18 18 32 -3.2438 -1.1426
18 18 33 -15.5332 -3.8805
18 18 34 -11.6661 -6.6770
18 18 35 -8.4743 11.3762
18 18 36 0.4620 -2.3986
18 18 37 -8.5309 -1.2682
18 18 38 13.0870 5.9120
18 18 39 -5.8471 20.7899
18 18 40 -6.2995 7.1237
18 18 41 1.9245 -14.6507
18 18 42 7.3253 -6.0890
18 18 45 6.5703 -1.3150
18 18 46 3.7167 -11.5530
18 18 47 -2.0992 11.0715
18 18 48 6.4956 12.8158
18 18 49 -4.0343 4.9686
18 18 50 -5.1732 4.6133
18 20 0 8.8813 -1.0387
18 20 1 34.3691 -58.3185
18 20 2 39.0330 11.6245
18 20 3 -5.2794 12.0362
18 20 4 -15.4770 -8.1047
18 20 5 8.7457 16.9751
18 20 6 -18.8978 7.7836
18 20 7 4.2493 24.4163
18 20 8 -5.4682 -44.5961
18 20 9 -67.4768 13.2750
18 20 10 -15.0823 4.9303
18 20 11 -5.2500 -16.0451
18 20 12 -5.1736 -8.1149
18 20 13 35.8602 -7.5268
18 20 14 -19.4398 -23.6239
18 20 15 16.8603 -0.8931
18 20 16 -23.0185 3.4057
18 20 17 33.0264 1.4727
18 20 18 -20.7885 11.9805
18 20 19 -4.3188 -44.3105
18 20 20 11.0774 -18.0605
18 20 21 23.6579 20.7706
18 20 22 9.6210 21.0958
18 20 23 -17.4049 -24.6453
18 20 24 -4.6687 16.1431
18 20 25 -8.0634 -12.6832
18 20 26 -2.3517 -3.8033
18 20 27 2.6394 -15.1759
18 20 28 4.1723 -5.6643
18 20 29 -4.4870 -13.5260
18 20 30 -21.9229 14.6945
18 20 31 -4.9862 -0.0156
18 20 32 4.6174 -12.3683
18 20 33 7.7109 -3.9719
18 20 34 -8.4835 -9.4660
18 20 35 3.7452 -12.4583
18 20 36 -9.9095 -8.6899
18 20 37 6.5535 -5.2576
18 20 38 -12.3840 -8.4645
18 20 39 -28.6837 -3.2180
18 20 40 -8.5185 -7.5801
18 20 41 -7.9754 -26.7845
18 20 42 14.1869 -19.0315
18 20 43 -10.7541 -7.3573
18 22 0 -11.2583 2.1482
18 22 1 71.1450 -18.4107
18 22 2 22.6370 4.0030
18 22 3 1.9215 -14.0975
18 22 4 5.6091 -42.9542
18 22 5 57.4788 -9.2675
18 22 6 2.8662 -0.0855
18 22 7 -36.9194 20.5272
18 22 8 -2.9204 1.9172
18 22 9 -9.2594 19.7430
18 22 10 -10.4179 -4.4680
18 22 11 51.1516 -16.1843
18 22 12 -1.8700 19.7314
18 22 13 -33.3681 -18.8975
18 22 14 7.4993 -14.4297
18 22 15 15.3606 -36.8152
18 22 16 5.9617 7.4089
18 22 17 -21.4654 -17.1904
18 22 18 -2.7513 -23.5496
18 22 19 -16.6308 8.7682
18 22 20 -8.0286 -30.7249
18 22 21 -19.3165 -11.7602
18 22 22 0.3201 -13.9371
18 22 23 19.7059 -9.5951
18 22 24 4.1296 15.2547
18 22 25 -6.9696 -7.9227
18 22 26 9.1565 -10.4236
18 22 27 -13.4584 -34.0827
18 22 28 2.5142 -4.0682
18 22 29 19.1849 18.3890
18 22 30 -2.5622 0.7386
18 22 31 0.1306 3.0800
18 22 32 0.3265 5.2559
18 22 33 -2.1406 -10.9703
18 22 34 -5.4488 2.5556
18 22 35 7.5786 11.7033
18 22 36 0.3541 1.6407
18 22 37 4.6740 4.9143
18 22 38 -5.5236 9.8631
18 22 39 4.0933 -4.7540
18 24 0 23.6417 -0.7310
18 24 1 40.2851 -51.9454
18 24 2 -28.6175 -2.4071
18 24 3 -28.3603 -18.7578
18 24 4 -0.4483 3.4313
18 24 5 -29.6851 -14.6746
18 24 6 -27.0648 0.3175
18 24 7 -6.4585 -4.5016
18 24 8 -42.9443 -1.7034
18 24 9 -1.0923 36.5556
18 24 10 -34.6660 35.1169
18 24 11 19.1545 14.9950
18 24 12 6.9677 -5.4342
18 24 13 12.4189 4.0313
18 24 14 30.1182 23.8071
18 24 15 4.1708 -28.9875
18 24 16 12.3074 23.4291
18 24 17 20.6029 -7.0315
18 24 18 -11.3828 -12.3601
18 24 19 -18.4721 -3.2912
18 24 20 11.1139 5.9536
18 24 21 13.9093 5.8360
18 24 22 -10.3605 3.3291
18 24 23 -11.7511 -21.2080
18 24 24 11.8035 23.3415
18 24 25 2.2053 8.4927
18 24 26 6.7763 16.6741
18 24 27 6.3480 14.9622
18 24 28 11.8101 -6.2061
18 24 29 -9.4365 7.3594
18 24 30 2.0107 9.3382
18 24 31 -3.4661 1.0749
18 24 32 -0.9802 7.8287
18 24 33 -0.2608 5.4605
18 24 34 1.9657 1.1933
18 24 35 -15.3515 -11.7442
18 26 0 13.4133 -0.7377
18 26 1 -17.0872 -6.0526
18 26 2 -0.4635 1.8969
18 26 3 -2.4750 11.4960
18 26 4 1.6517 4.2323
18 26 5 24.6685 5.2319
18 26 6 -25.8733 -2.3549
18 26 7 4.4105 -25.7624
18 26 8 3.6104 -9.5400
18 26 9 -39.3934 -4.7065
18 26 10 0.2074 8.2739
18 26 11 18.9805 -14.0577
18 26 12 10.2876 -18.5460
18 26 13 -9.6570 -9.1682
18 26 14 11.3432 4.9271
18 26 15 -18.4694 -15.3454
18 26 16 9.3768 14.1663
18 26 17 -12.3291 -3.4018
18 26 18 4.0091 7.9889
18 26 19 -13.8844 -27.8411
18 26 20 -16.1281 8.5578
18 26 21 -2.8573 -6.7170
18 26 22 1.3504 20.3076
18 26 23 -24.1551 -8.1203
18 26 24 12.0828 8.1454
18 26 25 -16.7467 -6.6935
18 26 26 2.1445 -13.0956
18 26 27 9.4278 5.9244
18 26 28 0.6413 3.5437
18 26 29 -8.2960 15.9970
18 26 30 2.9307 5.9305
18 26 31 -6.4497 23.4779
18 28 0 17.7868 0.0875
18 28 1 7.4964 5.4689
18 28 2 -2.1429 -6.5748
18 28 3 -16.1372 14.2553
18 28 4 6.0021 4.8280
18 28 5 7.6543 10.9641
18 28 6 -6.3947 -17.8867
18 28 7 6.6646 21.0037
18 28 8 -0.5933 -5.9793
18 28 9 8.8494 -28.6117
18 28 10 0.6157 4.3904
18 28 11 -6.9589 15.3694
18 28 12 12.8290 3.1223
18 28 13 -14.6734 4.1980
18 28 14 5.8060 6.3533
18 28 15 0.4758 -1.4702
18 28 16 3.9062 -0.6290
18 28 17 -7.6370 8.7442
18 28 18 4.1014 -2.7016
18 28 19 5.3456 -9.0445
18 28 20 -15.6574 -1.0927
18 28 21 -17.2683 -27.3308
18 28 22 23.1723 4.1150
18 28 23 -9.0079 5.9749
18 28 24 -13.6690 -11.0707
18 28 25 8.9659 6.1179
18 30 0 4.6819 1.2630
18 30 1 -13.6184 7.0848
18 30 2 1.8730 13.6036
18 30 3 4.4652 4.1354
18 30 4 12.1960 -13.2752
18 30 5 3.5151 25.9402
18 30 6 -11.4322 -21.0815
18 30 9 -6.8019 1.1425
18 30 10 7.1829 -4.7120
18 30 11 20.0847 -0.7866
18 30 12 8.7071 -4.0545
19 1 0 27.4418 0.4482
19 1 1 31.9503 3.0944
19 1 2 -56.3368 25.5244
19 1 3 -59.4710 -32.6576
19 1 4 41.7177 1.4108
19 1 5 -8.1925 -24.0868
19 1 6 2.4945 -5.0348
19 1 7 -14.1075 69.6620
19 1 8 -40.5168 23.6546
19 1 9 30.1183 2.2518
19 1 10 -118.2286 -33.5470
19 1 11 -8.4007 -21.1021
19 1 12 15.2510 -40.0414
19 1 13 -24.4473 16.3571
19 1 14 39.9928 -2.7851
19 1 15 -39.8283 -50.0469
19 1 16 22.7896 27.3009
19 1 17 -11.5777 3.0815
19 1 18 26.1098 -9.1243
19 1 19 -18.8690 17.3918
19 1 20 -46.3867 -13.6153
19 1 21 -6.0014 -28.5294
19 1 22 -17.7352 -13.9489
19 1 23 -8.3549 28.2837
19 1 24 8.4626 -8.3006
19 1 25 15.0903 42.0955
19 1 26 -9.3619 1.0769
19 1 27 -14.6946 10.9011
19 1 28 8.1398 9.2459
19 1 29 -13.9058 -11.0204
19 1 30 13.4297 -1.5169
19 1 31 11.8408 -1.9018
19 1 32 -22.4246 -10.9841
19 1 33 -17.0717 -11.5580
19 1 34 10.9183 12.5749
19 1 35 4.7040 -58.0495
19 1 36 28.0036 4.4663
19 1 37 8.5661 3.1077
19 1 38 -0.5643 -5.4872
19 1 39 4.3739 4.5890
19 1 40 -8.0271 -3.7863
19 1 41 -11.5250 -5.8544
19 1 42 2.6021 -38.3683
19 1 43 4.1510 -4.8771
19 1 44 19.2585 -0.4064
19 1 45 11.7570 0.1067
19 1 46 -7.3976 1.8048
19 1 47 -6.6911 13.4711
19 1 48 -21.7487 -9.8751
19 1 49 -9.2107 -5.7121
19 1 50 -21.7104 -7.5320
19 1 51 1.4405 4.3700
19 1 52 9.3681 -2.9172
19 1 53 13.2658 -1.3505
19 3 0 -9.9768 -0.2862
19 3 1 49.9036 -24.9734
19 3 2 1.6164 21.1169
19 3 3 -4.5221 -6.5648
19 3 4 22.6101 3.5394
19 3 5 -3.8898 -16.7243
19 3 6 -3.1915 -16.9537
19 3 7 10.6304 44.4567
19 3 8 37.3968 19.1677
19 3 9 110.9328 -54.7173
19 3 10 44.9446 -68.8322
19 3 11 25.1879 38.2625
19 3 12 15.5650 -9.7588
19 3 13 64.2908 -37.5064
19 3 14 31.7961 30.2879
19 3 15 13.3599 3.0678
19 3 16 -34.1764 27.6856
19 3 17 -23.3639 65.0552
19 3 18 -32.2191 -10.1684
19 3 19 4.5671 26.8231
19 3 20 -53.7941 11.6466
19 3 21 -11.2498 32.5887
19 3 22 -46.6386 10.3582
19 3 23 -19.6027 36.5429
19 3 24 2.7807 11.3546
19 3 25 15.1804 -4.1214
19 3 26 -1.2549 3.6467
19 3 27 -20.8874 -13.4405
19 3 28 12.5576 -27.4054
19 3 29 31.3601 35.0152
19 3 30 -13.1780 -18.9360
19 3 31 -1.9001 1.3183
19 3 32 -22.1910 7.0975
19 3 33 5.8808 1.4856
19 3 34 -8.2727 -14.3557
19 3 35 19.4216 -10.4360
19 3 36 20.0196 3.4161
19 3 37 0.1599 14.7104
19 3 38 11.4841 5.2312
19 3 39 2.8355 -19.0027
19 3 40 -3.2965 6.2429
19 3 41 -13.7392 -1.9584
19 3 42 0.8588 -6.0713
19 3 43 7.5660 3.6658
19 3 44 12.5025 -7.1664
19 3 45 -10.2024 -4.5572
19 3 46 5.1731 0.8522
19 3 47 -0.1397 14.8094
19 3 48 5.8293 -5.6260
19 3 49 26.6151 0.0571
19 3 50 -3.7824 1.4292
19 3 51 0.1053 -0.6316
19 3 52 2.8531 -4.7902
19 5 0 27.3255 1.8607
19 5 1 0.6793 -31.0245
19 5 2 -6.3688 12.9924
19 5 3 4.0255 13.3270
19 5 4 18.6438 -12.5331
19 5 5 -8.9492 -14.6852
19 5 6 -38.7258 20.7583
19 5 7 -26.0657 -9.2222
19 5 8 -12.3320 -32.4791
19 5 9 -0.8841 -4.8510
19 5 10 32.2175 24.4720
19 5 11 14.6801 29.1622
19 5 12 -29.6890 -15.1243
19 5 13 -1.4245 -31.3262
19 5 14 28.6862 28.2417
19 5 15 -0.1755 49.4155
19 5 16 -4.0891 47.7089
19 5 17 -21.8895 -24.3586
19 5 18 -38.2556 24.7073
19 5 19 42.7332 17.0356
19 5 20 -31.4861 34.3880
19 5 21 -7.6665 -20.7136
19 5 22 -39.3418 12.0341
19 5 23 -20.3566 14.3879
19 5 24 -0.5044 -5.5030
19 5 25 30.5616 2.6764
19 5 26 -3.5533 -10.3665
19 5 27 2.0055 17.2855
19 5 28 2.1041 1.1813
19 5 29 5.4055 28.1599
19 5 30 43.9966 -4.3424
19 5 31 -19.5151 2.8012
19 5 32 -37.7727 12.0154
19 5 33 -8.3697 7.2438
19 5 34 10.9108 -4.1695
19 5 35 3.8383 32.2754
19 5 36 5.2711 10.1371
19 5 37 -41.0092 2.7660
19 5 38 -12.6343 31.2747
19 5 39 4.3858 -14.5915
19 5 40 -11.9007 -8.6568
19 5 41 0.8189 -6.3822
19 5 42 3.9549 3.5991
19 5 43 -11.8594 -1.2232
19 5 44 0.1164 -4.8765
19 5 45 0.9281 5.7630
19 5 46 -5.3540 -17.0819
19 5 47 -4.0862 -16.1839
19 5 48 9.6906 8.5278
19 5 49 -4.5231 -3.9736
19 5 50 -10.9618 -0.1697
19 5 51 13.2191 -2.4325
19 7 0 -4.1582 0.9373
19 7 1 10.7113 65.2005
19 7 2 -5.7450 33.9204
19 7 3 -34.6956 -29.7504
19 7 4 -73.1503 9.9390
19 7 5 31.9357 -2.0864
19 7 6 12.6740 33.1358
19 7 7 -19.4817 -29.8289
19 7 8 23.9671 -19.1010
19 7 9 29.3221 -2.8120
19 7 10 36.6969 -44.0616
19 7 11 -20.8969 -18.1232
19 7 12 -27.1140 32.6133
19 7 13 -60.2912 12.0022
19 7 14 -6.6287 -111.9794
19 7 15 17.4180 -8.4858
19 7 16 -19.7479 -28.0458
19 7 17 12.0490 -15.3367
19 7 18 -22.3206 -53.9341
19 7 19 -10.6962 -21.3646
19 7 20 4.8935 -18.5532
19 7 21 -39.7050 -3.5054
19 7 22 20.2161 30.0171
19 7 23 1.5248 46.1069
19 7 24 17.3590 14.8029
19 7 25 28.8234 12.4261
19 7 26 12.1277 33.7249
19 7 27 8.6813 16.6426
19 7 28 -18.7446 51.5416
19 7 29 -14.6101 28.8813
19 7 30 1.1427 45.2219
19 7 31 9.5196 -14.4833
19 7 32 12.9044 0.9924
19 7 33 -9.5160 5.7474
19 7 34 -11.0959 -22.6571
19 7 35 4.4180 -29.1069
19 7 36 30.0799 9.7438
19 7 37 -30.6309 19.4090
19 7 38 -25.6806 -22.3483
19 7 39 -13.3020 -29.7246
19 7 40 -15.7102 -5.9810
19 7 41 7.5096 10.6168
19 7 42 -11.4095 2.1166
19 7 43 11.0469 10.8908
19 7 44 -21.8415 -18.4301
19 7 45 -5.9793 -10.5070
19 7 46 -4.8409 6.6321
19 7 47 -12.0234 11.8576
19 7 48 0.8783 4.4351
19 7 49 -9.4686 -12.3042
19 7 50 9.0721 11.7658
19 7 51 -14.2595 13.2160
19 9 0 -4.6656 0.5601
19 9 1 -34.4257 71.7417
19 9 2 -34.0755 59.3220
19 9 3 -13.5393 -14.2553
19 9 4 -13.0345 8.7662
19 9 5 -9.4540 38.6286
19 9 6 -51.6391 -40.6245
19 9 7 35.5719 -44.2141
19 9 8 -3.3776 -9.6201
19 9 9 1.6126 35.7466
19 9 10 -33.9877 -11.4994
19 9 11 46.4606 -60.9633
19 9 12 -9.6633 -22.9077
19 9 13 74.4098 80.5370
19 9 14 -5.0134 60.7408
19 9 15 -31.6935 -2.3155
19 9 16 -45.2090 -10.7163
19 9 17 4.9962 -3.4320
19 9 18 -3.6231 -11.0252
19 9 19 -26.1872 -16.2268
19 9 20 -43.3551 25.5464
19 9 21 -29.4677 -26.5364
19 9 22 -8.2915 13.9792
19 9 23 -40.2661 21.8971
19 9 24 1.1644 -8.1656
19 9 25 -17.6474 -8.6751
19 9 26 -1.8611 -18.8001
19 9 27 41.8931 -8.4125
19 9 28 -27.8124 -3.3326
19 9 29 -0.2786 -5.8552
19 9 30 -6.3631 -7.6979
19 9 31 -5.2166 5.2717
19 9 32 33.2586 -26.2078
19 9 33 -5.3444 -2.1960
19 9 34 -5.7646 -7.3643
19 9 35 -10.9456 13.8298
19 9 36 57.9871 -42.3363
19 9 37 -51.6823 -46.2337
19 9 38 6.1399 7.1219
19 9 39 -31.1402 9.8387
19 9 40 16.9099 -15.0582
19 9 41 -15.4076 0.9305
19 9 42 11.0735 11.1365
19 9 43 20.6468 -1.4118
19 9 44 -16.5700 3.8402
19 9 45 4.7307 4.6642
19 9 46 1.8379 10.8243
19 9 47 9.1433 2.9934
19 9 48 -15.4537 16.3359
19 9 49 -12.2554 -1.2416
19 9 50 9.3538 8.3627
19 9 51 -2.5060 -12.1724
19 11 0 -4.3161 -4.5424
19 11 1 -70.8410 92.3929
19 11 2 -7.5609 24.6841
19 11 3 94.6360 9.9038
19 11 4 22.1435 94.2373
19 11 5 20.2009 70.1531
19 11 6 8.6967 50.7760
19 11 7 44.8853 13.4282
19 11 8 -6.9581 35.2670
19 11 9 49.4396 -34.9462
19 11 10 15.7397 12.9753
19 11 11 27.1745 -38.7650
19 11 12 12.0939 54.4480
19 11 13 -33.9718 45.3156
19 11 14 65.8599 25.5456
19 11 15 -2.6205 25.2330
19 11 16 8.1141 51.8672
19 11 17 -18.9603 11.4365
19 11 18 -16.9108 11.1000
19 11 19 4.3697 11.4448
19 11 20 -7.7133 -11.4541
19 11 21 26.3915 -4.1503
19 11 22 -12.1343 -21.0121
19 11 23 -25.0789 7.3704
19 11 24 -1.3549 -10.0091
19 11 25 25.7583 9.4489
19 11 26 -29.2603 -18.1815
19 11 27 30.6638 -35.9184
19 11 28 12.3727 -58.7273
19 11 29 -31.4235 -16.9977
19 11 30 29.2782 18.9004
19 11 31 18.9659 -34.2890
19 11 32 -8.3582 -9.9537
19 11 33 8.4061 1.8104
19 11 34 -7.0771 -26.6722
19 11 35 -15.7987 -3.4756
19 11 36 -19.5910 -28.9942
19 11 37 -5.1069 -0.0698
19 11 38 1.9705 -6.9324
19 11 39 5.1126 28.7892
19 11 40 -11.3462 2.7966
19 11 41 3.5683 -7.8279
19 11 42 -13.9606 8.4257
19 11 43 4.7154 19.6022
19 11 44 -2.9881 -5.1168
19 11 45 -4.8649 6.9580
19 11 46 1.8406 7.7241
19 11 47 -4.9697 17.7076
19 11 48 2.9965 -14.4374
19 11 49 -5.9875 1.7972
19 11 50 24.8974 7.7228
19 13 0 -68.4268 1.9365
19 13 1 45.5639 -9.8495
19 13 2 -53.2273 30.8431
19 13 3 75.8208 42.5609
19 13 4 31.6987 -31.9492
19 13 5 -1.3653 23.4612
19 13 6 36.0809 64.3510
19 13 7 11.9711 1.4609
19 13 8 -3.0149 62.5725
19 13 9 20.7482 50.0188
19 13 10 55.8798 11.1112
19 13 11 -40.8795 40.6929
19 13 12 8.9562 -9.8175
19 13 13 5.9550 -22.5484
19 13 14 -20.4912 10.6366
19 13 15 -14.6722 -3.1987
19 13 16 -11.7195 -9.3772
19 13 17 1.4396 8.3804
19 13 18 -6.8032 35.0762
19 13 19 -0.5586 3.7943
19 13 20 21.8267 11.9515
19 13 21 1.8890 -11.2217
19 13 22 -9.1504 -1.1469
19 13 23 21.6260 -30.0690
19 13 24 -2.1689 3.6009
19 13 25 -10.0620 -0.9018
19 13 26 -2.8800 -2.7245
19 13 27 25.4439 2.1697
19 13 28 20.0890 10.4828
19 13 29 15.5307 -25.7003
19 13 30 14.5519 21.5491
19 13 31 -4.8829 -19.1539
19 13 32 3.5708 1.0432
19 13 33 6.6700 -2.4825
19 13 34 10.4823 7.7303
19 13 35 11.9309 0.0711
19 13 36 -8.3753 2.4560
19 13 37 -4.8758 2.3749
19 13 38 -2.2521 1.7850
19 13 39 2.7514 -2.9209
19 13 40 -13.7777 -14.2206
19 13 41 8.0868 10.6716
19 13 42 6.4075 -37.1448
19 13 43 -0.8243 -15.0263
19 13 44 8.0724 -12.8628
19 13 45 9.9293 11.5465
19 13 46 -9.9567 -12.3745
19 13 47 -3.4227 3.7842
19 13 48 -5.7912 24.6584
19 13 49 -4.6800 -3.9708
19 13 50 -5.2678 -0.4426
19 13 51 0.5847 -6.8738
19 15 0 1.1417 2.1529
19 15 1 -22.9615 48.1806
19 15 2 50.4157 16.0726
19 15 3 16.9613 26.7434
19 15 4 26.0330 -21.7901
19 15 5 -7.2565 -6.6444
19 15 6 -7.7388 -7.2925
19 15 7 -49.2964 -2.9807
19 15 8 33.7693 10.1954
19 15 9 -58.1058 15.3559
19 15 10 5.4600 28.0783
19 15 11 7.5836 12.2300
19 15 12 -4.4611 -6.1715
19 15 13 8.1116 53.3192
19 15 14 -14.1114 -26.9052
19 15 15 -13.9102 3.3815
19 15 16 29.4959 -25.8762
19 15 17 0.7472 -19.5861
19 15 18 26.0969 15.7874
19 15 19 -40.4633 19.6729
19 15 20 9.0342 -10.9602
19 15 21 -12.9735 -14.3704
19 15 22 -41.0722 -25.4756
19 15 23 20.8522 -32.6657
19 15 24 -18.1891 -7.8313
19 15 25 -8.6588 -1.6215
19 15 26 -4.9772 -8.7413
19 15 27 -6.4586 -17.2299
19 15 28 -7.2262 10.5961
19 15 29 -4.0597 4.4498
19 15 30 3.8187 -15.5083
19 15 31 29.9155 11.5438
19 15 32 -0.5955 -10.3156
19 15 33 -24.1114 26.8946
19 15 34 -8.4912 13.1871
19 15 35 -2.3241 7.3654
19 15 36 -6.3399 -8.6724
19 15 37 -12.5084 10.8224
19 15 38 -9.2019 20.2018
19 15 39 -3.3720 10.8493
19 15 40 2.1242 16.4226
19 15 41 -29.6963 15.6980
19 15 42 -1.6031 -31.9036
19 15 43 -21.4959 14.6298
19 15 44 5.8683 33.0118
19 15 45 30.6886 8.2705
19 15 47 8.0036 2.4564
19 15 48 -21.7525 136.7338
19 15 49 5.6742 -17.1515
19 15 50 6.5766 0.1278
19 15 51 -13.1210 9.6991
19 15 52 -6.7237 9.7574
19 17 0 24.6785 -0.3692
19 17 1 -7.8465 35.7978
19 17 2 47.0336 -1.9781
19 17 3 4.2755 12.3888
19 17 4 34.0954 -30.7200
19 17 5 9.1783 -30.0361
19 17 6 -13.6835 -32.1444
19 17 7 -16.6435 -29.0731
19 17 8 -44.4292 -1.9984
19 17 9 -22.8580 36.8424
19 17 10 -0.7641 41.4597
19 17 11 23.9867 31.4931
19 17 12 -7.3014 -54.3362
19 17 13 4.7911 31.8493
19 17 14 23.0651 2.9877
19 17 15 -12.8008 23.1895
19 17 16 43.9789 1.3084
19 17 17 -30.0297 -20.3309
19 17 18 35.5398 -13.4523
19 17 19 -3.8157 9.3546
19 17 20 11.1881 -25.4602
19 17 21 38.0366 30.0562
19 17 22 -15.9869 -2.0651
19 17 23 1.7075 2.4461
19 17 24 0.8073 -28.4144
19 17 25 0.8349 -16.6507
19 17 26 1.0402 11.4638
19 17 27 29.0542 -28.0967
19 17 28 -5.2035 20.6569
19 17 29 6.0753 -18.1403
19 17 30 -11.5758 6.8712
19 17 31 -7.0552 -28.5668
19 17 32 6.7427 -2.3379
19 17 33 10.9743 6.5852
19 17 34 -11.9922 7.3407
19 17 35 -1.9242 -5.4664
19 17 36 8.3663 19.4871
19 17 37 8.2926 6.3950
19 17 38 -13.2416 -0.7681
19 17 39 8.6619 -11.8866
19 17 40 18.5259 8.0624
19 19 0 36.7032 -0.5247
19 19 1 18.3290 -26.1482
19 19 2 -11.0801 36.6458
19 19 3 -24.9232 -14.6541
19 19 4 27.3059 -8.2210
19 19 5 25.5046 -17.1841
19 19 6 29.2355 -33.2971
19 19 7 -24.8444 -7.4587
19 19 8 -6.0048 6.2461
19 19 9 0.5707 -5.9318
19 19 10 -21.8241 10.5176
19 19 11 12.0989 50.6910
19 19 12 12.9844 -4.8756
19 19 13 -0.3470 3.3972
19 19 14 13.1556 3.4475
19 19 15 -2.8181 8.2408
19 19 16 -9.0928 16.6698
19 19 17 36.4675 -9.4631
19 19 18 -14.2260 10.2839
19 19 19 -8.6159 31.7292
19 19 20 -11.4824 17.8215
19 19 21 7.8269 12.9049
19 19 22 1.9428 25.2775
19 19 23 6.8817 21.5042
19 19 24 -16.2459 16.8269
19 19 25 -3.3753 15.7866
19 19 26 -4.0582 19.8059
19 19 27 22.7690 7.1924
19 19 28 -2.1375 7.8574
19 19 29 7.2357 18.2652
19 19 30 0.9111 6.9348
19 19 31 13.1944 -6.4307
19 19 32 -0.2938 6.6603
19 19 33 -10.0761 1.4123
19 19 34 7.6128 9.6580
19 19 35 -7.1053 -14.1967
19 19 36 0.6283 13.7531
19 19 37 6.4506 -18.4835
19 19 38 -0.8827 -13.1850
19 19 39 -16.4921 -36.6997
19 19 40 3.9201 0.8623
19 19 41 22.3468 11.5299
19 21 0 28.8115 -1.2201
19 21 1 -8.3140 -7.8357
19 21 2 17.0520 8.1662
19 21 3 40.4074 16.5224
19 21 4 -6.6489 -43.8944
19 21 5 3.0992 15.1771
19 21 6 2.8982 3.4825
19 21 7 9.6128 -21.6482
19 21 8 1.2192 -17.3549
19 21 9 2.7464 -4.1356
19 21 10 -7.3684 20.1346
19 21 11 28.8493 -52.1855
19 21 12 -8.4693 -14.9887
19 21 13 -5.8633 -18.8125
19 21 14 7.7684 -0.7817
19 21 15 2.2606 -0.1823
19 21 16 0.1863 -17.8131
19 21 17 7.0403 2.2227
19 21 18 -18.4492 9.0107
19 21 19 4.6927 -0.6661
19 21 20 11.3306 4.0655
19 21 21 2.1612 13.3801
19 21 22 -3.0797 14.0768
19 21 23 -3.9328 6.2802
19 21 24 -23.9184 -10.6694
19 21 25 -18.9487 -7.8581
19 21 26 -10.9108 0.3993
19 21 27 -9.2579 3.4332
19 21 28 3.8303 10.6932
19 21 29 -0.5730 11.7682
19 21 30 4.0670 12.2263
19 21 31 0.5277 -5.9003
19 21 32 5.3630 -5.9261
19 21 33 -18.1176 -21.0360
19 21 34 -8.1873 0.4308
19 21 35 -10.8685 -9.9874
19 21 36 -6.0060 -19.8058
19 21 37 6.9803 -14.5580
19 21 38 21.9080 20.8488
19 21 39 10.9067 -13.4807
19 23 0 -12.7956 0.8654
19 23 1 8.9387 -19.8599
19 23 2 3.7673 -4.4068
19 23 3 2.8792 20.6724
19 23 4 21.7093 6.4827
19 23 5 10.8854 -37.9921
19 23 6 22.3259 11.8401
19 23 7 7.4987 -10.7118
19 23 8 -16.1151 13.3945
19 23 9 6.2073 -29.4547
19 23 10 8.7161 16.2851
19 23 11 1.9095 1.4845
19 23 12 20.9491 3.9693
19 23 13 6.0515 -14.8170
19 23 14 -12.5138 4.2705
19 23 15 -22.8777 -9.8922
19 23 16 -6.5676 4.7799
19 23 17 -14.9218 6.7039
19 23 18 0.5795 -1.0092
19 23 19 -5.5537 11.6147
19 23 20 7.7215 4.8833
19 23 21 11.2935 3.0075
19 23 22 14.8284 3.5337
19 23 23 7.9404 2.1529
19 23 24 12.0661 4.9548
19 23 25 -6.4984 2.2774
19 23 26 -7.1663 0.1477
19 23 27 13.4354 -13.5939
19 23 28 10.7605 -2.8817
19 23 29 -9.4948 -16.9699
19 23 30 15.0182 10.8145
19 23 31 -0.6636 -4.9940
19 23 32 9.8931 16.4783
19 23 33 -0.0479 5.4661
19 25 0 -33.8774 0.1364
19 25 1 -28.1961 -2.8180
19 25 2 0.0564 5.3922
19 25 3 -6.6146 -3.7240
19 25 4 12.4795 24.4449
19 25 5 -15.9603 12.1538
19 25 6 0.1013 -5.3080
19 25 7 7.9554 -15.6071
19 25 8 -0.7123 18.1131
19 25 9 -3.8079 27.5723
19 25 10 11.1935 -11.9676
19 25 11 5.5050 0.4128
19 25 12 2.8458 -3.3882
19 25 13 -8.4798 -5.5367
19 25 14 -13.0030 -4.8141
19 25 15 -2.4664 -5.7215
19 25 16 13.0406 -0.9405
19 25 17 10.1268 0.2468
19 25 18 16.9817 -19.6529
19 25 19 -1.6866 -5.5196
19 25 20 21.3995 1.6699
19 25 21 -3.8282 -3.5993
19 25 22 28.9290 4.0827
19 25 23 15.4960 1.9441
19 25 24 -6.8774 -3.7735
19 25 25 12.2381 14.7053
19 25 26 -7.6631 -7.3051
19 25 27 -9.4646 -1.2294
19 25 28 -3.3085 15.8178
19 25 29 7.9653 2.6452
19 25 30 -9.5377 -2.4050
19 25 31 5.0700 -20.3245
19 25 32 -2.4255 14.3452
19 27 0 1.7057 -0.3354
19 27 1 -10.9519 0.3941
19 27 2 13.0268 5.7980
19 27 3 1.5854 -13.6704
19 27 4 12.1070 3.5933
19 27 5 -13.8858 -12.5532
19 27 6 -1.5039 -21.0891
19 27 7 3.1523 2.2478
19 27 8 8.4568 5.3214
19 27 9 -4.4466 -6.3093
19 27 10 -0.8900 9.9443
19 27 11 15.5289 -3.4057
19 27 12 2.5306 5.5699
19 27 13 -5.2436 -3.0305
19 27 14 12.0136 2.0364
19 27 15 -10.4613 4.9671
19 27 16 14.7577 5.0793
19 27 17 4.0376 0.6529
19 27 18 14.2944 -8.6269
19 27 19 -0.4206 10.8145
19 27 20 21.3423 -20.8394
19 27 21 -6.1585 8.0853
19 27 22 -5.2055 -26.3407
19 27 23 9.3963 5.4978
19 27 24 3.1003 2.1984
19 27 25 5.2735 -4.6646
19 29 5 -2.8498 3.5122
19 29 6 0.3705 9.0744
19 29 7 -12.4336 -13.9486
19 29 8 2.3440 -2.8902
19 29 9 -3.8025 0.5630
19 29 10 -14.5599 15.4078
19 29 11 15.4250 6.1760
19 29 12 12.4492 -13.3831
19 29 13 -17.7626 9.8225
20 0 0 -28.6424 0.8620
20 0 1 0.6211 -29.3164
20 0 2 -3.4798 -0.1154
20 0 3 -0.6798 -35.1979
20 0 4 36.1158 -1.3214
20 0 5 0.0326 -23.2327
20 0 6 -20.4767 0.2341
20 0 7 0.4629 1.4871
20 0 8 -3.5472 0.0918
20 0 9 -0.3476 -8.6637
20 0 10 2.4752 0.1360
20 0 11 -0.0698 15.4385
20 0 12 -2.5699 0.2695
20 0 13 0.7112 28.8492
20 0 14 -33.4863 -0.4220
20 0 15 0.0630 -13.4585
20 0 16 -0.2413 -0.3760
20 0 17 -0.9907 -10.0188
20 0 18 -7.1580 0.5874
20 0 19 0.2170 13.3745
20 0 20 10.3294 0.0210
20 0 21 0.4041 -32.1691
20 0 22 -25.9005 -0.1552
20 0 23 -0.3535 13.3981
20 0 24 14.4333 0.1829
20 0 25 0.3210 21.8697
20 0 26 -1.0820 -0.5540
20 0 27 0.3625 16.3567
20 0 28 -4.8176 -0.0855
20 0 29 -1.0115 -1.9193
20 0 30 -12.7750 1.1054
20 0 31 -0.5750 -6.2601
20 0 32 24.9245 -0.4206
20 0 33 1.5646 -3.9711
20 0 34 20.8372 -1.3659
20 0 35 0.7381 7.6767
20 0 36 16.1083 1.0177
20 0 37 -1.7626 13.5915
20 0 38 -18.8611 1.1430
20 0 39 -0.7100 11.6678
20 0 40 18.1189 -1.2796
20 0 41 1.5325 12.3610
20 0 42 -11.5734 -0.6034
20 0 43 0.4751 -11.2019
20 0 44 3.2030 1.1066
20 0 45 -1.0318 8.9361
20 0 46 0.3843 0.2049
20 0 47 -0.1453 -18.1108
20 0 48 3.8893 -0.6623
20 0 49 0.5035 12.2439
20 0 50 -11.5427 0.0281
20 0 51 -0.1313 0.1463
20 0 52 -26.5320 0.1573
20 2 0 -0.8937 -1.4358
20 2 1 -49.9205 45.5090
20 2 2 -44.6786 5.6192
20 2 3 -10.6692 45.3535
20 2 4 -37.7439 37.6351
20 2 5 22.2893 -19.7532
20 2 6 -16.2450 15.3012
20 2 7 50.2771 -1.0427
20 2 8 38.7906 -1.7442
20 2 9 -11.4516 -24.0932
20 2 10 16.7365 49.8864
20 2 11 -4.2265 27.7275
20 2 12 -4.9111 -13.6031
20 2 13 -34.9010 14.3191
20 2 14 28.4148 11.4219
20 2 15 17.6439 -7.5500
20 2 16 -5.2358 7.4771
20 2 17 -29.9968 -2.8048
20 2 18 11.7944 -18.8779
20 2 19 -64.6053 -30.9706
20 2 20 -16.3432 44.1984
20 2 21 1.9454 2.0500
20 2 22 25.7766 -25.6391
20 2 23 6.9572 -8.1219
20 2 24 -10.5428 -28.3131
20 2 25 -2.1024 -4.2876
20 2 26 -2.8316 41.3956
20 2 27 -17.4456 -22.2661
20 2 28 -26.2440 26.0680
20 2 29 9.5312 12.8876
20 2 30 -15.6847 3.5353
20 2 31 -8.2429 14.6616
20 2 32 -8.9554 6.9688
20 2 33 -8.6599 -5.8962
20 2 34 -5.3532 5.2527
20 2 35 -12.2955 -27.1285
20 2 36 -8.5119 -1.1179
20 2 37 6.6902 0.6422
20 2 38 -37.2835 -0.0924
20 2 39 12.1742 4.7419
20 2 40 -9.2153 8.2674
20 2 41 -14.0517 -0.0958
20 2 42 11.2878 9.5463
20 2 43 15.7952 -27.4683
20 2 44 -15.2539 -14.2780
20 2 45 3.7212 3.4559
20 2 46 -4.9707 -0.4275
20 2 47 12.7617 -2.3497
20 2 48 -4.5852 -10.2428
20 2 49 14.3966 3.9946
20 2 50 1.1410 -7.0821
20 2 51 -1.6470 7.2652
20 2 52 -36.4078 13.3607
20 4 0 19.6445 -0.0769
20 4 1 -22.4620 38.2507
20 4 2 3.5429 27.3234
20 4 3 -2.8799 31.3677
20 4 4 9.9536 -49.0434
20 4 5 -6.4493 11.1402
20 4 6 -24.5808 -10.7278
20 4 7 0.3220 9.6020
20 4 8 -36.8599 -23.1106
20 4 9 45.8472 -9.9479
20 4 10 -24.9253 6.0129
20 4 11 14.8555 99.1414
20 4 12 -20.3702 -24.9732
20 4 13 21.8998 34.3247
20 4 14 -83.0333 -78.0621
20 4 15 30.5166 14.2537
20 4 16 15.1960 -15.4178
20 4 17 21.9684 -27.7724
20 4 18 -10.0662 -27.9454
20 4 19 -40.4914 -17.0705
20 4 20 -10.7331 33.3233
20 4 21 39.4307 -22.8418
20 4 22 -71.8603 -49.8996
20 4 23 38.4813 10.4861
20 4 24 22.6755 56.9371
20 4 25 -22.4624 -6.0026
20 4 26 -16.4636 -21.1835
20 4 27 -8.2109 -30.0334
20 4 28 -36.8666 12.4611
20 4 29 15.6332 -12.8203
20 4 30 -11.5015 -11.5653
20 4 31 -6.7668 14.8546
20 4 32 18.6242 17.4579
20 4 33 -35.4980 41.1122
20 4 34 12.3950 9.0797
20 4 35 -2.5929 -24.6131
20 4 36 -22.8832 -18.1023
20 4 37 40.2314 -6.8829
20 4 38 -19.2551 -11.1885
20 4 39 -4.2804 -8.4864
20 4 40 -19.9157 5.7329
20 4 41 -0.5039 -0.7043
20 4 42 12.8804 0.0026
20 4 43 -6.4264 -0.8619
20 4 44 7.4592 6.5402
20 4 45 2.4481 -6.9496
20 4 46 -19.0934 6.2159
20 4 47 -1.5858 7.5795
20 4 48 19.0108 3.8619
20 4 49 -11.2422 8.9745
20 4 50 7.3089 3.6191
20 6 0 -10.0596 0.4124
20 6 1 -52.2354 -41.3091
20 6 2 -32.4299 -12.4368
20 6 3 -20.2667 -13.3906
20 6 4 23.0813 4.9761
20 6 5 18.3977 -18.0677
20 6 6 49.2292 26.2156
20 6 7 11.3724 -16.0408
20 6 8 0.5402 -9.6840
20 6 9 53.0813 31.0522
20 6 10 2.7759 -3.1406
20 6 11 15.8693 77.3798
20 6 12 36.9066 10.1743
20 6 13 84.4628 92.4999
20 6 14 -39.0694 5.8402
20 6 15 -50.2371 17.8756
20 6 16 12.4828 -20.3947
20 6 17 -22.1034 -6.6986
20 6 18 -22.6157 -38.4014
20 6 19 25.2403 -12.4225
20 6 20 -58.0287 15.5158
20 6 21 36.5515 36.0556
20 6 22 -10.5581 -8.5756
20 6 23 -7.3995 -6.9410
20 6 24 11.9560 -5.1089
20 6 25 -10.6647 -2.5838
20 6 26 -40.6879 -23.0292
20 6 27 26.4726 -6.3809
20 6 28 29.8994 -9.1001
20 6 29 27.9520 9.5631
20 6 30 -18.8875 -1.2094
20 6 31 -28.9482 -17.3866
20 6 32 7.0134 30.9531
20 6 33 -0.8709 5.6420
20 6 34 -34.2193 6.3902
20 6 35 9.3336 2.3900
20 6 36 -1.8757 -7.2822
20 6 37 -0.8717 -5.8518
20 6 38 -32.8339 2.6924
20 6 39 1.8518 6.1854
20 6 40 -3.4869 -14.7585
20 6 41 -6.7828 13.7360
20 6 42 8.8125 20.5817
20 6 43 10.9000 4.9120
20 6 44 -8.0294 15.4980
20 6 45 -7.3145 -19.1752
20 6 46 -20.3049 1.3331
20 6 47 13.6221 3.6853
20 6 48 -0.9516 -5.4242
20 8 0 -18.2822 1.6561
20 8 1 -63.6575 6.4515
20 8 2 4.6019 -28.5027
20 8 3 -7.9224 -37.0050
20 8 4 -16.1812 -21.3380
20 8 5 -53.1227 20.5658
20 8 6 -18.6378 -85.9019
20 8 7 23.5107 4.1034
20 8 8 -21.6383 -7.6392
20 8 9 12.3004 -2.5409
20 8 10 -22.1948 14.5263
20 8 11 -10.4000 2.8227
20 8 12 -55.0509 -31.7281
20 8 13 4.2415 -22.2834
20 8 14 -2.7117 13.3841
20 8 15 -33.2910 -22.7179
20 8 16 17.8858 25.6211
20 8 17 -16.8160 0.3756
20 8 18 -12.6247 -32.9440
20 8 19 -25.7902 -47.1591
20 8 20 -14.4983 -24.7362
20 8 21 -5.6030 -10.4243
20 8 22 27.1384 61.5018
20 8 23 3.0924 20.3198
20 8 24 -15.4630 10.9444
20 8 25 -29.7315 -8.6241
20 8 26 -6.8735 -20.5467
20 8 27 -29.5909 50.9812
20 8 28 12.4791 -18.3794
20 8 29 1.1408 -8.8872
20 8 30 -1.2682 14.3679
20 8 31 -13.0105 14.4595
20 8 32 5.6819 31.3036
20 8 33 -23.1730 -39.2107
20 8 34 22.2647 27.0191
20 8 35 -6.5693 -6.9731
20 8 36 33.5155 6.6471
20 8 37 10.2128 -0.8524
20 8 38 -1.3396 41.4741
20 8 39 6.4192 10.3655
20 8 40 16.9220 0.3274
20 8 41 22.8272 -15.9058
20 8 42 11.4357 3.8023
20 8 43 -6.0966 13.6894
20 8 44 1.0317 6.4154
20 8 45 -7.8815 20.4999
20 8 46 4.1907 6.2231
20 8 47 16.8827 -9.3379
20 8 48 -6.4862 -16.0041
20 10 0 -39.7785 -0.5316
20 10 1 -27.0201 11.8042
20 10 2 -42.4477 43.3948
20 10 3 -9.9484 -3.7644
20 10 4 -58.4534 39.2688
20 10 5 -70.8213 0.3467
20 10 6 -30.9806 21.6546
20 10 7 -21.1404 -49.6759
20 10 8 5.9056 23.3358
20 10 9 -27.6538 71.3886
20 10 10 -84.0111 -57.7251
20 10 11 -82.8491 -29.5964
20 10 12 2.9534 15.7557
20 10 13 -17.6248 -26.2687
20 10 14 -28.3959 -15.8177
20 10 15 -91.3049 -30.8338
20 10 16 -34.5681 -39.5758
20 10 17 -12.4254 20.8341
20 10 18 -7.6586 9.4946
20 10 19 -34.5513 -7.9707
20 10 20 37.6694 -26.1072
20 10 21 6.1822 -7.9883
20 10 22 -22.0599 36.1892
20 10 23 10.1760 23.8229
20 10 24 50.9201 -2.2770
20 10 25 -28.2388 0.1476
20 10 26 4.0470 7.2210
20 10 27 -15.3554 -39.2236
20 10 28 3.8163 -19.4984
20 10 29 -25.6482 32.4635
20 10 30 13.9317 10.9982
20 10 31 -20.9794 -21.2680
20 10 32 5.4945 -1.1680
20 10 33 -12.4886 7.5052
20 10 34 -4.1254 -17.5710
20 10 35 -4.6707 13.1120
20 10 36 10.4323 2.5606
20 10 37 -3.4253 -4.2442
20 10 38 -4.5364 1.9304
20 10 39 5.8713 -8.5780
20 10 40 9.7270 4.1084
20 10 41 -6.6882 -10.7572
20 10 42 22.1656 0.2953
20 10 43 -1.8796 0.8219
20 10 44 8.5473 13.5168
20 10 45 5.2931 -8.5306
20 10 46 -7.1828 2.1566
20 10 47 -11.4910 8.9228
20 10 48 28.1088 12.2198
20 10 51 -12.6849 -9.9117
20 10 52 -15.2611 -11.4880
20 10 53 -18.3026 -5.6331
20 10 54 -1.5294 -4.2945
20 10 55 -2.2226 10.3887
20 12 0 -15.4092 -2.6172
20 12 1 -78.4488 10.0548
20 12 2 -32.7032 -1.2401
20 12 3 -68.0083 -80.9024
20 12 4 27.5400 87.5417
20 12 5 18.1221 -50.2155
20 12 6 -13.1579 12.2109
20 12 7 -6.6267 29.3108
20 12 8 10.1162 11.9119
20 12 9 1.2622 36.4286
20 12 10 44.6812 -20.2410
20 12 11 35.3787 1.4241
20 12 12 20.2170 -20.4789
20 12 13 31.4555 -15.5068
20 12 14 36.8495 -10.0822
20 12 15 -11.2368 16.1834
20 12 16 24.2851 15.4209
20 12 17 -20.8913 11.9926
20 12 18 11.8868 21.7507
20 12 19 -3.0955 -7.1969
20 12 20 8.8836 33.8180
20 12 21 25.2013 35.0255
20 12 22 14.3747 3.4407
20 12 23 4.6940 11.0279
20 12 24 -24.1229 22.3635
20 12 25 2.8877 22.2513
20 12 26 13.6113 0.9233
20 12 27 -19.0232 11.4040
20 12 28 -6.9031 -28.1360
20 12 29 -12.5043 -17.8057
20 12 30 -21.7138 -32.1191
20 12 31 3.0921 -11.4847
20 12 32 8.7372 5.8621
20 12 33 27.7065 15.8789
20 12 34 -1.7201 -10.4501
20 12 35 6.5143 9.9509
20 12 36 14.4202 1.2571
20 12 37 39.2825 -7.1694
20 12 38 -3.3578 -10.3227
20 12 39 9.0353 23.3172
20 12 40 10.1136 -6.6105
20 12 41 2.4930 7.7601
20 12 42 -3.2390 2.8536
20 12 43 -12.2096 -0.4316
20 12 44 -38.7841 -0.1286
20 12 45 -3.8521 1.7616
20 12 46 7.3455 -10.3918
20 12 52 10.1106 -3.2725
20 12 53 -9.2087 -15.7301
20 14 0 -12.2569 1.9900
20 14 1 -68.1587 44.8170
20 14 2 15.1530 7.9472
20 14 3 -58.8091 2.2706
20 14 4 -14.1357 45.2437
20 14 5 4.1596 -18.6885
20 14 6 -27.2722 42.9956
20 14 7 -33.8952 -19.4635
20 14 8 -3.7722 -12.1598
20 14 9 -20.3265 70.5279
20 14 10 4.6565 19.5474
20 14 11 -82.0248 -55.4522
20 14 12 7.7010 -5.6984
20 14 13 -30.4320 38.2043
20 14 14 -6.5695 -40.1403
20 14 15 15.0133 -27.5713
20 14 16 0.9473 -5.2417
20 14 17 5.9312 28.1007
20 14 18 -10.4319 0.0648
20 14 19 3.6681 -10.0127
20 14 20 1.7525 1.7681
20 14 21 4.8475 15.9829
20 14 22 4.2035 13.3060
20 14 23 -1.0095 0.7665
20 14 24 10.2912 -4.7499
20 14 25 -1.9944 5.0176
20 14 26 -7.2435 -28.6923
20 14 27 0.0843 -13.5075
20 14 28 13.3305 -18.8485
20 14 29 -0.8899 -13.0101
20 14 30 -5.6201 2.4193
20 14 31 19.9263 -4.5838
20 14 32 -9.2478 2.0989
20 14 33 13.0127 -7.6961
20 14 34 7.2976 9.6093
20 14 35 11.0161 6.6939
20 14 36 1.2157 -3.0706
20 14 37 5.8204 -4.7198
20 14 38 1.5098 2.3715
20 14 39 27.1176 17.2529
20 14 40 -20.2681 3.6257
20 14 41 -17.3573 -27.2855
20 14 42 -5.6781 12.4746
20 14 43 -4.8921 7.8726
20 16 0 6.2008 0.6534
20 16 1 -53.6723 32.8962
20 16 2 -51.5820 6.7397
20 16 3 -15.5571 -29.4412
20 16 4 -34.8743 26.0702
20 16 5 -25.6532 35.5303
20 16 6 -19.9323 -57.1578
20 16 7 33.5063 27.5831
20 16 8 -62.7872 11.5610
20 16 9 5.5646 -5.2062
20 16 10 18.3274 -14.8280
20 16 11 22.9401 7.5052
20 16 12 -3.8910 -41.4850
20 16 13 -50.8149 34.8049
20 16 14 -10.9498 7.7927
20 16 15 1.8512 -15.9355
20 16 16 -31.0254 -10.5725
20 16 17 -23.8142 -3.0452
20 16 18 28.6157 -5.2809
20 16 19 -11.1451 -2.6878
20 16 20 -19.0106 1.9272
20 16 21 -3.8546 -18.2072
20 16 22 -14.8461 1.1191
20 16 23 -19.9879 5.7511
20 16 24 19.6741 -1.3612
20 16 25 -5.3537 10.3565
20 16 26 12.2781 -16.5422
20 16 27 1.2270 -2.5339
20 16 28 12.3069 7.8512
20 16 29 -13.7219 -6.3419
20 16 30 18.2839 -5.7406
20 16 31 -14.7776 -6.3309
20 16 32 8.5431 23.4742
20 16 33 -9.0408 18.8159
20 16 34 8.6462 5.3270
20 16 35 -4.7046 -0.2063
20 16 36 -3.8798 -13.3062
20 16 37 -9.2535 -5.5163
20 16 38 -12.9148 8.4299
20 16 39 -30.1161 17.7003
20 18 0 -27.2624 0.1159
20 18 1 -38.0679 -1.6168
20 18 2 -6.2830 38.8088
20 18 3 -64.2948 0.2233
20 18 4 -32.6298 4.1631
20 18 5 -46.5504 -4.8123
20 18 6 -2.5592 28.7861
20 18 7 -1.0270 -38.9822
20 18 8 10.3851 0.1956
20 18 9 43.1487 -7.1440
20 18 10 0.4188 6.1128
20 18 11 39.7829 -13.2759
20 18 12 32.9305 1.0102
20 18 13 52.2572 9.6687
20 18 14 -3.4235 -17.8923
20 18 15 -4.0994 12.2714
20 18 16 4.1912 11.3959
20 18 17 -19.3144 0.8427
20 18 18 -28.1985 10.1763
20 18 19 26.1370 -21.2166
20 18 20 -1.7427 0.6549
20 18 21 8.3086 -0.9314
20 18 22 36.9652 -1.8649
20 18 23 -7.2156 9.1031
20 18 24 -1.6458 -21.0562
20 18 25 -9.7977 5.5706
20 18 26 -6.5517 -7.5110
20 18 27 -11.5036 -12.4950
20 18 28 0.6968 -18.5235
20 18 29 -1.1472 2.5388
20 18 30 -8.2982 -0.6296
20 18 31 -5.5401 -8.4046
20 18 32 -3.7545 15.2725
20 18 33 -3.5224 -10.6306
20 18 34 1.4481 -9.4534
20 18 35 -0.2691 26.7653
20 18 36 -9.9531 -10.9647
20 18 37 -8.3474 -2.5704
20 18 38 -3.2753 -11.8893
20 20 0 -0.5262 -1.0525
20 20 1 -28.2588 22.6501
20 20 2 11.3060 -12.6741
20 20 3 31.1158 17.0450
20 20 4 -13.6198 -8.7932
20 20 5 -13.7929 -2.6834
20 20 6 -17.3812 20.5743
20 20 7 25.0933 -19.3805
20 20 8 10.0887 4.9875
20 20 9 -38.1225 12.5710
20 20 10 -18.6901 4.2796
20 20 11 3.2612 -19.0288
20 20 12 1.5490 -20.2976
20 20 13 -1.4194 42.3288
20 20 14 2.4618 1.8353
20 20 15 4.0965 7.7433
20 20 16 4.5470 -3.2052
20 20 17 -4.2478 13.9472
20 20 18 -17.4625 -1.4864
20 20 19 17.0016 9.1162
20 20 20 2.9579 8.7735
20 20 21 4.8227 -16.2853
20 20 22 10.7423 -5.1076
20 20 23 -23.4995 6.4773
20 20 24 -8.0240 6.7393
20 20 25 -2.6316 -5.6121
20 20 26 0.2217 12.0240
20 20 27 12.9611 1.5021
20 20 28 -4.1473 15.4652
20 20 29 -3.2068 12.3305
20 20 30 -8.2444 -7.9789
20 20 31 0.4068 -4.6732
20 20 32 -6.3051 1.9954
20 20 33 -4.0366 1.2347
20 20 34 -7.4988 -15.4906
20 20 35 2.4534 -3.1673
20 20 36 -7.4903 5.6478
20 20 37 -9.3206 -19.7844
20 20 38 -11.1727 -3.7905
20 22 0 14.0359 -0.4452
20 22 1 -29.6834 31.7015
20 22 2 -1.5989 -5.5189
20 22 3 49.0825 6.1951
20 22 4 -10.1302 -36.6384
20 22 5 12.0190 -8.1786
20 22 6 23.8331 -44.0561
20 22 7 10.0863 -25.4833
20 22 8 -4.1314 28.9401
20 22 9 37.8534 -20.2173
20 22 10 -5.9214 -0.2457
20 22 11 -19.1025 10.8818
20 22 12 -10.0832 -52.4318
20 22 13 37.2213 -3.4591
20 22 14 12.8794 -0.5862
20 22 15 22.5519 -16.4857
20 22 16 1.9247 19.4858
20 22 17 10.1208 16.9098
20 22 18 10.0642 1.4278
20 22 19 -21.9299 2.2898
20 22 20 -20.1129 -20.3602
20 22 21 10.1023 9.8197
20 22 22 19.0301 12.8483
20 22 23 -15.4132 1.3246
20 22 24 -13.2953 11.1648
20 22 25 -7.4489 -2.5977
20 22 26 4.6551 7.1222
20 22 27 15.2845 0.8537
20 22 28 -15.7923 -1.5102
20 22 29 16.3808 -8.6524
20 22 30 12.8639 -8.2332
20 22 31 -5.1003 9.9866
20 22 32 -2.9907 -7.5410
20 22 33 8.4437 10.3574
20 22 34 -7.8933 -12.9974
20 22 35 -1.6385 -16.9786
20 22 36 11.9442 9.0818
20 24 0 21.4554 0.7575
20 24 1 15.8974 0.6506
20 24 2 -3.2708 -1.9068
20 24 3 6.2837 24.0097
20 24 4 18.1224 -1.4993
20 24 5 -0.6575 -12.7732
20 24 6 -15.4210 20.9149
20 24 7 1.2076 -10.0294
20 24 8 38.3280 6.6265
20 24 9 3.0848 17.2498
20 24 10 24.6868 -9.4628
20 24 11 -9.5707 13.6809
20 24 12 -8.6301 0.3143
20 24 13 -6.4315 2.7679
20 24 14 14.5638 13.7679
20 24 15 -1.7910 -8.3811
20 24 16 17.3546 -13.3559
20 24 17 -12.2320 6.3436
20 24 18 17.6705 0.6721
20 24 19 -12.3701 -10.4398
20 24 20 -11.6876 7.4852
20 24 21 -7.7012 -11.9152
20 24 22 -8.3623 -1.4510
20 24 23 -1.7024 1.9067
20 24 24 -7.8657 10.5752
20 24 25 -3.2747 -11.5318
20 24 26 -15.0378 -0.2235
20 24 27 11.5409 7.2344
20 24 28 -12.1762 13.9196
20 24 29 -10.0816 -8.3307
20 24 30 -8.2116 -9.6283
20 24 31 -6.5921 -7.9531
20 24 32 -0.4997 -2.2824
20 26 0 10.3595 0.0602
20 26 1 -1.0313 -2.5531
20 26 2 -2.7466 -3.2943
20 26 3 7.8434 -6.3805
20 26 4 4.4413 1.0597
20 26 5 -10.6335 -15.8740
20 26 6 -12.1408 6.2878
20 26 7 -22.8349 -3.7327
20 26 8 -11.5292 0.1793
20 26 9 -8.5346 4.3535
20 26 10 3.3797 -1.4503
20 26 11 -6.7259 0.5079
20 26 12 7.5301 23.9169
20 26 13 5.0719 5.5913
20 26 14 -11.6933 -1.4951
20 26 15 11.6503 14.7063
20 26 16 -0.4653 6.2783
20 26 17 -5.9437 -4.1952
20 26 18 3.3045 2.5958
20 26 19 9.4188 -0.5246
20 26 20 -0.0670 22.4973
20 26 21 -10.3504 -9.4314
20 26 22 8.4490 3.1400
20 26 23 -7.7205 -0.9314
20 26 24 2.0422 18.2997
20 26 25 -13.1584 -13.8997
20 28 0 -1.7625 -0.0799
20 28 1 -4.6830 8.6552
20 28 2 8.5166 3.7185
20 28 3 3.4400 10.2640
20 28 4 -10.1210 11.4368
20 28 5 2.1948 -5.2180
20 28 6 3.7664 -12.0362
20 28 7 -6.6640 18.3619
20 28 8 10.6647 -17.5867
20 28 9 -8.5739 2.5220
20 28 10 -5.9532 -5.9220
20 28 11 -2.2452 -10.4253
20 28 12 16.7854 -2.1280
20 28 13 -2.2667 19.6298
21 1 0 -47.4851 2.0479
21 1 1 8.5259 10.4381
21 1 2 -80.4973 -13.3006
21 1 3 -2.5354 54.3538
21 1 4 24.8732 44.8586
21 1 5 40.4598 -22.4297
21 1 6 62.8617 -26.0786
21 1 7 25.2789 -0.4488
21 1 8 24.1283 -10.2209
21 1 9 -29.7142 -18.0129
21 1 10 -6.2277 -13.1814
21 1 11 -38.1466 26.4502
21 1 12 -38.5199 8.6294
21 1 13 33.5760 1.6637
21 1 14 -11.5094 -21.8684
21 1 15 -34.1556 -9.6435
21 1 16 22.3458 -0.0093
21 1 17 24.0167 -3.6983
21 1 18 22.1098 9.2721
21 1 19 31.7695 9.7297
21 1 20 -7.0381 -20.4974
21 1 21 -15.2201 -4.4766
21 1 22 -30.8065 -32.0621
21 1 23 -10.4991 -5.9203
21 1 24 -18.8464 -19.6694
21 1 25 -30.7963 16.5750
21 1 26 -15.8648 38.9813
21 1 27 8.9135 -6.0028
21 1 28 -12.4166 -1.9856
21 1 29 8.8079 -18.4192
21 1 30 -6.4456 0.1585
21 1 31 9.0952 -18.7163
21 1 32 -9.4828 6.4321
21 1 33 0.2675 9.1834
21 1 34 6.9540 -4.7017
21 1 35 18.4116 -10.4194
21 1 36 3.8251 -4.9186
21 1 37 17.5423 5.9537
21 1 38 8.0174 6.6366
21 1 39 -13.0337 16.9307
21 1 40 17.1976 -4.8717
21 1 41 -4.5893 9.7712
21 1 42 4.8852 -0.6160
21 1 43 14.7375 6.1824
21 1 44 -16.4478 2.0187
21 1 45 -18.8085 -20.4537
21 1 46 -7.8762 -20.7937
21 1 47 5.9220 -7.7253
21 1 48 -7.8929 -21.7058
21 1 49 12.5586 25.1790
21 1 50 -20.8304 -10.5939
21 3 0 9.2237 -3.4017
21 3 1 48.1047 -50.0238
21 3 2 -8.3696 -17.0089
21 3 3 10.8130 -35.4075
21 3 4 2.3914 -29.4244
21 3 5 -2.8860 4.2701
21 3 6 17.9286 5.6755
21 3 7 19.5148 11.3171
21 3 8 20.9686 -16.0246
21 3 9 1.1584 -0.9044
21 3 10 -38.0550 -21.1467
21 3 11 27.7109 16.5670
21 3 12 -42.1589 31.6409
21 3 13 -25.9134 42.4677
21 3 14 -71.6637 11.6846
21 3 15 32.7181 22.1920
21 3 16 30.1729 2.8010
21 3 17 54.6822 30.5351
21 3 18 -60.0111 -10.7893
21 3 19 33.3944 51.9620
21 3 20 8.4311 -6.3914
21 3 21 -11.0006 40.8158
21 3 22 -23.7775 7.8048
21 3 23 2.1688 -20.2465
21 3 24 7.2907 20.5963
21 3 25 12.2807 -8.5380
21 3 26 8.7992 2.4510
21 3 27 0.8675 26.5411
21 3 28 16.5524 5.4013
21 3 29 -33.3855 -3.2881
21 3 30 3.9667 1.3562
21 3 31 -0.0058 -25.4838
21 3 32 0.8177 -12.7572
21 3 33 5.5069 6.7375
21 3 34 -14.0583 -6.5600
21 3 35 5.8759 0.7210
21 3 36 3.8919 -9.1958
21 3 37 -5.6997 4.7265
21 3 38 10.1409 4.8873
21 3 39 -4.9742 11.2594
21 3 40 -3.7409 6.1603
21 3 41 9.8560 -5.1558
21 3 42 11.5566 -7.7232
21 3 43 -1.7616 4.1105
21 3 44 9.9946 5.0058
21 3 45 0.5489 0.4582
21 3 46 15.7571 -9.3798
21 3 47 -13.4501 -16.3895
21 3 48 2.3247 4.6531
21 3 49 18.1308 8.6515
21 3 50 -9.5117 13.8303
21 5 0 10.6911 -0.1038
21 5 1 -4.6102 -42.0248
21 5 2 23.2909 -27.1804
21 5 3 1.2040 3.8085
21 5 4 -6.9655 -4.1506
21 5 5 19.3313 13.8199
21 5 6 -6.1183 44.9289
21 5 7 22.5079 -5.2496
21 5 8 -37.2700 24.2773
21 5 9 24.6992 2.5770
21 5 10 -0.8012 42.0451
21 5 11 79.4938 14.4074
21 5 12 -6.4194 -9.1983
21 5 13 -50.6305 -12.8269
21 5 14 -36.6323 39.5437
21 5 15 61.1702 25.7208
21 5 16 42.6448 -19.1691
21 5 17 65.4983 7.8382
21 5 18 8.8651 10.2763
21 5 19 19.0317 10.7658
21 5 20 13.7428 8.4908
21 5 21 18.2150 0.3686
21 5 22 -61.4027 55.6868
21 5 23 -27.3667 -5.8152
21 5 24 -24.8925 22.0018
21 5 25 -25.8486 -15.1335
21 5 26 4.3147 31.1619
21 5 27 -28.2595 -5.0650
21 5 28 10.9491 11.6770
21 5 29 3.5977 -17.3154
21 5 30 -20.1285 -10.3078
21 5 31 -20.1204 -3.5173
21 5 32 16.3751 -2.1074
21 5 33 -4.8682 -13.3560
21 5 34 -3.5071 -5.4749
21 5 35 -19.6283 -0.9177
21 5 36 -9.8003 -19.3945
21 5 37 0.8030 -0.0679
21 5 38 0.0760 6.2454
21 5 39 -5.0780 2.3626
21 5 40 5.7434 19.1981
21 5 41 -15.0909 -30.6419
21 5 42 -0.3425 -4.2191
21 5 43 4.1941 4.2738
21 5 44 1.7679 0.9296
21 5 45 -6.1699 14.1049
21 5 46 -10.6026 5.6672
21 5 47 13.7172 23.7983
21 5 48 3.1605 -10.1234
21 5 49 -11.7982 6.5304
21 5 50 8.1748 -2.2870
21 5 54 -5.7115 2.2425
21 7 0 -19.0695 0.0941
21 7 1 9.3403 22.6088
21 7 2 3.9876 -18.0349
21 7 3 -1.6735 -4.1464
21 7 4 -48.7485 -5.0871
21 7 5 -18.3105 12.6151
21 7 6 -20.7728 6.6230
21 7 7 53.5657 6.1607
21 7 8 -3.6989 -28.3355
21 7 9 -19.3392 -7.9632
21 7 10 -32.5959 16.5162
21 7 11 1.7674 16.8676
21 7 12 6.0570 -7.2233
21 7 13 -2.8760 14.5476
21 7 14 -19.2594 42.3044
21 7 15 8.4846 4.7029
21 7 16 -23.2272 -11.4232
21 7 17 26.8515 -40.5809
21 7 18 21.2985 -8.7486
21 7 19 29.9249 -54.7874
21 7 20 -11.2408 -0.9099
21 7 21 -8.1732 -19.1652
21 7 22 -5.9054 -41.4242
21 7 23 13.9129 -30.5586
21 7 24 -5.4033 43.2468
21 7 25 -17.3047 -8.4020
21 7 26 -43.5409 -52.0139
21 7 27 -6.5720 42.0314
21 7 28 17.7760 -21.4613
21 7 29 9.4470 15.1782
21 7 30 18.7268 -5.3005
21 7 31 15.4763 32.2867
21 7 32 9.1518 -7.6182
21 7 33 -1.0020 -2.8916
21 7 34 -16.9973 -30.6388
21 7 35 -2.1453 3.8167
21 7 36 -4.3866 18.0385
21 7 37 8.6816 3.0044
21 7 38 16.2613 2.2861
21 7 39 -6.1766 11.3633
21 7 40 24.1544 12.1723
21 7 41 -3.7250 17.4303
21 7 42 6.3610 -5.2885
21 7 43 6.0449 -3.4595
21 7 44 7.6984 -9.8567
21 7 45 3.5918 18.9713
21 7 46 0.1532 4.9503
21 7 47 9.2375 -11.0848
21 7 48 -6.3677 -9.8688
21 9 0 21.2400 2.0112
21 9 1 -17.1529 -3.7313
21 9 2 6.5220 -4.6815
21 9 3 2.1957 15.3726
21 9 4 -8.1225 27.7414
21 9 5 22.1795 -27.2116
21 9 6 32.9385 26.0430
21 9 7 -44.5908 -3.6150
21 9 8 -7.2923 24.7237
21 9 9 2.3883 -61.9859
21 9 10 -19.6413 5.3434
21 9 11 35.5974 -20.3375
21 9 12 -3.5354 17.5763
21 9 13 -53.8513 -33.1946
21 9 14 6.2844 -14.2940
21 9 15 8.5418 -34.2542
21 9 16 -1.1632 1.3980
21 9 17 -7.7663 -3.0011
21 9 18 -1.7257 9.3902
21 9 19 -16.2631 33.5212
21 9 20 3.9866 -38.5259
21 9 21 -6.4880 0.2487
21 9 22 41.6387 40.2455
21 9 23 10.6628 -31.8140
21 9 24 -28.2631 -10.2813
21 9 25 36.8070 48.3352
21 9 26 -17.6132 1.7275
21 9 27 -20.8667 -1.9481
21 9 28 1.8045 -16.7776
21 9 29 8.4023 19.9869
21 9 30 12.6003 -2.2671
21 9 31 14.2183 13.5550
21 9 32 -4.8025 9.1065
21 9 33 -25.4100 3.7053
21 9 34 3.2798 -2.1666
21 9 35 -9.2582 -14.5172
21 9 36 9.1277 11.5241
21 9 37 -29.0337 8.0539
21 9 38 5.3352 -6.6490
21 9 39 25.1897 7.8832
21 9 40 14.4122 24.2455
21 9 41 3.2456 -0.6851
21 9 42 -1.6982 -5.3914
21 9 43 13.7244 -5.7370
21 9 44 -1.8883 -16.7590
21 9 45 8.7387 12.5389
21 9 46 -11.8084 7.2671
21 9 47 -13.3514 -8.9135
21 9 48 9.4425 2.3078
21 9 49 3.2780 8.5088
21 11 0 -46.2460 -0.0858
21 11 1 22.0483 -70.0110
21 11 2 -16.3958 -30.7351
21 11 3 28.8171 20.8235
21 11 4 26.3384 -20.0386
21 11 5 27.8788 -21.1734
21 11 6 37.1273 -34.9581
21 11 7 76.3861 -0.3322
21 11 8 -32.8109 33.7281
21 11 9 -24.4337 -3.3412
21 11 10 13.0339 -10.9592
21 11 11 -37.4031 17.6512
21 11 12 91.3340 -39.5192
21 11 13 -37.1859 -31.1770
21 11 14 32.2466 37.4691
21 11 15 12.2583 -13.3877
21 11 16 -4.6690 4.7506
21 11 17 -21.1612 18.9446
21 11 18 17.1287 -20.8565
21 11 19 -8.0763 8.7920
21 11 20 -9.8714 -8.0807
21 11 21 -3.8277 0.1830
21 11 22 -9.4209 -0.2013
21 11 23 14.8791 -0.9834
21 11 24 -23.5815 -15.9854
21 11 25 5.7320 27.1670
21 11 26 0.8838 2.5476
21 11 27 -0.0056 -1.0408
21 11 28 15.1424 -12.9524
21 11 29 11.9446 11.2731
21 11 30 8.3066 12.1659
21 11 31 -10.0208 -13.1108
21 11 32 12.7001 16.4075
21 11 33 -9.0275 -8.0528
21 11 34 40.0070 -13.8536
21 11 35 -9.1022 14.2268
21 11 36 -12.2706 -18.8542
21 11 37 -13.2698 4.4330
21 11 38 -3.5671 -11.7894
21 11 39 6.0872 -2.7341
21 11 40 -2.8235 14.1271
21 11 41 11.9017 -6.5493
21 11 42 -9.4865 -8.9550
21 11 43 9.1716 7.1485
21 11 44 -7.5165 -1.8954
21 11 45 -29.4915 7.5688
21 13 0 -28.9608 -1.9045
21 13 1 -42.0876 -7.2103
21 13 2 -8.2216 5.3671
21 13 3 -25.7928 6.1348
21 13 4 -42.2934 -59.7108
21 13 5 12.9239 26.1422
21 13 6 75.6518 -5.8473
21 13 7 52.5479 -33.8755
21 13 8 38.5324 3.5594
21 13 9 -28.9437 -23.8920
21 13 10 34.0457 56.7514
21 13 11 -33.2968 -14.7273
21 13 12 3.8139 9.5474
21 13 13 51.8659 -11.8078
21 13 14 -42.9291 -8.5582
21 13 15 32.2558 13.2640
21 13 16 -12.5202 -1.3057
21 13 17 29.0635 36.3964
21 13 18 -34.6186 -12.4845
21 13 19 27.8468 -7.4708
21 13 20 -13.0752 -7.1469
21 13 21 11.6292 -13.1950
21 13 22 -34.8640 7.6695
21 13 23 -24.3768 -1.6542
21 13 24 4.8146 -8.3093
21 13 25 -14.5317 -6.5387
21 13 26 -10.0262 -14.6752
21 13 27 15.1160 15.8304
21 13 28 -2.2684 8.9081
21 13 29 11.4268 11.3603
21 13 30 21.6158 -4.1630
21 13 31 12.1524 8.0763
21 13 32 8.4521 -18.6683
21 13 33 -5.3417 11.0095
21 13 34 -0.8179 -3.1056
21 13 35 19.4705 10.1961
21 13 36 10.8679 -1.8914
21 13 37 -12.0599 -3.7458
21 13 38 -12.1743 14.1396
21 13 39 -5.6722 -19.3588
21 13 40 -6.3066 -2.3613
21 13 41 0.0053 -2.5844
21 13 42 -1.2921 10.9884
21 13 43 -15.6045 -3.5694
21 13 44 -11.9900 4.0577
21 15 0 0.9606 0.9595
21 15 1 49.6728 -24.4269
21 15 2 -21.0538 -6.7917
21 15 3 10.6282 -0.0109
21 15 4 13.8912 18.0529
21 15 5 -10.8459 10.3002
21 15 6 -6.6681 -13.6793
21 15 7 25.1065 55.9536
21 15 8 39.5164 -24.8031
21 15 9 19.9988 -39.8026
21 15 10 -0.6051 41.2103
21 15 11 -4.9806 1.4164
21 15 12 11.4090 10.1769
21 15 13 3.7463 2.1385
21 15 14 -43.1288 -28.4668
21 15 15 15.7311 -5.5016
21 15 16 13.0093 -6.6478
21 15 17 -0.3759 3.7476
21 15 18 -33.6682 10.1089
21 15 19 4.9323 -4.3290
21 15 20 25.1959 9.9141
21 15 21 -11.6685 -3.1013
21 15 22 -30.5739 0.4227
21 15 23 -7.1792 5.8294
21 15 24 -4.8972 10.5809
21 15 25 13.6683 4.2663
21 15 26 9.2452 10.4964
21 15 27 -10.4777 -1.9752
21 15 28 -15.6067 6.8251
21 15 29 15.8122 -3.1826
21 15 30 -9.4598 14.5020
21 15 31 15.7761 7.4306
21 15 32 5.6451 -0.5931
21 15 33 -11.3275 -10.2840
21 15 34 16.8934 6.1251
21 15 35 -12.7272 -7.4245
21 15 36 -23.2374 -1.0356
21 15 37 -14.0395 -5.6895
21 15 38 1.1341 -3.4710
21 15 39 9.4412 11.5867
21 15 40 1.0155 -17.8002
21 17 0 -2.5107 0.5523
21 17 1 0.8552 -21.3891
21 17 2 25.9416 46.8576
21 17 3 -26.2983 -27.3488
21 17 4 44.5929 33.1938
21 17 5 -18.1944 25.6433
21 17 6 -3.2329 13.1796
21 17 7 -24.2935 49.4673
21 17 8 -8.6909 -3.7241
21 17 9 -32.6054 55.9222
21 17 10 17.0040 -36.1414
21 17 11 -30.6438 35.3536
21 17 12 13.4189 2.5017
21 17 13 -4.4890 16.0044
21 17 14 -3.9597 8.0745
21 17 15 -18.3700 -14.4449
21 17 16 -20.3205 -5.3869
21 17 17 20.8110 8.3691
21 17 18 -7.8267 7.2956
21 17 19 -45.5789 19.8362
21 17 20 15.1987 16.1655
21 17 21 28.3405 -4.1185
21 17 22 1.1466 -39.7709
21 17 23 -15.1839 3.3548
21 17 24 -6.4586 1.9594
21 17 25 5.9533 -14.3728
21 17 26 7.7346 7.8614
21 17 27 5.9722 -7.8088
21 17 28 8.4711 6.2316
21 17 29 -17.5733 14.4316
21 17 30 -14.9197 10.4924
21 17 31 -2.8894 -11.1593
21 17 32 13.2283 23.3788
21 17 33 -7.2644 -15.8425
21 17 34 3.5597 -7.5724
21 17 35 5.3505 3.9350
21 17 36 -3.8910 4.7483
21 17 37 -4.4004 -0.3331
21 17 38 -6.5161 -19.7080
21 19 0 4.0250 -0.7598
21 19 1 -9.9211 11.6918
21 19 2 17.0100 2.5649
21 19 3 13.5242 1.1356
21 19 4 -3.1315 0.7058
21 19 5 13.9871 10.4412
21 19 6 19.8529 -13.8977
21 19 7 -4.7095 16.9205
21 19 8 16.0460 4.5673
21 19 9 -8.1251 8.1601
21 19 10 35.6066 -20.3178
21 19 11 -61.7409 -4.1627
21 19 12 1.0040 24.7739
21 19 13 3.1070 -16.8171
21 19 14 -35.8592 25.3313
21 19 15 16.7143 5.1789
21 19 16 -12.6031 -3.0169
21 19 17 11.9712 -10.5662
21 19 18 23.2515 -9.8323
21 19 19 0.2936 19.9916
21 19 20 -17.7781 -28.1031
21 19 21 6.2719 2.9558
21 19 22 1.3357 7.1378
21 19 23 3.2843 -2.5552
21 19 24 17.6148 7.7637
21 19 25 13.8645 -13.4617
21 19 26 -2.2467 -8.7048
21 19 27 0.4448 13.7119
21 19 28 10.3079 7.4442
21 19 29 -14.2611 -0.0397
21 19 30 -1.4809 -13.3971
21 19 31 14.0908 -5.8746
21 19 32 -10.0805 4.4090
21 19 33 8.3678 8.4232
21 19 34 1.5046 3.0421
21 19 35 6.2160 -2.5587
21 19 36 13.7900 -2.7979
21 19 37 -6.5569 -2.1793
21 19 38 -19.0855 9.4348
21 19 39 -19.0750 6.2543
21 21 0 14.1936 0.1626
21 21 1 18.7767 -3.3746
21 21 2 14.8701 -6.9242
21 21 3 23.2384 -19.5820
21 21 4 20.5601 10.1584
21 21 5 3.4259 -19.4858
21 21 6 -16.9050 -11.6862
21 21 7 9.0670 18.6402
21 21 8 25.0156 17.9280
21 21 9 24.6269 -35.5012
21 21 10 22.5088 11.5441
21 21 11 -12.8071 -16.8930
21 21 12 -13.2013 6.5234
21 21 13 2.7450 -12.2062
21 21 14 -22.7120 -31.9421
21 21 15 -14.9881 27.6444
21 21 16 3.7986 14.9039
21 21 17 0.2780 -12.8785
21 21 18 7.9631 -25.9573
21 21 19 -0.3316 13.6108
21 21 20 -16.2579 -13.0728
21 21 21 12.7899 7.6920
21 21 22 -14.3063 6.4688
21 21 23 5.9486 6.6785
21 21 24 -22.4030 15.6645
21 21 25 2.7336 7.5711
21 21 26 -10.2130 1.9962
21 21 27 -0.1699 -5.7112
21 21 28 -20.8074 8.4217
21 21 29 -15.9866 9.8639
21 21 30 -0.0883 -1.1237
21 21 31 0.0597 19.2004
21 21 32 -14.2124 4.1157
21 21 33 -15.6729 -12.3777
21 21 34 13.2784 -21.0658
21 21 35 5.0144 27.4598
21 21 36 13.5744 -1.0498
21 23 0 13.6915 0.0168
21 23 1 -39.5546 16.2972
21 23 2 4.4491 16.4853
21 23 3 -4.3164 1.9006
21 23 4 6.6448 5.6175
21 23 5 -4.8008 18.1950
21 23 6 23.3567 -31.9887
21 23 7 23.4759 -29.8901
21 23 8 -8.6558 -5.7619
21 23 9 5.9996 6.6787
21 23 10 22.3069 -7.8193
21 23 11 5.5858 7.7403
21 23 12 -14.0736 9.6806
21 23 13 2.3479 -4.5124
21 23 14 -21.2122 -15.5198
21 23 15 -12.0090 -6.8736
21 23 16 -6.7140 2.9792
21 23 17 -6.2622 -1.8641
21 23 18 -3.8803 5.9318
21 23 19 -16.2155 17.9290
21 23 20 -13.5007 -13.4772
21 23 21 6.9789 -9.4125
21 23 22 6.1713 -5.2962
21 23 23 -25.0859 -13.6403
21 23 24 7.5419 1.3225
21 23 25 16.1426 5.5146
21 23 26 -0.5021 2.3645
21 23 27 -58.6451 -59.3849
21 23 28 13.0932 2.0666
21 23 29 -46.9977 4.8307
21 23 30 3.9294 -2.9519
21 25 0 2.7034 0.1091
21 25 1 -10.6837 10.5888
21 25 2 -4.0587 14.1011
21 25 3 -11.3423 -5.3422
21 25 4 -9.7480 23.6613
21 25 5 -15.3676 9.0651
21 25 6 18.4420 -7.6551
21 25 7 10.8005 14.9535
21 25 8 2.5615 10.2305
21 25 9 18.3502 -9.1961
21 25 10 -14.3131 -14.4637
21 25 11 -5.4714 11.3083
21 25 12 -0.3633 8.9769
21 25 13 21.8190 1.5690
21 25 14 -1.5165 -11.8511
21 25 15 -11.0156 -4.9360
21 25 16 -1.5040 -0.2555
21 25 17 6.5485 -4.2504
21 25 18 6.1022 -22.7786
21 25 19 7.2371 -6.1747
21 25 20 4.2766 -2.2118
21 25 21 5.4650 -5.4217
21 25 22 7.6970 5.9848
21 25 23 -3.1518 -3.6485
21 25 24 10.3086 -2.8259
21 25 25 -9.3196 11.4958
21 27 3 3.6859 -23.2990
21 27 4 -6.6246 -7.4681
21 27 5 -19.1267 1.4078
21 27 6 0.2729 3.1507
21 27 7 -0.6857 -14.8528
21 27 8 -11.9398 -1.2259
21 27 9 15.8138 9.0629
21 27 10 1.8038 11.4139
21 27 11 -15.7062 -1.2428
21 27 12 -7.0411 14.4408
21 27 13 -2.2819 -3.4812
22 0 0 3.6061 2.7762
22 0 1 -1.8793 -2.0104
22 0 2 -1.3824 0.2357
22 0 3 2.9565 16.2869
22 0 4 3.0972 -2.4628
22 0 5 1.4528 7.2537
22 0 6 -22.6067 0.7561
22 0 7 -1.6176 -21.1053
22 0 8 -10.3720 1.8076
22 0 9 -1.0910 3.8890
22 0 10 15.3321 -1.3362
22 0 11 0.5009 31.9881
22 0 12 6.3302 -0.4179
22 0 13 0.6891 9.2533
22 0 14 9.1470 1.2686
22 0 15 0.2884 26.1552
22 0 16 -0.0585 -0.2378
22 0 17 -0.6828 -5.2813
22 0 18 6.6062 -1.1626
22 0 19 -0.3878 -7.7263
22 0 20 -23.8668 0.5254
22 0 21 0.3922 -5.0719
22 0 22 2.5049 0.7527
22 0 23 0.2083 23.0248
22 0 24 4.3589 -0.4718
22 0 25 -0.0582 -19.2853
22 0 26 -4.2640 -0.1365
22 0 27 0.0793 16.0507
22 0 28 -22.2625 0.3322
22 0 29 -0.3521 -1.8400
22 0 30 5.7788 -0.5546
22 0 31 -0.0649 21.3470
22 0 32 -18.4183 -0.1127
22 0 33 0.8726 1.9708
22 0 34 -3.9714 1.0426
22 0 35 -0.1487 15.0383
22 0 36 -17.9217 -0.0608
22 0 37 -1.2165 3.2665
22 0 38 9.9260 -1.2346
22 0 39 0.4508 -23.9392
22 0 40 17.9191 0.0973
22 0 41 0.9991 -5.8105
22 0 42 3.5829 1.0028
22 0 43 -0.5051 -11.5006
22 0 44 7.0542 -0.1585
22 0 45 -0.6160 12.6328
22 0 46 -33.4975 -0.5104
22 0 47 0.4171 -0.4004
22 0 48 7.5400 0.1504
22 2 0 108.3364 -0.0061
22 2 1 -48.7744 31.4046
22 2 2 35.1234 -2.7577
22 2 3 -9.9914 -16.8044
22 2 4 28.6969 -85.4396
22 2 5 -0.3764 -7.7808
22 2 6 -25.9283 36.1706
22 2 7 -14.2512 -9.6937
22 2 8 2.2195 -11.2513
22 2 9 2.5778 5.1174
22 2 10 -58.7970 -1.1886
22 2 11 10.3844 21.7129
22 2 12 5.7526 2.8079
22 2 13 -1.0598 -1.5908
22 2 14 7.2675 21.6753
22 2 15 17.5225 14.1888
22 2 16 14.1675 0.7513
22 2 17 22.2465 -22.5871
22 2 18 -44.7963 9.9522
22 2 19 -9.0684 -2.6097
22 2 20 -12.8651 7.4502
22 2 21 -37.5917 6.4289
22 2 22 20.7713 -12.4506
22 2 23 -54.9782 -30.0767
22 2 24 -12.2641 19.7756
22 2 25 2.3116 -2.7263
22 2 26 7.6029 5.2905
22 2 27 -15.3968 8.0845
22 2 28 -18.0146 26.3765
22 2 29 1.7623 16.6487
22 2 30 15.3399 -3.1259
22 2 31 -22.4731 18.0048
22 2 32 13.5202 -9.3118
22 2 33 3.2216 -13.6766
22 2 34 -29.8259 6.5738
22 2 35 0.4772 2.1274
22 2 36 7.5818 5.5615
22 2 37 17.9448 -5.1174
22 2 38 14.8092 5.5211
22 2 39 -2.6291 -7.3372
22 2 40 -3.2398 18.8085
22 2 41 0.4382 -6.5796
22 2 42 -4.0352 3.1372
22 2 43 -0.7523 3.5167
22 2 44 -14.0043 22.2787
22 2 45 1.1413 11.8328
22 2 46 14.0698 -24.7541
22 2 47 2.4569 11.0652
22 4 0 10.3469 -3.2825
22 4 1 -52.8476 -62.9985
22 4 2 -43.0534 17.2925
22 4 3 -24.0697 -25.0564
22 4 4 -6.9507 40.4807
22 4 5 -21.4020 -26.0699
22 4 6 -0.4917 10.8830
22 4 7 23.2555 -16.2469
22 4 8 7.4133 14.9277
22 4 9 -7.7519 10.8602
22 4 10 -40.9334 -6.2488
22 4 11 -31.8180 15.7106
22 4 12 11.5149 -32.9158
22 4 13 -43.2143 -52.7562
22 4 14 16.9336 -7.5260
22 4 15 35.8824 -31.1483
22 4 16 6.2374 -18.1453
22 4 17 17.6121 -47.4354
22 4 18 -3.4972 31.6535
22 4 19 28.2698 -10.3448
22 4 20 8.0104 21.4938
22 4 21 -41.6078 35.6525
22 4 22 38.9507 -10.1018
22 4 23 10.9494 -24.6243
22 4 24 39.5751 13.9167
22 4 25 -0.9962 2.4735
22 4 26 16.6666 -12.2061
22 4 27 -14.7676 -2.4666
22 4 28 9.1938 21.3534
22 4 29 -2.6872 2.7949
22 4 30 -11.3849 -4.5658
22 4 31 0.8177 11.8201
22 4 32 2.8322 15.9006
22 4 33 -10.3749 4.6667
22 4 34 -0.6254 -28.1348
22 4 35 7.5588 -8.3816
22 4 36 0.0627 6.2297
22 4 37 4.7482 3.6393
22 4 38 -4.9667 0.0717
22 4 39 3.5456 -0.3878
22 4 40 -3.3789 -3.0023
22 4 41 -2.9968 7.3801
22 4 42 -16.7332 -1.1628
22 4 43 -3.1001 -0.4899
22 4 44 -5.2849 -2.0404
22 4 45 -2.6065 -15.1480
22 4 46 -5.2389 4.8823
22 4 47 2.6866 20.2925
22 6 0 12.9453 -0.7771
22 6 1 -35.0375 -27.6761
22 6 2 -26.9776 6.0704
22 6 3 -0.7436 16.2027
22 6 4 3.5486 -10.3417
22 6 5 -82.3286 33.9213
22 6 6 38.2885 42.2799
22 6 7 -22.2394 -9.0441
22 6 8 -9.3550 -60.2778
22 6 9 -11.2166 -4.7661
22 6 10 -17.8028 -8.9944
22 6 11 -29.9455 -14.5164
22 6 12 -22.2154 22.1396
22 6 13 -21.2037 -34.2548
22 6 14 2.9333 10.8062
22 6 15 19.5849 -35.7379
22 6 16 -28.8339 19.1637
22 6 17 10.2619 -58.4700
22 6 18 -14.1776 38.0729
22 6 19 -10.1333 22.0554
22 6 20 -8.0336 3.4967
22 6 21 -48.2607 20.2408
22 6 22 34.2499 0.0707
22 6 23 -11.0600 -11.4571
22 6 24 30.9632 -2.6687
22 6 25 -37.1917 9.5377
22 6 26 -24.2678 -8.7478
22 6 27 9.1995 -6.4181
22 6 28 -26.8621 5.1590
22 6 29 7.6597 -8.2412
22 6 30 12.7349 -2.8541
22 6 31 6.9171 -5.7651
22 6 32 25.1035 0.0348
22 6 33 9.8280 -9.0145
22 6 34 -5.3351 0.7369
22 6 35 -10.6260 10.0434
22 6 36 10.4848 -13.4174
22 6 37 1.4201 -1.6104
22 6 38 20.9528 -1.8467
22 6 39 -11.8935 22.4487
22 6 40 0.6824 10.5629
22 6 41 0.1370 8.4315
22 6 42 0.4684 22.7857
22 6 43 0.8721 8.7552
22 6 44 1.2644 -0.3834
22 6 45 4.4132 4.2077
22 8 0 -28.8191 1.0360
22 8 1 57.7805 -40.4121
22 8 2 19.4867 6.3553
22 8 3 -32.2189 10.6583
22 8 4 7.4199 30.8929
22 8 5 -4.8663 18.7554
22 8 6 12.6382 25.6440
22 8 7 -27.8216 -37.0360
22 8 8 -33.7742 22.1353
22 8 9 8.0493 -20.5100
22 8 10 12.4199 17.9298
22 8 11 -14.7686 -10.7183
22 8 12 -11.3940 3.1652
22 8 13 -9.6679 25.0189
22 8 14 -18.3206 33.5179
22 8 15 11.8320 55.7158
22 8 16 -8.3557 5.3017
22 8 17 -24.2008 22.3624
22 8 18 10.2469 16.5306
22 8 19 -9.4295 12.7801
22 8 20 5.7026 2.4338
22 8 21 -25.3321 -20.3605
22 8 22 -10.2816 -1.6754
22 8 23 27.7604 -17.5345
22 8 24 -1.9478 14.8289
22 8 25 15.3777 0.3537
22 8 26 12.4490 16.3744
22 8 27 26.0897 -5.2015
22 8 28 -1.5819 -4.6415
22 8 29 -8.1102 -9.4416
22 8 30 2.9115 23.2749
22 8 31 22.5825 12.0736
22 8 32 -10.5964 -0.5106
22 8 33 15.0399 0.2733
22 8 34 -16.5752 0.1832
22 8 35 -10.4980 6.3954
22 8 36 -23.7824 7.8307
22 8 37 -9.5662 2.2999
22 8 38 -11.5612 -1.3126
22 8 39 -4.2423 -10.4996
22 8 40 1.0203 17.8641
22 8 41 -1.5503 -12.3575
22 8 43 25.8109 -12.4477
22 8 44 12.0182 -6.2869
22 10 0 34.0214 2.2656
22 10 1 -1.8741 -25.1801
22 10 2 25.3423 9.2312
22 10 3 4.2963 4.7306
22 10 4 -12.4393 24.8375
22 10 5 10.2145 7.7657
22 10 6 -24.3824 -7.2729
22 10 7 -2.1810 21.9957
22 10 8 -23.6540 8.2096
22 10 9 -19.4228 -36.1761
22 10 10 23.7997 -15.4777
22 10 11 -9.5079 24.9490
22 10 12 -9.8805 -29.4536
22 10 13 15.8611 17.0285
22 10 14 -27.1241 -13.1621
22 10 15 -24.5857 -2.8788
22 10 16 29.9430 26.4572
22 10 17 17.6312 8.0878
22 10 18 35.0330 16.6675
22 10 19 5.9827 35.5743
22 10 20 -10.1568 5.9192
22 10 21 -11.8848 -33.1128
22 10 22 -24.8879 -34.7330
22 10 23 9.1415 -9.3642
22 10 24 -43.0813 18.2099
22 10 25 -18.6789 -6.0857
22 10 26 -21.6080 5.8858
22 10 27 -14.7023 -6.6911
22 10 28 -25.1384 14.1934
22 10 29 -13.0561 -42.5158
22 10 30 -8.0543 -0.5780
22 10 31 25.2771 22.6077
22 10 32 13.9427 -0.9422
22 10 33 14.7459 23.9223
22 10 34 -0.3954 -6.2378
22 10 35 -1.8901 -3.1738
22 10 36 5.3731 3.7715
22 10 37 -1.1264 -5.9120
22 10 38 -4.0778 -4.8362
22 10 39 -6.5691 10.5982
22 10 40 4.9765 7.1384
22 10 41 -6.2313 -5.0070
22 10 42 -16.1718 -0.9110
22 12 0 42.9245 -0.8721
22 12 1 6.2575 -0.0026
22 12 2 31.8897 43.3781
22 12 3 -45.1697 -26.0937
22 12 4 4.0304 27.3606
22 12 5 -5.3218 -16.8535
22 12 6 21.6723 41.9443
22 12 7 -0.6470 -6.5752
22 12 8 -17.5654 10.7301
22 12 9 -25.3966 -22.4592
22 12 10 17.8733 -4.3622
22 12 11 -16.3006 -13.3941
22 12 12 -2.5078 -33.3013
22 12 13 -28.5513 9.3195
22 12 14 -9.8709 -16.6593
22 12 15 8.4763 -28.8876
22 12 16 -15.4728 -2.3194
22 12 17 2.6922 -5.9961
22 12 18 -0.3204 -25.3603
22 12 19 -6.7385 -16.2018
22 12 20 15.6442 -5.3167
22 12 21 -2.7240 -1.7262
22 12 22 -14.8552 -12.1728
22 12 23 13.6118 -46.4183
22 12 24 -10.7679 -16.7972
22 12 25 -8.1299 -17.6605
22 12 26 18.9947 18.7456
22 12 27 -3.7207 -0.1338
22 12 28 -2.3478 -7.0169
22 12 29 -8.2169 -12.8708
22 12 30 2.5521 -7.6643
22 12 31 23.4518 13.6554
22 12 32 10.6125 -5.1071
22 12 33 5.1754 -1.2755
22 12 34 7.6984 4.4040
22 12 35 11.2383 9.6572
22 12 36 5.7217 10.9075
22 12 37 9.1726 -4.2481
22 12 38 -4.7264 -17.3839
22 12 39 -4.2251 9.5024
22 12 40 -10.9327 -0.1339
22 12 41 -3.3645 -2.3809
22 12 42 -15.9315 -10.3638
22 12 43 2.5224 14.3062
22 14 0 12.5026 -1.5917
22 14 1 22.2850 -11.1129
22 14 2 -52.9836 -4.2309
22 14 3 -7.1835 -6.1748
22 14 4 -25.9848 -48.0308
22 14 5 -42.0491 -20.3562
22 14 6 -1.5719 -44.1713
22 14 7 6.6102 -16.0833
22 14 8 39.1996 20.4913
22 14 9 13.8041 -24.1859
22 14 10 -5.2562 -48.1611
22 14 11 5.6246 31.4926
22 14 12 50.9463 -11.5439
22 14 13 2.6175 -8.7503
22 14 14 10.9344 0.5005
22 14 15 -7.1670 13.0521
22 14 16 -25.0240 9.6323
22 14 17 8.2153 3.7961
22 14 18 -9.8819 11.0500
22 14 19 2.3000 2.2898
22 14 20 -4.2592 10.9113
22 14 21 -9.7450 2.8566
22 14 22 1.4103 -0.0345
22 14 23 3.6747 -8.1080
22 14 24 10.3279 26.0725
22 14 25 -11.2798 -30.3772
22 14 26 -8.6886 -15.3693
22 14 27 -1.8703 -4.9798
22 14 28 10.6413 -22.3584
22 14 29 -1.7336 7.5252
22 14 30 -7.8307 4.8845
22 14 31 -14.0199 -19.1480
22 14 32 -3.6065 3.2053
22 14 33 -17.4704 4.2935
22 14 34 5.8125 -3.1040
22 14 35 -13.9889 16.8179
22 14 36 -11.7691 13.7047
22 14 37 -8.8406 10.3358
22 14 38 12.9713 -0.1681
22 14 39 -22.8109 -20.2577
22 14 40 -0.9839 -10.9266
22 16 0 -4.1414 0.9896
22 16 1 -4.0386 -27.4307
22 16 2 2.1272 -8.2464
22 16 3 14.9525 -0.4483
22 16 4 -32.1494 -13.0804
22 16 5 -70.6399 -0.8277
22 16 6 -0.6233 33.0148
22 16 7 -26.9650 -8.9534
22 16 8 22.0437 -3.1508
22 16 9 -2.3366 55.7147
22 16 10 3.7009 -3.0674
22 16 11 3.5252 16.6338
22 16 12 -3.7192 11.5932
22 16 13 -2.2875 -16.0204
22 16 14 -9.6830 21.6192
22 16 15 -23.2889 16.3908
22 16 16 -0.6106 6.5647
22 16 17 -14.3694 7.1761
22 16 18 -0.3825 -2.7257
22 16 19 0.9473 4.1911
22 16 20 7.4593 10.4229
22 16 21 2.3434 15.4628
22 16 22 20.4902 13.4584
22 16 23 -15.0671 9.0189
22 16 24 -8.5557 12.9212
22 16 25 23.4654 2.5142
22 16 26 2.7524 -17.2926
22 16 27 1.6824 -3.6796
22 16 28 -13.4953 -0.4194
22 16 29 0.3162 -13.3518
22 16 30 -11.5481 -13.7635
22 16 31 11.1441 9.4742
22 16 32 -12.9701 -3.4049
22 16 33 -2.6671 -0.2657
22 16 34 -13.8225 7.3785
22 16 35 12.0317 -1.6794
22 16 36 9.5829 -2.2148
22 16 37 8.3441 1.3961
22 18 0 4.9753 -0.5739
22 18 1 -0.2501 3.9558
22 18 2 -33.7799 -25.8054
22 18 3 -19.6070 -21.4043
22 18 4 -1.1847 16.4387
22 18 5 -60.3613 10.6093
22 18 6 -63.5934 11.2679
22 18 7 3.6682 18.7625
22 18 8 -21.8088 -33.8520
22 18 9 11.9207 -29.3783
22 18 10 -6.2481 3.7644
22 18 11 -0.1540 -15.3109
22 18 12 4.9600 27.4475
22 18 13 -1.9770 16.2781
22 18 14 -1.2491 -22.5810
22 18 15 -11.5094 -6.3960
22 18 16 -6.1697 17.7700
22 18 17 -6.5672 -10.8475
22 18 18 -1.9781 -24.0771
22 18 19 -3.5956 -14.7397
22 18 20 4.0760 -2.4557
22 18 21 -17.8922 -17.5736
22 18 22 -3.8875 -8.0562
22 18 23 11.0888 11.4966
22 18 24 -3.9578 -9.6762
22 18 25 -7.1578 -8.7275
22 18 26 -1.5999 -6.6469
22 18 27 -14.3855 9.3950
22 18 28 7.7405 -6.0062
22 18 29 17.2550 -9.3089
22 18 30 -1.8767 6.1697
22 18 31 -9.2649 0.9720
22 18 32 -19.4721 -9.0442
22 18 33 19.0127 2.0695
22 18 34 6.5339 -10.7206
22 18 35 -5.0691 -15.1598
22 20 0 -0.7980 0.3764
22 20 1 -3.1374 -2.2709
22 20 2 0.3226 -16.1519
22 20 3 -16.5366 -23.9418
22 20 4 6.1765 -20.4618
22 20 5 16.9818 39.7338
22 20 6 -31.4897 -26.3922
22 20 7 24.5739 34.8909
22 20 8 -4.7424 22.3372
22 20 9 -2.1552 -23.0988
22 20 10 -4.9141 -13.7187
22 20 11 -4.3959 -23.6429
22 20 12 39.1679 10.7098
22 20 13 8.3846 -1.2073
22 20 14 12.4427 8.2161
22 20 15 -24.6880 -10.8892
22 20 16 -7.9634 -20.8389
22 20 17 3.6071 -37.8480
22 20 18 -1.9335 -11.9056
22 20 19 -4.0053 15.6119
22 20 20 11.9951 -12.9951
22 20 21 6.0021 8.6171
22 20 22 7.8092 -12.3759
22 20 23 -10.2568 14.5882
22 20 24 -0.0606 0.3420
22 20 25 -10.3224 9.6245
22 20 26 11.1696 -4.5830
22 20 27 4.3564 -15.2222
22 20 28 8.0939 -3.5975
22 20 29 8.5111 7.6754
22 20 30 -8.6123 9.9724
22 20 31 -2.9440 7.3157
22 20 32 -2.2329 -7.0031
22 20 33 -23.7388 3.8708
22 22 0 -13.5673 0.5348
22 22 1 -14.9634 -4.1982
22 22 2 10.0317 1.4813
22 22 3 3.2209 11.7589
22 22 4 21.7953 -29.3398
22 22 5 26.6154 18.0607
22 22 6 -6.8489 -25.3572
22 22 7 17.9765 -6.2139
22 22 8 -17.4890 14.8479
22 22 9 11.9930 19.5121
22 22 10 -9.1351 18.5966
22 22 11 2.2724 8.3525
22 22 12 19.2988 -1.9618
22 22 13 -4.8198 -6.8810
22 22 14 6.8195 -0.4723
22 22 15 5.9591 -15.3244
22 22 16 -14.2907 5.2261
22 22 17 -10.0512 0.8186
22 22 18 -4.0085 -19.3646
22 22 19 9.5366 -4.4730
22 22 20 -8.3814 6.0019
22 22 21 -12.9066 -11.5884
22 22 22 24.4891 -2.0188
22 22 23 -13.2873 0.6259
22 22 24 -5.0149 0.9955
22 22 25 20.7426 -29.0036
22 22 26 9.2153 -3.9583
22 22 27 -13.3048 12.9191
22 24 0 7.0311 -0.3000
22 24 1 17.9691 8.5322
22 24 2 17.6785 -7.8934
22 24 3 -12.9807 -24.9356
22 24 4 -6.2679 -13.0779
22 24 5 -4.5688 19.2143
22 24 6 2.4042 -0.0798
22 24 7 0.5219 -13.4408
22 24 8 0.0246 -11.5665
22 24 9 -10.0423 0.2143
22 24 10 12.8314 -2.9255
22 24 11 -11.4890 20.6826
22 24 12 1.3227 23.8953
22 24 13 3.8098 9.8183
22 24 14 -7.9188 -4.9547
22 24 15 8.4740 -10.6405
22 24 16 1.1656 19.4052
22 24 17 5.4347 -7.3019
22 24 18 3.2551 7.8488
22 24 19 8.7016 -12.8800
22 24 20 1.0301 14.4752
22 24 21 -7.0058 10.5328
22 24 22 6.1145 -20.5195
22 24 23 -6.4060 -9.4677
22 26 0 -13.1677 -0.1002
22 26 1 -12.5339 17.3552
22 26 2 18.1139 14.5876
22 26 3 4.4245 11.8791
22 26 4 -13.9516 -3.7070
22 26 5 -1.4084 -17.8349
22 26 6 -14.1194 -2.9011
22 26 7 -5.6749 12.5651
22 26 8 12.0850 3.6577
22 26 9 -17.9845 16.4507
22 26 10 4.6655 5.2559
22 26 11 -7.3424 6.4537
22 26 12 8.2101 -8.4392
23 1 0 -63.7078 1.0730
23 1 1 57.3242 -21.5569
23 1 2 -37.2279 -29.0204
23 1 3 14.1427 14.3250
23 1 4 56.8965 11.4940
23 1 5 18.7629 43.6654
23 1 6 2.8339 9.2128
23 1 7 28.8911 37.3057
23 1 8 -46.9547 36.8885
23 1 9 24.1523 9.9213
23 1 10 -85.1973 -2.3050
23 1 11 -8.0460 8.0834
23 1 12 6.1432 49.8280
23 1 13 6.4051 12.3021
23 1 14 36.0887 37.2187
23 1 15 9.5136 18.0360
23 1 16 10.7443 -3.4969
23 1 17 -6.1227 22.8189
23 1 18 -8.2189 20.0031
23 1 19 10.2715 -2.9511
23 1 20 -20.2342 0.9808
23 1 21 -9.5952 -19.0822
23 1 22 11.3951 2.4425
23 1 23 -21.3309 1.7886
23 1 24 10.9107 8.2750
23 1 25 2.6510 19.3145
23 1 26 -19.4317 -5.2953
23 1 27 7.0708 14.7175
23 1 28 -1.1767 -6.3909
23 1 29 -7.3159 -13.3382
23 1 30 -11.5730 -23.1072
23 1 31 -5.4399 0.0585
23 1 32 -1.1861 26.5936
23 1 33 20.5129 4.4546
23 1 34 -13.2837 3.3875
23 1 35 8.1246 -2.7121
23 1 36 -6.0498 -11.7836
23 1 37 -8.6504 -6.3835
23 1 38 1.4079 4.3827
23 1 39 -4.7524 12.3600
23 1 40 -3.5874 -7.7631
23 1 41 1.8033 4.2730
23 1 42 3.8690 1.8417
23 1 43 4.6172 1.4530
23 1 44 21.2927 20.8494
23 1 45 0.9263 5.4929
23 3 0 -101.7167 0.1519
23 3 1 -50.6096 0.1589
23 3 2 0.9531 17.3176
23 3 3 25.6977 31.4412
23 3 4 86.2773 -37.2425
23 3 5 21.8985 -16.9267
23 3 6 37.7948 -48.2990
23 3 7 47.6818 26.7722
23 3 8 10.1442 -47.3055
23 3 9 5.9431 13.0195
23 3 10 -2.6440 -13.7591
23 3 11 10.7755 -1.6411
23 3 12 32.1447 -6.4915
23 3 13 28.8807 12.0885
23 3 14 -3.0367 19.0441
23 3 15 -12.0466 67.0884
23 3 16 -28.1189 -12.8985
23 3 17 -3.6517 49.2904
23 3 18 2.0689 -18.7416
23 3 19 -43.9157 31.8488
23 3 20 31.4077 15.9192
23 3 21 6.1079 32.8196
23 3 22 -13.6016 14.1612
23 3 23 10.5195 -22.1806
23 3 24 -6.1825 5.2583
23 3 25 -4.6713 -20.5897
23 3 26 7.1343 -5.7282
23 3 27 -4.7890 15.2330
23 3 28 9.8729 -6.2525
23 3 29 2.7711 0.1121
23 3 30 -14.2095 5.6809
23 3 31 14.2409 -17.6410
23 3 32 -2.8235 17.1920
23 3 33 6.6239 3.6399
23 3 34 10.1767 7.8019
23 3 35 -18.0762 12.1822
23 3 36 9.1621 -8.0417
23 3 37 -5.0630 -13.8375
23 3 38 4.7489 6.5606
23 3 39 3.8922 8.4802
23 3 40 -5.5239 14.7000
23 3 41 9.5878 9.3633
23 3 42 -19.8794 -4.3858
23 3 43 -0.7349 -16.0702
23 3 44 -0.0155 -6.4979
23 5 0 -0.6041 -2.8459
23 5 1 -42.5302 29.8164
23 5 2 -5.5388 14.9963
23 5 3 -27.9380 31.2848
23 5 4 6.0634 28.9871
23 5 5 49.3590 35.7685
23 5 6 14.2286 -25.6998
23 5 7 17.2549 0.4941
23 5 8 6.6915 -26.5917
23 5 9 5.9933 36.4923
23 5 10 -14.3675 -51.9466
23 5 11 12.6020 -11.1031
23 5 12 16.5418 11.0108
23 5 13 -21.7484 -14.1132
23 5 14 -8.1233 -60.0329
23 5 15 -13.4864 -1.9590
23 5 16 17.1724 -15.9278
23 5 17 -46.4692 -1.3633
23 5 18 61.3849 -10.8042
23 5 19 32.6471 1.3728
23 5 20 7.1639 1.6129
23 5 21 24.6772 3.4522
23 5 22 -25.1385 22.2313
23 5 23 -12.4072 11.9774
23 5 24 -19.9410 3.0484
23 5 25 -9.7836 -1.5423
23 5 26 8.2599 7.2808
23 5 27 -16.5143 -5.9291
23 5 28 -14.6149 -4.3344
23 5 29 11.5226 13.4451
23 5 30 -6.6000 -4.2859
23 5 31 -1.9690 -14.6331
23 5 32 13.0759 0.2899
23 5 33 -17.1549 26.1066
23 5 34 8.5869 -19.1113
23 5 35 -4.1071 -6.7772
23 5 36 5.5871 2.2410
23 5 37 15.2083 -3.8130
23 5 38 -5.5270 -13.3906
23 5 39 13.3561 12.0172
23 5 40 -1.0272 -14.9825
23 5 41 5.4584 2.3158
23 5 42 -7.7034 -13.0693
23 5 43 -10.3323 5.2782
23 5 44 -4.7229 7.0885
23 7 0 9.4888 1.3002
23 7 1 7.1834 45.8345
23 7 2 41.1550 -40.2694
23 7 3 -8.3481 -13.4267
23 7 4 1.6489 41.1764
23 7 5 -66.5446 -27.9533
23 7 6 49.2219 -26.7761
23 7 7 -28.0884 -12.5181
23 7 8 3.6521 16.0314
23 7 9 -1.3251 -27.3147
23 7 10 24.6466 -24.1982
23 7 11 -10.3941 -6.9185
23 7 12 31.0978 7.9433
23 7 13 14.3586 -6.8364
23 7 14 12.5934 10.9230
23 7 15 -5.3142 -6.6459
23 7 16 30.8018 10.8045
23 7 17 26.4103 -1.5218
23 7 18 -6.5841 13.6310
23 7 19 40.5974 3.6487
23 7 20 -12.0244 -2.4661
23 7 21 1.7094 1.0416
23 7 22 2.7919 9.1360
23 7 23 -20.1851 -13.6725
23 7 24 -17.0993 14.2487
23 7 25 17.9736 -6.1962
23 7 26 34.0751 7.2979
23 7 27 15.9411 16.4570
23 7 28 2.9908 5.8595
23 7 29 -15.7996 -9.8387
23 7 30 11.5236 -21.4627
23 7 31 2.5439 7.5466
23 7 32 12.0550 -8.1731
23 7 33 2.1860 24.7939
23 7 34 -8.3832 -11.4447
23 7 35 -3.1990 -13.5056
23 7 36 7.0214 16.0492
23 7 37 9.0874 -5.5321
23 7 38 -2.0688 -10.5853
23 7 39 -17.6428 -2.0857
23 7 40 5.3974 -2.5370
23 7 41 7.4996 -7.3946
23 7 42 -8.6929 -0.0060
23 7 44 3.4950 -6.4802
23 9 0 -84.4735 0.6955
23 9 1 19.2661 12.2474
23 9 2 26.8340 3.6801
23 9 3 -41.7823 2.6363
23 9 4 36.5661 -68.4961
23 9 5 -20.4883 -1.5417
23 9 6 -11.3993 -10.4212
23 9 7 -7.0981 21.5995
23 9 8 -31.2563 -1.4853
23 9 9 22.0490 30.7132
23 9 10 -7.7143 -26.8304
23 9 11 2.5928 -9.0862
23 9 12 -9.2477 -16.2515
23 9 13 8.9083 1.7939
23 9 14 15.4241 -15.4915
23 9 15 -29.4847 -10.6411
23 9 16 12.8965 28.4364
23 9 17 11.8591 19.5899
23 9 18 -1.4416 4.7099
23 9 19 -31.9421 -39.7260
23 9 20 11.5113 1.0807
23 9 21 16.5334 -7.2932
23 9 22 -10.6544 -8.3429
23 9 23 -19.3315 -8.8591
23 9 24 13.7981 -0.7241
23 9 25 8.7892 4.4570
23 9 26 14.9123 -3.9684
23 9 27 16.8328 3.1137
23 9 28 6.6867 11.6544
23 9 29 7.9706 0.2355
23 9 30 11.8276 -13.6384
23 9 31 -22.0907 39.4248
23 9 32 -6.8492 -2.1173
23 9 33 8.7619 12.4501
23 9 34 -13.8245 17.6114
23 9 35 -4.5425 -7.4121
23 9 36 8.8813 -2.6621
23 9 37 -3.8468 3.1577
23 9 38 -1.5310 11.4507
23 9 39 -15.7281 -23.5113
23 9 40 -18.4356 -19.0786
23 11 0 4.5760 0.2951
23 11 1 6.6074 -39.2594
23 11 2 11.1274 3.5417
23 11 3 12.6362 -13.4826
23 11 4 35.2106 -7.4679
23 11 5 7.6064 -12.7993
23 11 6 19.5049 -4.2268
23 11 7 37.4761 -31.9007
23 11 8 -26.2555 3.5427
23 11 9 24.5670 33.5472
23 11 10 5.2362 30.3161
23 11 11 36.4157 -4.1599
23 11 12 0.2404 8.9028
23 11 13 -31.9455 -12.4372
23 11 14 30.7435 -40.9608
23 11 15 -15.8362 -34.2889
23 11 16 -29.8193 -22.3695
23 11 17 4.7637 -10.2141
23 11 18 -19.4279 22.0897
23 11 19 9.9264 -30.1705
23 11 20 -8.2847 17.3930
23 11 21 -7.9971 -13.8171
23 11 22 12.5499 -28.7708
23 11 23 -0.3312 7.8844
23 11 24 4.3218 -17.8858
23 11 25 -4.8276 -8.3530
23 11 26 16.7758 9.6492
23 11 27 25.9094 -10.5268
23 11 28 4.9929 -0.1421
23 11 29 -16.9645 -4.5895
23 11 30 10.4918 -12.9211
23 11 31 -18.3735 -10.4595
23 11 32 -1.3937 -9.0789
23 11 33 -8.5072 -2.9438
23 11 34 16.8600 19.6387
23 11 35 1.1622 1.4685
23 11 36 3.1667 -13.6611
23 11 37 13.5475 -11.9124
23 11 38 15.4631 -17.8320
23 11 39 6.7171 -13.2165
23 11 40 17.1799 -1.9755
23 13 0 11.6171 -0.4538
23 13 1 -13.2879 14.3876
23 13 2 17.1961 17.9767
23 13 3 7.7963 8.4771
23 13 4 12.6931 10.7633
23 13 5 5.5864 -22.5018
23 13 6 4.5273 23.0005
23 13 7 7.4664 -3.6228
23 13 8 -5.7408 -12.2002
23 13 9 27.5582 -3.9727
23 13 10 -0.4367 3.1893
23 13 11 -2.6654 -0.7507
23 13 12 -18.9126 12.6957
23 13 13 -14.7405 13.9288
23 13 14 7.2504 -11.6455
23 13 15 -4.3032 -5.2504
23 13 16 -19.2797 -14.3628
23 13 17 10.6123 5.7989
23 13 18 -12.2300 10.1059
23 13 19 26.2894 -24.7846
23 13 20 -15.2923 25.5483
23 13 21 11.4870 25.9604
23 13 22 7.6645 10.9479
23 13 23 18.9362 -0.2144
23 13 24 -2.9269 18.9014
23 13 25 2.2424 16.4326
23 13 26 43.0008 -8.1884
23 13 27 -1.1480 -8.2818
23 13 28 0.1122 14.9071
23 13 29 21.1870 -11.2122
23 13 30 -1.2205 -13.6551
23 13 31 -18.9322 8.4660
23 13 32 -15.4855 -13.0662
23 13 33 4.8533 11.6382
23 13 34 -8.7305 8.3194
23 13 35 4.3926 2.9021
23 13 36 2.6590 -5.8543
23 15 0 15.5912 -0.4536
23 15 1 -30.1176 18.9494
23 15 2 9.6691 -21.0371
23 15 3 -22.9387 -6.3357
23 15 4 22.6271 -1.3220
23 15 5 -26.3656 9.8735
23 15 6 -2.8323 5.0277
23 15 7 3.6075 1.8599
23 15 8 4.4208 -1.1068
23 15 9 -2.7885 27.5125
23 15 10 5.1901 -13.6779
23 15 11 19.7372 8.8969
23 15 12 -29.1224 -6.1354
23 15 13 -7.3260 23.3974
23 15 14 3.0767 22.4183
23 15 15 12.1267 5.5451
23 15 16 -5.5656 14.3459
23 15 17 -12.0562 -2.7823
23 15 18 17.5328 -4.4696
23 15 19 6.6929 6.8789
23 15 20 -11.3556 12.6870
23 15 21 -23.9529 -4.9199
23 15 22 -1.9937 7.3298
23 15 23 9.0323 3.8377
23 15 24 1.8856 -10.6117
23 15 25 -17.8514 -12.6223
23 15 26 10.8591 -8.5123
23 15 27 -2.7074 14.2187
23 15 28 -5.8731 8.4732
23 15 29 -6.6859 2.2443
23 15 30 1.5210 2.7837
23 15 31 7.0632 22.0507
23 15 32 4.5101 -11.7118
23 15 33 -6.6079 -8.1133
23 15 34 -5.3064 16.4277
23 15 35 -4.0247 -14.9787
23 15 36 1.4988 19.1017
23 17 0 -3.5893 -0.0506
23 17 1 11.4115 4.7820
23 17 2 -4.7124 -0.6324
23 17 3 -2.0827 2.4333
23 17 4 17.1240 9.8168
23 17 5 23.2086 -8.5724
23 17 6 8.4404 -10.5429
23 17 7 -8.7853 5.0582
23 17 8 4.6776 -16.7584
23 17 9 8.0269 2.8156
23 17 10 -36.9752 -12.0504
23 17 11 -1.5665 2.2862
23 17 12 18.8820 -28.3501
23 17 13 8.3848 -4.6154
23 17 14 6.1795 -7.5106
23 17 15 4.8473 -7.6135
23 17 16 2.9975 -17.3138
23 17 17 -18.7881 31.1151
23 17 18 20.4379 7.3087
23 17 19 -13.4004 -7.4863
23 17 20 10.6390 1.5907
23 17 21 -3.7363 15.4308
23 17 22 -0.5376 -15.5201
23 17 23 -7.9979 1.1856
23 17 24 12.2327 -8.8864
23 17 25 -11.0910 -13.6365
23 17 26 -1.0205 -16.3120
23 17 27 2.3043 -2.9424
23 17 28 -10.8986 6.4621
23 17 29 -2.2270 -5.7060
23 17 30 8.8567 18.3042
23 17 31 -4.1835 0.7821
23 17 32 24.0820 -10.2838
23 17 33 5.0567 1.0459
23 17 34 -5.2659 -6.7809
23 17 35 15.0760 2.7515
23 19 0 18.1460 0.1969
23 19 1 -18.3329 -5.8277
23 19 2 14.0992 12.2346
23 19 3 1.6288 -1.7594
23 19 4 32.9391 -8.1842
23 19 5 15.8867 0.5187
23 19 6 -1.8306 0.5962
23 19 7 0.2004 -0.0405
23 19 8 -11.7906 -6.5619
23 19 9 -9.1528 7.1286
23 19 10 -4.0757 15.6957
23 19 11 -15.0409 -2.4876
23 19 12 -10.8479 6.8717
23 19 13 46.9670 22.7425
23 19 14 19.1533 -39.4898
23 19 15 -2.1366 9.1822
23 19 16 9.9004 -24.1694
23 19 17 13.3096 16.4640
23 19 18 -8.0409 19.7106
23 19 19 -10.6232 0.5615
23 19 20 3.2162 -7.0169
23 19 21 -1.5659 10.7280
23 19 22 7.0548 5.4938
23 19 23 7.7010 0.2211
23 19 24 1.7295 5.1497
23 19 25 16.5437 3.0636
23 19 26 7.4934 3.2199
23 19 27 -2.9842 -1.5516
23 19 28 -0.7888 2.8694
23 19 29 9.6633 -12.7271
23 19 30 -17.8658 1.6537
23 19 31 3.2504 11.1724
23 19 32 -5.7118 -1.4458
23 19 33 -13.5623 3.2627
23 19 34 -11.0327 -15.6367
23 21 0 8.4361 0.2926
23 21 1 3.6860 19.0149
23 21 2 -7.6083 -9.8520
23 21 3 6.0493 -23.8362
23 21 4 -4.2139 -20.3009
23 21 5 7.7617 -2.2520
23 21 6 -0.5777 -6.9743
23 21 7 -12.2908 13.3110
23 21 8 -3.2828 23.6749
23 21 9 -22.4740 0.5180
23 21 10 -14.7241 -9.7930
23 21 11 9.7590 -0.5850
23 21 12 -6.6189 -47.9869
23 21 13 5.8929 6.8141
23 21 14 15.4728 18.7406
23 21 15 -4.1436 -1.2402
23 21 16 18.8410 -11.0043
23 21 17 21.4165 -19.4680
23 21 18 0.5424 -5.5126
23 21 19 -2.2858 -12.1027
23 21 20 9.1156 -10.8058
23 21 21 -4.0733 -5.7796
23 21 22 1.2186 -0.3780
23 21 23 -1.5819 -5.8960
23 21 24 1.7549 0.7311
23 21 25 -6.3008 1.9862
23 21 26 6.8293 -29.1416
23 21 27 1.9193 32.3301
23 21 28 -18.4382 -5.2312
23 21 29 -7.4752 -2.8303
23 23 0 -25.1207 0.1366
23 23 1 1.3780 3.8055
23 23 2 3.8922 5.3309
23 23 3 11.9704 7.0157
23 23 4 -22.3076 -7.6827
23 23 5 -17.3091 -12.4051
23 23 6 -3.6953 0.8449
23 23 7 -10.5382 -12.6857
23 23 8 21.0646 -6.4886
23 23 9 3.1812 9.1109
23 23 10 -21.6778 -11.2987
23 23 11 8.3956 7.3095
23 23 12 11.9299 -27.8387
23 23 13 -8.0804 -7.7067
23 23 14 16.9348 2.3895
23 23 15 12.3932 15.6141
23 23 16 -15.9483 -1.6042
23 23 17 8.3806 -2.2324
23 23 18 10.0864 1.1589
23 23 19 -1.4042 -10.9106
23 23 20 22.8445 -12.3896
23 23 21 3.2180 3.0947
23 23 22 -13.9620 15.4955
23 25 0 -7.4467 -0.0656
23 25 1 -6.3800 -12.5860
23 25 2 13.5706 -7.8841
23 25 3 15.8412 14.0841
23 25 4 16.0407 -1.0396
23 25 5 -4.4026 -4.0583
23 25 6 2.8890 5.6664
23 25 7 -5.5933 -1.9417
23 25 8 -1.9511 -16.4511
23 25 9 16.2041 -5.6834
23 25 10 17.0657 -6.5492
24 0 0 3.8861 -1.7221
24 0 1 -1.5586 -2.0423
24 0 2 13.0487 -0.0149
24 0 3 2.3990 -0.9204
24 0 4 -27.8937 2.2409
24 0 5 0.7310 9.1517
24 0 6 -14.7139 -0.0486
24 0 7 -2.0176 -18.0340
24 0 8 -8.9896 -1.3941
24 0 9 -0.1964 -33.1359
24 0 10 4.6164 -0.1781
24 0 11 1.0773 -5.3577
24 0 12 9.5964 0.3793
24 0 13 -0.6783 -4.5786
24 0 14 -6.9125 0.7028
24 0 15 -0.7020 -36.0214
24 0 16 8.0692 0.0492
24 0 17 1.4011 -6.0780
24 0 18 9.6238 -1.0141
24 0 19 0.3527 13.3083
24 0 20 -3.2890 -0.0309
24 0 21 -1.4597 19.5319
24 0 22 -9.7214 1.1182
24 0 23 -0.0716 -12.6212
24 0 24 -6.3922 0.0240
24 0 25 1.1637 5.9915
24 0 26 -2.5769 -0.8950
24 0 27 -0.1471 -6.5466
24 0 28 -26.6639 -0.0059
24 0 29 -0.7003 12.1344
24 0 30 1.5011 0.5017
24 0 31 0.3942 -18.6649
24 0 32 1.1287 0.1366
24 0 33 0.1753 2.3750
24 0 34 42.5840 -0.1440
24 0 35 -0.5186 -6.0245
24 0 36 -32.3959 -0.3360
24 0 37 0.1407 -7.8617
24 0 38 18.0936 -0.0341
24 0 39 0.4555 15.8419
24 0 40 26.5235 0.4035
24 0 41 -0.1560 22.5800
24 0 42 24.1343 -0.0643
24 2 0 22.3176 1.7473
24 2 1 -28.6298 20.7607
24 2 2 3.8519 16.9040
24 2 3 -6.4322 -18.3634
24 2 4 -14.4686 -27.7364
24 2 5 24.8989 -55.1061
24 2 6 -48.4760 10.4285
24 2 7 14.5181 -7.5557
24 2 8 9.8572 20.4076
24 2 9 14.0172 -27.4528
24 2 10 5.8286 2.4629
24 2 11 1.7156 -19.0946
24 2 12 8.5261 -7.3623
24 2 13 42.5193 -5.9549
24 2 14 -7.8947 -39.5197
24 2 15 -21.1233 57.7535
24 2 16 8.9067 8.7797
24 2 17 12.2174 15.8693
24 2 18 -8.2027 21.9037
24 2 19 -37.4527 52.5997
24 2 20 -9.9709 14.5850
24 2 21 -38.0446 14.9628
24 2 22 8.7296 -6.7538
24 2 23 28.6055 35.5745
24 2 24 -14.4743 -1.6830
24 2 25 -8.6813 -1.7770
24 2 26 14.2278 1.3511
24 2 27 -4.7965 2.4078
24 2 28 20.2660 9.0864
24 2 29 -29.4140 2.0741
24 2 30 -1.3396 13.9304
24 2 31 4.5012 -3.4048
24 2 32 8.1204 10.4280
24 2 33 -2.4613 0.7677
24 2 34 -8.5527 6.6073
24 2 35 8.4823 -1.1801
24 2 36 5.4353 2.3905
24 2 37 8.4256 -13.8189
24 2 38 7.2180 4.8921
24 2 39 1.2875 9.4539
24 2 40 -21.7660 21.7347
24 2 41 -5.9498 4.0606
24 2 42 17.7284 9.3021
24 4 0 14.0885 -0.4672
24 4 1 19.0053 -37.0065
24 4 2 50.8308 42.2942
24 4 3 6.5712 6.6653
24 4 4 -31.1300 -11.1500
24 4 5 20.7675 -1.8634
24 4 6 17.9110 -30.9989
24 4 7 13.4503 1.3288
24 4 8 33.5316 6.8145
24 4 9 -0.4790 1.3810
24 4 10 7.8587 26.9156
24 4 11 3.5080 17.8736
24 4 12 -44.4462 -4.3379
24 4 13 -14.8662 11.2344
24 4 14 8.9261 -9.7572
24 4 15 2.5431 11.3399
24 4 16 -47.6174 11.8770
24 4 17 15.6404 -12.2697
24 4 18 20.9879 1.5306
24 4 19 13.5637 -15.2637
24 4 20 11.1440 -37.8710
24 4 21 -0.0753 -3.9773
24 4 22 -14.6655 2.6594
24 4 23 0.4763 -1.8124
24 4 24 5.8845 -41.1524
24 4 25 32.5311 3.5348
24 4 26 2.8598 -18.5201
24 4 27 -19.8531 -20.9796
24 4 28 -7.2452 6.9197
24 4 29 11.5006 -18.1278
24 4 30 9.6779 -13.7251
24 4 31 -2.2144 -11.0837
24 4 32 6.3325 9.1572
24 4 33 3.4747 10.2551
24 4 34 23.2334 -3.2158
24 4 35 -23.3087 19.1485
24 4 36 -5.2918 2.7980
24 4 37 -0.7245 16.6378
24 4 38 -2.9229 8.5491
24 4 39 -15.5189 15.0598
24 4 40 10.4280 13.3362
24 4 41 -0.5067 0.9160
24 6 0 -7.5093 0.1192
24 6 1 -18.1289 -52.4847
24 6 2 24.3610 -5.1153
24 6 3 8.9669 -9.4033
24 6 4 -38.1453 2.3201
24 6 5 7.9726 -8.7564
24 6 6 23.8816 -4.7295
24 6 7 14.9050 -5.7358
24 6 8 -8.6019 19.4355
24 6 9 14.4679 -38.1417
24 6 10 20.9075 -4.0340
24 6 11 2.8123 -10.9982
24 6 12 -22.4064 -6.8886
24 6 13 14.5930 -5.6533
24 6 14 -11.6771 9.5027
24 6 15 10.4262 -13.8263
24 6 16 -62.7053 -31.3809
24 6 17 -18.7518 -29.7029
24 6 18 24.3442 -38.2006
24 6 19 -15.4547 -48.7355
24 6 20 29.4056 32.3373
24 6 21 -0.6277 22.8774
24 6 22 8.4562 -15.5287
24 6 23 -34.2753 -10.6510
24 6 24 22.3938 14.6795
24 6 25 -36.1023 45.1959
24 6 26 -0.4348 -18.7359
24 6 27 15.1634 5.4585
24 6 28 -26.4838 -15.9648
24 6 29 -11.5225 7.8272
24 6 30 -7.8443 -13.8684
24 6 31 3.5076 1.8212
24 6 32 12.5547 4.5471
24 6 33 -15.9948 -3.6804
24 6 34 3.0046 -5.6804
24 6 35 -3.7456 9.3772
24 6 36 -10.1807 6.9074
24 6 37 0.2345 4.5362
24 6 38 1.9534 -7.5721
24 6 39 0.5839 10.8478
24 6 40 -5.3064 -14.8651
24 8 0 -34.5774 1.2280
24 8 1 9.9226 13.8024
24 8 2 24.2292 -2.2891
24 8 3 -53.1219 20.5427
24 8 4 5.6528 -36.5640
24 8 5 -15.7533 -40.6077
24 8 6 -38.8931 -45.0019
24 8 7 -10.2546 1.7115
24 8 8 -13.0105 -28.4444
24 8 9 4.5529 -23.7037
24 8 10 26.2722 27.5104
24 8 11 -1.7573 -4.2756
24 8 12 -33.4976 6.9744
24 8 13 14.4445 -5.5424
24 8 14 17.0545 5.0837
24 8 15 12.9845 32.5097
24 8 16 -8.7008 20.7585
24 8 17 -8.4558 2.9261
24 8 18 24.2222 10.2102
24 8 19 -8.2382 -18.3369
24 8 20 -1.6509 23.3024
24 8 21 12.8307 0.9785
24 8 22 -1.5422 14.5749
24 8 23 -30.7367 16.6873
24 8 24 0.9705 -38.1387
24 8 25 12.1999 18.5395
24 8 26 -10.9481 -8.6995
24 8 27 9.0989 -0.1816
24 8 28 -1.5359 4.0994
24 8 29 4.5594 -6.0748
24 8 30 -4.6135 20.5040
24 8 31 3.1757 -17.2674
24 8 32 -2.2829 1.0854
24 8 33 25.0655 18.5894
24 8 34 13.7272 8.3365
24 8 35 3.6664 -9.2129
24 8 36 -15.8410 -5.4755
24 8 39 -23.4164 -15.3162
24 10 0 13.1724 -1.8918
24 10 1 -1.3950 -11.1088
24 10 2 9.0482 11.2717
24 10 3 -68.1943 41.7312
24 10 4 28.4366 7.5605
24 10 5 30.0321 -10.6409
24 10 6 -10.4299 -17.9143
24 10 7 -51.1002 29.1689
24 10 8 7.7710 1.9232
24 10 9 25.2845 -20.7718
24 10 10 29.1588 32.9195
24 10 11 35.5857 32.5679
24 10 12 3.7712 7.5771
24 10 13 -25.3676 -9.4229
24 10 14 -20.6083 10.5104
24 10 15 11.5753 1.5672
24 10 16 25.1566 29.6313
24 10 17 -11.5646 10.0790
24 10 18 12.5030 22.7135
24 10 19 21.3661 -2.9844
24 10 20 11.7126 2.7712
24 10 21 -4.1554 6.1626
24 10 22 -2.0580 4.2365
24 10 23 -14.0087 -15.0462
24 10 24 3.0422 -6.6536
24 10 25 12.0298 12.1630
24 10 26 -23.0524 10.4625
24 10 27 6.6610 14.7557
24 10 28 -8.4092 0.9619
24 10 29 22.9946 0.1634
24 10 30 -11.3449 4.4361
24 10 31 6.2833 8.4877
24 10 32 -12.2201 2.9064
24 10 33 4.6999 28.6901
24 10 34 -17.6938 -4.2446
24 10 35 5.2381 6.3017
24 10 36 -14.8287 -4.3223
24 10 37 -3.9877 -32.3375
24 12 0 -54.5843 0.6965
24 12 1 -15.4093 -17.9532
24 12 2 -11.8565 -17.4072
24 12 3 8.7477 -9.9435
24 12 4 -23.0339 -24.2229
24 12 5 8.8777 7.6483
24 12 6 1.4191 30.5637
24 12 7 4.6229 -0.6805
24 12 8 -21.1990 -6.6438
24 12 9 4.4052 9.1693
24 12 10 35.5616 0.3389
24 12 11 -5.5937 10.7077
24 12 12 -0.7269 28.9461
24 12 13 13.0608 -12.7092
24 12 14 3.0935 0.9272
24 12 15 -15.5333 25.4652
24 12 16 -10.5823 5.9338
24 12 17 5.7342 -3.0377
24 12 18 9.3713 -10.5057
24 12 19 -19.5571 4.2458
24 12 20 -17.3754 -17.8824
24 12 21 -0.1882 -19.0365
24 12 22 8.4548 7.5414
24 12 23 -4.0607 -7.9550
24 12 24 -9.3603 3.8935
24 12 25 3.0535 -12.1232
24 12 26 3.1985 -15.8008
24 12 27 -7.9220 13.4241
24 12 28 -4.8337 -17.0562
24 12 29 2.8799 7.8150
24 12 30 -5.8228 14.7600
24 12 31 4.2219 -9.7801
24 12 32 14.4265 -7.4143
24 12 33 20.0330 -13.5008
24 12 34 -11.6884 -0.5713
24 12 35 -10.8303 2.5006
24 12 36 10.9248 -27.0169
24 12 37 -0.0765 6.8608
24 12 38 20.5558 25.5838
24 12 39 -17.3264 4.0743
24 14 0 -5.8079 0.1678
24 14 1 -18.3431 15.4125
24 14 2 0.4902 -8.5314
24 14 3 -17.2117 5.8190
24 14 4 -29.2864 11.5553
24 14 5 26.2050 -17.4825
24 14 6 6.1619 4.1527
24 14 7 14.4703 3.4042
24 14 8 -15.1853 -9.7889
24 14 9 -18.6820 -11.4313
24 14 10 1.8565 18.0268
24 14 11 -16.5130 -2.4676
24 14 12 4.0375 -3.4017
24 14 13 -23.6065 2.0460
24 14 14 -5.6638 -21.1793
24 14 15 43.7680 20.5572
24 14 16 -8.6404 13.2784
24 14 17 -12.2155 6.9089
24 14 18 -6.8466 32.0525
24 14 19 -2.3892 14.5167
24 14 20 -10.6259 -2.3902
24 14 21 13.0593 -2.4404
24 14 22 -3.9061 -0.0212
24 14 23 0.8152 4.2258
24 14 24 15.2017 -2.5194
24 14 25 -5.0337 10.0998
24 14 26 15.3707 -8.6722
24 14 27 -2.8993 2.5678
24 14 28 8.8931 14.6502
24 14 29 5.2766 -3.3068
24 14 30 -5.9593 -5.3612
24 14 31 14.0401 -0.4219
24 14 32 7.8465 -13.3875
24 14 33 -4.0172 -8.0996
24 14 34 4.3168 -0.1274
24 14 35 19.6355 -3.2806
24 14 36 2.0536 1.2522
24 14 37 1.3455 20.5871
24 14 38 -12.4150 1.1367
24 14 39 6.2765 10.4413
24 14 40 14.4749 -7.2508
24 16 0 14.3033 -0.1162
24 16 1 16.5941 -6.9065
24 16 2 -1.5603 13.7655
24 16 3 -0.9782 11.9539
24 16 4 -5.7163 -22.9843
24 16 5 15.2795 -20.5535
24 16 6 16.1020 -7.0574
24 16 7 3.1249 11.3425
24 16 8 40.4035 5.0363
24 16 9 5.2162 -14.8379
24 16 10 15.3891 17.6996
24 16 11 -9.8670 9.1598
24 16 12 -8.9674 -8.9746
24 16 13 -9.9615 15.8160
24 16 14 -14.9686 -4.0539
24 16 15 0.2523 -27.8948
24 16 16 -29.9926 14.8824
24 16 17 2.8107 -37.8974
24 16 18 -13.5814 3.3055
24 16 19 -2.5762 11.5387
24 16 20 -11.4661 7.6089
24 16 21 8.0519 2.0524
24 16 22 1.8845 -1.8647
24 16 23 15.5612 7.1699
24 16 24 6.9596 -10.6877
24 16 25 1.0641 -2.0515
24 16 26 9.0324 7.7510
24 16 27 -3.3779 5.8274
24 16 28 4.0089 3.8850
24 16 29 25.8988 -6.1648
24 16 30 -3.4590 9.7735
24 16 31 -7.3788 11.4511
24 16 32 -11.0835 -11.1844
24 16 33 -9.7906 -26.1327
24 16 34 -13.9693 13.8418
24 16 35 -1.4494 -19.2817
24 16 36 6.9764 11.5229
24 16 37 -2.8413 10.8645
24 18 0 15.2177 0.0755
24 18 1 -20.1336 14.1617
24 18 2 -16.8595 11.8666
24 18 3 -2.7861 13.1894
24 18 4 24.5799 6.7247
24 18 5 0.4268 -21.8334
24 18 6 4.9234 24.2497
24 18 7 9.0077 -20.2112
24 18 8 5.0931 -4.6964
24 18 9 22.5574 8.4932
24 18 10 13.8622 2.7461
24 18 11 1.0267 -6.2397
24 18 12 -11.4187 -9.2931
24 18 13 -1.8569 -17.1728
24 18 14 -27.8730 3.0802
24 18 15 -2.2616 10.9427
24 18 16 -1.8385 -23.6752
24 18 17 7.0191 -2.7981
24 18 18 -10.1132 -18.5687
24 18 19 11.9382 17.6496
24 18 20 -15.3830 10.3830
24 18 21 1.1248 -0.4263
24 18 22 -7.0059 8.0723
24 18 23 3.1650 78.1442
24 18 24 26.3438 -16.8884
24 18 25 6.8576 -19.3619
24 18 26 -4.6918 7.1035
24 18 27 6.1181 22.9011
24 18 28 -6.2798 9.9572
24 18 29 13.9105 -14.5469
24 18 30 -15.8964 -5.1262
24 18 31 22.1558 -10.7775
24 18 32 -8.9763 24.4709
24 20 0 15.7838 -0.0173
24 20 1 -12.4824 -6.2192
24 20 2 -4.7412 6.1115
24 20 3 -15.2427 12.7995
24 20 4 -30.9295 7.0053
24 20 5 3.3101 -17.6268
24 20 6 -11.0883 16.6112
24 20 7 -9.9523 14.1994
24 20 8 24.5652 -12.1378
24 20 9 35.1769 -2.8261
24 20 10 -13.6238 31.4418
24 20 11 -9.6792 0.5787
24 20 12 -16.0437 12.0381
24 20 13 1.5540 -13.3088
24 20 14 -8.0906 6.0510
24 20 15 10.2825 2.9509
24 20 16 3.5012 9.9733
24 20 17 11.6216 -6.0951
24 20 18 12.1498 -7.5401
24 20 19 3.2573 1.5520
24 20 20 2.4713 3.7301
24 20 21 9.7763 28.2969
24 20 22 4.1146 -1.8963
24 20 23 5.6674 7.8890
24 20 24 19.4501 23.6421
24 20 25 14.7658 20.1518
24 20 26 6.7641 -9.4683
24 20 27 -11.9509 9.3882
24 22 0 17.5176 -0.3640
24 22 1 5.2214 7.2553
24 22 2 -10.9831 0.4903
24 22 3 -2.5949 -7.4647
24 22 4 -0.7725 1.0743
24 22 5 17.0720 -5.8628
24 22 6 -1.0884 -3.3370
24 22 7 17.6406 9.7019
24 22 8 -2.9944 -26.1152
24 22 9 12.9300 30.6778
24 22 10 -3.4099 7.1326
24 22 11 -9.0748 -2.3932
24 22 12 6.7365 11.5524
24 22 13 -12.6768 16.1512
24 22 14 -17.5073 -5.0658
24 22 15 1.9485 -1.1831
24 22 16 15.1025 3.7223
24 22 17 -3.9812 21.6543
24 22 18 -6.8741 2.4631
24 22 19 -3.7660 7.3571
24 22 20 2.7493 5.5120
24 24 2 -6.6603 5.7700
24 24 3 1.3954 0.4822
24 24 4 2.9694 7.0203
24 24 5 19.4433 -17.4663
24 24 6 -6.4662 3.1497
25 1 0 5.6595 -1.4726
25 1 1 7.2992 -35.0852
25 1 2 -15.3296 -61.4747
25 1 3 8.1049 32.3639
25 1 4 12.5511 -28.7640
25 1 5 -16.1436 10.0694
25 1 6 -10.2484 9.1919
25 1 7 20.4493 22.7666
25 1 8 0.4840 0.9869
25 1 9 21.7070 20.9924
25 1 10 -24.0439 9.8771
25 1 11 26.3527 12.5044
25 1 12 -31.1030 4.6366
25 1 13 16.9092 -8.1982
25 1 14 -7.7323 18.4404
25 1 15 -4.1386 -11.1878
25 1 16 8.8183 7.9540
25 1 17 7.3419 -3.2742
25 1 18 -7.3669 -16.4227
25 1 19 16.7408 22.9282
25 1 20 -1.0764 4.7900
25 1 21 -4.7957 10.2619
25 1 22 -14.1382 16.5593
25 1 23 -18.1340 -9.8813
25 1 24 -2.0370 -5.5662
25 1 25 11.0222 7.5259
25 1 26 7.8383 -10.6500
25 1 27 -2.0912 1.7520
25 1 28 11.4458 1.4764
25 1 29 -0.9098 25.6237
25 1 30 16.0731 10.1744
25 1 31 11.4741 -4.9713
25 1 32 1.3758 -3.4277
25 1 33 4.1210 -1.0657
25 1 34 -10.4226 0.0205
25 1 35 -18.5340 12.3984
25 1 36 -4.6458 -6.2986
25 1 37 16.6742 -2.5130
25 1 38 -9.2877 -2.7025
25 3 0 -6.6127 1.9995
25 3 1 5.0385 58.2360
25 3 2 -18.0125 -17.9352
25 3 3 -6.1213 -2.1547
25 3 4 12.6001 0.7713
25 3 5 -2.4732 -15.4743
25 3 6 31.9746 -4.8626
25 3 7 -0.9017 -32.8098
25 3 8 16.2239 27.3935
25 3 9 -15.4404 -9.7903
25 3 10 -0.2218 12.4290
25 3 11 -16.1436 -33.6497
25 3 12 38.6561 6.3495
25 3 13 0.6639 12.6318
25 3 14 22.0708 3.9166
25 3 15 9.1304 -4.7582
25 3 16 50.1821 10.8183
25 3 17 -9.5014 22.7048
25 3 18 -14.3165 -15.7053
25 3 19 -0.3699 15.6709
25 3 20 -41.0185 -1.5599
25 3 21 15.1755 -23.0773
25 3 22 13.5658 15.1251
25 3 23 -5.7725 -23.4506
25 3 24 -18.6001 -11.3419
25 3 25 -14.3473 9.3726
25 3 26 31.9695 2.7068
25 3 27 4.5668 -7.0852
25 3 28 6.3353 -3.5418
25 3 29 7.2462 0.4775
25 3 30 12.5720 12.4321
25 3 31 11.9498 -7.1512
25 3 32 -8.8292 -2.1460
25 3 33 1.1838 0.5372
25 3 34 -8.2572 0.7895
25 3 35 16.3015 -1.2551
25 3 38 8.5526 -4.5015
25 5 0 -47.6244 0.5360
25 5 1 52.9448 -18.9501
25 5 2 34.9261 17.8176
25 5 3 -27.3716 5.8011
25 5 4 51.2869 5.7195
25 5 5 33.1607 9.2034
25 5 6 14.9667 -23.3164
25 5 7 37.0635 -6.4411
25 5 8 70.9604 -4.2821
25 5 9 2.8119 -14.7628
25 5 10 -20.1592 10.8285
25 5 11 -12.4312 7.9709
25 5 12 -7.9920 -7.8262
25 5 13 -3.6503 -12.3749
25 5 14 20.8486 -27.2173
25 5 15 -16.9753 -13.1282
25 5 16 8.1827 7.2273
25 5 17 35.8349 3.0274
25 5 18 -0.8903 1.1736
25 5 19 -15.5036 -9.1240
25 5 20 -21.6718 4.1598
25 5 21 18.5418 -54.4729
25 5 22 9.1136 8.3840
25 5 23 17.8124 1.7151
25 5 24 1.6317 4.5193
25 5 25 12.0564 -7.9996
25 5 26 -3.1649 0.5322
25 5 27 10.3438 5.6019
25 5 28 6.9342 6.8634
25 5 29 3.4580 3.7437
25 5 30 -19.0646 8.7604
25 5 31 23.5635 -0.3341
25 5 32 -26.2256 4.5451
25 5 33 -7.6053 -8.8701
25 5 34 7.8190 -12.9696
25 5 35 -21.8175 -2.4385
25 5 36 -6.4197 1.4496
25 7 0 -0.6917 1.1807
25 7 1 3.2110 -6.3775
25 7 2 29.2193 9.4333
25 7 3 -22.9359 25.4325
25 7 4 8.9869 -17.8934
25 7 5 34.5113 27.2763
25 7 6 3.3033 5.5497
25 7 7 -21.7664 23.4073
25 7 8 15.1750 33.7915
25 7 9 12.7002 -14.8470
25 7 10 -27.7566 0.4122
25 7 11 3.3981 -9.2527
25 7 12 5.8936 -17.2194
25 7 13 -1.8484 -9.9117
25 7 14 -20.0327 12.6372
25 7 15 -12.8509 -25.3104
25 7 16 1.2216 -1.5151
25 7 17 15.2055 9.0584
25 7 18 -8.4530 -2.3881
25 7 19 -2.4329 22.5412
25 7 20 -1.7608 -10.1240
25 7 21 -6.5351 -16.9900
25 7 22 -12.0205 24.1285
25 7 23 3.9120 -8.6905
25 7 24 26.0800 8.7526
25 7 25 -5.8074 -8.8042
25 7 26 3.1242 -6.2166
25 7 27 -5.5222 5.6948
25 7 28 7.4695 5.7947
25 7 29 -1.6792 -1.6615
25 7 30 -9.1402 15.4421
25 7 31 7.8183 5.2202
25 7 32 -7.6833 8.1795
25 7 33 5.6751 -10.2059
25 7 34 9.2485 5.7598
25 7 35 17.3636 -6.7277
25 9 0 -3.3854 -2.5451
25 9 1 33.9045 -11.7179
25 9 2 -21.6843 -4.3013
25 9 3 -7.6692 42.1930
25 9 4 0.9388 0.5189
25 9 5 -0.1158 29.2609
25 9 6 8.6829 -0.0688
25 9 7 10.4106 31.9069
25 9 8 4.6205 19.8265
25 9 9 23.0160 35.8119
25 9 10 -35.3944 -1.7707
25 9 11 5.8803 -22.6340
25 9 12 17.8194 -12.8396
25 9 13 -5.8405 13.0671
25 9 14 -4.9757 38.2674
25 9 15 6.6354 20.6526
25 9 16 2.7274 -13.3325
25 9 17 7.2096 -0.3672
25 9 18 13.3658 -22.5576
25 9 19 -0.0060 36.6487
25 9 20 -5.4566 -0.3211
25 9 21 5.2691 -10.2866
25 9 22 -14.0693 -24.4003
25 9 23 -5.3872 -1.3133
25 9 24 6.8890 9.6344
25 9 25 -7.7897 2.5513
25 9 26 2.3271 -5.7898
25 9 27 4.3429 -20.6840
25 9 28 -7.5630 -1.8123
25 9 29 11.2772 13.9024
25 9 30 8.1438 3.5384
25 9 31 4.4154 -6.8966
25 9 32 35.1133 11.0368
25 9 33 9.5157 8.7037
25 9 34 5.8235 -18.1196
25 9 35 22.7125 9.0033
25 11 0 44.2466 -0.1211
25 11 1 4.6838 -20.9798
25 11 2 -37.7206 -56.3223
25 11 3 35.3314 -23.3349
25 11 4 48.0897 13.8954
25 11 5 19.7234 20.3441
25 11 6 6.2583 5.3014
25 11 7 51.8681 2.1477
25 11 8 37.2272 -10.9005
25 11 9 30.0431 11.9517
25 11 10 -0.5050 15.6928
25 11 11 -10.2353 -11.6906
25 11 12 13.2634 -0.2064
25 11 13 -16.0353 8.5707
25 11 14 -9.3357 5.9921
25 11 15 -4.8112 17.9032
25 11 16 -0.1498 -5.4025
25 11 17 -7.2526 12.8139
25 11 18 -19.6849 -8.2204
25 11 19 4.7533 -5.0824
25 11 20 14.2980 4.9060
25 11 21 -6.6698 4.3937
25 11 22 -3.6947 14.9532
25 11 23 3.5586 8.6898
25 11 24 11.3905 -0.0196
25 11 25 25.0285 -7.8196
25 11 26 4.7314 19.4384
25 11 27 -7.2532 2.0524
25 11 28 -14.0608 -2.3886
25 11 29 2.9933 -16.6911
25 11 30 -9.0286 12.3674
25 11 31 6.8633 -1.1627
25 11 32 -4.1633 -1.3944
25 13 0 -18.3696 0.6142
25 13 1 -9.9952 0.4689
25 13 2 -12.4798 1.7790
25 13 3 27.9150 -10.4624
25 13 4 -2.6871 -1.5574
25 13 5 10.1069 13.1316
25 13 6 11.4579 0.5186
25 13 7 6.6208 1.2375
25 13 8 -12.5312 15.8470
25 13 9 -3.0651 1.5049
25 13 10 -2.8579 5.4019
25 13 11 -7.1432 -3.6926
25 13 12 4.9821 22.8733
25 13 13 0.9699 16.5356
25 13 14 -21.2524 -21.6094
25 13 15 -1.0271 -2.6928
25 13 16 -8.7342 -7.0513
25 13 17 20.8697 -7.4730
25 13 18 -17.7655 -20.1679
25 13 19 2.0331 21.2692
25 13 20 9.7834 0.1891
25 13 21 -1.3993 7.8515
25 13 22 -21.6852 -25.1872
25 13 23 -9.1140 -4.8788
25 13 24 3.7226 -4.1705
25 13 25 -4.2193 -7.7392
25 13 26 -13.3904 15.2885
25 13 27 -8.6886 12.1782
25 13 28 8.0628 -1.2815
25 13 29 3.3427 -23.1412
25 13 30 0.6369 10.5732
25 13 31 -6.1253 -9.2818
25 13 32 -20.5389 -1.9642
25 15 0 9.6191 0.5920
25 15 1 4.2088 -22.5711
25 15 2 -21.0778 -17.8178
25 15 3 -23.8691 0.1689
25 15 4 6.2257 6.9472
25 15 5 -3.5391 8.9169
25 15 6 2.2263 1.3020
25 15 7 -8.6963 5.6916
25 15 8 1.8657 -12.0871
25 15 9 -5.8431 -7.4174
25 15 10 14.4339 -6.0204
25 15 11 -11.4169 -14.5668
25 15 12 -2.2730 8.9169
25 15 13 13.0961 -14.6894
25 15 14 -0.0398 -2.2681
25 15 15 -7.9579 -3.8549
25 15 16 -5.0038 -14.4794
25 15 17 -2.5264 -7.3776
25 15 18 5.4187 -7.3698
25 15 19 -4.5970 1.8713
25 15 20 1.9792 10.3503
25 15 21 -9.0732 5.4664
25 15 22 18.4873 -0.3356
25 15 23 -29.8666 -0.4481
25 15 24 -23.2948 -4.4461
25 15 25 -10.2515 -11.8312
25 15 26 -22.9350 17.0675
25 15 27 2.1490 -6.0223
25 15 28 3.6557 10.2966
25 15 29 14.0032 29.6291
25 15 33 -5.3824 0.6352
25 15 34 -10.0613 15.0735
25 17 0 18.1164 -0.0502
25 17 1 -1.8511 -9.0051
25 17 2 -12.3338 -10.2518
25 17 3 -7.1290 11.0871
25 17 4 9.3099 4.9051
25 17 5 -9.2729 11.4002
25 17 6 -2.3148 10.0267
25 17 7 -4.3044 16.2901
25 17 8 -7.6404 2.4683
25 17 9 4.4284 18.4517
25 17 10 2.2840 -7.0691
25 17 11 -2.1818 12.9432
25 17 12 1.1305 -27.5254
25 17 13 -13.7221 -17.8158
25 17 14 27.5508 11.0811
25 17 15 -11.3535 -19.1413
25 17 16 -13.3974 10.3970
25 17 17 -9.6244 1.4583
25 17 18 -3.1561 1.2242
25 17 19 -20.1267 -11.1531
25 17 20 3.7941 5.3698
25 17 21 16.8919 11.9157
25 17 22 1.1811 8.8761
25 17 23 -12.5901 -9.9605
25 17 29 -0.4513 9.8646
25 17 30 31.6627 21.7817
25 19 0 -1.7607 -0.4537
25 19 1 6.1946 -16.8431
25 19 2 -10.4446 7.0407
25 19 3 9.3495 -6.5600
25 19 4 -18.3454 -4.6732
25 19 5 6.3310 -1.2388
25 19 6 -12.0874 0.0089
25 19 7 -0.5313 -9.1528
25 19 8 -49.0055 0.9118
25 19 9 1.0207 -19.7392
25 19 10 3.2218 16.6279
25 19 11 7.2922 -9.0547
25 19 12 11.8157 17.3124
25 19 13 2.2414 -3.4128
25 19 14 1.1901 -17.3271
25 19 15 8.6092 -1.8369
25 19 16 -2.8316 -17.1872
25 19 17 -5.5141 -8.5786
25 19 18 -4.3670 29.7267
25 19 19 0.1532 13.2715
25 19 20 1.6671 -15.0572
25 19 21 9.9982 11.4013
25 19 22 6.1856 10.0147
25 21 0 -12.9017 0.0042
25 21 1 10.5107 -3.0026
25 21 2 -12.1732 -12.5269
25 21 3 13.2713 33.8548
25 21 4 1.3462 -13.5943
25 21 5 -3.5231 2.1214
25 21 6 11.7682 20.0329
25 21 7 -1.3123 10.0428
25 21 8 -11.1217 -11.8927
25 21 9 -24.7766 -10.5819
25 21 10 6.5950 29.6121
25 21 11 4.2405 5.5677
25 21 12 23.7875 -17.7648
25 21 13 7.4792 13.8998
25 21 14 -12.2064 -1.1395
25 21 15 2.4707 -9.1954
25 21 16 2.8833 -8.0296
25 21 17 -3.7074 -9.7597
26 0 0 5.6240 -1.4875
26 0 1 0.5262 8.8661
26 0 2 -19.8478 0.2223
26 0 3 -1.2501 1.0578
26 0 4 -6.1446 1.4154
26 0 5 -0.1713 19.9246
26 0 6 17.9059 -0.1390
26 0 7 0.4677 13.1109
26 0 8 0.4963 -0.4554
26 0 9 -0.1800 3.6760
26 0 10 11.8291 0.1941
26 0 11 0.2055 0.9866
26 0 12 4.5236 -0.5538
26 0 13 0.3940 4.1280
26 0 14 15.4861 -0.4304
26 0 15 -0.9730 2.7964
26 0 16 -6.5988 1.0762
26 0 17 0.0515 23.0548
26 0 18 -8.7405 0.6341
26 0 19 1.1516 -7.0408
26 0 20 5.4508 -1.1080
26 0 21 -0.4239 -28.5874
26 0 22 9.1454 -0.6728
26 0 23 -1.1210 4.0566
26 0 24 1.2591 0.9696
26 0 25 0.5971 4.7955
26 0 26 -6.2988 0.4034
26 0 27 0.7532 2.4260
26 0 28 19.9754 -0.7310
26 0 29 -0.6478 -11.0017
26 0 30 15.9312 -0.0991
26 0 31 -0.3844 7.9161
26 0 32 3.5593 0.4553
26 2 0 12.3263 -0.5658
26 2 1 4.6181 -5.7015
26 2 2 36.0368 -5.5275
26 2 3 1.5518 -8.5083
26 2 4 9.7603 14.1450
26 2 5 -12.3009 -4.1954
26 2 6 -0.9152 -7.2539
26 2 7 -9.0184 4.0883
26 2 8 -3.5770 14.7653
26 2 9 7.2159 -7.8474
26 2 10 23.5190 -0.2676
26 2 11 -26.8791 -6.1101
26 2 12 17.8937 9.1604
26 2 13 -10.4095 -15.3248
26 2 14 11.9307 -15.8564
26 2 15 24.7796 10.1148
26 2 16 28.9221 -12.4939
26 2 17 7.0715 -2.2153
26 2 18 -1.9592 21.6483
26 2 19 -14.3700 0.7329
26 2 20 20.8440 -1.3459
26 2 21 7.3189 7.3356
26 2 22 30.5675 -8.6481
26 2 23 -8.8264 -12.9167
26 2 24 27.7072 -4.0078
26 2 25 -5.0139 -3.6447
26 2 26 11.3329 1.1158
26 2 27 -2.9932 -7.8088
26 2 28 5.6831 -9.1450
26 2 29 -16.9093 -23.9915
26 2 30 -8.6886 -6.4898
26 2 31 7.4763 10.3476
26 2 32 -2.7153 -17.1568
26 2 33 -5.1891 9.8743
26 4 0 -8.8831 1.3748
26 4 1 7.8424 24.1817
26 4 2 -4.7051 -3.2674
26 4 3 20.4921 -23.1600
26 4 4 -2.0624 11.4984
26 4 5 14.7782 -0.0035
26 4 6 24.1734 1.7163
26 4 7 0.8930 -7.7120
26 4 8 -4.4237 -13.1044
26 4 9 -2.6437 -10.5109
26 4 10 29.2649 -2.2738
26 4 11 -0.0561 4.1628
26 4 12 -2.9021 -8.7813
26 4 13 11.9708 -19.6433
26 4 14 -10.8969 -11.3472
26 4 15 -14.2665 -4.3478
26 4 16 14.9022 25.8007
26 4 17 17.0740 32.3782
26 4 18 0.3062 2.7271
26 4 19 1.4283 3.1403
26 4 20 -13.0848 -19.9212
26 4 21 -35.4055 21.9183
26 4 22 6.1601 4.0508
26 4 23 5.2070 36.5489
26 4 24 -5.2680 -0.9849
26 4 25 7.2269 3.6011
26 4 26 -11.1521 -4.2698
26 4 27 -4.1053 -3.6909
26 4 28 -16.0314 -11.6681
26 4 29 -4.1036 -0.9165
26 4 30 0.4444 3.1754
26 4 31 -0.7945 -11.0261
26 4 32 6.4282 0.2235
26 4 33 -4.0346 -6.2885
26 6 0 4.8899 1.7307
26 6 1 28.9322 -0.8683
26 6 2 27.6127 -16.4956
26 6 3 18.7270 -32.7362
26 6 4 -5.5927 -3.1759
26 6 5 -34.3043 -26.2654
26 6 6 32.5037 -9.7014
26 6 7 0.4058 28.8988
26 6 8 -2.5695 15.0636
26 6 9 18.7048 19.7500
26 6 10 5.0119 -22.0262
26 6 11 -16.5391 16.7883
26 6 12 -8.7934 6.5887
26 6 13 -0.1673 -2.2682
26 6 14 -29.9621 12.7847
26 6 15 -3.7093 -3.3932
26 6 16 5.3953 14.8444
26 6 17 5.7133 0.1038
26 6 18 -16.6534 23.8894
26 6 19 -11.9842 -2.1635
26 6 20 4.4103 -11.7227
26 6 21 19.8083 -2.7385
26 6 22 -9.4154 2.9738
26 6 23 0.1174 -9.7033
26 6 24 -6.2134 11.9979
26 6 25 -3.1094 24.0335
26 6 26 4.6186 19.5429
26 6 27 -7.4568 10.8088
26 6 28 -8.8524 -9.5404
26 6 29 4.3171 -8.4070
26 6 30 -2.0557 5.0513
26 6 31 3.6816 -1.2819
26 6 32 7.8126 8.7935
26 6 33 11.0090 2.1420
26 8 0 6.2257 -2.3880
26 8 1 20.3669 69.4793
26 8 2 -4.9227 5.7301
26 8 3 11.3730 -17.8099
26 8 4 -5.6232 15.8811
26 8 5 -44.2886 -14.0290
26 8 6 -27.9869 14.6812
26 8 7 -7.4271 10.2112
26 8 8 0.6414 -10.1312
26 8 9 -38.7303 -11.9125
26 8 10 8.7682 -4.7379
26 8 11 -9.8266 2.9719
26 8 12 -16.3834 11.3845
26 8 13 -4.2080 -7.0474
26 8 14 -1.2723 -9.4218
26 8 15 -8.9708 -11.6295
26 8 16 23.1095 18.1058
26 8 17 16.1729 -9.8143
26 8 18 -2.3922 0.6250
26 8 19 -19.9866 -11.5078
26 8 20 -15.3166 5.0536
26 8 21 -1.0323 -0.1075
26 8 22 -14.0971 -10.0608
26 8 23 8.4970 7.1364
26 8 24 -13.4416 -17.0466
26 8 25 -14.9678 9.4051
26 8 26 7.9003 -9.3794
26 8 27 -17.0621 8.7195
26 8 28 2.6116 0.4690
26 8 29 -7.9501 2.1835
26 8 30 -1.5357 1.4275
26 8 31 2.3626 11.8758
26 10 0 21.9348 -0.7366
26 10 1 -3.7329 6.1034
26 10 2 -11.3471 58.8600
26 10 3 0.2112 19.4094
26 10 4 -33.2603 26.1070
26 10 5 -1.4720 10.3178
26 10 6 9.2156 67.7245
26 10 7 -7.2398 -13.8809
26 10 8 -15.4463 22.0770
26 10 9 -38.7062 29.0181
26 10 10 -21.7891 -9.1872
26 10 11 17.1187 0.1703
26 10 12 -1.0621 5.0025
26 10 13 22.0566 27.6952
26 10 14 14.0444 30.3367
26 10 15 -35.2028 -34.9127
26 10 16 9.0694 -1.1560
26 10 17 14.0256 -0.6157
26 10 18 -1.2283 5.8053
26 10 19 -5.5128 -18.2045
26 10 20 -10.3862 -3.7761
26 10 21 -1.6973 14.4499
26 10 22 -16.9679 12.6804
26 10 23 2.5601 8.4273
26 10 24 -0.7704 3.8522
26 10 25 7.7740 -1.3737
26 10 26 -1.4842 14.4595
26 10 27 5.6632 -0.5109
26 10 28 -3.0677 15.4782
26 10 29 -6.0571 3.9478
26 12 0 13.7065 0.7861
26 12 1 32.6742 -53.2317
26 12 2 5.9617 -0.5979
26 12 3 -0.3939 -26.7145
26 12 4 -33.1340 6.6404
26 12 5 -27.5546 -16.8037
26 12 6 -23.2973 16.0155
26 12 7 3.8295 -2.7416
26 12 8 5.4962 11.1111
26 12 9 16.5874 24.0566
26 12 10 -30.3494 10.4998
26 12 11 11.6379 25.0527
26 12 12 -3.1047 11.5704
26 12 13 -6.1006 13.9849
26 12 14 18.7375 27.0781
26 12 15 3.7342 13.5202
26 12 16 1.8721 -1.2849
26 12 17 -12.0925 7.9970
26 12 18 -24.1587 8.1805
26 12 19 -7.9587 1.5383
26 12 20 1.7758 -1.0007
26 12 21 16.6339 -6.9778
26 12 22 -16.6371 -13.1189
26 12 23 -3.9686 -4.8809
26 12 24 -2.7855 -14.1557
26 12 25 -1.8685 14.4264
26 12 26 11.4651 -5.5814
26 12 27 17.5585 -20.9993
26 12 28 -8.0280 4.5654
26 14 0 15.2855 0.1082
26 14 1 2.5088 -11.7258
26 14 2 8.5107 -7.8830
26 14 3 5.1766 11.2207
26 14 4 8.7809 -4.2718
26 14 5 -12.1511 29.4278
26 14 6 -17.0135 -20.2638
26 14 7 -13.3540 3.9446
26 14 8 -0.4361 5.6920
26 14 9 3.0398 20.9608
26 14 10 0.4543 -8.0537
26 14 11 10.2758 -1.4360
26 14 12 12.8729 -2.6568
26 14 13 16.2226 -1.8488
26 14 14 2.0163 22.9912
26 14 15 -9.9140 7.0604
26 14 16 4.4926 -18.9025
26 14 17 21.8732 -11.6738
26 14 18 3.9272 15.2607
26 14 19 8.2360 -9.6229
26 14 20 5.9272 -3.2918
26 14 21 17.0754 -3.2724
26 14 22 14.5143 2.4955
26 14 23 -12.1495 -18.6874
26 14 24 -2.0835 -30.9481
26 14 25 -1.6120 -9.6242
26 14 26 -2.3382 -3.9434
26 14 27 -1.4890 -9.4482
26 14 28 -3.2685 -2.5323
26 14 29 23.5151 1.3309
26 14 30 -13.2117 1.6993
26 14 31 -13.2816 -7.9260
26 16 0 -30.5844 0.8334
26 16 1 11.3088 -13.9103
26 16 2 12.1480 -2.2798
26 16 3 6.9814 0.0086
26 16 4 5.5236 4.9050
26 16 5 14.7818 3.7077
26 16 6 16.9208 -11.8036
26 16 7 11.3827 -2.0229
26 16 8 -16.1103 37.1818
26 16 9 -0.3565 -14.2418
26 16 10 -4.6308 8.2548
26 16 11 26.1093 -25.2485
26 16 12 14.0851 6.9284
26 16 13 21.4764 -10.9671
26 16 14 -17.0435 1.1116
26 16 21 8.6003 -0.2955
26 16 22 -3.7243 -15.1025
26 16 23 1.7077 13.3828
26 16 24 2.8656 8.5605
26 16 25 -10.6820 -10.7642
26 16 26 7.2123 3.2804
26 16 27 20.0635 9.2029
26 18 0 -12.3861 -1.2475
26 18 1 -22.8249 -13.8349
26 18 2 5.1344 -11.2316
26 18 3 -0.8700 -4.8328
26 18 4 1.3090 12.3353
26 18 5 -20.0016 -37.5935
26 18 6 -2.2589 4.2743
26 18 7 12.0133 -14.0944
26 18 8 -3.5603 -5.2660
26 18 9 -12.7751 -1.6064
26 18 10 7.1301 5.6278
26 18 11 3.3457 22.8491
26 18 12 -0.3924 -1.0659
26 18 13 6.0277 -4.1161
26 18 14 29.4074 -11.7093
26 18 15 -0.9647 19.6294
26 18 16 -8.7053 25.8087
26 18 17 9.1540 8.6485
26 18 18 10.7586 -3.9736
26 18 19 -11.6744 7.3043
26 18 20 -3.5392 9.7504
26 18 21 18.9790 -6.1942
26 18 22 -5.6155 0.8446
26 20 0 16.8217 0.5105
26 20 1 -23.7176 -11.6066
26 20 2 -22.5058 7.2291
26 20 3 2.4342 -7.8808
26 20 4 7.1339 -6.9408
26 20 5 -24.6569 11.1376
26 20 6 -9.3337 14.9932
26 20 7 0.6779 3.0592
26 20 8 8.0899 0.0818
26 20 9 -4.8535 8.9919
26 20 10 6.3273 -13.4414
26 20 11 13.2727 27.7441
26 20 12 7.5968 -14.8587
26 20 13 8.8318 2.6348
27 1 0 -10.0226 -0.6975
27 1 1 -13.9382 -5.0593
27 1 2 -11.0912 -14.4803
27 1 3 -3.9272 14.8740
27 1 4 20.1196 9.9558
27 1 5 3.4754 16.6751
27 1 6 6.5592 2.7582
27 1 7 4.4753 7.4788
27 1 8 17.2194 -12.5331
27 1 9 18.7716 -12.0208
27 1 10 2.8515 -3.0980
27 1 11 23.9028 26.6576
27 1 12 17.9431 -12.9798
27 1 13 -18.9151 13.7382
27 1 14 -0.8520 -8.5765
27 1 15 -6.3669 1.0279
27 1 16 -12.7587 11.4499
27 1 17 -26.5264 -4.1727
27 1 18 9.4163 -5.4049
27 1 19 8.3817 -6.1042
27 1 20 13.7138 0.2455
27 1 21 8.9044 8.9129
27 1 22 -8.6205 8.4712
27 1 23 -0.3641 1.6297
27 1 24 12.9209 16.6227
27 1 25 -15.0601 -12.4005
27 1 26 11.1860 3.3179
27 1 27 11.4455 0.9952
27 1 28 8.1129 -1.9093
27 1 29 -5.8019 13.7750
27 1 30 20.7888 25.6374
27 3 0 2.2575 0.1570
27 3 1 -2.3225 0.7796
27 3 2 9.2739 16.9159
27 3 3 -2.7280 -14.1070
27 3 4 5.3243 19.4318
27 3 5 14.0214 -3.9660
27 3 6 -11.7956 20.1200
27 3 7 -10.1418 13.2405
27 3 8 -14.2057 12.2365
27 3 9 4.2689 -8.8008
27 3 10 3.8462 -3.6969
27 3 11 1.9873 -5.4368
27 3 12 28.7451 15.2441
27 3 13 -6.2202 5.6167
27 3 14 8.8630 -6.4289
27 3 15 2.5161 -6.5447
27 3 16 5.8135 -0.1168
27 3 17 -20.5146 0.7032
27 3 18 7.7526 -11.4570
27 3 19 24.4196 8.2710
27 3 20 9.9666 -7.1612
27 3 21 -0.0946 8.7770
27 3 22 24.9450 -6.4038
27 3 23 0.1733 -13.6044
27 3 24 -0.0201 5.4506
27 3 25 -5.1047 -1.0702
27 3 26 0.3577 1.0772
27 3 27 0.1580 -2.9336
27 3 28 5.2579 18.2580
27 3 29 -8.9680 -11.1618
27 3 30 -12.5991 0.0531
27 5 0 -12.1843 1.3194
27 5 1 -9.1964 -10.9016
27 5 2 -49.5172 12.7221
27 5 3 11.0585 -26.2319
27 5 4 -26.9144 17.8668
27 5 5 20.6072 16.2718
27 5 6 -23.7058 0.9792
27 5 7 -1.4702 -5.5477
27 5 8 36.3571 -0.1000
27 5 9 1.8676 -26.6565
27 5 10 -20.7630 11.9681
27 5 11 -22.2853 -4.3194
27 5 12 1.4490 -14.9895
27 5 13 -26.9399 23.0262
27 5 14 -4.6178 -8.7414
27 5 15 -0.9227 -0.1414
27 5 16 10.1100 -11.9485
27 5 17 -6.2834 -29.8914
27 5 18 -28.7242 -11.2499
27 5 19 -14.9393 -15.6649
27 5 20 17.7275 -3.8659
27 5 21 13.9275 -7.2989
27 5 22 -12.6158 -23.6464
27 5 23 -3.5249 -22.4546
27 5 24 16.4829 -1.4613
27 5 25 0.1346 0.4689
27 5 26 -19.3006 -2.7901
27 5 27 -11.8799 15.2226
27 5 28 -8.5211 4.4241
27 5 29 18.5961 6.3272
27 5 30 -17.3548 -2.4529
27 7 0 32.3911 -1.1357
27 7 1 15.0743 -11.2120
27 7 2 -44.5408 -19.8949
27 7 3 -23.7095 17.5857
27 7 4 -24.2452 -15.8219
27 7 5 10.6959 6.9078
27 7 6 -8.8461 -6.9289
27 7 7 22.7618 -12.1434
27 7 8 -3.3063 -2.1473
27 7 9 12.6142 -10.5030
27 7 10 -7.7870 -5.8824
27 7 11 -1.7010 13.7941
27 7 12 9.5036 -1.1453
27 7 13 -5.8902 -11.6872
27 7 14 -17.7832 -7.4059
27 7 15 13.8644 0.0751
27 7 16 -4.7329 -1.0547
27 7 17 -15.7839 16.6353
27 7 18 -0.1609 -4.7804
27 7 19 -7.0631 -15.3825
27 7 20 -16.5760 -1.5709
27 7 21 -22.3962 6.4221
27 7 22 4.8874 -8.4454
27 7 23 11.2961 -1.7720
27 7 24 -5.2032 -13.6483
27 7 25 -11.5534 -13.3639
27 7 26 -7.5260 6.5242
27 7 27 -14.9764 -3.8159
27 7 28 1.9707 -12.3757
27 7 29 -6.8095 10.3592
27 9 0 72.3945 -0.8877
27 9 1 0.0941 -5.4027
27 9 2 25.1800 8.7357
27 9 3 -15.3562 5.1789
27 9 4 68.6903 -26.7793
27 9 5 18.9888 21.0264
27 9 6 -18.7843 8.6805
27 9 7 5.2551 15.6099
27 9 8 28.7921 -15.3997
27 9 9 -5.8587 -0.2159
27 9 10 6.6753 17.4460
27 9 11 -10.2458 23.5299
27 9 12 -27.8398 10.6542
27 9 13 16.0677 -22.2231
27 9 14 -7.5504 -14.3379
27 9 15 -10.6074 -7.5231
27 9 16 -2.0345 -3.0106
27 9 17 -3.7255 12.1587
27 9 18 -8.4575 16.5890
27 9 19 -20.7045 -7.8136
27 9 20 -2.3906 2.6019
27 9 21 23.5601 2.5033
27 9 22 4.8303 -0.9865
27 9 23 -6.1203 -3.7094
27 9 24 -7.0136 -7.2275
27 9 25 -2.4679 -5.1984
27 9 26 11.8220 -0.5040
27 9 27 17.3918 1.5375
27 9 28 -14.6029 0.5923
27 9 29 3.9931 16.4687
27 11 0 -13.9699 1.2063
27 11 1 -38.0740 -13.2951
27 11 2 -23.6784 7.8657
27 11 3 -26.6550 14.9815
27 11 4 2.7918 4.6298
27 11 5 -7.4244 -2.6504
27 11 6 -25.6514 5.8225
27 11 7 2.0410 4.6985
27 11 8 -1.7017 6.4299
27 11 9 -8.9886 2.1839
27 11 10 -30.2387 15.4735
27 11 11 -8.9404 -5.2211
27 11 12 -0.7219 8.8235
27 11 13 1.9042 -6.7238
27 11 14 7.5305 -14.8039
27 11 15 -1.0382 5.6725
27 11 16 -4.9520 -6.2418
27 11 17 1.2234 -2.2480
27 11 18 -1.6892 10.3656
27 11 19 4.3673 0.0828
27 11 20 -10.6207 6.7137
27 11 21 8.7139 -9.3983
27 11 22 10.8394 -12.2985
27 11 23 13.6887 -16.9186
27 11 24 2.6657 -13.1324
27 11 25 7.8606 0.0204
27 11 26 10.1808 -28.7898
27 11 27 -4.0805 -6.7741
27 11 28 8.4796 -10.3362
27 11 29 15.8077 14.4057
27 11 30 -0.7654 6.8482
27 11 31 1.8601 2.7473
27 13 0 2.3159 -0.1358
27 13 1 -24.3254 8.1889
27 13 2 18.1611 -16.4191
27 13 3 2.7356 7.3823
27 13 4 24.0230 12.8668
27 13 5 -4.1545 -5.7961
27 13 6 -12.9894 14.7374
27 13 7 13.3371 0.1281
27 13 8 5.5558 0.7190
27 13 9 13.4501 -2.0733
27 13 10 -19.8685 -5.8383
27 13 11 -18.2873 7.8809
27 13 12 5.4975 9.3749
27 13 13 -4.8520 1.4974
27 13 14 -11.7029 -13.3489
27 13 15 6.4664 20.7295
27 13 16 0.4690 0.7836
27 13 17 -0.5122 22.0973
27 13 18 7.4040 17.9428
27 13 19 -4.4061 13.7745
27 13 20 -0.5544 -0.8487
27 13 21 6.0934 -2.5547
27 13 22 -0.6152 6.4832
27 13 23 -9.6096 14.8131
27 13 24 10.8051 -12.2123
27 13 25 -13.3332 0.5642
27 15 0 -6.8144 0.2120
27 15 1 -5.0817 34.2484
27 15 2 3.4121 8.0611
27 15 3 -10.5623 -28.9219
27 15 4 14.7731 12.4433
27 15 5 -3.5159 0.0133
27 15 6 3.9586 -16.3050
27 15 7 -18.0117 14.1071
27 15 8 16.3195 5.1368
27 15 9 9.4547 -2.9581
27 15 10 -1.2068 6.0900
27 15 11 -13.8718 -14.0636
27 15 12 -7.8781 -8.3479
27 15 13 -10.3907 -2.2271
27 15 14 0.9269 -20.6478
27 15 15 2.0547 6.9020
27 15 16 14.2086 -1.3845
27 15 17 8.1763 21.8862
27 15 18 2.1691 -4.5028
27 15 19 -17.4869 -1.6953
27 15 20 -14.3956 7.2594
27 15 21 5.2879 -1.3802
27 15 22 -2.6788 -2.1009
27 17 4 19.6641 -19.5765
27 17 5 3.5979 -49.0373
27 17 7 30.9264 -10.5580
27 17 8 7.8888 21.3960
27 17 9 -22.8401 -10.4777
27 17 10 -0.9335 -3.2818
27 17 11 -4.1281 13.0864
27 17 12 -15.0503 1.9780
27 17 13 -5.2541 -11.8289
27 17 14 2.3346 11.6078
27 17 15 -0.3592 3.8078
27 17 16 20.6259 5.8874
27 17 17 15.5361 5.7339
27 19 2 26.0521 -12.1060
27 19 3 -8.2036 5.8365
27 19 4 -26.4365 9.3561
28 0 0 15.3046 0.2696
28 0 1 -0.1052 -6.5384
28 0 2 3.9121 -0.4711
28 0 3 -0.0973 2.7408
28 0 4 1.9763 -0.2027
28 0 5 -0.1835 -10.2489
28 0 6 7.2112 0.7922
28 0 7 -0.6142 15.7017
28 0 8 10.9095 -0.3395
28 0 9 0.1891 14.9962
28 0 10 10.9461 -0.8743
28 0 11 1.1700 8.7853
28 0 12 22.7806 1.0031
28 0 13 0.2237 30.7749
28 0 14 -21.1344 0.4737
28 0 15 -1.1908 5.2270
28 0 16 3.1275 -1.1480
28 0 17 -0.4718 -10.5459
28 0 18 27.8865 -0.0016
28 0 19 0.9955 4.9854
28 0 20 15.4026 0.8718
28 0 21 0.4233 3.7491
28 0 22 -35.7100 -0.4000
28 0 23 -0.7024 9.9090
28 0 24 24.4294 -0.5597
28 0 25 -0.3147 14.3037
28 0 26 16.4638 0.4862
28 2 0 11.2989 -0.1630
28 2 1 -5.4370 -16.4765
28 2 2 1.0715 10.3356
28 2 3 1.2617 -0.1179
28 2 4 -18.8104 -2.1320
28 2 5 -13.5093 4.3743
28 2 6 -4.8789 -3.1977
28 2 7 -2.5875 -13.6499
28 2 8 6.7757 7.9463
28 2 9 37.9410 -25.7505
28 2 10 -6.3342 -0.3497
28 2 11 1.0930 19.9236
28 2 12 6.4111 -2.0405
28 2 13 25.8154 -5.8246
28 2 14 19.4112 -0.7121
28 2 15 -2.7796 2.6891
28 2 16 -6.8188 14.6753
28 2 17 5.4493 22.9638
28 2 18 -0.6477 -1.1796
28 2 19 -2.7353 6.2802
28 2 20 14.2113 28.8459
28 2 21 6.7042 -7.5828
28 2 22 -4.3882 7.0876
28 2 23 0.3120 3.9611
28 2 24 -14.0582 2.0982
28 2 25 25.0902 -14.1672
28 2 26 10.4786 -0.7725
28 2 27 27.5505 -6.3343
28 2 28 20.3999 -1.3355
28 4 0 9.9494 0.2300
28 4 1 -9.6417 -14.9683
28 4 2 15.8381 -1.0952
28 4 3 -5.0252 39.8043
28 4 4 -3.1237 -2.6373
28 4 5 -8.0409 6.0895
28 4 6 -6.0831 17.7191
28 4 7 -0.2314 -13.2009
28 4 8 -8.1018 13.5293
28 4 9 -0.4541 -14.0114
28 4 10 -11.3665 8.4716
28 4 11 -10.9854 13.7313
28 4 12 9.3647 23.8695
28 4 13 5.6430 -2.8384
28 4 14 -10.8387 16.7877
28 4 15 22.9796 -0.7370
28 4 16 -8.9163 -15.5138
28 4 17 -6.0726 1.0534
28 4 18 5.9622 14.7946
28 4 19 -22.6013 19.4907
28 4 20 -2.3491 18.5467
28 4 21 -14.8725 8.0036
28 4 22 -11.1322 -1.7685
28 4 23 -12.1590 10.5147
28 4 24 5.7997 -20.0580
28 4 25 5.3078 20.0665
28 4 26 2.9235 -10.9370
28 4 27 -4.3531 3.1646
28 6 0 10.2456 -1.0343
28 6 1 -33.4672 -5.4993
28 6 2 5.3182 -6.3376
28 6 3 10.4752 13.9966
28 6 4 0.6431 13.7476
28 6 5 24.7664 4.4420
28 6 6 -5.8538 17.5639
28 6 7 1.0423 -8.1555
28 6 8 -2.9860 -2.0352
28 6 9 -15.5550 -2.8207
28 6 10 15.2392 4.0206
28 6 11 14.7080 2.4057
28 6 12 -1.3032 4.8128
28 6 13 2.2056 2.4287
28 6 14 2.3053 6.7510
28 6 15 -5.2178 -10.1519
28 6 16 -8.6316 -18.2173
28 6 17 3.8057 1.6695
28 6 18 -25.6375 4.9895
28 6 19 11.5158 3.4662
28 6 20 -5.0965 4.8798
28 6 21 9.8399 -0.0288
28 6 22 -8.6673 9.6483
28 6 23 6.8843 1.4255
28 6 24 -11.3171 -18.8927
28 8 0 -42.8214 -0.4619
28 8 1 1.7559 0.8076
28 8 2 12.3553 17.3114
28 8 3 12.3430 31.8448
28 8 4 -32.3785 -8.6340
28 8 5 5.4025 28.9966
28 8 6 9.3317 -3.8365
28 8 7 -22.2134 -11.2118
28 8 8 0.3853 -6.4711
28 8 9 -8.9356 -17.8243
28 8 10 11.9424 30.6750
28 8 11 5.1313 -0.2903
28 8 12 7.7942 -0.3900
28 8 13 3.7875 6.3605
28 8 14 14.5237 -2.7166
28 8 15 3.7690 -6.6008
28 8 16 -1.9307 -6.5150
28 8 17 -15.1377 -10.5785
28 8 18 4.4524 -5.8593
28 8 19 -6.0502 -0.5377
28 8 20 -10.4078 12.6539
28 8 21 16.9487 6.1437
28 8 22 -0.1004 -8.6982
28 8 23 12.9338 -1.6888
28 10 0 -26.9031 1.2305
28 10 1 2.2719 -27.1547
28 10 2 2.1621 -4.3816
28 10 3 26.3838 -8.4993
28 10 4 4.2033 -2.1935
28 10 5 -0.9201 -4.2980
28 10 6 12.6972 2.5598
28 10 7 -35.7947 -29.3326
28 10 8 -17.8997 -8.9584
28 10 9 -18.7344 11.9528
28 10 10 -0.5411 -4.9386
28 10 11 -7.8365 11.2972
28 10 12 -1.4995 -2.6883
28 10 13 -10.3435 12.6149
28 10 14 4.1908 -14.8079
28 10 15 -22.9123 10.2532
28 10 16 2.4840 -7.3782
28 10 17 -7.1069 -0.0544
28 10 18 -3.6034 -1.0985
28 10 19 2.7026 3.3328
28 10 20 -0.7137 -4.3001
28 10 21 8.4189 2.8763
28 10 22 -4.7648 -16.9894
28 10 23 16.0162 -6.4228
28 10 24 8.7975 8.4325
28 10 25 -10.9661 -5.3231
28 10 26 -5.8394 -4.7001
28 12 0 -1.1842 0.3132
28 12 1 3.4641 -0.4974
28 12 2 -22.2395 -5.6801
28 12 3 7.4016 -24.4968
28 12 4 8.3165 15.7098
28 12 5 16.5862 10.9780
28 12 6 0.7840 -17.6904
28 12 7 -4.3146 5.2231
28 12 8 -2.8957 -10.5931
28 12 9 -5.1407 13.9381
28 12 10 -15.5611 11.9244
28 12 11 -15.1526 14.8314
28 12 12 -1.9370 16.2852
28 12 13 5.7310 21.5945
28 12 14 -0.4755 -4.1238
28 12 15 -2.6972 -0.1237
28 12 16 -9.0219 8.0766
28 12 17 -4.2762 -0.7467
28 12 18 -2.2751 -2.2005
28 12 19 0.0107 -3.8521
28 12 20 -11.1848 -0.7525
28 12 21 9.9037 -4.9389
28 12 22 7.9904 5.0354
28 12 23 -20.6522 -9.9569
28 12 24 -7.5214 12.6981
28 12 25 7.2242 5.8470
28 14 0 -5.3683 -0.0369
28 14 1 25.7437 2.4248
28 14 2 14.7705 1.7923
28 14 3 -10.6686 12.3771
28 14 4 22.8594 -11.6918
28 14 5 14.4521 8.9846
28 14 6 -3.6733 3.5290
28 14 7 1.3959 5.8926
28 14 8 12.5495 23.0418
28 14 9 -9.5928 -17.3316
28 14 10 -7.4046 14.9487
28 14 11 17.7143 -4.5980
28 14 12 -21.4759 18.3707
28 14 13 5.8570 0.8859
28 14 14 -20.5631 7.1586
28 14 15 19.4067 -24.8536
28 14 16 8.1267 14.5722
28 14 17 -1.0496 -5.5079
28 14 18 -3.6606 -7.3646
28 14 19 13.1356 -27.5632
28 14 20 -8.5445 9.5455
28 16 0 -42.4798 -1.5171
28 16 2 10.5549 -32.6225
28 16 4 48.2382 -14.3655
28 16 5 -0.8696 20.0737
28 16 6 -0.7981 -3.6078
28 16 7 -0.0343 -12.9204
28 16 8 7.0405 18.3108
28 16 9 2.4674 0.4924
28 16 10 -5.3797 -2.9071
28 16 11 7.8976 20.0041
28 16 12 6.6072 4.0358
29 1 0 0.7489 0.4368
29 1 1 -5.1288 -7.4337
29 1 2 5.9700 4.1511
29 1 3 -11.1831 10.3857
29 1 4 -1.5379 13.9612
29 1 5 -12.4791 -4.4321
29 1 6 12.1807 10.8741
29 1 7 0.5795 -4.8212
29 1 8 0.7095 -10.1373
29 1 9 -24.0098 -6.8520
29 1 10 -4.4536 -30.2096
29 1 11 -13.8419 -10.5686
29 1 12 -0.6863 7.4060
29 1 13 -7.1629 -15.9314
29 1 14 3.3672 -4.1809
29 1 15 -3.5773 23.2197
29 1 16 3.5370 8.0547
29 1 17 -5.7424 17.3116
29 1 18 -35.0075 14.9802
29 1 19 13.5947 -4.1149
29 1 20 -12.3916 0.8792
29 1 21 -4.3716 6.5130
29 1 22 -6.6223 10.1052
29 3 0 9.3980 0.0098
29 3 1 -7.4412 5.4517
29 3 2 -4.3887 9.9846
29 3 3 -1.0708 7.4622
29 3 4 3.1669 26.3254
29 3 5 4.2786 -2.5863
29 3 6 -10.8666 18.6463
29 3 7 3.7167 10.6117
29 3 8 7.3162 -7.1533
29 3 9 -4.3471 8.6477
29 3 10 -4.3199 -2.1727
29 3 11 -4.0641 -26.9753
29 3 12 -9.8786 -0.3014
29 3 13 -10.9819 7.6033
29 3 14 -12.9789 7.2027
29 3 15 5.7836 0.4388
29 3 16 23.1098 2.4615
29 3 17 11.6021 1.0516
29 3 18 3.0502 12.6892
29 3 19 -3.4596 -3.5642
29 3 20 0.7999 -8.8104
29 3 21 26.5602 -35.2189
29 3 22 -8.1332 21.6962
29 5 0 -19.9851 -0.7708
29 5 1 2.5615 -9.2637
29 5 2 -8.6930 14.5444
29 5 3 -12.8803 -8.9090
29 5 4 -9.5001 6.5893
29 5 5 1.4652 -0.3281
29 5 6 -8.7869 -10.7382
29 5 7 -0.7763 -3.5875
29 5 8 9.3488 3.5384
29 5 9 -0.3636 -2.8910
29 5 10 9.4086 -12.4392
29 5 11 8.5739 -8.1726
29 5 12 5.8429 -4.1603
29 5 13 -6.4046 -4.2369
29 5 14 -0.6396 -12.1837
29 5 15 -8.6043 5.1149
29 5 16 -7.4679 7.3571
29 5 17 -2.7241 3.7472
29 5 18 11.7469 4.6654
29 5 22 14.3753 -3.4500
29 5 23 -6.2546 17.5408
29 7 0 -0.4005 -0.9815
29 7 1 -15.3856 -24.3272
29 7 2 16.3669 43.1809
29 7 3 -19.6020 -12.1752
29 7 4 -13.0011 19.8495
29 7 5 -13.0094 -27.0664
29 7 6 -14.6841 6.9519
29 7 7 -2.1279 0.5013
29 7 8 -10.4248 21.7788
29 7 9 -14.2233 -9.6394
29 7 10 1.0599 6.5802
29 7 11 -14.3663 -3.6222
29 7 12 7.5376 -21.2601
29 7 13 -2.4905 9.4008
29 7 14 -11.9312 -20.6602
29 7 15 8.0989 4.2400
29 7 16 -25.1514 -4.0192
29 7 17 -8.2235 -5.6419
29 9 0 3.9850 1.4758
29 9 1 -20.2809 -37.7900
29 9 2 10.5158 -15.8592
29 9 3 0.1470 -1.6428
29 9 4 -10.7365 16.4196
29 9 5 -2.9204 -25.3119
29 9 6 7.0288 4.9105
29 9 7 -7.4761 -11.6087
29 9 8 -8.7660 4.9623
29 9 9 1.8651 0.6915
29 9 10 21.3192 -6.8368
29 9 11 -13.5731 10.9995
29 9 12 -12.2004 -1.8304
29 9 13 9.0087 -5.8645
29 9 14 -25.0040 21.9145
29 9 15 12.0635 -0.2341
29 9 16 -8.8523 9.3240
29 9 17 12.0888 6.4276
29 9 18 8.2825 -3.0774
29 9 19 -15.0689 -5.7030
29 9 20 9.0908 -21.9351
29 11 0 4.8148 0.2567
29 11 1 -19.5874 12.1690
29 11 2 7.0929 7.9842
29 11 3 8.0934 -8.7486
29 11 4 -7.6250 17.7483
29 11 5 8.4202 1.3946
29 11 6 0.8503 -5.1707
29 11 7 -6.1873 8.8196
29 11 8 -3.1647 -15.9845
29 11 9 10.4827 -12.1339
29 11 10 -19.3463 -11.1988
29 11 11 2.6376 1.7729
29 11 12 6.1383 15.1623
29 11 15 1.8511 -5.3709
29 11 16 -0.0672 36.7645
29 11 17 2.3844 -7.3315
29 11 18 -12.6372 7.1350
29 11 19 20.3499 24.6069
29 11 20 1.7281 3.6428
29 13 3 1.6199 11.6128
29 13 4 -14.1749 4.6319
29 13 5 -12.3855 30.0563
29 13 6 -6.8065 -12.0627
29 13 7 4.3915 14.1195
29 13 8 -3.2613 -0.6649
29 13 9 8.8790 -9.5425
29 13 10 17.2265 -10.0859
29 13 11 -24.2324 1.0410
29 13 12 -6.8336 -12.2157
29 13 13 13.7931 -3.2342
29 13 14 21.1474 11.2014
30 0 2 -14.5903 0.2073
30 0 13 -1.6632 19.4771
30 0 14 -11.3633 -1.0871
30 0 15 -0.2825 -19.7274
30 0 16 -12.4921 -0.5806
30 0 17 1.2397 -5.6104
30 0 18 24.4059 0.8865
30 0 19 0.0699 -28.3352
30 2 4 10.3593 14.8624
30 2 5 -8.2142 -33.0965
30 2 6 13.1500 1.1016
30 2 7 -11.5157 -5.6219
30 2 8 -20.2713 -35.7002
30 2 9 14.4487 21.4794
30 2 12 -7.4391 41.7985
30 2 13 -6.3568 -1.1718
30 2 14 -9.6910 13.6839
30 2 15 3.1571 -10.7960
30 2 16 -9.0832 23.1250
30 2 17 6.2243 -10.4226
30 2 18 -22.3811 20.2393
30 2 19 6.5076 3.0277
30 2 20 -20.7528 12.6746
30 2 21 -15.9620 5.3301
30 2 22 11.3302 -18.2861
30 4 0 -10.7620 0.0820
30 4 1 -9.8995 19.9715
30 4 2 0.0720 7.7076
30 4 4 23.7424 3.2410
30 4 5 -4.8251 7.3725
30 4 6 14.5429 31.5472
30 4 7 -8.9033 15.2408
30 4 8 -10.3563 -0.5940
30 4 11 12.8421 -2.3468
30 4 12 8.6317 10.4716
30 4 13 13.6965 -0.6655
30 4 14 12.3715 9.4942
30 6 0 5.0408 -0.7129
30 6 1 -2.2462 -2.3009
30 6 2 -19.4960 -1.0418
30 6 3 23.6649 5.5738
30 6 4 -10.5472 -1.2018
30 6 5 -13.8900 5.4952
30 6 7 5.3980 19.7820
30 6 8 -19.0628 19.7054
30 6 10 -6.9538 11.7617
30 8 0 8.5484 0.3180
30 8 1 25.2978 7.8919
30 8 2 26.5493 -9.0693
30 8 3 -7.4689 -20.8556
30 8 4 25.8895 -13.9154
30 8 5 -17.8476 19.4761
30 8 6 42.8502 -7.6979
30 8 9 7.2122 15.8948
30 10 2 -3.6444 -4.4281
30 10 3 -22.4396 -28.4940
30 10 4 30.2561 -3.2622
30 10 5 -3.7204 4.4085
30 10 6 5.5277 0.7506
30 10 7 -6.8490 -5.7680
30 10 8 -23.3420 17.6469
30 10 9 16.8714 6.9230
30 10 12 -0.5535 -14.0538
0 0 0 0.0 0.0
;
_shelx_fab_checksum              91137
_olex2_submission_special_instructions 'No special instructions were received'
loop_
_space_group_symop_operation_xyz
'x, y, z'
'-x, -y, z+1/2'
'-x, y, -z+1/2'
'x, -y, -z'
'x+1/2, y+1/2, z'
'-x+1/2, -y+1/2, z+1/2'
'-x+1/2, y+1/2, -z+1/2'
'x+1/2, -y+1/2, -z'
loop_
_atom_site_label
_atom_site_type_symbol
_atom_site_fract_x
_atom_site_fract_y
_atom_site_fract_z
_atom_site_U_iso_or_equiv
_atom_site_adp_type
_atom_site_occupancy
_atom_site_site_symmetry_order
_atom_site_calc_flag
_atom_site_refinement_flags_posn
_atom_site_refinement_flags_adp
_atom_site_refinement_flags_occupancy
_atom_site_disorder_assembly
_atom_site_disorder_group
Zr01 Zr 0.46926(2) 0.63423(2) 0.36370(2) 0.06936(18) Uani 1 1 d . . . . .
Zr02 Zr 0.41846(2) 0.72514(2) 0.39122(2) 0.06860(18) Uani 1 1 d . . . . .
Zr03 Zr 0.38463(2) 0.61794(2) 0.40693(2) 0.06969(18) Uani 1 1 d . . . . .
Zr04 Zr 0.29096(2) 0.68740(2) 0.38213(2) 0.07239(19) Uani 1 1 d . . . . .
Zr05 Zr 0.34166(2) 0.59602(2) 0.35435(2) 0.07142(19) Uani 1 1 d . . . . .
Zr06 Zr 0.37605(2) 0.70377(2) 0.33840(2) 0.07322(19) Uani 1 1 d . . . . .
O007 O -0.10418(15) 1.04776(13) 0.33992(8) 0.0809(13) Uani 1 1 d . . . . .
O008 O -0.17102(16) 1.03348(11) 0.37280(10) 0.0837(14) Uani 1 1 d . . . . .
O009 O 0.45690(13) 0.57906(11) 0.41504(8) 0.0717(12) Uani 1 1 d . . . . .
O00A O 0.51002(13) 0.58774(12) 0.38617(10) 0.0828(15) Uani 1 1 d . . . . .
O00B O -0.46258(14) 0.67543(13) 0.37492(9) 0.0853(14) Uani 1 1 d . . . . .
O00C O -0.08951(16) 0.84578(12) 0.56376(8) 0.0796(12) Uani 1 1 d . . . . .
O00D O -0.13987(14) 1.04536(11) 0.40552(9) 0.0777(13) Uani 1 1 d . . . . .
O00E O 0.78509(14) 0.25042(12) 0.40113(8) 0.0777(13) Uani 1 1 d . . . . .
O00F O -0.02363(17) 1.06962(12) 0.34562(10) 0.0999(18) Uani 1 1 d . . . . .
O00G O -0.06334(12) 0.77835(12) 0.57459(8) 0.0701(12) Uani 1 1 d . . . . .
O00H O 0.2440(2) 0.6751(2) 0.40891(14) 0.1415(18) Uani 1 1 d D . . . .
O00I O 0.25008(15) 0.73255(14) 0.35893(10) 0.0855(15) Uani 1 1 d . . . . .
O00J O 0.35680(18) 0.68273(13) 0.40134(9) 0.0921(15) Uani 1 1 d . . . . .
O00K O 0.86843(13) 0.27499(11) 0.40765(8) 0.0705(11) Uani 1 1 d . . . . .
O00L O -0.09949(15) 0.82158(14) 0.41609(9) 0.0947(16) Uani 1 1 d . . . . .
O00M O 0.30928(16) 0.61689(12) 0.38658(9) 0.0942(16) Uani 1 1 d . . . . .
O00N O 0.43382(19) 0.78892(13) 0.37547(11) 0.1029(17) Uani 1 1 d . . . . .
O00O O 0.40619(14) 0.63631(11) 0.33672(8) 0.0782(12) Uani 1 1 d . . . . .
O00P O -0.49509(16) 0.73398(12) 0.39186(7) 0.0737(11) Uani 1 1 d . . . . .
O00Q O 0.30573(18) 0.73971(13) 0.33023(8) 0.0884(14) Uani 1 1 d . . . . .
O00R O 0.43545(18) 0.69830(13) 0.36112(9) 0.0954(15) Uani 1 1 d . . . . .
O00S O 0.72173(16) 1.14927(15) 0.36799(10) 0.1077(18) Uani 1 1 d . . . . .
O00T O 0.66287(15) 0.54306(11) 0.48097(8) 0.0831(13) Uani 1 1 d . . . . .
O00U O -0.13651(17) 0.76370(17) 0.46149(9) 0.1035(16) Uani 1 1 d . . . . .
O00V O 0.75578(15) 1.08718(13) 0.35164(10) 0.0950(16) Uani 1 1 d . . . . .
O00W O 0.45068(17) 0.65932(11) 0.39725(9) 0.0896(15) Uani 1 1 d . . . . .
O00X O 0.32741(17) 0.60526(13) 0.43381(8) 0.0874(13) Uani 1 1 d . . . . .
O00Y O -0.04702(16) 0.88596(15) 0.26991(9) 0.0958(15) Uani 1 1 d . . . . .
O00Z O 0.35167(18) 0.73599(15) 0.36774(10) 0.1030(16) Uani 1 1 d . . . . .
O010 O 0.32225(17) 0.66173(12) 0.35301(9) 0.0936(15) Uani 1 1 d . . . . .
O011 O 0.0181(3) 1.1425(3) 0.33722(16) 0.230(3) Uani 1 1 d D . . . .
C012 C 0.73364(14) 0.43269(11) 0.45113(7) 0.081(2) Uani 1 1 d G . . . .
C02O C 0.69027(15) 0.45243(12) 0.44170(6) 0.083(2) Uani 1 1 d G . . . .
H02O H 0.676389 0.440919 0.428998 0.099 Uiso 1 1 calc R U . . .
C022 C 0.66766(13) 0.48937(12) 0.45124(7) 0.0795(19) Uani 1 1 d G . . . .
C02D C 0.68840(15) 0.50657(11) 0.47022(7) 0.094(2) Uani 1 1 d G . . . .
C01Y C 0.73177(15) 0.48683(12) 0.47965(6) 0.080(2) Uani 1 1 d G . . . .
C01W C 0.75439(13) 0.44989(12) 0.47011(7) 0.081(2) Uani 1 1 d G . . . .
O013 O 0.1842(3) 1.0933(3) 0.17827(16) 0.200(2) Uani 1 1 d D . . . .
O014 O 0.40149(19) 0.77416(15) 0.33974(11) 0.1081(18) Uani 1 1 d . . . . .
O016 O 0.4295(2) 0.71001(19) 0.31156(11) 0.125(2) Uani 1 1 d . . . . .
O017 O 0.4043(2) 0.60359(16) 0.37460(9) 0.1042(16) Uani 1 1 d . . . . .
C018 C -0.16683(17) 0.97349(8) 0.39534(8) 0.084(2) Uani 1 1 d G . . . .
C02Z C -0.15144(16) 0.95467(11) 0.41482(7) 0.087(2) Uani 1 1 d G . . . .
H02Z H -0.136902 0.972261 0.425574 0.105 Uiso 1 1 calc R U . . .
C02U C -0.15778(17) 0.90954(12) 0.41822(7) 0.091(2) Uani 1 1 d G . . . .
H02U H -0.147490 0.896945 0.431248 0.109 Uiso 1 1 calc R U . . .
C01E C -0.17951(18) 0.88324(8) 0.40214(8) 0.086(2) Uani 1 1 d G . . . .
C028 C -0.19490(18) 0.90207(11) 0.38266(7) 0.101(3) Uani 1 1 d G . . . .
H028 H -0.209435 0.884476 0.371897 0.122 Uiso 1 1 calc R U . . .
C037 C -0.18855(17) 0.94720(12) 0.37926(7) 0.091(2) Uani 1 1 d G . . . .
H037 H -0.198849 0.959792 0.366223 0.109 Uiso 1 1 calc R U . . .
O019 O 0.1624(3) 1.1698(3) 0.19051(16) 0.200(2) Uani 1 1 d D . . . .
C01A C -0.07767(13) 0.73124(15) 0.43529(7) 0.086(2) Uani 1 1 d G . . . .
C01L C -0.08606(12) 0.74984(14) 0.45554(8) 0.0798(19) Uani 1 1 d G . . . .
C01T C -0.04583(17) 0.75105(15) 0.47059(7) 0.093(2) Uani 1 1 d G . . . .
C02Q C 0.00279(14) 0.73368(16) 0.46540(8) 0.104(3) Uani 1 1 d G . . . .
H02Q H 0.029712 0.734490 0.475472 0.125 Uiso 1 1 calc R U . . .
C03B C 0.01119(12) 0.71508(16) 0.44515(9) 0.094(2) Uani 1 1 d G . . . .
C02H C -0.02904(16) 0.71386(16) 0.43009(7) 0.107(3) Uani 1 1 d G . . . .
C01B C -0.1589(3) 1.0202(2) 0.39160(14) 0.0773(18) Uani 1 1 d . . . . .
C01C C -0.0708(2) 0.80760(19) 0.56003(13) 0.080(2) Uani 1 1 d . . . . .
C01D C -0.24635(10) 0.77062(10) 0.40261(8) 0.0751(19) Uani 1 1 d G . . . .
C01V C -0.20560(13) 0.74241(7) 0.40806(9) 0.083(2) Uani 1 1 d G . . . .
C01G C -0.15645(11) 0.75958(10) 0.41253(9) 0.081(2) Uani 1 1 d G . . . .
C02T C -0.14805(10) 0.80495(10) 0.41154(9) 0.081(2) Uani 1 1 d G . . . .
C027 C -0.18881(12) 0.83316(8) 0.40608(9) 0.081(2) Uani 1 1 d G . . . .
C03E C -0.23796(10) 0.81599(9) 0.40162(8) 0.084(2) Uani 1 1 d G . . . .
H03E H -0.265228 0.834867 0.397965 0.100 Uiso 1 1 calc R U . . .
C01F C -0.1180(2) 0.7229(2) 0.41745(13) 0.082(2) Uani 1 1 d . . . . .
C01H C -0.06697(18) 0.79209(14) 0.53657(7) 0.082(2) Uani 1 1 d G . . . .
C02A C -0.04516(18) 0.75097(13) 0.53219(7) 0.093(2) Uani 1 1 d G . . . .
H02A H -0.035182 0.732532 0.543487 0.112 Uiso 1 1 calc R U . . .
C033 C -0.03826(17) 0.73739(11) 0.51091(8) 0.102(2) Uani 1 1 d G . . . .
H033 H -0.023663 0.709874 0.507982 0.122 Uiso 1 1 calc R U . . .
C031 C -0.05316(19) 0.76494(15) 0.49402(7) 0.089(2) Uani 1 1 d G . . . .
C03I C -0.07497(18) 0.80607(14) 0.49840(8) 0.097(2) Uani 1 1 d G . . . .
H03I H -0.084946 0.824504 0.487103 0.117 Uiso 1 1 calc R U . . .
C03D C -0.08187(16) 0.81965(10) 0.51968(9) 0.103(3) Uani 1 1 d G . . . .
H03D H -0.096465 0.847163 0.522608 0.124 Uiso 1 1 calc R U . . .
C01I C 0.62255(14) 0.51264(14) 0.43999(8) 0.097(2) Uani 1 1 d G . . . .
C02N C 0.62828(13) 0.52163(15) 0.41809(8) 0.095(2) Uani 1 1 d G . . . .
H02N H 0.659084 0.514140 0.411032 0.114 Uiso 1 1 calc R U . . .
C036 C 0.58798(16) 0.54180(15) 0.40674(7) 0.095(2) Uani 1 1 d G . . . .
H036 H 0.591816 0.547806 0.392081 0.114 Uiso 1 1 calc R U . . .
C020 C 0.54195(13) 0.55298(13) 0.41729(8) 0.088(2) Uani 1 1 d G . . . .
C01P C 0.53622(12) 0.54400(14) 0.43919(8) 0.100(3) Uani 1 1 d G . . . .
H01P H 0.505420 0.551488 0.446250 0.120 Uiso 1 1 calc R U . . .
C01R C 0.57652(17) 0.52383(14) 0.45055(7) 0.088(2) Uani 1 1 d G . . . .
H01R H 0.572687 0.517822 0.465200 0.106 Uiso 1 1 calc R U . . .
C01J C -0.03695(12) 1.00269(11) 0.32782(9) 0.091(2) Uani 1 1 d G . . . .
C01X C -0.07137(10) 0.96908(13) 0.32219(9) 0.096(2) Uani 1 1 d G . . . .
H01X H -0.106795 0.972058 0.325110 0.115 Uiso 1 1 calc R U . . .
C02C C -0.05284(14) 0.93102(11) 0.31220(9) 0.094(2) Uani 1 1 d G . . . .
H02C H -0.075871 0.908528 0.308434 0.113 Uiso 1 1 calc R U . . .
C02E C 0.00011(15) 0.92656(11) 0.30784(9) 0.095(2) Uani 1 1 d G . . . .
C02Y C 0.03453(10) 0.96018(13) 0.31346(9) 0.094(2) Uani 1 1 d G . . . .
H02Y H 0.069955 0.957197 0.310545 0.113 Uiso 1 1 calc R U . . .
C02W C 0.01600(11) 0.99824(11) 0.32346(9) 0.093(3) Uani 1 1 d G . . . .
H02W H 0.039031 1.020728 0.327222 0.112 Uiso 1 1 calc R U . . .
C01K C -0.30989(12) 0.71641(11) 0.38552(8) 0.087(2) Uani 1 1 d G . . . .
H01K H -0.281608 0.700616 0.380121 0.104 Uiso 1 1 calc R U . . .
C01S C -0.30161(11) 0.75431(12) 0.39776(8) 0.081(2) Uani 1 1 d G . . . .
C02V C -0.34389(15) 0.77791(11) 0.40583(8) 0.094(2) Uani 1 1 d G . . . .
H02V H -0.338351 0.803269 0.414021 0.113 Uiso 1 1 calc R U . . .
C03O C -0.39445(12) 0.76363(12) 0.40164(8) 0.089(2) Uani 1 1 d G . . . .
H03O H -0.422732 0.779424 0.407036 0.107 Uiso 1 1 calc R U . . .
C01N C -0.40273(10) 0.72573(12) 0.38939(8) 0.085(2) Uani 1 1 d G . . . .
C025 C -0.36045(14) 0.70212(11) 0.38133(8) 0.092(2) Uani 1 1 d G . . . .
H025 H -0.365990 0.676770 0.373135 0.110 Uiso 1 1 calc R U . . .
C01M C 0.74437(12) 0.32329(11) 0.42134(8) 0.0784(19) Uani 1 1 d G . . . .
H01M H 0.722001 0.301385 0.416298 0.094 Uiso 1 1 calc R U . . .
C029 C 0.79800(13) 0.31859(10) 0.41889(8) 0.0812(19) Uani 1 1 d G . . . .
C030 C 0.83144(9) 0.35134(12) 0.42643(8) 0.081(2) Uani 1 1 d G . . . .
H030 H 0.867323 0.348191 0.424790 0.098 Uiso 1 1 calc R U . . .
C02K C 0.81125(11) 0.38878(10) 0.43643(8) 0.085(2) Uani 1 1 d G . . . .
H02K H 0.833618 0.410686 0.441476 0.101 Uiso 1 1 calc R U . . .
C01U C 0.75762(12) 0.39348(10) 0.43888(8) 0.080(2) Uani 1 1 d G . . . .
C026 C 0.72418(9) 0.36074(12) 0.43134(8) 0.094(2) Uani 1 1 d G . . . .
H026 H 0.688296 0.363882 0.432985 0.112 Uiso 1 1 calc R U . . .
C01O C -0.2040(2) 0.69387(18) 0.40989(13) 0.083(2) Uani 1 1 d . . . . .
H01A H -0.201600 0.680367 0.395707 0.099 Uiso 1 1 calc R U . . .
H01B H -0.235215 0.682958 0.417013 0.099 Uiso 1 1 calc R U . . .
C01Q C 0.7643(3) 0.500000 0.500000 0.075(3) Uani 1 2 d S T P . .
C01Z C 0.21640(15) 0.76757(16) 0.32972(9) 0.093(2) Uani 1 1 d G . . . .
C03A C 0.22061(14) 0.77713(17) 0.30781(9) 0.111(3) Uani 1 1 d G . . . .
H03A H 0.250772 0.769583 0.300310 0.133 Uiso 1 1 calc R U . . .
C03H C 0.17974(19) 0.79798(17) 0.29712(7) 0.106(2) Uani 1 1 d G . . . .
H03H H 0.182560 0.804384 0.282461 0.127 Uiso 1 1 calc R U . . .
C035 C 0.13466(16) 0.80927(16) 0.30833(9) 0.099(2) Uani 1 1 d G . . . .
C038 C 0.13045(14) 0.79971(16) 0.33023(9) 0.098(2) Uani 1 1 d G . . . .
H038 H 0.100289 0.807260 0.337731 0.117 Uiso 1 1 calc R U . . .
C02R C 0.17132(19) 0.77886(17) 0.34093(7) 0.099(2) Uani 1 1 d G . . . .
H02R H 0.168501 0.772460 0.355581 0.119 Uiso 1 1 calc R U . . .
C023 C -0.1541(3) 0.68301(19) 0.42372(15) 0.101(3) Uani 1 1 d . . . . .
H02B H -0.161820 0.682724 0.439068 0.121 Uiso 1 1 calc R U . . .
H02D H -0.138787 0.654923 0.419588 0.121 Uiso 1 1 calc R U . . .
C024 C -0.0522(2) 1.04455(19) 0.33793(15) 0.094(3) Uani 1 1 d . . . . .
C02B C -0.4570(2) 0.70925(18) 0.38572(11) 0.0698(17) Uani 1 1 d . . . . .
C02G C 0.08833(14) 0.82991(14) 0.29650(8) 0.091(2) Uani 1 1 d G . . . .
C03C C 0.06763(16) 0.81286(12) 0.27748(8) 0.091(2) Uani 1 1 d G . . . .
C02X C 0.02307(17) 0.83160(14) 0.26852(7) 0.091(2) Uani 1 1 d G . . . .
C02P C -0.00079(14) 0.86739(13) 0.27858(8) 0.088(2) Uani 1 1 d G . . . .
C032 C 0.01992(16) 0.88444(12) 0.29760(8) 0.085(2) Uani 1 1 d G . . . .
C034 C 0.06448(17) 0.86570(14) 0.30656(7) 0.101(3) Uani 1 1 d G . . . .
H034 H 0.078334 0.877104 0.319286 0.121 Uiso 1 1 calc R U . . .
C02I C 0.7963(2) 0.5432(2) 0.49535(13) 0.085(2) Uani 1 1 d . . . . .
H02E H 0.829850 0.536453 0.488862 0.101 Uiso 1 1 calc R U . . .
H02F H 0.777244 0.563080 0.485898 0.101 Uiso 1 1 calc R U . . .
C02J C 0.2587(3) 0.7438(2) 0.33940(17) 0.088(2) Uani 1 1 d . . . . .
C02L C -0.0825(2) 0.7156(2) 0.39730(14) 0.096(2) Uani 1 1 d . . . . .
H02G H -0.099047 0.696476 0.386754 0.115 Uiso 1 1 calc R U . . .
H02H H -0.073257 0.743437 0.390486 0.115 Uiso 1 1 calc R U . . .
C02M C -0.0475(3) 0.7759(2) 0.25690(12) 0.091(2) Uani 1 1 d . . . . .
H02I H -0.066619 0.791001 0.268237 0.110 Uiso 1 1 calc R U . . .
H02J H -0.036621 0.747176 0.262231 0.110 Uiso 1 1 calc R U . . .
C02S C 0.8174(2) 0.27705(17) 0.40915(13) 0.078(2) Uani 1 1 d . . . . .
C039 C 0.8029(2) 0.5630(2) 0.51766(13) 0.086(2) Uani 1 1 d . . . . .
H03B H 0.833740 0.551118 0.524667 0.103 Uiso 1 1 calc R U . . .
H03C H 0.806089 0.594877 0.516829 0.103 Uiso 1 1 calc R U . . .
C03F C -0.0343(3) 0.6931(3) 0.40782(15) 0.104(3) Uani 1 1 d . . . . .
H03F H -0.039672 0.661455 0.408988 0.124 Uiso 1 1 calc R U . . .
H03G H -0.003233 0.698479 0.399272 0.124 Uiso 1 1 calc R U . . .
C03G C 0.000000 0.8032(3) 0.250000 0.087(3) Uani 1 2 d S T P . .
C03J C 0.7183(2) 1.1119(2) 0.35659(17) 0.105(3) Uani 1 1 d D . . . .
C03L C 0.4522(3) 0.8750(2) 0.36483(11) 0.151(4) Uani 1 1 d G . . . .
H03L H 0.462498 0.864110 0.378212 0.182 Uiso 1 1 calc R U . . .
C03U C 0.4306(3) 0.84667(13) 0.34955(13) 0.155(5) Uani 1 1 d G . . . .
C03M C 0.4152(3) 0.86298(18) 0.32955(12) 0.150(5) Uani 1 1 d G . . . .
H03M H 0.400752 0.844013 0.319328 0.180 Uiso 1 1 calc R U . . .
C043 C 0.4213(3) 0.9076(2) 0.32481(11) 0.174(6) Uani 1 1 d G . . . .
H043 H 0.410924 0.918524 0.311425 0.209 Uiso 1 1 calc R U . . .
C048 C 0.4428(3) 0.93596(14) 0.34008(14) 0.202(7) Uani 1 1 d DG . . . .
C04E C 0.4583(3) 0.91966(18) 0.36009(12) 0.174(6) Uani 1 1 d G . . . .
H04E H 0.472671 0.938623 0.370310 0.209 Uiso 1 1 calc R U . . .
C03N C -0.0845(3) 0.7704(2) 0.23481(14) 0.100(2) Uani 1 1 d . . . . .
H03J H -0.076025 0.743758 0.226796 0.120 Uiso 1 1 calc R U . . .
H03K H -0.121428 0.770588 0.238249 0.120 Uiso 1 1 calc R U . . .
C03P C 0.06321(16) 0.6943(2) 0.43796(12) 0.119(3) Uani 1 1 d G . . . .
C196 C 0.06729(16) 0.65125(19) 0.43032(13) 0.157(4) Uani 1 1 d G . . . .
H196 H 0.038044 0.633048 0.430069 0.188 Uiso 1 1 calc R U . . .
C04J C 0.1151(2) 0.63537(17) 0.42307(13) 0.166(5) Uani 1 1 d DG . . . .
H04J H 0.117806 0.606538 0.417954 0.199 Uiso 1 1 calc R U . . .
C03X C 0.15879(16) 0.6626(2) 0.42345(13) 0.132(4) Uani 1 1 d DG . . . .
C45 C 0.15471(17) 0.70568(19) 0.43109(14) 0.161(5) Uani 1 1 d DG . . . .
H45 H 0.183955 0.723881 0.431343 0.193 Uiso 1 1 calc R U . . .
C101 C 0.1069(2) 0.72156(17) 0.43835(13) 0.180(6) Uani 1 1 d G . . . .
H101 H 0.104193 0.750392 0.443458 0.216 Uiso 1 1 calc R U . . .
C03R C 0.61970(19) 1.11866(16) 0.35969(12) 0.131(4) Uani 1 1 d G . . . .
H03R H 0.623235 1.144597 0.367644 0.157 Uiso 1 1 calc R U . . .
C041 C 0.57042(15) 1.10400(19) 0.35363(15) 0.182(6) Uani 1 1 d G . . . .
H041 H 0.540979 1.120128 0.357527 0.219 Uiso 1 1 calc R U . . .
C040 C 0.56514(18) 1.0652(2) 0.34175(16) 0.213(8) Uani 1 1 d DG . . . .
C044 C 0.6091(2) 1.04114(19) 0.33593(14) 0.194(6) Uani 1 1 d G . . . .
H044 H 0.605607 1.015212 0.327981 0.232 Uiso 1 1 calc R U . . .
C046 C 0.6584(2) 1.05580(19) 0.34199(14) 0.160(5) Uani 1 1 d G . . . .
H046 H 0.687863 1.039680 0.338098 0.192 Uiso 1 1 calc R U . . .
C03Y C 0.66370(15) 1.09456(17) 0.35387(13) 0.131(4) Uani 1 1 d DG . . . .
C03S C 0.4203(4) 0.7995(3) 0.35386(19) 0.121(3) Uani 1 1 d . . . . .
C03W C 0.5003(3) 1.0045(2) 0.34285(16) 0.186(6) Uani 1 1 d G . . . .
H03W H 0.524298 0.987390 0.350429 0.223 Uiso 1 1 calc R U . . .
C111 C 0.5112(2) 1.0485(2) 0.33835(16) 0.171(5) Uani 1 1 d DG . . . .
C122 C 0.4753(3) 1.07404(17) 0.32701(17) 0.195(7) Uani 1 1 d DG . . . .
C04O C 0.4285(3) 1.0555(3) 0.32018(15) 0.214(5) Uani 1 1 d DG . . . .
C35 C 0.4176(2) 1.0114(3) 0.32468(13) 0.240(10) Uani 1 1 d G . . . .
C049 C 0.4535(3) 0.98587(17) 0.33601(16) 0.185(6) Uani 1 1 d DG . . . .
C042 C 0.1790(3) 1.1282(4) 0.18831(16) 0.200(2) Uani 1 1 d D . . . .
C04C C 0.3890(5) 1.0804(4) 0.3081(3) 0.214(5) Uani 1 1 d D . . . .
C04N C 0.2298(2) 1.0766(2) 0.21414(11) 0.200(2) Uani 1 1 d DG . . . .
H04N H 0.228999 1.054231 0.203828 0.240 Uiso 1 1 calc R U . . .
C248 C 0.20693(17) 1.1173(2) 0.20977(9) 0.200(2) Uani 1 1 d DG . . . .
C583 C 0.2082(2) 1.15071(19) 0.22518(13) 0.200(2) Uani 1 1 d DG . . . .
H583 H 0.192854 1.177936 0.222256 0.240 Uiso 1 1 calc R U . . .
C615 C 0.2324(2) 1.1434(2) 0.24498(11) 0.200(2) Uani 1 1 d DG . . . .
H615 H 0.233193 1.165792 0.255295 0.240 Uiso 1 1 calc DR U . . .
C539 C 0.25527(19) 1.1027(2) 0.24936(9) 0.200(2) Uani 1 1 d DG . . . .
C104 C 0.2540(2) 1.06932(19) 0.23394(12) 0.200(2) Uani 1 1 d DG . . . .
H104 H 0.269339 1.042088 0.236868 0.240 Uiso 1 1 calc R U . . .
C13 C 0.4998(3) 0.5732(2) 0.40651(15) 0.085(2) Uani 1 1 d . . . . .
O36 O 0.3726(5) 0.9961(4) 0.3176(2) 0.293(7) Uani 1 1 d . . . . .
C215 C 0.4022(6) 1.0520(6) 0.2862(2) 0.256(9) Uani 1 1 d D . . . .
H21A H 0.439539 1.049964 0.283811 0.307 Uiso 1 1 calc R U . . .
H21B H 0.387775 1.022368 0.287017 0.307 Uiso 1 1 calc R U . . .
O271 O 0.2237(2) 0.60137(19) 0.41258(13) 0.1415(18) Uani 1 1 d D . . . .
C409 C 0.3762(7) 1.0784(6) 0.2684(3) 0.281(11) Uani 1 1 d D . . . .
H40A H 0.366762 1.060486 0.255958 0.337 Uiso 1 1 calc R U . . .
H40B H 0.396478 1.103842 0.263873 0.337 Uiso 1 1 calc R U . . .
C229 C 0.4720(5) 1.1238(4) 0.3210(3) 0.226(8) Uani 1 1 d D . . . .
H22A H 0.496695 1.131240 0.309721 0.271 Uiso 1 1 calc R U . . .
H22B H 0.478722 1.142351 0.333537 0.271 Uiso 1 1 calc R U . . .
C405 C 0.3305(2) 1.0965(4) 0.30488(12) 0.308(5) Uani 1 1 d DG . . . .
C922 C 0.3288(2) 1.0909(3) 0.28259(12) 0.308(5) Uani 1 1 d DG . . . .
C809 C 0.2818(3) 1.0959(3) 0.27159(11) 0.280(6) Uani 1 1 d DG . . . .
C71 C 0.2366(2) 1.1065(3) 0.28288(12) 0.280(6) Uani 1 1 d DG . . . .
H71 H 0.205250 1.109897 0.275523 0.336 Uiso 1 1 calc DR U . . .
C546 C 0.2384(2) 1.1121(2) 0.30517(12) 0.308(5) Uani 1 1 d DG . . . .
C900 C 0.2853(3) 1.1071(4) 0.31617(11) 0.308(5) Uani 1 1 d DG . . . .
C787 C 0.2132(4) 0.6463(3) 0.4170(2) 0.181(5) Uani 1 1 d D . . . .
C567 C 0.1839(3) 1.1679(3) 0.31704(12) 0.351(5) Uani 1 1 d DG . . . .
H567 H 0.211344 1.187566 0.314917 0.421 Uiso 1 1 calc R U . . .
C479 C 0.1363(4) 1.1832(3) 0.32473(12) 0.351(5) Uani 1 1 d DG . . . .
H479 H 0.131778 1.213065 0.327753 0.421 Uiso 1 1 calc R U . . .
C232 C 0.0953(3) 1.1538(3) 0.32791(9) 0.351(5) Uani 1 1 d DG . . . .
C777 C 0.1019(3) 1.1091(3) 0.32340(14) 0.351(5) Uani 1 1 d DG . . . .
H777 H 0.074526 1.089420 0.325531 0.421 Uiso 1 1 calc R U . . .
C656 C 0.1496(4) 1.0938(3) 0.31571(15) 0.351(5) Uani 1 1 d DG . . . .
H656 H 0.154091 1.063920 0.312696 0.421 Uiso 1 1 calc R U . . .
C662 C 0.1906(3) 1.1232(3) 0.31253(10) 0.351(5) Uani 1 1 d DG . . . .
O447 O 0.2829(6) 1.0946(6) 0.3366(2) 0.404(11) Uani 1 1 d D . . . .
C850 C 0.0464(4) 1.1725(3) 0.33575(15) 0.230(3) Uani 1 1 d D . . . .
C280 C 0.4144(5) 1.1294(4) 0.3130(4) 0.263(10) Uani 1 1 d D . . . .
H28A H 0.413846 1.147067 0.299896 0.316 Uiso 1 1 calc R U . . .
H28B H 0.393903 1.144470 0.323885 0.316 Uiso 1 1 calc R U . . .
O325 O 0.0566(3) 1.2120(3) 0.33797(16) 0.230(3) Uani 1 1 d D . . . .
loop_
_atom_site_aniso_label
_atom_site_aniso_U_11
_atom_site_aniso_U_22
_atom_site_aniso_U_33
_atom_site_aniso_U_23
_atom_site_aniso_U_13
_atom_site_aniso_U_12
Zr01 0.0484(3) 0.0424(3) 0.1173(5) -0.0099(3) -0.0076(3) 0.0040(2)
Zr02 0.0537(3) 0.0368(2) 0.1153(5) -0.0067(3) -0.0082(3) 0.0046(2)
Zr03 0.0494(3) 0.0406(3) 0.1191(5) -0.0054(3) -0.0081(3) 0.0029(2)
Zr04 0.0470(3) 0.0456(3) 0.1246(6) -0.0107(3) -0.0084(3) 0.0061(2)
Zr05 0.0492(3) 0.0443(3) 0.1208(6) -0.0102(3) -0.0116(3) 0.0021(2)
Zr06 0.0560(3) 0.0462(3) 0.1174(6) -0.0060(3) -0.0103(3) 0.0036(2)
O007 0.052(2) 0.070(3) 0.121(4) -0.024(3) -0.002(2) 0.0136(19)
O008 0.070(3) 0.0342(18) 0.147(5) -0.005(2) 0.007(3) -0.0057(17)
O009 0.039(2) 0.0442(18) 0.132(4) -0.001(2) -0.019(2) 0.0164(15)
O00A 0.0342(18) 0.051(2) 0.163(5) -0.017(3) -0.013(2) 0.0045(16)
O00B 0.052(2) 0.059(2) 0.145(4) 0.000(3) -0.013(2) -0.0210(18)
O00C 0.082(3) 0.051(2) 0.106(3) 0.005(2) 0.005(2) 0.007(2)
O00D 0.0457(19) 0.0398(18) 0.148(4) 0.005(2) -0.019(2) 0.0013(16)
O00E 0.053(2) 0.051(2) 0.128(4) -0.014(2) -0.014(2) 0.0049(18)
O00F 0.069(3) 0.037(2) 0.194(6) -0.041(3) -0.013(3) 0.0118(19)
O00G 0.0351(17) 0.051(2) 0.125(4) -0.009(2) 0.008(2) -0.0236(15)
O00H 0.091(3) 0.097(3) 0.237(5) -0.023(3) 0.006(3) 0.017(2)
O00I 0.045(2) 0.055(2) 0.157(5) -0.010(3) -0.014(3) 0.0028(18)
O00J 0.088(3) 0.050(2) 0.138(4) 0.006(2) -0.017(3) 0.000(2)
O00K 0.044(2) 0.0470(19) 0.121(4) -0.013(2) -0.005(2) 0.0221(15)
O00L 0.049(2) 0.067(3) 0.168(5) 0.006(3) -0.006(3) -0.0081(19)
O00M 0.068(2) 0.0449(19) 0.170(5) -0.022(3) -0.043(3) 0.0282(18)
O00N 0.085(3) 0.052(2) 0.172(6) 0.027(3) -0.006(3) 0.005(2)
O00O 0.053(2) 0.0387(18) 0.143(4) -0.006(2) 0.002(2) -0.0034(16)
O00P 0.076(3) 0.050(2) 0.095(3) 0.000(2) -0.007(2) 0.0138(19)
O00Q 0.084(3) 0.058(2) 0.123(4) 0.003(2) -0.019(3) 0.008(2)
O00R 0.086(3) 0.053(2) 0.147(5) -0.014(3) -0.026(3) 0.007(2)
O00S 0.061(3) 0.076(3) 0.186(6) -0.038(3) -0.033(3) -0.027(2)
O00T 0.064(2) 0.0431(19) 0.142(4) -0.014(2) -0.016(3) 0.0195(17)
O00U 0.064(3) 0.098(3) 0.148(5) -0.003(3) 0.015(3) 0.019(2)
O00V 0.048(2) 0.056(2) 0.181(5) -0.012(3) -0.008(3) 0.0106(19)
O00W 0.092(3) 0.0270(16) 0.150(4) 0.002(2) -0.003(3) 0.0082(18)
O00X 0.081(3) 0.061(2) 0.120(4) -0.016(2) -0.010(3) 0.004(2)
O00Y 0.067(3) 0.078(3) 0.143(4) -0.007(3) -0.031(3) 0.015(2)
O00Z 0.082(3) 0.069(3) 0.159(5) -0.010(3) 0.000(3) 0.005(2)
O010 0.079(3) 0.045(2) 0.157(5) -0.001(3) -0.014(3) 0.011(2)
O011 0.126(4) 0.201(7) 0.363(8) -0.070(7) 0.024(5) -0.042(4)
C012 0.071(4) 0.049(3) 0.122(6) -0.018(4) -0.017(4) 0.015(3)
C02O 0.059(3) 0.055(3) 0.134(6) -0.014(4) -0.003(4) 0.018(3)
C022 0.072(4) 0.044(3) 0.122(6) -0.017(3) -0.007(4) 0.023(3)
C02D 0.077(4) 0.047(3) 0.159(8) -0.009(4) 0.009(5) 0.024(3)
C01Y 0.064(3) 0.049(3) 0.127(6) -0.024(3) -0.007(4) 0.007(3)
C01W 0.043(3) 0.052(3) 0.147(7) 0.000(4) -0.020(4) 0.017(2)
O013 0.166(3) 0.166(4) 0.268(5) 0.041(4) -0.090(3) -0.024(3)
O014 0.082(3) 0.062(3) 0.180(6) 0.013(3) -0.025(3) -0.025(2)
O016 0.118(4) 0.112(4) 0.144(5) 0.006(4) 0.017(4) -0.033(4)
O017 0.115(4) 0.076(3) 0.121(4) -0.014(3) -0.020(3) 0.006(3)
C018 0.061(3) 0.040(3) 0.152(7) -0.016(4) -0.028(4) 0.011(3)
C02Z 0.070(4) 0.037(3) 0.154(7) -0.008(4) -0.018(4) -0.015(3)
C02U 0.076(4) 0.048(3) 0.148(7) 0.023(4) -0.026(4) -0.008(3)
C01E 0.069(4) 0.045(3) 0.144(7) -0.011(4) -0.015(4) -0.004(3)
C028 0.117(6) 0.035(3) 0.153(7) 0.009(4) -0.014(5) -0.015(3)
C037 0.085(4) 0.047(3) 0.139(7) 0.001(4) 0.004(4) -0.003(3)
O019 0.166(3) 0.166(4) 0.268(5) 0.041(4) -0.090(3) -0.024(3)
C01A 0.044(3) 0.071(4) 0.144(7) -0.012(4) 0.009(4) 0.016(3)
C01L 0.042(3) 0.068(4) 0.129(6) -0.005(4) 0.007(4) 0.012(3)
C01T 0.072(4) 0.077(4) 0.130(7) -0.003(4) 0.004(4) 0.026(3)
C02Q 0.058(4) 0.110(6) 0.144(8) 0.003(5) 0.004(4) 0.013(4)
C03B 0.064(4) 0.103(5) 0.115(6) -0.012(5) 0.011(4) 0.018(4)
C02H 0.060(4) 0.099(5) 0.162(8) -0.040(5) 0.003(5) 0.018(4)
C01B 0.080(4) 0.050(3) 0.102(6) 0.012(4) -0.009(4) -0.021(3)
C01C 0.075(4) 0.042(3) 0.124(6) -0.015(4) 0.011(4) 0.015(3)
C01D 0.035(3) 0.053(3) 0.137(6) -0.008(3) -0.010(3) -0.002(2)
C01V 0.058(3) 0.045(3) 0.145(6) 0.002(3) -0.013(4) 0.003(3)
C01G 0.045(3) 0.054(3) 0.145(7) -0.006(4) -0.004(4) 0.014(2)
C02T 0.056(3) 0.052(3) 0.134(6) 0.010(4) -0.007(4) -0.001(3)
C027 0.042(3) 0.048(3) 0.153(7) 0.010(4) -0.024(4) -0.005(2)
C03E 0.041(3) 0.054(3) 0.156(7) 0.002(4) -0.014(4) -0.012(2)
C01F 0.031(3) 0.076(4) 0.138(6) -0.014(4) -0.008(3) 0.011(3)
C01H 0.071(4) 0.050(3) 0.125(6) -0.004(4) 0.007(4) 0.003(3)
C02A 0.093(5) 0.063(4) 0.123(7) -0.014(4) 0.025(4) 0.026(3)
C033 0.129(6) 0.062(4) 0.114(7) -0.011(4) 0.004(5) 0.009(4)
C031 0.073(4) 0.065(4) 0.130(7) -0.011(4) 0.014(4) 0.004(3)
C03I 0.106(5) 0.060(4) 0.126(7) -0.007(4) -0.002(5) 0.017(4)
C03D 0.087(5) 0.071(4) 0.153(8) -0.031(5) 0.006(5) 0.003(4)
C01I 0.093(5) 0.066(4) 0.132(7) -0.016(4) -0.026(5) 0.047(4)
C02N 0.085(5) 0.077(4) 0.122(7) 0.000(4) 0.011(5) 0.032(4)
C036 0.057(4) 0.083(4) 0.145(7) -0.013(4) 0.002(4) 0.037(3)
C020 0.068(4) 0.045(3) 0.152(7) -0.015(4) -0.006(4) 0.012(3)
C01P 0.072(4) 0.065(4) 0.162(8) -0.001(5) -0.012(5) 0.019(3)
C01R 0.058(4) 0.081(4) 0.125(6) 0.014(4) 0.000(4) 0.025(3)
C01J 0.057(3) 0.057(3) 0.158(7) -0.023(4) -0.021(4) -0.008(3)
C01X 0.063(4) 0.060(4) 0.164(8) -0.020(4) -0.001(4) 0.001(3)
C02C 0.057(4) 0.071(4) 0.154(7) -0.024(4) 0.010(4) -0.006(3)
C02E 0.069(4) 0.057(3) 0.159(7) -0.020(4) -0.005(4) 0.009(3)
C02Y 0.053(3) 0.075(4) 0.155(7) -0.016(4) -0.002(4) 0.011(3)
C02W 0.028(3) 0.063(3) 0.189(8) -0.023(4) 0.005(4) -0.003(2)
C01K 0.074(4) 0.052(3) 0.134(6) -0.003(4) -0.028(4) 0.001(3)
C01S 0.039(3) 0.049(3) 0.154(7) 0.003(4) -0.017(3) -0.008(2)
C02V 0.093(5) 0.045(3) 0.144(7) -0.014(4) 0.001(5) -0.011(3)
C03O 0.086(4) 0.044(3) 0.138(7) -0.017(4) -0.020(4) 0.019(3)
C01N 0.086(4) 0.042(3) 0.126(6) -0.019(3) -0.023(4) -0.016(3)
C025 0.066(4) 0.049(3) 0.162(7) -0.027(4) -0.007(4) -0.007(3)
C01M 0.053(3) 0.061(3) 0.121(6) -0.021(4) -0.012(3) 0.015(3)
C029 0.063(4) 0.062(4) 0.119(6) -0.014(4) -0.011(4) 0.014(3)
C030 0.061(3) 0.041(3) 0.143(6) -0.019(3) 0.004(4) 0.000(2)
C02K 0.043(3) 0.066(4) 0.145(7) -0.031(4) -0.001(4) 0.010(3)
C01U 0.048(3) 0.048(3) 0.143(6) -0.009(3) -0.005(4) 0.002(2)
C026 0.070(4) 0.064(4) 0.146(7) -0.014(4) -0.024(4) 0.019(3)
C01O 0.059(3) 0.052(3) 0.138(6) -0.012(4) -0.017(4) 0.009(3)
C01Q 0.058(5) 0.065(5) 0.104(7) -0.023(5) 0.000 0.000
C01Z 0.074(4) 0.098(5) 0.108(6) 0.002(5) -0.021(4) 0.028(4)
C03A 0.069(4) 0.098(5) 0.166(9) 0.007(6) -0.002(5) 0.027(4)
C03H 0.095(5) 0.099(5) 0.124(7) 0.007(5) -0.003(5) 0.009(5)
C035 0.073(4) 0.084(5) 0.140(7) 0.002(5) -0.016(5) 0.043(4)
C038 0.068(4) 0.100(5) 0.125(7) -0.015(5) -0.015(4) 0.030(4)
C02R 0.091(5) 0.092(5) 0.114(6) 0.002(4) -0.012(5) 0.037(4)
C023 0.102(5) 0.037(3) 0.164(8) 0.009(4) -0.009(5) 0.002(3)
C024 0.058(4) 0.041(3) 0.183(8) -0.026(4) 0.003(4) 0.007(3)
C02B 0.054(3) 0.047(3) 0.108(5) 0.000(3) -0.007(3) -0.011(3)
C02G 0.071(4) 0.073(4) 0.131(7) -0.023(4) -0.032(4) 0.018(3)
C03C 0.070(4) 0.073(4) 0.131(7) 0.004(4) -0.017(4) 0.012(3)
C02X 0.070(4) 0.066(4) 0.138(7) -0.002(4) -0.026(4) 0.011(3)
C02P 0.077(4) 0.049(3) 0.139(7) -0.013(4) -0.029(4) 0.024(3)
C032 0.064(4) 0.068(4) 0.124(6) -0.021(4) -0.028(4) 0.018(3)
C034 0.084(5) 0.074(4) 0.145(7) -0.030(5) -0.027(5) 0.030(4)
C02I 0.050(3) 0.067(4) 0.137(7) -0.030(4) 0.007(4) -0.002(3)
C02J 0.058(4) 0.046(3) 0.161(8) 0.010(4) -0.005(5) 0.017(3)
C02L 0.063(4) 0.060(4) 0.164(8) -0.010(4) -0.008(4) 0.008(3)
C02M 0.080(4) 0.092(5) 0.102(6) 0.007(4) -0.029(4) -0.004(4)
C02S 0.058(3) 0.035(2) 0.141(6) -0.015(3) -0.015(4) -0.002(2)
C039 0.045(3) 0.061(3) 0.152(7) -0.015(4) 0.009(4) -0.019(3)
C03F 0.068(4) 0.092(5) 0.152(8) -0.012(5) -0.004(5) 0.030(4)
C03G 0.072(6) 0.067(5) 0.123(9) 0.000 -0.026(6) 0.000
C03J 0.046(3) 0.056(3) 0.214(10) -0.016(5) -0.014(4) -0.001(3)
C03L 0.169(9) 0.070(5) 0.215(12) 0.039(6) -0.058(9) -0.034(6)
C03U 0.139(8) 0.076(5) 0.251(14) 0.020(7) -0.061(9) -0.039(6)
C03M 0.142(8) 0.071(5) 0.238(13) 0.037(6) -0.090(9) -0.023(5)
C043 0.143(9) 0.112(8) 0.268(16) 0.043(9) -0.079(10) -0.052(7)
C048 0.148(10) 0.124(9) 0.33(2) 0.087(11) -0.068(12) -0.074(8)
C04E 0.131(8) 0.119(8) 0.273(16) 0.049(9) -0.090(10) -0.040(7)
C03N 0.081(4) 0.071(4) 0.149(7) 0.012(4) -0.022(5) -0.014(4)
C03P 0.062(4) 0.096(6) 0.199(10) -0.023(6) 0.016(5) 0.017(4)
C196 0.084(6) 0.154(10) 0.233(13) -0.010(9) 0.011(7) 0.045(6)
C04J 0.088(6) 0.172(11) 0.236(14) -0.020(10) 0.020(8) 0.008(7)
C03X 0.077(5) 0.100(6) 0.218(11) 0.000(7) 0.041(6) 0.010(5)
C45 0.077(5) 0.120(8) 0.285(15) -0.064(9) 0.025(7) 0.005(5)
C101 0.094(7) 0.164(10) 0.283(16) -0.002(11) 0.052(9) -0.025(7)
C03R 0.056(4) 0.113(6) 0.222(11) -0.029(7) -0.033(6) 0.011(4)
C041 0.113(7) 0.089(6) 0.345(19) -0.028(9) -0.047(9) -0.046(5)
C040 0.159(11) 0.067(6) 0.41(2) 0.030(9) -0.076(14) -0.003(6)
C044 0.113(8) 0.123(8) 0.35(2) -0.068(11) -0.054(10) -0.016(7)
C046 0.082(6) 0.123(8) 0.275(15) -0.051(9) -0.040(7) -0.008(5)
C03Y 0.092(5) 0.054(4) 0.245(12) -0.012(6) -0.022(7) -0.006(4)
C03S 0.105(6) 0.073(5) 0.185(10) 0.000(6) -0.028(7) -0.030(5)
C03W 0.108(7) 0.104(7) 0.346(19) 0.041(9) -0.090(10) -0.012(6)
C111 0.102(7) 0.109(7) 0.301(17) -0.009(9) -0.049(9) -0.009(6)
C122 0.155(10) 0.104(7) 0.33(2) 0.035(10) -0.060(11) -0.034(7)
C04O 0.153(8) 0.139(7) 0.352(17) 0.039(9) -0.069(9) -0.016(6)
C35 0.113(9) 0.180(14) 0.43(3) -0.007(16) -0.108(14) -0.035(9)
C049 0.118(8) 0.101(7) 0.34(2) 0.056(10) -0.053(10) -0.013(6)
C042 0.166(3) 0.166(4) 0.268(5) 0.041(4) -0.090(3) -0.024(3)
C04C 0.153(8) 0.139(7) 0.352(17) 0.039(9) -0.069(9) -0.016(6)
C04N 0.166(3) 0.166(4) 0.268(5) 0.041(4) -0.090(3) -0.024(3)
C248 0.166(3) 0.166(4) 0.268(5) 0.041(4) -0.090(3) -0.024(3)
C583 0.166(3) 0.166(4) 0.268(5) 0.041(4) -0.090(3) -0.024(3)
C615 0.166(3) 0.166(4) 0.268(5) 0.041(4) -0.090(3) -0.024(3)
C539 0.166(3) 0.166(4) 0.268(5) 0.041(4) -0.090(3) -0.024(3)
C104 0.166(3) 0.166(4) 0.268(5) 0.041(4) -0.090(3) -0.024(3)
C13 0.063(4) 0.053(3) 0.138(7) -0.012(4) -0.006(5) 0.021(3)
O36 0.268(13) 0.191(10) 0.42(2) 0.102(12) -0.061(14) -0.013(10)
C215 0.185(15) 0.198(18) 0.38(3) 0.014(19) 0.006(19) 0.009(14)
O271 0.091(3) 0.097(3) 0.237(5) -0.023(3) 0.006(3) 0.017(2)
C409 0.29(2) 0.211(19) 0.34(3) 0.097(18) -0.01(2) -0.021(18)
C229 0.153(10) 0.152(9) 0.37(2) 0.054(13) -0.075(13) -0.035(8)
C405 0.164(6) 0.407(13) 0.352(13) -0.033(14) -0.007(8) 0.026(9)
C922 0.164(6) 0.407(13) 0.352(13) -0.033(14) -0.007(8) 0.026(9)
C809 0.188(8) 0.310(15) 0.342(13) 0.003(13) -0.014(9) 0.028(12)
C71 0.188(8) 0.310(15) 0.342(13) 0.003(13) -0.014(9) 0.028(12)
C546 0.164(6) 0.407(13) 0.352(13) -0.033(14) -0.007(8) 0.026(9)
C900 0.164(6) 0.407(13) 0.352(13) -0.033(14) -0.007(8) 0.026(9)
C787 0.133(8) 0.121(7) 0.289(17) 0.014(9) 0.031(10) 0.044(6)
C567 0.185(6) 0.357(11) 0.509(12) -0.047(13) 0.110(8) 0.039(7)
C479 0.185(6) 0.357(11) 0.509(12) -0.047(13) 0.110(8) 0.039(7)
C232 0.185(6) 0.357(11) 0.509(12) -0.047(13) 0.110(8) 0.039(7)
C777 0.185(6) 0.357(11) 0.509(12) -0.047(13) 0.110(8) 0.039(7)
C656 0.185(6) 0.357(11) 0.509(12) -0.047(13) 0.110(8) 0.039(7)
C662 0.185(6) 0.357(11) 0.509(12) -0.047(13) 0.110(8) 0.039(7)
O447 0.52(3) 0.41(2) 0.284(17) 0.077(17) -0.024(19) -0.19(2)
C850 0.126(4) 0.201(7) 0.363(8) -0.070(7) 0.024(5) -0.042(4)
C280 0.165(11) 0.186(10) 0.44(3) 0.017(16) -0.076(15) -0.014(10)
O325 0.126(4) 0.201(7) 0.363(8) -0.070(7) 0.024(5) -0.042(4)
loop_
_atom_type_symbol
_atom_type_description
_atom_type_scat_dispersion_real
_atom_type_scat_dispersion_imag
_atom_type_scat_source
C C 0.0033 0.0016 'International Tables Vol C Tables 4.2.6.8 and 6.1.1.4'
H H 0.0000 0.0000 'International Tables Vol C Tables 4.2.6.8 and 6.1.1.4'
O O 0.0106 0.0060 'International Tables Vol C Tables 4.2.6.8 and 6.1.1.4'
Zr Zr -2.9673 0.5597 'International Tables Vol C Tables 4.2.6.8 and 6.1.1.4'
loop_
_citation_id
_citation_doi
_citation_year
1 10.1016/j.chempr.2020.11.008 2020
loop_
_geom_angle_atom_site_label_1
_geom_angle_atom_site_label_2
_geom_angle_atom_site_label_3
_geom_angle
_geom_angle_site_symmetry_1
_geom_angle_site_symmetry_3
_geom_angle_publ_flag
Zr02 Zr01 Zr05 89.55(2) . . ?
Zr02 Zr01 Zr06 59.77(2) . . ?
Zr03 Zr01 Zr02 60.214(19) . . ?
Zr03 Zr01 Zr05 60.01(2) . . ?
Zr03 Zr01 Zr06 90.20(2) . . ?
Zr05 Zr01 Zr06 59.719(19) . . ?
O00A Zr01 Zr02 111.51(13) . . ?
O00A Zr01 Zr03 73.99(13) . . ?
O00A Zr01 Zr05 109.28(10) . . ?
O00A Zr01 Zr06 164.12(13) . . ?
O00A Zr01 O00B 78.11(15) . 1_655 ?
O00A Zr01 O00F 74.13(18) . 5_545 ?
O00A Zr01 O00O 142.03(13) . . ?
O00A Zr01 O00W 74.84(16) . . ?
O00B Zr01 Zr02 72.75(12) 1_655 . ?
O00B Zr01 Zr03 108.94(14) 1_655 . ?
O00B Zr01 Zr05 162.29(12) 1_655 . ?
O00B Zr01 Zr06 109.28(11) 1_655 . ?
O00B Zr01 O00F 124.59(16) 1_655 5_545 ?
O00B Zr01 O00O 138.14(15) 1_655 . ?
O00B Zr01 O00W 72.25(17) 1_655 . ?
O00F Zr01 Zr02 162.59(12) 5_545 . ?
O00F Zr01 Zr03 107.98(14) 5_545 . ?
O00F Zr01 Zr05 73.10(11) 5_545 . ?
O00F Zr01 Zr06 110.39(13) 5_545 . ?
O00F Zr01 O00O 73.96(16) 5_545 . ?
O00F Zr01 O00W 139.65(18) 5_545 . ?
O00O Zr01 Zr02 94.00(10) . . ?
O00O Zr01 Zr03 97.04(11) . . ?
O00O Zr01 Zr05 40.90(10) . . ?
O00O Zr01 Zr06 36.73(9) . . ?
O00R Zr01 Zr02 33.57(16) . . ?
O00R Zr01 Zr03 86.15(16) . . ?
O00R Zr01 Zr05 84.72(12) . . ?
O00R Zr01 Zr06 32.11(13) . . ?
O00R Zr01 O00A 144.02(19) . . ?
O00R Zr01 O00B 80.55(16) . 1_655 ?
O00R Zr01 O00F 141.5(2) . 5_545 ?
O00R Zr01 O00O 68.79(16) . . ?
O00R Zr01 O00W 71.21(18) . . ?
O00W Zr01 Zr02 37.65(9) . . ?
O00W Zr01 Zr03 37.84(11) . . ?
O00W Zr01 Zr05 93.76(11) . . ?
O00W Zr01 Zr06 93.70(10) . . ?
O00W Zr01 O00O 120.26(15) . . ?
O011 Zr01 Zr02 121.0(3) 5_545 . ?
O011 Zr01 Zr03 177.9(2) 5_545 . ?
O011 Zr01 Zr05 118.0(2) 5_545 . ?
O011 Zr01 Zr06 89.2(3) 5_545 . ?
O011 Zr01 O00A 106.6(3) 5_545 . ?
O011 Zr01 O00B 73.1(3) 5_545 1_655 ?
O011 Zr01 O00F 70.4(3) 5_545 5_545 ?
O011 Zr01 O00O 81.3(3) 5_545 . ?
O011 Zr01 O00R 94.4(3) 5_545 . ?
O011 Zr01 O00W 144.2(3) 5_545 . ?
O017 Zr01 Zr02 83.74(14) . . ?
O017 Zr01 Zr03 33.38(15) . . ?
O017 Zr01 Zr05 30.49(15) . . ?
O017 Zr01 Zr06 82.21(15) . . ?
O017 Zr01 O00A 83.63(19) . . ?
O017 Zr01 O00B 142.1(2) . 1_655 ?
O017 Zr01 O00F 80.51(19) . 5_545 ?
O017 Zr01 O00O 71.31(18) . . ?
O017 Zr01 O00R 96.2(2) . . ?
O017 Zr01 O00W 70.98(18) . . ?
O017 Zr01 O011 144.6(3) . 5_545 ?
Zr01 Zr02 Zr03 59.79(2) . . ?
Zr01 Zr02 Zr04 90.74(2) . . ?
Zr01 Zr02 Zr06 60.975(19) . . ?
Zr03 Zr02 Zr04 60.748(16) . . ?
Zr03 Zr02 Zr06 90.65(2) . . ?
Zr06 Zr02 Zr04 60.089(19) . . ?
O00G Zr02 Zr01 110.96(9) 8_566 . ?
O00G Zr02 Zr03 74.74(11) 8_566 . ?
O00G Zr02 Zr04 109.94(10) 8_566 . ?
O00G Zr02 Zr06 165.33(11) 8_566 . ?
O00G Zr02 O00K 73.20(14) 8_566 5_455 ?
O00G Zr02 O00N 115.9(2) 8_566 . ?
O00G Zr02 O00P 77.00(15) 8_566 1_655 ?
O00G Zr02 O00W 73.03(17) 8_566 . ?
O00G Zr02 O00Z 142.55(17) 8_566 . ?
O00J Zr02 Zr01 86.89(13) . . ?
O00J Zr02 Zr03 34.42(11) . . ?
O00J Zr02 Zr04 32.82(13) . . ?
O00J Zr02 Zr06 86.16(15) . . ?
O00J Zr02 O00G 80.99(18) . 8_566 ?
O00J Zr02 O00K 81.14(16) . 5_455 ?
O00J Zr02 O00N 142.41(18) . . ?
O00J Zr02 O00P 143.46(16) . 1_655 ?
O00J Zr02 O00W 71.45(17) . . ?
O00J Zr02 O00Z 73.48(19) . . ?
O00K Zr02 Zr01 166.60(10) 5_455 . ?
O00K Zr02 Zr03 111.01(11) 5_455 . ?
O00K Zr02 Zr04 75.93(10) 5_455 . ?
O00K Zr02 Zr06 111.88(11) 5_455 . ?
O00K Zr02 O00P 118.87(14) 5_455 1_655 ?
O00K Zr02 O00Z 76.12(17) 5_455 . ?
O00N Zr02 Zr01 114.12(16) . . ?
O00N Zr02 Zr03 169.32(18) . . ?
O00N Zr02 Zr04 112.44(14) . . ?
O00N Zr02 Zr06 78.68(18) . . ?
O00N Zr02 O00K 73.22(19) . 5_455 ?
O00N Zr02 O00P 74.03(16) . 1_655 ?
O00N Zr02 O00Z 73.99(19) . . ?
O00P Zr02 Zr01 74.47(10) 1_655 . ?
O00P Zr02 Zr03 110.64(10) 1_655 . ?
O00P Zr02 Zr04 165.19(10) 1_655 . ?
O00P Zr02 Zr06 110.27(12) 1_655 . ?
O00P Zr02 O00Z 137.98(18) 1_655 . ?
O00R Zr02 Zr01 34.50(12) . . ?
O00R Zr02 Zr03 86.50(13) . . ?
O00R Zr02 Zr04 85.66(13) . . ?
O00R Zr02 Zr06 32.53(12) . . ?
O00R Zr02 O00G 144.12(15) . 8_566 ?
O00R Zr02 O00J 100.59(19) . . ?
O00R Zr02 O00K 142.66(17) . 5_455 ?
O00R Zr02 O00N 84.7(2) . . ?
O00R Zr02 O00P 81.64(17) . 1_655 ?
O00R Zr02 O00W 73.64(19) . . ?
O00R Zr02 O00Z 68.93(18) . . ?
O00W Zr02 Zr01 39.16(14) . . ?
O00W Zr02 Zr03 37.04(12) . . ?
O00W Zr02 Zr04 94.76(12) . . ?
O00W Zr02 Zr06 96.22(14) . . ?
O00W Zr02 O00K 139.13(18) . 5_455 ?
O00W Zr02 O00N 143.81(18) . . ?
O00W Zr02 O00P 74.40(15) . 1_655 ?
O00W Zr02 O00Z 121.71(17) . . ?
O00Z Zr02 Zr01 94.76(13) . . ?
O00Z Zr02 Zr03 97.19(12) . . ?
O00Z Zr02 Zr04 40.66(13) . . ?
O00Z Zr02 Zr06 36.44(13) . . ?
Zr01 Zr03 Zr02 59.996(17) . . ?
Zr01 Zr03 Zr04 90.31(2) . . ?
Zr01 Zr03 Zr05 60.53(2) . . ?
Zr02 Zr03 Zr04 59.809(18) . . ?
Zr02 Zr03 Zr05 89.73(2) . . ?
Zr05 Zr03 Zr04 59.713(19) . . ?
O009 Zr03 Zr01 74.48(12) . . ?
O009 Zr03 Zr02 110.04(10) . . ?
O009 Zr03 Zr04 164.77(12) . . ?
O009 Zr03 Zr05 111.57(12) . . ?
O009 Zr03 O00D 74.51(13) . 5_545 ?
O009 Zr03 O00M 143.51(14) . . ?
O00C Zr03 Zr01 111.84(11) 8_566 . ?
O00C Zr03 Zr02 72.23(11) 8_566 . ?
O00C Zr03 Zr04 105.27(11) 8_566 . ?
O00C Zr03 Zr05 161.28(11) 8_566 . ?
O00C Zr03 O009 80.23(16) 8_566 . ?
O00C Zr03 O00D 126.00(17) 8_566 5_545 ?
O00C Zr03 O00M 134.64(16) 8_566 . ?
O00C Zr03 O00X 71.03(16) 8_566 . ?
O00D Zr03 Zr01 106.15(13) 5_545 . ?
O00D Zr03 Zr02 161.64(14) 5_545 . ?
O00D Zr03 Zr04 111.53(10) 5_545 . ?
O00D Zr03 Zr05 72.30(13) 5_545 . ?
O00D Zr03 O00M 74.67(14) 5_545 . ?
O00J Zr03 Zr01 87.33(15) . . ?
O00J Zr03 Zr02 34.72(13) . . ?
O00J Zr03 Zr04 31.80(13) . . ?
O00J Zr03 Zr05 85.25(15) . . ?
O00J Zr03 O009 142.99(15) . . ?
O00J Zr03 O00C 77.08(17) . 8_566 ?
O00J Zr03 O00D 142.33(15) . 5_545 ?
O00J Zr03 O00M 68.95(16) . . ?
O00J Zr03 O00W 71.72(16) . . ?
O00J Zr03 O00X 93.38(18) . . ?
O00M Zr03 Zr01 95.99(15) . . ?
O00M Zr03 Zr02 93.94(11) . . ?
O00M Zr03 Zr04 37.19(9) . . ?
O00M Zr03 Zr05 39.27(13) . . ?
O00W Zr03 Zr01 39.32(13) . . ?
O00W Zr03 Zr02 37.00(10) . . ?
O00W Zr03 Zr04 93.82(11) . . ?
O00W Zr03 Zr05 95.59(14) . . ?
O00W Zr03 O009 73.93(14) . . ?
O00W Zr03 O00C 73.16(18) . 8_566 ?
O00W Zr03 O00D 138.72(15) . 5_545 ?
O00W Zr03 O00M 120.42(19) . . ?
O00W Zr03 O00X 143.49(17) . . ?
O00X Zr03 Zr01 177.13(12) . . ?
O00X Zr03 Zr02 121.70(10) . . ?
O00X Zr03 Zr04 88.83(12) . . ?
O00X Zr03 Zr05 116.74(12) . . ?
O00X Zr03 O009 106.40(17) . . ?
O00X Zr03 O00D 71.66(16) . 5_545 ?
O00X Zr03 O00M 81.68(19) . . ?
O017 Zr03 Zr01 31.83(14) . . ?
O017 Zr03 Zr02 82.39(14) . . ?
O017 Zr03 Zr04 82.71(14) . . ?
O017 Zr03 Zr05 32.21(15) . . ?
O017 Zr03 O009 84.68(19) . . ?
O017 Zr03 O00C 143.63(19) . 8_566 ?
O017 Zr03 O00D 80.32(19) . 5_545 ?
O017 Zr03 O00J 96.7(2) . . ?
O017 Zr03 O00M 71.3(2) . . ?
O017 Zr03 O00W 70.9(2) . . ?
O017 Zr03 O00X 145.31(18) . . ?
Zr02 Zr04 Zr03 59.443(19) . . ?
Zr02 Zr04 Zr06 59.93(2) . . ?
Zr05 Zr04 Zr02 89.42(2) . . ?
Zr05 Zr04 Zr03 59.55(2) . . ?
Zr05 Zr04 Zr06 60.18(2) . . ?
Zr06 Zr04 Zr03 89.80(2) . . ?
O00E Zr04 Zr02 72.67(10) 5_455 . ?
O00E Zr04 Zr03 108.80(11) 5_455 . ?
O00E Zr04 Zr05 162.08(10) 5_455 . ?
O00E Zr04 Zr06 109.01(12) 5_455 . ?
O00E Zr04 O00S 125.15(16) 5_455 5_445 ?
O00E Zr04 O00Z 73.02(17) 5_455 . ?
O00H Zr04 Zr02 118.0(2) . . ?
O00H Zr04 Zr03 86.62(18) . . ?
O00H Zr04 Zr05 117.66(16) . . ?
O00H Zr04 Zr06 176.42(18) . . ?
O00H Zr04 O00E 72.3(2) . 5_455 ?
O00H Zr04 O00I 110.4(2) . . ?
O00H Zr04 O00M 81.4(2) . . ?
O00H Zr04 O00S 76.5(3) . 5_445 ?
O00H Zr04 O00Z 143.8(2) . . ?
O00H Zr04 O010 146.1(2) . . ?
O00I Zr04 Zr02 109.88(11) . . ?
O00I Zr04 Zr03 162.99(14) . . ?
O00I Zr04 Zr05 109.86(14) . . ?
O00I Zr04 Zr06 73.19(14) . . ?
O00I Zr04 O00E 77.69(17) . 5_455 ?
O00I Zr04 O00S 72.53(17) . 5_445 ?
O00I Zr04 O00Z 71.43(17) . . ?
O00J Zr04 Zr02 33.91(13) . . ?
O00J Zr04 Zr03 32.57(11) . . ?
O00J Zr04 Zr05 85.74(13) . . ?
O00J Zr04 Zr06 86.90(15) . . ?
O00J Zr04 O00E 79.14(16) . 5_455 ?
O00J Zr04 O00H 90.1(2) . . ?
O00J Zr04 O00I 142.27(16) . . ?
O00J Zr04 O00M 71.81(16) . . ?
O00J Zr04 O00S 144.80(17) . 5_445 ?
O00J Zr04 O00Z 73.53(19) . . ?
O00J Zr04 O010 98.9(2) . . ?
O00M Zr04 Zr02 95.54(11) . . ?
O00M Zr04 Zr03 39.29(11) . . ?
O00M Zr04 Zr05 38.58(15) . . ?
O00M Zr04 Zr06 95.78(15) . . ?
O00M Zr04 O00E 140.48(19) . 5_455 ?
O00M Zr04 O00I 140.38(17) . . ?
O00M Zr04 O00S 74.06(17) . 5_445 ?
O00M Zr04 O00Z 121.28(17) . . ?
O00S Zr04 Zr02 161.32(14) 5_445 . ?
O00S Zr04 Zr03 113.11(13) 5_445 . ?
O00S Zr04 Zr05 72.71(13) 5_445 . ?
O00S Zr04 Zr06 104.95(16) 5_445 . ?
O00S Zr04 O00Z 133.8(2) 5_445 . ?
O00Z Zr04 Zr02 39.63(14) . . ?
O00Z Zr04 Zr03 95.02(12) . . ?
O00Z Zr04 Zr05 93.59(12) . . ?
O00Z Zr04 Zr06 36.63(13) . . ?
O010 Zr04 Zr02 84.44(12) . . ?
O010 Zr04 Zr03 83.96(12) . . ?
O010 Zr04 Zr05 32.21(11) . . ?
O010 Zr04 Zr06 33.00(11) . . ?
O010 Zr04 O00E 141.42(17) . 5_455 ?
O010 Zr04 O00I 81.69(18) . . ?
O010 Zr04 O00M 70.79(19) . . ?
O010 Zr04 O00S 77.52(19) . 5_445 ?
O010 Zr04 O00Z 69.62(18) . . ?
Zr01 Zr05 Zr06 60.570(16) . . ?
Zr03 Zr05 Zr01 59.461(18) . . ?
Zr03 Zr05 Zr04 60.734(19) . . ?
Zr03 Zr05 Zr06 90.38(2) . . ?
Zr04 Zr05 Zr01 90.29(2) . . ?
Zr04 Zr05 Zr06 60.00(2) . . ?
O007 Zr05 Zr01 72.45(11) 5_545 . ?
O007 Zr05 Zr03 107.71(12) 5_545 . ?
O007 Zr05 Zr04 162.71(11) 5_545 . ?
O007 Zr05 Zr06 109.99(12) 5_545 . ?
O007 Zr05 O008 74.81(17) 5_545 5_545 ?
O007 Zr05 O00M 141.02(16) 5_545 . ?
O007 Zr05 O00O 73.07(15) 5_545 . ?
O007 Zr05 O00V 120.89(16) 5_545 5_445 ?
O008 Zr05 Zr01 109.24(12) 5_545 . ?
O008 Zr05 Zr03 74.38(14) 5_545 . ?
O008 Zr05 Zr04 111.30(13) 5_545 . ?
O008 Zr05 Zr06 164.74(14) 5_545 . ?
O008 Zr05 O00M 74.38(17) 5_545 . ?
O008 Zr05 O00O 141.90(14) 5_545 . ?
O00M Zr05 Zr01 96.03(11) . . ?
O00M Zr05 Zr03 40.42(10) . . ?
O00M Zr05 Zr04 37.58(10) . . ?
O00M Zr05 Zr06 94.67(11) . . ?
O00M Zr05 O00O 122.08(16) . . ?
O00O Zr05 Zr01 40.87(12) . . ?
O00O Zr05 Zr03 96.50(12) . . ?
O00O Zr05 Zr04 94.63(10) . . ?
O00O Zr05 Zr06 37.33(9) . . ?
O00V Zr05 Zr01 166.54(11) 5_445 . ?
O00V Zr05 Zr03 113.88(16) 5_445 . ?
O00V Zr05 Zr04 76.40(12) 5_445 . ?
O00V Zr05 Zr06 109.77(11) 5_445 . ?
O00V Zr05 O008 78.04(17) 5_445 5_545 ?
O00V Zr05 O00M 74.68(18) 5_445 . ?
O00V Zr05 O00O 137.00(18) 5_445 . ?
O010 Zr05 Zr01 85.06(13) . . ?
O010 Zr05 Zr03 86.01(16) . . ?
O010 Zr05 Zr04 33.44(16) . . ?
O010 Zr05 Zr06 31.95(14) . . ?
O010 Zr05 O007 141.1(2) . 5_545 ?
O010 Zr05 O008 143.7(2) . 5_545 ?
O010 Zr05 O00M 71.02(19) . . ?
O010 Zr05 O00O 69.26(16) . . ?
O010 Zr05 O00V 82.72(16) . 5_445 ?
O010 Zr05 O013 85.6(3) . 7_545 ?
O013 Zr05 Zr01 117.3(2) 7_545 . ?
O013 Zr05 Zr03 171.3(3) 7_545 . ?
O013 Zr05 Zr04 112.4(2) 7_545 . ?
O013 Zr05 Zr06 81.2(3) 7_545 . ?
O013 Zr05 O007 77.6(2) 7_545 5_545 ?
O013 Zr05 O008 114.0(3) 7_545 5_545 ?
O013 Zr05 O00M 137.5(2) 7_545 . ?
O013 Zr05 O00O 78.3(3) 7_545 . ?
O013 Zr05 O00V 67.4(3) 7_545 5_445 ?
O017 Zr05 Zr01 30.01(16) . . ?
O017 Zr05 Zr03 33.24(16) . . ?
O017 Zr05 Zr04 84.41(14) . . ?
O017 Zr05 Zr06 82.63(15) . . ?
O017 Zr05 O007 80.10(18) . 5_545 ?
O017 Zr05 O008 84.0(2) . 5_545 ?
O017 Zr05 O00M 73.49(19) . . ?
O017 Zr05 O00O 70.8(2) . . ?
O017 Zr05 O00V 146.6(2) . 5_445 ?
O017 Zr05 O010 96.1(2) . . ?
O017 Zr05 O013 146.0(3) . 7_545 ?
Zr02 Zr06 Zr01 59.251(18) . . ?
Zr02 Zr06 Zr04 59.98(2) . . ?
Zr02 Zr06 Zr05 89.24(2) . . ?
Zr04 Zr06 Zr01 89.68(3) . . ?
Zr04 Zr06 Zr05 59.815(18) . . ?
Zr05 Zr06 Zr01 59.711(19) . . ?
O00O Zr06 Zr01 39.55(12) . . ?
O00O Zr06 Zr02 96.14(13) . . ?
O00O Zr06 Zr04 97.16(12) . . ?
O00O Zr06 Zr05 40.24(11) . . ?
O00O Zr06 O014 142.26(16) . . ?
O00O Zr06 O019 72.2(2) . 7_545 ?
O00Q Zr06 Zr01 164.07(14) . . ?
O00Q Zr06 Zr02 112.55(14) . . ?
O00Q Zr06 Zr04 74.55(14) . . ?
O00Q Zr06 Zr05 108.79(12) . . ?
O00Q Zr06 O00O 138.81(16) . . ?
O00Q Zr06 O014 76.86(17) . . ?
O00Q Zr06 O019 71.6(2) . 7_545 ?
O00R Zr06 Zr01 32.97(11) . . ?
O00R Zr06 Zr02 32.52(15) . . ?
O00R Zr06 Zr04 85.55(16) . . ?
O00R Zr06 Zr05 85.41(12) . . ?
O00R Zr06 O00O 72.47(16) . . ?
O00R Zr06 O00Q 143.87(18) . . ?
O00R Zr06 O00Z 71.2(2) . . ?
O00R Zr06 O010 98.2(2) . . ?
O00R Zr06 O014 80.58(18) . . ?
O00R Zr06 O016 93.6(2) . . ?
O00R Zr06 O019 144.0(2) . 7_545 ?
O00Z Zr06 Zr01 95.25(14) . . ?
O00Z Zr06 Zr02 38.75(13) . . ?
O00Z Zr06 Zr04 39.96(13) . . ?
O00Z Zr06 Zr05 96.30(14) . . ?
O00Z Zr06 O00O 124.43(19) . . ?
O00Z Zr06 O00Q 74.23(19) . . ?
O00Z Zr06 O014 67.7(2) . . ?
O00Z Zr06 O016 142.4(2) . . ?
O00Z Zr06 O019 137.6(2) . 7_545 ?
O010 Zr06 Zr01 83.82(12) . . ?
O010 Zr06 Zr02 85.01(15) . . ?
O010 Zr06 Zr04 33.67(14) . . ?
O010 Zr06 Zr05 31.39(11) . . ?
O010 Zr06 O00O 71.62(15) . . ?
O010 Zr06 O00Q 81.75(17) . . ?
O010 Zr06 O00Z 73.62(19) . . ?
O010 Zr06 O014 139.6(2) . . ?
O010 Zr06 O016 143.8(2) . . ?
O010 Zr06 O019 77.3(3) . 7_545 ?
O014 Zr06 Zr01 110.66(13) . . ?
O014 Zr06 Zr02 72.44(16) . . ?
O014 Zr06 Zr04 106.73(17) . . ?
O014 Zr06 Zr05 161.46(17) . . ?
O014 Zr06 O019 125.8(3) . 7_545 ?
O016 Zr06 Zr01 87.93(18) . . ?
O016 Zr06 Zr02 120.25(17) . . ?
O016 Zr06 Zr04 176.83(16) . . ?
O016 Zr06 Zr05 117.10(16) . . ?
O016 Zr06 O00O 79.7(2) . . ?
O016 Zr06 O00Q 107.7(2) . . ?
O016 Zr06 O014 76.1(2) . . ?
O016 Zr06 O019 73.2(3) . 7_545 ?
O019 Zr06 Zr01 111.6(2) 7_545 . ?
O019 Zr06 Zr02 161.1(3) 7_545 . ?
O019 Zr06 Zr04 105.8(2) 7_545 . ?
O019 Zr06 Zr05 72.2(2) 7_545 . ?
C024 O007 Zr05 135.3(4) . 5_455 ?
C01B O008 Zr05 134.6(4) . 5_455 ?
C13 O009 Zr03 135.5(5) . . ?
C13 O00A Zr01 133.5(4) . . ?
C02B O00B Zr01 135.7(4) . 1_455 ?
C01C O00C Zr03 135.2(5) . 8_466 ?
C01B O00D Zr03 136.0(4) . 5_455 ?
C02S O00E Zr04 134.9(4) . 5_545 ?
C024 O00F Zr01 136.1(4) . 5_455 ?
C01C O00G Zr02 133.6(4) . 8_466 ?
C787 O00H Zr04 142.2(8) . . ?
C02J O00I Zr04 133.5(4) . . ?
Zr03 O00J Zr02 110.9(2) . . ?
Zr04 O00J Zr02 113.3(2) . . ?
Zr04 O00J Zr03 115.6(2) . . ?
C02S O00K Zr02 129.7(4) . 5_545 ?
Zr04 O00M Zr03 103.52(16) . . ?
Zr04 O00M Zr05 103.8(2) . . ?
Zr05 O00M Zr03 100.31(17) . . ?
C03S O00N Zr02 124.9(5) . . ?
Zr01 O00O Zr05 98.24(18) . . ?
Zr06 O00O Zr01 103.72(17) . . ?
Zr06 O00O Zr05 102.44(16) . . ?
C02B O00P Zr02 132.7(4) . 1_455 ?
C02J O00Q Zr06 134.2(5) . . ?
Zr02 O00R Zr01 111.9(2) . . ?
Zr02 O00R Zr06 114.9(2) . . ?
Zr06 O00R Zr01 114.9(2) . . ?
C03J O00S Zr04 132.7(4) . 5 ?
C03J O00V Zr05 131.9(4) . 5 ?
Zr02 O00W Zr01 103.2(2) . . ?
Zr02 O00W Zr03 105.96(18) . . ?
Zr03 O00W Zr01 102.84(17) . . ?
Zr02 O00Z Zr04 99.7(2) . . ?
Zr06 O00Z Zr02 104.81(19) . . ?
Zr06 O00Z Zr04 103.40(19) . . ?
Zr05 O010 Zr04 114.3(2) . . ?
Zr05 O010 Zr06 116.7(2) . . ?
Zr06 O010 Zr04 113.33(19) . . ?
C850 O011 Zr01 122.1(8) . 5_455 ?
C02O C012 C01W 120.0 . . ?
C02O C012 C01U 116.4(3) . . ?
C01W C012 C01U 123.6(3) . . ?
C012 C02O H02O 120.0 . . ?
C022 C02O C012 120.0 . . ?
C022 C02O H02O 120.0 . . ?
C02O C022 C02D 120.0 . . ?
C02O C022 C01I 119.6(3) . . ?
C02D C022 C01I 120.3(3) . . ?
C022 C02D O00T 120.1(3) . . ?
C01Y C02D O00T 119.8(3) . . ?
C01Y C02D C022 120.0 . . ?
C02D C01Y C01W 120.0 . . ?
C02D C01Y C01Q 131.0(3) . . ?
C01W C01Y C01Q 108.9(3) . . ?
C012 C01W C039 130.1(4) . 4_566 ?
C01Y C01W C012 120.0 . . ?
C01Y C01W C039 109.8(3) . 4_566 ?
C042 O013 Zr05 114.3(7) . 7 ?
C03S O014 Zr06 136.0(6) . . ?
Zr01 O017 Zr03 114.8(2) . . ?
Zr01 O017 Zr05 119.5(3) . . ?
Zr05 O017 Zr03 114.5(3) . . ?
C02Z C018 C037 120.0 . . ?
C02Z C018 C01B 119.9(4) . . ?
C037 C018 C01B 120.0(4) . . ?
C018 C02Z H02Z 120.0 . . ?
C02U C02Z C018 120.0 . . ?
C02U C02Z H02Z 120.0 . . ?
C02Z C02U H02U 120.0 . . ?
C02Z C02U C01E 120.0 . . ?
C01E C02U H02U 120.0 . . ?
C02U C01E C028 120.0 . . ?
C02U C01E C027 120.5(3) . . ?
C028 C01E C027 119.5(3) . . ?
C01E C028 H028 120.0 . . ?
C037 C028 C01E 120.0 . . ?
C037 C028 H028 120.0 . . ?
C018 C037 H037 120.0 . . ?
C028 C037 C018 120.0 . . ?
C028 C037 H037 120.0 . . ?
C042 O019 Zr06 118.8(7) . 7 ?
C01L C01A C02H 120.0 . . ?
C01L C01A C01F 127.7(4) . . ?
C02H C01A C01F 112.1(4) . . ?
C01A C01L O00U 119.9(4) . . ?
C01T C01L O00U 119.9(4) . . ?
C01T C01L C01A 120.0 . . ?
C01L C01T C031 123.7(3) . . ?
C02Q C01T C01L 120.0 . . ?
C02Q C01T C031 115.8(3) . . ?
C01T C02Q H02Q 120.0 . . ?
C01T C02Q C03B 120.0 . . ?
C03B C02Q H02Q 120.0 . . ?
C02Q C03B C03P 124.0(4) . . ?
C02H C03B C02Q 120.0 . . ?
C02H C03B C03P 116.0(4) . . ?
C01A C02H C03F 106.6(4) . . ?
C03B C02H C01A 120.0 . . ?
C03B C02H C03F 133.2(4) . . ?
O008 C01B C018 115.0(6) . . ?
O00D C01B O008 122.2(6) . . ?
O00D C01B C018 122.7(7) . . ?
O00C C01C O00G 123.9(7) . . ?
O00C C01C C01H 118.4(6) . . ?
O00G C01C C01H 116.6(5) . . ?
C01V C01D C03E 120.0 . . ?
C01V C01D C01S 123.1(2) . . ?
C03E C01D C01S 116.9(2) . . ?
C01D C01V C01O 130.6(3) . . ?
C01G C01V C01D 120.0 . . ?
C01G C01V C01O 109.4(3) . . ?
C01V C01G C01F 110.9(3) . . ?
C02T C01G C01V 120.0 . . ?
C02T C01G C01F 129.1(3) . . ?
O00L C02T C01G 119.5(3) . . ?
O00L C02T C027 120.5(3) . . ?
C01G C02T C027 120.0 . . ?
C02T C027 C01E 121.4(3) . . ?
C02T C027 C03E 120.0 . . ?
C03E C027 C01E 118.2(3) . . ?
C01D C03E H03E 120.0 . . ?
C027 C03E C01D 120.0 . . ?
C027 C03E H03E 120.0 . . ?
C01A C01F C023 110.2(6) . . ?
C01A C01F C02L 101.9(4) . . ?
C01G C01F C01A 117.6(5) . . ?
C01G C01F C023 103.2(4) . . ?
C01G C01F C02L 108.8(6) . . ?
C02L C01F C023 115.7(6) . . ?
C02A C01H C01C 119.0(4) . . ?
C02A C01H C03D 120.0 . . ?
C03D C01H C01C 120.8(4) . . ?
C01H C02A H02A 120.0 . . ?
C033 C02A C01H 120.0 . . ?
C033 C02A H02A 120.0 . . ?
C02A C033 H033 120.0 . . ?
C02A C033 C031 120.0 . . ?
C031 C033 H033 120.0 . . ?
C033 C031 C01T 121.1(3) . . ?
C033 C031 C03I 120.0 . . ?
C03I C031 C01T 118.9(3) . . ?
C031 C03I H03I 120.0 . . ?
C03D C03I C031 120.0 . . ?
C03D C03I H03I 120.0 . . ?
C01H C03D H03D 120.0 . . ?
C03I C03D C01H 120.0 . . ?
C03I C03D H03D 120.0 . . ?
C02N C01I C022 117.1(3) . . ?
C02N C01I C01R 120.0 . . ?
C01R C01I C022 122.9(3) . . ?
C01I C02N H02N 120.0 . . ?
C01I C02N C036 120.0 . . ?
C036 C02N H02N 120.0 . . ?
C02N C036 H036 120.0 . . ?
C020 C036 C02N 120.0 . . ?
C020 C036 H036 120.0 . . ?
C036 C020 C13 122.3(5) . . ?
C01P C020 C036 120.0 . . ?
C01P C020 C13 117.7(5) . . ?
C020 C01P H01P 120.0 . . ?
C020 C01P C01R 120.0 . . ?
C01R C01P H01P 120.0 . . ?
C01I C01R H01R 120.0 . . ?
C01P C01R C01I 120.0 . . ?
C01P C01R H01R 120.0 . . ?
C01X C01J C02W 120.0 . . ?
C01X C01J C024 124.7(3) . . ?
C02W C01J C024 115.3(3) . . ?
C01J C01X H01X 120.0 . . ?
C01J C01X C02C 120.0 . . ?
C02C C01X H01X 120.0 . . ?
C01X C02C H02C 120.0 . . ?
C02E C02C C01X 120.0 . . ?
C02E C02C H02C 120.0 . . ?
C02C C02E C032 119.4(3) . . ?
C02Y C02E C02C 120.0 . . ?
C02Y C02E C032 120.5(3) . . ?
C02E C02Y H02Y 120.0 . . ?
C02E C02Y C02W 120.0 . . ?
C02W C02Y H02Y 120.0 . . ?
C01J C02W H02W 120.0 . . ?
C02Y C02W C01J 120.0 . . ?
C02Y C02W H02W 120.0 . . ?
C01S C01K H01K 120.0 . . ?
C01S C01K C025 120.0 . . ?
C025 C01K H01K 120.0 . . ?
C01K C01S C01D 120.9(3) . . ?
C01K C01S C02V 120.0 . . ?
C02V C01S C01D 119.1(3) . . ?
C01S C02V H02V 120.0 . . ?
C03O C02V C01S 120.0 . . ?
C03O C02V H02V 120.0 . . ?
C02V C03O H03O 120.0 . . ?
C01N C03O C02V 120.0 . . ?
C01N C03O H03O 120.0 . . ?
C03O C01N C025 120.0 . . ?
C03O C01N C02B 120.0(3) . . ?
C025 C01N C02B 120.0(3) . . ?
C01K C025 H025 120.0 . . ?
C01N C025 C01K 120.0 . . ?
C01N C025 H025 120.0 . . ?
C029 C01M H01M 120.0 . . ?
C029 C01M C026 120.0 . . ?
C026 C01M H01M 120.0 . . ?
C01M C029 C030 120.0 . . ?
C01M C029 C02S 117.7(3) . . ?
C030 C029 C02S 122.3(3) . . ?
C029 C030 H030 120.0 . . ?
C02K C030 C029 120.0 . . ?
C02K C030 H030 120.0 . . ?
C030 C02K H02K 120.0 . . ?
C030 C02K C01U 120.0 . . ?
C01U C02K H02K 120.0 . . ?
C02K C01U C012 121.9(3) . . ?
C02K C01U C026 120.0 . . ?
C026 C01U C012 118.0(3) . . ?
C01M C026 H026 120.0 . . ?
C01U C026 C01M 120.0 . . ?
C01U C026 H026 120.0 . . ?
C01V C01O H01A 110.6 . . ?
C01V C01O H01B 110.6 . . ?
C01V C01O C023 105.8(4) . . ?
H01A C01O H01B 108.7 . . ?
C023 C01O H01A 110.6 . . ?
C023 C01O H01B 110.6 . . ?
C01Y C01Q C01Y 115.4(7) . 4_566 ?
C01Y C01Q C02I 102.4(4) 4_566 . ?
C01Y C01Q C02I 110.1(5) 4_566 4_566 ?
C01Y C01Q C02I 110.1(3) . . ?
C01Y C01Q C02I 102.4(3) . 4_566 ?
C02I C01Q C02I 117.0(7) . 4_566 ?
C03A C01Z C02R 120.0 . . ?
C03A C01Z C02J 117.0(5) . . ?
C02R C01Z C02J 122.9(5) . . ?
C01Z C03A H03A 120.0 . . ?
C03H C03A C01Z 120.0 . . ?
C03H C03A H03A 120.0 . . ?
C03A C03H H03H 120.0 . . ?
C03A C03H C035 120.0 . . ?
C035 C03H H03H 120.0 . . ?
C03H C035 C038 120.0 . . ?
C03H C035 C02G 120.5(4) . . ?
C038 C035 C02G 119.5(4) . . ?
C035 C038 H038 120.0 . . ?
C02R C038 C035 120.0 . . ?
C02R C038 H038 120.0 . . ?
C01Z C02R H02R 120.0 . . ?
C038 C02R C01Z 120.0 . . ?
C038 C02R H02R 120.0 . . ?
C01F C023 C01O 100.7(5) . . ?
C01F C023 H02B 111.6 . . ?
C01F C023 H02D 111.6 . . ?
C01O C023 H02B 111.6 . . ?
C01O C023 H02D 111.6 . . ?
H02B C023 H02D 109.4 . . ?
O007 C024 C01J 111.5(5) . . ?
O00F C024 O007 122.9(6) . . ?
O00F C024 C01J 125.0(5) . . ?
O00B C02B O00P 123.8(5) . . ?
O00B C02B C01N 117.8(5) . . ?
O00P C02B C01N 117.8(5) . . ?
C03C C02G C035 123.4(3) . . ?
C03C C02G C034 120.0 . . ?
C034 C02G C035 116.4(3) . . ?
C02G C03C C03N 127.9(4) . 3 ?
C02X C03C C02G 120.0 . . ?
C02X C03C C03N 111.7(4) . 3 ?
C03C C02X C02P 120.0 . . ?
C03C C02X C03G 112.5(3) . . ?
C02P C02X C03G 126.5(3) . . ?
C02X C02P O00Y 120.4(3) . . ?
C032 C02P O00Y 119.5(3) . . ?
C032 C02P C02X 120.0 . . ?
C02P C032 C02E 122.6(3) . . ?
C034 C032 C02E 116.9(3) . . ?
C034 C032 C02P 120.0 . . ?
C02G C034 H034 120.0 . . ?
C032 C034 C02G 120.0 . . ?
C032 C034 H034 120.0 . . ?
C01Q C02I H02E 111.2 . . ?
C01Q C02I H02F 111.2 . . ?
H02E C02I H02F 109.2 . . ?
C039 C02I C01Q 102.6(5) . . ?
C039 C02I H02E 111.2 . . ?
C039 C02I H02F 111.2 . . ?
O00I C02J O00Q 122.3(6) . . ?
O00I C02J C01Z 113.5(7) . . ?
O00Q C02J C01Z 123.4(8) . . ?
C01F C02L H02G 111.6 . . ?
C01F C02L H02H 111.6 . . ?
H02G C02L H02H 109.4 . . ?
C03F C02L C01F 101.0(6) . . ?
C03F C02L H02G 111.6 . . ?
C03F C02L H02H 111.6 . . ?
H02I C02M H02J 108.7 . . ?
C03G C02M H02I 110.5 . . ?
C03G C02M H02J 110.5 . . ?
C03G C02M C03N 106.1(5) . . ?
C03N C02M H02I 110.5 . . ?
C03N C02M H02J 110.5 . . ?
O00E C02S O00K 126.8(5) . . ?
O00E C02S C029 118.8(5) . . ?
O00K C02S C029 113.9(4) . . ?
C01W C039 C02I 105.4(5) 4_566 . ?
C01W C039 H03B 110.7 4_566 . ?
C01W C039 H03C 110.7 4_566 . ?
C02I C039 H03B 110.7 . . ?
C02I C039 H03C 110.7 . . ?
H03B C039 H03C 108.8 . . ?
C02H C03F C02L 105.7(5) . . ?
C02H C03F H03F 110.6 . . ?
C02H C03F H03G 110.6 . . ?
C02L C03F H03F 110.6 . . ?
C02L C03F H03G 110.6 . . ?
H03F C03F H03G 108.7 . . ?
C02X C03G C02X 112.7(7) . 3 ?
C02M C03G C02X 101.7(3) 3 . ?
C02M C03G C02X 113.3(5) 3 3 ?
C02M C03G C02X 113.3(3) . . ?
C02M C03G C02X 101.7(4) . 3 ?
C02M C03G C02M 114.7(8) . 3 ?
O00S C03J C03Y 114.4(6) . . ?
O00V C03J O00S 125.7(6) . . ?
O00V C03J C03Y 118.6(5) . . ?
C03U C03L H03L 120.0 . . ?
C03U C03L C04E 120.0 . . ?
C04E C03L H03L 120.0 . . ?
C03L C03U C03M 120.0 . . ?
C03L C03U C03S 123.0(6) . . ?
C03M C03U C03S 116.9(6) . . ?
C03U C03M H03M 120.0 . . ?
C043 C03M C03U 120.0 . . ?
C043 C03M H03M 120.0 . . ?
C03M C043 H043 120.0 . . ?
C03M C043 C048 120.0 . . ?
C048 C043 H043 120.0 . . ?
C043 C048 C04E 120.0 . . ?
C043 C048 C049 123.9(6) . . ?
C04E C048 C049 116.0(6) . . ?
C03L C04E H04E 120.0 . . ?
C048 C04E C03L 120.0 . . ?
C048 C04E H04E 120.0 . . ?
C03C C03N C02M 99.2(5) 3 . ?
C03C C03N H03J 111.9 3 . ?
C03C C03N H03K 111.9 3 . ?
C02M C03N H03J 111.9 . . ?
C02M C03N H03K 111.9 . . ?
H03J C03N H03K 109.6 . . ?
C196 C03P C03B 123.0(4) . . ?
C196 C03P C101 120.0 . . ?
C101 C03P C03B 116.9(4) . . ?
C03P C196 H196 120.0 . . ?
C04J C196 C03P 120.0 . . ?
C04J C196 H196 120.0 . . ?
C196 C04J H04J 120.0 . . ?
C196 C04J C03X 120.0 . . ?
C03X C04J H04J 120.0 . . ?
C04J C03X C787 122.6(5) . . ?
C45 C03X C04J 120.0 . . ?
C45 C03X C787 117.3(5) . . ?
C03X C45 H45 120.0 . . ?
C101 C45 C03X 120.0 . . ?
C101 C45 H45 120.0 . . ?
C03P C101 H101 120.0 . . ?
C45 C101 C03P 120.0 . . ?
C45 C101 H101 120.0 . . ?
C041 C03R H03R 120.0 . . ?
C041 C03R C03Y 120.0 . . ?
C03Y C03R H03R 120.0 . . ?
C03R C041 H041 120.0 . . ?
C040 C041 C03R 120.0 . . ?
C040 C041 H041 120.0 . . ?
C041 C040 C044 120.0 . . ?
C041 C040 C111 116.9(5) . . ?
C044 C040 C111 122.7(5) . . ?
C040 C044 H044 120.0 . . ?
C046 C044 C040 120.0 . . ?
C046 C044 H044 120.0 . . ?
C044 C046 H046 120.0 . . ?
C03Y C046 C044 120.0 . . ?
C03Y C046 H046 120.0 . . ?
C03R C03Y C03J 123.0(4) . . ?
C046 C03Y C03J 116.3(5) . . ?
C046 C03Y C03R 120.0 . . ?
O00N C03S C03U 110.1(7) . . ?
O014 C03S O00N 127.7(7) . . ?
O014 C03S C03U 122.2(9) . . ?
C111 C03W H03W 120.0 . . ?
C111 C03W C049 120.0 . . ?
C049 C03W H03W 120.0 . . ?
C03W C111 C040 119.0(6) . . ?
C03W C111 C122 120.0 . . ?
C122 C111 C040 119.9(6) . . ?
C111 C122 C229 134.0(7) . . ?
C04O C122 C111 120.0 . . ?
C04O C122 C229 105.8(7) . . ?
C122 C04O C35 120.0 . . ?
C122 C04O C04C 122.9(8) . . ?
C35 C04O C04C 117.1(8) . . ?
C049 C35 C04O 120.0 . . ?
O36 C35 C04O 116.4(8) . . ?
O36 C35 C049 123.6(8) . . ?
C03W C049 C048 119.7(6) . . ?
C35 C049 C048 120.3(6) . . ?
C35 C049 C03W 120.0 . . ?
O013 C042 O019 153.3(10) . . ?
O013 C042 C248 101.6(8) . . ?
O019 C042 C248 105.1(8) . . ?
C04O C04C C215 90.7(9) . . ?
C04O C04C C405 150.7(13) . . ?
C04O C04C C280 95.5(9) . . ?
C215 C04C C280 122.8(15) . . ?
C405 C04C C215 104.5(10) . . ?
C405 C04C C280 96.9(9) . . ?
C248 C04N H04N 120.0 . . ?
C248 C04N C104 120.0 . . ?
C104 C04N H04N 120.0 . . ?
C04N C248 C042 123.5(6) . . ?
C04N C248 C583 120.0 . . ?
C583 C248 C042 116.5(6) . . ?
C248 C583 H583 120.0 . . ?
C615 C583 C248 120.0 . . ?
C615 C583 H583 120.0 . . ?
C583 C615 H615 120.0 . . ?
C583 C615 C539 120.0 . . ?
C539 C615 H615 120.0 . . ?
C615 C539 C809 118.5(5) . . ?
C104 C539 C615 120.0 . . ?
C104 C539 C809 121.5(5) . . ?
C04N C104 H104 120.0 . . ?
C539 C104 C04N 120.0 . . ?
C539 C104 H104 120.0 . . ?
O009 C13 O00A 121.6(6) . . ?
O009 C13 C020 122.9(8) . . ?
O00A C13 C020 115.5(6) . . ?
C04C C215 H21A 111.0 . . ?
C04C C215 H21B 111.0 . . ?
H21A C215 H21B 109.0 . . ?
C409 C215 C04C 103.6(13) . . ?
C409 C215 H21A 111.0 . . ?
C409 C215 H21B 111.0 . . ?
C215 C409 H40A 113.0 . . ?
C215 C409 H40B 113.0 . . ?
C215 C409 C922 93.5(11) . . ?
H40A C409 H40B 110.4 . . ?
C922 C409 H40A 113.0 . . ?
C922 C409 H40B 113.0 . . ?
C122 C229 H22A 111.1 . . ?
C122 C229 H22B 111.1 . . ?
C122 C229 C280 103.3(9) . . ?
H22A C229 H22B 109.1 . . ?
C280 C229 H22A 111.1 . . ?
C280 C229 H22B 111.1 . . ?
C922 C405 C04C 96.7(8) . . ?
C922 C405 C900 120.0 . . ?
C900 C405 C04C 142.6(8) . . ?
C405 C922 C409 124.7(9) . . ?
C405 C922 C809 120.0 . . ?
C809 C922 C409 115.3(9) . . ?
C922 C809 C539 146.1(2) . . ?
C922 C809 C71 120.0 . . ?
C71 C809 C539 92.8(3) . . ?
C809 C71 H71 120.0 . . ?
C546 C71 C809 120.0 . . ?
C546 C71 H71 120.0 . . ?
C900 C546 C71 120.0 . . ?
C662 C546 C71 109.7(2) . . ?
C662 C546 C900 130.3(2) . . ?
C546 C900 C405 120.0 . . ?
O447 C900 C405 117.0(7) . . ?
O447 C900 C546 117.3(7) . . ?
O00H C787 C03X 116.5(8) . . ?
O00H C787 O271 117.5(9) . . ?
O271 C787 C03X 122.3(8) . . ?
C479 C567 H567 120.0 . . ?
C479 C567 C662 120.0 . . ?
C662 C567 H567 120.0 . . ?
C567 C479 H479 120.0 . . ?
C232 C479 C567 120.0 . . ?
C232 C479 H479 120.0 . . ?
C479 C232 C777 120.0 . . ?
C479 C232 C850 116.7(6) . . ?
C777 C232 C850 123.3(6) . . ?
C232 C777 H777 120.0 . . ?
C656 C777 C232 120.0 . . ?
C656 C777 H777 120.0 . . ?
C777 C656 H656 120.0 . . ?
C662 C656 C777 120.0 . . ?
C662 C656 H656 120.0 . . ?
C546 C662 C567 114.9(5) . . ?
C546 C662 C656 125.1(5) . . ?
C656 C662 C567 120.0 . . ?
O011 C850 C232 105.0(9) . . ?
O011 C850 O325 151.6(14) . . ?
O325 C850 C232 103.3(8) . . ?
C04C C280 H28A 109.8 . . ?
C04C C280 H28B 109.8 . . ?
C229 C280 C04C 109.5(10) . . ?
C229 C280 H28A 109.8 . . ?
C229 C280 H28B 109.8 . . ?
H28A C280 H28B 108.2 . . ?
loop_
_geom_bond_atom_site_label_1
_geom_bond_atom_site_label_2
_geom_bond_distance
_geom_bond_site_symmetry_2
_geom_bond_publ_flag
Zr01 Zr02 3.4855(9) . ?
Zr01 Zr03 3.4783(11) . ?
Zr01 Zr05 3.5160(10) . ?
Zr01 Zr06 3.5464(9) . ?
Zr01 O00A 2.236(5) . ?
Zr01 O00B 2.255(4) 1_655 ?
Zr01 O00F 2.259(4) 5_545 ?
Zr01 O00O 2.324(5) . ?
Zr01 O00R 2.128(4) . ?
Zr01 O00W 2.261(5) . ?
Zr01 O011 2.077(9) 5_545 ?
Zr01 O017 2.021(6) . ?
Zr02 Zr03 3.4932(10) . ?
Zr02 Zr04 3.5062(10) . ?
Zr02 Zr06 3.5043(12) . ?
Zr02 O00G 2.169(5) 8_566 ?
Zr02 O00J 2.129(5) . ?
Zr02 O00K 2.225(3) 5_455 ?
Zr02 O00N 2.196(5) . ?
Zr02 O00P 2.232(4) 1_655 ?
Zr02 O00R 2.078(6) . ?
Zr02 O00W 2.187(3) . ?
Zr02 O00Z 2.269(5) . ?
Zr03 Zr04 3.5392(9) . ?
Zr03 Zr05 3.4976(12) . ?
Zr03 O009 2.250(3) . ?
Zr03 O00C 2.221(5) 8_566 ?
Zr03 O00D 2.284(4) 5_545 ?
Zr03 O00J 2.113(4) . ?
Zr03 O00M 2.305(4) . ?
Zr03 O00W 2.188(4) . ?
Zr03 O00X 2.250(5) . ?
Zr03 O017 2.108(6) . ?
Zr04 Zr05 3.5033(9) . ?
Zr04 Zr06 3.5100(11) . ?
Zr04 O00E 2.244(4) 5_455 ?
Zr04 O00H 2.081(8) . ?
Zr04 O00I 2.241(5) . ?
Zr04 O00J 2.069(5) . ?
Zr04 O00M 2.200(4) . ?
Zr04 O00S 2.289(4) 5_445 ?
Zr04 O00Z 2.318(5) . ?
Zr04 O010 2.119(5) . ?
Zr05 Zr06 3.5163(10) . ?
Zr05 O007 2.203(4) 5_545 ?
Zr05 O008 2.233(5) 5_545 ?
Zr05 O00M 2.250(5) . ?
Zr05 O00O 2.326(4) . ?
Zr05 O00V 2.223(4) 5_445 ?
Zr05 O010 2.050(4) . ?
Zr05 O013 2.126(9) 7_545 ?
Zr05 O017 2.050(5) . ?
Zr06 O00O 2.183(3) . ?
Zr06 O00Q 2.164(4) . ?
Zr06 O00R 2.078(5) . ?
Zr06 O00Z 2.153(6) . ?
Zr06 O010 2.082(5) . ?
Zr06 O014 2.227(5) . ?
Zr06 O016 2.161(6) . ?
Zr06 O019 2.285(8) 7_545 ?
O007 C024 1.342(7) . ?
O008 C01B 1.270(8) . ?
O009 C13 1.231(8) . ?
O00A C13 1.359(9) . ?
O00B C02B 1.230(7) . ?
O00C C01C 1.271(7) . ?
O00D C01B 1.249(8) . ?
O00E C02S 1.258(6) . ?
O00F C024 1.156(7) . ?
O00G C01C 1.277(8) . ?
O00H C787 1.279(11) . ?
O00I C02J 1.274(9) . ?
O00K C02S 1.311(7) . ?
O00L C02T 1.371(4) . ?
O00N C03S 1.418(11) . ?
O00P C02B 1.286(7) . ?
O00Q C02J 1.338(9) . ?
O00S C03J 1.336(8) . ?
O00T C02D 1.445(4) . ?
O00U C01L 1.408(5) . ?
O00V C03J 1.253(7) . ?
O00Y C02P 1.417(5) . ?
O011 C850 1.163(7) . ?
C012 C02O 1.3900 . ?
C012 C01W 1.3900 . ?
C012 C01U 1.535(3) . ?
C02O H02O 0.9300 . ?
C02O C022 1.3900 . ?
C022 C02D 1.3900 . ?
C022 C01I 1.521(4) . ?
C02D C01Y 1.3900 . ?
C01Y C01W 1.3900 . ?
C01Y C01Q 1.562(5) . ?
C01W C039 1.506(6) 4_566 ?
O013 C042 1.231(12) . ?
O014 C03S 1.257(10) . ?
C018 C02Z 1.3900 . ?
C018 C037 1.3900 . ?
C018 C01B 1.444(6) . ?
C02Z H02Z 0.9300 . ?
C02Z C02U 1.3900 . ?
C02U H02U 0.9300 . ?
C02U C01E 1.3900 . ?
C01E C028 1.3900 . ?
C01E C027 1.552(3) . ?
C028 H028 0.9300 . ?
C028 C037 1.3900 . ?
C037 H037 0.9300 . ?
O019 C042 1.336(11) . ?
C01A C01L 1.3900 . ?
C01A C02H 1.3900 . ?
C01A C01F 1.533(7) . ?
C01L C01T 1.3900 . ?
C01T C02Q 1.3900 . ?
C01T C031 1.521(5) . ?
C02Q H02Q 0.9300 . ?
C02Q C03B 1.3900 . ?
C03B C02H 1.3900 . ?
C03B C03P 1.539(4) . ?
C02H C03F 1.520(9) . ?
C01C C01H 1.528(8) . ?
C01D C01V 1.3900 . ?
C01D C03E 1.3900 . ?
C01D C01S 1.529(3) . ?
C01V C01G 1.3900 . ?
C01V C01O 1.473(6) . ?
C01G C02T 1.3900 . ?
C01G C01F 1.514(6) . ?
C02T C027 1.3900 . ?
C027 C03E 1.3900 . ?
C03E H03E 0.9300 . ?
C01F C023 1.570(9) . ?
C01F C02L 1.558(10) . ?
C01H C02A 1.3900 . ?
C01H C03D 1.3900 . ?
C02A H02A 0.9300 . ?
C02A C033 1.3900 . ?
C033 H033 0.9300 . ?
C033 C031 1.3900 . ?
C031 C03I 1.3900 . ?
C03I H03I 0.9300 . ?
C03I C03D 1.3900 . ?
C03D H03D 0.9300 . ?
C01I C02N 1.3900 . ?
C01I C01R 1.3900 . ?
C02N H02N 0.9300 . ?
C02N C036 1.3900 . ?
C036 H036 0.9300 . ?
C036 C020 1.3900 . ?
C020 C01P 1.3900 . ?
C020 C13 1.410(7) . ?
C01P H01P 0.9300 . ?
C01P C01R 1.3900 . ?
C01R H01R 0.9300 . ?
C01J C01X 1.3900 . ?
C01J C02W 1.3900 . ?
C01J C024 1.465(6) . ?
C01X H01X 0.9300 . ?
C01X C02C 1.3900 . ?
C02C H02C 0.9300 . ?
C02C C02E 1.3900 . ?
C02E C02Y 1.3900 . ?
C02E C032 1.510(4) . ?
C02Y H02Y 0.9300 . ?
C02Y C02W 1.3900 . ?
C02W H02W 0.9300 . ?
C01K H01K 0.9300 . ?
C01K C01S 1.3900 . ?
C01K C025 1.3900 . ?
C01S C02V 1.3900 . ?
C02V H02V 0.9300 . ?
C02V C03O 1.3900 . ?
C03O H03O 0.9300 . ?
C03O C01N 1.3900 . ?
C01N C025 1.3900 . ?
C01N C02B 1.496(6) . ?
C025 H025 0.9300 . ?
C01M H01M 0.9300 . ?
C01M C029 1.3900 . ?
C01M C026 1.3900 . ?
C029 C030 1.3900 . ?
C029 C02S 1.480(6) . ?
C030 H030 0.9300 . ?
C030 C02K 1.3900 . ?
C02K H02K 0.9300 . ?
C02K C01U 1.3900 . ?
C01U C026 1.3900 . ?
C026 H026 0.9300 . ?
C01O H01A 0.9700 . ?
C01O H01B 0.9700 . ?
C01O C023 1.574(9) . ?
C01Q C02I 1.570(7) . ?
C01Q C02I 1.570(7) 4_566 ?
C01Z C03A 1.3900 . ?
C01Z C02R 1.3900 . ?
C01Z C02J 1.433(7) . ?
C03A H03A 0.9300 . ?
C03A C03H 1.3900 . ?
C03H H03H 0.9300 . ?
C03H C035 1.3900 . ?
C035 C038 1.3900 . ?
C035 C02G 1.528(4) . ?
C038 H038 0.9300 . ?
C038 C02R 1.3900 . ?
C02R H02R 0.9300 . ?
C023 H02B 0.9700 . ?
C023 H02D 0.9700 . ?
C02G C03C 1.3900 . ?
C02G C034 1.3900 . ?
C03C C02X 1.3900 . ?
C03C C03N 1.554(7) 3 ?
C02X C02P 1.3900 . ?
C02X C03G 1.549(6) . ?
C02P C032 1.3900 . ?
C032 C034 1.3900 . ?
C034 H034 0.9300 . ?
C02I H02E 0.9700 . ?
C02I H02F 0.9700 . ?
C02I C039 1.513(10) . ?
C02L H02G 0.9700 . ?
C02L H02H 0.9700 . ?
C02L C03F 1.552(9) . ?
C02M H02I 0.9700 . ?
C02M H02J 0.9700 . ?
C02M C03G 1.530(8) . ?
C02M C03N 1.673(10) . ?
C039 H03B 0.9700 . ?
C039 H03C 0.9700 . ?
C03F H03F 0.9700 . ?
C03F H03G 0.9700 . ?
C03J C03Y 1.504(6) . ?
C03L H03L 0.9300 . ?
C03L C03U 1.3900 . ?
C03L C04E 1.3900 . ?
C03U C03M 1.3900 . ?
C03U C03S 1.476(9) . ?
C03M H03M 0.9300 . ?
C03M C043 1.3900 . ?
C043 H043 0.9300 . ?
C043 C048 1.3900 . ?
C048 C04E 1.3900 . ?
C048 C049 1.554(5) . ?
C04E H04E 0.9300 . ?
C03N H03J 0.9700 . ?
C03N H03K 0.9700 . ?
C03P C196 1.3900 . ?
C03P C101 1.3900 . ?
C196 H196 0.9300 . ?
C196 C04J 1.3900 . ?
C04J H04J 0.9300 . ?
C04J C03X 1.3900 . ?
C03X C45 1.3900 . ?
C03X C787 1.531(10) . ?
C45 H45 0.9300 . ?
C45 C101 1.3900 . ?
C101 H101 0.9300 . ?
C03R H03R 0.9300 . ?
C03R C041 1.3900 . ?
C03R C03Y 1.3900 . ?
C041 H041 0.9300 . ?
C041 C040 1.3900 . ?
C040 C044 1.3900 . ?
C040 C111 1.487(6) . ?
C044 H044 0.9300 . ?
C044 C046 1.3900 . ?
C046 H046 0.9300 . ?
C046 C03Y 1.3900 . ?
C03W H03W 0.9300 . ?
C03W C111 1.3900 . ?
C03W C049 1.3900 . ?
C111 C122 1.3900 . ?
C122 C04O 1.3900 . ?
C122 C229 1.553(11) . ?
C04O C35 1.3900 . ?
C04O C04C 1.466(11) . ?
C35 C049 1.3900 . ?
C35 O36 1.317(13) . ?
C042 C248 1.544(8) . ?
C04C C215 1.640(15) . ?
C04C C405 1.590(12) . ?
C04C C280 1.646(14) . ?
C04N H04N 0.9300 . ?
C04N C248 1.3900 . ?
C04N C104 1.3900 . ?
C248 C583 1.3900 . ?
C583 H583 0.9300 . ?
C583 C615 1.3900 . ?
C615 H615 0.9300 . ?
C615 C539 1.3900 . ?
C539 C104 1.3900 . ?
C539 C809 1.549(7) . ?
C104 H104 0.9300 . ?
C215 H21A 0.9700 . ?
C215 H21B 0.9700 . ?
C215 C409 1.514(14) . ?
O271 C787 1.412(10) . ?
C409 H40A 0.9700 . ?
C409 H40B 0.9700 . ?
C409 C922 1.547(15) . ?
C229 H22A 0.9700 . ?
C229 H22B 0.9700 . ?
C229 C280 1.567(13) . ?
C405 C922 1.3900 . ?
C405 C900 1.3900 . ?
C922 C809 1.3900 . ?
C809 C71 1.3900 . ?
C71 H71 0.9300 . ?
C71 C546 1.3900 . ?
C546 C900 1.3900 . ?
C546 C662 1.349(8) . ?
C900 O447 1.321(13) . ?
C567 H567 0.9300 . ?
C567 C479 1.3900 . ?
C567 C662 1.3900 . ?
C479 H479 0.9300 . ?
C479 C232 1.3900 . ?
C232 C777 1.3900 . ?
C232 C850 1.458(12) . ?
C777 H777 0.9300 . ?
C777 C656 1.3900 . ?
C656 H656 0.9300 . ?
C656 C662 1.3900 . ?
C850 O325 1.231(7) . ?
C280 H28A 0.9700 . ?
C280 H28B 0.9700 . ?
loop_
_geom_torsion_atom_site_label_1
_geom_torsion_atom_site_label_2
_geom_torsion_atom_site_label_3
_geom_torsion_atom_site_label_4
_geom_torsion
_geom_torsion_site_symmetry_1
_geom_torsion_site_symmetry_2
_geom_torsion_site_symmetry_3
_geom_torsion_site_symmetry_4
_geom_torsion_publ_flag
Zr01 O00A C13 O009 13.5(9) . . . . ?
Zr01 O00A C13 C020 -163.9(3) . . . . ?
Zr01 O00B C02B O00P -8.5(11) 1_455 . . . ?
Zr01 O00B C02B C01N 179.9(4) 1_455 . . . ?
Zr01 O00F C024 O007 -6.0(15) 5_455 . . . ?
Zr01 O00F C024 C01J -176.5(5) 5_455 . . . ?
Zr01 O011 C850 C232 136.7(6) 5_455 . . . ?
Zr01 O011 C850 O325 -39.8(18) 5_455 . . . ?
Zr02 O00G C01C O00C 5.3(10) 8_466 . . . ?
Zr02 O00G C01C C01H -162.1(3) 8_466 . . . ?
Zr02 O00K C02S O00E -0.6(11) 5_545 . . . ?
Zr02 O00K C02S C029 -172.1(4) 5_545 . . . ?
Zr02 O00N C03S O014 -6.0(13) . . . . ?
Zr02 O00N C03S C03U 173.2(5) . . . . ?
Zr02 O00P C02B O00B 10.4(10) 1_455 . . . ?
Zr02 O00P C02B C01N -178.0(4) 1_455 . . . ?
Zr03 O009 C13 O00A -9.1(10) . . . . ?
Zr03 O009 C13 C020 168.1(4) . . . . ?
Zr03 O00C C01C O00G 1.9(10) 8_466 . . . ?
Zr03 O00C C01C C01H 169.2(4) 8_466 . . . ?
Zr03 O00D C01B O008 -2.0(11) 5_455 . . . ?
Zr03 O00D C01B C018 175.3(4) 5_455 . . . ?
Zr04 O00E C02S O00K 2.5(12) 5_545 . . . ?
Zr04 O00E C02S C029 173.5(4) 5_545 . . . ?
Zr04 O00H C787 C03X -126.2(9) . . . . ?
Zr04 O00H C787 O271 32(2) . . . . ?
Zr04 O00I C02J O00Q -20.8(10) . . . . ?
Zr04 O00I C02J C01Z 169.1(4) . . . . ?
Zr04 O00S C03J O00V 3.1(15) 5 . . . ?
Zr04 O00S C03J C03Y 169.9(5) 5 . . . ?
Zr05 O007 C024 O00F 4.4(14) 5_455 . . . ?
Zr05 O007 C024 C01J 176.1(4) 5_455 . . . ?
Zr05 O008 C01B O00D 8.8(11) 5_455 . . . ?
Zr05 O008 C01B C018 -168.8(4) 5_455 . . . ?
Zr05 O00V C03J O00S -10.0(15) 5 . . . ?
Zr05 O00V C03J C03Y -176.3(6) 5 . . . ?
Zr05 O013 C042 O019 6.6(14) 7 . . . ?
Zr05 O013 C042 C248 -173.3(3) 7 . . . ?
Zr06 O00Q C02J O00I 15.8(10) . . . . ?
Zr06 O00Q C02J C01Z -175.0(4) . . . . ?
Zr06 O014 C03S O00N 2.4(15) . . . . ?
Zr06 O014 C03S C03U -176.7(6) . . . . ?
Zr06 O019 C042 O013 -4.9(14) 7 . . . ?
Zr06 O019 C042 C248 174.9(3) 7 . . . ?
O00C C01C C01H C02A 178.1(4) . . . . ?
O00C C01C C01H C03D 2.3(7) . . . . ?
O00G C01C C01H C02A -13.7(7) . . . . ?
O00G C01C C01H C03D 170.5(4) . . . . ?
O00L C02T C027 C01E 7.8(5) . . . . ?
O00L C02T C027 C03E -179.6(5) . . . . ?
O00S C03J C03Y C03R 9.6(11) . . . . ?
O00S C03J C03Y C046 179.6(6) . . . . ?
O00T C02D C01Y C01W 175.7(4) . . . . ?
O00T C02D C01Y C01Q -7.4(5) . . . . ?
O00U C01L C01T C02Q 174.1(5) . . . . ?
O00U C01L C01T C031 2.7(5) . . . . ?
O00V C03J C03Y C03R 177.4(7) . . . . ?
O00V C03J C03Y C046 -12.6(11) . . . . ?
O00Y C02P C032 C02E -9.6(5) . . . . ?
O00Y C02P C032 C034 178.3(5) . . . . ?
C012 C02O C022 C02D 0.0 . . . . ?
C012 C02O C022 C01I 175.8(4) . . . . ?
C012 C01U C026 C01M -176.0(4) . . . . ?
C02O C012 C01W C01Y 0.0 . . . . ?
C02O C012 C01W C039 -174.5(5) . . . 4_566 ?
C02O C012 C01U C02K 136.7(3) . . . . ?
C02O C012 C01U C026 -47.3(4) . . . . ?
C02O C022 C02D O00T -175.7(4) . . . . ?
C02O C022 C02D C01Y 0.0 . . . . ?
C02O C022 C01I C02N -47.1(4) . . . . ?
C02O C022 C01I C01R 131.2(3) . . . . ?
C022 C02D C01Y C01W 0.0 . . . . ?
C022 C02D C01Y C01Q 176.9(5) . . . . ?
C022 C01I C02N C036 178.3(4) . . . . ?
C022 C01I C01R C01P -178.3(4) . . . . ?
C02D C022 C01I C02N 128.7(3) . . . . ?
C02D C022 C01I C01R -53.0(4) . . . . ?
C02D C01Y C01W C012 0.0 . . . . ?
C02D C01Y C01W C039 175.5(4) . . . 4_566 ?
C02D C01Y C01Q C01Y 45.3(4) . . . 4_566 ?
C02D C01Y C01Q C02I 164.9(4) . . . 4_566 ?
C02D C01Y C01Q C02I -70.0(6) . . . . ?
C01Y C01Q C02I C039 30.2(7) 4_566 . . . ?
C01Y C01Q C02I C039 153.5(5) . . . . ?
C01W C012 C02O C022 0.0 . . . . ?
C01W C012 C01U C02K -40.3(5) . . . . ?
C01W C012 C01U C026 135.7(3) . . . . ?
C01W C01Y C01Q C01Y -137.6(5) . . . 4_566 ?
C01W C01Y C01Q C02I -18.0(5) . . . 4_566 ?
C01W C01Y C01Q C02I 107.2(4) . . . . ?
O013 C042 C248 C04N -0.4(5) . . . . ?
O013 C042 C248 C583 179.9(3) . . . . ?
C018 C02Z C02U C01E 0.0 . . . . ?
C02Z C018 C037 C028 0.0 . . . . ?
C02Z C018 C01B O008 175.4(4) . . . . ?
C02Z C018 C01B O00D -2.1(8) . . . . ?
C02Z C02U C01E C028 0.0 . . . . ?
C02Z C02U C01E C027 -177.6(4) . . . . ?
C02U C01E C028 C037 0.0 . . . . ?
C02U C01E C027 C02T -58.1(5) . . . . ?
C02U C01E C027 C03E 129.1(3) . . . . ?
C01E C028 C037 C018 0.0 . . . . ?
C01E C027 C03E C01D 172.8(5) . . . . ?
C028 C01E C027 C02T 124.3(3) . . . . ?
C028 C01E C027 C03E -48.5(5) . . . . ?
C037 C018 C02Z C02U 0.0 . . . . ?
C037 C018 C01B O008 -2.9(8) . . . . ?
C037 C018 C01B O00D 179.5(5) . . . . ?
O019 C042 C248 C04N 179.6(3) . . . . ?
O019 C042 C248 C583 0.0(5) . . . . ?
C01A C01L C01T C02Q 0.0 . . . . ?
C01A C01L C01T C031 -171.5(5) . . . . ?
C01A C02H C03F C02L 21.5(6) . . . . ?
C01A C01F C023 C01O 155.8(5) . . . . ?
C01A C01F C02L C03F 33.1(6) . . . . ?
C01L C01A C02H C03B 0.0 . . . . ?
C01L C01A C02H C03F 175.5(5) . . . . ?
C01L C01A C01F C01G 44.7(8) . . . . ?
C01L C01A C01F C023 -73.2(6) . . . . ?
C01L C01A C01F C02L 163.5(4) . . . . ?
C01L C01T C02Q C03B 0.0 . . . . ?
C01L C01T C031 C033 124.7(3) . . . . ?
C01L C01T C031 C03I -55.6(5) . . . . ?
C01T C02Q C03B C02H 0.0 . . . . ?
C01T C02Q C03B C03P -179.0(5) . . . . ?
C01T C031 C03I C03D -179.7(4) . . . . ?
C02Q C01T C031 C033 -47.1(4) . . . . ?
C02Q C01T C031 C03I 132.6(3) . . . . ?
C02Q C03B C02H C01A 0.0 . . . . ?
C02Q C03B C02H C03F -174.1(7) . . . . ?
C02Q C03B C03P C196 124.4(5) . . . . ?
C02Q C03B C03P C101 -58.8(6) . . . . ?
C03B C02H C03F C02L -163.9(4) . . . . ?
C03B C03P C196 C04J 176.7(7) . . . . ?
C03B C03P C101 C45 -176.9(7) . . . . ?
C02H C01A C01L O00U -174.1(5) . . . . ?
C02H C01A C01L C01T 0.0 . . . . ?
C02H C01A C01F C01G -141.2(5) . . . . ?
C02H C01A C01F C023 101.0(5) . . . . ?
C02H C01A C01F C02L -22.3(5) . . . . ?
C02H C03B C03P C196 -54.7(6) . . . . ?
C02H C03B C03P C101 122.1(4) . . . . ?
C01B C018 C02Z C02U -178.3(5) . . . . ?
C01B C018 C037 C028 178.3(5) . . . . ?
C01C C01H C02A C033 -175.9(5) . . . . ?
C01C C01H C03D C03I 175.8(5) . . . . ?
C01D C01V C01G C02T 0.0 . . . . ?
C01D C01V C01G C01F -178.4(5) . . . . ?
C01D C01V C01O C023 -161.7(5) . . . . ?
C01D C01S C02V C03O -179.9(4) . . . . ?
C01V C01D C03E C027 0.0 . . . . ?
C01V C01D C01S C01K -41.4(5) . . . . ?
C01V C01D C01S C02V 138.5(3) . . . . ?
C01V C01G C02T O00L 179.6(5) . . . . ?
C01V C01G C02T C027 0.0 . . . . ?
C01V C01G C01F C01A -141.7(5) . . . . ?
C01V C01G C01F C023 -20.2(7) . . . . ?
C01V C01G C01F C02L 103.2(5) . . . . ?
C01V C01O C023 C01F -30.0(7) . . . . ?
C01G C01V C01O C023 19.2(7) . . . . ?
C01G C02T C027 C01E -172.6(5) . . . . ?
C01G C02T C027 C03E 0.0 . . . . ?
C01G C01F C023 C01O 29.4(7) . . . . ?
C01G C01F C02L C03F 157.9(5) . . . . ?
C02T C01G C01F C01A 40.0(8) . . . . ?
C02T C01G C01F C023 161.6(5) . . . . ?
C02T C01G C01F C02L -75.1(6) . . . . ?
C02T C027 C03E C01D 0.0 . . . . ?
C027 C01E C028 C037 177.6(4) . . . . ?
C03E C01D C01V C01G 0.0 . . . . ?
C03E C01D C01V C01O -179.0(7) . . . . ?
C03E C01D C01S C01K 139.4(3) . . . . ?
C03E C01D C01S C02V -40.7(5) . . . . ?
C01F C01A C01L O00U -0.4(6) . . . . ?
C01F C01A C01L C01T 173.8(5) . . . . ?
C01F C01A C02H C03B -174.7(5) . . . . ?
C01F C01A C02H C03F 0.8(5) . . . . ?
C01F C01G C02T O00L -2.3(7) . . . . ?
C01F C01G C02T C027 178.1(6) . . . . ?
C01F C02L C03F C02H -34.1(7) . . . . ?
C01H C02A C033 C031 0.0 . . . . ?
C02A C01H C03D C03I 0.0 . . . . ?
C02A C033 C031 C01T 179.7(4) . . . . ?
C02A C033 C031 C03I 0.0 . . . . ?
C033 C031 C03I C03D 0.0 . . . . ?
C031 C01T C02Q C03B 172.1(4) . . . . ?
C031 C03I C03D C01H 0.0 . . . . ?
C03D C01H C02A C033 0.0 . . . . ?
C01I C022 C02D O00T 8.5(5) . . . . ?
C01I C022 C02D C01Y -175.8(4) . . . . ?
C01I C02N C036 C020 0.0 . . . . ?
C02N C01I C01R C01P 0.0 . . . . ?
C02N C036 C020 C01P 0.0 . . . . ?
C02N C036 C020 C13 -179.6(5) . . . . ?
C036 C020 C01P C01R 0.0 . . . . ?
C036 C020 C13 O009 172.1(5) . . . . ?
C036 C020 C13 O00A -10.5(7) . . . . ?
C020 C01P C01R C01I 0.0 . . . . ?
C01P C020 C13 O009 -7.5(8) . . . . ?
C01P C020 C13 O00A 169.9(4) . . . . ?
C01R C01I C02N C036 0.0 . . . . ?
C01J C01X C02C C02E 0.0 . . . . ?
C01X C01J C02W C02Y 0.0 . . . . ?
C01X C01J C024 O007 -3.9(10) . . . . ?
C01X C01J C024 O00F 167.6(7) . . . . ?
C01X C02C C02E C02Y 0.0 . . . . ?
C01X C02C C02E C032 178.1(5) . . . . ?
C02C C02E C02Y C02W 0.0 . . . . ?
C02C C02E C032 C02P 53.4(5) . . . . ?
C02C C02E C032 C034 -134.2(3) . . . . ?
C02E C02Y C02W C01J 0.0 . . . . ?
C02E C032 C034 C02G -172.6(5) . . . . ?
C02Y C02E C032 C02P -128.5(4) . . . . ?
C02Y C02E C032 C034 43.9(5) . . . . ?
C02W C01J C01X C02C 0.0 . . . . ?
C02W C01J C024 O007 174.7(5) . . . . ?
C02W C01J C024 O00F -13.8(11) . . . . ?
C01K C01S C02V C03O 0.0 . . . . ?
C01S C01D C01V C01G -179.2(5) . . . . ?
C01S C01D C01V C01O 1.8(7) . . . . ?
C01S C01D C03E C027 179.2(5) . . . . ?
C01S C01K C025 C01N 0.0 . . . . ?
C01S C02V C03O C01N 0.0 . . . . ?
C02V C03O C01N C025 0.0 . . . . ?
C02V C03O C01N C02B 177.3(5) . . . . ?
C03O C01N C025 C01K 0.0 . . . . ?
C03O C01N C02B O00B -179.5(5) . . . . ?
C03O C01N C02B O00P 8.5(8) . . . . ?
C025 C01K C01S C01D 179.9(5) . . . . ?
C025 C01K C01S C02V 0.0 . . . . ?
C025 C01N C02B O00B -2.2(8) . . . . ?
C025 C01N C02B O00P -174.3(5) . . . . ?
C01M C029 C030 C02K 0.0 . . . . ?
C01M C029 C02S O00E 8.7(8) . . . . ?
C01M C029 C02S O00K -179.2(5) . . . . ?
C029 C01M C026 C01U 0.0 . . . . ?
C029 C030 C02K C01U 0.0 . . . . ?
C030 C029 C02S O00E -174.5(5) . . . . ?
C030 C029 C02S O00K -2.3(8) . . . . ?
C030 C02K C01U C012 175.9(4) . . . . ?
C030 C02K C01U C026 0.0 . . . . ?
C02K C01U C026 C01M 0.0 . . . . ?
C01U C012 C02O C022 -177.1(4) . . . . ?
C01U C012 C01W C01Y 176.9(4) . . . . ?
C01U C012 C01W C039 2.4(6) . . . 4_566 ?
C026 C01M C029 C030 0.0 . . . . ?
C026 C01M C029 C02S 176.9(5) . . . . ?
C01O C01V C01G C02T 179.2(5) . . . . ?
C01O C01V C01G C01F 0.7(6) . . . . ?
C01Q C01Y C01W C012 -177.5(4) . . . . ?
C01Q C01Y C01W C039 -2.0(4) . . . 4_566 ?
C01Q C02I C039 C01W -32.2(8) . . . 4_566 ?
C01Z C03A C03H C035 0.0 . . . . ?
C03A C01Z C02R C038 0.0 . . . . ?
C03A C01Z C02J O00I -173.7(5) . . . . ?
C03A C01Z C02J O00Q 16.2(8) . . . . ?
C03A C03H C035 C038 0.0 . . . . ?
C03A C03H C035 C02G -176.7(5) . . . . ?
C03H C035 C038 C02R 0.0 . . . . ?
C03H C035 C02G C03C 48.6(5) . . . . ?
C03H C035 C02G C034 -135.9(3) . . . . ?
C035 C038 C02R C01Z 0.0 . . . . ?
C035 C02G C03C C02X 175.3(5) . . . . ?
C035 C02G C03C C03N 2.6(7) . . . 3 ?
C035 C02G C034 C032 -175.6(5) . . . . ?
C038 C035 C02G C03C -128.0(4) . . . . ?
C038 C035 C02G C034 47.4(5) . . . . ?
C02R C01Z C03A C03H 0.0 . . . . ?
C02R C01Z C02J O00I 2.6(8) . . . . ?
C02R C01Z C02J O00Q -167.4(5) . . . . ?
C023 C01F C02L C03F -86.5(7) . . . . ?
C024 C01J C01X C02C 178.5(7) . . . . ?
C024 C01J C02W C02Y -178.7(6) . . . . ?
C02B C01N C025 C01K -177.3(5) . . . . ?
C02G C035 C038 C02R 176.7(5) . . . . ?
C02G C03C C02X C02P 0.0 . . . . ?
C02G C03C C02X C03G -169.3(4) . . . . ?
C03C C02G C034 C032 0.0 . . . . ?
C03C C02X C02P O00Y -178.3(5) . . . . ?
C03C C02X C02P C032 0.0 . . . . ?
C03C C02X C03G C02X -143.7(6) . . . 3 ?
C03C C02X C03G C02M -22.1(6) . . . 3 ?
C03C C02X C03G C02M 101.6(5) . . . . ?
C02X C02P C032 C02E 172.2(5) . . . . ?
C02X C02P C032 C034 0.0 . . . . ?
C02P C02X C03G C02X 47.9(4) . . . 3 ?
C02P C02X C03G C02M -66.9(7) . . . . ?
C02P C02X C03G C02M 169.5(4) . . . 3 ?
C02P C032 C034 C02G 0.0 . . . . ?
C032 C02E C02Y C02W -178.1(5) . . . . ?
C034 C02G C03C C02X 0.0 . . . . ?
C034 C02G C03C C03N -172.7(6) . . . 3 ?
C02I C01Q C02I C039 -90.2(5) 4_566 . . . ?
C02J C01Z C03A C03H 176.5(5) . . . . ?
C02J C01Z C02R C038 -176.3(6) . . . . ?
C02L C01F C023 C01O -89.3(7) . . . . ?
C02S C029 C030 C02K -176.8(5) . . . . ?
C03G C02X C02P O00Y -10.6(6) . . . . ?
C03G C02X C02P C032 167.7(5) . . . . ?
C03G C02M C03N C03C -26.7(9) . . . 3 ?
C03L C03U C03M C043 0.0 . . . . ?
C03L C03U C03S O00N 1.9(10) . . . . ?
C03L C03U C03S O014 -178.9(7) . . . . ?
C03U C03L C04E C048 0.0 . . . . ?
C03U C03M C043 C048 0.0 . . . . ?
C03M C03U C03S O00N -174.7(6) . . . . ?
C03M C03U C03S O014 4.5(12) . . . . ?
C03M C043 C048 C04E 0.0 . . . . ?
C03M C043 C048 C049 177.2(8) . . . . ?
C043 C048 C04E C03L 0.0 . . . . ?
C043 C048 C049 C03W -136.4(5) . . . . ?
C043 C048 C049 C35 40.5(9) . . . . ?
C04E C03L C03U C03M 0.0 . . . . ?
C04E C03L C03U C03S -176.5(8) . . . . ?
C04E C048 C049 C03W 40.9(8) . . . . ?
C04E C048 C049 C35 -142.2(6) . . . . ?
C03N C03C C02X C02P 173.8(5) 3 . . . ?
C03N C03C C02X C03G 4.5(5) 3 . . . ?
C03N C02M C03G C02X 150.4(5) . . . . ?
C03N C02M C03G C02X 29.2(8) . . . 3 ?
C03N C02M C03G C02M -93.5(5) . . . 3 ?
C03P C03B C02H C01A 179.1(5) . . . . ?
C03P C03B C02H C03F 5.0(7) . . . . ?
C03P C196 C04J C03X 0.0 . . . . ?
C196 C03P C101 C45 0.0 . . . . ?
C196 C04J C03X C45 0.0 . . . . ?
C196 C04J C03X C787 176.2(10) . . . . ?
C04J C03X C45 C101 0.0 . . . . ?
C04J C03X C787 O00H 150.3(10) . . . . ?
C04J C03X C787 O271 -7.3(17) . . . . ?
C03X C45 C101 C03P 0.0 . . . . ?
C45 C03X C787 O00H -33.5(16) . . . . ?
C45 C03X C787 O271 168.9(10) . . . . ?
C101 C03P C196 C04J 0.0 . . . . ?
C03R C041 C040 C044 0.0 . . . . ?
C03R C041 C040 C111 172.2(8) . . . . ?
C041 C03R C03Y C03J 169.6(9) . . . . ?
C041 C03R C03Y C046 0.0 . . . . ?
C041 C040 C044 C046 0.0 . . . . ?
C041 C040 C111 C03W -130.2(6) . . . . ?
C041 C040 C111 C122 62.1(8) . . . . ?
C040 C044 C046 C03Y 0.0 . . . . ?
C040 C111 C122 C04O 167.6(8) . . . . ?
C040 C111 C122 C229 -18.8(14) . . . . ?
C044 C040 C111 C03W 41.8(10) . . . . ?
C044 C040 C111 C122 -125.9(6) . . . . ?
C044 C046 C03Y C03J -170.3(8) . . . . ?
C044 C046 C03Y C03R 0.0 . . . . ?
C03Y C03R C041 C040 0.0 . . . . ?
C03S C03U C03M C043 176.7(8) . . . . ?
C03W C111 C122 C04O 0.0 . . . . ?
C03W C111 C122 C229 173.6(14) . . . . ?
C111 C040 C044 C046 -171.7(9) . . . . ?
C111 C03W C049 C048 176.9(9) . . . . ?
C111 C03W C049 C35 0.0 . . . . ?
C111 C122 C04O C35 0.0 . . . . ?
C111 C122 C04O C04C -179.7(11) . . . . ?
C111 C122 C229 C280 -167.2(12) . . . . ?
C122 C04O C35 C049 0.0 . . . . ?
C122 C04O C35 O36 -179.7(3) . . . . ?
C122 C04O C04C C215 109.4(9) . . . . ?
C122 C04O C04C C405 -128(2) . . . . ?
C122 C04O C04C C280 -13.6(15) . . . . ?
C122 C229 C280 C04C -15(2) . . . . ?
C04O C122 C229 C280 7.1(15) . . . . ?
C04O C35 C049 C048 -176.9(9) . . . . ?
C04O C35 C049 C03W 0.0 . . . . ?
C04O C04C C215 C409 -165.9(13) . . . . ?
C04O C04C C405 C922 -138(2) . . . . ?
C04O C04C C405 C900 31(3) . . . . ?
C04O C04C C280 C229 16.5(19) . . . . ?
C35 C04O C04C C215 -70.3(12) . . . . ?
C35 C04O C04C C405 52(3) . . . . ?
C35 C04O C04C C280 166.7(10) . . . . ?
C049 C048 C04E C03L -177.4(8) . . . . ?
C049 C03W C111 C040 -167.7(8) . . . . ?
C049 C03W C111 C122 0.0 . . . . ?
C042 C248 C583 C615 179.6(2) . . . . ?
C04C C04O C35 C049 179.7(10) . . . . ?
C04C C04O C35 O36 0.0(11) . . . . ?
C04C C215 C409 C922 -37.1(15) . . . . ?
C04C C405 C922 C409 -6.6(11) . . . . ?
C04C C405 C922 C809 172.5(8) . . . . ?
C04C C405 C900 C546 -167.6(13) . . . . ?
C04C C405 C900 O447 -14.9(14) . . . . ?
C04N C248 C583 C615 0.0 . . . . ?
C248 C04N C104 C539 0.0 . . . . ?
C248 C583 C615 C539 0.0 . . . . ?
C583 C615 C539 C104 0.0 . . . . ?
C583 C615 C539 C809 180.0 . . . . ?
C615 C539 C104 C04N 0.0 . . . . ?
C615 C539 C809 C922 -109.3(10) . . . . ?
C615 C539 C809 C71 56.7(3) . . . . ?
C539 C809 C71 C546 -171.0(6) . . . . ?
C104 C04N C248 C042 -179.6(2) . . . . ?
C104 C04N C248 C583 0.0 . . . . ?
C104 C539 C809 C922 70.7(10) . . . . ?
C104 C539 C809 C71 -123.3(3) . . . . ?
C13 C020 C01P C01R 179.6(5) . . . . ?
O36 C35 C049 C048 2.8(9) . . . . ?
O36 C35 C049 C03W 179.7(3) . . . . ?
C215 C04C C405 C922 -19.4(11) . . . . ?
C215 C04C C405 C900 149.9(11) . . . . ?
C215 C04C C280 C229 -77.9(19) . . . . ?
C215 C409 C922 C405 30.8(16) . . . . ?
C215 C409 C922 C809 -148.4(11) . . . . ?
C409 C922 C809 C539 -17.1(14) . . . . ?
C409 C922 C809 C71 179.2(10) . . . . ?
C229 C122 C04O C35 -175.2(10) . . . . ?
C229 C122 C04O C04C 5.1(12) . . . . ?
C405 C04C C215 C409 39.4(16) . . . . ?
C405 C04C C280 C229 169.9(15) . . . . ?
C405 C922 C809 C539 163.7(12) . . . . ?
C405 C922 C809 C71 0.0 . . . . ?
C922 C405 C900 C546 0.0 . . . . ?
C922 C405 C900 O447 152.7(13) . . . . ?
C922 C809 C71 C546 0.0 . . . . ?
C809 C539 C104 C04N -180.0 . . . . ?
C809 C71 C546 C900 0.0 . . . . ?
C809 C71 C546 C662 178.6(3) . . . . ?
C71 C546 C900 C405 0.0 . . . . ?
C71 C546 C900 O447 -152.6(14) . . . . ?
C71 C546 C662 C567 -101.6(5) . . . . ?
C71 C546 C662 C656 78.4(5) . . . . ?
C900 C405 C922 C409 -179.1(11) . . . . ?
C900 C405 C922 C809 0.0 . . . . ?
C900 C546 C662 C567 76.8(5) . . . . ?
C900 C546 C662 C656 -103.2(5) . . . . ?
C787 C03X C45 C101 -176.4(9) . . . . ?
C567 C479 C232 C777 0.0 . . . . ?
C567 C479 C232 C850 -179.2(3) . . . . ?
C479 C567 C662 C546 180.0 . . . . ?
C479 C567 C662 C656 0.0 . . . . ?
C479 C232 C777 C656 0.0 . . . . ?
C479 C232 C850 O011 -180.0(4) . . . . ?
C479 C232 C850 O325 -1.7(6) . . . . ?
C232 C777 C656 C662 0.0 . . . . ?
C777 C232 C850 O011 0.8(6) . . . . ?
C777 C232 C850 O325 179.1(4) . . . . ?
C777 C656 C662 C546 180.0 . . . . ?
C777 C656 C662 C567 0.0 . . . . ?
C662 C546 C900 C405 -178.3(3) . . . . ?
C662 C546 C900 O447 29.1(14) . . . . ?
C662 C567 C479 C232 0.0 . . . . ?
C850 C232 C777 C656 179.2(3) . . . . ?
C280 C04C C215 C409 -68.9(16) . . . . ?
C280 C04C C405 C922 107.1(11) . . . . ?
C280 C04C C405 C900 -83.6(15) . . . . ?
loop_
_smtbx_masks_void_nr
_smtbx_masks_void_average_x
_smtbx_masks_void_average_y
_smtbx_masks_void_average_z
_smtbx_masks_void_volume
_smtbx_masks_void_count_electrons
_smtbx_masks_void_content
1 -0.779 -0.791 -0.012 30475.6 10963.0 ?
