#------------------------------------------------------------------------------
#$Date: 2021-11-06 22:10:23 +0200 (Sat, 06 Nov 2021) $
#$Revision: 270452 $
#$URL: file:///home/coder/svn-repositories/cod/cif/1/56/41/1564107.cif $
#------------------------------------------------------------------------------
#
# This file is available in the Crystallography Open Database (COD),
# http://www.crystallography.net/
#
# All data on this site have been placed in the public domain by the
# contributors.
#
data_1564107
loop_
_publ_author_name
'Doheny, Patrick W.'
'Hua, Carol'
'Chan, Bun'
'Tuna, Floriana'
'Collison, David'
'Kepert, Cameron J.'
'D'Alessandro, Deanna M'
_publ_section_title
;
 Substituent effects on through-space intervalence charge transfer in
 cofacial metal-organic frameworks.
;
_journal_issue                   0
_journal_name_full               'Faraday discussions'
_journal_page_first              152
_journal_page_last               167
_journal_paper_doi               10.1039/d1fd00021g
_journal_volume                  231
_journal_year                    2021
_chemical_formula_moiety
'C32 H16 F2 N4 O4 S3 Zn, 1[C3H7NO], 1[C3H7NO]'
_chemical_formula_sum            'C38 H30 F2 N6 O6 S3 Zn'
_chemical_formula_weight         866.23
_chemical_name_systematic        ZnFTzTz
_space_group_crystal_system      orthorhombic
_space_group_IT_number           56
_space_group_name_Hall           '-P 2ab 2ac'
_space_group_name_H-M_alt        'P c c n'
_atom_sites_solution_hydrogens   geom
_atom_sites_solution_primary     dual
_audit_creation_date             2021-02-07
_audit_creation_method
;
Olex2 1.3
(compiled 2020.11.12 svn.r5f609507 for OlexSys, GUI svn.r6226)
;
_audit_update_record
;
2021-02-07 deposited with the CCDC.	2021-04-30 downloaded from the CCDC.
;
_cell_angle_alpha                90
_cell_angle_beta                 90
_cell_angle_gamma                90
_cell_formula_units_Z            8
_cell_length_a                   26.0566(2)
_cell_length_b                   18.5354(2)
_cell_length_c                   15.67380(10)
_cell_measurement_reflns_used    17473
_cell_measurement_temperature    150.01(10)
_cell_measurement_theta_max      73.2960
_cell_measurement_theta_min      2.9040
_cell_volume                     7569.97(11)
_computing_cell_refinement       'CrysAlisPro 1.171.40.84a (Rigaku OD, 2020)'
_computing_data_collection       'CrysAlisPro 1.171.40.84a (Rigaku OD, 2020)'
_computing_data_reduction        'CrysAlisPro 1.171.40.84a (Rigaku OD, 2020)'
_computing_molecular_graphics    'Olex2 1.3 (Dolomanov et al., 2009)'
_computing_publication_material  'Olex2 1.3 (Dolomanov et al., 2009)'
_computing_structure_refinement  'SHELXL 2018/3 (Sheldrick, 2015)'
_computing_structure_solution    'SHELXT 2018/2 (Sheldrick, 2018)'
_diffrn_ambient_environment      N~2~
_diffrn_ambient_temperature      150.01(10)
_diffrn_detector                 'CCD plate'
_diffrn_detector_area_resol_mean 10.5861
_diffrn_detector_type            Atlas
_diffrn_measured_fraction_theta_full 0.999
_diffrn_measured_fraction_theta_max 0.993
_diffrn_measurement_details
;
List of Runs (angles in degrees, time in seconds):

  # Type    Start    End  Width  t~exp~   \w     \q     \k     \f   Frames
#--------------------------------------------------------------------------
  1  \w    -68.00  15.00   1.00    7.50    --  -39.58  57.00-180.00   83
  2  \w    -86.00 -51.00   1.00    7.50    --  -39.58 178.00  90.00   35
  3  \w   -115.00 -16.00   1.00    7.50    --  -39.58 -38.00-120.00   99
  4  \w   -114.00 -10.00   1.00    7.50    --  -39.58 -57.00   0.00  104
  5  \w     85.00 128.00   1.00    7.50    --   39.58-178.00   0.00   43
  6  \w    101.00 130.00   1.00    7.50    --   39.58 178.00 120.00   29
  7  \w    -31.00  19.00   1.00    7.50    --   39.58 -38.00  60.00   50
  8  \w     38.00  64.00   1.00   30.00    --  108.86 -37.00  93.00   26
  9  \w     91.00 174.00   1.00   30.00    --  108.86  45.00-180.00   83
 10  \w     36.00 143.00   1.00   30.00    --  108.86 -77.00  60.00  107
 11  \w     35.00 120.00   1.00   30.00    --  108.86 -30.00   0.00   85
 12  \w     90.00 135.00   1.00   30.00    --  108.86  61.00 -30.00   45
 13  \w     31.00 109.00   1.00   30.00    --  108.86 -95.00-150.00   78
 14  \w     95.00 127.00   1.00   30.00    --  108.86 -37.00  93.00   32
 15  \w     34.00  85.00   1.00   30.00    --  108.86 -45.00-120.00   51
 16  \w     38.00 119.00   1.00   30.00    --  108.86-125.00  60.00   81
 17  \w     94.00 119.00   1.00   30.00    --  108.86-125.00 150.00   25
 18  \w     63.00 175.00   1.00   30.00    --  108.86  15.00 -60.00  112
 19  \w     30.00 140.00   1.00   30.00    --  108.86 -77.00-120.00  110
;
_diffrn_measurement_device       'four-circle diffractometer'
_diffrn_measurement_device_type  'SuperNova, Dual, Cu at home/near, Atlas'
_diffrn_measurement_method       '\w scans'
_diffrn_orient_matrix_type
'CrysAlisPro convention (1999,Acta A55,543-557)'
_diffrn_orient_matrix_UB_11      0.0273573000
_diffrn_orient_matrix_UB_12      -0.0366091000
_diffrn_orient_matrix_UB_13      -0.0756228000
_diffrn_orient_matrix_UB_21      -0.0045009000
_diffrn_orient_matrix_UB_22      0.0702482000
_diffrn_orient_matrix_UB_23      -0.0520102000
_diffrn_orient_matrix_UB_31      0.0521932000
_diffrn_orient_matrix_UB_32      0.0251915000
_diffrn_orient_matrix_UB_33      0.0352446000
_diffrn_radiation_monochromator  mirror
_diffrn_radiation_probe          x-ray
_diffrn_radiation_type           'Cu K\a'
_diffrn_radiation_wavelength     1.54184
_diffrn_reflns_av_R_equivalents  0.0418
_diffrn_reflns_av_unetI/netI     0.0233
_diffrn_reflns_Laue_measured_fraction_full 0.999
_diffrn_reflns_Laue_measured_fraction_max 0.993
_diffrn_reflns_limit_h_max       32
_diffrn_reflns_limit_h_min       -29
_diffrn_reflns_limit_k_max       23
_diffrn_reflns_limit_k_min       -21
_diffrn_reflns_limit_l_max       19
_diffrn_reflns_limit_l_min       -19
_diffrn_reflns_number            53560
_diffrn_reflns_point_group_measured_fraction_full 0.999
_diffrn_reflns_point_group_measured_fraction_max 0.993
_diffrn_reflns_theta_full        67.684
_diffrn_reflns_theta_max         73.991
_diffrn_reflns_theta_min         2.926
_diffrn_source                   'micro-focus sealed X-ray tube'
_diffrn_source_type              'SuperNova (Cu) X-ray Source'
_exptl_absorpt_coefficient_mu    3.011
_exptl_absorpt_correction_T_max  1.000
_exptl_absorpt_correction_T_min  0.786
_exptl_absorpt_correction_type   gaussian
_exptl_absorpt_process_details
;
CrysAlisPro 1.171.40.84a (Rigaku Oxford Diffraction, 2020)
Numerical absorption correction based on gaussian integration over
a multifaceted crystal model
Empirical absorption correction using spherical harmonics,
implemented in SCALE3 ABSPACK scaling algorithm.
;
_exptl_crystal_colour            yellow
_exptl_crystal_colour_primary    yellow
_exptl_crystal_density_diffrn    1.520
_exptl_crystal_description       block
_exptl_crystal_F_000             3552
_exptl_crystal_size_max          0.216
_exptl_crystal_size_mid          0.167
_exptl_crystal_size_min          0.063
_refine_diff_density_max         0.776
_refine_diff_density_min         -1.337
_refine_diff_density_rms         0.162
_refine_ls_extinction_method     none
_refine_ls_goodness_of_fit_ref   1.030
_refine_ls_hydrogen_treatment    constr
_refine_ls_matrix_type           full
_refine_ls_number_parameters     435
_refine_ls_number_reflns         7625
_refine_ls_number_restraints     2
_refine_ls_restrained_S_all      1.030
_refine_ls_R_factor_all          0.0710
_refine_ls_R_factor_gt           0.0653
_refine_ls_shift/su_max          0.001
_refine_ls_shift/su_mean         0.000
_refine_ls_structure_factor_coef Fsqd
_refine_ls_weighting_details
'w=1/[\s^2^(Fo^2^)+(0.1368P)^2^+16.9300P] where P=(Fo^2^+2Fc^2^)/3'
_refine_ls_weighting_scheme      calc
_refine_ls_wR_factor_gt          0.2036
_refine_ls_wR_factor_ref         0.2099
_reflns_Friedel_coverage         0.000
_reflns_number_gt                6635
_reflns_number_total             7625
_reflns_threshold_expression     'I > 2\s(I)'
_cod_data_source_file            d1fd00021g2.cif
_cod_data_source_block           ZnFTzTz_sq
_cod_depositor_comments
'Adding full bibliography for 1564106--1564107.cif.'
_cod_database_code               1564107
_shelx_shelxl_version_number     2018/3
_chemical_oxdiff_formula         'C20 H14 N4 O4 F2 S2 Zn1'
_shelx_space_group_comment
;
The symmetry employed for this shelxl refinement is uniquely defined
by the following loop, which should always be used as a source of
symmetry information in preference to the above space-group names.
They are only intended as comments.
;
_shelx_estimated_absorpt_t_max   0.833
_shelx_estimated_absorpt_t_min   0.562
_reflns_odcompleteness_completeness 99.96
_reflns_odcompleteness_iscentric 1
_reflns_odcompleteness_theta     66.97
_olex2_refinement_description
;
1. Fixed Uiso
 At 1.2 times of:
  All C(H) groups
2. Restrained distances
 F1-C15 \\sim F1A-C13
 with sigma of 0.02
 F2-C24 \\sim F2A-C26
 with sigma of 0.02
3. Others
 Sof(H15)=Sof(F1A)=1-FVAR(1)
 Sof(F1)=Sof(H13)=FVAR(1)
 Sof(H24)=Sof(F2A)=1-FVAR(2)
 Sof(H26)=Sof(F2)=FVAR(2)
4.a Aromatic/amide H refined with riding coordinates:
 C25(H25), C15(H15), C31(H31), C32(H32), C9(H9), C26(H26), C7(H7), C4(H4),
 C16(H16), C3(H3), C10(H10), C8(H8), C24(H24), C23(H23), C29(H29), C13(H13),
 C30(H30), C14(H14)
;
_smtbx_masks_special_details
;
Channels containing disordered and only partially 
resolved dimethylformamide solvate molecules were 
accommodated in the refinement model with the use 
of SQUEEZE; Spek, A.L. (2015). Acta Cryst. C71, 9-19.
;
_smtbx_masks_void_probe_radius   1.2
_smtbx_masks_void_truncation_radius 1.2
_shelx_res_file
;
TITL dmd16ch4b_DavidMnTzTz_a.res in Pccn
    znftztz_sq.res
    created by SHELXL-2018/3 at 18:17:30 on 07-Feb-2021
REM Old TITL dmd16ch4b_DavidMnTzTz in Pccn
REM SHELXT solution in Pccn: R1 0.133, Rweak 0.004, Alpha 0.026
REM <I/s> 0.516 for 730 systematic absences, Orientation as input
REM Formula found by SHELXT: C40 N5 O7 S3 Zn
CELL 1.54184 26.0566 18.5354 15.6738 90 90 90
ZERR 8 0.0002 0.0002 0.0001 0 0 0
LATT 1
SYMM 0.5-X,0.5-Y,+Z
SYMM -X,0.5+Y,0.5-Z
SYMM 0.5+X,-Y,0.5-Z
SFAC C F H N O S Zn
UNIT 304 16 240 48 48 24 8
EQIV $1 +X,0.5-Y,0.5+Z
SADI F1 C15 F1A C13
SADI F2 C24 F2A C26

L.S. 100 0 79
PLAN  13
SIZE 0.063 0.167 0.216
TEMP -123.14(10)
CONF
FREE Zn1 C1_$1
BOND
MORE -1
BOND $H
ABIN
fmap 2
acta
OMIT 0 4 0
OMIT 4 2 0
OMIT 0 6 0
OMIT 8 2 0
OMIT 13 3 0
OMIT 4 10 0
REM <olex2.extras>
REM <HklSrc "%.\\ZnFTzTz.hkl">
REM </olex2.extras>

WGHT    0.136800   16.930000
FVAR       0.10763   0.71317   0.37720
ZN1   7    0.988173    0.439283    0.606372    11.00000    0.02641    0.02451 =
         0.02868    0.00080   -0.00030   -0.00003
S1    6    0.998911    0.308488    0.264296    11.00000    0.03572    0.01666 =
         0.01828   -0.00140    0.00262   -0.00097
S2    6    0.537057    0.510521    0.630544    11.00000    0.01823    0.03959 =
         0.03158   -0.00601   -0.00145    0.00044
S3    6    0.439176    0.352815    0.544917    11.00000    0.01813    0.03778 =
         0.03755   -0.00629    0.00179   -0.00069
O3    5    1.011480    0.452500    0.343743    11.00000    0.03063    0.01528 =
         0.02756   -0.00079    0.00394   -0.00164
O4    5    0.987870    0.420542    0.474270    11.00000    0.02981    0.02485 =
         0.02168   -0.00686   -0.00152    0.00266
O2    5    0.981653    0.099280    0.238670    11.00000    0.03724    0.01600 =
         0.02658   -0.00392   -0.00223    0.00157
O1    5    0.992418    0.183651    0.140674    11.00000    0.04427    0.02383 =
         0.02093   -0.00464    0.00216    0.00112
N4    4    0.074786    0.438131    0.603115    11.00000    0.02010    0.02148 =
         0.02485    0.00202    0.00021    0.00141
N2    4    0.544716    0.382752    0.556274    11.00000    0.01600    0.04747 =
         0.02450    0.00025    0.00075    0.00372
N1    4    0.901547    0.441737    0.596955    11.00000    0.01832    0.02939 =
         0.02056   -0.00038    0.00028    0.00073
N3    4    0.431413    0.480298    0.617265    11.00000    0.01768    0.04858 =
         0.02707    0.00198    0.00133    0.00620
PART 1
F1    2    0.730427    0.563759    0.644352    21.00000    0.02421    0.03360 =
         0.06127   -0.01595   -0.00285   -0.00246
PART 0
C6    1    0.997605    0.406329    0.397965    11.00000    0.01487    0.01649 =
         0.02425   -0.00154   -0.00359    0.00339
C25   1    0.323240    0.489018    0.615244    11.00000    0.02043    0.03345 =
         0.02551   -0.00223   -0.00001   -0.00040
AFIX  43
H25   3    0.342718    0.529968    0.631978    11.00000   -1.20000
AFIX   0
C22   1    0.347835    0.426384    0.588008    11.00000    0.01655    0.03885 =
         0.02429   -0.00075   -0.00126    0.00185
C17   1    0.628271    0.441316    0.585531    11.00000    0.01774    0.04230 =
         0.01946    0.00214    0.00085    0.00118
C21   1    0.404623    0.425962    0.586971    11.00000    0.01592    0.03760 =
         0.02295    0.00034    0.00135    0.00160
C15   1    0.707485    0.501242    0.615731    11.00000    0.02265    0.03389 =
         0.02851   -0.00326   -0.00151   -0.00197
PART 2
AFIX  43
H15   3    0.724688    0.543055    0.635998   -21.00000   -1.20000
AFIX   0
PART 0
C31   1    0.156641    0.477240    0.657065    11.00000    0.02264    0.03173 =
         0.02385   -0.00173   -0.00069   -0.00316
AFIX  43
H31   3    0.174959    0.505853    0.697082    11.00000   -1.20000
AFIX   0
C27   1    0.239914    0.432226    0.594342    11.00000    0.02147    0.03008 =
         0.02510    0.00040    0.00203    0.00083
C1    1    0.987165    0.164825    0.216923    11.00000    0.02238    0.02094 =
         0.02636   -0.00475   -0.00328    0.00199
C5    1    0.992037    0.330173    0.369976    11.00000    0.02372    0.01606 =
         0.01993   -0.00215    0.00312   -0.00068
C11   1    0.793550    0.443129    0.591851    11.00000    0.01827    0.03645 =
         0.02392    0.00064    0.00086    0.00058
C12   1    0.736738    0.442623    0.589007    11.00000    0.01950    0.03656 =
         0.02257   -0.00136   -0.00108    0.00019
C32   1    0.103412    0.476915    0.656857    11.00000    0.02353    0.03028 =
         0.02024   -0.00304    0.00129    0.00311
AFIX  43
H32   3    0.086211    0.506177    0.697582    11.00000   -1.20000
AFIX   0
C18   1    0.571927    0.439093    0.585782    11.00000    0.02034    0.03717 =
         0.01868   -0.00035    0.00095   -0.00108
C28   1    0.182999    0.434910    0.597615    11.00000    0.01621    0.02850 =
         0.02691    0.00077   -0.00008    0.00179
C9    1    0.873951    0.474866    0.657519    11.00000    0.02596    0.03419 =
         0.02133   -0.00508   -0.00248    0.00003
AFIX  43
H9    3    0.891644    0.498114    0.702827    11.00000   -1.20000
AFIX   0
C26   1    0.270157    0.491029    0.617697    11.00000    0.02014    0.02971 =
         0.02702   -0.00163    0.00020    0.00123
PART 1
AFIX  43
H26   3    0.253725    0.534091    0.635979    31.00000   -1.20000
AFIX   0
PART 0
C7    1    0.875597    0.408585    0.534330    11.00000    0.02102    0.03233 =
         0.02893   -0.00476    0.00162    0.00010
AFIX  43
H7    3    0.894598    0.384627    0.491050    11.00000   -1.20000
AFIX   0
C4    1    0.980386    0.271740    0.419341    11.00000    0.03525    0.02252 =
         0.01926    0.00033   -0.00020    0.00103
AFIX  43
H4    3    0.974996    0.273961    0.479228    11.00000   -1.20000
AFIX   0
C16   1    0.654880    0.501162    0.614029    11.00000    0.02161    0.03601 =
         0.02737   -0.00356    0.00097    0.00097
AFIX  43
H16   3    0.636556    0.542597    0.632595    11.00000   -1.20000
AFIX   0
C3    1    0.977306    0.208085    0.371332    11.00000    0.04143    0.01726 =
         0.02515    0.00111   -0.00045    0.00053
AFIX  43
H3    3    0.969540    0.162198    0.395044    11.00000   -1.20000
AFIX   0
C10   1    0.821100    0.476764    0.657102    11.00000    0.02194    0.03956 =
         0.02467   -0.00575    0.00295    0.00234
AFIX  43
H10   3    0.803289    0.501101    0.701471    11.00000   -1.20000
AFIX   0
C8    1    0.822465    0.407461    0.529468    11.00000    0.02210    0.03830 =
         0.02854   -0.00704   -0.00111    0.00006
AFIX  43
H8    3    0.805819    0.382696    0.484189    11.00000   -1.20000
AFIX   0
C19   1    0.494429    0.399219    0.568683    11.00000    0.01746    0.03679 =
         0.02702    0.00024   -0.00148   -0.00239
C24   1    0.265791    0.370676    0.567077    11.00000    0.02154    0.02683 =
         0.04055   -0.00695    0.00052   -0.00126
PART 2
AFIX  43
H24   3    0.246401    0.329706    0.550132   -31.00000   -1.20000
AFIX   0
PART 0
C23   1    0.319003    0.367168    0.563820    11.00000    0.02253    0.03321 =
         0.03827   -0.00366    0.00072    0.00462
AFIX  43
H23   3    0.335511    0.324308    0.545072    11.00000   -1.20000
AFIX   0
C29   1    0.153018    0.394672    0.540849    11.00000    0.02428    0.03295 =
         0.03170   -0.00741    0.00098    0.00467
AFIX  43
H29   3    0.168998    0.365666    0.498525    11.00000   -1.20000
AFIX   0
C13   1    0.709491    0.382970    0.558637    11.00000    0.02256    0.03835 =
         0.03221   -0.00625   -0.00054    0.00275
PART 1
AFIX  43
H13   3    0.727971    0.342215    0.538464    21.00000   -1.20000
AFIX   0
PART 0
C2    1    0.986829    0.219532    0.285627    11.00000    0.03132    0.02061 =
         0.02094   -0.00169   -0.00195   -0.00004
C30   1    0.100412    0.397195    0.546443    11.00000    0.02276    0.02848 =
         0.03240   -0.00667   -0.00281    0.00077
AFIX  43
H30   3    0.081017    0.368368    0.508076    11.00000   -1.20000
AFIX   0
C20   1    0.482233    0.464177    0.606538    11.00000    0.02199    0.03786 =
         0.02091    0.00154    0.00124    0.00221
C14   1    0.656277    0.381483    0.557062    11.00000    0.02108    0.03844 =
         0.03408   -0.00631    0.00045   -0.00101
AFIX  43
H14   3    0.638837    0.339903    0.536684    11.00000   -1.20000
AFIX   0
PART 1
F2    2    0.241700    0.307098    0.547425    31.00000    0.01592    0.02391 =
         0.08428   -0.01435   -0.00092   -0.00227
PART 2
F1A   2    0.731892    0.315751    0.539925   -21.00000    0.01984    0.03660 =
         0.09819   -0.02578    0.00471    0.00647
F2A   2    0.249883    0.554645    0.644520   -31.00000    0.02349    0.03193 =
         0.05259   -0.01056    0.00171    0.00310
HKLF 4




REM  dmd16ch4b_DavidMnTzTz_a.res in Pccn
REM wR2 = 0.2099, GooF = S = 1.030, Restrained GooF = 1.030 for all data
REM R1 = 0.0653 for 6635 Fo > 4sig(Fo) and 0.0710 for all 7625 data
REM 435 parameters refined using 2 restraints

END

WGHT      0.1368     16.9301

REM Highest difference peak  0.776,  deepest hole -1.337,  1-sigma level  0.162
Q1    1   1.0297  0.4391  0.6049  11.00000  0.05    0.78
Q2    1   0.4399  0.5146  0.6361  11.00000  0.05    0.74
Q3    1   0.5492  0.3532  0.5446  11.00000  0.05    0.73
Q4    1   0.4318  0.3813  0.5637  11.00000  0.05    0.63
Q5    1   0.3664  0.2443  0.4391  11.00000  0.05    0.56
Q6    1   0.1248  0.3982  0.5365  11.00000  0.05    0.55
Q7    1   0.9812  0.1219  0.2205  11.00000  0.05    0.54
Q8    1   0.5756  0.3532  0.5436  11.00000  0.05    0.54
Q9    1   0.8633  0.4031  0.5366  11.00000  0.05    0.51
Q10   1   0.5241  0.3954  0.5665  11.00000  0.05    0.50
Q11   1   0.9928  0.3637  0.3755  11.00000  0.05    0.50
Q12   1   0.9717  0.2554  0.4003  11.00000  0.05    0.49
Q13   1   0.9991  0.4468  0.3487  11.00000  0.05    0.48
;
_shelx_res_checksum              80553
_shelx_fab_file
;
0 0 2 -297.6910 -0.8350
0 0 4 95.2116 0.8832
0 0 6 -27.7841 2.3969
0 0 8 -59.6762 -3.5954
0 0 10 9.8481 1.1597
0 0 12 -44.3656 0.5468
0 0 14 41.1699 1.1237
0 0 16 -4.0040 -0.4850
0 0 18 0.6745 -0.6031
0 1 2 221.8451 0.0886
0 1 4 -81.9326 0.4651
0 1 6 40.9601 -1.1142
0 1 8 -38.5009 1.4434
0 1 10 -1.3013 -1.5345
0 1 12 -32.7543 1.1900
0 1 14 -20.5215 -1.2272
0 1 16 10.5321 1.8016
0 1 18 2.2510 -0.8804
0 2 0 -215.3019 0.6221
0 2 2 193.4624 -1.6756
0 2 4 -72.9246 2.5596
0 2 6 31.0469 -2.9545
0 2 8 52.2950 2.3645
0 2 10 -5.1322 -1.4957
0 2 12 41.6972 0.5492
0 2 14 -35.8292 -0.9809
0 2 16 0.5817 0.3481
0 2 18 -0.5753 0.2549
0 3 2 -102.1295 -0.1064
0 3 4 -10.8361 -1.1042
0 3 6 -15.1433 1.9731
0 3 8 30.5014 -1.2666
0 3 10 -1.3763 1.0109
0 3 12 30.9853 -1.7350
0 3 14 20.3799 1.8045
0 3 16 -8.0088 -1.6430
0 3 18 -3.2864 0.8829
0 4 0 -6.4083 0.0863
0 4 2 -25.1203 0.6039
0 4 4 24.4047 -0.6083
0 4 6 -32.3780 0.1970
0 4 8 -40.1824 0.2276
0 4 10 -2.4515 0.0668
0 4 12 -31.6464 0.0567
0 4 14 22.3710 0.0135
0 4 16 7.6140 0.1338
0 4 18 -2.2263 0.0659
0 5 2 34.5767 -0.4318
0 5 4 71.9628 -0.2071
0 5 6 -4.3674 0.5882
0 5 8 -19.0716 -0.7687
0 5 10 -5.1855 0.7499
0 5 12 -22.7502 -0.4582
0 5 14 -18.4407 0.6075
0 5 16 5.7233 -0.7922
0 5 18 5.3888 0.8298
0 6 0 14.3317 -1.9059
0 6 2 -17.8121 1.7432
0 6 4 6.5400 -1.8484
0 6 6 25.9803 1.5054
0 6 8 36.5512 -1.3659
0 6 10 5.8821 1.1420
0 6 12 16.4861 -0.7036
0 6 14 -10.6657 0.3374
0 6 16 -12.7092 -0.3620
0 6 18 5.4545 -0.1487
0 7 2 -58.2829 -0.0899
0 7 4 -51.1748 1.2159
0 7 6 -9.9940 -1.6064
0 7 8 15.5571 1.4905
0 7 10 12.5495 -1.6884
0 7 12 16.9226 1.9252
0 7 14 13.3772 -2.0054
0 7 16 -5.3684 2.1388
0 7 18 -5.9159 -1.6366
0 8 0 80.8100 3.3464
0 8 2 -22.2938 -2.8259
0 8 4 -4.7422 2.3791
0 8 6 -15.2843 -2.2198
0 8 8 -38.9625 2.1068
0 8 10 -6.5715 -1.6643
0 8 12 -6.9432 0.8388
0 8 14 7.7400 -0.4632
0 8 16 10.6035 0.2720
0 8 18 -4.2689 0.5097
0 9 2 72.9004 0.5515
0 9 4 10.2203 -0.9965
0 9 6 39.7063 1.2348
0 9 8 -19.4175 -1.6394
0 9 10 -6.8125 1.9394
0 9 12 -17.5800 -1.9498
0 9 14 -9.5389 1.9967
0 9 16 6.0134 -2.2543
0 9 18 3.6224 1.3445
0 10 0 -91.1254 -2.7921
0 10 2 30.2169 2.5303
0 10 4 -4.3167 -2.3102
0 10 6 7.3262 2.2508
0 10 8 33.3038 -1.8858
0 10 10 5.1606 1.4324
0 10 12 8.7335 -0.8954
0 10 14 -9.3151 0.6249
0 10 16 -5.3480 -0.1071
0 11 2 -49.5478 -0.3007
0 11 4 5.0998 0.6126
0 11 6 -50.4477 -0.9753
0 11 8 23.0115 1.2570
0 11 10 -6.9735 -1.3013
0 11 12 16.7774 1.2718
0 11 14 7.8864 -1.2706
0 11 16 -5.0734 1.2838
0 12 0 51.3082 0.6836
0 12 2 -11.7325 -0.8108
0 12 4 8.7332 0.8041
0 12 6 -11.2391 -0.5734
0 12 8 -16.7248 0.3722
0 12 10 -1.2797 -0.4989
0 12 12 -12.8144 0.3441
0 12 14 10.1657 -0.1945
0 12 16 -0.2669 0.0846
0 13 2 25.8932 0.0925
0 13 4 -1.3846 -0.0834
0 13 6 40.2230 0.0614
0 13 8 -21.8927 -0.0120
0 13 10 11.3957 0.0481
0 13 12 -11.2260 -0.0367
0 13 14 -5.2041 -0.0831
0 13 16 3.4639 0.1253
0 14 0 -25.6526 1.2003
0 14 2 -1.4476 -1.1665
0 14 4 -8.3945 1.1069
0 14 6 15.6470 -0.9979
0 14 8 7.5931 0.8334
0 14 10 -0.7671 -0.7240
0 14 12 6.6046 0.7183
0 14 14 -6.9406 -0.3482
0 15 2 -11.9362 0.1334
0 15 4 -4.3277 -0.6394
0 15 6 -28.1232 0.9482
0 15 8 14.1682 -1.0902
0 15 10 -1.4177 1.2372
0 15 12 4.8054 -1.4182
0 15 14 2.5206 0.9950
0 16 0 7.2991 -2.2985
0 16 2 10.2120 2.2072
0 16 4 4.0806 -1.9654
0 16 6 -8.6184 1.7211
0 16 8 -11.3138 -1.5376
0 16 10 -1.1372 1.5311
0 16 12 4.9086 -1.1554
0 17 2 4.3468 -0.2712
0 17 4 2.2340 0.8862
0 17 6 22.5708 -1.2896
0 17 8 -6.7731 1.6868
0 17 10 -6.7715 -1.9246
0 17 12 -1.5869 1.8172
0 18 0 0.6185 2.2643
0 18 2 -8.7251 -2.1335
0 18 4 -3.7314 1.9921
0 18 6 2.6733 -1.8844
0 18 8 11.4540 1.4818
0 18 10 1.7675 -1.0971
0 18 12 -6.9501 0.6961
0 19 2 -2.8022 0.0759
0 19 4 2.3824 -0.6684
0 19 6 -15.4501 0.8905
0 19 8 3.7044 -1.1287
0 19 10 4.7105 1.0375
0 20 0 -0.7452 -0.9844
0 20 2 3.0388 0.9264
0 20 4 4.3559 -0.7755
0 20 6 -2.5881 0.7403
0 20 8 -4.9674 -0.5138
0 21 2 1.9257 -0.0313
0 21 4 -1.9876 0.4543
0 21 6 4.8216 -0.0210
0 21 8 -1.1552 -0.1682
0 22 0 2.4044 -0.0688
0 22 2 -1.5776 0.2576
0 22 4 -2.5452 -0.5747
1 0 2 10.1524 1.3415
1 0 4 -8.3323 0.0085
1 0 6 6.8352 -1.3324
1 0 8 -1.9995 -0.1037
1 0 10 3.2496 0.6892
1 0 12 8.8965 -0.0441
1 0 14 -15.8959 -0.3778
1 0 16 9.0224 0.2345
1 0 18 0.2511 0.3210
1 1 0 7.6319 -1.2857
1 1 1 9.3068 0.8938
1 1 2 -32.0898 0.6736
1 1 3 -26.2985 0.8898
1 1 4 4.4731 0.2119
1 1 5 29.2902 0.1867
1 1 6 2.5994 0.3276
1 1 7 -19.5707 2.0689
1 1 8 20.6892 -0.4096
1 1 9 5.3848 -1.6233
1 1 10 -10.0660 -0.1615
1 1 11 -2.4545 -0.8602
1 1 12 16.5397 -0.0103
1 1 13 0.9265 -0.5585
1 1 14 0.4481 0.0925
1 1 15 -0.8208 2.5443
1 1 16 -7.4320 -0.0929
1 1 17 -1.5765 -0.9749
1 1 18 -1.3503 -0.0157
1 1 19 1.1752 -0.5287
1 2 1 23.5074 -1.9783
1 2 2 -19.2267 -0.4620
1 2 3 -20.0398 2.0792
1 2 4 16.1995 0.0551
1 2 5 12.2393 -1.8848
1 2 6 -7.6838 0.4372
1 2 7 6.6412 1.1641
1 2 8 -1.3319 0.1592
1 2 9 -8.0603 -0.8688
1 2 10 -0.9029 -0.1427
1 2 11 1.7191 1.2271
1 2 12 -4.6221 0.0955
1 2 13 -1.7485 -0.8716
1 2 14 8.3527 -0.1184
1 2 15 1.8391 -0.0247
1 2 16 -4.0164 0.1612
1 2 17 -2.9614 0.0629
1 2 18 -1.9552 -0.1999
1 2 19 -0.9576 0.1510
1 3 0 19.2757 -0.6086
1 3 1 -13.8406 -2.1168
1 3 2 13.5915 -0.1602
1 3 3 45.2560 -1.0896
1 3 4 -6.1668 0.3616
1 3 5 -59.1872 0.6257
1 3 6 4.9888 -0.2092
1 3 7 46.3449 -1.6530
1 3 8 -20.5798 -0.1508
1 3 9 -12.9110 2.3066
1 3 10 1.9142 0.2450
1 3 11 6.9852 -1.6209
1 3 12 -7.4699 0.2933
1 3 13 -2.4845 1.9349
1 3 14 -1.8185 -0.2031
1 3 15 0.8554 -2.4952
1 3 16 4.9869 -0.2085
1 3 17 4.3028 2.1545
1 3 18 1.7441 0.1585
1 3 19 -3.3892 -1.6776
1 4 1 13.7370 2.4811
1 4 2 30.1414 -0.1254
1 4 3 3.2688 -3.7850
1 4 4 -23.2716 -0.3493
1 4 5 -18.3500 2.8788
1 4 6 7.0149 0.2429
1 4 7 -6.2638 -1.9374
1 4 8 6.0493 -0.1337
1 4 9 9.2196 2.2641
1 4 10 -3.6442 -0.1240
1 4 11 1.5836 -1.7280
1 4 12 -1.0117 0.0299
1 4 13 1.5466 0.5838
1 4 14 1.3818 0.1610
1 4 15 -2.2601 -0.3922
1 4 16 -1.9789 -0.1649
1 4 17 4.9762 0.7300
1 4 18 4.1093 -0.2150
1 4 19 -0.0850 0.1148
1 5 0 -34.1146 1.6189
1 5 1 3.4691 -0.1523
1 5 2 -1.0854 -0.2635
1 5 3 -21.3497 1.5202
1 5 4 4.7092 -0.1827
1 5 5 43.5981 -0.8408
1 5 6 -4.5320 -0.0360
1 5 7 -47.4845 1.0543
1 5 8 16.3611 0.0122
1 5 9 11.4617 -1.8710
1 5 10 3.7888 -0.1121
1 5 11 -5.9831 2.2362
1 5 12 3.6335 -0.1195
1 5 13 0.7162 -2.1743
1 5 14 -0.7460 0.1283
1 5 15 0.4557 1.9270
1 5 16 -1.5922 0.1561
1 5 17 -3.8131 -1.9655
1 5 18 -2.9632 0.0013
1 5 19 3.2163 1.8970
1 6 1 -52.3991 -1.1457
1 6 2 -24.6724 0.0429
1 6 3 21.7094 2.2608
1 6 4 13.9224 0.2884
1 6 5 18.1681 -2.6229
1 6 6 -3.8663 0.0057
1 6 7 2.6247 1.5715
1 6 8 -4.1902 -0.0173
1 6 9 -7.3204 -1.4927
1 6 10 3.9232 -0.0777
1 6 11 -5.4435 1.1923
1 6 12 1.9414 -0.0393
1 6 13 2.2026 -0.7318
1 6 14 0.6264 0.1092
1 6 15 -1.3111 0.5750
1 6 16 -1.0762 0.0332
1 6 17 -3.7215 -0.5358
1 6 18 -2.2791 0.0503
1 7 0 23.6021 -0.3618
1 7 1 1.5046 2.4226
1 7 2 2.6672 -0.0849
1 7 3 0.7225 -0.9380
1 7 4 -0.4171 -0.0034
1 7 5 -17.2897 0.4974
1 7 6 -3.5526 0.0507
1 7 7 32.5638 -0.9016
1 7 8 -9.8354 0.2305
1 7 9 -3.2798 0.9142
1 7 10 -2.8390 -0.0776
1 7 11 -0.8338 -1.0452
1 7 12 -8.7398 -0.0888
1 7 13 2.5787 1.3505
1 7 14 6.0375 0.0491
1 7 15 0.9990 -1.2342
1 7 16 -0.2803 0.0838
1 7 17 -0.4677 0.8852
1 7 18 3.4032 -0.1594
1 8 1 45.7886 -0.3271
1 8 2 9.9794 0.0657
1 8 3 -21.8771 -0.2680
1 8 4 -0.4206 0.1578
1 8 5 -17.0909 1.3411
1 8 6 3.1554 -0.1831
1 8 7 -0.8524 -0.3822
1 8 8 -2.6714 -0.0107
1 8 9 4.4902 0.0830
1 8 10 0.5366 0.1285
1 8 11 8.0121 -0.2613
1 8 12 -1.2835 -0.0894
1 8 13 -7.1126 0.3756
1 8 14 -6.5253 -0.0370
1 8 15 4.8733 -0.0983
1 8 16 5.8362 0.0071
1 8 17 1.3275 -0.0411
1 8 18 -0.4125 0.2165
1 9 0 -6.0516 -1.0437
1 9 1 0.0595 -0.4548
1 9 2 -7.6313 0.3464
1 9 3 1.2699 -0.5787
1 9 4 -1.2579 -0.1924
1 9 5 8.2518 0.0586
1 9 6 5.4257 0.1030
1 9 7 -20.6828 0.1139
1 9 8 7.2367 0.0740
1 9 9 -2.7743 0.4018
1 9 10 0.0943 0.0777
1 9 11 4.8379 -0.5043
1 9 12 10.7843 -0.1078
1 9 13 -1.9948 0.1651
1 9 14 -5.3049 -0.0757
1 9 15 -3.0693 -0.2736
1 9 16 -1.1623 -0.0546
1 9 17 2.0781 0.4103
1 10 1 -23.5059 0.9260
1 10 2 -0.1724 0.0521
1 10 3 8.0152 -1.5520
1 10 4 -3.8781 -0.4492
1 10 5 15.9797 1.3816
1 10 6 -4.7599 0.0090
1 10 7 3.2342 -1.2630
1 10 8 5.1357 0.1650
1 10 9 -2.0866 0.8597
1 10 10 -0.3141 0.0290
1 10 11 -9.2149 -0.6864
1 10 12 -1.5068 0.0748
1 10 13 7.6930 0.6851
1 10 14 6.7909 -0.1327
1 10 15 -3.6200 -0.6551
1 10 16 -3.8614 -0.1479
1 10 17 -0.1396 0.3288
1 11 0 -0.6207 0.7334
1 11 1 -2.7150 -1.6644
1 11 2 7.0709 -0.0943
1 11 3 3.6615 1.1610
1 11 4 -1.2399 0.2133
1 11 5 -13.5433 -0.8116
1 11 6 1.1359 -0.0555
1 11 7 19.8491 1.2120
1 11 8 -8.5329 -0.2900
1 11 9 2.7631 -1.5366
1 11 10 0.8348 -0.0150
1 11 11 -4.5697 1.8347
1 11 12 -5.9422 0.1678
1 11 13 0.2880 -1.7846
1 11 14 0.3613 0.0749
1 11 15 0.9439 1.6348
1 11 16 1.9663 -0.0547
1 11 17 0.4721 -1.1051
1 12 1 4.6278 -1.0803
1 12 2 0.0998 -0.1074
1 12 3 3.3137 2.8737
1 12 4 1.2543 0.1173
1 12 5 -16.1099 -2.9984
1 12 6 3.4222 0.0072
1 12 7 -5.2996 1.8503
1 12 8 -0.1141 -0.0859
1 12 9 2.9649 -1.2370
1 12 10 -5.4356 -0.0056
1 12 11 5.9107 1.1267
1 12 12 5.2632 0.0348
1 12 13 -2.6103 -0.8838
1 12 14 -4.1592 -0.0248
1 12 15 -0.4129 0.4690
1 12 16 0.4201 0.3166
1 13 0 -2.9915 0.4017
1 13 1 5.6393 1.2472
1 13 2 -3.6834 -0.1158
1 13 3 -4.8629 -1.0373
1 13 4 5.6595 -0.0132
1 13 5 16.2428 1.1140
1 13 6 -7.0217 -0.1448
1 13 7 -23.4672 -1.3331
1 13 8 7.6857 0.0692
1 13 9 0.9671 1.5407
1 13 10 0.2570 0.0663
1 13 11 3.3931 -1.9724
1 13 12 2.7249 0.0670
1 13 13 0.1965 1.8972
1 13 14 -0.3295 -0.1730
1 13 15 1.4218 -0.9934
1 13 16 0.3314 0.0662
1 14 1 6.1144 1.4012
1 14 2 -3.2735 -0.0513
1 14 3 -7.3373 -2.6857
1 14 4 -0.5779 0.3857
1 14 5 18.7377 2.1292
1 14 6 0.7007 0.0368
1 14 7 2.2896 -1.5948
1 14 8 -4.2056 -0.0463
1 14 9 -4.4474 1.3900
1 14 10 5.9021 -0.0643
1 14 11 -0.7551 -1.0602
1 14 12 -3.3013 0.0069
1 14 13 -2.7151 0.4964
1 14 14 2.0305 0.0219
1 14 15 2.8959 0.2132
1 15 0 1.6021 -0.7721
1 15 1 -5.7002 0.2726
1 15 2 5.6393 0.1913
1 15 3 -0.6552 0.7277
1 15 4 -7.8276 -0.0840
1 15 5 -11.2818 -0.7588
1 15 6 5.4621 0.0938
1 15 7 22.4734 0.7868
1 15 8 -3.0252 0.1092
1 15 9 -2.8194 -1.1334
1 15 10 -2.5864 -0.1069
1 15 11 -2.2303 1.0779
1 15 12 -2.4076 -0.0602
1 15 13 -0.8385 -1.2121
1 15 14 2.3184 0.1728
1 16 1 -3.7887 -1.1562
1 16 2 1.4456 0.1463
1 16 3 4.3845 1.4283
1 16 4 4.2298 -0.2892
1 16 5 -17.3212 -0.6221
1 16 6 -1.4567 -0.0306
1 16 7 0.1371 0.9397
1 16 8 1.6913 -0.0388
1 16 9 3.2147 -0.7022
1 16 10 -0.5341 0.0122
1 16 11 -0.2662 0.5857
1 16 12 -1.8276 -0.1546
1 16 13 3.0918 -0.5396
1 16 14 -0.6503 0.2606
1 17 0 3.9665 0.0424
1 17 1 4.5745 -1.3230
1 17 2 -8.0187 -0.0889
1 17 3 2.9212 0.2133
1 17 4 3.8210 0.0547
1 17 5 7.6159 0.0293
1 17 6 0.7581 0.1035
1 17 7 -15.7311 -0.2543
1 17 8 -0.3851 -0.0269
1 17 9 0.4287 0.3093
1 17 10 3.7241 -0.0355
1 17 11 1.5741 0.3103
1 17 12 0.6787 -0.0180
1 17 13 1.0533 0.6306
1 18 1 1.9426 -0.2133
1 18 2 1.3875 -0.0766
1 18 3 -2.1554 0.6181
1 18 4 -5.1729 -0.0565
1 18 5 11.4489 -0.9940
1 18 6 -1.6203 0.0349
1 18 7 0.2620 0.6754
1 18 8 1.9269 0.1507
1 18 9 -0.8229 -0.8867
1 18 10 -1.2653 0.0054
1 18 11 -1.1970 0.3257
1 18 12 2.2276 0.1638
1 19 0 -1.5576 0.6394
1 19 1 -4.6581 0.4197
1 19 2 3.6008 -0.0799
1 19 3 -0.3047 -0.7273
1 19 4 0.6696 -0.0814
1 19 5 -5.2204 0.6434
1 19 6 -2.4402 -0.0116
1 19 7 7.5485 -0.4872
1 19 8 -0.5542 -0.1255
1 19 9 2.0697 0.5966
1 19 10 -1.6969 0.1606
1 19 11 -1.3157 -1.0899
1 20 1 -3.8249 1.3957
1 20 2 0.1637 0.0009
1 20 3 2.1908 -2.4599
1 20 4 1.7744 0.0881
1 20 5 -7.2994 2.2874
1 20 6 2.0306 -0.0169
1 20 7 0.2747 -1.7350
1 20 8 -0.9587 -0.0907
1 20 9 0.4410 1.3329
1 21 0 -2.5546 -0.4344
1 21 1 3.2371 0.7059
1 21 2 0.2878 -0.0518
1 21 3 0.9053 0.4246
1 21 4 0.4247 0.1729
1 21 5 0.7104 -0.7088
1 21 6 -0.6017 -0.1745
1 21 7 -2.3375 0.7139
1 21 8 1.8287 0.0993
1 22 1 1.4301 -1.2022
1 22 2 -1.5550 0.0220
1 22 3 -0.6853 2.1178
1 22 4 0.1009 0.0152
1 22 5 4.3103 -1.9602
1 23 0 1.1828 0.0504
1 23 1 -1.2101 0.0753
2 0 0 -202.9635 -3.9615
2 0 2 107.7335 1.2611
2 0 4 -21.9256 0.5656
2 0 6 6.7564 1.3129
2 0 8 21.5730 -1.7517
2 0 10 -1.1175 0.1893
2 0 12 11.0685 0.6796
2 0 14 -10.8164 0.5490
2 0 16 0.2169 -0.5422
2 0 18 -1.1479 -0.1632
2 1 1 -8.8343 0.0590
2 1 2 -93.9917 -1.0973
2 1 3 4.4997 -0.2431
2 1 4 56.5171 0.0576
2 1 5 0.0704 0.3322
2 1 6 -42.2655 -0.1512
2 1 7 1.9148 0.0388
2 1 8 16.7315 0.5621
2 1 9 -3.9283 -0.4703
2 1 10 -0.3036 -0.7418
2 1 11 1.3185 -0.1545
2 1 12 9.6665 0.7593
2 1 13 -0.1273 0.5668
2 1 14 4.9748 -0.5958
2 1 15 1.3273 0.1338
2 1 16 -3.4256 0.6702
2 1 17 0.7924 -0.2609
2 1 18 -0.6362 -0.4104
2 1 19 -1.3080 0.0594
2 2 0 162.8884 1.4244
2 2 1 5.5239 0.3414
2 2 2 -81.2084 -1.6366
2 2 3 -12.8800 0.1220
2 2 4 21.0712 0.8100
2 2 5 -0.8076 -0.2456
2 2 6 -18.9618 -1.1809
2 2 7 8.9810 0.2774
2 2 8 -12.0530 0.9015
2 2 9 -1.4924 0.0158
2 2 10 -0.7491 -0.6670
2 2 11 -2.6849 -0.1016
2 2 12 -11.2087 0.1042
2 2 13 3.6227 -0.1466
2 2 14 10.2684 -0.2926
2 2 15 -4.0335 0.2575
2 2 16 0.4784 0.1548
2 2 17 3.3746 -0.1191
2 2 18 0.6091 0.1405
2 2 19 -0.7793 -0.0328
2 3 1 8.8926 -0.2428
2 3 2 47.5231 0.3024
2 3 3 -5.5308 0.2561
2 3 4 -2.4795 -0.6439
2 3 5 2.0947 -0.1619
2 3 6 13.2379 0.6861
2 3 7 -8.6877 0.1002
2 3 8 -11.9064 -0.4239
2 3 9 10.1222 0.1380
2 3 10 2.8779 0.1483
2 3 11 -2.4799 0.0745
2 3 12 -10.4262 -0.5921
2 3 13 -0.8481 -0.2146
2 3 14 -4.7194 0.8808
2 3 15 -1.3664 -0.1241
2 3 16 4.0632 -0.6762
2 3 17 -1.3563 0.1302
2 3 18 -0.0915 0.0558
2 3 19 1.8378 -0.0760
2 4 0 -78.8367 1.6056
2 4 1 -1.9775 -0.3049
2 4 2 24.6159 -0.1009
2 4 3 7.3305 -0.1925
2 4 4 -12.9558 -0.3816
2 4 5 9.1939 0.0585
2 4 6 31.4281 0.1438
2 4 7 -12.2761 0.0648
2 4 8 2.9463 0.1874
2 4 9 -0.4714 -0.0021
2 4 10 1.9663 0.0117
2 4 11 1.2929 -0.1877
2 4 12 9.4009 0.0142
2 4 13 -2.7649 0.1151
2 4 14 -7.2113 0.0640
2 4 15 2.6089 0.0135
2 4 16 -3.0781 0.1716
2 4 17 -2.5303 0.0973
2 4 18 1.1198 -0.0091
2 4 19 2.3796 -0.0864
2 5 1 2.9809 -0.0213
2 5 2 -12.3342 0.2453
2 5 3 3.3494 -0.1217
2 5 4 -30.8908 0.3122
2 5 5 -6.6541 0.2409
2 5 6 -0.7944 0.2633
2 5 7 14.6993 -0.2216
2 5 8 9.7634 -0.1990
2 5 9 -11.3834 -0.0017
2 5 10 -0.6559 0.3480
2 5 11 -0.3782 -0.0813
2 5 12 7.2306 -0.5040
2 5 13 4.5567 0.0982
2 5 14 5.7570 0.1590
2 5 15 -1.8477 -0.0149
2 5 16 -4.5695 -0.1305
2 5 17 0.8186 0.0278
2 5 18 -0.5119 0.6491
2 5 19 -0.1917 0.0255
2 6 0 30.4147 -1.6814
2 6 1 -3.3498 -0.0876
2 6 2 7.9563 1.1545
2 6 3 0.2130 0.0562
2 6 4 1.0560 -0.5870
2 6 5 -12.2270 -0.0340
2 6 6 -21.2198 0.5337
2 6 7 9.7322 0.0455
2 6 8 -9.1928 -0.2664
2 6 9 3.7613 0.0564
2 6 10 -2.0276 0.3381
2 6 11 1.2084 0.1848
2 6 12 -4.0247 -0.4166
2 6 13 -0.5701 -0.2043
2 6 14 2.8189 0.1427
2 6 15 1.0366 -0.0496
2 6 16 5.1919 -0.1045
2 6 17 0.4530 -0.0450
2 6 18 -2.0029 -0.3151
2 7 1 -1.9765 0.2693
2 7 2 16.0868 -0.4188
2 7 3 -6.8838 -0.0373
2 7 4 17.6008 0.0887
2 7 5 6.7441 -0.3027
2 7 6 9.5353 -0.7895
2 7 7 -12.0753 0.0263
2 7 8 -5.9490 0.4562
2 7 9 8.3580 0.1731
2 7 10 -6.3358 -0.2651
2 7 11 4.8797 0.1437
2 7 12 -2.5654 0.5794
2 7 13 -6.9690 -0.1177
2 7 14 -6.3746 -0.6850
2 7 15 2.3031 0.0351
2 7 16 4.0066 0.7020
2 7 17 0.3794 -0.0359
2 7 18 1.2797 -0.5210
2 8 0 -41.6092 -0.1588
2 8 1 3.6094 0.2420
2 8 2 2.1447 -1.2250
2 8 3 0.0003 0.0545
2 8 4 2.5499 0.9462
2 8 5 10.0167 -0.0144
2 8 6 4.5264 -0.8685
2 8 7 -9.5462 -0.1125
2 8 8 15.0149 0.6402
2 8 9 -1.9396 -0.1227
2 8 10 4.4891 -0.3786
2 8 11 -4.5410 -0.0278
2 8 12 -0.2068 0.3489
2 8 13 3.9237 0.1392
2 8 14 -1.2885 -0.3385
2 8 15 -2.8363 0.0627
2 8 16 -3.9172 0.0305
2 8 17 0.0873 -0.0117
2 8 18 0.7596 0.6506
2 9 1 -1.9945 -0.0933
2 9 2 -27.8738 0.2853
2 9 3 5.6035 0.0546
2 9 4 1.2107 -0.5366
2 9 5 -0.6000 0.1221
2 9 6 -14.4756 0.5104
2 9 7 5.9834 0.0971
2 9 8 1.9517 -0.5205
2 9 9 -6.2742 -0.1289
2 9 10 6.7629 0.7022
2 9 11 -4.9520 -0.0782
2 9 12 3.1990 -0.6360
2 9 13 3.5976 -0.0167
2 9 14 3.7661 0.8203
2 9 15 0.7134 0.0452
2 9 16 -1.9211 -1.0074
2 9 17 -1.2965 -0.0522
2 10 0 52.0527 1.4156
2 10 1 -0.6107 0.0038
2 10 2 -14.4340 0.8859
2 10 3 -2.0782 -0.0763
2 10 4 0.2922 -0.6031
2 10 5 -9.8374 0.1203
2 10 6 0.3249 0.5825
2 10 7 12.8856 -0.0345
2 10 8 -12.3836 -0.8697
2 10 9 -3.7563 0.0358
2 10 10 -4.0453 0.4740
2 10 11 7.7661 -0.0494
2 10 12 -1.2927 -0.1286
2 10 13 -4.4404 0.0998
2 10 14 2.5176 0.1810
2 10 15 2.1857 -0.0750
2 10 16 1.6558 -0.0922
2 10 17 -0.5736 0.0078
2 11 1 3.1644 -0.0924
2 11 2 20.3776 -0.1792
2 11 3 -1.5455 0.0194
2 11 4 -0.6574 0.5140
2 11 5 -3.7031 0.1163
2 11 6 14.2775 -0.1789
2 11 7 -5.1186 -0.1220
2 11 8 -7.3118 0.2943
2 11 9 8.5342 -0.0487
2 11 10 1.6600 -0.5458
2 11 11 0.6355 0.0031
2 11 12 -6.4229 0.3987
2 11 13 1.4089 0.0635
2 11 14 -1.0524 -0.3691
2 11 15 -1.4188 -0.0023
2 11 16 0.8827 0.3187
2 11 17 -0.0147 0.0454
2 12 0 -31.4603 -0.2177
2 12 1 -1.0046 -0.0699
2 12 2 7.1529 -0.2934
2 12 3 3.3070 -0.0169
2 12 4 -3.7850 0.2326
2 12 5 8.8681 -0.0879
2 12 6 4.8895 -0.1900
2 12 7 -14.1828 0.1230
2 12 8 7.3687 0.1734
2 12 9 5.2583 0.0129
2 12 10 -0.3657 -0.1962
2 12 11 -5.3351 0.0922
2 12 12 4.4380 0.0575
2 12 13 0.5057 -0.1659
2 12 14 -3.6765 0.1323
2 12 15 0.9306 -0.0608
2 12 16 -0.3679 0.1380
2 13 1 -3.1768 0.0145
2 13 2 -5.2541 0.2342
2 13 3 1.9045 0.0957
2 13 4 -6.7117 0.2089
2 13 5 3.2535 -0.2597
2 13 6 -13.5623 -0.0002
2 13 7 8.6258 0.2070
2 13 8 13.3733 -0.0580
2 13 9 -11.7231 0.0270
2 13 10 -5.9756 -0.1631
2 13 11 1.2096 0.0219
2 13 12 5.3196 0.1849
2 13 13 -2.9747 -0.0411
2 13 14 1.5038 -0.1909
2 13 15 0.7288 -0.0243
2 13 16 -2.0734 0.4346
2 14 0 10.6073 -1.2686
2 14 1 -1.5585 -0.1078
2 14 2 1.9535 -0.2934
2 14 3 -0.8316 0.0004
2 14 4 4.2737 0.0521
2 14 5 -7.8704 0.1335
2 14 6 -7.8476 -0.1259
2 14 7 12.7296 -0.1210
2 14 8 -3.9085 0.5234
2 14 9 -1.2587 0.0259
2 14 10 1.4459 -0.2664
2 14 11 -0.0313 -0.0690
2 14 12 -3.1114 0.2426
2 14 13 1.7826 0.0198
2 14 14 3.1216 -0.3950
2 14 15 -2.4094 0.1668
2 15 1 -0.5046 0.1075
2 15 2 -0.2566 0.1687
2 15 3 -2.3151 -0.1969
2 15 4 7.3935 -0.6875
2 15 5 -1.9594 0.0802
2 15 6 9.9866 0.3032
2 15 7 -10.5293 -0.0984
2 15 8 -9.0961 -0.2996
2 15 9 9.4812 0.0391
2 15 10 1.2939 0.4299
2 15 11 1.9121 -0.0481
2 15 12 -1.6174 -0.3464
2 15 13 1.8549 0.1138
2 15 14 -1.8794 0.1944
2 16 0 -5.4567 0.4581
2 16 1 3.4394 0.1915
2 16 2 -2.6958 0.8264
2 16 3 -0.6680 0.0930
2 16 4 -1.6619 -0.6661
2 16 5 5.7765 -0.1440
2 16 6 3.4701 0.8353
2 16 7 -8.3036 0.0093
2 16 8 3.8537 -0.6998
2 16 9 -2.7779 -0.0116
2 16 10 0.3543 0.4407
2 16 11 2.0312 0.0149
2 16 12 -0.4342 -0.6844
2 16 13 -0.2969 0.0116
2 16 14 -1.4344 0.5758
2 17 1 -0.2568 -0.0829
2 17 2 -0.8020 -0.4847
2 17 3 2.7103 0.0638
2 17 4 -2.1968 0.4101
2 17 5 1.2989 0.1139
2 17 6 -7.8360 -0.5021
2 17 7 8.2995 -0.0081
2 17 8 2.8132 0.6651
2 17 9 -4.0313 -0.0407
2 17 10 3.3313 -0.5649
2 17 11 -3.0664 0.0222
2 17 12 -0.1241 0.4686
2 17 13 -1.0555 -0.1229
2 18 0 4.6652 0.8507
2 18 1 -1.1910 -0.0706
2 18 2 -0.0111 -0.9422
2 18 3 -3.1667 0.0058
2 18 4 1.5582 0.8830
2 18 5 -0.9960 -0.0671
2 18 6 0.5447 -0.8690
2 18 7 3.6441 0.0819
2 18 8 -5.2417 0.3308
2 18 9 2.8589 0.0155
2 18 10 -0.1789 -0.2105
2 18 11 -2.1932 -0.0289
2 18 12 0.9831 0.5303
2 19 1 3.3682 -0.0390
2 19 2 0.4014 0.1811
2 19 3 -2.7180 0.0730
2 19 4 -1.6799 -0.0309
2 19 5 -1.9522 -0.0189
2 19 6 8.2490 0.1740
2 19 7 -3.9115 -0.0333
2 19 8 -1.8415 -0.1420
2 19 9 1.3949 -0.0108
2 19 10 -2.8038 0.2762
2 19 11 -0.0066 0.0481
2 20 0 -1.1990 -1.0842
2 20 1 -0.0462 -0.1577
2 20 2 0.4353 0.3977
2 20 3 4.1476 -0.0632
2 20 4 -2.8595 -0.2768
2 20 5 -0.8031 0.1547
2 20 6 -0.3506 0.0166
2 20 7 -2.4042 -0.0560
2 20 8 4.1954 0.1100
2 20 9 -0.8222 -0.0018
2 21 1 -0.9003 0.1148
2 21 2 0.8432 0.0445
2 21 3 0.9105 -0.1677
2 21 4 1.3813 0.0392
2 21 5 2.3926 0.0736
2 21 6 -6.0646 0.1726
2 21 7 0.6294 -0.0881
2 22 0 -0.9010 0.7209
2 22 1 -0.9029 0.1994
2 22 2 0.4464 0.3035
2 22 3 -1.0113 -0.0454
2 22 4 2.1925 -0.2700
2 22 5 -0.0547 -0.0827
2 23 1 -0.8682 -0.0470
3 0 2 37.3948 -0.0748
3 0 4 7.7336 0.0426
3 0 6 -6.1303 0.1551
3 0 8 9.7127 0.2158
3 0 10 -6.3397 -0.0081
3 0 12 -2.2930 -0.1012
3 0 14 -8.7797 -0.0342
3 0 16 5.5587 0.0701
3 0 18 4.0820 -0.0683
3 1 0 -81.5774 -0.0420
3 1 1 -17.5180 1.0676
3 1 2 2.9601 -0.1229
3 1 3 41.5106 0.1083
3 1 4 0.3652 0.0038
3 1 5 -42.1795 -0.1582
3 1 6 21.6489 -0.0157
3 1 7 27.5530 1.3674
3 1 8 13.7670 0.0050
3 1 9 -7.1230 -0.6197
3 1 10 9.4633 0.0048
3 1 11 3.4165 -0.8974
3 1 12 14.2364 0.0390
3 1 13 -1.6707 -0.3783
3 1 14 -9.1087 0.0547
3 1 15 0.7307 1.4389
3 1 16 -4.6863 0.1056
3 1 17 1.5711 -0.2378
3 1 18 -0.0812 -0.0610
3 1 19 -0.5714 -0.3568
3 2 1 -35.7491 -0.9344
3 2 2 -33.2328 -0.1890
3 2 3 27.5439 0.7466
3 2 4 -8.8699 -0.1150
3 2 5 -15.9589 -0.7986
3 2 6 5.6429 -0.0490
3 2 7 -10.6537 0.1855
3 2 8 -7.7806 0.0401
3 2 9 12.4121 -0.2448
3 2 10 4.2729 -0.0135
3 2 11 -3.2227 0.3979
3 2 12 3.4985 -0.1777
3 2 13 4.0784 -0.1897
3 2 14 7.7020 -0.0701
3 2 15 -2.8862 0.1197
3 2 16 -5.8708 0.0869
3 2 17 2.1330 0.0936
3 2 18 -2.9695 0.0920
3 2 19 1.1656 -0.0490
3 3 0 68.7095 0.2920
3 3 1 29.7817 -1.5415
3 3 2 -0.3343 0.0078
3 3 3 -71.6309 -0.7067
3 3 4 0.6454 -0.0156
3 3 5 81.3573 0.3406
3 3 6 -21.2946 0.0629
3 3 7 -63.4307 -0.4539
3 3 8 -9.1476 0.0014
3 3 9 17.8092 0.7687
3 3 10 -11.9502 0.0233
3 3 11 -10.0552 -0.3980
3 3 12 -11.8070 0.0273
3 3 13 4.0650 0.7363
3 3 14 8.3698 -0.0537
3 3 15 -0.0376 -0.9158
3 3 16 2.7963 -0.0784
3 3 17 -4.9040 0.7052
3 3 18 1.3932 0.0116
3 3 19 2.8703 -0.7201
3 4 1 -6.8559 1.1530
3 4 2 25.8394 0.1871
3 4 3 -10.8611 -1.4538
3 4 4 10.2049 0.1648
3 4 5 30.1277 0.9487
3 4 6 -2.5663 -0.0469
3 4 7 6.3463 -0.5905
3 4 8 1.4347 -0.0674
3 4 9 -14.5223 1.0898
3 4 10 -0.3631 0.1043
3 4 11 1.6617 -0.5700
3 4 12 -4.6292 0.1163
3 4 13 -6.3383 -0.1229
3 4 14 -5.7489 0.0151
3 4 15 4.5824 -0.2673
3 4 16 5.4618 -0.0702
3 4 17 -4.8035 0.4296
3 4 18 2.2770 0.0687
3 4 19 0.8530 0.1118
3 5 0 -48.4432 -0.3558
3 5 1 -12.9043 -0.1582
3 5 2 -6.4888 0.0951
3 5 3 29.2405 0.6590
3 5 4 1.7411 -0.1489
3 5 5 -50.8859 -0.1722
3 5 6 17.4994 -0.0478
3 5 7 62.7458 0.2970
3 5 8 7.4015 -0.0155
3 5 9 -17.6574 -0.6788
3 5 10 10.6864 0.0774
3 5 11 10.4203 0.6588
3 5 12 9.1559 -0.0270
3 5 13 -2.6144 -0.7777
3 5 14 -4.8204 -0.0380
3 5 15 -1.5754 0.6475
3 5 16 -4.1925 -0.0307
3 5 17 4.5296 -0.6827
3 5 18 -0.4058 0.0614
3 6 1 67.8855 -0.0629
3 6 2 -21.3713 -0.1313
3 6 3 -24.7443 0.6696
3 6 4 -7.6287 -0.0297
3 6 5 -33.3660 -1.1833
3 6 6 -4.2134 -0.1011
3 6 7 1.7933 0.2816
3 6 8 5.0356 0.0665
3 6 9 10.8828 -0.3584
3 6 10 -0.1223 -0.1033
3 6 11 3.9908 0.5076
3 6 12 3.4863 0.0864
3 6 13 0.9062 -0.2713
3 6 14 4.2322 -0.0302
3 6 15 0.3635 0.1909
3 6 16 -3.8982 0.0353
3 6 17 3.1123 -0.1017
3 6 18 -2.7418 -0.0215
3 7 0 35.7170 -0.0623
3 7 1 0.1561 1.6131
3 7 2 6.4884 0.0080
3 7 3 9.1192 -0.0534
3 7 4 -1.6857 0.1750
3 7 5 10.9207 -0.0611
3 7 6 -10.3251 -0.0332
3 7 7 -42.3586 -0.5671
3 7 8 -10.6439 0.0118
3 7 9 6.2558 0.3062
3 7 10 -6.4229 0.0005
3 7 11 -1.4464 -0.1595
3 7 12 -7.2645 0.0302
3 7 13 -1.1093 0.5648
3 7 14 1.2285 0.0134
3 7 15 -0.3868 -0.5001
3 7 16 6.3626 0.0069
3 7 17 0.6499 0.2254
3 7 18 -0.9120 0.0016
3 8 1 -68.2893 -0.4855
3 8 2 18.1445 0.0507
3 8 3 30.5897 0.1514
3 8 4 2.0003 -0.0309
3 8 5 28.2961 0.7305
3 8 6 10.0476 0.0545
3 8 7 -1.5408 0.1169
3 8 8 -4.9840 -0.0148
3 8 9 -6.5362 -0.1242
3 8 10 -3.4745 -0.0052
3 8 11 -10.8716 -0.2804
3 8 12 -2.0458 -0.1194
3 8 13 8.3599 0.2238
3 8 14 -2.8168 0.0444
3 8 15 -6.5377 0.0396
3 8 16 2.7916 -0.0856
3 8 17 0.7015 -0.1476
3 8 18 1.6238 -0.0603
3 9 0 -29.8008 0.3507
3 9 1 -2.6923 -0.4454
3 9 2 -0.2282 0.1225
3 9 3 -7.6497 -0.3087
3 9 4 -1.3750 -0.1253
3 9 5 -4.1786 0.1221
3 9 6 3.2546 0.1458
3 9 7 26.6470 0.1226
3 9 8 12.3527 -0.1742
3 9 9 5.8631 0.0874
3 9 10 3.6357 -0.0292
3 9 11 -7.0231 -0.0637
3 9 12 5.9908 -0.0548
3 9 13 1.8346 0.0016
3 9 14 -0.1325 0.0689
3 9 15 2.3458 -0.2139
3 9 16 -4.9798 -0.0153
3 9 17 -2.0867 0.2518
3 10 1 29.9969 0.1467
3 10 2 -12.7979 0.0241
3 10 3 -10.8087 -0.4511
3 10 4 -0.0146 0.0440
3 10 5 -22.3778 0.4221
3 10 6 -9.8433 0.0372
3 10 7 -5.6941 -0.3741
3 10 8 2.3731 -0.0116
3 10 9 4.3687 0.0921
3 10 10 4.3662 0.0135
3 10 11 13.4642 -0.2258
3 10 12 1.8756 0.1671
3 10 13 -10.1279 0.3291
3 10 14 1.4991 -0.0210
3 10 15 5.5513 -0.1620
3 10 16 -2.3525 0.1129
3 10 17 -1.8639 0.0658
3 11 0 17.5880 -0.2115
3 11 1 8.4464 -1.0153
3 11 2 1.5332 -0.2884
3 11 3 -6.0827 0.2229
3 11 4 0.3929 0.0849
3 11 5 16.4391 -0.1012
3 11 6 -0.5613 -0.0905
3 11 7 -25.2424 0.4947
3 11 8 -8.2493 0.1551
3 11 9 -7.4511 -0.4705
3 11 10 -1.8433 0.0104
3 11 11 7.2049 0.4731
3 11 12 -5.5219 0.0546
3 11 13 0.4444 -0.6601
3 11 14 0.4444 0.0055
3 11 15 -0.5912 0.6927
3 11 16 1.3484 -0.0774
3 11 17 -0.9244 -0.4680
3 12 1 0.1521 -0.0242
3 12 2 7.4170 -0.0008
3 12 3 -6.3445 0.8399
3 12 4 1.7961 -0.0151
3 12 5 22.3451 -1.2109
3 12 6 7.2634 0.0995
3 12 7 8.1785 0.5700
3 12 8 -3.9459 -0.0817
3 12 9 -5.0188 -0.3160
3 12 10 -0.3338 0.0061
3 12 11 -8.6812 0.5520
3 12 12 -2.4727 -0.1713
3 12 13 2.8485 -0.3776
3 12 14 -0.4980 0.0292
3 12 15 -0.0492 0.0562
3 12 16 1.8028 -0.0782
3 13 0 -5.2701 0.0189
3 13 1 -9.9978 1.0055
3 13 2 -5.9682 0.0420
3 13 3 6.7927 -0.2892
3 13 4 1.0141 0.0616
3 13 5 -21.0643 0.2927
3 13 6 2.2196 -0.0934
3 13 7 31.0966 -0.5607
3 13 8 2.8046 0.0700
3 13 9 -0.2481 0.5719
3 13 10 0.7657 -0.0561
3 13 11 -2.4210 -0.6693
3 13 12 4.2163 -0.0416
3 13 13 -2.8968 0.6126
3 13 14 -0.6611 -0.0645
3 13 15 -0.8459 -0.2441
3 13 16 1.1378 0.2432
3 14 1 -11.4100 0.4341
3 14 2 -5.1221 -0.0024
3 14 3 12.4756 -1.1204
3 14 4 -1.3035 -0.1139
3 14 5 -28.5569 0.8557
3 14 6 -6.9946 -0.0617
3 14 7 -1.3222 -0.4068
3 14 8 4.9490 0.0109
3 14 9 4.7985 0.3788
3 14 10 -1.4213 0.0548
3 14 11 2.1946 -0.4252
3 14 12 2.6609 -0.0443
3 14 13 4.8651 0.1909
3 14 14 0.0080 0.0684
3 14 15 -3.7640 0.0998
3 15 0 1.5870 0.1859
3 15 1 7.8952 0.1112
3 15 2 4.8539 0.0897
3 15 3 1.6950 0.3815
3 15 4 0.7519 -0.1257
3 15 5 15.2991 -0.3678
3 15 6 -2.2741 0.1505
3 15 7 -31.0483 0.1673
3 15 8 -2.0683 -0.0421
3 15 9 4.4377 -0.3122
3 15 10 -1.3259 -0.0007
3 15 11 -0.0052 0.3311
3 15 12 -1.0024 0.0002
3 15 13 3.4594 -0.3877
3 15 14 -0.0431 -0.0237
3 16 1 8.4255 -0.6126
3 16 2 3.5838 0.0303
3 16 3 -8.8896 0.7073
3 16 4 -0.1989 0.0447
3 16 5 27.0796 0.0137
3 16 6 6.6515 -0.0732
3 16 7 -2.0418 0.1383
3 16 8 -1.4166 0.1002
3 16 9 -3.5705 -0.1770
3 16 10 -1.3426 0.0173
3 16 11 -0.2815 0.2488
3 16 12 -1.7660 0.1752
3 16 13 -5.6177 -0.2946
3 17 0 0.4140 -0.1332
3 17 1 -6.4835 -0.9586
3 17 2 -3.3740 -0.0788
3 17 3 -3.8549 0.0197
3 17 4 -1.8155 0.0906
3 17 5 -10.3766 0.0359
3 17 6 -0.0295 -0.1215
3 17 7 21.9827 0.0978
3 17 8 4.1680 -0.0236
3 17 9 -0.7607 0.2098
3 17 10 1.3743 0.0281
3 17 11 -1.0729 -0.1522
3 17 12 -1.1138 0.0823
3 17 13 -2.4129 0.5436
3 18 1 -5.5031 0.0172
3 18 2 -1.0691 0.0351
3 18 3 3.7649 0.2518
3 18 4 -0.0729 0.0368
3 18 5 -16.9960 -0.4849
3 18 6 -5.4415 0.0315
3 18 7 -0.3372 0.0770
3 18 8 0.0290 -0.0246
3 18 9 2.6234 -0.1701
3 18 10 1.8807 -0.1118
3 18 11 1.2026 0.0447
3 18 12 0.9943 -0.0974
3 19 0 -2.1753 -0.1501
3 19 1 6.3540 0.2845
3 19 2 2.7122 0.1955
3 19 3 0.8988 -0.3484
3 19 4 1.9941 -0.0460
3 19 5 5.8752 0.1971
3 19 6 -0.0716 0.0471
3 19 7 -10.4557 -0.1011
3 19 8 -3.3211 -0.0712
3 19 9 -2.7999 -0.1788
3 19 10 -0.4029 0.0121
3 20 1 6.3721 0.7026
3 20 2 0.2767 -0.1062
3 20 3 -2.0125 -1.0013
3 20 4 -0.1824 0.0023
3 20 5 10.0097 0.7990
3 20 6 4.1062 0.0466
3 20 7 -0.1955 -0.5082
3 20 8 -1.7067 -0.0302
3 20 9 -1.9735 0.4248
3 21 0 0.9172 -0.0446
3 21 1 -4.2272 0.4886
3 21 2 -0.8470 -0.0580
3 21 3 -1.6305 0.1417
3 21 4 -1.6546 -0.0020
3 21 5 0.3061 -0.1241
3 21 6 1.2719 0.0133
3 21 7 2.7982 0.2904
3 22 1 -2.7965 -0.5708
3 22 2 -0.7775 -0.0596
3 22 3 -0.1469 0.8221
3 22 4 0.5317 0.0830
3 22 5 -5.4009 -0.9316
4 0 0 -146.7956 -1.4893
4 0 2 161.4909 0.4632
4 0 4 -59.8721 0.5453
4 0 6 29.1972 -0.2795
4 0 8 34.2131 -0.2771
4 0 10 -12.5201 -0.1281
4 0 12 35.2860 0.1579
4 0 14 -31.8536 -0.4713
4 0 16 3.6327 -0.2638
4 0 18 0.5478 0.3526
4 1 1 3.3352 -0.2010
4 1 2 -95.5656 -0.6297
4 1 3 -0.1232 -0.3589
4 1 4 -0.4425 -0.1221
4 1 5 -2.7193 -0.1611
4 1 6 14.9129 0.7136
4 1 7 3.5016 0.1202
4 1 8 23.5386 -0.0770
4 1 9 -0.5173 0.2140
4 1 10 -3.5868 0.0395
4 1 11 -2.2858 0.0006
4 1 12 24.9736 -0.3245
4 1 13 1.8726 -0.2916
4 1 14 12.7086 0.1449
4 1 15 -0.7995 -0.0662
4 1 16 -10.7696 -0.2155
4 1 17 -0.1542 0.2031
4 1 18 -1.5232 0.0636
4 1 19 0.8411 0.2183
4 2 0 42.7039 0.9110
4 2 1 -5.4279 -0.8992
4 2 2 -90.8075 0.0563
4 2 3 9.7376 -0.1892
4 2 4 36.1749 -0.5603
4 2 5 -6.0405 0.0269
4 2 6 -11.9038 0.0060
4 2 7 1.4480 0.0800
4 2 8 -39.3441 0.3379
4 2 9 3.4839 -0.1485
4 2 10 8.6454 0.4150
4 2 11 0.7287 -0.1830
4 2 12 -31.2472 -0.0295
4 2 13 -4.4104 -0.0984
4 2 14 26.1632 0.0158
4 2 15 4.3230 0.0239
4 2 16 -1.0135 -0.1135
4 2 17 -2.2678 0.0785
4 2 18 -0.1328 0.2144
4 2 19 1.2293 0.0016
4 3 1 1.6129 0.3873
4 3 2 42.1594 -0.0413
4 3 3 1.4634 0.1490
4 3 4 14.7163 0.0197
4 3 5 -0.3795 -0.1546
4 3 6 -4.9779 -0.0809
4 3 7 -3.2882 0.0242
4 3 8 -13.3445 -0.1089
4 3 9 -1.4360 -0.1077
4 3 10 -3.0852 -0.0024
4 3 11 5.6135 0.0932
4 3 12 -18.2028 0.3684
4 3 13 -3.2170 0.0159
4 3 14 -14.0706 0.1804
4 3 15 1.3890 0.1603
4 3 16 6.7724 -0.1873
4 3 17 -0.1675 -0.0467
4 3 18 3.3314 -0.1048
4 3 19 -1.3565 -0.1170
4 4 0 77.4796 0.5741
4 4 1 -1.2802 0.6925
4 4 2 -2.6308 -0.3292
4 4 3 0.9879 0.1799
4 4 4 0.6829 -0.3171
4 4 5 3.4221 0.1399
4 4 6 -9.4565 0.2105
4 4 7 -4.9961 -0.2963
4 4 8 39.4181 -0.2674
4 4 9 -1.1472 -0.0045
4 4 10 -0.5271 -0.1610
4 4 11 -2.9294 0.1762
4 4 12 21.9646 -0.1304
4 4 13 4.2045 0.1766
4 4 14 -14.8868 0.1754
4 4 15 -2.4495 -0.1400
4 4 16 -3.8894 0.1348
4 4 17 0.5914 0.0207
4 4 18 0.7537 -0.2232
4 4 19 -1.2082 0.0138
4 5 1 -17.2715 -0.1175
4 5 2 -22.8615 0.5464
4 5 3 -2.1443 -0.1031
4 5 4 -23.6302 0.4480
4 5 5 10.4803 0.0132
4 5 6 5.3721 -0.6245
4 5 7 -4.0087 -0.0816
4 5 8 1.3331 -0.0046
4 5 9 4.5290 0.0716
4 5 10 9.2744 -0.0501
4 5 11 -4.4390 -0.0156
4 5 12 12.0461 0.0445
4 5 13 0.8810 -0.0197
4 5 14 10.8918 -0.2776
4 5 15 -0.8610 -0.1015
4 5 16 -2.0846 0.1122
4 5 17 0.8749 -0.1102
4 5 18 -5.4950 0.0848
4 6 0 -36.2448 -0.6967
4 6 1 7.9630 0.4116
4 6 2 2.8105 0.3529
4 6 3 -12.8509 -0.1411
4 6 4 -8.8880 0.2280
4 6 5 0.6390 -0.0523
4 6 6 2.9073 0.1105
4 6 7 8.9266 0.0236
4 6 8 -26.3701 0.1080
4 6 9 -3.5222 0.0906
4 6 10 -4.2862 -0.0953
4 6 11 3.5645 -0.0144
4 6 12 -12.8184 -0.0537
4 6 13 -0.5739 -0.1352
4 6 14 7.8239 0.1193
4 6 15 -0.7318 -0.0041
4 6 16 5.9070 0.1664
4 6 17 1.3250 -0.0294
4 6 18 -2.2216 -0.3336
4 7 1 21.8707 -0.3313
4 7 2 37.1138 -0.0132
4 7 3 0.0707 0.2357
4 7 4 21.1794 -0.3112
4 7 5 -12.6961 0.2552
4 7 6 -0.5795 0.0255
4 7 7 6.0704 0.1357
4 7 8 -5.4460 0.3034
4 7 9 -3.0839 -0.0895
4 7 10 -4.7548 0.0970
4 7 11 0.9750 -0.0649
4 7 12 -13.7910 -0.2160
4 7 13 -0.1596 0.0083
4 7 14 -4.0998 0.0255
4 7 15 1.5054 0.0316
4 7 16 1.1741 0.1646
4 7 17 -0.8435 0.1430
4 7 18 5.5958 -0.0897
4 8 0 -27.1351 -0.7583
4 8 1 -4.9545 -0.7720
4 8 2 17.7983 0.0724
4 8 3 9.8634 0.0439
4 8 4 -0.3412 0.0113
4 8 5 -0.3604 -0.0018
4 8 6 10.7940 0.3078
4 8 7 -7.8436 0.0433
4 8 8 17.9365 -0.4058
4 8 9 0.7973 0.0547
4 8 10 3.0566 0.1359
4 8 11 1.5289 -0.0994
4 8 12 8.1345 0.0723
4 8 13 -2.7813 0.0475
4 8 14 -6.8260 -0.1604
4 8 15 0.3556 0.0960
4 8 16 -4.7113 -0.2816
4 8 17 -0.3535 -0.0205
4 8 18 2.0005 0.3560
4 9 1 -11.6796 0.1931
4 9 2 -33.0081 -0.3126
4 9 3 0.4774 -0.0625
4 9 4 -11.0101 -0.0822
4 9 5 8.2435 -0.1975
4 9 6 -20.9409 0.2047
4 9 7 -1.8183 -0.1000
4 9 8 18.0896 0.2278
4 9 9 0.2174 -0.0435
4 9 10 -4.5943 -0.3439
4 9 11 -1.6286 0.0616
4 9 12 14.9035 0.3218
4 9 13 3.1924 0.1353
4 9 14 3.8699 -0.2918
4 9 15 -2.4842 -0.0236
4 9 16 -5.0375 0.2236
4 9 17 0.0159 -0.1238
4 10 0 20.3041 1.1673
4 10 1 -1.2137 -0.0618
4 10 2 -8.5019 -0.4744
4 10 3 -0.9666 -0.0127
4 10 4 5.9932 0.4021
4 10 5 -2.2608 -0.0185
4 10 6 -10.7124 -0.6966
4 10 7 3.1398 0.0404
4 10 8 -15.3310 0.2279
4 10 9 6.2649 -0.0254
4 10 10 -0.0742 -0.0126
4 10 11 -6.4484 0.0306
4 10 12 -9.1170 0.3159
4 10 13 2.6535 0.0453
4 10 14 7.3829 -0.0765
4 10 15 1.0505 -0.0745
4 10 16 2.4146 0.0863
4 10 17 -0.6220 0.0060
4 11 1 -0.2961 0.2625
4 11 2 22.9795 -0.0026
4 11 3 1.8803 -0.1984
4 11 4 -5.7699 -0.0206
4 11 5 -4.8625 -0.0489
4 11 6 34.6252 0.1751
4 11 7 -1.6462 -0.0700
4 11 8 -18.4786 -0.3887
4 11 9 0.1200 0.1534
4 11 10 7.5961 0.1283
4 11 11 4.0067 0.0004
4 11 12 -8.9920 -0.1795
4 11 13 -4.2715 -0.0705
4 11 14 -6.8223 0.2640
4 11 15 1.1683 -0.0772
4 11 16 5.8392 -0.1411
4 12 0 -16.6761 0.0228
4 12 1 3.7094 0.6702
4 12 2 6.7843 0.0766
4 12 3 -3.2542 0.0248
4 12 4 -7.7831 -0.1279
4 12 5 3.9219 0.0274
4 12 6 6.7389 -0.0345
4 12 7 -1.4116 0.0579
4 12 8 8.6658 0.2292
4 12 9 -5.9950 -0.1827
4 12 10 -1.3270 0.0500
4 12 11 4.2050 0.0444
4 12 12 9.6429 -0.3926
4 12 13 0.3409 -0.0880
4 12 14 -6.2314 -0.0207
4 12 15 -1.4874 0.1077
4 12 16 0.1677 0.0209
4 13 1 3.7988 -0.3441
4 13 2 -23.5548 0.0933
4 13 3 -3.1277 0.1853
4 13 4 15.6809 0.2210
4 13 5 4.6314 0.1232
4 13 6 -28.2887 -0.0344
4 13 7 0.5035 0.1033
4 13 8 9.0292 -0.0673
4 13 9 0.7172 -0.0801
4 13 10 -3.6640 -0.0047
4 13 11 -3.1084 -0.0469
4 13 12 3.9145 0.0297
4 13 13 2.4009 -0.1217
4 13 14 3.3874 0.2634
4 13 15 0.1090 0.1406
4 14 0 20.3645 -0.7512
4 14 1 -1.7464 -0.2206
4 14 2 -6.4574 0.3481
4 14 3 0.4694 -0.0061
4 14 4 4.0176 -0.3150
4 14 5 -2.5875 0.0609
4 14 6 -3.9110 0.3949
4 14 7 2.9668 -0.1581
4 14 8 -4.7903 -0.0300
4 14 9 0.0470 0.0842
4 14 10 0.0265 -0.1056
4 14 11 -0.2178 -0.0050
4 14 12 -2.7173 0.0266
4 14 13 -1.8328 0.0698
4 14 14 2.5051 0.2750
4 14 15 1.3133 -0.1415
4 15 1 -1.9186 0.0127
4 15 2 16.4771 0.0015
4 15 3 3.6354 -0.0232
4 15 4 -9.3476 -0.1246
4 15 5 -6.8417 0.0447
4 15 6 17.3532 -0.1251
4 15 7 3.0726 0.0490
4 15 8 -2.4108 0.0638
4 15 9 -1.2200 -0.0031
4 15 10 -1.9010 0.1123
4 15 11 1.0679 -0.0204
4 15 12 -2.9946 0.0254
4 15 13 -1.0565 0.2655
4 15 14 0.4721 -0.2845
4 16 0 -2.6119 0.3948
4 16 1 -0.4386 -0.4492
4 16 2 -6.8077 -0.1397
4 16 3 2.4047 -0.0520
4 16 4 1.7290 0.1218
4 16 5 1.1404 -0.0769
4 16 6 1.2252 -0.0947
4 16 7 -3.7340 0.0457
4 16 8 5.6828 -0.0715
4 16 9 2.5050 0.1568
4 16 10 2.8227 -0.0827
4 16 11 -0.0100 -0.0087
4 16 12 -5.4799 0.0148
4 16 13 0.8696 -0.0169
4 17 1 3.2787 0.2096
4 17 2 -4.6028 -0.0235
4 17 3 -4.3026 -0.0886
4 17 4 1.2130 -0.0295
4 17 5 6.7490 -0.1657
4 17 6 -11.9078 0.0395
4 17 7 -3.7587 -0.0662
4 17 8 2.6841 -0.0142
4 17 9 0.8412 -0.0389
4 17 10 2.3571 0.3143
4 17 11 -0.0019 0.0858
4 17 12 2.5372 -0.2498
4 17 13 -0.0156 -0.3367
4 18 0 -6.9503 0.0858
4 18 1 -0.2858 0.3664
4 18 2 10.0976 -0.0430
4 18 3 -0.4527 0.0239
4 18 4 -1.1071 -0.1246
4 18 5 -1.3642 -0.0163
4 18 6 -2.5804 0.0946
4 18 7 2.3096 0.0860
4 18 8 -3.0069 -0.1721
4 18 9 -1.2456 -0.0567
4 18 10 -2.5266 0.1623
4 18 11 -0.8133 -0.1034
4 18 12 5.5760 0.2551
4 19 1 -5.2344 -0.1072
4 19 2 1.5926 0.1002
4 19 3 2.8255 0.0796
4 19 4 0.0951 0.1042
4 19 5 -3.0965 0.0310
4 19 6 5.7155 -0.0344
4 19 7 1.5166 0.0623
4 19 8 -3.2242 -0.0076
4 19 9 0.1830 -0.0143
4 19 10 0.0695 -0.4491
4 20 0 1.7306 -0.2007
4 20 1 0.7473 0.2069
4 20 2 -3.2475 -0.0342
4 20 3 -0.8191 0.1312
4 20 4 -0.5725 0.3061
4 20 5 1.2300 -0.1007
4 20 6 3.6407 -0.1533
4 20 7 -0.9261 0.0268
4 20 8 -0.7272 0.1578
4 20 9 0.4118 -0.1428
4 21 1 2.8212 0.0168
4 21 2 -2.1174 -0.1035
4 21 3 -0.7102 0.0038
4 21 4 -0.0564 -0.0897
4 21 5 0.8475 0.0792
4 21 6 2.0564 0.0182
4 21 7 -0.1139 -0.1798
4 22 0 -0.2304 0.1319
4 22 1 0.4527 -0.4869
4 22 2 0.4567 -0.0242
4 22 3 -0.2833 -0.1310
4 22 4 -0.5156 -0.1617
4 22 5 -1.1394 0.2262
5 0 2 -24.7388 -0.8799
5 0 4 -12.1139 -0.0397
5 0 6 -12.0977 0.8524
5 0 8 -1.3088 0.1669
5 0 10 6.5921 -0.4774
5 0 12 -2.8406 -0.0489
5 0 14 15.6222 0.2182
5 0 16 -6.2059 -0.0213
5 0 18 -1.5432 -0.2671
5 1 0 14.7325 0.9799
5 1 1 7.1805 0.6219
5 1 2 32.6063 -0.5830
5 1 3 -9.1135 -0.5263
5 1 4 -5.1284 0.0443
5 1 5 3.6750 -0.4943
5 1 6 -10.5477 -0.2534
5 1 7 1.5248 0.3519
5 1 8 -19.9275 0.1711
5 1 9 -3.6435 0.1941
5 1 10 1.4035 0.0467
5 1 11 1.7213 -0.1975
5 1 12 -16.9726 0.1434
5 1 13 1.2531 -0.2258
5 1 14 8.6419 -0.1085
5 1 15 -0.2942 -0.0308
5 1 16 3.2711 0.0466
5 1 17 1.6080 0.0873
5 1 18 2.4589 -0.0081
5 1 19 -1.9972 0.0942
5 2 1 10.3693 0.1667
5 2 2 29.1336 0.1921
5 2 3 0.4987 0.2177
5 2 4 7.7326 -0.0223
5 2 5 -7.6946 0.1635
5 2 6 10.4756 -0.2332
5 2 7 7.2136 -0.0782
5 2 8 2.8100 -0.1905
5 2 9 -2.4520 0.6627
5 2 10 -6.0465 0.0553
5 2 11 -0.8310 -0.0951
5 2 12 0.0840 -0.0821
5 2 13 -1.1071 -0.2461
5 2 14 -12.0711 0.2001
5 2 15 0.1489 -0.0225
5 2 16 4.9104 -0.1667
5 2 17 3.6695 0.2989
5 2 18 1.5718 0.1691
5 2 19 0.2565 -0.1611
5 3 0 -29.2191 0.5662
5 3 1 -14.0274 0.1213
5 3 2 -21.1563 0.1010
5 3 3 13.5957 0.4227
5 3 4 8.2279 -0.3298
5 3 5 -0.3130 0.2075
5 3 6 5.8973 0.0874
5 3 7 -7.2600 -0.1764
5 3 8 16.5809 0.1147
5 3 9 6.1328 -0.4188
5 3 10 3.4033 -0.0697
5 3 11 -1.9129 0.4845
5 3 12 12.2557 -0.2447
5 3 13 -2.7481 -0.0915
5 3 14 -7.6493 0.0695
5 3 15 -0.1565 -0.0107
5 3 16 -2.7150 0.0998
5 3 17 -2.4997 0.0047
5 3 18 -1.0476 -0.0291
5 3 19 3.2515 0.0614
5 4 1 -23.0076 -0.2949
5 4 2 -33.2834 0.3813
5 4 3 11.1686 0.2033
5 4 4 -0.8341 0.2942
5 4 5 -1.4563 -0.2852
5 4 6 -9.3540 -0.0783
5 4 7 0.2656 0.0563
5 4 8 -3.2764 0.1044
5 4 9 0.9702 -0.4661
5 4 10 4.9179 0.0452
5 4 11 -4.0250 0.0986
5 4 12 3.6553 0.0012
5 4 13 6.1354 -0.0367
5 4 14 7.2709 -0.0832
5 4 15 -1.8954 0.0150
5 4 16 -2.7699 -0.0082
5 4 17 -5.0742 -0.1710
5 4 18 -2.5571 0.2203
5 4 19 0.0970 0.0663
5 5 0 36.5729 -1.3192
5 5 1 4.8080 -0.1577
5 5 2 9.7271 0.2213
5 5 3 5.6945 -0.2621
5 5 4 -6.0865 0.0076
5 5 5 -12.2758 0.0470
5 5 6 -5.2963 0.1298
5 5 7 9.5696 -0.0804
5 5 8 -12.9021 0.1634
5 5 9 -0.1917 0.4417
5 5 10 -5.8368 0.0258
5 5 11 -3.2113 -0.2590
5 5 12 -9.0932 -0.0488
5 5 13 4.3157 0.0698
5 5 14 5.8743 0.0079
5 5 15 0.6021 -0.0914
5 5 16 3.9036 -0.0206
5 5 17 1.2168 -0.0513
5 5 18 0.1174 -0.0241
5 6 1 6.4122 0.2870
5 6 2 27.3890 -0.3072
5 6 3 -12.3337 -0.2912
5 6 4 -0.6555 -0.3687
5 6 5 10.8324 0.3514
5 6 6 10.6443 -0.0740
5 6 7 -7.8142 -0.0189
5 6 8 0.8087 0.0106
5 6 9 1.0836 0.0947
5 6 10 -3.6276 0.0194
5 6 11 6.1434 0.1151
5 6 12 -4.5289 0.0981
5 6 13 -7.9539 0.3036
5 6 14 -7.0225 -0.1369
5 6 15 2.5225 -0.1034
5 6 16 2.3315 0.0252
5 6 17 4.5032 -0.1024
5 6 18 3.2966 -0.0062
5 7 0 -28.2098 0.3392
5 7 1 6.5355 -0.1009
5 7 2 -6.3598 -0.0660
5 7 3 -21.6900 0.0848
5 7 4 2.1764 0.1699
5 7 5 14.2109 -0.0697
5 7 6 5.6013 -0.1323
5 7 7 -4.9126 0.0160
5 7 8 12.3467 -0.1499
5 7 9 -3.1510 -0.2359
5 7 10 3.3621 -0.0679
5 7 11 4.6147 0.0370
5 7 12 10.2292 0.1419
5 7 13 -3.8194 -0.0711
5 7 14 -5.0747 -0.0371
5 7 15 -1.3335 0.3029
5 7 16 -4.8480 -0.1268
5 7 17 -0.0033 -0.1423
5 7 18 -0.6520 0.0552
5 8 1 5.4249 -0.0816
5 8 2 -16.5454 0.0795
5 8 3 5.3691 0.1847
5 8 4 -1.8523 -0.0019
5 8 5 -7.1738 -0.0990
5 8 6 -10.2562 0.1076
5 8 7 4.8719 -0.0316
5 8 8 0.3767 -0.0151
5 8 9 -0.4468 -0.0917
5 8 10 2.5034 0.1999
5 8 11 -2.9896 -0.0903
5 8 12 3.9986 -0.0806
5 8 13 4.9837 -0.2207
5 8 14 8.1223 0.0213
5 8 15 -1.7535 0.0785
5 8 16 -3.0577 0.0075
5 8 17 -2.4316 0.0648
5 8 18 -1.6824 -0.2927
5 9 0 17.6193 0.7423
5 9 1 -2.1025 -0.0029
5 9 2 5.9312 -0.0100
5 9 3 12.1362 0.0177
5 9 4 -1.4512 -0.0642
5 9 5 -8.5631 -0.0157
5 9 6 -2.7595 -0.0128
5 9 7 5.9144 0.2611
5 9 8 -12.9007 -0.2278
5 9 9 -3.6029 -0.1019
5 9 10 -0.2714 0.1223
5 9 11 1.5286 0.1029
5 9 12 -10.3275 0.0827
5 9 13 -0.0070 0.0177
5 9 14 3.5552 0.0675
5 9 15 2.1203 0.0413
5 9 16 3.8476 0.0506
5 9 17 -0.3846 -0.0325
5 10 1 11.6072 -0.1731
5 10 2 9.1690 -0.0055
5 10 3 -2.1854 0.1358
5 10 4 3.3128 0.3543
5 10 5 -2.5287 -0.2820
5 10 6 7.8655 -0.1190
5 10 7 0.7697 0.0940
5 10 8 -0.0544 -0.0516
5 10 9 -1.9499 -0.0004
5 10 10 -2.7712 -0.2604
5 10 11 0.8808 0.0691
5 10 12 -1.4386 0.0251
5 10 13 -2.0060 -0.1157
5 10 14 -7.5606 0.0068
5 10 15 0.9249 0.1455
5 10 16 2.9776 0.2636
5 10 17 0.1286 0.0889
5 11 0 -12.4954 -0.5522
5 11 1 -5.8762 -0.0146
5 11 2 -4.6374 -0.0503
5 11 3 0.5776 0.0035
5 11 4 2.9029 0.0435
5 11 5 7.8560 0.0741
5 11 6 -0.4681 0.0186
5 11 7 -10.7708 -0.1532
5 11 8 11.7924 0.2341
5 11 9 8.1097 0.1445
5 11 10 -1.0279 -0.0446
5 11 11 -3.2002 -0.2995
5 11 12 6.8414 -0.0867
5 11 13 -0.4144 0.1172
5 11 14 -0.6441 -0.1317
5 11 15 0.5779 -0.4433
5 11 16 -1.8620 0.1117
5 12 1 -13.6790 0.2414
5 12 2 -6.6250 0.0013
5 12 3 -2.2193 -0.2863
5 12 4 -3.0119 -0.0890
5 12 5 6.4629 0.2299
5 12 6 -5.1538 0.1194
5 12 7 -1.7643 -0.0328
5 12 8 -0.5076 0.0687
5 12 9 1.9779 0.2632
5 12 10 3.6608 -0.0321
5 12 11 0.7951 -0.0688
5 12 12 -1.2954 -0.0033
5 12 13 -0.0146 0.1280
5 12 14 5.5688 0.1599
5 12 15 0.0635 -0.1698
5 12 16 -1.7657 -0.4116
5 13 0 7.2086 -0.4194
5 13 1 3.0523 -0.0436
5 13 2 6.2273 0.0321
5 13 3 0.4933 0.0757
5 13 4 -5.7712 0.0231
5 13 5 -7.0843 -0.0523
5 13 6 2.3435 0.0782
5 13 7 8.4924 -0.0405
5 13 8 -8.4549 -0.0003
5 13 9 -4.0388 -0.0749
5 13 10 -0.3715 -0.0566
5 13 11 -2.1336 0.2749
5 13 12 -3.2859 -0.0941
5 13 13 3.5552 -0.0168
5 13 14 -0.5196 0.1735
5 13 15 -2.3570 0.1479
5 14 1 3.5943 -0.2676
5 14 2 5.3686 -0.0150
5 14 3 0.6953 0.1707
5 14 4 3.4859 -0.2937
5 14 5 -0.4511 -0.1093
5 14 6 2.0414 -0.0063
5 14 7 -2.3850 0.1977
5 14 8 1.8360 -0.0102
5 14 9 1.9888 -0.3612
5 14 10 -2.4625 0.1284
5 14 11 -2.9323 0.0200
5 14 12 -0.2707 -0.0315
5 14 13 -0.1747 0.0341
5 14 14 -2.8706 -0.0633
5 14 15 0.1665 -0.0629
5 15 0 -1.1556 0.7078
5 15 1 0.7068 0.0994
5 15 2 -8.6224 -0.0006
5 15 3 -1.7096 -0.1018
5 15 4 5.9359 -0.1923
5 15 5 3.5677 -0.0042
5 15 6 -1.4077 0.0448
5 15 7 -4.0515 -0.1398
5 15 8 3.7816 -0.0977
5 15 9 -0.2338 0.2291
5 15 10 3.9117 0.1053
5 15 11 4.9944 -0.1728
5 15 12 1.2281 -0.0022
5 15 13 -2.8185 0.1984
5 15 14 0.1576 -0.0690
5 16 1 -6.2423 0.0762
5 16 2 -3.3019 -0.0432
5 16 3 4.2601 0.0011
5 16 4 -3.8369 0.1906
5 16 5 -3.9516 0.0494
5 16 6 -1.7358 -0.0388
5 16 7 4.6312 -0.2328
5 16 8 -1.5662 0.0396
5 16 9 -2.9501 0.1396
5 16 10 0.0660 -0.0313
5 16 11 1.6326 -0.0390
5 16 12 3.2636 0.1383
5 16 13 1.8466 -0.0254
5 17 0 -0.6488 0.1288
5 17 1 0.5593 0.1126
5 17 2 6.7202 -0.1221
5 17 3 -0.4951 -0.0905
5 17 4 -1.9700 0.1908
5 17 5 -3.1933 0.0605
5 17 6 -0.4153 -0.1943
5 17 7 2.2435 0.1383
5 17 8 -2.1604 0.0232
5 17 9 1.7868 -0.0547
5 17 10 -4.6504 0.0219
5 17 11 -3.5987 -0.0565
5 17 12 -0.2169 0.0884
5 18 1 6.6279 0.1744
5 18 2 1.8076 0.1373
5 18 3 -0.7202 -0.0587
5 18 4 2.1025 0.0327
5 18 5 0.4376 0.0944
5 18 6 4.3273 0.0467
5 18 7 -1.1036 -0.1543
5 18 8 -0.7377 -0.1982
5 18 9 -1.3184 0.1949
5 18 10 0.4680 0.0833
5 18 11 0.8780 -0.0319
5 19 0 -0.3128 -0.7737
5 19 1 -1.4215 0.0018
5 19 2 -3.3887 0.1493
5 19 3 0.7307 0.1383
5 19 4 -0.0369 0.0353
5 19 5 3.2945 0.0034
5 19 6 -0.1786 0.0448
5 19 7 -0.3386 0.0313
5 19 8 3.2400 0.0974
5 19 9 -1.9210 -0.1792
5 19 10 1.8923 -0.1715
5 20 1 -2.2578 -0.1542
5 20 2 -0.9313 -0.0679
5 20 3 -2.9555 -0.0849
5 20 4 -1.2047 -0.0997
5 20 5 2.0623 -0.0223
5 20 6 -3.5735 -0.0336
5 20 7 -1.1721 0.2636
5 20 8 1.3912 0.1811
5 20 9 2.4082 -0.1793
5 21 0 0.1242 0.5585
5 21 1 0.9799 -0.1103
5 21 2 1.9199 0.0364
5 21 3 -0.7932 -0.0890
5 21 4 -0.5849 -0.1918
5 21 5 -1.5468 -0.1062
5 21 6 0.3555 0.1113
5 21 7 0.0260 0.0113
5 22 1 0.8364 0.0710
5 22 2 0.0803 -0.0166
5 22 3 1.8997 0.2565
5 22 4 1.5758 0.0501
5 22 5 -1.0726 -0.0874
6 0 0 246.4895 0.8136
6 0 2 -126.5584 -0.1051
6 0 4 27.2000 0.0693
6 0 6 -28.9086 -0.5087
6 0 8 -26.9713 0.3851
6 0 10 11.5367 -0.3091
6 0 12 -19.5012 0.0906
6 0 14 19.4129 -0.2283
6 0 16 -1.5409 -0.0180
6 0 18 1.5507 0.2573
6 1 1 0.2327 -0.3108
6 1 2 91.3975 0.1495
6 1 3 -4.6325 0.1563
6 1 4 -32.7210 -0.0110
6 1 5 2.8187 -0.2935
6 1 6 32.9092 0.4639
6 1 7 -4.9322 0.1300
6 1 8 -32.2296 -0.2906
6 1 9 4.4300 0.5516
6 1 10 8.3577 0.3201
6 1 11 1.1044 0.0797
6 1 12 -18.0751 -0.4483
6 1 13 -2.2872 -0.8108
6 1 14 -6.8778 0.2670
6 1 15 0.5816 -0.0338
6 1 16 11.5046 -0.3678
6 1 17 -0.5673 0.4597
6 1 18 1.1615 0.2664
6 1 19 -0.3971 -0.0676
6 2 0 -189.0274 -0.5091
6 2 1 2.8062 -1.0587
6 2 2 89.4425 0.5389
6 2 3 1.3482 -0.0721
6 2 4 -16.7911 -0.5453
6 2 5 1.9107 0.2314
6 2 6 26.7450 0.5173
6 2 7 -4.5758 -0.2625
6 2 8 22.3935 -0.2451
6 2 9 -4.3934 0.0671
6 2 10 -8.1688 0.5702
6 2 11 2.7477 -0.0211
6 2 12 17.8901 -0.2565
6 2 13 0.9555 0.1456
6 2 14 -16.7434 0.1372
6 2 15 -1.3176 -0.2400
6 2 16 0.1434 -0.1039
6 2 17 1.1043 0.1452
6 2 18 -0.8796 0.0015
6 2 19 -1.2681 -0.0172
6 3 1 -3.3849 0.3632
6 3 2 -54.0515 -0.0277
6 3 3 8.4528 -0.3434
6 3 4 1.9230 0.0566
6 3 5 -2.4639 0.1286
6 3 6 -11.4406 -0.2343
6 3 7 11.4552 -0.0271
6 3 8 15.4453 0.2561
6 3 9 -10.0153 -0.2426
6 3 10 -1.3107 -0.3492
6 3 11 -3.0435 0.0210
6 3 12 12.6820 0.4368
6 3 13 4.4686 0.2273
6 3 14 7.5141 -0.1689
6 3 15 -1.5535 0.1198
6 3 16 -9.5158 0.2135
6 3 17 1.2154 -0.2230
6 3 18 -1.4062 -0.2145
6 3 19 1.2797 0.0855
6 4 0 81.3177 -0.3309
6 4 1 0.4365 0.7470
6 4 2 -22.4708 -0.2389
6 4 3 -8.9357 0.1407
6 4 4 0.3363 0.2908
6 4 5 -4.8368 -0.0769
6 4 6 -19.4287 -0.0648
6 4 7 11.7672 -0.1788
6 4 8 -18.2251 -0.1815
6 4 9 3.3378 0.1690
6 4 10 2.9536 -0.0857
6 4 11 0.9333 0.2337
6 4 12 -12.5304 0.0279
6 4 13 -1.9716 -0.1081
6 4 14 9.6873 0.0640
6 4 15 -0.0755 -0.1330
6 4 16 3.6679 -0.0235
6 4 17 0.2645 -0.0434
6 4 18 -1.1956 -0.1094
6 5 1 12.5267 0.1044
6 5 2 23.3752 -0.1916
6 5 3 -9.3211 -0.0908
6 5 4 14.5086 0.0020
6 5 5 -5.6297 -0.0810
6 5 6 4.6286 -0.3395
6 5 7 -8.7283 0.0497
6 5 8 -4.5873 0.0891
6 5 9 8.5283 0.0757
6 5 10 -5.9931 -0.0523
6 5 11 5.1400 0.0321
6 5 12 -6.7079 0.2061
6 5 13 -4.1931 0.0225
6 5 14 -6.5133 -0.2797
6 5 15 2.5962 -0.0595
6 5 16 5.7286 0.1902
6 5 17 -1.7242 -0.1013
6 5 18 3.9096 -0.0617
6 6 0 -26.6766 0.8273
6 6 1 -4.5629 0.6340
6 6 2 -6.4618 -0.2318
6 6 3 19.0417 -0.2550
6 6 4 2.1715 0.3025
6 6 5 1.5822 -0.0544
6 6 6 11.4950 -0.4377
6 6 7 -15.4990 0.0337
6 6 8 18.0708 0.3789
6 6 9 -0.1078 -0.2218
6 6 10 2.0142 -0.2707
6 6 11 -5.5824 -0.0934
6 6 12 4.3683 0.1299
6 6 13 2.5277 0.1127
6 6 14 -3.0996 -0.1578
6 6 15 1.2046 0.1491
6 6 16 -5.7437 0.0380
6 6 17 -1.7562 0.0237
6 6 18 1.9402 0.2763
6 7 1 -19.9813 -0.4093
6 7 2 -20.4212 0.1767
6 7 3 13.4929 0.3955
6 7 4 -6.3183 0.0297
6 7 5 11.0801 0.3003
6 7 6 -13.3087 0.5118
6 7 7 2.8238 -0.1157
6 7 8 4.5328 -0.3363
6 7 9 -5.9224 -0.1336
6 7 10 7.2405 0.3906
6 7 11 -6.5426 -0.1398
6 7 12 5.1011 -0.4855
6 7 13 4.2255 0.0506
6 7 14 4.1014 0.4142
6 7 15 -2.9811 0.0116
6 7 16 -3.4706 -0.4123
6 7 17 1.7793 0.1569
6 7 18 -4.5486 0.0721
6 8 0 31.4620 -0.7946
6 8 1 3.5816 -0.9227
6 8 2 -2.0491 0.8265
6 8 3 -19.3693 0.1093
6 8 4 4.0268 -0.7526
6 8 5 0.4900 0.0660
6 8 6 -8.3159 0.7282
6 8 7 15.0722 0.2312
6 8 8 -13.9020 -0.6044
6 8 9 0.7302 0.0942
6 8 10 -6.3005 0.4379
6 8 11 4.6750 -0.0352
6 8 12 -0.0079 -0.1468
6 8 13 -2.7745 -0.1006
6 8 14 2.0838 0.1834
6 8 15 1.1138 -0.0012
6 8 16 3.2020 0.0625
6 8 17 0.3964 -0.0914
6 9 1 13.0808 0.0814
6 9 2 25.0297 -0.0598
6 9 3 -10.9924 -0.0135
6 9 4 -2.6928 0.1817
6 9 5 -10.1700 -0.2792
6 9 6 19.5595 -0.3707
6 9 7 -5.4259 0.0244
6 9 8 -9.7608 0.3753
6 9 9 8.6345 0.0844
6 9 10 -0.9662 -0.6451
6 9 11 5.9091 0.0528
6 9 12 -7.2826 0.5905
6 9 13 -4.0689 0.0552
6 9 14 -2.1072 -0.4773
6 9 15 2.4643 -0.0538
6 9 16 3.4519 0.6168
6 9 17 -0.8530 -0.0698
6 10 0 -38.5474 0.2606
6 10 1 0.3092 -0.1769
6 10 2 10.7789 -0.8707
6 10 3 8.5213 0.1380
6 10 4 -8.9889 0.6566
6 10 5 7.4273 -0.0856
6 10 6 8.8910 -0.4973
6 10 7 -15.5860 -0.0085
6 10 8 9.7030 0.5037
6 10 9 -3.1972 -0.0257
6 10 10 2.3280 -0.4508
6 10 11 -1.5080 0.0481
6 10 12 4.2232 0.1959
6 10 13 2.3070 -0.0878
6 10 14 -4.9663 -0.1551
6 10 15 -3.3483 0.0210
6 10 16 -0.5084 -0.0417
6 10 17 1.6659 -0.0170
6 11 1 1.5329 0.2930
6 11 2 -21.5780 0.0349
6 11 3 0.9916 -0.2608
6 11 4 6.3452 -0.2510
6 11 5 8.5381 -0.1707
6 11 6 -25.5190 0.2694
6 11 7 11.6465 0.1492
6 11 8 18.4078 -0.2641
6 11 9 -11.9612 0.0940
6 11 10 -6.0899 0.4309
6 11 11 -4.3013 0.0317
6 11 12 8.0002 -0.3851
6 11 13 2.7003 -0.0226
6 11 14 1.2478 0.3491
6 11 15 -2.5554 -0.1046
6 11 16 -3.2128 -0.4218
6 12 0 32.7906 -0.0994
6 12 1 -2.8855 0.6858
6 12 2 -12.6204 0.1846
6 12 3 -0.4695 -0.0695
6 12 4 13.4927 -0.2528
6 12 5 -13.4812 0.0332
6 12 6 -10.6943 0.1292
6 12 7 16.7633 -0.1669
6 12 8 -8.7275 -0.0073
6 12 9 2.6039 -0.0511
6 12 10 5.1738 0.1558
6 12 11 0.1947 0.0017
6 12 12 -8.6246 -0.1822
6 12 13 -0.8733 0.0434
6 12 14 6.5412 0.0366
6 12 15 1.9450 0.2597
6 12 16 0.1784 0.0209
6 13 1 -6.9929 -0.2686
6 13 2 15.7042 -0.0907
6 13 3 3.2468 0.0978
6 13 4 -8.4403 -0.0136
6 13 5 -9.1085 0.2994
6 13 6 27.1929 -0.1057
6 13 7 -11.9288 -0.1515
6 13 8 -19.0532 0.0513
6 13 9 11.5107 -0.0919
6 13 10 4.3958 0.0307
6 13 11 3.1319 -0.0055
6 13 12 -5.0491 -0.0446
6 13 13 -0.5204 -0.1431
6 13 14 -0.8761 -0.0732
6 13 15 2.0001 0.2177
6 14 0 -22.7530 0.1027
6 14 1 2.9675 -0.1987
6 14 2 8.3950 0.4879
6 14 3 2.1661 0.0426
6 14 4 -9.3090 -0.2548
6 14 5 9.7717 -0.0293
6 14 6 7.3289 0.2093
6 14 7 -16.0102 0.0065
6 14 8 6.5928 -0.2333
6 14 9 -0.6598 0.0646
6 14 10 -3.7356 0.1361
6 14 11 0.0566 -0.0377
6 14 12 4.2341 -0.0620
6 14 13 1.0958 0.1868
6 14 14 -4.3612 0.1305
6 14 15 -0.6886 -0.5128
6 15 1 3.9561 -0.0218
6 15 2 -10.9362 -0.0095
6 15 3 -1.6750 0.1072
6 15 4 6.0806 0.1177
6 15 5 10.1463 0.0567
6 15 6 -17.5607 -0.2178
6 15 7 8.2899 0.0126
6 15 8 8.4461 0.3045
6 15 9 -8.0720 -0.0349
6 15 10 2.6082 -0.2568
6 15 11 -3.4203 0.0250
6 15 12 1.8231 0.2999
6 15 13 -0.9345 -0.0775
6 15 14 0.2580 -0.1079
6 16 0 8.9667 0.3823
6 16 1 -1.6514 -0.4651
6 16 2 1.4656 -0.7144
6 16 3 -6.0708 -0.0214
6 16 4 -1.8285 0.6864
6 16 5 -4.2242 0.0520
6 16 6 -0.0274 -0.5705
6 16 7 12.2979 0.0730
6 16 8 -3.9886 0.2348
6 16 9 1.1949 0.0771
6 16 10 -1.4870 -0.3892
6 16 11 -1.2699 -0.0010
6 16 12 2.2131 0.5043
6 16 13 -1.7726 -0.0652
6 17 1 -2.1148 0.1907
6 17 2 4.6189 0.1470
6 17 3 1.2511 -0.2160
6 17 4 -1.7642 0.0100
6 17 5 -8.9679 -0.1061
6 17 6 8.5781 0.3275
6 17 7 -5.2576 -0.0203
6 17 8 -2.0280 -0.4837
6 17 9 4.0870 0.0629
6 17 10 -4.2738 0.3160
6 17 11 2.9403 -0.0522
6 17 12 -0.2763 -0.3883
6 18 0 -0.7949 -0.6080
6 18 1 1.0145 0.5297
6 18 2 -3.8216 0.4776
6 18 3 5.6664 -0.1685
6 18 4 2.8159 -0.5563
6 18 5 1.8754 0.0636
6 18 6 -0.8338 0.4464
6 18 7 -7.4094 -0.0572
6 18 8 2.4966 -0.1431
6 18 9 -2.1831 -0.0523
6 18 10 0.8283 0.4229
6 18 11 3.2523 -0.0053
6 19 1 3.0661 -0.0662
6 19 2 0.5488 -0.0975
6 19 3 -1.7376 0.1072
6 19 4 0.0398 -0.0196
6 19 5 6.2816 -0.0695
6 19 6 -5.8060 -0.1295
6 19 7 2.5861 0.0647
6 19 8 2.6766 0.2932
6 19 9 -2.0029 -0.0455
6 19 10 1.6818 -0.2084
6 20 0 0.9209 0.3802
6 20 1 -1.3374 0.2462
6 20 2 -0.3796 -0.1652
6 20 3 -2.8284 -0.0417
6 20 4 1.8779 0.2069
6 20 5 -1.1955 -0.0488
6 20 6 -1.9237 -0.0768
6 20 7 4.2184 0.0809
6 20 8 -1.1347 -0.0156
6 20 9 0.9462 -0.1499
6 21 1 -2.9131 -0.0995
6 21 2 -0.8193 -0.0561
6 21 3 1.2872 0.1802
6 21 4 -0.0703 -0.0635
6 21 5 -3.9144 -0.0725
6 21 6 2.3720 -0.0857
6 21 7 -0.3103 0.0647
6 22 0 -1.6082 -0.1417
6 22 1 1.0260 -0.6658
6 22 2 1.3014 0.0054
6 22 3 1.0385 0.3302
6 22 4 -1.0796 -0.1197
7 0 2 -55.3323 -0.9373
7 0 4 4.2873 0.0103
7 0 6 10.6923 0.8278
7 0 8 -4.8512 -0.1154
7 0 10 3.1791 -0.5866
7 0 12 4.2508 0.0585
7 0 14 2.9343 0.3346
7 0 16 -2.8408 -0.0474
7 0 18 -7.7451 -0.2494
7 1 0 119.3405 1.0320
7 1 1 3.8337 -0.8229
7 1 2 -38.6077 -0.4238
7 1 3 -12.4630 -0.2144
7 1 4 -2.5567 -0.0180
7 1 5 17.1086 -0.0839
7 1 6 -18.0423 -0.3656
7 1 7 -16.9768 -0.2841
7 1 8 -1.8877 0.3960
7 1 9 10.0017 0.5683
7 1 10 -10.9487 0.0028
7 1 11 -5.9625 0.1554
7 1 12 -11.0499 -0.0285
7 1 13 0.4035 -0.0090
7 1 14 9.9008 -0.0990
7 1 15 1.3630 -0.2365
7 1 16 1.8503 0.0606
7 1 17 -2.6809 0.1886
7 1 18 -2.1714 0.0253
7 1 19 1.4122 -0.3606
7 2 1 10.5481 0.4629
7 2 2 42.9309 0.3715
7 2 3 -20.6795 -0.2431
7 2 4 2.1812 -0.1294
7 2 5 22.1459 0.2600
7 2 6 -11.1491 -0.1372
7 2 7 -5.1261 -0.4861
7 2 8 3.9940 -0.1217
7 2 9 -3.4265 0.5391
7 2 10 -1.3564 0.2940
7 2 11 4.8872 -0.2254
7 2 12 -4.5195 -0.0163
7 2 13 -5.7935 0.0066
7 2 14 -3.2882 0.1924
7 2 15 4.3082 -0.0440
7 2 16 4.0282 -0.2767
7 2 17 -3.3755 0.1764
7 2 18 5.4204 0.1553
7 3 0 -72.7218 0.2113
7 3 1 -9.1607 0.8443
7 3 2 14.5058 0.0298
7 3 3 26.1528 0.3958
7 3 4 3.3653 -0.2758
7 3 5 -37.4379 -0.0579
7 3 6 18.1162 0.2361
7 3 7 41.3120 0.1777
7 3 8 -1.3810 -0.0340
7 3 9 -20.9171 -0.7653
7 3 10 12.0544 -0.0614
7 3 11 10.9125 0.4917
7 3 12 10.2288 -0.1621
7 3 13 0.0282 -0.4410
7 3 14 -8.8855 0.1597
7 3 15 -2.6446 0.4885
7 3 16 0.2193 0.1541
7 3 17 5.0061 -0.7568
7 3 18 -0.1982 -0.0307
7 4 1 3.4693 -0.6758
7 4 2 -23.2090 0.1478
7 4 3 11.7691 0.8673
7 4 4 -10.9845 0.2211
7 4 5 -25.4601 -0.6822
7 4 6 8.9839 -0.2673
7 4 7 1.9767 0.5582
7 4 8 -0.0905 0.0117
7 4 9 8.2729 -0.6429
7 4 10 -1.1355 -0.0275
7 4 11 -2.3034 0.3563
7 4 12 3.4067 -0.1027
7 4 13 3.0528 -0.0728
7 4 14 3.4243 -0.1735
7 4 15 -4.1252 0.1164
7 4 16 -4.9855 0.1608
7 4 17 6.6358 -0.1437
7 4 18 -2.2721 0.1760
7 5 0 36.1287 -1.0227
7 5 1 12.6795 0.1248
7 5 2 1.9381 0.3612
7 5 3 -21.4714 -0.5057
7 5 4 -2.4192 0.1694
7 5 5 26.2232 0.1268
7 5 6 -15.5020 0.0188
7 5 7 -38.6872 -0.1972
7 5 8 0.2552 -0.0332
7 5 9 13.3177 0.6115
7 5 10 -8.8261 0.0415
7 5 11 -3.9802 -0.5450
7 5 12 -7.7035 0.0110
7 5 13 -2.4207 0.5194
7 5 14 3.9765 -0.1308
7 5 15 1.7372 -0.4596
7 5 16 1.1613 -0.1213
7 5 17 -2.6791 0.6698
7 5 18 -0.0384 -0.0457
7 6 1 -19.8338 0.3124
7 6 2 15.0430 -0.1065
7 6 3 12.5083 -0.5376
7 6 4 10.8537 -0.1749
7 6 5 14.3975 0.7329
7 6 6 -2.0714 0.1531
7 6 7 1.9219 -0.2774
7 6 8 -4.6175 0.1215
7 6 9 -8.2024 0.2439
7 6 10 -0.1673 0.0542
7 6 11 -5.4571 -0.3030
7 6 12 -0.6710 0.0645
7 6 13 5.2373 0.2276
7 6 14 -2.3268 -0.0573
7 6 15 -0.9444 -0.1310
7 6 16 4.0103 0.0335
7 6 17 -4.9566 0.0113
7 6 18 1.5614 -0.3358
7 7 0 -29.7550 0.4751
7 7 1 -14.0507 -0.9106
7 7 2 0.9404 -0.1533
7 7 3 10.3261 0.4106
7 7 4 -1.7467 0.0087
7 7 5 -2.3963 -0.0702
7 7 6 9.8348 -0.0900
7 7 7 19.9564 0.1561
7 7 8 4.9672 0.0059
7 7 9 -0.0503 -0.2440
7 7 10 4.2682 -0.0738
7 7 11 -3.5583 0.2394
7 7 12 4.1380 0.0981
7 7 13 2.5850 -0.2669
7 7 14 0.6766 0.0664
7 7 15 0.1968 0.1655
7 7 16 -3.8717 0.0663
7 7 17 -0.1932 -0.2134
7 7 18 1.2904 0.0099
7 8 1 28.4882 0.0204
7 8 2 -14.1803 -0.0423
7 8 3 -22.6687 -0.0286
7 8 4 -4.3646 -0.1708
7 8 5 -7.9618 -0.3883
7 8 6 -5.5942 0.1741
7 8 7 -1.8359 0.0557
7 8 8 6.1350 -0.1063
7 8 9 2.7886 -0.0466
7 8 10 2.1717 -0.0282
7 8 11 11.6521 0.1232
7 8 12 1.1312 0.0483
7 8 13 -10.4554 -0.1240
7 8 14 0.4708 0.1255
7 8 15 5.5879 0.1272
7 8 16 -3.4395 -0.2041
7 8 17 -0.9746 -0.1038
7 9 0 28.0524 0.5609
7 9 1 8.2419 0.2897
7 9 2 -5.6926 -0.3052
7 9 3 -2.7965 -0.0562
7 9 4 3.6066 0.0103
7 9 5 0.7847 -0.0512
7 9 6 -3.4933 -0.0542
7 9 7 -15.5600 0.1119
7 9 8 -6.6714 -0.0360
7 9 9 -2.4721 -0.0996
7 9 10 -3.0354 0.0634
7 9 11 3.1986 0.0217
7 9 12 -2.7813 0.0947
7 9 13 0.2643 -0.0557
7 9 14 -0.0251 -0.0100
7 9 15 0.0476 0.1745
7 9 16 3.1577 -0.0688
7 9 17 -0.3406 -0.0684
7 10 1 -28.7201 -0.2677
7 10 2 13.5921 0.0583
7 10 3 9.4212 0.4657
7 10 4 -2.0521 0.3665
7 10 5 14.4356 -0.2464
7 10 6 10.1982 -0.1833
7 10 7 0.7545 0.2398
7 10 8 -6.8570 -0.0771
7 10 9 1.2582 -0.1767
7 10 10 0.1688 -0.0621
7 10 11 -11.2433 0.2635
7 10 12 -4.6219 -0.0988
7 10 13 7.0012 -0.2282
7 10 14 0.7643 -0.0824
7 10 15 -4.5086 0.0753
7 10 16 3.6892 0.2915
7 10 17 4.0622 0.0946
7 11 0 -17.1678 -0.5162
7 11 1 -1.2852 0.6085
7 11 2 2.2893 0.2613
7 11 3 1.1517 -0.2805
7 11 4 -2.2852 -0.0359
7 11 5 -15.0256 0.1787
7 11 6 2.0938 0.0350
7 11 7 23.4776 -0.3466
7 11 8 2.8357 0.1688
7 11 9 -2.0579 0.4125
7 11 10 2.2796 -0.1168
7 11 11 -0.3260 -0.4575
7 11 12 3.5397 -0.1486
7 11 13 -1.0614 0.3930
7 11 14 -2.4351 -0.0914
7 11 15 -3.0757 -0.3332
7 11 16 -0.4633 0.1339
7 12 1 9.0848 0.3313
7 12 2 -10.4201 0.0733
7 12 3 10.7200 -0.6509
7 12 4 3.4724 -0.1301
7 12 5 -22.7618 0.6070
7 12 6 -11.1113 -0.0629
7 12 7 0.7314 -0.4708
7 12 8 8.2838 0.1314
7 12 9 -0.5845 0.3901
7 12 10 -2.5897 0.1077
7 12 11 3.9231 -0.3859
7 12 12 5.3955 0.0194
7 12 13 1.9068 0.1949
7 12 14 -1.1672 0.0809
7 12 15 0.0558 -0.1404
7 12 16 -2.8681 -0.2074
7 13 0 6.6563 -0.3614
7 13 1 2.0405 -0.6355
7 13 2 1.0375 0.1275
7 13 3 -2.6203 0.3365
7 13 4 4.0271 -0.0147
7 13 5 18.8718 -0.2216
7 13 6 -5.5738 0.1325
7 13 7 -25.6327 0.3029
7 13 8 0.3198 -0.1179
7 13 9 5.3765 -0.4341
7 13 10 -0.4504 0.0576
7 13 11 -0.5756 0.5877
7 13 12 -2.1380 0.0051
7 13 13 0.7497 -0.4201
7 13 14 2.0739 0.1601
7 13 15 3.2581 0.1219
7 14 1 9.0053 -0.2279
7 14 2 5.7525 -0.1303
7 14 3 -13.9081 0.5467
7 14 4 -1.8892 -0.1895
7 14 5 19.9983 -0.4509
7 14 6 9.7760 0.0676
7 14 7 0.2916 0.4511
7 14 8 -6.6285 0.0762
7 14 9 -3.8492 -0.3066
7 14 10 0.6767 -0.0479
7 14 11 2.7277 0.2581
7 14 12 -3.6316 -0.0162
7 14 13 -5.9530 -0.0333
7 14 14 1.3193 -0.0372
7 15 0 -2.4101 0.4452
7 15 1 -4.7735 -0.0675
7 15 2 -0.7968 -0.1419
7 15 3 2.3238 -0.1400
7 15 4 -5.4103 -0.0400
7 15 5 -13.9357 0.1680
7 15 6 4.5884 -0.0240
7 15 7 21.7074 -0.1484
7 15 8 1.7722 -0.2081
7 15 9 -4.3384 0.1894
7 15 10 -0.4797 0.1567
7 15 11 -1.1415 -0.1990
7 15 12 -1.1135 0.0492
7 15 13 -1.1614 0.2621
7 15 14 -0.2624 -0.1240
7 16 1 -4.8291 0.1531
7 16 2 -2.9946 -0.1169
7 16 3 4.7037 -0.3267
7 16 4 1.3815 0.3341
7 16 5 -11.8153 0.1503
7 16 6 -7.1238 -0.0353
7 16 7 -3.2148 -0.3341
7 16 8 2.2201 0.0217
7 16 9 5.7533 0.1130
7 16 10 1.9379 -0.1858
7 16 11 -1.8159 -0.2404
7 16 12 1.9725 0.1855
7 16 13 2.6133 0.1919
7 17 0 -0.2986 0.1425
7 17 1 2.9716 0.5155
7 17 2 1.1412 -0.0563
7 17 3 0.2817 -0.1581
7 17 4 3.4516 0.0969
7 17 5 9.5181 -0.0325
7 17 6 -0.2158 -0.1396
7 17 7 -13.7888 0.0523
7 17 8 -4.7026 0.1072
7 17 9 -1.1187 -0.0898
7 17 10 1.1816 0.0610
7 17 11 3.7479 -0.0547
7 17 12 1.9918 -0.1343
7 18 1 -1.1567 0.0869
7 18 2 1.3743 0.1557
7 18 3 -2.4732 -0.0763
7 18 4 -1.4916 -0.1048
7 18 5 9.0327 0.3065
7 18 6 5.2960 0.0325
7 18 7 1.3512 -0.1245
7 18 8 -1.0593 -0.2474
7 18 9 -1.8677 0.2409
7 18 10 -1.4023 0.1609
7 18 11 -1.3347 -0.0168
7 19 0 1.7481 -0.4047
7 19 1 -0.2805 -0.1376
7 19 2 -0.3417 0.0707
7 19 3 -2.4412 0.2268
7 19 4 -3.9559 0.0097
7 19 5 -3.5513 -0.1047
7 19 6 0.6743 0.0083
7 19 7 3.9095 0.2360
7 19 8 3.4751 0.3039
7 19 9 3.8967 -0.0251
7 19 10 -1.7765 -0.3646
7 20 1 -0.7174 -0.2326
7 20 2 -0.5825 -0.0465
7 20 3 3.4124 0.2682
7 20 4 1.8972 -0.1498
7 20 5 -7.1607 -0.7718
7 20 6 -4.2986 0.1043
7 20 7 1.7340 0.6898
7 20 8 1.9417 0.1028
7 21 0 -0.7970 0.4035
7 21 1 -0.1398 -0.2047
7 21 2 -1.0909 -0.0086
7 21 3 2.2073 0.0017
7 21 4 3.9166 -0.1857
7 21 5 -0.8716 0.0954
7 21 6 -1.6347 0.1768
7 22 1 1.1672 -0.0701
7 22 2 0.7472 0.1567
7 22 3 -0.6377 0.1324
7 22 4 -1.2467 0.0482
8 0 0 2.5779 1.1122
8 0 2 -47.3550 -0.4611
8 0 4 17.7884 0.0447
8 0 6 -4.8858 -0.5992
8 0 8 -17.8242 0.5974
8 0 10 4.0757 0.0979
8 0 12 -25.4850 -0.0334
8 0 14 18.7895 -0.2282
8 0 16 -1.7792 0.2368
8 0 18 -1.2791 0.1961
8 1 1 4.9683 -0.2283
8 1 2 18.1772 0.3096
8 1 3 -0.4357 0.4046
8 1 4 19.9675 -0.1727
8 1 5 -2.0984 -0.1274
8 1 6 -26.0820 0.1105
8 1 7 2.6311 0.1228
8 1 8 0.5501 -0.2703
8 1 9 -1.7103 0.5808
8 1 10 -1.1401 0.2354
8 1 11 -0.0044 0.2199
8 1 12 -11.0348 -0.2690
8 1 13 0.3417 -0.7114
8 1 14 -4.7281 0.2923
8 1 15 -0.5139 -0.0084
8 1 16 4.1783 -0.2429
8 1 17 0.6103 0.5132
8 1 18 1.2346 0.2630
8 2 0 41.6386 -0.3573
8 2 1 -1.3106 -0.5314
8 2 2 17.8292 0.6353
8 2 3 0.2414 -0.0634
8 2 4 -8.3954 -0.5326
8 2 5 2.1139 0.3376
8 2 6 -4.3399 0.5757
8 2 7 -5.1522 -0.3899
8 2 8 20.1793 -0.6430
8 2 9 5.0486 -0.0138
8 2 10 0.7434 0.1757
8 2 11 -2.8468 0.0550
8 2 12 19.9613 -0.0795
8 2 13 0.4351 0.3412
8 2 14 -13.9726 0.0980
8 2 15 -1.1182 -0.2642
8 2 16 0.1520 -0.1998
8 2 17 -0.3500 0.0856
8 2 18 0.7630 0.0202
8 3 1 -9.3226 0.2715
8 3 2 2.1360 0.0527
8 3 3 -2.6834 -0.4277
8 3 4 -18.2128 0.4483
8 3 5 6.6439 0.0871
8 3 6 13.4834 -0.3907
8 3 7 -6.8950 -0.1811
8 3 8 -3.5273 0.0737
8 3 9 4.7343 -0.2400
8 3 10 4.5692 -0.2135
8 3 11 -0.4220 -0.0710
8 3 12 8.2714 0.3615
8 3 13 -0.0507 0.2448
8 3 14 4.6713 -0.4419
8 3 15 0.8186 0.0649
8 3 16 -1.6766 0.2292
8 3 17 -1.1680 -0.3646
8 3 18 -2.3789 -0.1072
8 4 0 -64.1331 -1.0027
8 4 1 3.0637 0.4223
8 4 2 5.6607 0.1007
8 4 3 0.0059 0.1052
8 4 4 -2.5200 0.2854
8 4 5 -4.4704 -0.1345
8 4 6 10.9073 0.0588
8 4 7 7.3578 -0.0286
8 4 8 -17.1709 0.1754
8 4 9 -6.9532 0.2054
8 4 10 -6.9041 -0.0356
8 4 11 3.0898 0.1786
8 4 12 -12.7792 -0.0471
8 4 13 0.0788 -0.1836
8 4 14 7.5968 0.0248
8 4 15 1.8058 -0.0523
8 4 16 0.9955 -0.0233
8 4 17 0.4452 -0.0618
8 4 18 0.4296 -0.1649
8 5 1 6.0043 0.0060
8 5 2 3.1701 -0.3260
8 5 3 6.8456 0.0660
8 5 4 15.8143 -0.1671
8 5 5 -5.8422 -0.0814
8 5 6 -10.5817 0.0402
8 5 7 5.0816 0.2498
8 5 8 4.9751 0.3499
8 5 9 -3.5033 0.0236
8 5 10 -4.7051 -0.0990
8 5 11 -0.5010 0.0520
8 5 12 -6.3946 0.1499
8 5 13 -1.1360 -0.0454
8 5 14 -3.1776 -0.0268
8 5 15 -0.2060 0.0602
8 5 16 0.5455 0.2179
8 5 17 0.9401 0.0000
8 5 18 1.9401 -0.5895
8 6 0 4.3651 0.9326
8 6 1 -1.8574 0.1370
8 6 2 13.0385 -0.6671
8 6 3 -5.0298 -0.0467
8 6 4 3.6667 0.3454
8 6 5 8.6750 -0.0203
8 6 6 -1.4478 -0.5074
8 6 7 -7.4720 -0.0364
8 6 8 9.3746 0.1878
8 6 9 5.6126 -0.2151
8 6 10 3.9712 -0.2089
8 6 11 0.0315 -0.1990
8 6 12 11.5431 0.2089
8 6 13 -1.9323 0.1500
8 6 14 -6.4194 -0.0925
8 6 15 -1.7044 0.1258
8 6 16 -0.3347 0.1117
8 6 17 -0.3144 0.0726
8 6 18 -0.5423 0.2700
8 7 1 -1.5561 -0.2631
8 7 2 -17.4082 0.1632
8 7 3 -6.5432 0.1993
8 7 4 -16.5279 -0.2865
8 7 5 0.5484 0.2142
8 7 6 8.5034 0.3596
8 7 7 -0.0272 -0.1607
8 7 8 1.2908 -0.3823
8 7 9 -0.3406 -0.1724
8 7 10 0.0243 0.2132
8 7 11 1.7485 -0.0702
8 7 12 8.0473 -0.4492
8 7 13 2.8187 0.0908
8 7 14 0.7318 0.4346
8 7 15 -1.0364 -0.0164
8 7 16 -1.6428 -0.5613
8 7 17 -0.1314 0.0906
8 8 0 22.2795 0.2604
8 8 1 -0.0718 -0.3373
8 8 2 -14.0838 0.6155
8 8 3 8.3131 -0.0570
8 8 4 -4.4789 -0.6051
8 8 5 -9.6893 0.0073
8 8 6 -4.1442 0.4494
8 8 7 5.0540 0.2382
8 8 8 -10.0463 -0.4008
8 8 9 -1.8698 0.1231
8 8 10 2.0727 0.3380
8 8 11 -4.3546 0.0902
8 8 12 -10.5719 -0.1570
8 8 13 4.1602 -0.1038
8 8 14 6.0824 0.1552
8 8 15 -0.2434 -0.0523
8 8 16 1.1302 -0.0707
8 8 17 0.7533 -0.0256
8 9 1 0.0966 0.0822
8 9 2 11.7331 0.1261
8 9 3 5.7971 -0.0575
8 9 4 12.7655 0.4315
8 9 5 -1.1743 -0.1918
8 9 6 4.8997 -0.3424
8 9 7 1.6403 -0.0079
8 9 8 -7.4214 0.1839
8 9 9 -0.8743 0.1724
8 9 10 3.3828 -0.2874
8 9 11 0.1071 0.0697
8 9 12 -7.6494 0.4172
8 9 13 -3.6613 -0.1096
8 9 14 -3.1292 -0.4174
8 9 15 1.1910 -0.1086
8 9 16 4.8559 0.5081
8 9 17 -0.6318 0.0813
8 10 0 -5.1537 -0.6973
8 10 1 -1.0227 0.0787
8 10 2 0.4899 -0.4095
8 10 3 -3.6761 0.0999
8 10 4 3.6372 0.4863
8 10 5 4.1427 -0.0292
8 10 6 0.4287 -0.3273
8 10 7 -0.5675 0.0079
8 10 8 10.6867 0.5233
8 10 9 -0.1014 -0.1494
8 10 10 -1.6579 -0.3465
8 10 11 3.9142 -0.0050
8 10 12 7.8046 -0.0202
8 10 13 -2.8082 -0.1054
8 10 14 -4.0119 -0.1018
8 10 15 1.7866 0.0351
8 10 16 -1.4609 0.0260
8 11 1 -1.8171 0.1806
8 11 2 -8.2012 -0.1281
8 11 3 -4.2464 -0.1044
8 11 4 0.2164 -0.2117
8 11 5 3.8282 -0.0885
8 11 6 -13.0384 0.2145
8 11 7 -6.1676 0.1813
8 11 8 4.8427 -0.1519
8 11 9 4.5050 0.0211
8 11 10 -3.8169 0.2651
8 11 11 -1.7613 -0.0614
8 11 12 3.3630 -0.2794
8 11 13 1.8290 0.0729
8 11 14 6.2322 0.2321
8 11 15 0.9959 0.0535
8 11 16 -5.0252 -0.1690
8 12 0 6.9683 0.0197
8 12 1 2.4920 0.0088
8 12 2 -1.5787 0.1866
8 12 3 -1.2286 -0.0708
8 12 4 -3.3585 -0.2090
8 12 5 1.2852 0.1023
8 12 6 3.1945 0.2033
8 12 7 -2.2869 -0.2376
8 12 8 -5.1359 -0.1747
8 12 9 -1.6676 0.0805
8 12 10 -1.2961 0.0969
8 12 11 -0.1130 0.0581
8 12 12 -3.5896 0.1003
8 12 13 -0.4940 0.2101
8 12 14 0.0930 -0.0215
8 12 15 -1.0107 -0.1066
8 13 1 2.6315 -0.1432
8 13 2 11.5203 -0.1655
8 13 3 2.0757 -0.0026
8 13 4 -5.2311 -0.0824
8 13 5 -2.8148 0.2527
8 13 6 7.3931 -0.1034
8 13 7 6.6797 -0.2028
8 13 8 0.5364 0.0457
8 13 9 -4.7836 -0.0262
8 13 10 2.2371 0.0981
8 13 11 1.2516 -0.0251
8 13 12 -0.8933 0.0336
8 13 13 -0.9722 0.0983
8 13 14 -2.8878 -0.1546
8 13 15 -1.5836 -0.0454
8 14 0 -6.6052 0.6148
8 14 1 -2.1425 0.1377
8 14 2 -2.3463 0.1289
8 14 3 0.5019 0.1029
8 14 4 6.8578 -0.2012
8 14 5 -0.8001 -0.2033
8 14 6 -3.3917 0.1342
8 14 7 1.8588 0.0878
8 14 8 2.6391 -0.3729
8 14 9 2.7375 0.1016
8 14 10 2.4144 0.2070
8 14 11 0.2142 -0.1246
8 14 12 -2.1450 -0.1286
8 14 13 0.0740 -0.0598
8 14 14 2.8599 0.0213
8 15 1 -0.0187 0.0009
8 15 2 -5.1367 0.1949
8 15 3 -3.2754 0.1381
8 15 4 -2.3860 0.3208
8 15 5 2.2696 -0.1206
8 15 6 -2.1523 -0.1898
8 15 7 -4.9106 0.0254
8 15 8 -1.6327 0.2908
8 15 9 2.9804 -0.0734
8 15 10 0.2097 -0.2941
8 15 11 -0.4990 0.0253
8 15 12 1.4783 0.1074
8 15 13 1.6989 -0.2199
8 15 14 0.0683 0.1228
8 16 0 -4.8804 -0.3232
8 16 1 1.1714 -0.3161
8 16 2 9.8769 -0.4838
8 16 3 2.2756 -0.0607
8 16 4 -4.6200 0.5247
8 16 5 -2.2223 0.1174
8 16 6 -0.5990 -0.4590
8 16 7 -0.4949 0.1229
8 16 8 -2.5105 0.3919
8 16 9 -2.0974 -0.0014
8 16 10 -3.1828 -0.1706
8 16 11 -0.9424 -0.0582
8 16 12 4.1364 0.3144
8 16 13 0.7127 -0.0819
8 17 1 -2.3819 0.0847
8 17 2 -0.3076 0.1321
8 17 3 4.3885 -0.1402
8 17 4 3.9998 -0.3471
8 17 5 -1.9091 0.0430
8 17 6 5.0717 0.3174
8 17 7 2.7106 0.0280
8 17 8 -2.0839 -0.4287
8 17 9 -1.2966 0.0992
8 17 10 0.6294 -0.0596
8 17 11 -0.6791 0.0464
8 17 12 -2.3660 -0.0042
8 18 0 4.4350 -0.4127
8 18 1 -0.8420 0.2051
8 18 2 -6.7837 0.6486
8 18 3 -2.0967 -0.0187
8 18 4 -0.4557 -0.4660
8 18 5 1.4897 0.1351
8 18 6 3.7262 0.4902
8 18 7 1.0137 -0.0865
8 18 8 1.0522 -0.0352
8 18 9 1.5773 -0.3398
8 18 10 2.3935 -0.1173
8 18 11 -1.2078 0.3360
8 19 1 1.2666 -0.0371
8 19 2 -2.3528 -0.1953
8 19 3 -1.8712 0.0004
8 19 4 1.4701 0.0132
8 19 5 0.1986 -0.0271
8 19 6 -6.9982 0.1086
8 19 7 -0.8880 -0.0751
8 19 8 4.3879 0.1138
8 19 9 0.2355 0.0702
8 20 0 -1.0875 0.5390
8 20 1 1.4359 0.3031
8 20 2 3.1171 -0.3383
8 20 3 -0.6029 -0.1701
8 20 4 0.1571 0.0091
8 20 5 1.1693 -0.1524
8 20 6 -1.8641 -0.1657
8 20 7 -1.6778 -0.0637
8 20 8 -0.6176 -0.1542
8 21 1 0.9588 -0.1053
8 21 2 2.1583 0.0309
8 21 3 -0.4794 0.2085
8 21 4 -1.9676 0.1918
8 21 5 0.4868 -0.1828
8 21 6 2.6864 -0.5177
8 22 0 1.9034 -0.1636
8 22 1 -1.4767 -0.5134
8 22 2 -2.1418 -0.0978
8 22 3 0.9925 0.3633
9 0 2 57.9465 -0.4049
9 0 4 8.7565 -0.1321
9 0 6 14.4391 0.4198
9 0 8 -0.8974 -0.0497
9 0 10 -13.6210 -0.3090
9 0 12 2.4661 0.0333
9 0 14 -13.6395 0.2311
9 0 16 3.4401 -0.1391
9 0 18 3.9346 0.0811
9 1 0 -68.2060 0.4600
9 1 1 0.0224 -0.6928
9 1 2 -2.2882 -0.0982
9 1 3 1.6430 -0.1545
9 1 4 9.4673 -0.1417
9 1 5 -4.9574 0.1571
9 1 6 13.8627 -0.2034
9 1 7 5.2260 -0.3108
9 1 8 13.2135 0.3841
9 1 9 -4.1021 0.1819
9 1 10 3.9811 0.0118
9 1 11 3.1036 0.0182
9 1 12 11.6674 -0.0651
9 1 13 -1.6193 0.1862
9 1 14 -9.9556 -0.0969
9 1 15 -0.6352 -0.3910
9 1 16 -1.8527 -0.1304
9 1 17 0.4321 0.0837
9 1 18 -1.4492 0.1663
9 2 1 -13.3158 0.3981
9 2 2 -50.4816 0.3678
9 2 3 19.7643 -0.4082
9 2 4 -12.1864 0.0342
9 2 5 -14.6328 -0.0281
9 2 6 -9.9858 -0.1040
9 2 7 4.4563 -0.3952
9 2 8 0.1241 -0.1263
9 2 9 0.4967 0.2035
9 2 10 9.3328 0.2168
9 2 11 -2.8022 -0.1261
9 2 12 1.2276 0.1059
9 2 13 5.8684 -0.0108
9 2 14 11.9841 0.1186
9 2 15 -4.6403 -0.1003
9 2 16 -4.2947 -0.2257
9 2 17 0.6764 -0.2179
9 2 18 -2.7582 -0.0659
9 3 0 39.3619 -0.2141
9 3 1 2.0788 0.9996
9 3 2 16.8134 0.1087
9 3 3 -4.8252 0.1320
9 3 4 -14.9361 -0.1129
9 3 5 8.2383 -0.2255
9 3 6 -12.1052 0.1152
9 3 7 -9.5815 0.2159
9 3 8 -6.8579 -0.0868
9 3 9 8.9023 -0.3563
9 3 10 -6.9270 -0.0381
9 3 11 -5.7129 0.4133
9 3 12 -12.1692 -0.1585
9 3 13 2.6334 -0.2528
9 3 14 11.7448 0.1898
9 3 15 1.3679 0.3998
9 3 16 0.2299 0.1671
9 3 17 -1.0287 -0.5023
9 3 18 0.6207 -0.1361
9 4 1 29.8254 -0.6183
9 4 2 34.8841 -0.1613
9 4 3 -29.6446 0.8279
9 4 4 15.1991 -0.0236
9 4 5 19.3749 -0.3838
9 4 6 6.2007 -0.2384
9 4 7 -6.6631 0.5970
9 4 8 -0.3256 0.1382
9 4 9 -2.0893 -0.4640
9 4 10 -3.6997 -0.0732
9 4 11 5.1284 0.2138
9 4 12 -4.9043 -0.0711
9 4 13 -7.0918 0.0944
9 4 14 -9.8513 -0.1510
9 4 15 5.5744 0.2363
9 4 16 4.9760 0.2361
9 4 17 -1.5042 -0.0816
9 4 18 1.4714 -0.1569
9 5 0 -25.7853 -0.1366
9 5 1 -3.2420 0.0625
9 5 2 -13.3336 0.0264
9 5 3 2.1127 -0.3569
9 5 4 6.7946 0.2311
9 5 5 -0.3626 0.1596
9 5 6 12.6242 0.0416
9 5 7 3.9533 -0.1727
9 5 8 5.4696 -0.1714
9 5 9 -6.1633 0.2206
9 5 10 5.7650 -0.0047
9 5 11 2.5047 -0.4245
9 5 12 9.9982 0.1058
9 5 13 -1.3857 0.3869
9 5 14 -7.4084 0.0311
9 5 15 -0.2621 -0.4198
9 5 16 -3.2064 0.0183
9 5 17 0.0316 0.5594
9 5 18 1.3367 -0.2321
9 6 1 -21.4240 0.1481
9 6 2 -21.2367 0.1231
9 6 3 17.1100 -0.2376
9 6 4 -11.8966 0.1264
9 6 5 -10.1007 0.4645
9 6 6 -10.0013 0.0939
9 6 7 3.5251 -0.4059
9 6 8 1.6226 0.0164
9 6 9 2.7741 0.1358
9 6 10 4.2728 0.0728
9 6 11 -2.4827 -0.2998
9 6 12 2.9608 -0.0116
9 6 13 2.0609 0.0733
9 6 14 9.1247 -0.0885
9 6 15 -1.5751 -0.1558
9 6 16 -3.6430 0.1362
9 6 17 0.7753 0.1929
9 6 18 -1.8787 -0.0487
9 7 0 29.3411 0.1773
9 7 1 0.5723 -1.1312
9 7 2 -0.7813 -0.0525
9 7 3 5.0824 0.3037
9 7 4 3.2583 -0.0758
9 7 5 -8.0754 -0.0024
9 7 6 -8.1683 -0.0471
9 7 7 3.9200 0.3169
9 7 8 -12.9261 -0.0080
9 7 9 -1.2812 -0.0448
9 7 10 -0.1903 0.0586
9 7 11 2.4053 0.0854
9 7 12 -7.3261 0.0678
9 7 13 -0.3298 -0.2859
9 7 14 1.4999 -0.2085
9 7 15 -0.1247 0.2316
9 7 16 6.6588 -0.0236
9 7 17 0.9790 -0.1408
9 8 1 2.1373 0.2833
9 8 2 15.1853 -0.1901
9 8 3 -0.2101 -0.2738
9 8 4 5.2593 -0.1174
9 8 5 0.9872 -0.3391
9 8 6 14.3720 0.1609
9 8 7 -2.1688 0.1079
9 8 8 -2.3003 -0.0529
9 8 9 0.7267 0.1989
9 8 10 -5.0873 -0.1526
9 8 11 -3.0150 0.1080
9 8 12 -2.1957 0.0067
9 8 13 2.0903 -0.0279
9 8 14 -8.0497 0.0723
9 8 15 -1.7535 -0.0763
9 8 16 2.9779 0.0131
9 8 17 0.4079 -0.0116
9 9 0 -30.1943 -0.1302
9 9 1 1.0870 0.3811
9 9 2 5.1270 -0.1324
9 9 3 -7.0209 0.0844
9 9 4 -1.6383 0.1546
9 9 5 9.1799 -0.0750
9 9 6 1.0825 -0.0843
9 9 7 -7.1205 -0.1400
9 9 8 16.1941 0.1443
9 9 9 5.8254 -0.0648
9 9 10 -1.7640 -0.0397
9 9 11 -4.1411 0.0384
9 9 12 6.6580 0.0211
9 9 13 1.6437 -0.0691
9 9 14 -2.0451 -0.0362
9 9 15 -1.9094 0.0645
9 9 16 -4.2859 0.0962
9 9 17 -0.0231 -0.1501
9 10 1 0.1880 -0.1117
9 10 2 -15.9125 -0.0407
9 10 3 -1.1795 0.2281
9 10 4 1.4610 0.0464
9 10 5 -2.8526 -0.1611
9 10 6 -16.0215 -0.0265
9 10 7 5.9265 0.2007
9 10 8 4.2401 -0.0367
9 10 9 -4.0975 -0.0371
9 10 10 2.1139 0.0497
9 10 11 4.0658 0.1130
9 10 12 3.9382 -0.0003
9 10 13 -0.2161 -0.1005
9 10 14 6.6634 0.1578
9 10 15 0.6481 0.0288
9 10 16 -4.3714 -0.4014
9 11 0 23.6686 0.1859
9 11 1 -2.0890 0.7676
9 11 2 -1.5412 0.1541
9 11 3 6.2835 -0.2310
9 11 4 -1.5059 -0.2628
9 11 5 -6.1533 0.1245
9 11 6 -1.4933 0.0504
9 11 7 4.4769 -0.3830
9 11 8 -10.7879 0.0510
9 11 9 -3.7714 0.2949
9 11 10 -0.0656 -0.0372
9 11 11 1.1265 -0.1033
9 11 12 -5.8039 -0.0963
9 11 13 -0.1955 0.3989
9 11 14 4.6116 0.0349
9 11 15 2.3218 -0.0861
9 11 16 0.3890 -0.1033
9 12 1 6.2029 -0.0835
9 12 2 13.6293 0.1462
9 12 3 -5.8362 -0.2580
9 12 4 -2.1403 -0.0202
9 12 5 7.6965 0.5679
9 12 6 14.4154 -0.0515
9 12 7 -6.2196 -0.4056
9 12 8 -5.1863 0.0330
9 12 9 1.6626 0.0414
9 12 10 -1.4101 0.0765
9 12 11 -0.6779 -0.3837
9 12 12 -3.7250 0.0422
9 12 13 -3.3076 0.1570
9 12 14 -4.1042 -0.1687
9 12 15 1.1061 0.1419
9 13 0 -10.5552 -0.0039
9 13 1 2.4770 -0.7381
9 13 2 -4.5947 0.0110
9 13 3 -3.6415 0.2079
9 13 4 0.3291 -0.0409
9 13 5 0.6314 -0.1742
9 13 6 5.3019 0.1277
9 13 7 1.1000 0.3075
9 13 8 6.2441 -0.0873
9 13 9 -1.0406 -0.2915
9 13 10 1.2467 0.0274
9 13 11 2.9165 0.2432
9 13 12 2.6087 0.0318
9 13 13 -1.7665 -0.3849
9 13 14 -2.9808 0.1696
9 13 15 -1.4819 -0.1485
9 14 1 -13.5259 -0.0817
9 14 2 -6.2162 0.1158
9 14 3 10.9082 0.4066
9 14 4 -2.8273 -0.0822
9 14 5 -7.5548 -0.2657
9 14 6 -9.1481 -0.0438
9 14 7 2.5048 0.2379
9 14 8 2.1073 -0.0610
9 14 9 1.4693 -0.2606
9 14 10 3.2504 -0.0233
9 14 11 -1.3387 0.4389
9 14 12 3.3477 0.0633
9 14 13 4.0214 -0.1993
9 14 14 0.5134 0.0403
9 15 0 1.5324 -0.1889
9 15 1 0.3277 -0.0681
9 15 2 7.0569 -0.0591
9 15 3 -2.3064 -0.1124
9 15 4 1.0883 0.2089
9 15 5 2.8352 0.1726
9 15 6 -4.3402 -0.1506
9 15 7 -2.8502 0.1069
9 15 8 -5.5777 -0.0668
9 15 9 2.9589 0.1843
9 15 10 -1.9925 -0.0006
9 15 11 -3.5553 -0.2504
9 15 12 0.4553 0.0191
9 15 13 1.0602 0.0616
9 16 1 14.6983 0.3095
9 16 2 2.9579 -0.0635
9 16 3 -8.3846 -0.4829
9 16 4 3.3137 0.1055
9 16 5 3.5851 0.0090
9 16 6 5.4859 0.0168
9 16 7 -0.7648 -0.0677
9 16 8 0.6171 0.1025
9 16 9 -1.0053 0.0856
9 16 10 -3.0831 -0.0505
9 16 11 0.4149 0.0343
9 16 12 -3.0886 -0.2274
9 17 0 -1.7466 0.0285
9 17 1 -1.6873 0.6477
9 17 2 -3.8566 0.0766
9 17 3 2.6971 -0.1446
9 17 4 -1.0735 0.0057
9 17 5 0.5797 -0.1141
9 17 6 -0.0117 0.0697
9 17 7 -0.0262 -0.0762
9 17 8 6.2316 0.1441
9 17 9 -1.5303 -0.2053
9 17 10 1.1321 -0.1277
9 17 11 1.3703 0.0813
9 18 1 -5.6715 -0.0935
9 18 2 -3.5513 -0.1649
9 18 3 1.6963 0.0049
9 18 4 0.6091 -0.0516
9 18 5 -0.5026 0.1185
9 18 6 -5.6537 0.0440
9 18 7 0.1672 0.0414
9 18 8 0.5857 0.0408
9 18 9 0.6893 0.2173
9 18 10 1.5777 0.0986
9 19 0 1.9828 0.0561
9 19 1 0.0185 -0.2775
9 19 2 0.7574 -0.1026
9 19 3 0.9331 0.0969
9 19 4 1.7094 -0.0899
9 19 5 -3.2209 0.0070
9 19 6 1.0235 -0.1517
9 19 7 1.1931 0.0099
9 19 8 -4.8110 -0.0941
9 19 9 0.4044 0.0228
9 20 1 -0.0653 -0.3691
9 20 2 1.8767 -0.0048
9 20 3 0.5836 1.0144
9 20 4 -1.0802 0.1724
9 20 5 -0.3870 -0.6601
9 20 6 4.2483 -0.0825
9 20 7 0.5461 0.1008
9 20 8 -1.8389 -0.1546
9 21 0 -0.0285 0.0475
9 21 1 0.1876 -0.3868
9 21 2 0.1205 0.0245
9 21 3 -0.3908 0.2072
9 21 4 -2.4585 -0.0108
9 21 5 1.2808 0.0520
9 21 6 1.2304 0.2875
9 22 1 -0.0318 0.3882
9 22 2 -0.2349 0.1789
10 0 0 -110.5017 1.0222
10 0 2 53.5410 -0.4280
10 0 4 -13.5056 -0.3164
10 0 6 16.7590 -0.0614
10 0 8 20.8356 0.4754
10 0 10 -11.7627 0.0155
10 0 12 21.8828 -0.1116
10 0 14 -18.7706 0.1360
10 0 16 3.6669 0.1679
10 0 18 -0.2730 -0.3120
10 1 1 -1.7563 0.1394
10 1 2 -35.6266 0.3334
10 1 3 1.5393 0.3687
10 1 4 9.1843 -0.1178
10 1 5 2.6150 -0.5340
10 1 6 -17.3692 -0.2908
10 1 7 -0.3454 -0.1108
10 1 8 16.9067 -0.0890
10 1 9 -1.5842 0.4053
10 1 10 -4.8333 0.0151
10 1 11 0.1327 0.0532
10 1 12 12.8617 0.0677
10 1 13 0.8373 -0.3125
10 1 14 4.4260 0.1736
10 1 15 -0.2447 0.0679
10 1 16 -8.4631 0.0422
10 1 17 -0.1262 0.2135
10 1 18 -0.9879 -0.0833
10 2 0 82.3315 -0.3746
10 2 1 0.2961 0.3756
10 2 2 -35.7875 0.1953
10 2 3 -3.6573 0.1042
10 2 4 7.2654 -0.0218
10 2 5 -0.5859 0.2389
10 2 6 -12.6683 0.2727
10 2 7 6.5548 -0.3617
10 2 8 -18.7637 -0.4892
10 2 9 -3.1661 0.0213
10 2 10 6.4206 -0.0971
10 2 11 1.4190 0.1919
10 2 12 -15.1434 -0.0209
10 2 13 -0.0010 0.2185
10 2 14 12.8370 -0.0077
10 2 15 1.0118 -0.2312
10 2 16 -1.0038 0.1258
10 2 17 -0.3670 -0.0288
10 2 18 -0.3322 -0.0451
10 3 1 5.7829 -0.1692
10 3 2 22.0406 0.1504
10 3 3 -1.7498 -0.2209
10 3 4 -0.3813 0.2734
10 3 5 -7.8143 0.3855
10 3 6 9.3797 -0.1924
10 3 7 -1.6256 -0.0009
10 3 8 -6.7130 0.1398
10 3 9 4.8304 -0.2009
10 3 10 -2.3917 0.0041
10 3 11 0.6883 -0.0863
10 3 12 -8.2838 -0.0160
10 3 13 -2.3489 0.2473
10 3 14 -2.8742 -0.3670
10 3 15 0.8780 -0.0947
10 3 16 4.6542 0.2069
10 3 17 0.3990 -0.0085
10 3 18 3.0531 0.0746
10 4 0 -42.3140 -0.7398
10 4 1 -2.8700 -0.4201
10 4 2 11.7113 0.2911
10 4 3 6.9616 0.0371
10 4 4 -0.6823 0.2238
10 4 5 6.0358 -0.1588
10 4 6 8.1447 -0.0915
10 4 7 -14.3952 0.0789
10 4 8 14.5496 0.2495
10 4 9 5.0312 0.0019
10 4 10 0.6170 0.0283
10 4 11 -3.7121 -0.0029
10 4 12 5.2845 0.0019
10 4 13 1.1538 -0.1986
10 4 14 -4.3458 -0.1174
10 4 15 -1.4889 0.0756
10 4 16 -2.0430 0.0240
10 4 17 0.2173 -0.0067
10 4 18 0.6985 0.0722
10 5 1 -7.7059 0.1817
10 5 2 -13.2916 -0.4232
10 5 3 0.5658 0.1424
10 5 4 -7.5453 -0.2601
10 5 5 10.8666 -0.1500
10 5 6 -2.6724 0.2944
10 5 7 5.0607 0.0301
10 5 8 1.0374 0.1101
10 5 9 -6.6166 -0.0115
10 5 10 6.2184 -0.0420
10 5 11 -3.6303 0.0665
10 5 12 5.0415 -0.0042
10 5 13 4.1022 -0.0517
10 5 14 0.7810 0.0090
10 5 15 -1.7803 -0.0008
10 5 16 -1.8650 0.0185
10 5 17 0.2325 0.0610
10 5 18 -3.8582 -0.1525
10 6 0 31.5083 0.8146
10 6 1 3.4974 -0.1491
10 6 2 -6.3320 -0.5254
10 6 3 -7.7257 0.1004
10 6 4 2.0157 0.0453
10 6 5 -8.9012 0.0271
10 6 6 -8.5187 -0.2419
10 6 7 17.4649 0.1790
10 6 8 -12.0930 0.0321
10 6 9 -3.3553 -0.0599
10 6 10 -0.3250 -0.0273
10 6 11 3.1000 -0.1204
10 6 12 -3.0203 0.2173
10 6 13 -1.5440 0.1441
10 6 14 2.8518 -0.0973
10 6 15 0.9544 0.0392
10 6 16 1.3171 -0.0673
10 6 17 0.8240 0.0051
10 7 1 7.4491 -0.1150
10 7 2 14.2589 0.1268
10 7 3 -2.8695 -0.1750
10 7 4 7.9358 0.0005
10 7 5 -10.2361 0.0307
10 7 6 4.5451 0.1314
10 7 7 -6.2126 -0.0005
10 7 8 -5.0764 -0.3119
10 7 9 7.2514 0.0332
10 7 10 -3.4388 0.0837
10 7 11 6.0239 -0.0602
10 7 12 -4.7905 -0.0267
10 7 13 -5.3140 0.0342
10 7 14 -0.6702 0.2652
10 7 15 2.2551 0.0558
10 7 16 2.7449 -0.2343
10 7 17 -1.8006 -0.2017
10 8 0 -29.0632 0.3281
10 8 1 -2.9228 0.4329
10 8 2 6.0840 0.1563
10 8 3 7.7590 -0.1615
10 8 4 -4.2568 -0.2180
10 8 5 6.9928 -0.0140
10 8 6 8.1693 0.0924
10 8 7 -15.1340 -0.0561
10 8 8 11.7593 -0.0064
10 8 9 -0.6107 -0.0513
10 8 10 -2.7766 0.0261
10 8 11 0.6292 0.0865
10 8 12 5.1674 -0.1377
10 8 13 0.3615 -0.0152
10 8 14 -4.8213 0.1514
10 8 15 -0.0495 -0.1049
10 8 16 0.0795 -0.1094
10 8 17 -1.4184 0.0818
10 9 1 -5.9184 -0.0075
10 9 2 -16.9443 0.2625
10 9 3 2.3649 0.0893
10 9 4 -0.4816 0.1569
10 9 5 9.9344 -0.0023
10 9 6 -13.2573 -0.2770
10 9 7 6.1864 -0.0160
10 9 8 11.5113 -0.0087
10 9 9 -7.6571 0.1000
10 9 10 -1.4890 0.0458
10 9 11 -5.7530 0.0582
10 9 12 5.1903 0.0144
10 9 13 4.0802 -0.1679
10 9 14 2.8238 -0.0353
10 9 15 -1.8070 0.0227
10 9 16 -4.6569 -0.2195
10 10 0 26.8768 -0.8117
10 10 1 3.2761 0.0534
10 10 2 -9.0687 0.1179
10 10 3 -6.5724 -0.0206
10 10 4 7.9793 0.1078
10 10 5 -7.9249 0.0225
10 10 6 -6.5999 0.1421
10 10 7 14.1603 -0.1109
10 10 8 -10.4120 0.0352
10 10 9 0.9824 0.0997
10 10 10 4.3588 -0.1106
10 10 11 -0.7316 -0.0103
10 10 12 -7.2548 -0.1150
10 10 13 -0.6093 -0.0331
10 10 14 5.3190 0.1155
10 10 15 0.2584 0.0471
10 10 16 -0.1286 0.0580
10 11 1 -0.3914 -0.0044
10 11 2 18.4534 -0.1400
10 11 3 4.1319 0.0888
10 11 4 -9.4254 -0.1225
10 11 5 -11.7332 -0.0694
10 11 6 20.8989 0.0822
10 11 7 -5.3151 0.0908
10 11 8 -14.9410 0.2195
10 11 9 6.2165 -0.1594
10 11 10 4.9722 -0.0338
10 11 11 4.7974 -0.0425
10 11 12 -5.2806 -0.1208
10 11 13 -1.7291 0.0277
10 11 14 -3.1699 0.0122
10 11 15 1.2937 0.0537
10 11 16 3.5593 0.3879
10 12 0 -27.3968 0.0273
10 12 1 -1.9640 -0.4291
10 12 2 13.2315 0.0617
10 12 3 3.6492 0.0297
10 12 4 -9.3817 -0.0299
10 12 5 9.5858 0.1689
10 12 6 4.8787 0.0248
10 12 7 -14.5715 -0.1178
10 12 8 8.0354 -0.1543
10 12 9 1.1917 0.1619
10 12 10 -4.5948 0.0800
10 12 11 -0.8197 -0.0635
10 12 12 5.9112 0.2276
10 12 13 1.0088 0.0835
10 12 14 -2.8714 -0.1704
10 12 15 -0.2698 -0.2035
10 13 1 5.6957 0.0647
10 13 2 -16.4410 -0.1066
10 13 3 -6.8828 -0.1431
10 13 4 10.7581 -0.0973
10 13 5 12.2694 0.1334
10 13 6 -19.0245 0.0246
10 13 7 4.1803 -0.0700
10 13 8 12.3119 0.0221
10 13 9 -5.1844 -0.0104
10 13 10 -2.8930 -0.0348
10 13 11 -3.9172 0.0357
10 13 12 3.5710 0.0009
10 13 13 0.6190 0.2558
10 13 14 1.0956 0.0205
10 14 0 16.8925 0.5866
10 14 1 -0.2960 0.2705
10 14 2 -4.8227 -0.1366
10 14 3 -3.0108 0.0331
10 14 4 1.5109 -0.0445
10 14 5 -7.1680 -0.2075
10 14 6 -1.9749 -0.1066
10 14 7 13.5374 0.1746
10 14 8 -5.9997 -0.0484
10 14 9 -1.0151 -0.1285
10 14 10 2.8358 0.1130
10 14 11 -0.9143 -0.0133
10 14 12 -1.0272 -0.2922
10 14 13 -0.1868 -0.0817
10 14 14 0.1370 0.1106
10 15 1 -5.4458 -0.0324
10 15 2 8.7003 0.1129
10 15 3 5.3438 0.0645
10 15 4 -2.0732 0.2704
10 15 5 -11.4833 -0.1421
10 15 6 9.7120 -0.0433
10 15 7 -3.7224 -0.0215
10 15 8 -5.2384 -0.0593
10 15 9 5.1155 0.0667
10 15 10 -2.8324 -0.1789
10 15 11 2.8361 0.0983
10 15 12 -0.5816 0.3137
10 15 13 -0.0638 -0.2605
10 16 0 -2.6801 -0.2715
10 16 1 1.1853 0.1588
10 16 2 -5.5450 -0.0666
10 16 3 3.3141 -0.0949
10 16 4 4.1742 0.1760
10 16 5 4.8522 0.0392
10 16 6 1.8103 -0.1300
10 16 7 -10.7912 0.1048
10 16 8 3.2308 0.2556
10 16 9 -0.2258 -0.2041
10 16 10 -0.3922 0.1721
10 16 11 1.3465 0.1018
10 16 12 -1.4616 0.0008
10 17 1 5.6378 0.0177
10 17 2 -1.7220 -0.0305
10 17 3 -5.6374 0.0614
10 17 4 -3.0168 -0.2339
10 17 5 9.6093 0.0939
10 17 6 -5.0485 0.1065
10 17 7 2.9516 0.0242
10 17 8 2.1641 -0.2045
10 17 9 -2.9757 0.0302
10 17 10 3.5338 0.4344
10 17 11 -1.5149 -0.2435
10 18 0 -0.5031 -0.3022
10 18 1 -1.1439 -0.2891
10 18 2 4.3200 0.2127
10 18 3 -2.5084 0.1526
10 18 4 -0.9614 -0.1910
10 18 5 -2.6012 -0.0427
10 18 6 -3.7942 0.2490
10 18 7 5.2167 -0.0301
10 18 8 -0.7565 -0.2507
10 18 9 1.1991 0.1190
10 18 10 -0.4322 -0.4946
10 19 1 -4.8711 0.0063
10 19 2 0.8765 -0.1253
10 19 3 4.4057 -0.1518
10 19 4 -0.3544 0.2115
10 19 5 -5.8849 -0.0870
10 19 6 5.9040 -0.2168
10 19 7 -1.4580 0.0077
10 19 8 -2.7598 0.2198
10 19 9 0.9371 0.0876
10 20 0 -0.5925 0.4303
10 20 1 0.4491 -0.2926
10 20 2 -0.6446 -0.0486
10 20 3 2.7574 0.2234
10 20 4 -1.0896 0.0139
10 20 5 -0.8140 -0.0179
10 20 6 2.5516 -0.0738
10 20 7 -0.5985 -0.1893
10 21 1 0.7778 -0.0972
10 21 2 -1.8546 0.2048
10 21 3 -0.7820 0.1628
10 21 4 2.6558 -0.1504
10 21 5 2.6891 0.1373
11 0 2 23.0851 0.0327
11 0 4 -0.6795 -0.0910
11 0 6 -13.6236 0.0297
11 0 8 1.0653 -0.0961
11 0 10 5.8220 0.0118
11 0 12 -6.4517 0.0483
11 0 14 1.7782 0.0063
11 0 16 1.8135 -0.2674
11 0 18 6.1796 0.5175
11 1 0 -49.0559 -0.3682
11 1 1 -4.8202 -0.8338
11 1 2 26.2327 0.3437
11 1 3 9.6857 0.3315
11 1 4 -5.4274 -0.1460
11 1 5 -8.1728 0.2928
11 1 6 12.2480 -0.0327
11 1 7 5.3951 -0.4651
11 1 8 -6.9293 0.0828
11 1 9 -2.4008 0.0759
11 1 10 1.0264 -0.0252
11 1 11 1.7336 0.1234
11 1 12 11.9229 -0.0677
11 1 13 0.3707 0.1636
11 1 14 -8.6820 -0.0766
11 1 15 -1.5501 -0.2844
11 1 16 1.1797 -0.0940
11 1 17 2.1033 0.1427
11 1 18 2.1382 0.1229
11 2 1 -1.0760 0.1282
11 2 2 -19.3586 0.1131
11 2 3 -3.8623 -0.3099
11 2 4 0.3481 0.1408
11 2 5 5.0324 0.0667
11 2 6 11.5839 -0.0456
11 2 7 -5.8657 -0.0065
11 2 8 -2.5610 -0.1189
11 2 9 2.9649 -0.2563
11 2 10 -3.0040 0.0844
11 2 11 -1.9807 -0.0067
11 2 12 4.5029 0.0294
11 2 13 2.1816 0.1440
11 2 14 -0.9348 -0.0511
11 2 15 -1.3894 -0.0573
11 2 16 -2.4405 -0.0637
11 2 17 -0.4777 -0.2201
11 2 18 -4.0859 -0.1536
11 3 0 31.9757 -0.4779
11 3 1 8.9153 0.4488
11 3 2 -15.9510 0.0954
11 3 3 -17.9821 -0.0007
11 3 4 3.1143 -0.0021
11 3 5 18.9132 -0.2011
11 3 6 -6.9528 0.0847
11 3 7 -15.6524 0.1215
11 3 8 3.1720 0.0446
11 3 9 5.3468 0.1005
11 3 10 -2.5978 -0.0276
11 3 11 -2.8941 -0.1335
11 3 12 -7.5421 0.0166
11 3 13 -1.1983 -0.0806
11 3 14 4.8173 0.1091
11 3 15 2.5733 0.2018
11 3 16 -0.7846 0.0926
11 3 17 -2.9307 -0.0071
11 3 18 -0.7397 -0.4125
11 4 1 -12.1982 -0.1289
11 4 2 16.9365 -0.5065
11 4 3 10.3783 0.2097
11 4 4 -2.0534 -0.1203
11 4 5 -2.8777 -0.0344
11 4 6 -5.9532 0.0657
11 4 7 7.1138 0.2226
11 4 8 2.9606 0.1652
11 4 9 -4.0150 -0.0141
11 4 10 -1.2739 -0.0394
11 4 11 -0.6023 -0.0279
11 4 12 -1.7365 0.0109
11 4 13 0.6593 0.0293
11 4 14 0.9575 0.0433
11 4 15 -0.3955 0.0727
11 4 16 2.2181 0.2435
11 4 17 0.1972 0.0686
11 4 18 1.5226 -0.3656
11 5 0 -22.7809 0.7481
11 5 1 -6.8856 0.1056
11 5 2 8.6204 -0.1613
11 5 3 9.7958 -0.1742
11 5 4 -0.2871 0.1115
11 5 5 -14.0771 0.0846
11 5 6 2.4451 -0.0651
11 5 7 18.1118 0.0024
11 5 8 0.9118 -0.2304
11 5 9 -4.5359 -0.1659
11 5 10 2.1268 -0.0232
11 5 11 1.3322 0.0443
11 5 12 3.6480 0.0827
11 5 13 1.7345 0.1541
11 5 14 -1.3047 0.0547
11 5 15 -1.9870 -0.1723
11 5 16 0.4781 -0.0882
11 5 17 1.5952 0.0155
11 6 1 23.5712 -0.1618
11 6 2 -17.6469 0.4068
11 6 3 -16.6245 0.1553
11 6 4 1.7958 0.1968
11 6 5 -2.5494 -0.0433
11 6 6 1.9652 -0.0714
11 6 7 -1.8001 -0.1497
11 6 8 0.0153 -0.0596
11 6 9 1.0994 -0.0011
11 6 10 1.8983 -0.0306
11 6 11 4.7037 -0.0548
11 6 12 1.4892 -0.0743
11 6 13 -3.8782 -0.0854
11 6 14 -2.0032 -0.0672
11 6 15 1.5303 0.0019
11 6 16 -1.4614 -0.0173
11 6 17 0.0614 0.0460
11 7 0 16.6476 -0.1279
11 7 1 5.8293 -0.3953
11 7 2 -3.0365 -0.0324
11 7 3 -1.3925 -0.0079
11 7 4 -0.4103 -0.1963
11 7 5 3.6808 0.0567
11 7 6 -4.0727 0.1020
11 7 7 -14.0243 0.1369
11 7 8 0.2937 0.0746
11 7 9 2.8549 0.1394
11 7 10 -1.6283 0.1537
11 7 11 -0.2717 -0.0261
11 7 12 -2.3662 -0.0452
11 7 13 -0.2093 -0.1829
11 7 14 0.0318 -0.1024
11 7 15 1.1993 -0.0033
11 7 16 0.8934 -0.0062
11 7 17 -2.0136 0.2071
11 8 1 -25.2064 0.2037
11 8 2 12.0805 -0.0686
11 8 3 17.3898 -0.2315
11 8 4 3.8089 -0.0533
11 8 5 4.1643 -0.0265
11 8 6 -1.8483 0.0097
11 8 7 0.3537 0.0514
11 8 8 -3.2451 -0.0086
11 8 9 -0.1594 0.1148
11 8 10 1.9145 -0.1602
11 8 11 -6.4593 0.0875
11 8 12 -4.2939 0.1106
11 8 13 5.4233 0.0803
11 8 14 1.8843 -0.0162
11 8 15 -1.7879 -0.1178
11 8 16 2.0612 0.1067
11 8 17 1.4598 0.0543
11 9 0 -5.4525 -0.5114
11 9 1 -5.4595 0.2177
11 9 2 -2.4234 0.0493
11 9 3 2.9314 0.1239
11 9 4 -0.9594 0.2002
11 9 5 -7.7922 -0.0716
11 9 6 6.2848 -0.0452
11 9 7 15.2803 -0.2069
11 9 8 -3.8314 0.1838
11 9 9 -2.4021 0.0021
11 9 10 2.3893 -0.1571
11 9 11 -0.3972 -0.0567
11 9 12 2.3208 -0.1594
11 9 13 -2.2272 0.0702
11 9 14 0.2622 -0.0468
11 9 15 0.1606 0.1064
11 9 16 -2.6864 0.0357
11 10 1 19.4325 0.1109
11 10 2 -5.8727 -0.0919
11 10 3 -9.4713 -0.0903
11 10 4 -4.1641 -0.1736
11 10 5 -4.1160 0.0460
11 10 6 -0.1523 0.1112
11 10 7 -4.8163 -0.0307
11 10 8 4.7724 0.0765
11 10 9 1.9913 -0.0424
11 10 10 -5.5327 0.2301
11 10 11 5.3704 -0.0234
11 10 12 6.8804 -0.0615
11 10 13 -4.3052 0.0148
11 10 14 -1.7992 0.2341
11 10 15 1.6723 -0.1381
11 10 16 -1.9134 -0.4948
11 11 0 2.1986 0.3869
11 11 1 4.6007 0.2397
11 11 2 0.7776 0.0817
11 11 3 -7.1893 -0.0815
11 11 4 2.6864 -0.1867
11 11 5 16.4063 -0.0145
11 11 6 -3.6460 -0.0036
11 11 7 -17.0494 0.0093
11 11 8 3.1551 -0.1899
11 11 9 1.7532 -0.0435
11 11 10 -1.8983 0.1236
11 11 11 1.1028 0.1410
11 11 12 -0.8549 0.1009
11 11 13 2.0634 0.1534
11 11 14 -1.0047 0.2358
11 11 15 0.1266 -0.1477
11 12 1 -8.5774 -0.1750
11 12 2 5.6990 0.0309
11 12 3 1.6254 0.1827
11 12 4 -1.9843 0.0379
11 12 5 4.9853 0.1497
11 12 6 3.9363 -0.1760
11 12 7 4.7556 -0.0171
11 12 8 -3.6205 -0.0322
11 12 9 -1.3388 -0.0467
11 12 10 2.8181 -0.0506
11 12 11 -1.9816 -0.0914
11 12 12 -4.0592 -0.0179
11 12 13 -0.2585 0.0184
11 12 14 1.0848 -0.3241
11 12 15 -0.1998 0.3361
11 13 0 -4.7752 0.2777
11 13 1 -4.3306 -0.3456
11 13 2 2.5850 -0.0994
11 13 3 5.7562 0.0611
11 13 4 -2.5862 -0.0079
11 13 5 -13.5533 -0.0040
11 13 6 0.2315 0.0436
11 13 7 14.3204 0.1917
11 13 8 0.0686 -0.0204
11 13 9 -2.2832 -0.0799
11 13 10 0.3598 -0.0012
11 13 11 -0.7596 -0.0479
11 13 12 -1.7474 0.0466
11 13 13 -0.8578 -0.2554
11 13 14 1.3383 -0.2057
11 14 1 5.4962 -0.0091
11 14 2 -5.8675 0.1534
11 14 3 -3.2736 0.0137
11 14 4 4.4311 0.2040
11 14 5 -4.6470 -0.1543
11 14 6 -5.4107 0.0861
11 14 7 -2.2416 -0.1180
11 14 8 2.4442 -0.0723
11 14 9 1.8729 0.0359
11 14 10 0.9171 -0.1229
11 14 11 -1.0328 0.0704
11 14 12 0.3213 0.1794
11 14 13 2.2697 -0.1056
11 14 14 0.4345 0.0898
11 15 0 1.5161 -0.4673
11 15 1 2.8772 -0.0489
11 15 2 0.2599 -0.0084
11 15 3 -0.9328 -0.0582
11 15 4 0.6244 0.3688
11 15 5 8.4778 0.0159
11 15 6 0.0020 -0.2394
11 15 7 -13.4652 -0.0131
11 15 8 -0.9245 0.1187
11 15 9 3.0707 0.0274
11 15 10 0.0482 -0.0901
11 15 11 1.0622 -0.0176
11 15 12 2.4316 -0.0279
11 15 13 0.9801 -0.0692
11 16 1 -8.3979 0.1479
11 16 2 2.9955 -0.1065
11 16 3 4.6763 -0.0986
11 16 4 -1.7715 -0.1895
11 16 5 5.2603 -0.0098
11 16 6 4.8000 0.0841
11 16 7 1.6964 0.2184
11 16 8 -3.4245 -0.0505
11 16 9 -3.5417 0.1226
11 16 10 0.7537 0.2284
11 16 11 0.8332 -0.0131
11 16 12 -1.1001 -0.3437
11 17 0 2.8243 -0.1035
11 17 1 -0.6062 0.2885
11 17 2 -3.0095 0.0548
11 17 3 -1.2908 0.1216
11 17 4 -0.8639 -0.2935
11 17 5 -6.3319 0.0292
11 17 6 2.0838 0.1856
11 17 7 10.1214 -0.1263
11 17 8 -0.2437 0.2046
11 17 9 -0.4566 0.0310
11 17 10 0.1637 -0.2066
11 17 11 -2.0181 0.0792
11 18 1 4.7064 -0.1417
11 18 2 -0.1040 -0.1333
11 18 3 -0.4559 -0.0441
11 18 4 -0.5712 -0.0059
11 18 5 -6.0768 -0.1431
11 18 6 -3.4879 0.0258
11 18 7 0.3151 0.1022
11 18 8 3.2972 0.0562
11 18 9 1.3273 -0.3045
11 18 10 -2.2177 -0.1189
11 19 0 -2.6212 0.6932
11 19 1 0.3348 -0.1186
11 19 2 1.7322 -0.0705
11 19 3 0.2369 -0.1161
11 19 4 2.2265 -0.1913
11 19 5 1.8476 -0.1251
11 19 6 -2.1744 0.1972
11 19 7 -1.9779 -0.1039
11 19 8 -0.2597 -0.4504
11 20 1 0.1078 -0.1136
11 20 2 -0.0817 0.2290
11 20 3 -0.4340 0.3998
11 20 4 0.2343 0.0975
11 20 5 2.9796 0.3340
11 20 6 1.7781 -0.2822
11 20 7 -1.3599 -0.3857
11 21 0 1.0843 -0.6211
11 21 1 -1.0131 -0.1259
11 21 2 -0.8022 0.0082
11 21 3 1.2543 0.0216
11 21 4 -0.6228 0.4222
12 0 0 -25.0975 0.1877
12 0 2 18.8503 -0.1460
12 0 4 5.9215 -0.1848
12 0 6 -3.1539 0.0726
12 0 8 12.7394 0.1970
12 0 10 0.3223 0.1366
12 0 12 10.6039 -0.2449
12 0 14 -4.0315 0.0731
12 0 16 -1.9377 0.2254
12 1 1 -0.7152 0.2231
12 1 2 -10.2929 0.1552
12 1 3 1.8659 -0.0580
12 1 4 -18.5143 -0.0128
12 1 5 0.2982 -0.3215
12 1 6 15.0694 -0.3226
12 1 7 -2.8367 -0.2415
12 1 8 -0.1441 0.0763
12 1 9 1.6386 -0.0457
12 1 10 1.8246 -0.0155
12 1 11 0.0619 -0.0104
12 1 12 1.5893 0.2534
12 1 13 -0.7856 0.2604
12 1 14 2.7856 -0.0424
12 1 15 1.0104 -0.0978
12 1 16 -1.6623 0.0451
12 1 17 -0.3554 -0.0353
12 2 0 8.4922 -0.0449
12 2 1 -1.0669 0.7560
12 2 2 -9.7759 -0.0804
12 2 3 1.1092 -0.0449
12 2 4 -5.5370 0.2615
12 2 5 0.4745 -0.0150
12 2 6 2.9741 -0.0082
12 2 7 1.0180 -0.0934
12 2 8 -9.5729 -0.1078
12 2 9 -2.1508 -0.0562
12 2 10 -3.3902 -0.1958
12 2 11 0.6593 0.1979
12 2 12 -11.2166 0.1361
12 2 13 -0.5895 0.0752
12 2 14 5.1381 0.0764
12 2 15 0.7203 -0.0809
12 2 16 1.4018 0.2116
12 2 17 -0.1379 -0.0402
12 3 1 -0.6998 -0.2912
12 3 2 -2.4286 0.0021
12 3 3 -2.8057 0.1112
12 3 4 22.1961 0.0120
12 3 5 0.3109 0.2946
12 3 6 -15.1838 0.0129
12 3 7 5.1345 0.2456
12 3 8 5.4751 0.0349
12 3 9 -2.4815 -0.0216
12 3 10 -0.8716 0.1032
12 3 11 -0.8275 -0.1762
12 3 12 -4.1681 -0.2208
12 3 13 1.0093 0.0697
12 3 14 -2.5837 -0.0864
12 3 15 -1.8784 -0.1204
12 3 16 2.3953 0.2268
12 3 17 0.6701 0.2240
12 4 0 2.9803 -0.1414
12 4 1 2.1035 -0.5462
12 4 2 2.1593 0.1850
12 4 3 -5.1616 -0.0668
12 4 4 4.2360 -0.1220
12 4 5 3.0180 0.0193
12 4 6 -0.9021 -0.0596
12 4 7 -2.2200 0.1656
12 4 8 3.5831 0.0610
12 4 9 3.2641 -0.0999
12 4 10 6.1572 -0.0327
12 4 11 0.7156 -0.1556
12 4 12 12.9089 -0.0468
12 4 13 -0.8142 -0.0370
12 4 14 -6.7881 0.0085
12 4 15 -0.2538 -0.0090
12 4 16 -0.0913 -0.2001
12 4 17 -1.1345 0.0485
12 5 1 0.7063 0.0803
12 5 2 0.4305 -0.0708
12 5 3 2.9765 0.1194
12 5 4 -15.8617 -0.1082
12 5 5 -3.4558 -0.1101
12 5 6 8.6982 0.2907
12 5 7 -2.7194 -0.1937
12 5 8 -4.6891 -0.0715
12 5 9 0.0544 -0.0328
12 5 10 -1.4873 -0.0643
12 5 11 2.7667 0.0979
12 5 12 5.2566 -0.0655
12 5 13 0.0811 -0.0474
12 5 14 1.9957 0.0891
12 5 15 1.3401 -0.0536
12 5 16 -2.5449 -0.2008
12 5 17 -0.6524 0.1702
12 6 0 11.1364 0.0384
12 6 1 -1.5710 -0.4667
12 6 2 -5.6405 -0.0735
12 6 3 6.8436 0.2118
12 6 4 -4.4312 -0.0598
12 6 5 -5.0191 -0.0612
12 6 6 -0.2095 0.1714
12 6 7 1.7290 0.0868
12 6 8 -2.3419 -0.1526
12 6 9 -4.1064 0.1930
12 6 10 -4.0749 0.2036
12 6 11 -1.4944 0.0074
12 6 12 -11.0878 0.0289
12 6 13 2.0001 -0.0292
12 6 14 4.0121 -0.0067
12 6 15 -0.1243 -0.0042
12 6 16 0.6195 -0.1615
12 6 17 1.4618 -0.0907
12 7 1 2.3292 0.1889
12 7 2 6.0009 -0.0455
12 7 3 -3.3278 -0.3929
12 7 4 8.0975 0.0458
12 7 5 4.4844 -0.0824
12 7 6 -0.9202 -0.1427
12 7 7 1.6882 0.1272
12 7 8 2.5377 0.0538
12 7 9 0.9848 0.1130
12 7 10 0.5844 -0.0933
12 7 11 -3.4706 0.0538
12 7 12 -3.5036 0.1943
12 7 13 -1.3321 0.0417
12 7 14 -0.8001 -0.1084
12 7 15 -0.1364 0.0542
12 7 16 1.0529 0.2351
12 7 17 0.3146 -0.5182
12 8 0 -12.2578 0.3885
12 8 1 0.5144 0.7976
12 8 2 1.9038 -0.2666
12 8 3 -5.6759 -0.1642
12 8 4 7.1031 0.2264
12 8 5 4.4268 -0.0118
12 8 6 -3.5944 -0.3189
12 8 7 -0.2194 -0.1697
12 8 8 5.4776 0.2955
12 8 9 3.8940 -0.1559
12 8 10 2.8101 -0.1417
12 8 11 1.7186 0.0547
12 8 12 4.9520 -0.0535
12 8 13 -2.5971 0.0293
12 8 14 1.4087 -0.0846
12 8 15 0.7818 0.0839
12 8 16 -2.6150 0.1876
12 9 1 -2.0001 -0.0400
12 9 2 -0.5666 0.0768
12 9 3 1.0348 0.1630
12 9 4 -7.7920 -0.0025
12 9 5 -1.5813 0.0740
12 9 6 -1.0634 0.0458
12 9 7 -3.1748 -0.1202
12 9 8 -4.5733 -0.1752
12 9 9 0.2591 -0.0052
12 9 10 0.8452 0.3142
12 9 11 1.9285 -0.0673
12 9 12 1.9686 -0.2753
12 9 13 2.2743 -0.0734
12 9 14 1.0151 0.2383
12 9 15 -0.9938 0.0940
12 9 16 -1.1086 -0.2961
12 10 0 -0.5156 -0.4392
12 10 1 0.1320 0.0646
12 10 2 6.3728 0.4245
12 10 3 3.8934 -0.0561
12 10 4 -8.3336 -0.3440
12 10 5 -2.8454 0.0973
12 10 6 5.9676 0.2829
12 10 7 -1.4150 -0.0275
12 10 8 -4.3590 -0.2207
12 10 9 -2.5592 0.0408
12 10 10 -3.3633 0.1597
12 10 11 -1.8193 -0.0722
12 10 12 -2.2485 -0.0783
12 10 13 2.1677 0.0816
12 10 14 -1.6342 0.0224
12 10 15 -1.0909 0.0542
12 10 16 1.2800 0.0509
12 11 1 2.7014 -0.2398
12 11 2 -3.7784 0.0326
12 11 3 -1.2038 0.3114
12 11 4 8.0135 0.0394
12 11 5 1.1542 0.0812
12 11 6 -0.4188 -0.1699
12 11 7 3.3863 0.0391
12 11 8 4.3139 0.1523
12 11 9 -1.2896 -0.0434
12 11 10 1.7136 -0.1668
12 11 11 -0.5766 -0.0081
12 11 12 -1.6530 0.1427
12 11 13 -2.0027 -0.0611
12 11 14 -1.5324 -0.0651
12 11 15 0.8215 0.0272
12 12 0 5.3025 0.0746
12 12 1 -1.4933 -0.7688
12 12 2 -9.2949 -0.0782
12 12 3 -0.9076 0.1688
12 12 4 7.6014 0.1464
12 12 5 -0.6262 -0.0014
12 12 6 -3.0079 -0.0356
12 12 7 3.8909 0.0406
12 12 8 0.0880 -0.0137
12 12 9 1.8177 0.0869
12 12 10 2.5571 -0.1739
12 12 11 0.6782 -0.0111
12 12 12 1.4897 0.1681
12 12 13 -0.1588 -0.0116
12 12 14 -0.1663 0.0860
12 13 1 -4.7867 0.2517
12 13 2 2.5357 0.0519
12 13 3 2.6148 -0.3547
12 13 4 -7.3467 -0.0462
12 13 5 -2.6960 -0.1852
12 13 6 1.9566 0.1551
12 13 7 -3.4649 0.1005
12 13 8 -2.3259 -0.0225
12 13 9 2.7790 -0.0949
12 13 10 -2.2394 -0.0289
12 13 11 -0.4057 0.0436
12 13 12 1.0409 0.1343
12 13 13 1.5206 -0.0417
12 13 14 0.0120 -0.1887
12 14 0 -6.5185 0.1438
12 14 1 2.8236 0.3787
12 14 2 9.8461 -0.3300
12 14 3 -0.4418 -0.0969
12 14 4 -5.8756 0.2128
12 14 5 2.2989 -0.0920
12 14 6 0.6218 -0.1357
12 14 7 -5.3949 0.1181
12 14 8 0.3492 0.0845
12 14 9 -0.8267 -0.0291
12 14 10 -2.2799 -0.0600
12 14 11 -0.9441 0.1329
12 14 12 2.0884 0.1509
12 14 13 -0.0836 -0.2819
12 15 1 4.3602 -0.0441
12 15 2 -1.6343 -0.0773
12 15 3 -1.0947 -0.0006
12 15 4 4.9365 -0.0035
12 15 5 2.7211 0.0725
12 15 6 -0.3898 -0.0068
12 15 7 3.1391 0.0008
12 15 8 1.6257 -0.0844
12 15 9 -2.9358 0.0824
12 15 10 0.5164 -0.0792
12 15 11 0.4585 0.1364
12 15 12 -1.0625 -0.1950
12 16 0 6.0752 -0.1856
12 16 1 -3.1018 0.4252
12 16 2 -7.2854 0.2602
12 16 3 -0.6184 -0.0492
12 16 4 2.6138 -0.1828
12 16 5 -0.4504 0.1183
12 16 6 -1.0117 0.1036
12 16 7 3.6021 -0.1674
12 16 8 1.1979 0.0914
12 16 9 0.0517 -0.1981
12 16 10 2.6284 0.0392
12 16 11 2.0782 -0.0415
12 16 12 -3.1322 -0.4058
12 17 1 -4.4520 -0.1558
12 17 2 -0.2560 -0.0342
12 17 3 0.2296 0.2507
12 17 4 0.5195 -0.0679
12 17 5 -2.0806 -0.0093
12 17 6 -3.6852 -0.0010
12 17 7 -1.7294 -0.1698
12 17 8 0.8202 0.3887
12 17 9 0.8698 0.0620
12 17 10 -1.6111 0.0213
12 17 11 0.7529 -0.2401
12 18 0 -3.3354 0.1370
12 18 1 2.8065 -0.4537
12 18 2 3.6937 0.0189
12 18 3 0.6003 0.1239
12 18 4 -0.5037 0.0214
12 18 5 -0.3842 -0.1820
12 18 6 0.9986 -0.1818
12 18 7 -0.4939 0.0369
12 18 8 -1.3340 -0.1486
12 18 9 -1.2287 0.2994
12 19 1 3.3312 0.1447
12 19 2 0.8780 -0.1903
12 19 3 0.0100 -0.2049
12 19 4 -1.8459 0.2832
12 19 5 0.7593 0.1923
12 19 6 4.0421 -0.1670
12 19 7 1.5843 0.1350
12 19 8 -2.7859 -0.5379
12 20 0 2.4804 -0.0113
12 20 1 -1.9670 -0.1666
12 20 2 -2.5422 -0.0398
12 20 3 -0.0872 -0.0070
12 20 4 -0.0356 -0.1836
12 20 5 -0.3174 0.1952
12 20 6 0.1248 0.3325
12 21 1 -0.4999 -0.0694
12 21 2 0.8645 0.4116
12 21 3 -0.6831 0.0644
13 0 2 -38.8510 0.6973
13 0 4 -6.0471 -0.0345
13 0 6 -8.1491 -0.3484
13 0 8 1.3386 0.0025
13 0 10 6.2961 0.1627
13 0 12 1.4046 -0.0176
13 0 14 8.3483 0.0226
13 0 16 -3.3283 0.0570
13 1 0 32.2520 -0.8122
13 1 1 0.0943 0.4834
13 1 2 -3.1445 0.2836
13 1 3 -2.7383 -0.0077
13 1 4 2.1618 0.0035
13 1 5 3.3898 0.0350
13 1 6 -17.5269 0.2786
13 1 7 -1.4442 -0.1790
13 1 8 -4.3171 -0.1839
13 1 9 2.3950 -0.1309
13 1 10 1.2415 -0.0047
13 1 11 -1.8908 0.1948
13 1 12 -11.6803 -0.0284
13 1 13 0.2453 0.2755
13 1 14 7.5192 0.1012
13 1 15 0.9943 -0.4137
13 1 16 1.8816 0.1639
13 1 17 -1.1636 -0.2055
13 2 1 8.2611 -0.0206
13 2 2 36.1516 -0.1688
13 2 3 -6.7292 -0.0631
13 2 4 5.5139 0.0681
13 2 5 -0.4957 0.0826
13 2 6 7.4739 0.0187
13 2 7 2.2573 0.3656
13 2 8 0.0076 0.0024
13 2 9 -2.3867 -0.4134
13 2 10 -5.3742 -0.0754
13 2 11 5.1517 0.0045
13 2 12 -2.9261 0.0169
13 2 13 -5.4039 0.1769
13 2 14 -8.1963 -0.1379
13 2 15 3.4199 0.0486
13 2 16 4.2979 0.1509
13 2 17 -1.1780 0.0453
13 3 0 -18.3163 -0.3356
13 3 1 -0.5195 -0.2958
13 3 2 -5.8992 0.0361
13 3 3 6.2629 -0.1551
13 3 4 4.3784 0.1772
13 3 5 -7.5880 -0.0165
13 3 6 11.0784 -0.1048
13 3 7 3.9158 0.0776
13 3 8 4.4649 0.0587
13 3 9 -5.5025 0.3654
13 3 10 2.0823 -0.0891
13 3 11 3.2357 -0.4294
13 3 12 9.7271 0.0554
13 3 13 -0.3340 0.0573
13 3 14 -8.1530 -0.1031
13 3 15 -1.7034 0.0036
13 3 16 -0.7098 -0.0738
13 3 17 2.0476 0.5196
13 4 1 -9.3069 0.2663
13 4 2 -32.3592 -0.4301
13 4 3 7.4552 -0.3173
13 4 4 -1.9802 -0.1506
13 4 5 -1.2004 0.2549
13 4 6 -9.0552 0.2744
13 4 7 0.0206 -0.4525
13 4 8 -1.2465 0.0668
13 4 9 1.8485 0.2662
13 4 10 5.6771 0.0406
13 4 11 -4.9187 -0.0565
13 4 12 3.8773 0.0030
13 4 13 4.5270 0.0454
13 4 14 7.0997 -0.0497
13 4 15 -3.0919 -0.1187
13 4 16 -4.6019 -0.1979
13 4 17 1.3056 -0.0396
13 5 0 22.7828 1.0854
13 5 1 0.2345 -0.1551
13 5 2 -0.1877 -0.2519
13 5 3 -3.7688 0.3081
13 5 4 -1.4661 -0.1164
13 5 5 4.1111 -0.0955
13 5 6 -7.7574 -0.1282
13 5 7 -2.4018 0.0922
13 5 8 -7.7648 -0.0012
13 5 9 3.7959 -0.2931
13 5 10 -2.0181 0.1104
13 5 11 -0.3135 0.3256
13 5 12 -5.5673 0.1098
13 5 13 -0.3648 -0.2690
13 5 14 4.4544 -0.0125
13 5 15 0.8066 0.1505
13 5 16 1.9158 -0.0700
13 5 17 -1.3290 -0.5007
13 6 1 0.9987 -0.2417
13 6 2 27.0889 0.3702
13 6 3 -0.1599 0.2604
13 6 4 1.2580 0.1314
13 6 5 1.1939 -0.2959
13 6 6 11.0585 -0.1555
13 6 7 -2.9634 0.2486
13 6 8 -0.1485 -0.0957
13 6 9 -0.3671 0.0154
13 6 10 -7.1356 -0.0705
13 6 11 1.5878 0.0967
13 6 12 -1.8459 -0.0531
13 6 13 0.1996 -0.1569
13 6 14 -6.0572 0.2043
13 6 15 -0.1643 0.1707
13 6 16 2.7845 0.0365
13 6 17 -0.6512 -0.3097
13 7 0 -29.3606 -0.3335
13 7 1 0.8937 0.3118
13 7 2 6.6487 0.1290
13 7 3 -1.7011 -0.2002
13 7 4 -3.0617 -0.1131
13 7 5 3.0435 0.0690
13 7 6 8.1104 0.1594
13 7 7 -2.5384 -0.0667
13 7 8 10.5625 -0.0238
13 7 9 0.7176 0.0307
13 7 10 -1.6947 0.0257
13 7 11 -2.9789 -0.0983
13 7 12 3.9681 -0.1357
13 7 13 1.0178 0.1319
13 7 14 0.4924 0.0159
13 7 15 -0.1347 0.2172
13 7 16 -5.3263 -0.0478
13 8 1 6.7416 0.0448
13 8 2 -18.2687 0.0735
13 8 3 -6.6429 -0.0170
13 8 4 -6.1120 0.0862
13 8 5 0.5839 0.1309
13 8 6 -9.4437 -0.1215
13 8 7 3.4436 -0.0987
13 8 8 3.7742 0.0426
13 8 9 -0.4310 -0.0185
13 8 10 2.3599 -0.0663
13 8 11 0.5253 -0.0321
13 8 12 2.8984 0.1944
13 8 13 -2.7119 -0.0140
13 8 14 5.8316 0.0251
13 8 15 2.5668 -0.0783
13 8 16 -1.7756 -0.3226
13 9 0 22.9613 -0.6814
13 9 1 -1.5508 -0.0944
13 9 2 -2.7346 0.0458
13 9 3 3.4807 0.0537
13 9 4 1.9668 0.1174
13 9 5 -5.0065 -0.0067
13 9 6 -8.5186 0.0083
13 9 7 4.8791 -0.1034
13 9 8 -6.9075 0.1133
13 9 9 -2.7851 0.1286
13 9 10 1.4977 -0.1665
13 9 11 2.4803 0.0347
13 9 12 -5.7423 -0.0715
13 9 13 -0.0659 0.0561
13 9 14 -0.0428 0.2630
13 9 15 -0.2576 -0.3643
13 9 16 5.7560 -0.0260
13 10 1 -5.3037 0.1432
13 10 2 13.6434 -0.1748
13 10 3 5.2727 -0.2160
13 10 4 4.0744 -0.2593
13 10 5 -0.1132 0.1480
13 10 6 10.2762 0.1982
13 10 7 -3.3418 -0.0702
13 10 8 -6.3278 0.0509
13 10 9 1.3047 -0.0197
13 10 10 3.7500 0.1316
13 10 11 -0.5190 -0.0747
13 10 12 -6.4546 -0.1772
13 10 13 0.6861 0.0089
13 10 14 -4.8373 -0.2550
13 10 15 -1.3281 0.1882
13 11 0 -18.2822 0.5585
13 11 1 1.6050 -0.1157
13 11 2 2.0444 -0.0315
13 11 3 -2.2506 0.0415
13 11 4 -2.5631 -0.0162
13 11 5 2.8214 -0.0735
13 11 6 6.7638 -0.0138
13 11 7 -3.8614 0.1778
13 11 8 3.9317 -0.1633
13 11 9 1.9696 -0.2119
13 11 10 1.3131 0.1967
13 11 11 0.2034 0.1111
13 11 12 5.0626 -0.0518
13 11 13 -1.3972 -0.2247
13 11 14 -2.8055 0.0084
13 11 15 0.3389 0.1143
13 12 1 -1.9972 -0.1679
13 12 2 -12.6235 -0.0360
13 12 3 -0.1497 0.2951
13 12 4 2.9150 0.0842
13 12 5 -0.9605 -0.2493
13 12 6 -13.3696 -0.1383
13 12 7 2.2486 0.2785
13 12 8 4.0407 -0.0577
13 12 9 -0.7738 -0.2287
13 12 10 0.4294 -0.0293
13 12 11 -0.9336 0.2836
13 12 12 4.1433 0.0231
13 12 13 2.4841 0.0220
13 12 14 2.8157 0.1506
13 13 0 13.3116 0.2493
13 13 1 -0.2988 0.2996
13 13 2 -1.3720 -0.0465
13 13 3 -0.5903 -0.1808
13 13 4 3.3968 -0.0148
13 13 5 0.3591 0.1768
13 13 6 -3.1215 -0.0815
13 13 7 0.0931 -0.0608
13 13 8 -6.9656 0.0085
13 13 9 0.7762 0.2061
13 13 10 -0.8000 -0.0521
13 13 11 -1.7982 -0.1987
13 13 12 -1.0310 0.1385
13 13 13 1.0470 0.2683
13 13 14 2.1856 -0.3983
13 14 1 6.7101 0.0493
13 14 2 8.6674 0.1617
13 14 3 -1.7943 -0.1794
13 14 4 -2.3750 0.2347
13 14 5 0.6960 0.0951
13 14 6 11.7144 0.0346
13 14 7 -0.5988 -0.2546
13 14 8 -1.3609 0.0364
13 14 9 -1.0418 0.2277
13 14 10 -5.9794 0.1294
13 14 11 1.7468 -0.2479
13 14 12 -0.2393 -0.2083
13 14 13 -2.3079 0.1985
13 15 0 -5.1485 -0.5812
13 15 1 -1.1565 -0.1001
13 15 2 -3.4375 0.0465
13 15 3 2.2085 0.0276
13 15 4 -1.3703 0.1651
13 15 5 -1.7125 -0.1241
13 15 6 1.6815 -0.0852
13 15 7 3.7901 -0.0353
13 15 8 7.3040 0.1977
13 15 9 -3.4033 -0.1687
13 15 10 -0.3441 -0.0338
13 15 11 1.7661 0.0104
13 15 12 -1.2260 0.1375
13 16 1 -4.4134 0.0062
13 16 2 -4.0955 -0.1667
13 16 3 0.6076 0.1409
13 16 4 -2.2944 -0.2838
13 16 5 -1.2223 -0.0339
13 16 6 -6.5559 0.1074
13 16 7 1.0209 0.1068
13 16 8 2.1354 -0.1645
13 16 9 1.1801 0.1792
13 16 10 3.0473 -0.1798
13 16 11 -0.9131 -0.1850
13 17 0 0.8403 -0.0114
13 17 1 0.5206 -0.2965
13 17 2 4.8904 0.0457
13 17 3 0.2145 0.2049
13 17 4 0.4765 -0.2929
13 17 5 -1.1983 -0.0344
13 17 6 -2.2546 0.2417
13 17 7 -2.5058 0.1212
13 17 8 -3.3169 -0.2072
13 17 9 2.2079 0.0821
13 17 10 0.1305 -0.0645
13 18 1 0.3503 -0.0242
13 18 2 1.1065 -0.0261
13 18 3 0.7282 0.0803
13 18 4 3.4975 0.2081
13 18 5 0.7214 -0.1908
13 18 6 2.8907 -0.1919
13 18 7 -0.7966 -0.0053
13 18 8 -2.3849 0.2288
13 18 9 -0.5310 -0.2973
13 19 0 0.5101 0.8072
13 19 1 -0.2919 0.0138
13 19 2 -2.4804 -0.1197
13 19 3 -0.6128 0.0849
13 19 4 -1.6348 0.1508
13 19 5 2.5131 0.1374
13 19 6 1.6831 -0.0329
13 19 7 -0.4867 -0.3599
13 20 1 0.3483 0.0446
13 20 2 0.1578 0.2495
13 20 3 -1.5973 -0.5412
13 20 4 -1.5913 -0.1996
13 20 5 1.9863 0.6004
13 21 0 -0.4709 -0.8243
13 21 1 1.3556 0.3421
14 0 0 65.3094 -0.1960
14 0 2 -22.4974 0.2733
14 0 4 1.4459 -0.4050
14 0 6 0.8103 0.2897
14 0 8 -20.1114 0.0619
14 0 10 9.4169 -0.1054
14 0 12 -13.1837 -0.2688
14 0 14 10.5707 0.1127
14 0 16 -2.3428 -0.1217
14 1 1 -5.3582 0.3043
14 1 2 22.2020 -0.0036
14 1 3 2.0060 0.0673
14 1 4 -3.5288 0.1733
14 1 5 -3.5019 -0.2429
14 1 6 15.7298 -0.1463
14 1 7 2.0128 -0.1184
14 1 8 -9.6865 0.0783
14 1 9 0.5563 -0.0482
14 1 10 1.5762 0.0406
14 1 11 -1.3784 -0.1681
14 1 12 -6.2719 0.1447
14 1 13 1.1734 0.3451
14 1 14 -1.8496 -0.2757
14 1 15 -1.1230 -0.1736
14 1 16 2.7970 -0.0526
14 1 17 -0.1662 -0.1760
14 2 0 -53.1656 -0.0349
14 2 1 1.3786 0.9937
14 2 2 16.5601 -0.2804
14 2 3 -0.3351 0.2119
14 2 4 -2.8164 0.3996
14 2 5 1.9616 -0.0819
14 2 6 2.4572 -0.2256
14 2 7 -6.8726 0.0909
14 2 8 15.0328 0.2370
14 2 9 5.9129 -0.1214
14 2 10 -5.3945 -0.1032
14 2 11 -2.7978 0.1393
14 2 12 10.7213 0.1154
14 2 13 1.2504 -0.1832
14 2 14 -8.3573 0.0793
14 2 15 -0.4488 0.0283
14 2 16 0.2844 -0.1010
14 2 17 -0.6670 -0.0657
14 3 1 7.5201 -0.3806
14 3 2 -10.1695 -0.0495
14 3 3 -3.0530 0.2891
14 3 4 -8.0517 -0.2752
14 3 5 6.0873 0.0497
14 3 6 -5.7965 0.0602
14 3 7 0.1115 0.1989
14 3 8 2.4880 0.0020
14 3 9 -3.7748 -0.0509
14 3 10 0.5912 0.2072
14 3 11 2.2741 0.0033
14 3 12 5.9123 -0.1977
14 3 13 -0.6473 -0.0878
14 3 14 1.1584 0.1253
14 3 15 1.3847 0.0307
14 3 16 -1.6719 0.0097
14 3 17 0.1408 0.1767
14 4 0 31.9763 0.6275
14 4 1 -0.8205 -0.7810
14 4 2 -5.2916 -0.0567
14 4 3 2.3700 -0.1391
14 4 4 3.2049 -0.1708
14 4 5 -9.9935 0.0197
14 4 6 -7.3667 -0.1249
14 4 7 13.8253 0.0865
14 4 8 -5.9096 -0.1503
14 4 9 -6.7173 0.0102
14 4 10 -0.4781 0.0900
14 4 11 1.6469 -0.1245
14 4 12 -7.2920 0.0979
14 4 13 -0.7860 0.0377
14 4 14 5.3168 -0.0302
14 4 15 0.8543 0.1148
14 4 16 1.3522 -0.0139
14 4 17 1.1254 -0.0159
14 5 1 -0.7116 0.1235
14 5 2 4.6228 0.3022
14 5 3 0.5259 -0.0035
14 5 4 13.1440 0.0878
14 5 5 -3.8706 0.0069
14 5 6 0.6359 0.0907
14 5 7 -6.7207 -0.1548
14 5 8 -0.4649 -0.2027
14 5 9 6.6214 0.0028
14 5 10 0.6441 -0.0515
14 5 11 0.8388 0.0061
14 5 12 -6.1454 -0.0978
14 5 13 -3.4621 0.0290
14 5 14 0.2947 0.2759
14 5 15 0.2685 0.1762
14 5 16 0.3542 -0.1337
14 5 17 0.0754 -0.4607
14 6 0 -20.2976 -0.5602
14 6 1 -0.3226 -0.3839
14 6 2 -1.4687 0.2834
14 6 3 -2.5077 0.2086
14 6 4 -0.1298 -0.1350
14 6 5 13.0984 0.0409
14 6 6 6.0817 0.4184
14 6 7 -14.4721 -0.0054
14 6 8 3.1655 -0.2009
14 6 9 3.2195 0.0925
14 6 10 1.1531 0.0564
14 6 11 1.0692 0.0162
14 6 12 5.0794 -0.1171
14 6 13 0.3716 -0.0925
14 6 14 -2.2736 0.0580
14 6 15 -1.1013 0.0523
14 6 16 -1.1450 -0.0450
14 7 1 -4.8409 0.2175
14 7 2 -7.7320 -0.1275
14 7 3 1.6697 -0.3651
14 7 4 -6.9867 0.1765
14 7 5 4.0723 -0.0920
14 7 6 -3.9497 -0.2569
14 7 7 7.1562 0.0882
14 7 8 2.0026 0.2723
14 7 9 -5.8797 0.1119
14 7 10 -0.6703 -0.2460
14 7 11 -3.9251 0.0680
14 7 12 3.3189 0.2442
14 7 13 5.6064 -0.1091
14 7 14 0.3336 -0.2312
14 7 15 -0.8325 -0.2677
14 7 16 0.1473 0.1856
14 8 0 16.9489 -0.1493
14 8 1 1.7877 0.6329
14 8 2 0.7023 -0.3554
14 8 3 -1.2758 -0.0537
14 8 4 -0.9515 0.4151
14 8 5 -8.5891 -0.0193
14 8 6 -0.1817 -0.4114
14 8 7 11.5793 -0.1670
14 8 8 -6.6258 0.4416
14 8 9 -1.2477 -0.0387
14 8 10 1.5127 -0.2637
14 8 11 -2.6101 0.0201
14 8 12 -3.9228 -0.0018
14 8 13 0.8559 0.0063
14 8 14 -0.6621 -0.1233
14 8 15 -0.1480 -0.0010
14 8 16 1.7281 0.3743
14 9 1 7.0335 -0.0629
14 9 2 9.3943 -0.2091
14 9 3 -0.8499 0.0628
14 9 4 -0.8328 -0.3027
14 9 5 -7.3382 0.1598
14 9 6 8.4132 0.2939
14 9 7 -3.9190 -0.0508
14 9 8 -2.4417 -0.0326
14 9 9 5.1620 -0.0494
14 9 10 0.1257 0.2246
14 9 11 2.9966 -0.0535
14 9 12 -0.7897 -0.2453
14 9 13 -3.8839 0.0829
14 9 14 -2.2454 0.0377
14 9 15 0.7045 0.0857
14 10 0 -14.0363 0.4045
14 10 1 -2.5633 -0.0006
14 10 2 2.4678 0.3501
14 10 3 2.8009 -0.1087
14 10 4 -1.7006 -0.4930
14 10 5 7.4874 0.0145
14 10 6 -1.3275 0.2701
14 10 7 -12.4402 0.0089
14 10 8 6.5067 -0.3320
14 10 9 3.0988 0.0971
14 10 10 -3.0921 0.3330
14 10 11 1.5910 -0.0404
14 10 12 5.4488 0.0223
14 10 13 -1.5193 0.2392
14 10 14 -0.7842 -0.0652
14 10 15 0.7809 -0.2461
14 11 1 -3.8744 -0.1547
14 11 2 -7.5204 0.1306
14 11 3 -2.3720 0.2010
14 11 4 2.9957 0.1880
14 11 5 8.4985 0.0638
14 11 6 -9.0427 -0.2895
14 11 7 3.3226 -0.1015
14 11 8 4.4093 0.0362
14 11 9 -4.7841 -0.0496
14 11 10 -3.5309 -0.1373
14 11 11 -2.3201 0.0292
14 11 12 2.8799 0.3595
14 11 13 2.3520 0.0154
14 11 14 1.4560 -0.4020
14 12 0 6.4460 -0.0283
14 12 1 1.3116 -0.2960
14 12 2 0.3590 -0.1125
14 12 3 -0.8951 0.1590
14 12 4 1.4862 0.1864
14 12 5 -8.3162 -0.0990
14 12 6 -2.1588 -0.1464
14 12 7 12.4623 0.1898
14 12 8 -1.7866 0.0046
14 12 9 -2.6323 -0.2034
14 12 10 2.3864 -0.0472
14 12 11 -1.1275 -0.0214
14 12 12 -4.9192 -0.0303
14 12 13 0.5575 -0.1263
14 12 14 2.1704 0.1858
14 13 1 -0.7925 0.1607
14 13 2 4.4312 0.0987
14 13 3 3.5533 -0.1541
14 13 4 0.3082 0.1388
14 13 5 -7.0381 -0.1680
14 13 6 5.7424 0.0825
14 13 7 -3.7241 0.1561
14 13 8 -4.9870 -0.1235
14 13 9 3.7065 -0.0073
14 13 10 3.6148 -0.0311
14 13 11 3.4009 0.0103
14 13 12 -3.3388 -0.0227
14 13 13 -1.8416 -0.1226
14 14 0 1.5487 -0.3571
14 14 1 -0.1698 0.0468
14 14 2 -5.9812 -0.0719
14 14 3 1.0867 -0.0814
14 14 4 1.8003 0.2712
14 14 5 5.4431 0.0520
14 14 6 3.6785 -0.0643
14 14 7 -9.3238 0.0386
14 14 8 0.1665 0.1377
14 14 9 -0.6877 0.0154
14 14 10 -1.4731 -0.1052
14 14 11 2.9565 0.1893
14 14 12 0.8878 0.0866
14 14 13 -0.3779 -0.2482
14 15 1 1.2277 -0.0642
14 15 2 -2.0097 -0.2180
14 15 3 -3.0837 -0.0091
14 15 4 -2.4642 -0.2184
14 15 5 7.1023 0.1010
14 15 6 -2.9813 0.1526
14 15 7 1.4536 -0.0445
14 15 8 2.1475 -0.1132
14 15 9 -2.3367 0.1898
14 15 10 0.7443 0.3327
14 15 11 -2.3670 -0.2170
14 15 12 0.8417 -0.5276
14 16 0 -2.8975 0.3059
14 16 1 0.1570 0.3602
14 16 2 5.5699 0.0898
14 16 3 -1.5669 -0.0953
14 16 4 -1.9233 -0.4723
14 16 5 -3.5336 0.0082
14 16 6 -2.4821 0.3157
14 16 7 7.3338 -0.2250
14 16 8 -1.4327 -0.1535
14 16 9 0.6552 0.1395
14 16 10 1.2369 -0.1466
14 16 11 -2.2719 -0.1093
14 17 1 -1.4337 -0.1296
14 17 2 1.2047 0.0986
14 17 3 4.2971 0.2419
14 17 4 0.3150 0.0816
14 17 5 -7.7612 -0.1743
14 17 6 3.4812 0.0855
14 17 7 2.2627 -0.0770
14 17 8 -0.6605 0.0748
14 17 9 -0.2802 -0.2182
14 17 10 -1.3689 -0.3404
14 18 0 2.3349 0.1704
14 18 1 -0.1953 -0.2962
14 18 2 -2.8966 -0.2585
14 18 3 0.2935 0.0013
14 18 4 0.1534 0.3218
14 18 5 2.5070 0.1907
14 18 6 1.4727 -0.2800
14 18 7 -4.1164 -0.0422
14 18 8 1.2448 0.3025
14 19 1 2.1124 0.1449
14 19 2 -0.7940 0.3523
14 19 3 -4.0938 -0.1418
14 19 4 1.5126 -0.2024
14 19 5 5.2211 0.1369
14 19 6 -3.5554 -0.3867
14 20 0 -2.8438 -0.4284
14 20 1 0.3482 -0.1446
14 20 2 2.0402 0.2700
14 20 3 -0.0696 0.1890
14 20 4 0.3713 -0.0574
15 0 2 -12.4105 0.3659
15 0 4 -0.5815 0.0231
15 0 6 10.5553 -0.2763
15 0 8 -2.5503 -0.0105
15 0 10 -2.0536 0.1807
15 0 12 -0.8491 0.0479
15 0 14 -1.3982 -0.0251
15 0 16 -0.1550 0.2064
15 1 0 19.7370 -0.6367
15 1 1 3.6803 0.5787
15 1 2 -12.9703 0.3448
15 1 3 -5.4986 0.2248
15 1 4 0.6470 -0.0112
15 1 5 5.0471 0.0636
15 1 6 0.1724 0.1700
15 1 7 -3.9463 -0.2988
15 1 8 5.7759 -0.2908
15 1 9 0.2894 -0.1699
15 1 10 1.6845 0.0335
15 1 11 0.4193 0.4277
15 1 12 -3.5985 -0.0331
15 1 13 0.0024 0.1470
15 1 14 2.4423 0.1523
15 1 15 1.2039 -0.2189
15 1 16 -1.8211 0.0386
15 1 17 -1.3041 -0.3779
15 2 1 1.1122 -0.2069
15 2 2 7.4850 -0.1925
15 2 3 3.3643 0.0280
15 2 4 2.9835 0.0308
15 2 5 -0.5669 0.1838
15 2 6 -10.3037 0.0943
15 2 7 1.7555 0.4596
15 2 8 3.2495 0.1584
15 2 9 -1.0248 -0.4408
15 2 10 1.5663 -0.2576
15 2 11 -1.5134 0.0266
15 2 12 0.5548 0.0061
15 2 13 -0.1289 0.2011
15 2 14 1.3647 -0.1907
15 2 15 0.4286 0.1265
15 2 16 0.5065 0.2429
15 2 17 2.5677 0.2104
15 3 0 -6.2545 -0.0319
15 3 1 -5.6341 -0.7654
15 3 2 5.3520 -0.1500
15 3 3 8.1762 -0.1759
15 3 4 -0.8086 0.1176
15 3 5 -10.6213 0.0649
15 3 6 0.4407 -0.0414
15 3 7 9.0925 0.0595
15 3 8 -6.4077 0.1635
15 3 9 -0.5713 0.3218
15 3 10 -0.5008 -0.1337
15 3 11 -0.7219 -0.4645
15 3 12 3.7577 0.1253
15 3 13 0.3276 -0.0109
15 3 14 -2.3292 -0.1769
15 3 15 -1.7657 -0.0505
15 3 16 0.3524 -0.0966
15 3 17 1.2392 0.3176
15 4 1 1.0420 0.4293
15 4 2 -0.7949 -0.0121
15 4 3 -2.1715 -0.4540
15 4 4 -5.9078 -0.0716
15 4 5 -2.1265 0.3168
15 4 6 9.2875 0.1847
15 4 7 -3.1044 -0.6089
15 4 8 -3.5305 -0.1507
15 4 9 1.4041 0.3659
15 4 10 -2.1335 0.0893
15 4 11 2.4221 -0.0589
15 4 12 2.0107 0.0529
15 4 13 -1.1888 -0.0253
15 4 14 -2.9580 0.0294
15 4 15 1.8652 0.0064
15 4 16 -0.1881 -0.1043
15 5 0 -1.0855 0.7152
15 5 1 1.6242 0.0395
15 5 2 -0.4862 -0.1915
15 5 3 -1.3375 0.3432
15 5 4 -0.1453 -0.1406
15 5 5 9.7642 -0.1874
15 5 6 -0.2489 -0.1095
15 5 7 -10.6509 0.1771
15 5 8 6.8154 0.0963
15 5 9 2.1606 -0.2252
15 5 10 -0.9397 0.1126
15 5 11 -1.1743 0.2791
15 5 12 -3.5198 -0.0364
15 5 13 0.0142 -0.1803
15 5 14 2.9533 -0.1132
15 5 15 0.6555 0.3554
15 5 16 -0.0745 0.1374
15 6 1 -8.3774 -0.1781
15 6 2 -0.6807 0.1564
15 6 3 4.0959 0.1380
15 6 4 5.1347 -0.1086
15 6 5 3.3235 -0.3343
15 6 6 -6.7505 -0.1160
15 6 7 2.5566 0.3404
15 6 8 2.3689 -0.0152
15 6 9 0.4828 -0.0286
15 6 10 2.8432 0.0608
15 6 11 -3.5175 0.1195
15 6 12 -4.6139 -0.0642
15 6 13 1.2364 -0.1608
15 6 14 4.6701 0.2419
15 6 15 -1.3330 -0.1119
15 6 16 -0.1876 -0.4273
15 7 0 3.0306 -0.3630
15 7 1 -0.4953 0.8378
15 7 2 -1.3201 0.1022
15 7 3 -0.9149 -0.3665
15 7 4 1.7198 0.0663
15 7 5 -9.6525 0.0671
15 7 6 -1.5575 0.0719
15 7 7 12.1515 -0.2048
15 7 8 -4.8243 -0.0807
15 7 9 -4.0671 0.0255
15 7 10 1.3501 -0.0102
15 7 11 2.0712 -0.0622
15 7 12 1.7227 -0.1522
15 7 13 -0.8968 0.1378
15 7 14 -2.5071 0.2586
15 7 15 -0.4178 -0.1717
15 7 16 0.3151 -0.1040
15 8 1 11.0844 -0.0776
15 8 2 0.8173 0.1165
15 8 3 -6.7167 0.1417
15 8 4 -1.6915 0.1736
15 8 5 -2.7752 0.2070
15 8 6 1.9901 -0.0998
15 8 7 -1.5301 -0.1264
15 8 8 -0.3844 0.0595
15 8 9 -1.7097 -0.1072
15 8 10 -1.5863 0.0801
15 8 11 4.8905 -0.0620
15 8 12 3.6538 -0.0457
15 8 13 -1.2656 0.0691
15 8 14 -3.4724 -0.1319
15 8 15 -0.8051 0.1513
15 9 0 -6.3173 -0.3545
15 9 1 3.0393 -0.4663
15 9 2 2.6462 0.1105
15 9 3 -3.6281 0.0653
15 9 4 -1.9498 0.0529
15 9 5 12.7488 0.1209
15 9 6 2.7735 0.0102
15 9 7 -13.6364 -0.0340
15 9 8 2.3886 -0.0702
15 9 9 2.9321 0.0541
15 9 10 -1.1104 -0.0642
15 9 11 1.3638 0.0507
15 9 12 0.7257 0.1125
15 9 13 0.3891 0.1411
15 9 14 0.6543 0.1277
15 9 15 0.6995 -0.2287
15 10 1 -6.9943 0.1273
15 10 2 -0.5781 -0.2781
15 10 3 4.9739 -0.1199
15 10 4 -1.5677 -0.0951
15 10 5 2.8932 0.1601
15 10 6 1.3147 0.0520
15 10 7 2.1521 -0.1022
15 10 8 -1.4990 -0.0345
15 10 9 -0.2486 0.0526
15 10 10 1.2973 -0.0646
15 10 11 -3.8129 -0.1243
15 10 12 -2.4644 -0.0643
15 10 13 1.3195 0.0987
15 10 14 2.3477 -0.0941
15 10 15 0.4141 0.0151
15 11 0 6.5895 0.1262
15 11 1 -3.7152 -0.5698
15 11 2 -2.4906 -0.0317
15 11 3 5.3644 0.2347
15 11 4 1.9577 0.0010
15 11 5 -13.3112 -0.1551
15 11 6 -1.3133 -0.0050
15 11 7 12.9534 0.3238
15 11 8 -3.6033 0.0374
15 11 9 -1.8882 -0.1378
15 11 10 1.9338 0.1077
15 11 11 -2.9582 0.0094
15 11 12 -2.4959 0.0889
15 11 13 0.0026 -0.4012
15 11 14 0.8787 -0.6178
15 12 1 6.4566 -0.1273
15 12 2 -0.7012 -0.0944
15 12 3 -4.0167 0.0707
15 12 4 1.5979 0.1307
15 12 5 -2.7624 -0.4116
15 12 6 0.4340 0.0729
15 12 7 -2.9054 0.2287
15 12 8 1.4183 0.0521
15 12 9 2.1993 -0.1026
15 12 10 -1.8026 -0.1398
15 12 11 0.7531 0.2420
15 12 12 2.0574 0.3499
15 12 13 0.4309 -0.0566
15 13 0 -5.6981 0.3187
15 13 1 1.7859 0.6915
15 13 2 2.9387 -0.0123
15 13 3 -2.3052 -0.2275
15 13 4 -3.0162 -0.0611
15 13 5 10.1523 0.0163
15 13 6 -0.4745 -0.0652
15 13 7 -10.7819 -0.1847
15 13 8 5.0224 0.0017
15 13 9 2.4274 0.1824
15 13 10 -2.1419 -0.2098
15 13 11 1.0608 -0.2969
15 13 12 2.5314 0.0424
15 13 13 0.5865 0.3793
15 14 1 -8.1375 0.1064
15 14 2 0.5037 0.1108
15 14 3 3.9683 -0.0675
15 14 4 -0.5473 -0.0348
15 14 5 2.5604 0.1346
15 14 6 -1.1174 -0.0526
15 14 7 3.3041 -0.0205
15 14 8 -1.2847 0.0382
15 14 9 -2.7926 0.3337
15 14 10 1.4419 0.0714
15 14 11 0.3595 -0.2622
15 14 12 -0.8232 -0.4142
15 15 0 6.2223 -0.0501
15 15 1 -0.3770 0.1212
15 15 2 -2.9404 -0.1629
15 15 3 0.4304 0.0590
15 15 4 1.8328 -0.0263
15 15 5 -7.5451 0.0157
15 15 6 0.6654 0.1287
15 15 7 8.2602 -0.0975
15 15 8 -2.7366 0.1313
15 15 9 -1.4082 -0.1526
15 15 10 0.5892 0.2119
15 15 11 -0.5270 0.5151
15 16 1 5.9005 -0.1454
15 16 2 0.8667 0.1790
15 16 3 -2.1301 0.1659
15 16 4 1.6336 -0.1531
15 16 5 -2.3984 -0.0187
15 16 6 -2.3661 0.0343
15 16 7 -3.1692 -0.1270
15 16 8 2.3021 -0.1723
15 16 9 2.2613 -0.4516
15 16 10 -1.3761 0.0876
15 17 0 -4.4216 -0.0417
15 17 1 0.3474 -0.5670
15 17 2 0.6594 0.2443
15 17 3 -0.9813 0.0854
15 17 4 0.7467 -0.1024
15 17 5 4.8874 0.0903
15 17 6 -0.0378 -0.0518
15 17 7 -4.5621 -0.0928
15 17 8 0.2229 -0.2623
15 17 9 0.1647 0.1602
15 18 1 -3.0721 -0.0492
15 18 2 -0.6407 0.0633
15 18 3 0.8943 0.0469
15 18 4 -2.2139 0.0543
15 18 5 1.9774 0.2588
15 18 6 3.1035 -0.0861
15 18 7 0.7499 0.0870
15 18 8 -1.4376 0.2023
15 19 0 1.5406 -0.4477
15 19 1 -0.2690 0.2195
15 19 2 -0.1271 -0.0892
15 19 3 0.9722 -0.2092
15 19 4 0.3132 0.3328
15 19 5 -1.0445 0.0336
15 19 6 -0.9595 -0.0308
15 20 1 1.4114 0.4365
15 20 2 -0.8316 -0.2795
16 0 0 4.6796 -0.5316
16 0 2 3.8052 0.4511
16 0 4 -6.8056 -0.1897
16 0 6 -4.8055 0.0920
16 0 8 0.0801 -0.0803
16 0 10 -2.6582 -0.0745
16 0 12 -6.6282 -0.1664
16 0 14 -0.4985 0.0718
16 0 16 2.2716 0.0422
16 1 1 1.9974 -0.0237
16 1 2 -1.9683 -0.1492
16 1 3 -2.9552 -0.2133
16 1 4 17.9782 0.1912
16 1 5 1.2696 0.3687
16 1 6 -14.1841 -0.0423
16 1 7 1.8164 -0.0548
16 1 8 5.4384 0.0730
16 1 9 -2.6103 -0.2428
16 1 10 -2.1718 -0.0067
16 1 11 2.2225 -0.0444
16 1 12 0.8572 -0.0290
16 1 13 -1.2307 0.3360
16 1 14 -3.8139 -0.1341
16 1 15 0.4733 -0.0719
16 1 16 0.8403 0.0294
16 2 0 -8.6074 -0.0011
16 2 1 1.0222 0.1575
16 2 2 -0.9177 -0.2875
16 2 3 -1.9819 0.0654
16 2 4 6.8772 0.2332
16 2 5 -0.5619 -0.2071
16 2 6 2.2086 -0.2088
16 2 7 3.9383 0.2643
16 2 8 0.6071 0.3155
16 2 9 -3.0582 -0.1125
16 2 10 3.2135 -0.1033
16 2 11 2.2492 -0.0433
16 2 12 6.6759 0.0393
16 2 13 -0.8068 -0.2743
16 2 14 -0.5403 -0.0651
16 2 15 0.0409 0.2498
16 2 16 -1.3334 -0.0068
16 3 1 -3.4307 -0.0102
16 3 2 -2.1341 -0.1535
16 3 3 5.2359 0.2327
16 3 4 -11.5997 -0.1944
16 3 5 -3.3178 -0.2743
16 3 6 11.2693 0.1734
16 3 7 -2.2253 0.0523
16 3 8 -6.7502 -0.0016
16 3 9 3.5730 0.1178
16 3 10 1.2942 0.0943
16 3 11 -3.2035 0.0304
16 3 12 1.6281 -0.0693
16 3 13 1.7916 -0.1558
16 3 14 2.8138 0.0938
16 3 15 -0.5021 0.2145
16 3 16 -2.1402 -0.1503
16 4 0 14.3445 0.8948
16 4 1 -0.3429 0.0509
16 4 2 -3.5803 -0.1512
16 4 3 3.2710 -0.1476
16 4 4 -5.1006 -0.1240
16 4 5 -2.1475 0.0588
16 4 6 0.2585 -0.0308
16 4 7 -3.0920 0.0330
16 4 8 -2.3296 -0.1255
16 4 9 1.4231 -0.0049
16 4 10 -2.3509 0.1016
16 4 11 -1.4966 -0.1196
16 4 12 -7.4182 0.1896
16 4 13 0.2343 0.2306
16 4 14 3.1950 -0.1460
16 4 15 -0.1631 0.0477
16 4 16 -0.5790 0.0461
16 5 1 4.9264 -0.0818
16 5 2 4.8791 0.3703
16 5 3 -4.3783 -0.0728
16 5 4 5.6355 0.0808
16 5 5 3.3818 0.1154
16 5 6 -4.7801 -0.1059
16 5 7 1.4646 -0.0500
16 5 8 4.4847 -0.2361
16 5 9 -1.1263 -0.0146
16 5 10 -0.2092 0.0582
16 5 11 -0.0986 -0.0221
16 5 12 -3.2614 0.0132
16 5 13 0.3234 -0.0243
16 5 14 -1.7480 0.0073
16 5 15 -0.4760 -0.1136
16 5 16 3.3624 0.1361
16 6 0 -13.5137 -0.8759
16 6 1 -1.7312 -0.1705
16 6 2 3.6579 0.3602
16 6 3 -1.3959 0.0770
16 6 4 1.8289 -0.1468
16 6 5 2.5616 0.0901
16 6 6 1.1052 0.2975
16 6 7 1.5604 -0.1540
16 6 8 3.3797 -0.0993
16 6 9 2.8387 0.0853
16 6 10 0.3593 -0.0197
16 6 11 -1.0187 0.1012
16 6 12 6.7034 -0.1785
16 6 13 0.3478 -0.1360
16 6 14 -3.7426 0.0383
16 6 15 0.9957 -0.1428
16 6 16 1.0837 0.1601
16 7 1 -5.9810 0.1378
16 7 2 -2.9396 -0.1362
16 7 3 3.2262 -0.0274
16 7 4 -5.1482 0.1365
16 7 5 -1.5257 -0.0998
16 7 6 1.2729 -0.1563
16 7 7 -3.6279 0.0452
16 7 8 -2.8786 0.2565
16 7 9 1.5416 -0.0021
16 7 10 0.3991 -0.1266
16 7 11 1.4627 0.0879
16 7 12 2.6350 0.1979
16 7 13 -1.1555 -0.1151
16 7 14 0.7748 -0.1628
16 7 15 0.4153 0.1154
16 8 0 7.4690 -0.2085
16 8 1 1.3555 0.0686
16 8 2 0.3808 -0.2095
16 8 3 2.1238 0.0202
16 8 4 -1.9493 0.3549
16 8 5 -2.6598 -0.0143
16 8 6 -0.8713 -0.3058
16 8 7 -2.0485 -0.0487
16 8 8 -2.3938 0.1747
16 8 9 -3.0672 0.0225
16 8 10 -1.0443 -0.1170
16 8 11 0.7226 -0.0700
16 8 12 -2.8861 0.0924
16 8 13 -0.3712 0.0609
16 8 14 0.2864 0.0913
16 8 15 -1.0732 -0.0182
16 9 1 2.7967 -0.0250
16 9 2 0.0087 -0.2637
16 9 3 -1.8339 0.0080
16 9 4 6.4704 -0.2876
16 9 5 1.5632 0.0569
16 9 6 -2.4341 0.2469
16 9 7 3.1607 0.1017
16 9 8 3.9298 0.0293
16 9 9 -1.9831 -0.0341
16 9 10 -0.0930 -0.0352
16 9 11 0.2995 -0.0579
16 9 12 -1.5529 -0.2097
16 9 13 -0.7291 0.1635
16 9 14 -0.4350 0.2316
16 9 15 0.7224 -0.1557
16 10 0 -3.1912 0.8007
16 10 1 0.5771 0.0659
16 10 2 -3.4612 0.0138
16 10 3 -5.1595 -0.0587
16 10 4 4.2488 -0.2872
16 10 5 3.8433 -0.0243
16 10 6 -1.5863 0.1804
16 10 7 3.2537 0.0532
16 10 8 1.0341 -0.1827
16 10 9 -0.3465 -0.0342
16 10 10 2.0171 0.1382
16 10 11 1.8749 0.0329
16 10 12 0.1507 0.0052
16 10 13 0.6556 0.0793
16 10 14 1.8338 0.1044
16 11 1 -2.8665 -0.1136
16 11 2 0.4713 0.2899
16 11 3 2.6151 -0.0006
16 11 4 -5.3143 0.1989
16 11 5 -2.9319 0.0653
16 11 6 1.9274 -0.1341
16 11 7 -1.3413 -0.2184
16 11 8 -2.7956 -0.1266
16 11 9 1.1254 -0.0597
16 11 10 -1.0649 0.0206
16 11 11 -0.8591 -0.0519
16 11 12 0.8214 0.2076
16 11 13 1.5272 -0.0087
16 11 14 0.4289 -0.2219
16 12 0 2.3910 -0.1029
16 12 1 0.0765 0.0276
16 12 2 3.4359 0.0055
16 12 3 3.1392 0.0672
16 12 4 -3.6423 0.0978
16 12 5 -1.0522 -0.1462
16 12 6 1.8241 -0.1162
16 12 7 -4.4084 0.2111
16 12 8 -1.3127 0.0494
16 12 9 0.7776 -0.0974
16 12 10 -0.7987 0.0058
16 12 11 -1.7301 0.2831
16 12 12 0.4723 -0.2458
16 12 13 -1.0218 -0.5347
16 13 1 4.9907 0.1102
16 13 2 0.3946 0.0313
16 13 3 -2.7288 0.0012
16 13 4 2.8345 -0.0052
16 13 5 1.7275 -0.0242
16 13 6 0.7134 0.0755
16 13 7 2.9777 0.0835
16 13 8 0.7395 -0.0235
16 13 9 -1.7754 0.1992
16 13 10 0.3648 0.1198
16 13 11 -0.1269 0.2007
16 13 12 0.0413 -0.4462
16 14 0 -1.6780 -0.7148
16 14 1 -1.7091 -0.1745
16 14 2 -2.8022 0.0799
16 14 3 0.2156 -0.0438
16 14 4 1.8897 0.0523
16 14 5 -2.3913 0.1857
16 14 6 -1.2425 -0.0275
16 14 7 4.8395 -0.1323
16 14 8 2.0252 0.2257
16 14 9 0.2392 -0.1343
16 14 10 0.3094 0.0101
16 14 11 0.5092 -0.3980
16 14 12 -1.5174 0.2489
16 15 1 -4.4209 -0.0184
16 15 2 -1.2265 -0.2585
16 15 3 1.6675 -0.0620
16 15 4 -0.4937 -0.1124
16 15 5 -2.0689 0.0534
16 15 6 -1.9760 0.1385
16 15 7 -1.0903 -0.1376
16 15 8 -0.0893 -0.1105
16 15 9 0.2574 -0.0933
16 15 10 0.0685 0.0945
16 15 11 0.7308 -0.3710
16 16 0 0.1523 0.4885
16 16 1 1.9782 0.0759
16 16 2 2.5107 0.0360
16 16 3 -0.4755 0.0794
16 16 4 -1.3064 -0.3384
16 16 5 1.9617 -0.0841
16 16 6 1.3858 0.3424
16 16 7 -3.4555 -0.0891
16 16 8 -1.3438 -0.3484
16 16 9 0.9109 0.3492
16 16 10 -0.7340 -0.1256
16 17 1 5.1819 -0.0200
16 17 2 0.4989 0.0202
16 17 3 -2.9306 0.1507
16 17 4 0.2096 0.3374
16 17 5 4.6090 -0.2203
16 17 6 1.0906 -0.6686
16 17 7 -3.8093 0.4682
16 17 8 -0.4700 0.3655
16 17 9 2.8892 -0.0755
16 18 0 0.6367 0.3925
16 18 1 -1.4596 -0.0081
16 18 2 -1.5550 -0.2952
16 18 3 0.2014 -0.1051
16 18 4 0.3081 0.4262
16 18 5 -0.6505 0.0224
16 18 6 -0.5908 -0.3410
16 18 7 0.4978 0.0803
16 19 1 -3.8797 -0.0097
16 19 2 1.2538 0.4187
16 19 3 2.4611 -0.0880
16 19 4 -1.8713 -0.4988
16 19 5 -3.0427 0.1067
17 0 2 24.3811 0.2359
17 0 4 1.2413 0.0717
17 0 6 3.4885 -0.3307
17 0 8 0.2806 -0.0322
17 0 10 -2.2369 0.2485
17 0 12 1.3389 0.0151
17 0 14 -5.0055 -0.3177
17 0 16 2.0310 0.3057
17 1 0 -24.3243 0.0005
17 1 1 -2.3385 0.7932
17 1 2 10.5335 -0.0652
17 1 3 4.3441 0.0392
17 1 4 -4.2080 0.0831
17 1 5 -2.9910 -0.0221
17 1 6 8.3627 0.1699
17 1 7 1.7370 0.0095
17 1 8 2.0725 -0.3423
17 1 9 -1.1766 -0.1035
17 1 10 -1.3731 0.0308
17 1 11 0.0823 0.0819
17 1 12 6.3416 -0.0950
17 1 13 0.2971 -0.1203
17 1 14 -2.1495 0.1455
17 1 15 -0.7992 0.1128
17 1 16 -0.3499 -0.0944
17 2 1 -7.3581 -0.1857
17 2 2 -20.6489 -0.2262
17 2 3 1.2876 0.0716
17 2 4 -2.5927 0.0150
17 2 5 0.6610 0.1607
17 2 6 -3.7321 0.1191
17 2 7 -0.5152 0.2254
17 2 8 -0.7267 0.1990
17 2 9 2.2053 -0.2049
17 2 10 1.9519 -0.2483
17 2 11 -3.7774 -0.0604
17 2 12 -0.2319 0.0124
17 2 13 3.6776 0.1245
17 2 14 6.0094 -0.1425
17 2 15 -1.6274 0.1922
17 2 16 -3.1052 0.2903
17 3 0 11.7422 0.1998
17 3 1 3.3334 -0.8756
17 3 2 -1.8294 -0.0798
17 3 3 -6.6151 -0.1296
17 3 4 1.6053 0.1343
17 3 5 5.1101 0.1448
17 3 6 -8.5229 -0.0913
17 3 7 -2.6930 0.0227
17 3 8 0.5949 0.0317
17 3 9 1.7810 0.1047
17 3 10 -2.1278 0.0717
17 3 11 -0.2421 -0.1355
17 3 12 -7.4062 0.2118
17 3 13 -0.4189 0.0145
17 3 14 5.5859 -0.1484
17 3 15 1.7768 -0.1176
17 3 16 1.0327 -0.1376
17 4 1 5.9359 0.3058
17 4 2 15.5467 0.1896
17 4 3 -1.7157 -0.3403
17 4 4 4.3157 0.0133
17 4 5 1.1274 0.1202
17 4 6 3.7165 0.0346
17 4 7 -0.7961 -0.3092
17 4 8 1.9832 -0.1237
17 4 9 -1.0386 0.2423
17 4 10 -1.7896 0.0991
17 4 11 3.6724 0.0986
17 4 12 -3.4245 -0.0166
17 4 13 -4.5805 -0.1109
17 4 14 -4.7732 0.1304
17 4 15 1.5886 -0.3125
17 4 16 3.3769 -0.1424
17 5 0 -11.3762 -0.2400
17 5 1 -0.3851 -0.0075
17 5 2 0.2196 0.0155
17 5 3 1.8383 0.3009
17 5 4 0.4134 -0.2403
17 5 5 -3.0627 -0.0972
17 5 6 7.3580 -0.0085
17 5 7 1.4011 0.0155
17 5 8 -1.3816 0.1988
17 5 9 -0.9535 -0.0319
17 5 10 5.3393 -0.1046
17 5 11 0.6047 0.0318
17 5 12 5.5572 -0.0892
17 5 13 -0.1918 -0.0470
17 5 14 -7.1041 -0.1097
17 5 15 -1.4966 0.3980
17 5 16 -0.8547 0.1319
17 6 1 2.2021 -0.0054
17 6 2 -12.7938 -0.1920
17 6 3 -1.9371 -0.0477
17 6 4 -5.4186 -0.1136
17 6 5 -1.1640 -0.1906
17 6 6 -3.6332 0.0125
17 6 7 1.9496 0.2167
17 6 8 -1.7756 -0.0144
17 6 9 -1.4777 -0.0398
17 6 10 2.4534 -0.0396
17 6 11 -1.2024 -0.0342
17 6 12 5.2026 -0.0137
17 6 13 3.0693 -0.0067
17 6 14 1.6735 0.1722
17 6 15 -0.9615 0.0695
17 7 0 14.6244 0.0183
17 7 1 -0.7161 0.8970
17 7 2 -0.8231 0.1110
17 7 3 0.4992 -0.2929
17 7 4 -2.1809 0.1240
17 7 5 1.5167 -0.0515
17 7 6 -5.1176 -0.0103
17 7 7 -0.4235 -0.1411
17 7 8 -1.2382 0.0184
17 7 9 -0.1153 -0.0127
17 7 10 -3.5075 -0.0552
17 7 11 0.3721 0.0445
17 7 12 -3.2964 -0.0061
17 7 13 -0.0615 0.2879
17 7 14 4.3390 0.1990
17 7 15 0.7627 -0.7779
17 8 1 -4.9322 -0.2300
17 8 2 9.3902 0.1489
17 8 3 4.9563 0.3318
17 8 4 4.7877 0.0680
17 8 5 -0.3960 0.0833
17 8 6 6.2169 -0.0803
17 8 7 -2.2360 -0.0624
17 8 8 -2.1892 0.0460
17 8 9 2.6186 -0.1002
17 8 10 -1.5724 0.1523
17 8 11 -0.4802 -0.0511
17 8 12 -2.7016 -0.1216
17 8 13 -0.8617 0.0553
17 8 14 -1.9658 -0.1859
17 8 15 -0.2250 0.1286
17 9 0 -11.4135 0.2490
17 9 1 -0.1048 -0.3714
17 9 2 0.1217 -0.0400
17 9 3 -0.1939 0.0387
17 9 4 0.8123 -0.0312
17 9 5 0.0790 0.0892
17 9 6 5.1391 0.0161
17 9 7 -1.0796 0.1067
17 9 8 1.4440 -0.1946
17 9 9 1.3918 0.0230
17 9 10 0.9571 0.1127
17 9 11 -1.7705 -0.0683
17 9 12 3.1970 0.1327
17 9 13 0.6017 -0.1853
17 9 14 -1.7743 -0.4842
17 10 1 1.6779 0.0238
17 10 2 -7.8008 0.0573
17 10 3 -4.1322 -0.0139
17 10 4 0.1803 -0.0090
17 10 5 1.0848 0.0405
17 10 6 -9.6833 -0.0464
17 10 7 1.9922 0.0363
17 10 8 4.9699 -0.0473
17 10 9 -2.0331 0.0426
17 10 10 -0.5624 -0.0355
17 10 11 -0.4568 -0.1323
17 10 12 1.2053 0.1987
17 10 13 1.0728 0.2135
17 10 14 2.3924 -0.0201
17 11 0 8.7889 -0.1847
17 11 1 0.2389 -0.6073
17 11 2 -1.2573 -0.0847
17 11 3 0.2182 0.1721
17 11 4 1.7561 0.1192
17 11 5 -0.7826 -0.0672
17 11 6 -5.0059 -0.0809
17 11 7 0.7318 0.1449
17 11 8 0.3908 0.1056
17 11 9 0.0907 -0.0463
17 11 10 -1.3109 -0.0510
17 11 11 -0.0643 0.0947
17 11 12 -2.7070 -0.0667
17 11 13 0.3264 -0.1537
17 12 1 0.2634 0.1119
17 12 2 8.2352 -0.0484
17 12 3 2.4445 -0.2725
17 12 4 -4.0707 0.0449
17 12 5 -1.1900 -0.1025
17 12 6 8.8084 0.2352
17 12 7 -0.9672 -0.0889
17 12 8 -2.8980 -0.0330
17 12 9 0.5512 0.0356
17 12 10 -0.1795 -0.0995
17 12 11 2.3400 0.3190
17 12 12 -0.7261 -0.1199
17 12 13 -2.5988 -0.3691
17 13 0 -4.7455 -0.1978
17 13 1 -0.2925 0.5663
17 13 2 -0.6753 0.0351
17 13 3 0.8214 -0.1505
17 13 4 -0.5734 0.0428
17 13 5 -1.4856 -0.0110
17 13 6 2.4353 -0.0381
17 13 7 2.6640 -0.1945
17 13 8 0.7517 0.0733
17 13 9 -2.6804 -0.0005
17 13 10 0.4231 -0.0741
17 13 11 1.6229 -0.0475
17 13 12 1.2590 0.0836
17 14 1 -1.1011 0.0474
17 14 2 -5.7109 -0.1986
17 14 3 -0.6351 0.1666
17 14 4 1.9564 -0.0616
17 14 5 0.5184 0.0992
17 14 6 -5.5848 -0.1231
17 14 7 -0.2342 -0.0254
17 14 8 1.6380 -0.0068
17 14 9 0.7459 0.1063
17 14 10 1.2723 -0.0825
17 14 11 -1.9763 -0.2469
17 15 0 -0.0793 0.2319
17 15 1 0.4378 0.0987
17 15 2 3.0739 -0.0321
17 15 3 -1.3612 0.0804
17 15 4 0.2599 -0.2507
17 15 5 2.3158 0.0830
17 15 6 -1.3823 0.2679
17 15 7 -3.6946 -0.0193
17 15 8 -2.1100 -0.0548
17 15 9 1.7368 0.0711
17 15 10 1.0921 -0.0121
17 16 1 0.6396 -0.1430
17 16 2 0.5143 0.1604
17 16 3 0.2410 0.0247
17 16 4 1.9106 0.0485
17 16 5 -0.4974 -0.0938
17 16 6 3.3051 -0.1728
17 16 7 1.2635 0.2525
17 16 8 -2.0583 0.3250
17 16 9 -1.2651 -0.3507
17 17 0 1.7333 0.4813
17 17 1 -0.2532 -0.4603
17 17 2 -2.1692 0.1566
17 17 3 0.4455 -0.0895
17 17 4 -1.6451 -0.1214
17 17 5 -0.0781 0.0465
17 17 6 0.9090 -0.0202
17 17 7 1.2694 0.0411
17 17 8 1.4840 -0.2208
17 18 1 1.0278 0.1071
17 18 2 2.4181 0.0485
17 18 3 -1.3220 -0.1776
17 18 4 -3.1068 0.0306
17 18 5 1.4839 0.1848
17 18 6 -1.0694 0.1116
17 19 0 -1.7052 -1.1189
17 19 1 0.3201 0.3741
17 19 2 1.5556 -0.1518
17 19 3 -0.5077 0.0948
17 19 4 0.3607 0.5061
18 0 0 -19.3386 -0.5166
18 0 2 0.5383 0.3724
18 0 4 -2.0102 -0.0093
18 0 6 0.5181 0.0260
18 0 8 9.1090 -0.1232
18 0 10 -6.0021 -0.0900
18 0 12 10.3513 0.1195
18 0 14 -6.2644 0.1005
18 0 16 -0.7036 -0.0974
18 1 1 3.9944 -0.2060
18 1 2 -5.3498 -0.1472
18 1 3 -0.2812 -0.2027
18 1 4 -3.8936 0.1036
18 1 5 1.3522 0.5824
18 1 6 -6.6930 0.0793
18 1 7 -2.6485 0.0049
18 1 8 0.6536 0.0004
18 1 9 1.7899 -0.4583
18 1 10 0.0033 -0.0515
18 1 11 -0.7237 -0.0535
18 1 12 3.0728 -0.0656
18 1 13 0.2842 0.2508
18 1 14 2.5879 -0.0428
18 1 15 -0.0090 0.4430
18 1 16 1.2626 0.2604
18 2 0 20.8579 -0.0269
18 2 1 -1.7148 -0.6416
18 2 2 -1.5085 -0.1084
18 2 3 1.7883 -0.0405
18 2 4 2.5155 0.0153
18 2 5 -1.7379 -0.2020
18 2 6 -1.3575 -0.0601
18 2 7 3.4971 0.1903
18 2 8 -8.4921 0.1662
18 2 9 -2.7422 0.0508
18 2 10 4.8052 0.0174
18 2 11 -0.5280 -0.1299
18 2 12 -8.7388 -0.1158
18 2 13 1.8811 -0.2300
18 2 14 5.9798 -0.1631
18 2 15 -2.8274 0.2799
18 2 16 1.0568 0.1601
18 3 1 -3.1739 0.2470
18 3 2 4.3105 -0.1736
18 3 3 -0.5317 0.0181
18 3 4 7.6581 -0.0664
18 3 5 -0.5626 -0.2755
18 3 6 2.6370 0.0441
18 3 7 0.0727 -0.0826
18 3 8 1.6848 0.0511
18 3 9 0.0291 0.2163
18 3 10 -1.3516 -0.0296
18 3 11 0.4896 0.1429
18 3 12 -4.0458 0.0110
18 3 13 -1.2374 -0.2125
18 3 14 -1.5274 0.0990
18 3 15 0.4907 -0.0980
18 3 16 -0.1391 -0.3128
18 4 0 -16.4982 0.7232
18 4 1 -0.4220 0.3251
18 4 2 -1.6701 -0.1844
18 4 3 -2.6978 0.0170
18 4 4 -1.5514 -0.0176
18 4 5 9.9125 0.1136
18 4 6 3.1540 -0.0140
18 4 7 -9.8192 0.0398
18 4 8 6.1693 -0.0440
18 4 9 4.5334 -0.0163
18 4 10 -2.3478 0.0990
18 4 11 0.2759 -0.0623
18 4 12 6.2386 0.0031
18 4 13 -1.0536 0.0667
18 4 14 -6.4588 -0.0354
18 4 15 1.4394 -0.0711
18 5 1 -5.0781 -0.0793
18 5 2 -2.9731 0.3149
18 5 3 1.0885 -0.1764
18 5 4 -10.0813 0.1104
18 5 5 -1.3143 0.0023
18 5 6 -0.4680 -0.1532
18 5 7 6.4394 0.0743
18 5 8 -1.1112 -0.0349
18 5 9 -3.4003 0.0405
18 5 10 -0.0272 0.0883
18 5 11 -0.7405 -0.0620
18 5 12 5.5908 0.0022
18 5 13 2.7732 0.0694
18 5 14 0.1267 0.0512
18 5 15 -0.9832 -0.1193
18 6 0 8.1784 -0.5506
18 6 1 3.1359 0.5216
18 6 2 6.1171 0.1894
18 6 3 0.8543 -0.1375
18 6 4 0.2042 -0.0685
18 6 5 -12.1712 -0.0124
18 6 6 -4.0110 0.0224
18 6 7 10.3128 -0.1728
18 6 8 -3.3649 0.0146
18 6 9 -3.8671 -0.0906
18 6 10 0.4352 -0.0789
18 6 11 0.8595 0.1418
18 6 12 -3.8374 -0.0577
18 6 13 -1.2899 -0.0085
18 6 14 5.0115 0.2340
18 6 15 0.3854 0.1024
18 7 1 8.0151 -0.0721
18 7 2 3.4348 -0.0837
18 7 3 -0.2232 0.2814
18 7 4 7.6222 -0.0259
18 7 5 -1.1865 0.0582
18 7 6 0.5732 -0.0040
18 7 7 -4.3612 -0.0185
18 7 8 0.6610 -0.0482
18 7 9 1.0415 -0.0201
18 7 10 0.4819 0.0790
18 7 11 2.8839 0.0095
18 7 12 -3.4048 -0.0163
18 7 13 -3.6589 -0.1658
18 7 14 -0.5923 -0.2168
18 7 15 0.7271 0.2067
18 8 0 -8.9120 -0.2938
18 8 1 -2.5209 -0.4789
18 8 2 -2.3569 0.0337
18 8 3 0.4518 0.1196
18 8 4 -1.0461 0.0680
18 8 5 7.9733 -0.0518
18 8 6 1.5498 0.1167
18 8 7 -7.3890 0.0539
18 8 8 3.4814 -0.0819
18 8 9 2.5512 0.0762
18 8 10 -0.7757 0.0594
18 8 11 -0.4662 -0.0300
18 8 12 1.8001 0.0715
18 8 13 1.3600 0.1654
18 8 14 -0.3948 -0.1680
18 9 1 -7.1581 -0.0520
18 9 2 -5.6126 -0.2472
18 9 3 0.2968 -0.0099
18 9 4 -1.8043 -0.0565
18 9 5 3.6804 0.0187
18 9 6 -2.5025 0.1063
18 9 7 1.5690 0.0652
18 9 8 -0.1785 0.0216
18 9 9 -1.0498 -0.2111
18 9 10 -0.7737 -0.0645
18 9 11 -2.4340 -0.0079
18 9 12 0.7427 -0.0164
18 9 13 3.1637 0.0646
18 9 14 1.3968 0.1495
18 10 0 10.3040 0.6500
18 10 1 -0.1032 -0.1922
18 10 2 -1.3600 -0.1534
18 10 3 2.3634 0.0564
18 10 4 1.2474 0.0566
18 10 5 -8.9671 0.0141
18 10 6 1.1315 -0.1675
18 10 7 9.5691 0.0834
18 10 8 -4.2510 -0.0137
18 10 9 -2.4777 0.0234
18 10 10 1.9714 -0.0730
18 10 11 -1.1362 0.1678
18 10 12 -1.9399 0.0409
18 10 13 -0.4139 -0.5160
18 11 1 4.7770 0.1137
18 11 2 5.9322 0.1878
18 11 3 0.4573 -0.1320
18 11 4 -1.3586 0.0664
18 11 5 -3.9838 -0.1291
18 11 6 4.9553 0.0567
18 11 7 -3.3583 -0.0819
18 11 8 -2.4951 -0.0632
18 11 9 4.1188 0.1275
18 11 10 2.7724 0.0672
18 11 11 1.1198 0.1248
18 11 12 -1.3173 -0.0568
18 11 13 -2.3635 0.2931
18 12 0 -5.2878 -0.0632
18 12 1 1.3629 0.5917
18 12 2 -0.8935 -0.0420
18 12 3 -3.8527 -0.1951
18 12 4 -0.6078 -0.0156
18 12 5 10.0802 -0.0694
18 12 6 0.8089 0.0200
18 12 7 -10.7142 0.0814
18 12 8 1.5613 0.0731
18 12 9 1.0329 -0.1225
18 12 10 -0.9196 0.0237
18 12 11 1.9889 -0.3629
18 12 12 1.8383 0.1025
18 13 1 -1.2506 -0.1265
18 13 2 -4.1828 0.1117
18 13 3 -2.0349 0.1738
18 13 4 0.1201 -0.0436
18 13 5 4.5299 0.1114
18 13 6 -4.3523 -0.1329
18 13 7 3.4122 -0.0015
18 13 8 2.7616 0.1005
18 13 9 -3.9316 0.2347
18 13 10 -1.6977 -0.2702
18 13 11 -1.5247 -0.4225
18 14 0 1.5241 -0.4487
18 14 1 -0.5886 -0.4242
18 14 2 3.0683 0.0758
18 14 3 0.6201 0.0347
18 14 4 -0.3141 -0.0588
18 14 5 -5.1651 0.2753
18 14 6 -2.6561 0.0612
18 14 7 7.1900 -0.2354
18 14 8 0.5130 0.2209
18 14 9 0.9928 0.0729
18 14 10 -0.2431 -0.1582
18 14 11 -1.9140 0.2042
18 15 1 0.9186 0.0894
18 15 2 2.9788 -0.0937
18 15 3 1.1183 -0.0585
18 15 4 0.7697 -0.1116
18 15 5 -4.2054 -0.0507
18 15 6 2.5745 0.0937
18 15 7 -1.6551 -0.1465
18 15 8 -1.0036 0.0950
18 15 9 2.5703 -0.1698
18 15 10 -0.1314 0.2157
18 16 0 -0.4194 0.2555
18 16 1 -0.0529 -0.2428
18 16 2 -2.9522 0.2636
18 16 3 0.9058 0.2182
18 16 4 1.1747 -0.1632
18 16 5 2.0332 -0.2338
18 16 6 1.2148 0.0564
18 16 7 -4.8124 0.0800
18 16 8 0.1805 -0.4158
18 17 1 -2.5013 0.1525
18 17 2 -1.2733 -0.0016
18 17 3 0.9699 -0.3379
18 17 4 -0.8454 0.1721
18 17 5 1.6551 0.0481
18 17 6 -1.6633 -0.2187
18 17 7 1.1424 0.4598
18 18 0 -0.3042 -0.0757
18 18 1 -0.2590 0.3928
18 18 2 1.6093 -0.3388
18 18 3 1.2001 -0.0135
18 18 4 -0.1208 0.3366
18 18 5 -2.2788 -0.0162
18 19 1 1.5461 -0.2839
19 0 2 4.7171 -0.2223
19 0 4 -1.5720 0.1702
19 0 6 -9.6844 -0.1064
19 0 8 6.7359 -0.1467
19 0 10 -0.7953 0.2186
19 0 12 1.1290 0.1314
19 0 14 2.2503 -0.4290
19 1 0 1.8455 0.4518
19 1 1 -0.2402 0.2093
19 1 2 -0.6435 -0.2138
19 1 3 0.2330 0.1755
19 1 4 4.1706 0.1190
19 1 5 -1.6334 0.0129
19 1 6 -5.1020 -0.0143
19 1 7 2.0848 0.0965
19 1 8 -4.2491 -0.0396
19 1 9 -0.8060 -0.0456
19 1 10 -2.1095 0.0655
19 1 11 0.4027 -0.2002
19 1 12 -0.3803 0.1000
19 1 13 -0.6373 -0.3130
19 1 14 -0.1932 -0.1184
19 1 15 -0.3215 0.5853
19 2 1 2.8726 -0.1576
19 2 2 -1.3918 -0.0628
19 2 3 -0.8885 0.0232
19 2 4 0.1449 -0.0734
19 2 5 -2.1689 0.1666
19 2 6 8.8990 -0.0091
19 2 7 0.5123 -0.1071
19 2 8 -5.8765 0.2174
19 2 9 -0.1926 0.0413
19 2 10 0.1795 -0.0610
19 2 11 1.7038 -0.1253
19 2 12 -0.7156 0.0173
19 2 13 -0.4943 -0.0048
19 2 14 -2.4830 0.2354
19 2 15 0.1660 0.0211
19 3 0 -6.5266 0.3291
19 3 1 0.8268 -0.3320
19 3 2 2.1949 -0.1096
19 3 3 -1.4563 -0.0317
19 3 4 -2.6772 -0.0534
19 3 5 4.7697 -0.0953
19 3 6 4.6011 -0.0881
19 3 7 -5.0846 0.0675
19 3 8 3.1132 -0.1507
19 3 9 2.1535 -0.0926
19 3 10 3.1953 0.0159
19 3 11 0.0296 0.2252
19 3 12 -0.5581 0.0994
19 3 13 0.3034 0.2436
19 3 14 0.6482 0.1918
19 3 15 -0.1364 -0.5177
19 4 1 -1.4249 0.0410
19 4 2 -3.6229 0.4609
19 4 3 -0.2890 0.0151
19 4 4 2.2476 0.0963
19 4 5 2.4964 -0.1091
19 4 6 -7.3276 -0.1953
19 4 7 0.6651 0.1342
19 4 8 3.1621 -0.1018
19 4 9 -0.6522 -0.0636
19 4 10 1.8510 -0.0643
19 4 11 -2.4546 0.1047
19 4 12 -0.0364 -0.1438
19 4 13 3.7086 -0.0345
19 4 14 2.3830 0.1770
19 4 15 -3.2763 -0.1464
19 5 0 6.1175 -0.8833
19 5 1 -1.0011 0.1030
19 5 2 -0.7102 0.2478
19 5 3 2.5105 0.0431
19 5 4 0.0516 0.0212
19 5 5 -6.8195 0.0031
19 5 6 -2.0065 0.1709
19 5 7 6.2307 -0.0527
19 5 8 -3.3367 0.1509
19 5 9 -3.1568 0.1438
19 5 10 -3.6778 -0.1001
19 5 11 -0.9672 -0.2227
19 5 12 1.1620 -0.1665
19 5 13 0.8089 0.0273
19 5 14 -0.4884 0.0629
19 5 15 1.2841 0.0412
19 6 1 2.1471 0.1178
19 6 2 4.4247 -0.4775
19 6 3 -0.2307 -0.1859
19 6 4 -2.7556 -0.0622
19 6 5 -1.5443 0.0757
19 6 6 6.2425 0.2630
19 6 7 -2.1261 -0.1301
19 6 8 -1.1057 0.0601
19 6 9 1.5372 0.0177
19 6 10 -3.0248 -0.0445
19 6 11 2.1927 -0.0086
19 6 12 0.3602 0.0730
19 6 13 -4.4476 0.0550
19 6 14 -1.7028 -0.1545
19 6 15 3.5851 0.2685
19 7 0 -2.8605 0.1003
19 7 1 1.0211 0.2055
19 7 2 -0.9823 -0.0503
19 7 3 -2.6445 -0.0612
19 7 4 -0.3596 0.1307
19 7 5 7.5884 -0.0120
19 7 6 2.1085 -0.1676
19 7 7 -6.8670 0.0389
19 7 8 2.1215 0.0153
19 7 9 3.6093 -0.0374
19 7 10 2.6881 0.0053
19 7 11 0.7119 0.0677
19 7 12 0.4404 0.0534
19 7 13 -0.1568 -0.1489
19 7 14 -1.3452 -0.1648
19 8 1 -3.5893 -0.1488
19 8 2 -2.3723 -0.0639
19 8 3 1.1589 0.2676
19 8 4 0.9854 -0.1040
19 8 5 2.5869 -0.0712
19 8 6 -5.0116 -0.0603
19 8 7 1.1309 0.0739
19 8 8 1.2687 -0.0647
19 8 9 -1.1299 -0.0299
19 8 10 2.2887 0.2078
19 8 11 -1.8937 0.0320
19 8 12 -1.1681 0.0572
19 8 13 1.6495 -0.0735
19 8 14 1.3089 -0.2824
19 9 0 4.0933 0.8405
19 9 1 -1.6947 -0.0880
19 9 2 -1.1855 -0.0352
19 9 3 3.0765 -0.0278
19 9 4 3.6527 -0.2143
19 9 5 -7.6754 0.0974
19 9 6 -4.6302 -0.0258
19 9 7 7.2217 -0.0170
19 9 8 -0.0815 -0.0843
19 9 9 -3.0712 -0.1562
19 9 10 -0.3722 0.2584
19 9 11 -0.7568 0.1105
19 9 12 -2.2555 -0.0995
19 9 13 -0.3948 -0.0502
19 10 1 3.3950 -0.0764
19 10 2 1.0667 0.2937
19 10 3 -1.1386 0.1090
19 10 4 0.1017 0.2295
19 10 5 -4.2362 -0.2125
19 10 6 3.6368 -0.0911
19 10 7 0.3816 0.1165
19 10 8 -1.2685 0.0460
19 10 9 0.6988 0.0649
19 10 10 -1.9369 -0.2418
19 10 11 1.4351 -0.0420
19 10 12 2.6749 0.0903
19 10 13 0.1729 -0.0399
19 11 0 -6.4897 -0.4639
19 11 1 1.7001 -0.1590
19 11 2 3.6394 -0.0445
19 11 3 -2.8416 -0.0078
19 11 4 -4.7211 0.1126
19 11 5 7.0122 0.0499
19 11 6 3.0473 0.0549
19 11 7 -6.3393 -0.0673
19 11 8 1.3381 0.0098
19 11 9 1.8356 0.1048
19 11 10 -2.2059 -0.4620
19 11 11 1.2396 0.0333
19 11 12 2.2010 0.4264
19 12 1 -4.4161 0.1899
19 12 2 -1.1307 0.0331
19 12 3 1.5121 -0.3336
19 12 4 0.9750 -0.0420
19 12 5 3.5272 0.3222
19 12 6 -2.9237 0.1067
19 12 7 0.6395 -0.1290
19 12 8 0.8178 -0.0623
19 12 9 -1.2372 -0.0104
19 12 10 0.6939 0.0636
19 12 11 -0.8523 -0.0967
19 12 12 -2.2293 -0.3298
19 13 0 5.2550 -0.3829
19 13 1 -0.7875 0.1623
19 13 2 -2.8538 0.0434
19 13 3 2.0079 0.0764
19 13 4 2.9111 -0.0217
19 13 5 -6.1799 -0.1451
19 13 6 0.1022 0.1541
19 13 7 4.4953 -0.0824
19 13 8 -1.9365 0.2041
19 13 9 -0.3866 0.1815
19 13 10 2.1487 0.3856
19 13 11 -0.9330 -0.1572
19 14 1 4.0320 -0.0378
19 14 2 0.6942 -0.1899
19 14 3 -1.1111 0.0638
19 14 4 -0.3482 -0.2127
19 14 5 -2.1710 -0.0783
19 14 6 0.5116 -0.1219
19 14 7 -1.9600 0.0018
19 14 8 0.0506 0.0098
19 14 9 1.2820 -0.2431
19 14 10 1.3999 0.1986
19 15 0 -2.7094 0.6102
19 15 1 0.5476 -0.0357
19 15 2 0.6795 0.0593
19 15 3 -1.7341 -0.0366
19 15 4 -1.2747 -0.3101
19 15 5 4.6298 0.0944
19 15 6 -0.1401 0.0051
19 15 7 -2.6831 0.2110
19 15 8 -0.1071 -0.4749
19 15 9 -0.0449 -0.1794
19 16 1 -2.2658 -0.0582
19 16 2 0.4427 0.2542
19 16 3 0.8893 0.0680
19 16 4 -2.0744 0.1792
19 16 5 1.6905 0.0916
19 16 6 2.0639 0.0350
19 16 7 0.7835 -0.0183
19 16 8 -0.9289 0.1249
19 17 0 1.6454 -0.5181
19 17 1 -0.4942 -0.0439
19 17 2 0.2579 -0.2804
19 17 3 0.8021 -0.0157
19 17 4 0.8300 0.8765
19 17 5 -1.6810 -0.0920
19 17 6 -0.4027 -0.3203
19 18 1 1.8756 0.0487
19 18 2 -0.6099 -0.3436
19 18 3 -1.3250 0.0150
19 18 4 1.7861 -0.1542
20 0 0 -8.9102 -0.1735
20 0 2 2.0084 -0.0384
20 0 4 0.7332 0.2030
20 0 6 4.5096 0.0090
20 0 8 -3.5323 -0.0537
20 0 10 2.7840 -0.0831
20 0 12 2.6306 0.2768
20 0 14 -0.6438 -0.0488
20 1 1 -2.1983 -0.1748
20 1 2 -3.0971 -0.1471
20 1 3 0.7682 -0.1821
20 1 4 -7.7070 -0.0186
20 1 5 -0.3367 0.4903
20 1 6 9.8336 0.1327
20 1 7 -0.1722 0.3580
20 1 8 -6.5151 -0.0238
20 1 9 0.4543 -0.2675
20 1 10 0.8033 0.0264
20 1 11 -0.5452 0.0817
20 1 12 0.7093 -0.0902
20 1 13 0.4356 0.0122
20 1 14 1.3542 0.1362
20 1 15 0.0175 0.4946
20 2 0 11.9571 0.1028
20 2 1 0.7304 -0.9398
20 2 2 -4.0161 0.0791
20 2 3 -0.2888 -0.1722
20 2 4 -1.2647 -0.2207
20 2 5 0.8428 -0.0925
20 2 6 -2.9304 0.0700
20 2 7 -2.7148 0.1554
20 2 8 3.1211 -0.0915
20 2 9 1.0782 0.1857
20 2 10 -2.3528 0.1492
20 2 11 -0.2682 -0.2347
20 2 12 -2.5985 -0.1026
20 2 13 -1.5851 -0.1173
20 2 14 -0.6279 0.1360
20 2 15 2.5976 0.2680
20 3 1 2.7434 0.3273
20 3 2 6.6493 -0.0564
20 3 3 -0.7700 -0.1069
20 3 4 2.7876 0.0188
20 3 5 0.6021 -0.3499
20 3 6 -6.9060 -0.0564
20 3 7 0.8080 -0.3071
20 3 8 4.9759 -0.0076
20 3 9 -1.4709 0.1385
20 3 10 0.3245 -0.1560
20 3 11 1.8236 0.1696
20 3 12 0.1422 0.0697
20 3 13 -0.9957 -0.1546
20 3 14 -2.8274 0.0683
20 3 15 -0.1749 -0.3212
20 4 0 -15.1843 -0.0087
20 4 1 0.1189 0.8442
20 4 2 6.7044 -0.0797
20 4 3 -1.4942 0.0937
20 4 4 1.0651 0.0381
20 4 5 -0.9174 0.0558
20 4 6 0.9342 0.0473
20 4 7 4.3414 -0.0907
20 4 8 -1.7821 -0.0195
20 4 9 -1.5524 -0.0933
20 4 10 1.0094 0.0891
20 4 11 0.9212 0.1118
20 4 12 2.8384 -0.2469
20 4 13 1.6866 -0.0346
20 4 14 1.5546 0.1011
20 4 15 -1.9950 0.1745
20 5 1 -1.3119 -0.2490
20 5 2 -6.6690 0.1560
20 5 3 0.4842 -0.0056
20 5 4 -0.4341 -0.0006
20 5 5 -0.6831 0.1773
20 5 6 3.3450 -0.1111
20 5 7 -1.7272 0.2218
20 5 8 -2.5932 0.1741
20 5 9 1.6861 -0.0216
20 5 10 -1.4690 0.0081
20 5 11 -1.7307 -0.0726
20 5 12 0.6269 0.0129
20 5 13 0.2271 0.0327
20 5 14 2.4002 -0.0719
20 6 0 11.6268 0.0414
20 6 1 -1.2106 0.2543
20 6 2 -4.9915 0.0463
20 6 3 3.8442 -0.2276
20 6 4 -0.6567 0.1060
20 6 5 -0.6762 0.0183
20 6 6 -0.6227 -0.1785
20 6 7 -2.7900 -0.1298
20 6 8 0.7406 0.1216
20 6 9 -0.3101 -0.1239
20 6 10 0.1420 -0.0424
20 6 11 -1.2902 0.1535
20 6 12 -3.0734 0.0174
20 6 13 -0.5007 0.1286
20 6 14 -0.1572 -0.1013
20 7 1 1.1735 -0.0586
20 7 2 3.9492 -0.0519
20 7 3 -0.2140 0.3653
20 7 4 1.1056 -0.0830
20 7 5 0.5941 0.0475
20 7 6 -1.4444 0.1401
20 7 7 2.2822 -0.2335
20 7 8 0.9418 -0.2249
20 7 9 -1.3390 0.0350
20 7 10 1.8978 0.1810
20 7 11 0.6453 -0.1064
20 7 12 -1.6514 -0.0408
20 7 13 0.7187 0.0445
20 7 14 -0.7257 -0.0313
20 8 0 -5.4954 -0.1453
20 8 1 1.0350 -0.7344
20 8 2 0.8225 0.2228
20 8 3 -4.6451 0.1820
20 8 4 2.0478 -0.2721
20 8 5 2.3703 -0.0545
20 8 6 0.6285 0.2960
20 8 7 1.3322 0.2865
20 8 8 -1.7639 -0.2904
20 8 9 1.3383 0.1371
20 8 10 0.1998 0.0840
20 8 11 1.6503 -0.1368
20 8 12 2.2815 0.1867
20 8 13 -0.2352 -0.0306
20 9 1 -0.8074 0.0810
20 9 2 -1.5211 -0.0514
20 9 3 -0.7639 -0.2807
20 9 4 -2.6899 0.2606
20 9 5 -0.9104 -0.0767
20 9 6 2.9216 -0.1401
20 9 7 -2.0976 0.0596
20 9 8 -1.9334 0.0660
20 9 9 2.2431 -0.0408
20 9 10 -0.7772 -0.1049
20 9 11 -1.3076 -0.1375
20 9 12 0.1907 0.0849
20 9 13 0.0430 0.3899
20 10 0 2.5203 0.0602
20 10 1 0.4295 0.0439
20 10 2 0.7942 -0.3004
20 10 3 2.3580 0.0658
20 10 4 -2.7702 0.2954
20 10 5 -0.5423 -0.0524
20 10 6 -0.1480 -0.2793
20 10 7 -3.2826 0.0457
20 10 8 2.3599 0.2759
20 10 9 -0.1052 -0.2183
20 10 10 -0.2798 -0.3062
20 10 11 -1.7356 0.0116
20 10 12 -1.0003 0.0614
20 11 1 3.5255 0.1393
20 11 2 -0.7684 -0.0235
20 11 3 -1.0652 -0.1752
20 11 4 3.8590 -0.1162
20 11 5 2.0334 0.0014
20 11 6 -4.1034 0.1746
20 11 7 2.5573 0.1574
20 11 8 2.6120 -0.0590
20 11 9 -3.7333 0.1761
20 11 10 0.0493 -0.1034
20 11 11 1.7417 0.2278
20 11 12 0.5360 -0.0815
20 12 0 -0.9163 0.0685
20 12 1 -1.5283 0.5709
20 12 2 -0.7979 -0.0482
20 12 3 0.5947 -0.2359
20 12 4 1.9734 -0.0766
20 12 5 -2.8387 0.1200
20 12 6 -0.9894 0.2203
20 12 7 4.9480 -0.2161
20 12 8 0.0427 0.1307
20 12 9 0.1166 0.1459
20 12 10 -1.0241 0.0986
20 12 11 0.8177 -0.0899
20 13 1 -5.8579 -0.2684
20 13 2 0.9606 -0.0025
20 13 3 2.9638 0.3656
20 13 4 -2.0167 -0.2155
20 13 5 -2.0829 -0.0344
20 13 6 1.5916 -0.1478
20 13 7 -3.3058 -0.2211
20 13 8 -0.4506 0.3094
20 13 9 3.4990 -0.2211
20 13 10 -1.0558 0.1626
20 14 0 0.0548 0.1580
20 14 1 1.1694 -0.2426
20 14 2 0.5103 -0.0138
20 14 3 -0.7692 0.0851
20 14 4 -0.9437 -0.0884
20 14 5 3.4090 0.1252
20 14 6 1.3099 -0.2087
20 14 7 -4.6330 -0.4017
20 14 8 -1.6599 -0.4118
20 14 9 0.2573 0.5211
20 15 1 3.9283 0.1483
20 15 2 0.4039 0.3493
20 15 3 -1.6792 0.1015
20 15 4 -0.4103 0.0858
20 15 5 1.5326 -0.3320
20 15 6 0.0819 -0.0823
20 15 7 1.2692 0.6228
20 15 8 -0.7324 -0.2241
20 16 0 -0.2723 -0.3782
20 16 1 -0.9125 -0.3796
20 16 2 0.4849 0.4414
20 16 3 0.6619 0.1732
20 16 4 -0.3283 0.2871
20 16 5 -2.5753 -0.2467
20 16 6 -0.1305 -0.0382
20 16 7 3.8116 0.6327
20 17 1 -2.1447 -0.0397
20 17 2 0.0672 -0.4045
20 17 3 0.0968 -0.5158
20 17 4 0.0551 0.0880
20 17 5 -0.6113 0.8006
20 18 0 -0.7393 0.0550
20 18 1 0.9687 0.4218
20 18 2 -0.4143 -0.3343
21 0 2 -14.4286 -0.1320
21 0 4 1.1404 -0.0998
21 0 6 2.5547 -0.0507
21 0 8 -3.7079 0.4001
21 0 10 -1.0066 0.0392
21 0 12 1.5458 -0.1560
21 0 14 -0.1871 -0.1823
21 1 0 16.7291 0.6150
21 1 1 1.4973 -0.2994
21 1 2 -6.1442 -0.3397
21 1 3 -2.7831 -0.0940
21 1 4 -2.8613 -0.0229
21 1 5 2.2834 -0.0672
21 1 6 0.9447 -0.1929
21 1 7 -2.2462 0.2335
21 1 8 -0.3926 0.1746
21 1 9 2.1330 -0.1327
21 1 10 0.9074 0.0214
21 1 11 -1.3100 -0.1791
21 1 12 -3.9220 0.2904
21 1 13 0.0592 -0.2047
21 1 14 0.2660 -0.2568
21 2 1 3.8759 0.0758
21 2 2 11.6514 0.0447
21 2 3 -1.4821 0.0407
21 2 4 0.0350 -0.1230
21 2 5 0.1711 -0.0544
21 2 6 -0.4552 0.0019
21 2 7 0.5489 -0.3390
21 2 8 2.4916 -0.1705
21 2 9 -1.1081 0.3910
21 2 10 -0.0371 0.0451
21 2 11 1.8944 0.0235
21 2 12 -0.7722 0.0991
21 2 13 -2.3158 -0.2150
21 2 14 -1.3817 0.1371
21 3 0 -10.2968 0.2770
21 3 1 -3.3536 0.4885
21 3 2 2.2765 0.0034
21 3 3 6.1257 0.1435
21 3 4 0.8548 0.0729
21 3 5 -4.3292 -0.1001
21 3 6 2.5057 -0.0667
21 3 7 3.5425 0.0206
21 3 8 0.2772 -0.1734
21 3 9 -3.2866 -0.2802
21 3 10 -0.6289 0.2158
21 3 11 1.7014 0.4902
21 3 12 5.0246 -0.1662
21 3 13 0.5198 -0.0820
21 3 14 -3.4440 0.0310
21 4 1 -5.7053 -0.2032
21 4 2 -7.4742 0.3870
21 4 3 2.4558 0.2824
21 4 4 -3.4776 0.1517
21 4 5 0.0520 -0.2516
21 4 6 -1.2479 -0.1162
21 4 7 -0.8893 0.4100
21 4 8 -0.4323 -0.1492
21 4 9 0.3202 -0.2961
21 4 10 0.8742 -0.0335
21 4 11 -0.1822 -0.0399
21 4 12 1.0377 0.0406
21 4 13 0.5107 -0.0108
21 4 14 2.7523 0.1620
21 5 0 8.0591 -0.9019
21 5 1 3.2493 0.0157
21 5 2 0.7177 0.1967
21 5 3 -5.4592 -0.1999
21 5 4 -1.1006 0.1420
21 5 5 2.5893 0.1611
21 5 6 -5.6060 0.1627
21 5 7 -1.5419 -0.1598
21 5 8 1.0637 -0.0490
21 5 9 1.7473 0.2014
21 5 10 -1.3251 -0.1586
21 5 11 -0.2911 -0.1856
21 5 12 -3.6272 -0.1960
21 5 13 -1.0368 -0.0738
21 5 14 5.0596 0.4770
21 6 1 1.9881 0.0095
21 6 2 5.8231 -0.4621
21 6 3 -0.1878 -0.2139
21 6 4 6.5028 0.0076
21 6 5 -0.8315 0.3862
21 6 6 0.2185 0.1565
21 6 7 0.1485 -0.2421
21 6 8 -0.6760 0.1166
21 6 9 1.3679 0.0437
21 6 10 -0.6619 0.0609
21 6 11 -1.7913 -0.0142
21 6 12 -2.4381 0.0925
21 6 13 1.0729 0.1125
21 6 14 -1.5178 -0.5976
21 7 0 -8.1150 0.3329
21 7 1 -2.1583 -0.4782
21 7 2 -2.1635 -0.1313
21 7 3 2.5204 0.1529
21 7 4 3.5660 -0.0293
21 7 5 0.6610 -0.0690
21 7 6 3.8746 -0.0786
21 7 7 -0.2749 0.1304
21 7 8 0.6491 0.0833
21 7 9 -0.9860 -0.0037
21 7 10 1.6108 -0.0348
21 7 11 -0.3412 -0.0863
21 7 12 0.4147 0.2374
21 7 13 0.8953 0.1964
21 8 1 1.2516 0.0518
21 8 2 -5.2467 -0.1295
21 8 3 -1.8155 0.1413
21 8 4 -4.8437 -0.0971
21 8 5 1.0038 -0.1996
21 8 6 -1.3940 0.0292
21 8 7 1.2256 0.1231
21 8 8 0.9827 0.0639
21 8 9 -2.3991 -0.0502
21 8 10 1.2010 -0.0829
21 8 11 1.2082 0.0634
21 8 12 1.9601 -0.2813
21 8 13 0.3241 -0.0104
21 9 0 6.2144 0.5511
21 9 1 1.1237 0.1742
21 9 2 1.7054 0.0436
21 9 3 -0.3909 -0.0861
21 9 4 -3.0547 -0.3281
21 9 5 -2.3571 -0.0272
21 9 6 -1.1312 0.0389
21 9 7 1.1590 0.0185
21 9 8 -3.0227 -0.0299
21 9 9 0.6126 0.1091
21 9 10 -0.8450 0.0894
21 9 11 0.1752 0.0576
21 9 12 1.2162 0.0838
21 10 1 -0.9295 -0.1031
21 10 2 4.9633 0.4431
21 10 3 1.5307 0.0905
21 10 4 0.5262 0.1704
21 10 5 -1.4636 -0.3993
21 10 6 3.6083 -0.1450
21 10 7 -1.0257 0.0381
21 10 8 -0.4173 -0.0366
21 10 9 2.3430 -0.0127
21 10 10 -1.7888 -0.1139
21 10 11 0.2802 0.2517
21 10 12 -0.6977 0.2245
21 11 0 -2.9132 -0.4603
21 11 1 -0.8933 0.2615
21 11 2 -1.6714 0.0509
21 11 3 1.4023 -0.0847
21 11 4 1.4690 0.1220
21 11 5 -0.0838 0.1517
21 11 6 1.0200 0.1431
21 11 7 0.3490 -0.1813
21 11 8 1.9606 0.0714
21 11 9 -1.1886 -0.1653
21 11 10 0.8366 -0.0703
21 11 11 0.8675 -0.3141
21 12 1 0.0397 0.2526
21 12 2 -4.4160 -0.0733
21 12 3 -0.6360 -0.1784
21 12 4 0.7630 -0.2049
21 12 5 1.5759 0.4993
21 12 6 -3.1122 -0.0020
21 12 7 0.6129 0.0281
21 12 8 0.0929 -0.1016
21 12 9 -2.2241 0.0548
21 12 10 1.4756 0.3801
21 13 0 -0.7011 -0.2445
21 13 1 1.4491 -0.2527
21 13 2 3.2861 -0.1253
21 13 3 -3.4335 0.2760
21 13 4 -1.5486 0.1410
21 13 5 2.7672 -0.0474
21 13 6 -1.2732 -0.0367
21 13 7 -2.0079 0.0413
21 13 8 -1.0894 -0.3458
21 13 9 1.1721 0.1046
21 13 10 0.2342 0.3204
21 14 1 1.1505 -0.2085
21 14 2 2.2560 -0.0772
21 14 3 -0.1551 -0.1930
21 14 4 0.3477 0.0673
21 14 5 -0.2490 0.0250
21 14 6 2.3301 -0.0425
21 14 7 -1.2610 -0.1408
21 14 8 -1.0402 0.3577
21 14 9 1.6946 0.0337
21 15 0 1.8197 0.5855
21 15 1 -1.7655 -0.2246
21 15 2 -2.3402 0.0605
21 15 3 2.9759 -0.1706
21 15 4 0.2384 0.0999
21 15 5 -1.2565 -0.2110
21 15 6 0.7778 -0.2876
21 15 7 0.9130 0.1342
21 16 1 -0.7085 0.0930
21 16 2 0.4081 -0.1824
21 16 3 -0.7273 0.3902
21 16 4 -0.7994 -0.0485
21 16 5 -0.0050 -0.1706
21 16 6 -1.5842 0.3192
21 17 0 -1.2586 -0.5750
21 17 1 1.2992 0.6096
21 17 2 0.2032 -0.0230
21 17 3 -1.3072 -0.0343
22 0 0 13.3495 0.1298
22 0 2 -6.7267 -0.3424
22 0 4 8.4728 0.3406
22 0 6 -3.4700 -0.1021
22 0 8 -2.5178 -0.1244
22 0 10 1.2919 0.0451
22 0 12 -5.0894 0.3117
22 0 14 4.9145 -0.3819
22 1 1 1.0958 -0.1123
22 1 2 -1.5998 0.0573
22 1 3 -1.8619 -0.1265
22 1 4 3.2684 -0.1436
22 1 5 -0.3765 0.1942
22 1 6 1.9534 0.0385
22 1 7 1.3061 0.2983
22 1 8 0.8440 -0.0024
22 1 9 -0.1690 -0.0987
22 1 10 1.3133 0.1102
22 1 11 0.0367 0.0788
22 1 12 -2.6187 -0.0262
22 1 13 0.1066 -0.0773
22 1 14 -2.4588 -0.0769
22 2 0 -13.7406 0.2012
22 2 1 -0.0800 -0.5208
22 2 2 5.6429 0.2686
22 2 3 2.0253 -0.0653
22 2 4 -6.3718 -0.3270
22 2 5 -1.1042 0.0497
22 2 6 2.5713 0.1326
22 2 7 -2.8051 0.0870
22 2 8 3.2621 -0.1121
22 2 9 2.7304 0.1818
22 2 10 -1.1576 -0.0329
22 2 11 -0.3715 -0.0986
22 2 12 3.3897 0.2119
22 2 13 0.0801 0.1424
22 2 14 -3.3122 -0.0020
22 3 1 -2.4857 0.2131
22 3 2 -0.5987 0.0424
22 3 3 2.8703 -0.2043
22 3 4 -3.1267 0.1258
22 3 5 0.2485 0.0289
22 3 6 -1.5959 -0.0277
22 3 7 -0.2378 -0.3250
22 3 8 -0.9208 -0.0505
22 3 9 -1.1105 0.1702
22 3 10 0.6065 -0.1402
22 3 11 -0.2642 0.1490
22 3 12 1.3362 -0.0403
22 3 13 0.4346 -0.2179
22 3 14 2.3047 0.3362
22 4 0 11.2456 -0.6998
22 4 1 0.2005 0.4066
22 4 2 -2.3875 0.0106
22 4 3 -0.4116 0.1162
22 4 4 3.0065 0.1291
22 4 5 -2.8978 -0.0493
22 4 6 -1.4760 0.0696
22 4 7 4.9497 -0.2109
22 4 8 -3.9789 0.0275
22 4 9 -2.1244 -0.0552
22 4 10 0.8214 -0.1534
22 4 11 -0.3821 0.1537
22 4 12 -1.2803 -0.0591
22 4 13 -0.2761 0.2451
22 5 1 2.2909 -0.1615
22 5 2 0.7238 -0.1653
22 5 3 -0.8250 0.0903
22 5 4 3.5980 -0.0550
22 5 5 0.2642 -0.0030
22 5 6 1.2693 0.0098
22 5 7 -2.8590 0.1100
22 5 8 0.2619 0.1709
22 5 9 2.2614 0.0139
22 5 10 -0.7006 -0.1046
22 5 11 1.2738 -0.1656
22 5 12 -1.6510 0.1364
22 5 13 -1.5621 0.1202
22 6 0 -7.5658 0.5817
22 6 1 0.6076 0.3547
22 6 2 0.7736 -0.2365
22 6 3 -2.8647 -0.2658
22 6 4 -2.2174 0.2362
22 6 5 6.7465 -0.0073
22 6 6 1.6773 -0.3290
22 6 7 -5.7285 0.0536
22 6 8 2.6109 0.1900
22 6 9 1.2766 0.0514
22 6 10 -0.0850 0.1971
22 6 11 0.1413 -0.1610
22 6 12 1.0046 -0.1095
22 6 13 1.1830 0.0460
22 7 1 -2.4198 -0.0976
22 7 2 -0.5497 0.0488
22 7 3 0.1413 0.3392
22 7 4 -2.9383 -0.2062
22 7 5 0.3207 0.0011
22 7 6 -0.7057 0.1940
22 7 7 2.1035 -0.0790
22 7 8 0.4197 -0.1614
22 7 9 -0.8661 -0.0652
22 7 10 -0.6028 0.0027
22 7 11 -2.4480 -0.3472
22 7 12 1.8321 -0.0076
22 7 13 2.0168 0.6138
22 8 0 7.5209 0.1077
22 8 1 -0.7792 -0.5604
22 8 2 -2.4047 0.2449
22 8 3 2.6476 0.1375
22 8 4 2.2340 -0.4130
22 8 5 -5.9855 0.1088
22 8 6 -1.4018 0.3584
22 8 7 5.6770 0.1407
22 8 8 -0.7172 -0.3304
22 8 9 -1.9423 -0.0043
22 8 10 -0.4993 -0.0908
22 8 11 0.8422 0.0506
22 8 12 -0.7142 0.0006
22 9 1 3.9310 0.1146
22 9 2 1.5758 0.2613
22 9 3 -0.7963 -0.2106
22 9 4 1.3564 0.3517
22 9 5 -1.1799 -0.1162
22 9 6 0.3004 -0.2638
22 9 7 -0.5988 0.0434
22 9 8 -0.9731 0.0923
22 9 9 -0.1615 0.0067
22 9 10 1.1524 0.0765
22 9 11 2.2447 0.5968
22 10 0 -6.6208 -0.5145
22 10 1 -0.4129 -0.2504
22 10 2 2.7469 0.0027
22 10 3 -0.4416 0.0216
22 10 4 -1.3568 0.2459
22 10 5 5.1441 0.0212
22 10 6 0.4696 -0.1943
22 10 7 -6.4431 -0.0758
22 10 8 0.1160 0.3323
22 10 9 2.9686 -0.1684
22 10 10 0.8186 0.0778
22 10 11 -1.6486 -0.1288
22 11 1 -4.0053 0.1292
22 11 2 -1.7134 -0.2954
22 11 3 0.5258 -0.1980
22 11 4 -0.4750 -0.2118
22 11 5 1.2520 -0.0060
22 11 6 -0.9636 0.0634
22 11 7 0.7965 0.2334
22 11 8 1.6380 0.0667
22 11 9 0.4872 0.0376
22 11 10 -1.1345 -0.0796
22 12 0 3.2332 -0.0128
22 12 1 0.6700 0.4307
22 12 2 -1.1878 -0.0781
22 12 3 0.2009 0.0669
22 12 4 0.9046 -0.1645
22 12 5 -5.1885 0.0224
22 12 6 -0.4761 0.0688
22 12 7 6.0812 -0.3646
22 12 8 0.3137 -0.1082
22 12 9 -2.5510 0.5101
22 12 10 -1.5596 -0.1201
22 13 1 2.1985 -0.0492
22 13 2 1.7757 -0.0122
22 13 3 -0.6275 0.1546
22 13 4 -0.3556 0.1076
22 13 5 -0.8808 -0.0475
22 13 6 1.6917 0.0146
22 13 7 -0.6196 -0.1232
22 13 8 -1.5123 -0.2034
22 13 9 -1.0031 -0.2225
22 14 0 -0.0439 0.8355
22 14 1 0.0183 0.1135
22 14 2 -0.8884 -0.1686
22 14 3 0.0560 0.1123
22 14 4 0.2458 0.2809
22 14 5 2.2538 -0.4630
22 14 6 0.3437 0.0517
22 14 7 -2.6698 0.6329
22 14 8 -0.6451 -0.2604
22 15 1 -1.2531 -0.1455
22 15 2 -1.8467 0.1017
22 15 3 1.5089 -0.1280
22 15 4 0.4818 -0.0448
22 15 5 0.8288 0.5197
22 15 6 -1.0999 -0.0127
22 16 0 -1.5213 -0.7012
22 16 1 -0.1227 -0.0555
22 16 2 1.9216 -0.0006
22 16 3 -0.9318 -0.4276
22 16 4 -0.9641 -0.0568
23 0 2 -0.2977 -0.2076
23 0 4 1.1074 0.2011
23 0 6 6.5204 0.0775
23 0 8 -3.2473 -0.0175
23 0 10 2.7078 -0.0170
23 0 12 -3.3617 -0.3287
23 1 0 3.2496 0.1977
23 1 1 -0.2907 -0.8441
23 1 2 -3.4586 -0.2570
23 1 3 0.7958 -0.1635
23 1 4 0.8007 0.0530
23 1 5 -0.0537 -0.0197
23 1 6 -0.3555 -0.0563
23 1 7 -0.0221 0.2146
23 1 8 2.3332 0.2811
23 1 9 -0.4817 0.0709
23 1 10 2.6694 -0.1815
23 1 11 -0.3882 -0.1526
23 1 12 0.5359 -0.0882
23 1 13 1.7571 0.0052
23 2 1 -1.4668 0.1615
23 2 2 -1.6726 -0.0062
23 2 3 0.0096 0.0637
23 2 4 -0.8716 -0.1650
23 2 5 1.9185 -0.2209
23 2 6 -6.9971 -0.0241
23 2 7 -0.6615 -0.3129
23 2 8 3.9578 -0.1531
23 2 9 0.2781 0.3853
23 2 10 -1.2456 0.2758
23 2 11 -1.4926 0.3250
23 2 12 1.9446 -0.1912
23 2 13 0.6282 -0.4775
23 3 0 -0.0372 0.2682
23 3 1 0.3258 0.7832
23 3 2 2.4196 0.0308
23 3 3 -0.9945 0.1663
23 3 4 0.7361 -0.0351
23 3 5 -0.6962 -0.0100
23 3 6 -2.7945 -0.0302
23 3 7 0.7254 -0.0599
23 3 8 -2.7359 -0.1419
23 3 9 0.2870 -0.1714
23 3 10 -0.7407 0.1609
23 3 11 0.1801 -0.0110
23 3 12 -0.6772 -0.2085
23 3 13 -2.6262 0.0695
23 4 1 3.3805 -0.3144
23 4 2 3.9899 0.2546
23 4 3 -1.2604 0.3954
23 4 4 1.8012 0.0500
23 4 5 -1.7704 -0.4004
23 4 6 5.8716 -0.0019
23 4 7 0.6614 0.4834
23 4 8 -3.5553 0.1158
23 4 9 0.4517 -0.1705
23 4 10 -1.4465 -0.0441
23 4 11 0.1328 -0.2606
23 4 12 -0.0789 0.1182
23 4 13 -0.3216 0.1334
23 5 0 -0.1011 -0.3826
23 5 1 0.0439 0.0919
23 5 2 -3.3379 0.0813
23 5 3 -0.5722 -0.3445
23 5 4 -0.4981 0.1404
23 5 5 3.2525 0.1522
23 5 6 3.6747 0.0315
23 5 7 -2.4307 -0.1518
23 5 8 2.8922 -0.1572
23 5 9 0.6378 0.0434
23 5 10 0.1517 0.2113
23 5 11 1.2710 0.1634
23 5 12 -0.0133 0.3330
23 5 13 0.4797 0.0384
23 6 1 -2.9104 0.0750
23 6 2 -3.1743 -0.1548
23 6 3 0.5634 -0.0642
23 6 4 -2.9909 -0.0138
23 6 5 1.6153 0.4058
23 6 6 -3.7612 -0.0836
23 6 7 0.5602 -0.2067
23 6 8 1.7940 -0.0075
23 6 9 -1.5865 0.0336
23 6 10 2.1333 -0.0656
23 6 11 1.1394 -0.1247
23 6 12 0.6205 0.0994
23 7 0 -1.3409 0.0815
23 7 1 -0.5175 -0.8297
23 7 2 3.5658 -0.0772
23 7 3 2.3788 0.3572
23 7 4 0.2692 -0.1457
23 7 5 -6.2087 -0.0993
23 7 6 -1.7022 0.0504
23 7 7 4.2346 0.1524
23 7 8 -3.3585 0.0660
23 7 9 -0.9791 -0.0094
23 7 10 0.0907 -0.3147
23 7 11 -1.5669 0.1489
23 7 12 0.1736 -0.0467
23 8 1 1.1094 0.2023
23 8 2 1.5631 0.0124
23 8 3 0.8527 -0.3772
23 8 4 1.6338 0.0600
23 8 5 -2.7482 -0.1015
23 8 6 3.8124 0.1549
23 8 7 -0.5195 -0.0636
23 8 8 -0.7647 -0.0236
23 8 9 0.8238 0.0449
23 8 10 -2.0512 -0.2969
23 8 11 0.2559 0.0446
23 9 0 -1.3990 0.2806
23 9 1 1.2063 0.3182
23 9 2 -0.0908 0.1018
23 9 3 -2.5624 -0.0696
23 9 4 -2.1266 -0.1439
23 9 5 5.4399 -0.0893
23 9 6 0.6639 0.1307
23 9 7 -4.0126 0.0073
23 9 8 3.4606 0.1151
23 9 9 1.2644 0.1775
23 9 10 -1.0082 -0.0555
23 9 11 0.2948 -0.5190
23 10 1 -2.1431 -0.0675
23 10 2 -1.3414 0.0039
23 10 3 0.7186 0.1101
23 10 4 0.0313 -0.0803
23 10 5 3.3065 0.2024
23 10 6 -3.2713 -0.0572
23 10 7 -1.2078 -0.1323
23 10 8 -0.4021 0.0197
23 10 9 0.5094 0.0365
23 10 10 3.1398 0.4245
23 11 0 3.1372 -0.3080
23 11 1 -1.0266 0.5328
23 11 2 -1.0623 -0.2381
23 11 3 0.6011 -0.0494
23 11 4 1.7133 0.2588
23 11 5 -1.6866 0.0926
23 11 6 -0.2836 -0.0355
23 11 7 1.8546 -0.2313
23 11 8 -2.3954 -0.2866
23 11 9 -1.1384 0.0489
23 12 1 3.3451 -0.1367
23 12 2 0.7491 0.0703
23 12 3 -1.5328 0.1537
23 12 4 0.4856 -0.0463
23 12 5 -2.7645 -0.2540
23 12 6 0.9199 -0.2260
23 12 7 0.7800 0.1334
23 12 8 0.6990 0.2129
23 12 9 0.5359 0.0485
23 13 0 1.1306 0.0526
23 13 1 -0.0040 -0.6898
23 13 2 -2.3312 0.1396
23 13 3 0.2567 0.0024
23 13 4 0.7020 0.1042
23 13 5 1.4538 0.0342
23 13 6 -0.1996 -0.5267
23 13 7 -1.2020 0.3504
23 13 8 0.5793 0.3991
23 14 1 -1.7449 -0.0012
23 14 2 1.4467 0.0417
23 14 3 -0.6012 0.1213
23 14 4 -1.6566 -0.1181
23 14 5 2.0141 0.0536
23 14 6 0.5706 0.5783
23 14 7 1.1996 0.1221
23 15 0 -3.6153 -0.2094
23 15 1 0.6542 0.2485
23 15 2 2.8446 0.3137
23 15 3 0.3420 -0.0316
23 15 4 -0.0333 -0.1546
23 15 5 -2.9708 -0.0982
23 16 1 0.6616 0.1903
23 16 2 -2.1269 -0.5125
24 0 0 0.6603 0.4285
24 0 2 3.7058 -0.4544
24 0 4 -3.5828 0.3153
24 0 6 -0.4021 -0.0931
24 0 8 3.8767 -0.1844
24 0 10 0.6847 0.1917
24 0 12 -1.3966 -0.0809
24 1 1 0.1164 -0.0376
24 1 2 4.4603 0.1998
24 1 3 0.7670 -0.0368
24 1 4 3.6432 -0.1297
24 1 5 0.1597 -0.0764
24 1 6 -6.1648 -0.0191
24 1 7 0.6930 0.0074
24 1 8 5.0172 -0.0122
24 1 9 -1.3532 0.0051
24 1 10 -0.3526 -0.1851
24 1 11 0.5679 -0.1371
24 1 12 1.5573 0.1845
24 1 13 -0.8495 -0.3588
24 2 0 -3.0658 0.1400
24 2 1 -0.4958 -0.0046
24 2 2 -1.7264 0.1682
24 2 3 -0.8182 -0.0945
24 2 4 2.6522 -0.1558
24 2 5 0.3867 0.0946
24 2 6 0.7774 0.0967
24 2 7 1.6802 0.0457
24 2 8 -3.9635 -0.0479
24 2 9 0.1411 0.1553
24 2 10 -1.1247 -0.1944
24 2 11 0.5793 -0.1087
24 2 12 1.9263 0.1088
24 2 13 -0.6176 0.4251
24 3 1 -1.3431 -0.0322
24 3 2 -4.7926 0.1095
24 3 3 -0.5258 0.0498
24 3 4 -3.2448 0.1598
24 3 5 -0.8610 0.1268
24 3 6 5.4670 0.0967
24 3 7 -1.9261 -0.0089
24 3 8 -3.3773 -0.0421
24 3 9 3.3095 0.1346
24 3 10 -1.3302 0.0995
24 3 11 -1.5150 -0.2669
24 3 12 -1.2509 -0.0818
24 4 0 6.5866 -1.0053
24 4 1 0.2834 -0.0122
24 4 2 -1.2063 0.1071
24 4 3 1.2877 0.0549
24 4 4 -1.3973 0.1677
24 4 5 -0.0240 -0.0966
24 4 6 -0.6222 0.0738
24 4 7 -1.9303 -0.0473
24 4 8 3.1634 0.1061
24 4 9 -1.1128 -0.0237
24 4 10 1.1627 -0.1875
24 4 11 -0.5526 0.1163
24 4 12 -1.5592 0.2151
24 5 1 3.0192 -0.0364
24 5 2 4.6367 -0.4220
24 5 3 -0.8806 0.0939
24 5 4 2.2324 -0.1011
24 5 5 2.0085 -0.1288
24 5 6 -2.9333 -0.0017
24 5 7 1.5307 0.0355
24 5 8 1.1174 -0.0125
24 5 9 -2.8633 -0.1166
24 5 10 2.7860 -0.0137
24 5 11 1.2566 0.0427
24 5 12 -0.9208 -0.0199
24 6 0 -6.0250 0.8387
24 6 1 -0.0682 -0.1033
24 6 2 1.0129 -0.2497
24 6 3 -1.6838 -0.0187
24 6 4 1.6113 0.0606
24 6 5 0.1239 0.0063
24 6 6 -0.6988 -0.3467
24 6 7 1.6092 0.1653
24 6 8 -1.1254 0.1602
24 6 9 1.3723 0.0493
24 6 10 -0.3919 0.0676
24 6 11 0.8938 -0.0199
24 6 12 -0.2438 -0.0230
24 7 1 -2.0476 0.1151
24 7 2 -3.7191 0.0931
24 7 3 -0.7029 -0.1089
24 7 4 -1.1372 -0.0880
24 7 5 -1.7297 -0.1382
24 7 6 0.1494 0.1287
24 7 7 -0.5384 0.0690
24 7 8 -0.0604 0.1054
24 7 9 1.6525 -0.0893
24 7 10 -1.8438 0.0813
24 7 11 -0.3912 0.4653
24 8 0 2.8963 0.2857
24 8 1 0.0551 -0.0015
24 8 2 0.8782 0.0645
24 8 3 2.2435 0.0267
24 8 4 -2.2018 -0.1717
24 8 5 -0.5259 0.0749
24 8 6 1.2654 0.1258
24 8 7 -1.9871 -0.1634
24 8 8 -0.2507 -0.0052
24 8 9 -0.6273 -0.1894
24 8 10 0.6881 -0.0919
24 8 11 -1.6707 -0.0244
24 9 1 0.9049 -0.0576
24 9 2 2.0815 0.3257
24 9 3 2.5708 0.0176
24 9 4 1.4461 0.1707
24 9 5 0.3051 0.2247
24 9 6 -0.2023 -0.1916
24 9 7 1.3040 -0.0291
24 9 8 1.0420 -0.1404
24 9 9 -1.8392 0.1616
24 9 10 -0.6743 -0.2055
24 10 0 -1.0279 -0.7113
24 10 1 -0.0440 0.1142
24 10 2 -1.6060 0.0676
24 10 3 -1.6262 0.0946
24 10 4 2.1812 0.0553
24 10 5 -0.8431 -0.0879
24 10 6 -0.9870 0.1580
24 10 7 2.8067 -0.1641
24 10 8 0.9009 -0.1603
24 10 9 -0.0564 0.4345
24 11 1 -2.5666 -0.0414
24 11 2 -0.7141 -0.1835
24 11 3 -0.9627 -0.0312
24 11 4 -2.0044 -0.1298
24 11 5 -0.0104 0.0141
24 11 6 0.9612 -0.0630
24 11 7 -1.7638 -0.1842
24 11 8 -1.0671 0.1955
24 12 0 0.5688 -0.0619
24 12 1 0.1419 -0.2983
24 12 2 1.3452 0.1437
24 12 3 0.1223 -0.0640
24 12 4 -1.8968 -0.0585
24 12 5 2.4369 0.1074
24 12 6 0.9413 -0.0379
24 12 7 -2.7028 0.2482
24 12 8 -1.6448 -0.2583
24 13 1 2.8014 0.0862
24 13 2 0.5132 0.0249
24 13 3 -0.0160 -0.0155
24 13 4 1.2422 -0.0717
24 13 5 -0.0514 0.0149
24 13 6 -0.1399 0.3369
24 13 7 0.8344 0.2175
24 14 0 -1.3990 0.4544
24 14 1 -0.3414 0.5131
24 14 2 0.0951 0.1997
24 14 3 0.2871 -0.2463
24 14 4 0.5828 -0.1685
24 14 5 -1.6291 -0.1562
24 15 1 -1.8168 0.0297
24 15 2 -0.5208 -0.3459
24 15 3 -0.4072 -0.0531
25 0 2 8.6699 0.0879
25 0 4 0.2463 -0.0978
25 0 6 -2.4476 -0.0206
25 0 8 0.3338 0.1340
25 0 10 0.1806 -0.1643
25 0 12 -0.4585 -0.2828
25 1 0 -13.9690 -0.1678
25 1 1 -0.5681 -0.6867
25 1 2 4.4341 0.1539
25 1 3 0.7257 -0.2984
25 1 4 1.0697 -0.0179
25 1 5 -0.7745 -0.0268
25 1 6 4.0462 0.0222
25 1 7 0.9910 0.2105
25 1 8 -2.0490 0.0272
25 1 9 -0.7376 0.3822
25 1 10 -3.7213 -0.0918
25 1 11 1.7199 0.1480
25 1 12 4.3062 -0.0126
25 2 1 -3.3080 0.1540
25 2 2 -7.3386 0.0511
25 2 3 1.9346 0.0874
25 2 4 -0.4937 0.1601
25 2 5 -0.8667 -0.3922
25 2 6 2.3409 0.0231
25 2 7 -1.0266 -0.2164
25 2 8 -1.8274 -0.0855
25 2 9 0.5020 0.0516
25 2 10 1.0356 0.1950
25 2 11 0.1817 0.1574
25 2 12 0.6632 -0.1862
25 3 0 11.7713 -0.2170
25 3 1 2.1615 0.7060
25 3 2 -3.3402 0.1287
25 3 3 -2.9484 0.0339
25 3 4 -1.8286 -0.1373
25 3 5 1.8111 0.0710
25 3 6 -1.2785 -0.0066
25 3 7 -1.5546 -0.2967
25 3 8 0.0998 0.1125
25 3 9 0.9145 0.1896
25 3 10 1.4716 0.0605
25 3 11 -2.9633 -0.5447
25 3 12 -2.1254 0.0293
25 4 1 4.5751 -0.2547
25 4 2 5.3610 -0.1982
25 4 3 -1.2264 0.2181
25 4 4 0.5295 -0.1230
25 4 5 -0.8422 -0.0458
25 4 6 -0.4323 0.0041
25 4 7 2.0156 0.1074
25 4 8 1.6903 0.1238
25 4 9 -0.1773 0.1684
25 4 10 -1.7264 -0.1636
25 4 11 -0.8489 -0.0810
25 5 0 -7.9526 0.3593
25 5 1 -3.2042 -0.1677
25 5 2 0.9449 -0.1878
25 5 3 4.1978 -0.2402
25 5 4 1.9365 0.0301
25 5 5 -1.0813 0.1743
25 5 6 0.9788 0.0319
25 5 7 0.3478 -0.0546
25 5 8 1.1204 -0.0721
25 5 9 -0.1510 -0.0514
25 5 10 -0.4029 0.0754
25 5 11 1.5862 0.1906
25 6 1 -3.6600 0.1433
25 6 2 -4.1310 0.2439
25 6 3 0.1309 0.0679
25 6 4 -0.5136 0.0602
25 6 5 1.7492 0.0952
25 6 6 -2.3653 -0.0946
25 6 7 -0.8946 -0.1292
25 6 8 1.2720 -0.0923
25 6 9 -1.5003 -0.2611
25 6 10 0.9628 0.0453
25 6 11 1.4438 0.1752
25 7 0 4.6207 0.0979
25 7 1 2.4684 -0.5813
25 7 2 0.6510 -0.0299
25 7 3 -2.6234 0.3671
25 7 4 -0.8051 0.0564
25 7 5 -1.0289 -0.0315
25 7 6 -2.3456 0.0273
25 7 7 0.8814 0.0742
25 7 8 -1.4301 -0.1913
25 7 9 0.3524 0.0082
25 7 10 0.3372 0.0466
25 8 1 1.5937 0.2204
25 8 2 3.0108 -0.0449
25 8 3 0.5238 -0.5767
25 8 4 0.8217 0.0178
25 8 5 -1.6273 -0.0296
25 8 6 2.5340 0.0481
25 8 7 -0.9197 0.1243
25 8 8 -1.3825 0.0070
25 8 9 3.3950 0.2838
25 8 10 -0.9319 0.1833
25 9 0 -2.6039 -0.6198
25 9 1 -1.5658 0.3709
25 9 2 -1.0189 0.0145
25 9 3 1.4517 0.0172
25 9 4 0.3985 0.2123
25 9 5 1.7403 -0.2202
25 9 6 1.7776 -0.1214
25 9 7 -1.2725 0.1043
25 9 8 1.2488 0.2357
25 9 9 -0.8306 -0.4621
25 10 1 0.4600 -0.0047
25 10 2 -2.7791 -0.1396
25 10 3 -1.7680 -0.0632
25 10 4 -0.3153 -0.1388
25 10 5 2.7211 0.6164
25 10 6 -1.4572 0.1453
25 10 7 0.5642 -0.2032
25 10 8 -0.0479 -0.0324
25 11 0 1.7748 0.2912
25 11 1 1.4541 0.3992
25 11 2 1.1068 -0.0146
25 11 3 -2.1759 -0.0748
25 11 4 -1.0272 -0.0256
25 11 5 -0.2134 -0.1495
25 11 6 -0.5303 -0.2920
25 11 7 0.5131 0.1557
25 11 8 -0.8572 0.2036
25 12 1 -0.2271 -0.4273
25 12 2 2.8269 0.1253
25 12 3 1.0698 0.6351
25 12 4 -0.3240 -0.0231
25 12 5 -2.0142 -0.6391
25 12 6 1.5050 -0.0232
25 12 7 -0.1439 -0.0820
25 13 0 -2.3299 0.5993
25 13 1 -1.0996 -0.3908
25 13 2 -0.1040 0.1818
25 13 3 2.1880 -0.3295
25 13 4 0.5025 -0.3855
25 13 5 -1.0478 0.2237
25 14 1 -0.8368 0.3839
25 14 2 -1.6129 -0.2895
25 14 3 0.8059 0.0247
26 0 0 -5.5394 0.2728
26 0 2 3.6530 -0.2091
26 0 4 -4.2500 0.2351
26 0 6 0.1450 -0.0411
26 0 8 -0.1094 -0.4107
26 0 10 0.6124 0.3540
26 1 1 -2.0859 0.2591
26 1 2 1.8888 0.0588
26 1 3 2.0913 0.1633
26 1 4 -0.1570 -0.0758
26 1 5 -0.8048 -0.5195
26 1 6 -0.4789 0.0560
26 1 7 0.2553 -0.3834
26 1 8 0.3590 0.0165
26 1 9 -0.2241 0.4042
26 1 10 -1.8364 -0.2359
26 1 11 -0.3188 -0.2102
26 2 0 5.3155 0.0078
26 2 1 -0.1108 0.7160
26 2 2 -2.5860 0.1634
26 2 3 -0.1393 0.0205
26 2 4 3.6146 -0.1563
26 2 5 -1.0183 0.0554
26 2 6 -1.3016 -0.0160
26 2 7 2.1707 -0.1089
26 2 8 0.5597 0.1729
26 2 9 -1.0919 -0.1338
26 2 10 -0.6402 0.1616
26 2 11 0.3989 -0.2559
26 3 1 3.1272 -0.2753
26 3 2 -1.1356 0.1111
26 3 3 -3.0427 0.0152
26 3 4 1.7900 0.1150
26 3 5 0.4340 0.2641
26 3 6 -0.4403 0.1190
26 3 7 0.0433 0.3003
26 3 8 -0.2553 -0.1894
26 3 9 0.2051 -0.1643
26 3 10 0.7147 0.0814
26 3 11 1.0864 -0.1046
26 4 0 -5.7224 -0.5452
26 4 1 0.3630 -0.5920
26 4 2 1.8645 0.1708
26 4 3 -0.2683 0.0280
26 4 4 -2.8790 -0.0684
26 4 5 1.7652 -0.0103
26 4 6 1.8966 0.1383
26 4 7 -2.8555 0.0255
26 4 8 0.5450 -0.0384
26 4 9 0.9032 0.0694
26 4 10 0.1745 0.0666
26 4 11 -0.2878 0.0681
26 5 1 -1.3399 0.1415
26 5 2 0.5835 -0.4084
26 5 3 1.1257 0.0729
26 5 4 -1.7763 0.0070
26 5 5 1.3902 -0.0192
26 5 6 -0.6614 -0.1286
26 5 7 -0.6729 -0.1435
26 5 8 0.5403 -0.0546
26 5 9 -0.4681 -0.1473
26 5 10 0.0861 0.2086
26 6 0 7.0374 0.4460
26 6 1 -1.0369 -0.1818
26 6 2 -3.2566 -0.1820
26 6 3 1.6796 0.1587
26 6 4 2.9180 -0.0886
26 6 5 -2.9209 -0.0649
26 6 6 -0.3407 0.1449
26 6 7 3.7663 0.1547
26 6 8 -3.0250 -0.0316
26 6 9 -1.3694 0.0368
26 6 10 0.2239 -0.5520
26 7 1 2.1153 0.0391
26 7 2 -0.3445 0.3018
26 7 3 -1.0514 -0.3310
26 7 4 0.6915 0.0568
26 7 5 -1.9249 -0.1542
26 7 6 2.0743 -0.1012
26 7 7 0.8887 0.2978
26 7 8 -0.7151 0.4732
26 7 9 0.8820 -0.0380
26 7 10 -0.3461 -0.2913
26 8 0 -6.7956 0.4168
26 8 1 0.6671 0.4683
26 8 2 3.5508 -0.2154
26 8 3 -1.3844 -0.2526
26 8 4 -2.0991 0.2958
26 8 5 2.8625 0.0054
26 8 6 -0.5315 -0.4138
26 8 7 -4.0418 -0.1869
26 8 8 2.9671 0.1190
26 8 9 1.9446 -0.0603
26 9 1 -4.1125 -0.0125
26 9 2 -0.1256 0.2214
26 9 3 1.6894 0.2594
26 9 4 -0.9857 -0.3535
26 9 5 1.5535 0.1226
26 9 6 -1.2208 0.1420
26 9 7 -0.9219 -0.3397
26 9 8 0.4775 -0.4653
26 10 0 5.0687 -0.6185
26 10 1 0.5942 0.2750
26 10 2 -1.9222 0.1724
26 10 3 -0.2553 0.0942
26 10 4 0.1497 -0.1991
26 10 5 -1.8960 0.1047
26 10 6 0.2656 0.3074
26 10 7 2.9289 0.1178
26 11 1 2.5648 -0.1787
26 11 2 1.4896 -0.1187
26 11 3 -0.9866 0.0084
26 11 4 0.7698 0.1140
26 11 5 -0.6863 0.0697
26 11 6 0.6654 0.2468
26 11 7 0.0352 0.0418
26 12 0 -3.5679 0.1667
26 12 1 -0.6918 -0.3536
26 12 2 0.7350 0.1006
26 12 3 0.3419 -0.1312
26 12 4 1.1717 0.3352
26 12 5 1.3932 -0.2826
26 13 1 0.5087 0.1500
26 13 2 -2.5109 -0.4423
26 13 3 0.4756 -0.0314
27 0 2 -2.0541 0.0875
27 0 4 1.1634 -0.0316
27 0 6 -7.1306 0.2617
27 0 8 3.8678 -0.1929
27 0 10 -1.7888 -0.6432
27 1 0 -5.2564 -0.5443
27 1 1 0.3148 -0.0821
27 1 2 4.8214 0.1745
27 1 3 0.4050 -0.2411
27 1 4 -0.6021 0.0555
27 1 5 -0.8445 -0.2129
27 1 6 -1.9082 0.0199
27 1 7 0.0987 0.1338
27 1 8 0.7722 -0.1466
27 1 9 -0.2451 0.2417
27 1 10 0.2539 0.1462
27 2 1 1.2515 0.1352
27 2 2 1.8441 0.1555
27 2 3 -0.3898 0.1561
27 2 4 0.2062 0.0749
27 2 5 2.0944 -0.1215
27 2 6 5.5386 0.0197
27 2 7 -1.4570 0.2114
27 2 8 -2.2648 0.0040
27 2 9 0.9404 -0.0891
27 2 10 0.1274 -0.1096
27 3 0 3.7018 -0.3076
27 3 1 -0.9920 0.1480
27 3 2 -4.1869 0.1118
27 3 3 -0.2825 0.1129
27 3 4 0.8850 -0.0868
27 3 5 1.1181 0.1416
27 3 6 0.1644 0.1770
27 3 7 0.1222 -0.2610
27 3 8 2.2853 0.3655
27 3 9 0.9081 0.1346
27 3 10 -1.2318 -0.2095
27 4 1 -2.5849 -0.0402
27 4 2 -1.0743 -0.5216
27 4 3 0.3224 -0.2557
27 4 4 -2.2063 -0.2926
27 4 5 -0.8515 0.2477
27 4 6 -3.3980 0.0016
27 4 7 -1.3745 -0.4106
27 4 8 0.6207 0.1252
27 4 9 0.6428 0.0838
27 4 10 1.7062 0.2009
27 5 0 -3.8910 0.8645
27 5 1 1.2345 -0.1324
27 5 2 3.7722 -0.0728
27 5 3 -0.0432 0.0079
27 5 4 -0.1866 -0.1467
27 5 5 -1.2347 -0.0803
27 5 6 0.5691 -0.1611
27 5 7 0.3868 0.2560
27 5 8 -3.8438 -0.0590
27 5 9 -1.4480 -0.3036
27 6 1 2.3875 -0.0686
27 6 2 0.3252 0.4712
27 6 3 0.3665 0.3050
27 6 4 1.5464 0.2356
27 6 5 -0.9886 -0.2391
27 6 6 3.6478 0.1478
27 6 7 2.5588 0.2834
27 6 8 -1.3402 -0.1739
27 6 9 -0.7707 -0.0883
27 7 0 3.7060 -0.2530
27 7 1 -0.6528 -0.1039
27 7 2 -2.3669 0.0954
27 7 3 -0.7674 0.0082
27 7 4 -0.9350 -0.0244
27 7 5 3.2652 0.0395
27 7 6 -1.0329 -0.0543
27 7 7 -2.6155 -0.1461
27 7 8 3.5007 0.0929
27 7 9 1.4445 0.1383
27 8 1 -1.1865 0.0541
27 8 2 -0.7947 -0.0183
27 8 3 -0.7722 -0.0851
27 8 4 0.8179 -0.0299
27 8 5 1.6603 0.1979
27 8 6 -3.9891 -0.2961
27 8 7 -0.6668 -0.0559
27 8 8 1.3769 0.0330
27 9 0 -0.4297 -0.9066
27 9 1 0.1601 0.0941
27 9 2 0.1412 -0.1431
27 9 3 0.4056 -0.0341
27 9 4 0.8530 0.4754
27 9 5 -3.0979 0.0348
27 9 6 1.2360 -0.0423
27 9 7 3.2672 0.2100
27 10 1 1.5304 0.0595
27 10 2 1.8686 -0.2441
27 10 3 -0.3628 -0.2589
27 10 4 -1.2920 0.0486
27 10 5 -1.7896 -0.4503
27 10 6 2.0382 0.0661
27 11 0 -1.7398 1.1728
27 11 1 -0.1783 0.2625
27 11 2 -0.0377 0.2523
27 11 3 0.9510 -0.2123
27 11 4 0.6348 -0.6819
27 11 5 0.3697 -0.0423
27 12 1 -1.8213 0.0824
27 12 2 -1.1934 -0.0991
28 0 0 4.4954 0.2027
28 0 2 -6.5937 0.1322
28 0 4 4.3956 -0.1782
28 0 6 0.2393 0.1386
28 0 8 -3.9313 -0.0361
28 1 1 1.3491 0.1624
28 1 2 0.9875 -0.1130
28 1 3 -1.7112 0.3934
28 1 4 -3.1826 -0.0286
28 1 5 0.7154 -0.5219
28 1 6 3.2074 0.1856
28 1 7 -1.7030 -0.2431
28 1 8 -3.0055 0.0263
28 1 9 1.8717 0.7111
28 2 0 -2.1216 -0.2041
28 2 1 1.0215 0.9004
28 2 2 4.2659 -0.2915
28 2 3 -0.9484 0.1501
28 2 4 -3.5977 0.4666
28 2 5 1.1143 0.0809
28 2 6 0.6923 -0.3758
28 2 7 -1.4922 -0.2578
28 2 8 3.0842 0.0960
28 2 9 -1.4535 -0.5715
28 3 1 -0.3076 -0.3482
28 3 2 -0.9536 0.3041
28 3 3 1.6142 0.1214
28 3 4 2.5243 -0.1353
28 3 5 0.0134 0.0123
28 3 6 -2.7909 -0.1335
28 3 7 2.3976 0.3389
28 3 8 2.3862 -0.1166
28 3 9 -2.9198 -0.5767
28 4 0 -1.6131 0.3010
28 4 1 -0.8623 -0.6189
28 4 2 -0.5999 0.2852
28 4 3 0.1875 -0.0203
28 4 4 2.4726 -0.2376
28 4 5 -0.0337 -0.0533
28 4 6 -2.0672 0.0046
28 4 7 0.8182 0.1009
28 4 8 -2.1057 0.0352
28 4 9 2.0125 0.1042
28 5 1 -2.4665 0.3223
28 5 2 0.1487 -0.1765
28 5 3 0.7688 -0.1789
28 5 4 -1.1976 0.1063
28 5 5 -3.1839 0.2287
28 5 6 1.5652 0.1454
28 5 7 1.1292 -0.2843
28 5 8 -0.8938 0.2343
28 6 0 1.7271 -0.3438
28 6 1 0.3170 -0.5611
28 6 2 -0.1669 0.2574
28 6 3 1.0156 0.2284
28 6 4 -1.9030 -0.6099
28 6 5 -0.7236 -0.0622
28 6 6 2.0832 0.7388
28 6 7 -2.1888 0.1488
28 6 8 1.8115 -0.5022
28 7 1 0.6086 0.0875
28 7 2 0.3054 0.0757
28 7 3 0.6546 -0.3960
28 7 4 0.1350 0.1912
28 7 5 4.1081 0.2521
28 7 6 0.1686 -0.2804
28 7 7 -3.5467 -0.1098
28 8 0 1.3759 0.1640
28 8 1 -0.1514 0.6588
28 8 2 -1.2343 -0.5279
28 8 3 -1.1107 -0.1270
28 8 4 1.2096 0.7447
28 8 5 -0.1291 0.1905
28 8 6 -1.2353 -0.5464
28 8 7 4.1015 -0.2865
28 9 1 0.8377 -0.1367
28 9 2 0.1816 -0.1051
28 9 3 -2.6943 0.3815
28 9 4 0.0130 -0.2351
28 9 5 -1.4292 -0.6160
28 10 0 -3.1327 -0.1876
28 10 1 0.1709 0.3851
28 10 2 1.7169 0.1926
28 10 3 0.2001 -0.1821
28 10 4 -0.3076 0.0649
28 11 1 1.3971 -0.0603
29 0 2 -4.6482 0.0099
29 0 4 -0.6230 -0.2510
29 0 6 3.5604 0.4405
29 0 8 -3.7247 -0.3124
29 1 0 7.3234 -0.3844
29 1 1 -0.0255 0.7012
29 1 2 -2.8393 0.2811
29 1 3 -0.5765 0.1521
29 1 4 0.1395 0.0050
29 1 5 0.8210 -0.1843
29 1 6 -2.3358 -0.0050
29 1 7 -0.5701 0.2744
29 1 8 2.2692 0.0373
29 2 1 2.1851 -0.1405
29 2 2 5.0069 0.1849
29 2 3 -0.7159 -0.0376
29 2 4 0.3369 -0.1045
29 2 5 -1.5309 -0.1160
29 2 6 -2.9722 -0.0344
29 2 7 1.7427 0.2801
29 2 8 3.2391 0.0622
29 3 0 -6.0979 -0.3124
29 3 1 -0.4780 -0.4980
29 3 2 1.0260 0.0053
29 3 3 1.6689 0.0808
29 3 4 1.2536 -0.1296
29 3 5 -0.6926 0.0881
29 3 6 2.0751 0.1510
29 3 7 0.0440 -0.0496
29 3 8 -1.9728 -0.1374
29 4 1 -2.9619 0.2906
29 4 2 -5.3019 -0.3360
29 4 3 -0.0024 -0.5920
29 4 4 -0.0512 -0.0085
29 4 5 1.7801 0.8285
29 4 6 1.1209 0.3597
29 4 7 0.5758 -0.2633
29 5 0 4.2706 0.6243
29 5 1 1.0823 -0.2466
29 5 2 0.6952 -0.1608
29 5 3 -1.8643 0.1809
29 5 4 -1.2828 -0.0397
29 5 5 -1.1646 -0.5192
29 5 6 -2.9715 -0.2237
29 5 7 1.5193 0.4447
29 6 1 1.7055 -0.0391
29 6 2 4.0849 0.2585
29 6 3 1.0566 0.4804
29 6 4 0.5641 0.1298
29 6 5 -1.2401 -0.8841
29 6 6 0.5881 -0.7316
29 6 7 -2.6701 0.2557
29 7 0 -3.5410 -0.2405
29 7 1 -0.6808 0.8298
29 7 2 0.1253 0.2546
29 7 3 0.9641 -0.2914
29 7 4 -1.2189 0.1143
29 7 5 1.4257 0.4863
29 7 6 4.2546 0.1147
29 8 1 0.3234 -0.3641
29 8 2 -1.7427 -0.1694
29 8 3 -1.3279 0.2511
29 8 4 -1.3548 0.1957
29 8 5 0.8867 0.1428
29 9 0 2.5541 0.0424
29 9 1 0.1038 -0.3053
29 9 2 -0.8835 -0.2123
29 9 3 -0.3413 -0.1184
30 0 0 -3.9830 -0.4857
30 0 2 5.0679 0.4399
30 0 4 -2.6972 -0.5873
30 0 6 1.2310 0.0791
30 1 1 -0.6024 0.1288
30 1 2 -0.5158 -0.1226
30 1 3 0.5963 0.1973
30 1 4 -0.3918 0.1121
30 1 5 0.0384 -0.1409
30 1 6 -1.2126 -0.2293
30 1 7 -0.3599 0.2054
30 2 0 1.8134 0.0097
30 2 1 -0.9234 0.3989
30 2 2 -2.9672 -0.5571
30 2 3 0.3612 0.1978
30 2 4 1.2305 0.6661
30 2 5 1.4599 0.1293
30 2 6 -0.2847 -0.2987
30 2 7 -0.9047 -0.2457
30 3 1 0.4083 -0.2275
30 3 2 0.5169 0.2221
30 3 3 -1.0876 0.1523
30 3 4 0.1642 -0.4395
30 3 5 0.5645 0.0513
30 3 6 1.4521 0.0450
30 4 0 2.1982 1.0752
30 4 1 0.9416 -0.4307
30 4 2 -0.8771 -0.2431
30 4 3 0.0291 -0.1589
30 4 4 0.8096 -0.0916
30 4 5 -2.3867 0.2079
30 4 6 -0.2840 -0.0047
30 5 1 1.0517 0.1423
30 5 2 -0.6107 0.1305
30 5 3 0.0473 -0.1914
30 5 4 -0.1371 0.0960
30 5 5 -0.6891 -0.0481
30 5 6 -1.1104 0.2417
30 6 0 -3.5676 -1.1263
30 6 1 0.0139 -0.1920
30 6 2 2.6072 0.5165
30 6 3 -1.2827 -0.0099
30 6 4 -1.1993 0.2713
30 6 5 2.1458 0.0378
30 7 1 -1.4694 0.0099
30 7 2 1.0824 -0.3122
30 7 3 1.0704 0.1837
30 7 4 -0.0126 0.3422
30 8 0 1.3449 -0.5305
30 8 1 -0.3967 0.6650
30 8 2 -1.3902 0.2137
30 8 3 1.5424 0.2739
31 0 2 1.8330 -0.6698
31 0 4 -1.2556 0.0871
31 1 0 -0.0383 0.1985
31 1 1 -0.5710 1.6702
31 1 2 -0.0597 0.3547
31 1 3 0.5147 0.3219
31 1 4 -1.1242 -0.3512
31 1 5 -0.1883 0.0392
31 2 1 -4.0423 -0.5740
31 2 2 -1.3282 -0.0338
31 2 3 1.6568 -0.0106
31 2 4 -0.3643 0.2868
31 2 5 -1.6721 0.0788
31 3 0 -2.3269 -0.0984
31 3 1 1.2282 -0.9882
31 3 2 2.8425 -0.2484
31 3 3 -0.7013 -0.6918
31 3 4 -0.4662 0.0638
31 3 5 -0.2949 0.1089
31 4 1 3.2176 0.5585
31 4 2 0.6670 -0.1208
31 4 3 -0.3843 -0.0714
31 4 4 2.3563 0.2960
31 5 0 2.6579 -0.0817
31 5 1 -0.8422 0.2937
31 5 2 -3.0819 0.0641
31 5 3 -0.2406 0.4490
31 6 1 -0.2318 -0.1218
31 6 2 -0.8912 0.1186
32 1 1 1.0256 -0.1891
32 1 2 -2.4266 -0.0057
32 2 0 -0.8702 0.3497
32 2 1 -0.1246 -0.8428
32 2 2 1.3217 0.2528
32 3 1 -1.6544 0.3945
0 0 0 0.0 0.0
;
_shelx_fab_checksum              33209
_olex2_submission_special_instructions 'No special instructions were received'
_oxdiff_exptl_absorpt_empirical_details
;
Empirical correction (ABSPACK) includes:
- Absorption correction using spherical harmonics
- Frame scaling
;
_oxdiff_exptl_absorpt_empirical_full_max 1.622
_oxdiff_exptl_absorpt_empirical_full_min 0.781
loop_
_space_group_symop_operation_xyz
'x, y, z'
'-x+1/2, -y+1/2, z'
'-x, y+1/2, -z+1/2'
'x+1/2, -y, -z+1/2'
'-x, -y, -z'
'x-1/2, y-1/2, -z'
'x, -y-1/2, z-1/2'
'-x-1/2, y, z-1/2'
loop_
_atom_site_label
_atom_site_type_symbol
_atom_site_fract_x
_atom_site_fract_y
_atom_site_fract_z
_atom_site_U_iso_or_equiv
_atom_site_adp_type
_atom_site_occupancy
_atom_site_site_symmetry_order
_atom_site_calc_flag
_atom_site_refinement_flags_posn
_atom_site_refinement_flags_adp
_atom_site_refinement_flags_occupancy
_atom_site_disorder_assembly
_atom_site_disorder_group
Zn1 Zn 0.98817(2) 0.43928(3) 0.60637(3) 0.02653(18) Uani 1 1 d . . . . .
S1 S 0.99891(3) 0.30849(4) 0.26430(5) 0.0236(2) Uani 1 1 d . . . . .
S2 S 0.53706(3) 0.51052(5) 0.63054(6) 0.0298(2) Uani 1 1 d . . . . .
S3 S 0.43918(3) 0.35282(5) 0.54492(6) 0.0312(2) Uani 1 1 d . . . . .
O3 O 1.01148(9) 0.45250(13) 0.34374(17) 0.0245(5) Uani 1 1 d . . . . .
O4 O 0.98787(9) 0.42054(14) 0.47427(16) 0.0254(5) Uani 1 1 d . . . . .
O2 O 0.98165(10) 0.09928(13) 0.23867(16) 0.0266(5) Uani 1 1 d . . . . .
O1 O 0.99242(11) 0.18365(14) 0.14067(17) 0.0297(6) Uani 1 1 d . . . . .
N4 N 0.07479(11) 0.43813(15) 0.60312(18) 0.0221(6) Uani 1 1 d . . . . .
N2 N 0.54472(11) 0.38275(19) 0.55627(19) 0.0293(7) Uani 1 1 d . . . . .
N1 N 0.90155(11) 0.44174(16) 0.59695(18) 0.0228(6) Uani 1 1 d . . . . .
N3 N 0.43141(12) 0.4803(2) 0.6173(2) 0.0311(7) Uani 1 1 d . . . . .
F1 F 0.73043(12) 0.56376(17) 0.6444(3) 0.0397(10) Uani 0.713(7) 1 d D . P A 1
C6 C 0.99761(12) 0.40633(17) 0.3980(2) 0.0185(6) Uani 1 1 d . . . . .
C25 C 0.32324(14) 0.4890(2) 0.6152(2) 0.0265(7) Uani 1 1 d . . . . .
H25 H 0.342718 0.529968 0.631978 0.032 Uiso 1 1 calc R U . . .
C22 C 0.34784(13) 0.4264(2) 0.5880(2) 0.0266(7) Uani 1 1 d . . . . .
C17 C 0.62827(14) 0.4413(2) 0.5855(2) 0.0265(7) Uani 1 1 d . . . . .
C21 C 0.40462(13) 0.4260(2) 0.5870(2) 0.0255(7) Uani 1 1 d . . . . .
C15 C 0.70749(14) 0.5012(2) 0.6157(2) 0.0284(8) Uani 1 1 d D . . . .
H15 H 0.724688 0.543055 0.635998 0.034 Uiso 0.287(7) 1 calc R U P A 2
C31 C 0.15664(13) 0.4772(2) 0.6571(2) 0.0261(7) Uani 1 1 d . . . . .
H31 H 0.174959 0.505853 0.697082 0.031 Uiso 1 1 calc R U . . .
C27 C 0.23991(14) 0.4322(2) 0.5943(2) 0.0255(7) Uani 1 1 d . . . . .
C1 C 0.98717(13) 0.16483(19) 0.2169(2) 0.0232(7) Uani 1 1 d . . . . .
C5 C 0.99204(12) 0.33017(18) 0.3700(2) 0.0199(6) Uani 1 1 d . . . . .
C11 C 0.79355(14) 0.4431(2) 0.5919(2) 0.0262(7) Uani 1 1 d . . . . .
C12 C 0.73674(13) 0.4426(2) 0.5890(2) 0.0262(7) Uani 1 1 d . . . . .
C32 C 0.10341(13) 0.47691(19) 0.6569(2) 0.0247(7) Uani 1 1 d . . . . .
H32 H 0.086211 0.506177 0.697582 0.030 Uiso 1 1 calc R U . . .
C18 C 0.57193(14) 0.4391(2) 0.5858(2) 0.0254(7) Uani 1 1 d . . . . .
C28 C 0.18300(13) 0.43491(19) 0.5976(2) 0.0239(7) Uani 1 1 d . . . . .
C9 C 0.87395(14) 0.4749(2) 0.6575(2) 0.0272(7) Uani 1 1 d . . . . .
H9 H 0.891644 0.498114 0.702827 0.033 Uiso 1 1 calc R U . . .
C26 C 0.27016(14) 0.4910(2) 0.6177(2) 0.0256(7) Uani 1 1 d D . . . .
H26 H 0.253725 0.534091 0.635979 0.031 Uiso 0.377(7) 1 calc R U P B 1
C7 C 0.87560(14) 0.4086(2) 0.5343(2) 0.0274(7) Uani 1 1 d . . . . .
H7 H 0.894598 0.384627 0.491050 0.033 Uiso 1 1 calc R U . . .
C4 C 0.98039(15) 0.27174(19) 0.4193(2) 0.0257(7) Uani 1 1 d . . . . .
H4 H 0.974996 0.273961 0.479228 0.031 Uiso 1 1 calc R U . . .
C16 C 0.65488(14) 0.5012(2) 0.6140(2) 0.0283(8) Uani 1 1 d . . . . .
H16 H 0.636556 0.542597 0.632595 0.034 Uiso 1 1 calc R U . . .
C3 C 0.97731(15) 0.20809(19) 0.3713(2) 0.0279(7) Uani 1 1 d . . . . .
H3 H 0.969540 0.162198 0.395044 0.034 Uiso 1 1 calc R U . . .
C10 C 0.82110(14) 0.4768(2) 0.6571(2) 0.0287(8) Uani 1 1 d . . . . .
H10 H 0.803289 0.501101 0.701471 0.034 Uiso 1 1 calc R U . . .
C8 C 0.82246(14) 0.4075(2) 0.5295(2) 0.0296(8) Uani 1 1 d . . . . .
H8 H 0.805819 0.382696 0.484189 0.036 Uiso 1 1 calc R U . . .
C19 C 0.49443(13) 0.3992(2) 0.5687(2) 0.0271(7) Uani 1 1 d . . . . .
C24 C 0.26579(14) 0.3707(2) 0.5671(3) 0.0296(8) Uani 1 1 d D . . . .
H24 H 0.246401 0.329706 0.550132 0.036 Uiso 0.623(7) 1 calc R U P B 2
C23 C 0.31900(15) 0.3672(2) 0.5638(3) 0.0313(8) Uani 1 1 d . . . . .
H23 H 0.335511 0.324308 0.545072 0.038 Uiso 1 1 calc R U . . .
C29 C 0.15302(14) 0.3947(2) 0.5408(2) 0.0296(8) Uani 1 1 d . . . . .
H29 H 0.168998 0.365666 0.498525 0.036 Uiso 1 1 calc R U . . .
C13 C 0.70949(14) 0.3830(2) 0.5586(3) 0.0310(8) Uani 1 1 d D . . . .
H13 H 0.727971 0.342215 0.538464 0.037 Uiso 0.713(7) 1 calc R U P A 1
C2 C 0.98683(14) 0.21953(19) 0.2856(2) 0.0243(7) Uani 1 1 d . . . . .
C30 C 0.10041(14) 0.3972(2) 0.5464(2) 0.0279(7) Uani 1 1 d . . . . .
H30 H 0.081017 0.368368 0.508076 0.033 Uiso 1 1 calc R U . . .
C20 C 0.48223(14) 0.4642(2) 0.6065(2) 0.0269(7) Uani 1 1 d . . . . .
C14 C 0.65628(14) 0.3815(2) 0.5571(2) 0.0312(8) Uani 1 1 d . . . . .
H14 H 0.638837 0.339903 0.536684 0.037 Uiso 1 1 calc R U . . .
F2 F 0.2417(2) 0.3071(3) 0.5474(5) 0.041(2) Uani 0.377(7) 1 d D . P B 1
F1A F 0.7319(3) 0.3158(5) 0.5399(7) 0.052(3) Uani 0.287(7) 1 d D . P A 2
F2A F 0.24988(14) 0.55464(19) 0.6445(3) 0.0360(11) Uani 0.623(7) 1 d D . P B 2
loop_
_atom_site_aniso_label
_atom_site_aniso_U_11
_atom_site_aniso_U_22
_atom_site_aniso_U_33
_atom_site_aniso_U_23
_atom_site_aniso_U_13
_atom_site_aniso_U_12
Zn1 0.0264(3) 0.0245(3) 0.0287(3) 0.00080(18) -0.00030(18) -0.00003(18)
S1 0.0357(4) 0.0167(4) 0.0183(4) -0.0014(3) 0.0026(3) -0.0010(3)
S2 0.0182(4) 0.0396(5) 0.0316(5) -0.0060(4) -0.0015(3) 0.0004(3)
S3 0.0181(4) 0.0378(5) 0.0375(5) -0.0063(4) 0.0018(3) -0.0007(3)
O3 0.0306(13) 0.0153(11) 0.0276(13) -0.0008(9) 0.0039(10) -0.0016(9)
O4 0.0298(13) 0.0248(12) 0.0217(12) -0.0069(10) -0.0015(9) 0.0027(9)
O2 0.0372(14) 0.0160(11) 0.0266(13) -0.0039(9) -0.0022(10) 0.0016(10)
O1 0.0443(16) 0.0238(13) 0.0209(13) -0.0046(10) 0.0022(11) 0.0011(11)
N4 0.0201(14) 0.0215(14) 0.0248(15) 0.0020(11) 0.0002(11) 0.0014(10)
N2 0.0160(13) 0.0475(19) 0.0245(14) 0.0002(13) 0.0007(11) 0.0037(13)
N1 0.0183(14) 0.0294(15) 0.0206(14) -0.0004(11) 0.0003(11) 0.0007(11)
N3 0.0177(14) 0.049(2) 0.0271(15) 0.0020(14) 0.0013(12) 0.0062(13)
F1 0.0242(16) 0.0336(18) 0.061(2) -0.0160(15) -0.0028(15) -0.0025(12)
C6 0.0149(14) 0.0165(15) 0.0242(16) -0.0015(12) -0.0036(12) 0.0034(11)
C25 0.0204(17) 0.0334(19) 0.0255(17) -0.0022(14) 0.0000(13) -0.0004(14)
C22 0.0165(16) 0.039(2) 0.0243(16) -0.0007(14) -0.0013(13) 0.0019(14)
C17 0.0177(16) 0.042(2) 0.0195(15) 0.0021(14) 0.0008(13) 0.0012(14)
C21 0.0159(16) 0.0376(19) 0.0229(16) 0.0003(14) 0.0014(13) 0.0016(13)
C15 0.0227(17) 0.0339(19) 0.0285(18) -0.0033(14) -0.0015(14) -0.0020(14)
C31 0.0226(17) 0.0317(18) 0.0238(16) -0.0017(14) -0.0007(13) -0.0032(14)
C27 0.0215(18) 0.0301(17) 0.0251(17) 0.0004(14) 0.0020(13) 0.0008(13)
C1 0.0224(16) 0.0209(16) 0.0264(17) -0.0047(13) -0.0033(13) 0.0020(12)
C5 0.0237(16) 0.0161(15) 0.0199(16) -0.0021(12) 0.0031(12) -0.0007(12)
C11 0.0183(17) 0.0364(19) 0.0239(17) 0.0006(14) 0.0009(13) 0.0006(13)
C12 0.0195(17) 0.037(2) 0.0226(16) -0.0014(14) -0.0011(13) 0.0002(13)
C32 0.0235(16) 0.0303(17) 0.0202(15) -0.0030(13) 0.0013(13) 0.0031(13)
C18 0.0203(16) 0.0372(19) 0.0187(15) -0.0004(13) 0.0010(13) -0.0011(13)
C28 0.0162(16) 0.0285(17) 0.0269(17) 0.0008(13) -0.0001(13) 0.0018(12)
C9 0.0260(17) 0.0342(19) 0.0213(16) -0.0051(14) -0.0025(13) 0.0000(14)
C26 0.0201(16) 0.0297(18) 0.0270(17) -0.0016(14) 0.0002(13) 0.0012(13)
C7 0.0210(16) 0.0323(18) 0.0289(18) -0.0048(14) 0.0016(14) 0.0001(14)
C4 0.0352(18) 0.0225(16) 0.0193(16) 0.0003(13) -0.0002(14) 0.0010(14)
C16 0.0216(17) 0.036(2) 0.0274(17) -0.0036(14) 0.0010(14) 0.0010(14)
C3 0.041(2) 0.0173(16) 0.0251(17) 0.0011(13) -0.0004(15) 0.0005(15)
C10 0.0219(17) 0.040(2) 0.0247(17) -0.0057(15) 0.0029(13) 0.0023(14)
C8 0.0221(17) 0.038(2) 0.0285(18) -0.0070(15) -0.0011(14) 0.0001(15)
C19 0.0175(16) 0.037(2) 0.0270(18) 0.0002(15) -0.0015(13) -0.0024(14)
C24 0.0215(17) 0.0268(17) 0.041(2) -0.0070(15) 0.0005(15) -0.0013(13)
C23 0.0225(18) 0.0332(19) 0.038(2) -0.0037(16) 0.0007(15) 0.0046(14)
C29 0.0243(18) 0.0329(19) 0.0317(19) -0.0074(15) 0.0010(14) 0.0047(14)
C13 0.0226(17) 0.038(2) 0.0322(19) -0.0063(16) -0.0005(14) 0.0028(15)
C2 0.0313(18) 0.0206(16) 0.0209(16) -0.0017(13) -0.0019(13) 0.0000(13)
C30 0.0228(17) 0.0285(18) 0.0324(19) -0.0067(14) -0.0028(14) 0.0008(14)
C20 0.0220(17) 0.038(2) 0.0209(17) 0.0015(14) 0.0012(13) 0.0022(15)
C14 0.0211(17) 0.038(2) 0.0341(19) -0.0063(16) 0.0005(14) -0.0010(15)
F2 0.016(3) 0.024(3) 0.084(5) -0.014(3) -0.001(3) -0.002(2)
F1A 0.020(4) 0.037(5) 0.098(8) -0.026(5) 0.005(4) 0.006(3)
F2A 0.0235(18) 0.032(2) 0.053(2) -0.0106(16) 0.0017(17) 0.0031(14)
loop_
_atom_type_symbol
_atom_type_description
_atom_type_scat_dispersion_real
_atom_type_scat_dispersion_imag
_atom_type_scat_source
C C 0.0181 0.0091 'International Tables Vol C Tables 4.2.6.8 and 6.1.1.4'
F F 0.0727 0.0534 'International Tables Vol C Tables 4.2.6.8 and 6.1.1.4'
H H 0.0000 0.0000 'International Tables Vol C Tables 4.2.6.8 and 6.1.1.4'
N N 0.0311 0.0180 'International Tables Vol C Tables 4.2.6.8 and 6.1.1.4'
O O 0.0492 0.0322 'International Tables Vol C Tables 4.2.6.8 and 6.1.1.4'
S S 0.3331 0.5567 'International Tables Vol C Tables 4.2.6.8 and 6.1.1.4'
Zn Zn -1.5491 0.6778 'International Tables Vol C Tables 4.2.6.8 and 6.1.1.4'
loop_
_exptl_crystal_face_index_h
_exptl_crystal_face_index_k
_exptl_crystal_face_index_l
_exptl_crystal_face_perp_dist
0 1 0 0.0317
0 -1 0 0.0317
-2 -3 -5 0.0610
2 3 5 0.0610
-5 0 1 0.1073
5 0 -1 0.0993
-5 1 2 0.0784
-2 2 5 0.0518
16 3 1 0.1002
8 -4 -8 0.0968
loop_
_geom_angle_atom_site_label_1
_geom_angle_atom_site_label_2
_geom_angle_atom_site_label_3
_geom_angle
_geom_angle_site_symmetry_1
_geom_angle_site_symmetry_3
_geom_angle_publ_flag
O3 Zn1 O2 87.75(10) 5_766 7_566 ?
O3 Zn1 O1 145.32(10) 5_766 7_566 ?
O3 Zn1 N4 90.74(10) 5_766 1_655 ?
O3 Zn1 N1 90.52(10) 5_766 . ?
O4 Zn1 O3 120.82(10) . 5_766 ?
O4 Zn1 O2 151.11(10) . 7_566 ?
O4 Zn1 O1 93.76(10) . 7_566 ?
O4 Zn1 N4 88.85(10) . 1_655 ?
O4 Zn1 N1 86.29(10) . . ?
O2 Zn1 O1 58.10(9) 7_566 7_566 ?
O2 Zn1 N4 95.48(10) 7_566 1_655 ?
O2 Zn1 N1 89.48(10) 7_566 . ?
N4 Zn1 O1 87.07(10) 1_655 7_566 ?
N4 Zn1 N1 174.93(11) 1_655 . ?
N1 Zn1 O1 94.68(10) . 7_566 ?
C2 S1 C5 91.03(16) . . ?
C20 S2 C18 88.02(18) . . ?
C19 S3 C21 87.81(18) . . ?
C6 O3 Zn1 112.9(2) . 5_766 ?
C6 O4 Zn1 167.7(2) . . ?
C1 O2 Zn1 92.8(2) . 7_565 ?
C1 O1 Zn1 86.7(2) . 7_565 ?
C32 N4 Zn1 122.6(2) . 1_455 ?
C32 N4 C30 116.3(3) . . ?
C30 N4 Zn1 121.1(2) . 1_455 ?
C18 N2 C19 106.5(3) . . ?
C9 N1 Zn1 119.9(2) . . ?
C9 N1 C7 117.3(3) . . ?
C7 N1 Zn1 122.8(2) . . ?
C21 N3 C20 107.6(3) . . ?
O3 C6 C5 118.3(3) . . ?
O4 C6 O3 124.1(3) . . ?
O4 C6 C5 117.6(3) . . ?
C22 C25 H25 120.3 . . ?
C26 C25 H25 120.3 . . ?
C26 C25 C22 119.4(3) . . ?
C25 C22 C21 117.9(3) . . ?
C23 C22 C25 119.7(3) . . ?
C23 C22 C21 122.4(3) . . ?
C16 C17 C18 121.5(3) . . ?
C16 C17 C14 118.5(3) . . ?
C14 C17 C18 120.0(3) . . ?
N3 C21 S3 117.1(3) . . ?
N3 C21 C22 121.5(3) . . ?
C22 C21 S3 121.4(3) . . ?
F1 C15 C12 121.1(3) . . ?
C12 C15 H15 118.6 . . ?
C16 C15 F1 116.1(3) . . ?
C16 C15 H15 118.6 . . ?
C16 C15 C12 122.7(4) . . ?
C32 C31 H31 120.4 . . ?
C32 C31 C28 119.2(3) . . ?
C28 C31 H31 120.4 . . ?
C26 C27 C28 122.0(3) . . ?
C24 C27 C28 121.4(3) . . ?
C24 C27 C26 116.6(3) . . ?
O2 C1 Zn1 57.91(18) . 7_565 ?
O2 C1 C2 117.4(3) . . ?
O1 C1 Zn1 64.45(18) . 7_565 ?
O1 C1 O2 122.3(3) . . ?
O1 C1 C2 120.3(3) . . ?
C2 C1 Zn1 175.2(3) . 7_565 ?
C6 C5 S1 119.9(2) . . ?
C4 C5 S1 112.6(3) . . ?
C4 C5 C6 127.5(3) . . ?
C10 C11 C12 122.6(3) . . ?
C10 C11 C8 116.5(3) . . ?
C8 C11 C12 120.9(3) . . ?
C15 C12 C11 122.2(3) . . ?
C15 C12 C13 116.2(3) . . ?
C13 C12 C11 121.5(3) . . ?
N4 C32 C31 124.2(3) . . ?
N4 C32 H32 117.9 . . ?
C31 C32 H32 117.9 . . ?
N2 C18 S2 116.8(3) . . ?
N2 C18 C17 123.2(3) . . ?
C17 C18 S2 119.9(3) . . ?
C31 C28 C27 122.2(3) . . ?
C31 C28 C29 116.7(3) . . ?
C29 C28 C27 121.2(3) . . ?
N1 C9 H9 118.5 . . ?
N1 C9 C10 123.0(3) . . ?
C10 C9 H9 118.5 . . ?
C25 C26 C27 122.5(3) . . ?
C25 C26 H26 118.8 . . ?
C27 C26 H26 118.8 . . ?
F2A C26 C25 114.9(3) . . ?
F2A C26 C27 122.7(3) . . ?
N1 C7 H7 118.3 . . ?
N1 C7 C8 123.4(3) . . ?
C8 C7 H7 118.3 . . ?
C5 C4 H4 123.9 . . ?
C5 C4 C3 112.1(3) . . ?
C3 C4 H4 123.9 . . ?
C17 C16 H16 119.7 . . ?
C15 C16 C17 120.6(4) . . ?
C15 C16 H16 119.7 . . ?
C4 C3 H3 123.8 . . ?
C2 C3 C4 112.5(3) . . ?
C2 C3 H3 123.8 . . ?
C11 C10 H10 119.8 . . ?
C9 C10 C11 120.4(3) . . ?
C9 C10 H10 119.8 . . ?
C11 C8 H8 120.3 . . ?
C7 C8 C11 119.5(3) . . ?
C7 C8 H8 120.3 . . ?
N2 C19 S3 131.6(3) . . ?
N2 C19 C20 118.7(3) . . ?
C20 C19 S3 109.7(3) . . ?
C27 C24 H24 118.9 . . ?
C23 C24 C27 122.2(3) . . ?
C23 C24 H24 118.9 . . ?
F2 C24 C27 123.5(4) . . ?
F2 C24 C23 114.1(4) . . ?
C22 C23 C24 119.7(3) . . ?
C22 C23 H23 120.2 . . ?
C24 C23 H23 120.2 . . ?
C28 C29 H29 120.1 . . ?
C30 C29 C28 119.9(3) . . ?
C30 C29 H29 120.1 . . ?
C12 C13 H13 119.0 . . ?
C12 C13 F1A 124.1(5) . . ?
C14 C13 C12 122.0(4) . . ?
C14 C13 H13 119.0 . . ?
C14 C13 F1A 113.2(5) . . ?
C1 C2 S1 121.1(3) . . ?
C3 C2 S1 111.8(3) . . ?
C3 C2 C1 127.1(3) . . ?
N4 C30 C29 123.8(3) . . ?
N4 C30 H30 118.1 . . ?
C29 C30 H30 118.1 . . ?
N3 C20 S2 132.3(3) . . ?
N3 C20 C19 117.8(4) . . ?
C19 C20 S2 109.9(3) . . ?
C17 C14 H14 120.0 . . ?
C13 C14 C17 120.0(4) . . ?
C13 C14 H14 120.0 . . ?
loop_
_geom_bond_atom_site_label_1
_geom_bond_atom_site_label_2
_geom_bond_distance
_geom_bond_site_symmetry_2
_geom_bond_publ_flag
Zn1 O3 2.153(2) 5_766 ?
Zn1 O4 2.099(3) . ?
Zn1 O2 2.200(3) 7_566 ?
Zn1 O1 2.344(3) 7_566 ?
Zn1 N4 2.258(3) 1_655 ?
Zn1 N1 2.262(3) . ?
S1 C5 1.714(3) . ?
S1 C2 1.712(4) . ?
S2 C18 1.752(4) . ?
S2 C20 1.709(4) . ?
S3 C21 1.756(4) . ?
S3 C19 1.718(4) . ?
O3 C6 1.259(4) . ?
O4 C6 1.251(4) . ?
O2 C1 1.270(4) . ?
O1 C1 1.253(5) . ?
N4 C32 1.335(5) . ?
N4 C30 1.346(5) . ?
N2 C18 1.344(5) . ?
N2 C19 1.359(5) . ?
N1 C9 1.340(5) . ?
N1 C7 1.341(5) . ?
N3 C21 1.314(5) . ?
N3 C20 1.368(5) . ?
F1 C15 1.379(5) . ?
C6 C5 1.485(4) . ?
C25 H25 0.9500 . ?
C25 C22 1.393(5) . ?
C25 C26 1.384(5) . ?
C22 C21 1.480(5) . ?
C22 C23 1.383(5) . ?
C17 C18 1.469(5) . ?
C17 C16 1.382(5) . ?
C17 C14 1.401(5) . ?
C15 H15 0.9500 . ?
C15 C12 1.392(5) . ?
C15 C16 1.371(5) . ?
C31 H31 0.9500 . ?
C31 C32 1.387(5) . ?
C31 C28 1.398(5) . ?
C27 C28 1.485(5) . ?
C27 C26 1.394(5) . ?
C27 C24 1.392(5) . ?
C1 C2 1.479(5) . ?
C5 C4 1.365(5) . ?
C11 C12 1.481(5) . ?
C11 C10 1.396(5) . ?
C11 C8 1.400(5) . ?
C12 C13 1.398(5) . ?
C32 H32 0.9500 . ?
C28 C29 1.399(5) . ?
C9 H9 0.9500 . ?
C9 C10 1.378(5) . ?
C26 H26 0.9500 . ?
C26 F2A 1.359(5) . ?
C7 H7 0.9500 . ?
C7 C8 1.387(5) . ?
C4 H4 0.9500 . ?
C4 C3 1.402(5) . ?
C16 H16 0.9500 . ?
C3 H3 0.9500 . ?
C3 C2 1.382(5) . ?
C10 H10 0.9500 . ?
C8 H8 0.9500 . ?
C19 C20 1.379(6) . ?
C24 H24 0.9500 . ?
C24 C23 1.389(5) . ?
C24 F2 1.370(6) . ?
C23 H23 0.9500 . ?
C29 H29 0.9500 . ?
C29 C30 1.374(5) . ?
C13 H13 0.9500 . ?
C13 C14 1.387(5) . ?
C13 F1A 1.407(8) . ?
C30 H30 0.9500 . ?
C14 H14 0.9500 . ?
loop_
_geom_torsion_atom_site_label_1
_geom_torsion_atom_site_label_2
_geom_torsion_atom_site_label_3
_geom_torsion_atom_site_label_4
_geom_torsion
_geom_torsion_site_symmetry_1
_geom_torsion_site_symmetry_2
_geom_torsion_site_symmetry_3
_geom_torsion_site_symmetry_4
_geom_torsion_publ_flag
Zn1 O3 C6 O4 -4.0(4) 5_766 . . . ?
Zn1 O3 C6 C5 175.6(2) 5_766 . . . ?
Zn1 O4 C6 O3 -91.4(12) . . . . ?
Zn1 O4 C6 C5 89.0(12) . . . . ?
Zn1 O2 C1 O1 1.5(4) 7_565 . . . ?
Zn1 O2 C1 C2 -179.0(3) 7_565 . . . ?
Zn1 O1 C1 O2 -1.4(3) 7_565 . . . ?
Zn1 O1 C1 C2 179.1(3) 7_565 . . . ?
Zn1 N4 C32 C31 179.6(3) 1_455 . . . ?
Zn1 N4 C30 C29 179.4(3) 1_455 . . . ?
Zn1 N1 C9 C10 -178.2(3) . . . . ?
Zn1 N1 C7 C8 177.6(3) . . . . ?
S1 C5 C4 C3 0.5(4) . . . . ?
S3 C19 C20 S2 179.87(19) . . . . ?
S3 C19 C20 N3 -0.7(4) . . . . ?
O3 C6 C5 S1 -5.7(4) . . . . ?
O3 C6 C5 C4 176.0(3) . . . . ?
O4 C6 C5 S1 173.9(2) . . . . ?
O4 C6 C5 C4 -4.4(5) . . . . ?
O2 C1 C2 S1 174.9(3) . . . . ?
O2 C1 C2 C3 -5.3(6) . . . . ?
O1 C1 C2 S1 -5.5(5) . . . . ?
O1 C1 C2 C3 174.3(4) . . . . ?
N2 C19 C20 S2 -0.4(5) . . . . ?
N2 C19 C20 N3 179.0(3) . . . . ?
N1 C9 C10 C11 0.2(6) . . . . ?
N1 C7 C8 C11 0.8(6) . . . . ?
F1 C15 C12 C11 1.7(6) . . . . ?
F1 C15 C12 C13 -178.0(4) . . . . ?
F1 C15 C16 C17 179.3(4) . . . . ?
C6 C5 C4 C3 178.9(3) . . . . ?
C25 C22 C21 S3 -174.3(3) . . . . ?
C25 C22 C21 N3 5.6(5) . . . . ?
C25 C22 C23 C24 -0.1(6) . . . . ?
C22 C25 C26 C27 0.4(6) . . . . ?
C22 C25 C26 F2A -179.5(4) . . . . ?
C21 S3 C19 N2 -178.9(4) . . . . ?
C21 S3 C19 C20 0.8(3) . . . . ?
C21 N3 C20 S2 179.4(3) . . . . ?
C21 N3 C20 C19 0.2(5) . . . . ?
C21 C22 C23 C24 179.3(4) . . . . ?
C15 C12 C13 C14 -1.5(6) . . . . ?
C15 C12 C13 F1A -171.0(7) . . . . ?
C31 C28 C29 C30 -1.1(5) . . . . ?
C27 C28 C29 C30 178.8(3) . . . . ?
C27 C24 C23 C22 -0.2(6) . . . . ?
C5 S1 C2 C1 -179.4(3) . . . . ?
C5 S1 C2 C3 0.7(3) . . . . ?
C5 C4 C3 C2 0.1(5) . . . . ?
C11 C12 C13 C14 178.9(4) . . . . ?
C11 C12 C13 F1A 9.4(8) . . . . ?
C12 C15 C16 C17 0.4(6) . . . . ?
C12 C11 C10 C9 179.1(4) . . . . ?
C12 C11 C8 C7 -179.6(4) . . . . ?
C12 C13 C14 C17 0.8(6) . . . . ?
C32 N4 C30 C29 -1.1(5) . . . . ?
C32 C31 C28 C27 -179.7(3) . . . . ?
C32 C31 C28 C29 0.2(5) . . . . ?
C18 S2 C20 N3 -178.3(4) . . . . ?
C18 S2 C20 C19 1.0(3) . . . . ?
C18 N2 C19 S3 179.0(3) . . . . ?
C18 N2 C19 C20 -0.7(5) . . . . ?
C18 C17 C16 C15 178.0(3) . . . . ?
C18 C17 C14 C13 -178.5(4) . . . . ?
C28 C31 C32 N4 0.3(6) . . . . ?
C28 C27 C26 C25 179.7(3) . . . . ?
C28 C27 C26 F2A -0.3(6) . . . . ?
C28 C27 C24 C23 -179.8(4) . . . . ?
C28 C27 C24 F2 -4.9(7) . . . . ?
C28 C29 C30 N4 1.6(6) . . . . ?
C9 N1 C7 C8 0.3(6) . . . . ?
C26 C25 C22 C21 -179.4(3) . . . . ?
C26 C25 C22 C23 0.0(6) . . . . ?
C26 C27 C28 C31 -30.6(5) . . . . ?
C26 C27 C28 C29 149.5(4) . . . . ?
C26 C27 C24 C23 0.6(6) . . . . ?
C26 C27 C24 F2 175.5(5) . . . . ?
C7 N1 C9 C10 -0.8(6) . . . . ?
C4 C3 C2 S1 -0.6(4) . . . . ?
C4 C3 C2 C1 179.5(3) . . . . ?
C16 C17 C18 S2 -5.0(5) . . . . ?
C16 C17 C18 N2 178.0(3) . . . . ?
C16 C17 C14 C13 0.6(6) . . . . ?
C16 C15 C12 C11 -179.5(4) . . . . ?
C16 C15 C12 C13 0.9(6) . . . . ?
C10 C11 C12 C15 36.2(6) . . . . ?
C10 C11 C12 C13 -144.2(4) . . . . ?
C10 C11 C8 C7 -1.4(6) . . . . ?
C8 C11 C12 C15 -145.7(4) . . . . ?
C8 C11 C12 C13 33.9(6) . . . . ?
C8 C11 C10 C9 0.9(6) . . . . ?
C19 S3 C21 N3 -0.7(3) . . . . ?
C19 S3 C21 C22 179.1(3) . . . . ?
C19 N2 C18 S2 1.5(4) . . . . ?
C19 N2 C18 C17 178.6(3) . . . . ?
C24 C27 C28 C31 149.8(4) . . . . ?
C24 C27 C28 C29 -30.1(5) . . . . ?
C24 C27 C26 C25 -0.7(6) . . . . ?
C24 C27 C26 F2A 179.2(4) . . . . ?
C23 C22 C21 S3 6.3(5) . . . . ?
C23 C22 C21 N3 -173.9(4) . . . . ?
C2 S1 C5 C6 -179.2(3) . . . . ?
C2 S1 C5 C4 -0.7(3) . . . . ?
C30 N4 C32 C31 0.1(5) . . . . ?
C20 S2 C18 N2 -1.5(3) . . . . ?
C20 S2 C18 C17 -178.7(3) . . . . ?
C20 N3 C21 S3 0.4(4) . . . . ?
C20 N3 C21 C22 -179.4(3) . . . . ?
C14 C17 C18 S2 174.1(3) . . . . ?
C14 C17 C18 N2 -2.9(6) . . . . ?
C14 C17 C16 C15 -1.2(6) . . . . ?
F2 C24 C23 C22 -175.6(5) . . . . ?
F1A C13 C14 C17 171.3(6) . . . . ?
loop_
_exptl_oxdiff_crystal_face_indexfrac_h
_exptl_oxdiff_crystal_face_indexfrac_k
_exptl_oxdiff_crystal_face_indexfrac_l
_exptl_oxdiff_crystal_face_x
_exptl_oxdiff_crystal_face_y
_exptl_oxdiff_crystal_face_z
0.0002 0.9991 -0.0022 -0.0364 0.0703 0.0251
-0.0002 -0.9991 0.0022 0.0364 -0.0703 -0.0251
-1.9948 -3.0079 -4.9893 0.4328 0.0572 -0.3557
1.9948 3.0079 4.9893 -0.4328 -0.0572 0.3557
-5.0020 0.0032 0.9990 -0.2125 -0.0292 -0.2258
5.0020 -0.0032 -0.9990 0.2125 0.0292 0.2258
-5.0030 1.0045 1.9959 -0.3246 -0.0107 -0.1655
-2.0060 2.0096 4.9913 -0.5059 -0.1094 0.1218
16.0019 2.9962 0.9932 0.2530 0.0868 0.9457
8.0102 -4.0156 -7.9842 0.9699 0.0971 0.0355
loop_
_smtbx_masks_void_nr
_smtbx_masks_void_average_x
_smtbx_masks_void_average_y
_smtbx_masks_void_average_z
_smtbx_masks_void_volume
_smtbx_masks_void_count_electrons
_smtbx_masks_void_content
1 0.250 0.250 0.297 291.6 66.6 '2 DMF'
2 0.250 0.250 0.797 291.6 68.2 '2 DMF'
3 0.250 0.750 -0.703 573.5 131.8 '4 DMF'
4 0.750 0.750 0.703 291.6 68.3 '2 DMF'
5 0.750 0.750 0.203 291.6 66.6 '2 DMF'
6 0.750 0.250 -0.110 573.5 131.7 '4 DMF'
