#------------------------------------------------------------------------------
#$Date: 2021-07-16 11:25:34 +0300 (Fri, 16 Jul 2021) $
#$Revision: 267587 $
#$URL: file:///home/coder/svn-repositories/cod/cif/1/56/41/1564178.cif $
#------------------------------------------------------------------------------
#
# This file is available in the Crystallography Open Database (COD),
# http://www.crystallography.net/
#
# All data on this site have been placed in the public domain by the
# contributors.
#
data_1564178
loop_
_publ_author_name
'Wei, Wei'
'Zhang, Kai'
'Wang, Xue-Ting'
'Du, Shao-Wu'
_publ_section_title
;
 Construction of a highly stable lanthanide metal-organic framework for
 effective detection of aryl-organophosphorus flame retardants in
 simulated wastewater and fruit juices
;
_journal_name_full               'Inorganica Chimica Acta'
_journal_page_first              119840
_journal_paper_doi               10.1016/j.ica.2020.119840
_journal_volume                  511
_journal_year                    2020
_chemical_formula_moiety         'C14 H8 Eu2 N2 O10'
_chemical_formula_sum            'C14 H12 Eu2 N2 O12'
_chemical_formula_weight         704.18
_space_group_crystal_system      monoclinic
_space_group_IT_number           14
_space_group_name_Hall           '-P 2ybc'
_space_group_name_H-M_alt        'P 1 21/c 1'
_atom_sites_solution_hydrogens   geom
_cell_angle_alpha                90
_cell_angle_beta                 94.5780(10)
_cell_angle_gamma                90
_cell_formula_units_Z            4
_cell_length_a                   7.58520(10)
_cell_length_b                   15.4780(3)
_cell_length_c                   16.9013(3)
_cell_measurement_reflns_used    8606
_cell_measurement_temperature    100(2)
_cell_measurement_theta_max      27.50
_cell_measurement_theta_min      2.63
_cell_volume                     1977.94(6)
_computing_cell_refinement       'SAINT V8.38A (?, 2016)'
_computing_data_reduction        'SAINT V8.38A (?, 2016)'
_computing_molecular_graphics    'Olex2 (Dolomanov et al., 2009)'
_computing_publication_material  'Olex2 (Dolomanov et al., 2009)'
_computing_structure_refinement  'ShelXL (Sheldrick, 2015)'
_computing_structure_solution    'SHELXT 2014/5 (Sheldrick, 2014)'
_diffrn_ambient_temperature      100.05
_diffrn_measured_fraction_theta_full 0.992
_diffrn_measured_fraction_theta_max 0.993
_diffrn_measurement_device_type  'CCD area detector'
_diffrn_measurement_method       'phi and omega scans'
_diffrn_radiation_monochromator  graphite
_diffrn_radiation_type           MoK\a
_diffrn_radiation_wavelength     0.71073
_diffrn_reflns_av_R_equivalents  0.0367
_diffrn_reflns_av_unetI/netI     0.0322
_diffrn_reflns_Laue_measured_fraction_full 0.992
_diffrn_reflns_Laue_measured_fraction_max 0.993
_diffrn_reflns_limit_h_max       8
_diffrn_reflns_limit_h_min       -9
_diffrn_reflns_limit_k_max       20
_diffrn_reflns_limit_k_min       -17
_diffrn_reflns_limit_l_max       21
_diffrn_reflns_limit_l_min       -21
_diffrn_reflns_number            17302
_diffrn_reflns_point_group_measured_fraction_full 0.992
_diffrn_reflns_point_group_measured_fraction_max 0.993
_diffrn_reflns_theta_full        25.242
_diffrn_reflns_theta_max         27.503
_diffrn_reflns_theta_min         3.313
_exptl_absorpt_coefficient_mu    6.350
_exptl_absorpt_correction_T_max  0.2616
_exptl_absorpt_correction_T_min  0.2083
_exptl_absorpt_correction_type   multi-scan
_exptl_absorpt_process_details
;
SADABS-2016/2 (Bruker,2016/2) was used for absorption correction.
wR2(int) was 0.0860 before and 0.0482 after correction.
The Ratio of minimum to maximum transmission is 0.7963.
The \l/2 correction factor is Not present.
;
_exptl_crystal_colour            colourless
_exptl_crystal_density_diffrn    2.365
_exptl_crystal_density_meas      .
_exptl_crystal_description       needlelike
_exptl_crystal_F_000             1328
_exptl_crystal_size_max          0.18
_exptl_crystal_size_mid          0.03
_exptl_crystal_size_min          0.03
_refine_diff_density_max         0.778
_refine_diff_density_min         -0.780
_refine_diff_density_rms         0.133
_refine_ls_extinction_coef       .
_refine_ls_extinction_method     none
_refine_ls_goodness_of_fit_ref   1.094
_refine_ls_hydrogen_treatment    constr
_refine_ls_matrix_type           full
_refine_ls_number_parameters     253
_refine_ls_number_reflns         4510
_refine_ls_number_restraints     0
_refine_ls_restrained_S_all      1.094
_refine_ls_R_factor_all          0.0239
_refine_ls_R_factor_gt           0.0198
_refine_ls_shift/su_max          0.003
_refine_ls_shift/su_mean         0.000
_refine_ls_structure_factor_coef Fsqd
_refine_ls_weighting_details
'w=1/[\s^2^(Fo^2^)+(0.0111P)^2^+1.0182P] where P=(Fo^2^+2Fc^2^)/3'
_refine_ls_weighting_scheme      calc
_refine_ls_wR_factor_gt          0.0374
_refine_ls_wR_factor_ref         0.0421
_reflns_Friedel_coverage         0.000
_reflns_Friedel_fraction_full    .
_reflns_Friedel_fraction_max     .
_reflns_number_gt                4037
_reflns_number_total             4510
_reflns_threshold_expression     'I > 2\s(I)'
_cod_data_source_file            ICA-2020-511-119840.cif
_cod_data_source_block           compound2
_cod_depositor_comments
;
The following automatic conversions were performed:

data item '_exptl_absorpt_correction_type' value 'Multi-scan' was
changed to 'multi-scan' in accordance with the built-in table derived
from the CIF Core dictionary named 'cif_core.dic' version 2.4.5 last
updated on 2014-11-21.

Automatic conversion script
Id: cif_fix_values 8369 2020-08-20 11:38:08Z andrius 
;
_cod_database_code               1564178
_shelx_space_group_comment
;
The symmetry employed for this shelxl refinement is uniquely defined
by the following loop, which should always be used as a source of
symmetry information in preference to the above space-group names.
They are only intended as comments.
;
_olex2_refinement_description
;
1. Fixed Uiso
 At 1.2 times of:
  All C(H) groups, All O(H) groups
2.a Ternary CH refined with riding coordinates:
 O1(H1), O2(H2)
2.b Aromatic/amide H refined with riding coordinates:
 C2(H2A), C4(H4), C5(H5), C9(H9), C11(H11), C12(H12)
;
_shelx_res_file
;
TITL du in P2(1)/c
    du_sq.res
    created by SHELXL-2017/1 at 20:47:05 on 03-Jun-2020
CELL 0.71073 7.5852 15.478 16.9013 90 94.578 90
ZERR 4 0.0001 0.0003 0.0003 0 0.001 0
LATT 1
SYMM -X,0.5+Y,0.5-Z
SFAC C H N O Eu
UNIT 56 48 8 48 8

L.S. 5 0 28
PLAN  5
TEMP -173.1
BOND $H
ABIN
fmap 2
acta
OMIT 0 1 3
OMIT -1 2 1
OMIT -1 3 2
OMIT 1 1 0
OMIT 0 2 4
OMIT 0 0 4
OMIT 1 3 0
OMIT 0 3 1
OMIT -1 0 2
OMIT -1 4 1
OMIT -1 1 2
OMIT 1 3 1
OMIT 1 0 0
OMIT -1 1 1
OMIT 1 1 2
OMIT -2 1 1
OMIT 0 2 2
OMIT 0 4 0
OMIT 0 3 2
OMIT 0 4 1
OMIT 1 2 3
OMIT 0 4 2
OMIT -2 1 2
REM <olex2.extras>
REM <HklSrc "%.\\du_sq.hkl">
REM </olex2.extras>

WGHT    0.011100    1.018200
FVAR       0.24383
EU1   5   -0.866062    0.948908    0.592193    11.00000    0.00591    0.00806 =
         0.00672    0.00050    0.00021    0.00003
EU2   5   -0.625961    1.102702    0.460603    11.00000    0.00587    0.00785 =
         0.00678    0.00019    0.00051    0.00009
N1    3   -0.880729    1.056338    0.706320    11.00000    0.00980    0.01736 =
         0.01886   -0.00609   -0.00017    0.00082
N2    3   -0.569938    1.215755    0.569622    11.00000    0.01127    0.01456 =
         0.01431   -0.00232   -0.00264    0.00220
O1    4   -0.578662    1.009167    0.572139    11.00000    0.00975    0.00663 =
         0.00896   -0.00108   -0.00206   -0.00167
AFIX  13
H1    2   -0.531103    1.042088    0.620093    11.00000   -1.20000
AFIX   0
O2    4   -0.907033    1.076867    0.513581    11.00000    0.00993    0.00882 =
         0.00762   -0.00157   -0.00103    0.00000
AFIX  13
H2    2   -0.940007    1.126667    0.547087    11.00000   -1.20000
AFIX   0
O3    4   -1.164258    0.987403    0.626777    11.00000    0.00762    0.02104 =
         0.01236   -0.00678    0.00213   -0.00144
O4    4   -1.347928    1.068031    0.694091    11.00000    0.00963    0.03083 =
         0.01921   -0.01190    0.00229    0.00008
O5    4   -0.950636    0.806995    0.629231    11.00000    0.02831    0.01936 =
         0.02489    0.00729   -0.01031   -0.01004
O6    4   -0.785734    1.231545    0.428283    11.00000    0.01431    0.01899 =
         0.01525    0.00523   -0.00137    0.00429
O7    4   -0.314734    1.139802    0.494700    11.00000    0.00833    0.01806 =
         0.01432   -0.00726    0.00334   -0.00144
O8    4   -0.105208    1.206506    0.573563    11.00000    0.00893    0.02598 =
         0.02701   -0.01522    0.00158   -0.00044
O9    4   -0.691935    0.901350    0.707863    11.00000    0.01222    0.02225 =
         0.01324    0.00731    0.00187    0.00100
O10   4   -0.567288    1.142625    0.331224    11.00000    0.02387    0.02719 =
         0.01499    0.00968    0.01384    0.00914
C1    1   -1.038921    1.085589    0.725221    11.00000    0.01389    0.01191 =
         0.01509    0.00114   -0.00416   -0.00028
C2    1   -1.059796    1.149221    0.780996    11.00000    0.01497    0.01516 =
         0.01683   -0.00173    0.00017    0.00011
AFIX  43
H2A   2   -1.174358    1.169293    0.790851    11.00000   -1.20000
AFIX   0
C3    1   -0.910825    1.316812    0.322244    11.00000    0.01507    0.01819 =
         0.01410    0.00282    0.00639   -0.00068
C4    1   -0.747322    1.149646    0.807768    11.00000    0.01351    0.02739 =
         0.02404   -0.00928   -0.00050   -0.00193
AFIX  43
H4    2   -0.643062    1.169256    0.837222    11.00000   -1.20000
AFIX   0
C5    1   -0.738075    1.087193    0.749810    11.00000    0.00995    0.02717 =
         0.02413   -0.00863    0.00671   -0.00165
AFIX  43
H5    2   -0.625120    1.064864    0.740152    11.00000   -1.20000
AFIX   0
C6    1   -1.198649    1.043913    0.679302    11.00000    0.01075    0.01846 =
         0.01433   -0.00437   -0.00183    0.00110
C7    1   -0.917922    1.241136    0.379560    11.00000    0.01440    0.01409 =
         0.01313    0.00165    0.00457    0.00034
C8    1   -0.402627    1.233445    0.596368    11.00000    0.01177    0.01440 =
         0.01422   -0.00170    0.00218   -0.00069
C9    1   -0.358024    1.285398    0.661448    11.00000    0.01346    0.01503 =
         0.01867   -0.00285   -0.00545   -0.00377
AFIX  43
H9    2   -0.237900    1.298756    0.676792    11.00000   -1.20000
AFIX   0
C10   1   -0.505429    0.817926    0.795704    11.00000    0.01481    0.01639 =
         0.01097    0.00395    0.00190    0.00048
C11   1   -0.666791    1.302408    0.674686    11.00000    0.01531    0.02147 =
         0.02628   -0.01146    0.00008   -0.00033
AFIX  43
H11   2   -0.762272    1.326015    0.700720    11.00000   -1.20000
AFIX   0
C12   1   -0.700156    1.252988    0.607784    11.00000    0.01274    0.02362 =
         0.02145   -0.00828   -0.00164   -0.00056
AFIX  43
H12   2   -0.819380    1.244625    0.587514    11.00000   -1.20000
AFIX   0
C13   1   -0.259742    1.191709    0.550980    11.00000    0.01136    0.01628 =
         0.01598   -0.00580    0.00138   -0.00039
C14   1   -0.546063    0.863660    0.718183    11.00000    0.01693    0.01136 =
         0.01181    0.00361   -0.00170   -0.00401
HKLF 4




REM  du in P2(1)/c
REM R1 =  0.0198 for    4037 Fo > 4sig(Fo)  and  0.0239 for all    4510 data
REM    253 parameters refined using      0 restraints

END

WGHT      0.0109      1.0475

REM Highest difference peak  0.778,  deepest hole -0.780,  1-sigma level  0.133
Q1    1  -1.0806  0.8425  0.6066  11.00000  0.05    0.78
Q2    1  -0.8365  0.9055  0.5579  11.00000  0.05    0.58
Q3    1  -1.1696  1.0857  0.5725  11.00000  0.05    0.56
Q4    1  -0.9382  1.0538  0.7217  11.00000  0.05    0.54
Q5    1  -0.6895  1.0558  0.2801  11.00000  0.05    0.53
;
_shelx_res_checksum              55354
_shelx_hkl_file
;
  -1   0   0    9.30    2.40
  -1   0   0   11.90    3.20
  -2   0   0  111.59    9.20
   2   0   0  121.89    9.80
  -2   0   0  183.18   16.10
  -3   0   0   31.70    8.80
   3   0   0   12.80    5.10
  -3   0   0   10.70    4.80
   4   0   0 9999.00  179.18
  -4   0   0 9566.74  182.98
  -4   0   0 9523.85  172.98
  -5   0   0    8.20    6.60
   5   0   0   -0.40    3.10
  -5   0   0    5.50    4.50
   6   0   0   23.50   10.10
  -6   0   0   13.00    9.10
  -6   0   0   29.30   10.00
  -7   0   0   31.80   13.50
  -7   0   0   23.60    9.40
   7   0   0   11.70    9.90
   8   0   0 2339.87   90.29
  -8   0   0 2304.17   78.19
  -8   0   0 2339.17   96.69
  -9   0   0   53.09   19.80
  -9   0   0   56.39   16.20
   1   1   0   60.99    4.70
  -2  -1   0 1873.21   46.30
   2  -1   0 1920.11   45.40
  -2  -1   0 1918.41   42.50
  -2   1   0 1931.31   47.00
   2   1   0 1940.61   43.70
  -2   1   0 1804.02   44.00
  -3  -1   0   49.00    9.30
  -3  -1   0   45.00    7.80
   3  -1   0   53.79   10.20
   3   1   0   63.69   10.80
  -3   1   0   55.79   10.70
  -3   1   0   46.30    9.10
  -4  -1   0   76.29   10.90
   4  -1   0   71.29   13.10
  -4  -1   0   83.19   15.00
   4   1   0   74.79   13.00
  -4   1   0   63.39   11.00
  -4   1   0   69.39   12.30
   5  -1   0   -2.00    3.60
  -5  -1   0    5.30    5.80
  -5  -1   0    5.40    6.50
  -5   1   0   15.40    6.80
  -5   1   0    2.70    5.10
   5   1   0    3.50    4.80
  -6  -1   0  837.72   47.40
  -6  -1   0  829.32   39.20
   6  -1   0  805.22   43.60
  -6   1   0  821.32   40.50
   6   1   0  890.21   44.70
  -6   1   0  928.21   49.99
   7  -1   0  143.19   21.50
  -7  -1   0  177.68   19.60
  -7  -1   0  234.58   34.50
   7   1   0  180.18   26.50
  -7   1   0  194.28   21.20
  -7   1   0  190.08   31.00
   8  -1   0   34.90   12.50
  -8  -1   0   42.70   15.30
  -8  -1   0   42.20   11.70
   8   1   0   36.20   15.40
  -8   1   0   48.00   12.40
  -8   1   0   48.60   17.60
  -9  -1   0   14.50    9.10
  -9  -1   0    0.60    6.90
  -9   1   0  -13.60    5.10
  -9   1   0    3.40   10.80
  -1  -2   0  640.14   17.60
  -1  -2   0  650.33   20.30
  -1   2   0  641.54   20.70
   1   2   0  649.74   18.10
  -2  -2   0   72.99    7.60
  -2  -2   0   89.09   12.00
   2  -2   0   53.99    8.60
  -2   2   0   68.19    9.50
   2   2   0   79.19    8.20
  -2   2   0  103.79   10.00
  -3  -2   0  881.01   34.70
  -3  -2   0  904.81   30.10
  -3   2   0  839.02   32.10
   3   2   0  877.51   31.30
  -3   2   0  868.21   34.70
  -4  -2   0 2688.03   66.49
  -4  -2   0 2774.82   76.69
   4  -2   0 2808.22   74.89
  -4   2   0 2805.72   77.29
  -4   2   0 2729.23   71.69
   4   2   0 2722.73   70.39
   5  -2   0   16.50    8.30
  -5  -2   0    9.10    6.70
  -5   2   0   11.30    8.70
  -5   2   0    9.90    6.60
   5   2   0   18.70    8.30
  -6  -2   0  293.07   28.20
  -6  -2   0  272.47   22.00
   6  -2   0  307.57   27.30
  -6   2   0  262.67   23.20
  -6   2   0  283.57   27.70
   6   2   0  240.38   23.50
  -7  -2   0  498.05   39.20
  -7  -2   0  495.75   31.30
   7  -2   0  544.45   39.00
  -7   2   0  485.05   33.60
   7   2   0  458.75   34.80
  -7   2   0  455.15   38.10
   8  -2   0  868.41   54.19
  -8  -2   0  796.32   42.40
  -8  -2   0  794.82   54.59
  -8   2   0  856.81   56.49
   8   2   0  820.62   50.29
  -8   2   0  824.42   45.90
  -9  -2   0   -3.10    5.20
  -9  -2   0   -0.20    7.70
  -9   2   0    7.10    7.10
  -9   2   0   -6.00    4.70
   0   3   0   -0.40    1.90
   0   3   0    1.30    2.50
   1  -3   0  114.29    9.70
  -1  -3   0  117.69    8.40
  -1   3   0  112.19    9.90
   1   3   0  123.19    8.80
  -2  -3   0 5959.40  111.39
   2  -3   0 5737.63  110.59
  -2  -3   0 5919.51  102.69
  -2   3   0 5933.61  112.19
  -2   3   0 5786.82  110.59
   2   3   0 5997.20  104.79
  -3  -3   0  440.96   20.40
   3  -3   0  433.96   24.10
  -3  -3   0  409.36   23.70
  -3   3   0  433.76   24.50
   3   3   0  427.36   21.50
  -3   3   0  399.76   22.80
  -4  -3   0   16.10    7.30
  -4  -3   0   27.40    7.10
   4  -3   0   11.40    6.60
  -4   3   0   17.60    6.20
  -4   3   0   10.50    6.40
   4   3   0   17.00    6.00
   5  -3   0    7.00    5.70
  -5  -3   0   22.20    9.10
  -5   3   0    1.30    5.20
   5   3   0   13.50    7.10
  -5   3   0   12.80    6.30
   6  -3   0 3289.87   99.09
  -6  -3   0 3270.87  101.89
  -6  -3   0 3432.96   86.69
   6   3   0 3070.99   92.09
  -6   3   0 3393.56  104.09
  -6   3   0 3406.26   93.99
  -7  -3   0  527.55   31.90
   7  -3   0  509.85   38.10
  -7  -3   0  470.55   38.70
  -7   3   0  508.05   34.90
   7   3   0  503.45   36.30
  -7   3   0  512.95   40.40
  -8  -3   0   84.89   15.90
  -8  -3   0  112.89   27.10
  -8   3   0   59.59   18.90
   8   3   0  112.69   23.50
  -8   3   0   81.29   18.80
  -9  -3   0   11.50   10.70
  -9  -3   0   -0.30    5.20
  -9   3   0   -4.30    8.10
  -9   3   0   14.70   11.90
   0   4   0  446.06   18.10
   0   4   0  425.06   20.70
  -1  -4   0 1922.81   43.80
   1  -4   0 2021.90   50.19
  -1   4   0 2012.40   50.59
   1   4   0 2066.59   45.50
  -2  -4   0   11.20    6.20
   2  -4   0   11.90    5.50
  -2  -4   0   12.10    4.60
   2   4   0   13.50    4.80
  -2   4   0   16.80    6.80
   3  -4   0 2714.13   71.79
  -3  -4   0 2863.71   82.99
  -3  -4   0 2747.82   62.29
  -3   4   0 2727.03   72.69
   3   4   0 2719.53   65.19
  -3   4   0 2797.02   71.59
  -4  -4   0  201.98   15.70
   4  -4   0  182.68   18.30
  -4  -4   0  206.28   19.90
  -4   4   0  216.38   23.70
   4   4   0  230.18   18.40
  -4   4   0  197.88   19.50
   5  -4   0  311.87   25.90
  -5  -4   0  319.27   27.10
  -5   4   0  336.97   28.00
  -5   4   0  312.67   24.90
   5   4   0  275.97   22.40
   6  -4   0    4.00    8.50
  -6  -4   0    3.40    7.10
  -6  -4   0    3.40    5.30
  -6   4   0   -1.10    4.30
   6   4   0   -4.90    4.50
  -6   4   0    1.60    5.20
  -7  -4   0  778.52   50.19
  -7  -4   0  807.12   38.90
   7  -4   0  706.03   65.69
  -7   4   0  760.02   43.90
   7   4   0  747.93   44.20
  -7   4   0  705.23   48.40
  -8  -4   0  291.37   34.00
  -8  -4   0  261.97   23.40
  -8   4   0  287.67   28.90
   8   4   0  286.37   30.60
  -8   4   0  269.87   40.60
  -9  -4   0  330.67   47.70
  -9  -4   0  274.57   25.70
  -9   4   0  257.97   41.40
  -9   4   0  262.57   28.10
   0   5   0    7.60    5.10
   1  -5   0  919.41   33.80
  -1  -5   0  951.90   29.50
   1   5   0  972.30   32.80
  -1   5   0  941.61   34.70
   2  -5   0 1076.59   38.60
  -2  -5   0  989.10   31.60
   2   5   0 1041.40   33.60
  -3  -5   0  695.93   33.90
   3  -5   0  644.04   32.60
  -3  -5   0  748.63   28.30
  -3   5   0  705.93   34.70
   3   5   0  754.82   30.60
  -3   5   0  756.62   34.80
  -4  -5   0  253.47   17.70
  -4  -5   0  261.67   22.80
  -4   5   0  221.88   20.20
   4   5   0  263.47   19.80
  -4   5   0  232.68   21.80
   5  -5   0 1583.54   61.79
  -5  -5   0 1481.75   49.00
  -5  -5   0 1525.85   61.99
   5   5   0 1493.15   54.69
  -5   5   0 1396.56   60.59
  -5   5   0 1481.55   57.69
   6  -5   0  402.76   32.80
  -6  -5   0  526.75   38.60
  -6  -5   0  486.15   28.40
  -6   5   0  528.45   38.90
  -6   5   0  591.74   37.10
   6   5   0  501.05   33.40
  -7  -5   0  257.27   21.90
  -7  -5   0  235.08   35.90
  -7   5   0  257.07   29.80
  -7   5   0  242.78   25.40
   7   5   0  232.58   25.20
  -8  -5   0  164.58   18.50
  -8  -5   0  173.78   33.40
   8   5   0  185.58   37.00
  -8   5   0  154.48   25.70
  -8   5   0   98.29   22.40
  -9  -5   0  805.82   59.99
  -9  -5   0  811.32   42.30
  -9   5   0  740.83   48.60
  -9   5   0  852.61   61.79
   0   6   0 3212.68   79.59
   0   6   0 3454.25   73.79
   1  -6   0   47.80    9.50
  -1  -6   0   42.70    7.60
   1   6   0   40.40    7.20
  -1   6   0   25.40    7.70
  -2  -6   0  133.79   11.90
   2  -6   0  137.69   14.50
  -2   6   0  127.19   14.50
   2   6   0  147.69   12.90
  -3  -6   0  428.96   22.00
  -3  -6   0  430.76   27.40
   3  -6   0  465.35   28.10
   3   6   0  438.76   24.00
  -3   6   0  475.65   29.30
  -3   6   0  457.75   29.60
  -4  -6   0 2241.18   59.69
   4  -6   0 2316.37   73.69
  -4  -6   0 2132.39   72.19
   4   6   0 2277.07   65.69
  -4   6   0 2292.97   72.19
  -4   6   0 2302.87   74.79
  -5  -6   0   77.79   17.30
  -5  -6   0  102.09   14.90
   5  -6   0   70.69   16.60
  -5   6   0   74.69   15.20
   5   6   0   92.19   16.70
  -5   6   0   75.59   16.70
  -6  -6   0   14.80    8.50
  -6  -6   0   18.70    7.50
  -6   6   0   37.80   13.90
   6   6   0    2.10    5.80
  -6   6   0   19.70    9.40
  -7  -6   0   78.99   23.40
  -7  -6   0  122.19   18.30
   7   6   0  102.29   20.30
  -7   6   0   68.29   22.10
  -7   6   0   99.69   19.90
  -8  -6   0  921.51   43.40
  -8  -6   0  932.31   60.89
  -8   6   0  876.41   59.69
  -8   6   0  851.61   50.89
  -9  -6   0   44.70   12.40
  -9  -6   0   41.10   16.80
  -9   6   0   42.40   14.60
  -9   6   0   61.19   22.00
   0   7   0   14.50    7.10
   1  -7   0 3559.44   88.89
  -1   7   0 3607.34   89.49
   1   7   0 3650.03   80.29
   2  -7   0   -0.40    3.30
  -2  -7   0    3.50    4.10
   2   7   0    0.40    3.20
  -2   7   0    6.00    4.70
   3  -7   0 1767.12   60.79
  -3  -7   0 1803.32   51.09
  -3   7   0 1784.72   61.69
   3   7   0 1660.23   52.79
  -4  -7   0   36.20    8.70
   4  -7   0   29.20   10.40
  -4  -7   0   23.30   10.50
   4   7   0   16.90    7.30
  -4   7   0   29.10   10.10
  -4   7   0   13.70    7.90
  -5  -7   0 1882.51   57.39
  -5  -7   0 1847.22   72.49
   5  -7   0 1830.32   70.59
  -5   7   0 1945.01   71.19
   5   7   0 1822.22   63.89
  -6  -7   0  130.99   25.20
  -6  -7   0  146.99   16.00
  -6   7   0   93.49   19.60
   6   7   0  113.19   20.20
  -6   7   0   95.79   17.90
  -7  -7   0  865.61   55.39
  -7  -7   0  836.12   39.00
   7   7   0  884.41   51.29
  -7   7   0  800.22   48.10
  -7   7   0  869.11   56.09
  -8  -7   0   20.50   12.00
  -8  -7   0   20.80    8.90
  -8   7   0   48.50   14.10
  -8   7   0   27.70   15.20
  -9  -7   0 1251.37   51.89
  -9  -7   0 1229.38   76.19
  -9   7   0 1158.78   62.69
  -9   7   0 1243.38   76.49
   0   8   0  501.65   30.20
   0   8   0  520.85   27.00
   1  -8   0 2761.12   78.99
  -1   8   0 2684.23   78.09
   1   8   0 2715.83   78.09
   1   8   0 2781.82   69.99
   2  -8   0    4.00    5.20
  -2  -8   0    0.20    3.50
   2   8   0   -4.70    2.70
  -2   8   0   -3.20    2.70
  -3  -8   0 1370.56   45.20
   3  -8   0 1379.66   54.89
   3   8   0 1451.05   49.90
  -3   8   0 1494.35   58.49
  -4  -8   0  227.88   25.00
   4  -8   0  255.67   24.40
  -4   8   0  277.47   26.00
  -4   8   0  239.08   25.20
   4   8   0  287.17   22.90
   5  -8   0 1001.20   51.79
  -5  -8   0 1006.10   53.09
  -5  -8   0 1023.80   40.60
  -5   8   0  971.60   52.89
  -5   8   0  988.80   50.99
   5   8   0  924.01   45.20
  -6  -8   0   87.59   19.80
  -6  -8   0   82.99   14.30
  -6   8   0  101.09   20.50
  -6   8   0   85.59   20.90
   6   8   0   75.69   17.10
  -7  -8   0  501.45   43.10
  -7  -8   0  586.44   32.40
  -7   8   0  524.25   44.00
   7   8   0  557.64   39.80
  -7   8   0  595.04   42.70
  -8  -8   0  209.88   20.70
  -8  -8   0  149.49   28.10
  -8   8   0  192.28   27.50
  -8   8   0  146.29   27.00
  -9  -8   0  212.38   21.10
  -9   8   0  153.68   25.80
   0   9   0   -1.50    3.80
   0   9   0   -0.50    4.20
   1  -9   0  207.48   21.10
  -1   9   0  215.28   21.50
   1   9   0  201.28   17.70
   1   9   0  223.18   21.80
   2  -9   0   80.29   16.80
   2   9   0   97.89   15.70
  -2   9   0  112.09   19.70
   3  -9   0  302.17   25.90
  -3  -9   0  315.87   23.50
   3   9   0  286.47   22.30
  -3   9   0  228.28   24.20
  -4  -9   0   -2.30    4.40
   4  -9   0   -2.00    3.90
  -4   9   0    0.50    6.00
   4   9   0   11.30    6.30
  -4   9   0    1.60    5.60
  -5  -9   0  443.06   27.20
  -5   9   0  524.75   38.40
  -5   9   0  391.06   35.10
   5   9   0  419.06   31.00
  -6  -9   0   33.70    9.60
  -6   9   0   42.60   15.40
  -6   9   0   15.00   10.70
   6   9   0   42.20   12.90
  -7  -9   0  116.79   26.10
  -7  -9   0  119.19   18.20
   7   9   0  114.69   23.20
  -7   9   0  130.09   25.00
  -7   9   0  112.19   25.00
  -8  -9   0   14.20   12.60
  -8  -9   0    5.40    6.70
  -8   9   0   14.10   11.30
  -8   9   0   -4.50    8.60
   0  10   0   -3.40    3.60
   0  10   0    0.40    3.80
   1 -10   0 2807.82   87.39
   1  10   0 2793.42   87.09
   1  10   0 2726.03   77.49
  -1  10   0 2839.02   87.49
  -1  10   0 2871.31   80.19
   2 -10   0   44.90   13.30
  -2  10   0   36.80   12.60
   2  10   0   30.90    8.70
  -3 -10   0 3459.05   84.89
   3 -10   0 3275.97   98.59
   3  10   0 3175.98   88.99
  -3  10   0 3557.54  104.69
   4 -10   0   -7.80    4.40
  -4 -10   0    0.10    4.70
  -4  10   0    9.50    8.80
  -4  10   0    2.60    7.20
   4  10   0   -4.10    5.90
  -5 -10   0 1426.66   50.59
  -5  10   0 1268.77   62.59
   5  10   0 1255.87   56.39
  -5  10   0 1298.47   66.09
  -6 -10   0   59.39   12.60
  -6  10   0   59.79   15.80
   6  10   0   71.99   28.40
  -7 -10   0 1817.32   61.49
  -7  10   0 1754.82   87.19
  -7  10   0 1866.31   82.39
  -8 -10   0   12.30    7.80
  -8  10   0    4.00   10.30
  -8  10   0   -6.80    7.60
   0  11   0    0.60    3.90
   0  11   0   -3.10    4.00
   1  11   0  603.64   33.60
  -1  11   0  554.14   37.60
  -1  11   0  561.54   34.00
   1  11   0  610.34   39.10
   2 -11   0  430.66   33.30
  -2  11   0  368.96   31.60
   2  11   0  439.76   29.20
   3 -11   0  686.43   42.90
   3  11   0  709.33   38.70
  -3  11   0  738.93   45.80
   4 -11   0   72.89   16.60
  -4 -11   0   81.99   15.10
  -4  11   0   60.09   17.60
   4  11   0   79.19   17.40
  -4  11   0   84.49   19.40
  -5 -11   0 1010.50   42.90
  -5  11   0  876.21   55.79
  -5  11   0  874.11   54.09
   5  11   0  936.31   49.99
   6 -11   0  163.88   36.90
  -6 -11   0  229.18   20.80
   6  11   0  217.38   25.00
  -6  11   0  195.88   32.80
  -6  11   0  172.18   26.60
  -7 -11   0  137.39   19.30
  -7  11   0  120.49   27.50
  -7  11   0  134.49   27.20
  -8 -11   0   26.50   10.10
  -8  11   0   30.70   18.40
  -8  11   0   43.00   17.70
   0  12   0  387.36   28.70
   0  12   0  393.66   32.20
  -1  12   0  323.37   29.70
   1  12   0  311.47   25.60
  -1  12   0  261.27   24.30
   1  12   0  272.57   27.70
   2 -12   0    9.20    8.60
  -2  12   0    2.80    6.80
   2  12   0    3.90    6.60
  -2  12   0   18.60    8.00
   2  12   0    1.70    6.90
   3 -12   0  644.84   42.80
  -3  12   0  517.75   40.10
   3  12   0  539.45   34.80
  -4  12   0  462.55   38.90
   4  12   0  489.85   34.60
   5 -12   0  113.09   22.10
  -5 -12   0  128.49   19.00
  -5  12   0  124.69   28.00
  -5  12   0  110.09   22.00
   5  12   0  168.28   35.70
  -6 -12   0   82.39   15.00
  -6  12   0   59.39   18.00
   6  12   0   56.09   15.50
  -6  12   0   74.19   20.40
  -7 -12   0  366.96   26.80
  -7  12   0  389.96   39.00
  -7  12   0  348.07   40.10
   0  13   0    2.40    5.30
   0  13   0    0.40    5.50
  -1  13   0 2369.36   87.29
   1  13   0 2182.88   74.79
   1  13   0 2237.18   84.19
  -1  13   0 2254.57   77.79
   2 -13   0    8.60    6.10
  -2  13   0    5.10    8.70
   2  13   0   -4.10    5.10
   2  13   0    1.60    6.80
  -2  13   0   -1.20    5.70
   3 -13   0 1248.48   63.49
  -3  13   0 1179.78   63.29
   3  13   0 1213.18   55.79
   4  13   0    9.90    8.10
  -4  13   0    5.70    7.90
   5 -13   0 1720.33   79.09
  -5  13   0 1532.95   92.59
   5  13   0 1561.64   69.29
  -5  13   0 1556.74   80.59
  -6  13   0    0.70    7.80
  -6  13   0    4.20    7.60
  -7  13   0  415.46   44.40
  -7  13   0  470.05   45.30
   0  14   0  680.73   41.90
   0  14   0  740.63   47.40
   1  14   0  163.18   23.90
  -1  14   0  170.08   28.30
   1  14   0  138.59   22.30
   2 -14   0   33.80   13.90
  -2  14   0   11.70    8.40
   2  14   0   22.20   10.40
   2  14   0   33.40   12.30
   3  14   0  211.68   29.30
   3  14   0  154.38   25.80
  -3  14   0  113.09   23.00
   4 -14   0  724.93   51.09
  -4  14   0  724.33   52.59
   4  14   0  704.03   45.60
  -5  14   0  162.78   36.70
  -5  14   0  144.39   30.30
  -6  14   0   34.30   14.50
  -6  14   0   39.20   18.10
  -7  14   0  174.98   32.60
  -7  14   0  151.18   33.00
   0  15   0    5.90   10.90
   0  15   0  -12.70    5.40
  -1  15   0  327.37   29.50
   1  15   0  250.57   36.30
  -1  15   0  333.07   33.60
   1  15   0  367.16   34.50
  -2  15   0 1179.68   66.09
   2  15   0 1231.88   65.39
   2  15   0 1205.78   59.99
  -3  15   0   56.49   18.60
   3  15   0   97.89   20.60
   3  15   0   62.69   21.00
  -4  15   0  304.67   35.80
   4  15   0  257.27   30.40
  -5  15   0  203.78   33.70
  -5  15   0   98.79   24.50
  -6  15   0  762.82   61.29
  -6  15   0  813.32   59.89
   0  16   0   11.70   11.10
   0  16   0   15.80    7.90
   1  16   0  492.55   38.10
  -1  16   0  419.76   34.80
  -1  16   0  439.86   39.30
   1  16   0  453.55   39.00
   2  16   0   -5.20    5.90
  -2  16   0    5.30    6.50
   2  16   0    9.80    9.40
   3 -16   0  464.05   42.10
  -3  16   0  374.36   38.40
   3  16   0  434.86   40.90
   4  16   0    7.80    9.40
  -4  16   0   30.50   15.20
  -5  16   0  369.96   42.00
  -5  16   0  387.56   41.60
   0  17   0   -9.40    9.10
   1  17   0   -9.70    6.70
  -1  17   0   -3.10    7.40
  -2  17   0 2214.68   96.99
  -3  17   0   21.20   11.40
   3  17   0   32.40   14.00
  -4  17   0   12.10   12.60
   4  17   0  -11.70   10.30
  -5  17   0   15.10   12.10
  -5  17   0   16.10    8.90
   0  18   0  941.31   61.29
  -1  18   0   10.70    9.90
   1  18   0    3.80    5.30
  -2  18   0    0.60    8.00
   2  18   0    5.10    8.50
   3  18   0  113.19   24.50
  -3  18   0   77.29   21.80
  -4  18   0 1215.98   77.79
   4  18   0 1291.87   76.99
   0  19   0    6.50    8.60
   1  19   0    3.50    6.90
  -1  19   0    6.60    8.90
  -2  19   0  215.28   37.30
   2  19   0  278.67   43.80
  -3  19   0   -4.10   10.20
   3  19   0   21.60   13.30
   0  20   0 2397.06  106.09
   1  20   0   15.90   12.80
  -1  20   0  -17.30    7.80
  -9   0   1   -2.20    5.20
  -9   0   1    3.00    7.20
  -8   0   1    9.60    9.20
  -8   0   1   12.00    7.40
   8   0  -1   21.00    9.80
  -7   0   1    1.10    6.20
  -7   0   1   -0.90    4.40
   7   0  -1    1.90    6.30
  -6   0   1   -3.70    3.00
  -6   0   1    3.90    9.80
   6   0  -1   -6.10    3.80
  -5   0   1   -3.60    3.80
  -5   0   1    0.10    4.20
   5   0  -1   -4.40    3.40
  -4   0   1   -4.30    4.10
  -4   0   1   -1.50    3.00
   4   0  -1    1.20    3.70
   3   0  -1   -2.90    2.30
  -3   0   1    3.20    3.90
  -3   0   1   -0.20    3.80
  -2   0   1    3.30    3.30
   2   0  -1    3.70    3.10
  -2   0   1    6.00    4.60
  -1   0   1    1.30    1.70
   1   0  -1    0.00    1.10
   1   0   1   -0.40    0.90
  -1   0  -1   -0.30    1.10
  -1   0  -1    2.60    2.00
  -2   0  -1   -0.50    2.30
   2   0   1    0.40    2.40
  -2   0  -1    0.80    2.80
   3   0   1    7.30    4.10
  -3   0  -1    2.30    3.30
  -3   0  -1    2.10    3.80
   4   0   1   -2.20    2.60
  -4   0  -1   -6.90    2.30
  -4   0  -1   -0.10    3.30
  -5   0  -1    1.00    4.20
   5   0   1   -7.00    4.30
  -5   0  -1   -8.30    3.10
  -6   0  -1    2.10    4.90
   6   0   1    2.40    5.90
  -6   0  -1   -2.70    5.80
   7   0   1    7.90    5.90
  -7   0  -1   -2.00    4.70
  -7   0  -1   -1.10    6.10
   8   0   1    0.50    7.80
  -8   0  -1   -0.50    4.90
  -8   0  -1  -10.10    6.60
  -9   0  -1    4.40    7.40
  -9   0  -1   -1.20    7.90
  -9  -1   1   13.60   12.50
  -9  -1   1   -6.10    6.90
  -9   1   1    2.80    6.50
  -9   1   1    9.20   11.10
  -8  -1   1 2114.09   75.19
   8  -1  -1 1992.90   84.29
  -8  -1   1 2220.48   92.09
  -8   1   1 2067.79   76.49
   8   1  -1 2059.29   84.39
  -8   1   1 2061.09   88.99
  -7  -1   1    4.20    7.50
   7  -1  -1    0.80    6.40
  -7  -1   1  -10.20    4.00
   7   1  -1    1.40    5.90
  -7   1   1    3.10    7.00
  -7   1   1   -0.40    5.50
  -6  -1   1  553.84   41.30
   6  -1  -1  632.14   38.50
  -6  -1   1  603.54   34.10
   6   1  -1  628.24   37.90
  -6   1   1  664.03   37.00
  -5  -1   1    5.30    6.00
  -5  -1   1    8.90    5.80
   5  -1  -1   12.10    8.60
  -5   1   1    9.20    7.00
   5   1  -1   14.10    7.10
  -5   1   1    6.80    5.90
   4  -1  -1 6443.76  131.49
  -4  -1   1 6362.96  133.59
  -4  -1   1 6347.86  125.59
   4   1  -1 6453.35  129.59
  -4   1   1 6520.65  134.49
  -4   1   1 6180.28  127.19
  -3  -1   1    3.50    4.50
   3  -1  -1    0.30    2.90
  -3  -1   1    2.10    3.40
   3   1  -1    2.30    3.60
  -3   1   1    2.70    4.00
  -3   1   1    2.90    4.00
  -2  -1   1 1110.89   32.90
   2  -1  -1 1047.70   31.90
  -2   1   1 1046.10   31.70
   2   1  -1 1081.29   31.20
  -2   1   1 1107.29   32.20
  -1  -1   1  163.28    8.50
  -1  -1   1  181.18    9.20
  -1   1   1  174.48    9.20
  -1   1   1  187.08   10.20
   1  -1   1  300.87   11.70
  -1  -1  -1  301.37    8.80
  -1  -1  -1  307.17   12.10
   1   1   1  304.67    9.30
  -1   1  -1  312.77   13.10
  -1   1  -1  306.17   11.60
  -2  -1  -1 1406.66   32.70
   2  -1   1 1423.86   37.00
  -2  -1  -1 1458.85   39.20
  -2   1  -1 1364.16   35.40
  -2   1  -1 1438.16   40.00
   2   1   1 1480.15   34.80
  -3  -1  -1  231.38   17.20
  -3  -1  -1  196.58   12.90
   3  -1   1  205.48   15.20
  -3   1  -1  223.18   17.00
  -3   1  -1  213.18   14.70
   3   1   1  235.08   15.10
  -4  -1  -1 5476.75  120.19
   4  -1   1 5499.35  115.49
  -4  -1  -1 5550.54  107.49
  -4   1  -1 5274.17  110.09
  -4   1  -1 5507.95  121.29
   4   1   1 5442.06  112.19
  -5  -1  -1  162.28   15.30
  -5  -1  -1   99.19   17.60
   5  -1   1  145.29   16.30
  -5   1  -1  161.38   16.50
  -5   1  -1   95.79   15.70
   6  -1   1 1709.23   65.29
  -6  -1  -1 1798.82   71.39
  -6  -1  -1 1778.22   57.69
  -6   1  -1 1786.52   60.39
   6   1   1 1765.32   64.79
  -6   1  -1 1754.12   70.79
  -7  -1  -1  268.37   22.70
   7  -1   1  266.27   26.90
  -7  -1  -1  250.27   28.90
  -7   1  -1  291.37   30.80
  -7   1  -1  246.88   23.10
   7   1   1  255.77   25.30
  -8  -1  -1  918.81   58.89
   8  -1   1  915.71   55.09
  -8  -1  -1  995.60   46.20
  -8   1  -1  972.10   47.70
   8   1   1  987.90   55.39
  -8   1  -1  886.11   57.69
  -9  -1  -1  255.67   41.40
  -9  -1  -1  217.88   23.00
  -9   1  -1  222.58   24.40
  -9   1  -1  243.78   39.50
  -9  -2   1   23.60   10.40
  -9  -2   1   40.80   19.70
  -9   2   1   26.00   13.90
  -9   2   1   20.40    8.70
  -8  -2   1   33.30   11.10
  -8  -2   1    4.40    8.80
  -8   2   1    2.60    6.40
   8   2  -1   22.50   10.70
  -8   2   1   18.50    8.40
  -7  -2   1  106.79   23.10
   7  -2  -1  106.39   20.00
  -7  -2   1   94.19   16.20
   7   2  -1  100.69   18.90
  -7   2   1  124.29   22.10
  -7   2   1  102.99   21.60
  -6  -2   1 3552.04  107.19
   6  -2  -1 3757.62  106.59
  -6  -2   1 3984.50   98.09
   6   2  -1 3662.63  102.39
  -6   2   1 3653.33  113.99
  -6   2   1 3966.10  102.89
  -5  -2   1   66.39   12.40
   5  -2  -1   52.19   10.90
  -5  -2   1   79.39   18.90
   5   2  -1   86.19   16.30
  -5   2   1   50.79   13.50
  -5   2   1   73.79   14.40
  -4  -2   1  618.74   32.70
   4  -2  -1  647.74   32.50
  -4  -2   1  594.94   28.30
   4   2  -1  619.74   30.40
  -4   2   1  610.74   32.20
  -4   2   1  676.83   32.20
  -3  -2   1  400.46   22.70
  -3  -2   1  365.06   19.50
   3  -2  -1  396.56   22.40
  -3   2   1  390.66   22.30
   3   2  -1  392.56   20.90
  -3   2   1  387.26   21.50
  -2  -2   1 4059.09   81.59
   2  -2  -1 4172.38   82.49
  -2  -2   1 4013.10   77.49
   2   2  -1 4124.59   78.99
  -2   2   1 4129.59   81.09
  -2   2   1 4074.59   81.49
   1  -2  -1   92.39    7.60
  -1  -2   1   69.29    6.80
   1   2  -1   68.19    6.40
  -1   2   1   65.79    6.80
  -1  -2  -1  843.42   23.70
   1  -2   1  869.71   24.80
  -1  -2  -1  860.61   19.00
  -1   2  -1  859.01   24.60
   1   2   1  863.21   19.80
  -2  -2  -1 5567.24   95.29
   2  -2   1 5827.62  105.19
  -2  -2  -1 5849.31  106.39
  -2   2  -1 5457.35  102.79
   2   2   1 5709.53   98.09
  -2   2  -1 5829.62  108.19
  -3  -2  -1 1156.18   32.90
   3  -2   1 1166.88   39.30
  -3  -2  -1 1164.88   41.00
  -3   2  -1 1130.99   37.20
  -3   2  -1 1122.29   41.20
   3   2   1 1158.18   35.60
  -4  -2  -1  287.57   17.70
   4  -2   1  301.87   21.70
  -4  -2  -1  323.97   23.80
  -4   2  -1  254.27   21.70
   4   2   1  312.47   20.20
  -4   2  -1  279.77   19.80
   5  -2   1   52.49   13.20
  -5  -2  -1   51.29   10.50
  -5  -2  -1   75.49   18.00
  -5   2  -1   53.99   14.90
  -5   2  -1   52.19   12.00
  -6  -2  -1 1677.53   54.89
  -6  -2  -1 1703.63   69.49
   6  -2   1 1591.04   64.29
  -6   2  -1 1626.64   68.89
   6   2   1 1838.42   64.79
  -6   2  -1 1761.72   60.99
  -7  -2  -1  603.64   33.00
   7  -2   1  609.24   40.90
  -7  -2  -1  494.25   39.70
   7   2   1  606.94   39.40
  -7   2  -1  577.14   35.80
  -7   2  -1  559.34   42.70
  -8  -2  -1  443.36   29.70
  -8  -2  -1  375.46   37.70
   8  -2   1  349.96   34.30
  -8   2  -1  366.76   29.50
  -8   2  -1  372.86   37.80
   8   2   1  437.96   36.30
  -9  -2  -1   33.40   16.30
  -9  -2  -1   27.80   10.10
  -9   2  -1   26.30   14.50
  -9   2  -1   28.30   12.60
  -9  -3   1  197.28   35.80
  -9  -3   1  252.87   25.80
  -9   3   1  214.68   30.30
  -9   3   1  157.68   29.70
  -8  -3   1   67.39   15.20
  -8  -3   1   37.00   13.60
   8   3  -1   99.09   21.30
  -8   3   1  104.39   19.90
  -8   3   1   35.70   15.20
  -7  -3   1  205.78   34.70
  -7  -3   1  147.79   21.60
  -7   3   1  160.18   24.80
  -7   3   1  137.79   23.30
   7   3  -1  174.78   24.60
   6  -3  -1    1.00    5.00
  -6  -3   1    7.70    6.50
  -6  -3   1    1.20    6.90
  -6   3   1   -3.30    4.20
  -6   3   1    2.60    7.30
   6   3  -1    0.60    3.80
  -5  -3   1  743.53   40.60
  -5  -3   1  727.33   34.00
   5  -3  -1  727.03   39.30
  -5   3   1  691.93   39.10
  -5   3   1  756.72   38.30
   5   3  -1  731.63   37.00
   4  -3  -1  168.78   17.00
  -4  -3   1  163.18   15.00
  -4  -3   1  165.48   17.30
   4   3  -1  175.08   16.10
  -4   3   1  161.28   17.10
  -4   3   1  152.18   16.00
  -3  -3   1  381.76   20.10
  -3  -3   1  397.46   23.40
   3  -3  -1  375.96   22.40
  -3   3   1  392.56   22.90
   3   3  -1  359.86   20.70
  -3   3   1  357.66   21.70
  -2  -3   1   40.20    7.60
   2  -3  -1   30.50    7.20
  -2  -3   1   39.70    8.70
  -2   3   1   26.70    6.40
  -2   3   1   30.10    6.70
   1  -3  -1 1482.25   37.00
  -1  -3   1 1411.06   34.20
   1   3  -1 1407.06   34.50
  -1   3   1 1472.05   37.60
   0  -3   1   23.10    5.20
   0  -3   1   31.50    7.40
   0   3   1   15.80    4.90
   0   3  -1   12.10    4.90
   0   3  -1   18.30    4.30
  -1  -3  -1  279.97   11.30
  -1  -3  -1  308.67   14.70
   1  -3   1  292.17   15.40
   1   3   1  304.87   12.20
  -2  -3  -1  123.89   11.60
   2  -3   1  146.59   12.50
  -2  -3  -1  105.69    8.20
  -2   3  -1  122.49   11.60
   2   3   1   99.69    8.70
  -2   3  -1  130.59   12.20
  -3  -3  -1 3001.40   73.79
  -3  -3  -1 2822.82   61.29
   3  -3   1 2997.20   72.99
   3   3   1 2963.30   65.79
  -3   3  -1 2986.10   75.39
  -3   3  -1 2839.32   69.89
  -4  -3  -1   56.09   13.10
   4  -3   1   35.60   10.20
  -4  -3  -1   55.09    9.50
  -4   3  -1   59.19   10.60
   4   3   1   44.30    9.70
  -4   3  -1   49.80   11.30
   5  -3   1    7.60    5.80
  -5  -3  -1    3.60    5.30
  -5  -3  -1    8.60    5.40
  -5   3  -1    3.90    5.90
   5   3   1   -2.80    4.30
  -5   3  -1    7.40    5.50
  -6  -3  -1  290.97   21.40
  -6  -3  -1  289.47   28.30
   6  -3   1  287.57   26.50
   6   3   1  306.97   25.80
  -6   3  -1  299.87   29.60
  -6   3  -1  317.87   25.40
  -7  -3  -1  909.91   53.99
  -7  -3  -1  855.41   39.20
   7  -3   1  862.21   50.09
   7   3   1  922.11   49.10
  -7   3  -1  919.41   46.10
  -7   3  -1  802.52   51.69
  -8  -3  -1    0.70    5.30
  -8  -3  -1    2.10    7.80
   8   3   1   21.00    7.90
  -8   3  -1   -9.20    5.20
  -8   3  -1   -0.70    7.50
  -9  -3  -1  -11.30    5.30
  -9  -3  -1   11.40    7.30
  -9   3  -1    3.40    8.70
  -9   3  -1    5.00    7.20
  -9  -4   1  117.19   19.80
  -9  -4   1  101.09   26.70
  -9   4   1  158.28   28.20
  -9   4   1  113.29   28.10
  -8  -4   1   26.90    9.50
  -8  -4   1   28.90   15.00
   8   4  -1   54.19   16.90
  -8   4   1   22.70   11.60
  -8   4   1    9.40    8.70
  -7  -4   1   80.09   18.00
  -7  -4   1  115.69   18.70
  -7   4   1  135.29   28.30
  -7   4   1  118.59   19.90
   7   4  -1   82.79   15.50
   6  -4  -1 1760.22   69.19
  -6  -4   1 1687.53   57.89
  -6  -4   1 1598.34   68.19
  -6   4   1 1705.53   65.19
  -6   4   1 1697.53   69.79
   6   4  -1 1659.63   64.09
  -5  -4   1   55.79   11.40
   5  -4  -1   32.60    9.30
  -5  -4   1   44.70   11.80
  -5   4   1   68.49   16.40
  -5   4   1   30.00    9.60
   5   4  -1   51.79   11.80
  -4  -4   1   89.39   17.10
   4  -4  -1   83.89   14.90
  -4  -4   1   63.39   10.00
  -4   4   1   80.69   14.50
  -4   4   1  122.69   19.80
   4   4  -1  114.49   17.00
  -3  -4   1  233.98   16.20
   3  -4  -1  219.68   18.20
  -3   4   1  225.38   18.10
   3   4  -1  260.37   17.70
  -2  -4   1 3316.37   69.79
  -2  -4   1 3296.17   75.99
   2  -4  -1 3323.67   75.59
  -2   4   1 3328.57   76.19
  -2   4   1 3475.25   76.19
   2   4  -1 3457.15   71.79
   1  -4  -1  429.56   20.00
  -1  -4   1  473.55   19.30
   1   4  -1  460.25   19.20
  -1   4   1  454.55   21.10
   0   4   1  154.18   12.10
   0   4  -1  163.88   11.40
   1  -4   1  445.76   21.50
   1   4   1  475.45   17.70
   2  -4   1 2093.69   54.99
  -2  -4  -1 2078.49   53.89
  -2  -4  -1 1955.90   44.00
   2   4   1 1969.50   46.40
  -2   4  -1 2009.40   54.29
  -3  -4  -1  428.36   29.00
   3  -4   1  466.85   25.80
  -3  -4  -1  402.56   18.70
   3   4   1  435.06   21.30
  -3   4  -1  372.76   23.00
   4  -4   1 2089.39   66.09
  -4  -4  -1 2137.89   54.09
  -4  -4  -1 1994.10   65.49
  -4   4  -1 2233.38   69.99
   4   4   1 2122.39   59.39
   5  -4   1  448.06   31.30
  -5  -4  -1  496.75   25.60
  -5  -4  -1  481.35   33.40
  -5   4  -1  507.05   34.60
  -5   4  -1  503.05   31.00
   5   4   1  505.05   29.60
  -6  -4  -1 1412.86   63.99
  -6  -4  -1 1499.05   49.90
   6  -4   1 1483.65   62.99
  -6   4  -1 1424.06   65.19
  -6   4  -1 1471.05   58.09
   6   4   1 1493.05   58.49
   7  -4   1  532.95   49.40
  -7  -4  -1  499.65   29.40
  -7  -4  -1  446.66   38.40
   7   4   1  467.85   34.70
  -7   4  -1  515.85   42.00
  -7   4  -1  531.35   36.00
  -8  -4  -1  738.33   53.19
  -8  -4  -1  749.53   37.80
  -8   4  -1  627.64   49.90
   8   4   1  679.23   44.90
  -8   4  -1  738.63   44.40
  -9  -4  -1  108.89   17.80
  -9  -4  -1   81.69   23.10
  -9   4  -1   97.59   26.80
  -9   4  -1  108.49   21.20
  -9  -5   1  396.06   31.10
  -9  -5   1  387.06   41.80
  -9   5   1  402.76   42.20
  -9   5   1  428.76   36.60
  -8  -5   1  860.71   43.50
  -8  -5   1  745.83   54.39
  -8   5   1  831.22   56.29
  -8   5   1  851.21   50.49
  -7  -5   1  395.96   36.30
  -7  -5   1  388.76   28.30
  -7   5   1  427.06   33.80
  -7   5   1  430.36   38.00
   7   5  -1  482.55   35.80
  -6  -5   1   45.80   12.60
  -6  -5   1   47.80   14.70
   6   5  -1   79.19   16.70
  -6   5   1   70.99   19.00
  -6   5   1   83.39   17.60
  -5  -5   1  399.96   25.40
   5  -5  -1  387.26   29.60
  -5  -5   1  383.06   30.30
  -5   5   1  383.16   30.10
   5   5  -1  387.16   27.40
  -5   5   1  387.86   28.90
  -4  -5   1 1816.72   53.99
  -4  -5   1 1817.22   63.39
  -4   5   1 1948.21   64.49
   4   5  -1 1828.02   57.59
  -4   5   1 1865.71   62.49
   3  -5  -1  338.47   23.10
  -3  -5   1  346.67   20.00
  -3  -5   1  362.36   24.20
   3   5  -1  359.16   21.40
  -3   5   1  310.67   22.30
   2  -5  -1  173.18   15.10
  -2  -5   1  165.48   13.00
  -2   5   1  163.38   15.20
   2   5  -1  172.78   13.60
   1  -5  -1 1020.40   36.30
  -1  -5   1  957.20   31.30
  -1   5   1 1072.79   36.50
   1   5  -1 1067.79   32.70
   0   5   1 1314.77   40.90
   0   5  -1 1310.07   43.10
   0   5  -1 1315.97   37.50
   1  -5   1 1365.86   43.10
   1   5   1 1335.37   36.20
   2  -5   1  359.06   22.00
  -2  -5  -1  409.46   17.70
  -2   5  -1  359.66   22.20
   2   5   1  368.96   18.20
  -3  -5  -1 3422.06   70.99
   3  -5   1 3406.46   85.59
  -3  -5  -1 3441.96   85.19
  -3   5  -1 3549.94   89.49
  -3   5  -1 3344.67   84.59
   3   5   1 3420.66   76.09
  -4  -5  -1 1624.14   59.29
  -4  -5  -1 1639.44   46.40
   4  -5   1 1645.04   70.59
   4   5   1 1746.43   53.29
  -4   5  -1 1634.24   57.09
  -4   5  -1 1798.32   63.19
  -5  -5  -1  255.97   24.90
  -5  -5  -1  237.38   17.60
   5  -5   1  251.47   24.20
   5   5   1  247.98   21.20
  -5   5  -1  212.68   21.40
  -5   5  -1  203.28   23.20
   6  -5   1  588.54   38.90
  -6  -5  -1  497.55   38.00
  -6  -5  -1  514.95   28.00
  -6   5  -1  499.15   38.50
  -6   5  -1  465.45   32.90
   6   5   1  516.45   33.50
   7  -5   1  881.21   52.09
  -7  -5  -1  871.11   38.70
  -7  -5  -1  818.92   53.89
  -7   5  -1  859.51   53.99
   7   5   1  835.82   46.70
  -7   5  -1  851.81   46.80
  -8  -5  -1  711.53   52.89
  -8  -5  -1  762.72   37.80
  -8   5  -1  773.42   46.50
   8   5   1  727.03   46.70
  -8   5  -1  726.63   54.09
  -9  -5  -1   69.89   20.50
  -9  -5  -1   84.89   15.70
  -9   5  -1   66.19   16.30
  -9   5  -1   91.99   25.60
  -9  -6   1  824.42   61.59
  -9  -6   1  966.40   47.60
  -9   6   1  868.91   61.99
  -9   6   1  890.91   55.29
  -8  -6   1    0.20    7.10
  -8  -6   1   -7.10    4.70
  -8   6   1   -5.60    9.90
  -8   6   1    1.10    6.00
  -7  -6   1 1304.97   89.29
  -7  -6   1 1422.96   54.99
  -7   6   1 1371.06   68.99
  -7   6   1 1463.65   65.79
  -6  -6   1  133.79   19.30
  -6  -6   1  114.99   23.90
   6   6  -1  146.39   24.30
  -6   6   1   91.99   17.10
  -6   6   1  121.19   23.80
  -5  -6   1  841.52   37.40
  -5  -6   1  763.92   44.00
   5  -6  -1  852.71   45.50
  -5   6   1  798.22   43.30
  -5   6   1  889.81   47.40
   5   6  -1  809.82   40.90
  -4  -6   1   55.59   10.70
  -4  -6   1   52.89   14.00
   4  -6  -1   52.19   12.20
  -4   6   1   27.20   10.40
  -4   6   1   25.30    8.20
  -3  -6   1 3608.64   80.19
   3  -6  -1 3458.55   88.59
   3   6  -1 3550.64   82.79
  -3   6   1 3591.24   90.29
  -3   6   1 3205.78  101.29
  -2  -6   1  252.77   16.90
   2  -6  -1  298.47   20.60
   2   6  -1  282.37   18.20
  -2   6   1  294.87   21.20
   1  -6  -1  318.47   20.50
  -1  -6   1  298.77   17.80
  -1   6   1  290.67   20.20
   1   6  -1  370.46   19.80
   0   6   1  120.49   12.90
   0   6  -1  117.49   16.80
   1   6   1 6113.39  111.09
  -1   6  -1 5836.12  122.09
  -2  -6  -1   43.70    7.90
   2  -6   1   41.00    8.80
   2   6   1   43.00    8.90
  -2   6  -1   39.20    9.10
  -3  -6  -1  530.65   30.50
  -3  -6  -1  581.34   24.30
   3  -6   1  540.85   30.80
  -3   6  -1  582.84   33.20
   3   6   1  611.44   27.40
  -3   6  -1  550.24   32.60
   4  -6   1   88.19   14.60
  -4  -6  -1   90.19   17.10
  -4  -6  -1   93.39   10.90
  -4   6  -1  123.79   23.50
   4   6   1   92.79   13.50
  -4   6  -1   85.99   16.30
  -5  -6  -1 2789.02   90.09
  -5  -6  -1 2856.81   70.49
   5  -6   1 2995.30   91.19
  -5   6  -1 3038.90   88.49
  -5   6  -1 2657.33   89.99
   5   6   1 2829.22   80.29
  -6  -6  -1   60.89   11.60
  -6  -6  -1   86.89   21.40
   6  -6   1   19.60   10.20
  -6   6  -1   32.60   11.20
   6   6   1   52.39   12.80
  -6   6  -1   85.49   21.90
   7  -6   1  114.99   20.10
  -7  -6  -1  160.48   16.40
  -7  -6  -1   90.29   23.40
   7   6   1  172.38   26.20
  -7   6  -1  211.68   51.29
  -7   6  -1  109.29   21.00
  -8  -6  -1  336.77   37.10
  -8  -6  -1  316.17   23.70
  -8   6  -1  332.57   31.60
  -8   6  -1  242.18   36.80
  -9  -6  -1 1058.49   69.89
  -9  -6  -1 1013.80   44.20
  -9   6  -1 1058.49   70.09
  -9   6  -1 1042.60   57.79
  -9  -7   1   50.19   14.20
  -9  -7   1   42.00   16.30
  -9   7   1   71.29   20.00
  -9   7   1   27.40   14.00
  -8  -7   1  693.93   39.00
  -8  -7   1  671.63   52.49
  -8   7   1  778.22   50.29
  -8   7   1  746.43   54.99
  -7  -7   1   14.50    8.70
  -7  -7   1   -1.80    6.40
  -7   7   1   14.10    8.60
   7   7  -1    5.40    7.60
  -6  -7   1  246.58   21.50
  -6  -7   1  256.47   38.00
  -6   7   1  255.27   28.00
  -6   7   1  284.57   27.80
   6   7  -1  216.08   23.90
  -5  -7   1  284.87   21.80
  -5  -7   1  268.37   27.00
   5  -7  -1  269.17   26.40
   5   7  -1  243.38   22.90
  -5   7   1  287.67   26.90
  -5   7   1  232.08   25.30
   4  -7  -1  982.90   46.80
  -4  -7   1 1057.69   40.40
   4   7  -1  973.60   42.50
  -4   7   1  927.81   46.10
  -4   7   1 1016.60   47.90
   3  -7  -1   33.90   10.20
  -3  -7   1   20.20    6.50
   3   7  -1   25.70    8.90
  -3   7   1   23.00    7.90
   2  -7  -1  552.54   29.70
  -2  -7   1  524.05   25.70
   2   7  -1  538.45   26.80
  -2   7   1  545.15   31.00
   1  -7  -1 1139.79   43.50
  -1  -7   1 1161.88   38.90
  -1   7   1 1069.89   42.80
   1   7  -1 1175.58   39.60
   0   7   1 1626.04   53.29
   0   7  -1 1692.73   56.19
   0   7   1 1650.53   47.70
   1  -7   1  176.78   17.60
   1   7   1  158.88   13.60
  -1   7  -1  149.88   14.40
  -1   7  -1  131.59   19.10
  -2  -7  -1  578.84   24.40
   2  -7   1  537.35   30.30
  -2   7  -1  530.65   31.00
   2   7   1  563.34   26.00
   3  -7   1  773.02   40.00
  -3  -7  -1  702.93   28.30
  -3   7  -1  748.63   38.40
   3   7   1  709.53   31.40
  -4  -7  -1  594.54   27.10
  -4  -7  -1  594.84   36.60
   4  -7   1  577.04   35.50
   4   7   1  582.04   33.00
  -4   7  -1  572.64   37.20
  -4   7  -1  619.64   36.80
   5  -7   1   15.40    8.40
  -5  -7  -1    7.80    7.00
  -5  -7  -1   15.30    8.10
  -5   7  -1    5.30    7.00
  -5   7  -1   10.70    7.90
   5   7   1    6.20    5.90
  -6  -7  -1  139.19   15.10
  -6  -7  -1  126.19   21.20
  -6   7  -1  115.19   22.20
  -6   7  -1  195.68   22.60
   6   7   1  159.68   24.10
  -7  -7  -1   91.79   23.20
   7  -7   1   68.69   17.60
  -7  -7  -1   81.29   14.10
  -7   7  -1  105.09   25.00
  -7   7  -1   65.89   16.00
  -8  -7  -1  193.88   18.50
  -8  -7  -1  169.98   33.60
  -8   7  -1  156.08   36.90
  -9  -7  -1   32.70   17.60
  -9  -7  -1   21.00    7.60
  -9   7  -1    7.90   12.20
  -9   7  -1   33.10   14.70
  -9  -8   1  367.06   42.70
  -9  -8   1  363.26   29.10
  -9   8   1  457.55   41.00
  -9   8   1  444.56   45.90
  -8  -8   1   -0.40    5.60
  -8  -8   1    6.40    8.40
  -8   8   1   13.80   10.20
  -8   8   1    4.20    7.50
  -7  -8   1 1399.76   73.29
  -7  -8   1 1411.76   54.89
   7   8  -1 1390.46   65.69
  -7   8   1 1446.46   68.79
  -7   8   1 1408.26   72.99
  -6  -8   1  173.28   18.70
  -6  -8   1  190.38   31.60
  -6   8   1  191.38   30.00
  -6   8   1  154.08   23.30
   6   8  -1  195.08   22.80
   5  -8  -1  628.84   40.70
  -5  -8   1  681.63   34.20
  -5   8   1  615.04   41.60
  -5   8   1  731.63   43.60
   5   8  -1  704.03   39.50
  -4  -8   1    3.60    4.70
   4  -8  -1    4.70    5.60
   4   8  -1    1.60    5.70
  -4   8   1   -5.10    3.60
  -4   8   1    7.90    7.20
   3  -8  -1 2669.23   79.39
  -3  -8   1 2545.95   70.99
   3   8  -1 2139.69   98.59
  -3   8   1 2764.02   82.99
  -2  -8   1  667.33   30.60
   2  -8  -1  618.54   33.60
   2   8  -1  665.43   31.60
  -2   8   1  605.54   36.40
   1  -8  -1 1128.09   45.90
   1   8  -1 1099.69   47.10
  -1   8   1 1115.09   46.00
   1   8  -1 1057.19   39.60
   0   8   1    8.00    4.90
   0   8  -1    1.90    4.20
   0   8  -1   -0.70    3.60
   0   8   1   -2.10    3.30
   1  -8   1 3198.08   88.49
  -1   8  -1 2990.00   85.69
  -1   8  -1 3325.77   81.49
   1   8   1 3339.17   86.29
   1   8   1 3260.27   76.99
   2  -8   1  155.08   17.50
  -2   8  -1  108.79   17.60
   2   8   1  147.49   14.40
  -3  -8  -1  114.59   12.30
   3  -8   1   72.59   14.30
   3   8   1  106.39   16.00
  -3   8  -1   92.29   18.30
  -4  -8  -1   22.30    7.70
   4  -8   1   10.40    8.00
  -4   8  -1   28.20   11.70
   4   8   1   17.80    8.30
  -4   8  -1    6.30    7.80
  -5  -8  -1 1800.92   73.39
  -5  -8  -1 1800.32   54.69
  -5   8  -1 1740.63   73.59
   5   8   1 1787.82   63.59
  -5   8  -1 1847.92   71.09
  -6  -8  -1  254.67   19.80
  -6  -8  -1  293.97   30.80
  -6   8  -1  263.37   27.60
  -6   8  -1  266.57   30.80
   6   8   1  293.67   26.50
  -7  -8  -1   10.70   10.80
  -7  -8  -1   22.30    8.40
  -7   8  -1   12.00   10.50
   7   8   1   13.10   10.20
  -7   8  -1   22.70   10.80
  -8  -8  -1    6.40    8.60
  -8  -8  -1   15.80    7.00
  -8   8  -1    3.50    8.30
  -8   8  -1   24.30   12.20
  -8  -9   1   27.40   15.40
  -8  -9   1   24.00    9.80
  -8   9   1   28.90   12.70
  -8   9   1   13.10    9.50
  -7  -9   1  484.75   31.40
  -7   9   1  579.44   53.99
  -7   9   1  489.95   43.00
   7   9  -1  422.16   36.60
  -6  -9   1    2.80    4.90
  -6   9   1   11.20    9.60
  -6   9   1    2.10    6.00
   6   9  -1   15.80    7.90
  -5  -9   1 3220.68   85.49
   5  -9  -1 3185.08  101.49
  -5   9   1 3349.56  104.19
  -5   9   1 3139.09  102.89
   5   9  -1 3109.79   93.39
  -4  -9   1    0.50    5.50
   4  -9  -1   -2.70    5.20
   4   9  -1    6.60    5.60
  -4   9   1   -0.80    4.60
  -4   9   1   11.20    8.40
  -3  -9   1  680.63   33.00
   3  -9  -1  659.93   38.20
  -3   9   1  691.73   41.40
   3   9  -1  718.03   35.90
   2  -9  -1  361.86   27.00
  -2   9   1  356.56   28.10
   2   9  -1  342.97   30.20
   1  -9  -1 5312.07  120.09
   1   9  -1 5041.90  108.19
   1   9  -1 4115.99  154.08
  -1   9   1 4596.64  133.59
   0   9  -1  237.98   33.80
   0   9   1  193.88   17.20
   0   9  -1  168.88   16.70
   0   9   1  197.78   19.70
   1  -9   1  736.33   40.30
  -1   9  -1  723.83   39.60
  -1   9  -1  722.33   35.50
   1   9   1  780.32   34.30
   1   9   1  742.73   38.80
   2  -9   1  817.92   42.60
   2   9   1  843.22   36.10
  -2   9  -1  811.02   43.00
   3  -9   1 3986.30  107.99
   3   9   1 4048.29  113.19
  -3   9  -1 4060.29  110.89
  -4  -9  -1   75.99   12.40
   4  -9   1   81.79   18.10
  -4   9  -1   62.09   15.40
   4   9   1   67.69   13.00
  -4   9  -1   49.50   17.10
  -5  -9  -1  237.58   18.50
  -5   9  -1  266.77   27.00
   5   9   1  209.98   21.80
  -5   9  -1  182.08   27.60
  -6  -9  -1  479.75   40.00
  -6  -9  -1  444.36   26.40
  -6   9  -1  411.06   38.10
   6   9   1  471.65   34.20
  -6   9  -1  458.55   36.80
  -7  -9  -1 2268.47   66.79
  -7  -9  -1 2377.76   99.09
  -7   9  -1 2346.37   99.89
  -7   9  -1 2377.56   90.19
   7   9   1 2351.76   86.89
  -8  -9  -1   47.80   11.20
  -8  -9  -1   30.20   13.50
  -8   9  -1   38.50   17.90
  -8   9  -1   36.80   15.20
  -8 -10   1   -7.20    6.50
  -8  10   1   10.80    9.90
  -8  10   1   -3.30    8.90
  -7 -10   1   19.40   10.40
  -7  10   1   27.00   12.20
  -7  10   1   18.20   13.80
  -6 -10   1   43.40   12.00
   6 -10  -1   35.80   12.80
   6  10  -1   46.10   13.70
  -6  10   1   31.20   12.50
  -6  10   1   34.40   14.00
   5 -10  -1   15.80    7.90
  -5 -10   1   10.30    7.10
  -5  10   1    7.90    8.10
   5  10  -1   16.70    8.50
  -5  10   1    4.50    8.00
  -4 -10   1   94.69   15.30
   4 -10  -1   67.49   16.10
   4  10  -1   70.99   15.20
  -4  10   1   87.79   17.20
   3 -10  -1   90.39   17.90
  -3 -10   1   72.69   13.20
  -3  10   1   57.39   14.60
   3  10  -1   69.19   14.60
   2 -10  -1  131.09   22.50
   2  10  -1   93.29   15.50
  -2  10   1   80.09   15.40
   1 -10  -1   97.19   16.40
   1  10  -1   96.19   14.20
   1  10  -1  149.99   24.40
  -1  10   1  118.59   19.70
   0  10   1  104.39   17.70
   0  10  -1  100.69   17.00
   0  10  -1  100.79   18.50
   1 -10   1   81.99   15.80
   1  10   1   73.09   16.00
  -1  10  -1   65.89   13.00
   1  10   1   58.49   13.90
  -1  10  -1   52.99   12.70
   2 -10   1   12.80    8.30
  -2  10  -1   12.60    8.40
   2  10   1   10.40    6.80
   3 -10   1    1.70    5.20
   3  10   1    5.00    5.20
  -3  10  -1   -0.30    5.60
   4 -10   1   -3.30    6.10
   4  10   1    9.30    7.70
  -4  10  -1   13.70    8.80
  -4  10  -1   12.40    9.60
  -5 -10  -1   28.00    8.90
   5  10   1    7.30    8.50
  -5  10  -1    8.50    8.70
  -5  10  -1   30.10   12.30
  -6 -10  -1   46.60   10.70
  -6  10  -1   77.19   19.70
  -6  10  -1   50.79   16.50
   6  10   1   48.60   12.90
  -7 -10  -1   -0.70    5.00
  -7  10  -1    0.60    6.50
   7  10   1    2.10    8.30
  -7  10  -1    2.70    8.90
  -8 -10  -1   21.90    8.20
  -8  10  -1   -6.20    5.70
  -8  10  -1   -8.10    7.30
  -8 -11   1    7.80    7.00
  -8  11   1   17.10   12.50
  -8  11   1   21.20   14.70
  -7 -11   1  484.45   32.60
  -7  11   1  553.14   48.90
  -7  11   1  586.24   46.90
  -6 -11   1    7.20    6.80
   6 -11  -1    3.80    9.40
   6  11  -1   -8.00    6.30
  -6  11   1    8.50    9.00
  -6  11   1   11.40    9.60
  -5 -11   1 1994.20   66.49
  -5  11   1 2180.78   87.29
  -5  11   1 1984.40   84.79
   5  11  -1 1967.30   75.79
  -4 -11   1   54.39   12.30
   4 -11  -1   42.40   12.00
  -4  11   1   43.20   14.90
   4  11  -1   67.19   16.20
  -4  11   1   68.39   18.20
  -3 -11   1  678.33   35.70
   3 -11  -1  631.54   40.60
   3  11  -1  666.93   38.10
  -3  11   1  657.03   43.40
   2 -11  -1   79.89   17.40
   2  11  -1  103.39   18.20
  -2  11   1   96.59   19.00
   1  11  -1 2252.57   80.19
  -1  11   1 2285.37   79.09
   1  11  -1 2190.88   69.29
  -1  11   1 2101.49   69.69
   0  11  -1   54.49   11.50
   0  11   1   56.69   11.80
   0  11   1   48.80   12.50
   0  11  -1   62.89   16.50
  -1  11  -1  321.87   29.10
   1  11   1  314.47   24.40
   1  11   1  294.47   27.20
  -1  11  -1  321.57   25.80
   2 -11   1  280.77   28.00
  -2  11  -1  244.58   23.50
   2  11   1  251.17   22.30
  -2  11  -1  255.27   26.80
   3 -11   1 2816.82   93.79
   3  11   1 2889.31   83.69
  -3  11  -1 2734.13   94.29
   4 -11   1   -0.60    5.50
   4  11   1   11.70    7.20
  -4  11  -1   -3.80    5.30
  -5 -11  -1   29.40    8.40
  -5  11  -1   17.00   11.60
   5  11   1   14.70    8.60
  -5  11  -1   23.80   13.30
  -6 -11  -1  305.57   22.60
  -6  11  -1  299.27   32.20
   6  11   1  343.17   30.50
  -6  11  -1  321.17   35.80
  -7 -11  -1 1351.76   49.40
  -7  11  -1 1356.56   78.29
  -7  11  -1 1455.35   73.69
  -8 -11  -1   36.80   10.20
  -8  11  -1   17.80   12.00
  -8  11  -1   24.00   12.50
  -7 -12   1 1103.09   49.70
  -7  12   1 1087.69   69.59
  -7  12   1 1082.99   66.59
  -6 -12   1  172.98   19.60
   6  12  -1  200.68   49.60
  -6  12   1  133.69   29.00
  -6  12   1  129.49   26.20
  -5 -12   1  974.30   45.00
   5 -12  -1  779.42   63.59
   5  12  -1  936.61   52.59
  -5  12   1  945.11   57.79
  -5  12   1 1025.10   60.99
   4 -12  -1    4.40    6.00
  -4 -12   1   11.40    7.30
   4  12  -1    8.20    7.10
  -4  12   1    6.00    6.60
   3 -12  -1 2340.37   85.69
   3  12  -1 2396.36   79.79
  -3  12   1 2341.37   88.39
   2 -12  -1  417.46   34.10
  -2  12   1  453.05   36.10
   2  12  -1  407.56   30.30
   2  12  -1  428.66   35.20
   1  12  -1  567.74   39.80
  -1  12   1  561.14   35.10
  -1  12   1  617.84   40.80
   1  12  -1  599.34   35.60
   0  12  -1    2.30    6.00
   0  12  -1   -2.00    5.60
   0  12   1   17.30    9.10
   0  12   1    2.60    5.50
   1  12   1 2418.16   75.99
  -1  12  -1 2397.66   78.59
   1  12   1 2556.34   86.59
  -1  12  -1 2420.96   86.99
   2 -12   1  366.76   33.20
  -2  12  -1  365.66   33.00
   2  12   1  385.26   32.50
   2  12   1  425.96   29.40
  -2  12  -1  421.96   31.30
   3 -12   1  136.09   24.90
  -3  12  -1  122.59   22.20
   3  12   1  174.88   20.30
  -4  12  -1   66.59   17.90
   4  12   1   51.89   13.30
   5 -12   1 2053.39   85.99
  -5  12  -1 2221.88   90.09
   5  12   1 2071.79   78.09
  -6  12  -1   88.59   24.20
  -6  12  -1   72.79   20.80
   6  12   1  111.89   20.40
  -7  12  -1   35.50   16.50
  -7  12  -1   34.00   15.30
  -7 -13   1   11.80    7.90
  -7  13   1   -0.60    9.50
  -7  13   1    6.80   12.20
  -6 -13   1   11.10    7.60
  -6  13   1    7.60   10.30
  -6  13   1   -0.70    8.80
   5 -13  -1   -9.80    6.80
  -5 -13   1    8.40    6.50
   5  13  -1   14.20    8.50
  -5  13   1   21.60   15.70
  -5  13   1    3.30    8.50
  -4  13   1  422.96   38.60
   4  13  -1  462.25   43.40
   3 -13  -1  108.49   22.10
  -3  13   1  153.78   27.90
   3  13  -1  152.68   22.90
   2 -13  -1  199.08   29.90
  -2  13   1  144.49   23.30
   2  13  -1  187.58   21.10
   2  13  -1  185.48   31.00
   1  13  -1   35.00   10.70
   1  13  -1   27.00   12.20
  -1  13   1   54.59   17.30
  -1  13   1   21.90    8.90
   0  13   1  582.64   40.20
   0  13  -1  563.74   36.30
   0  13   1  491.45   33.60
   0  13  -1  554.04   40.10
  -1  13  -1   11.60   10.50
  -1  13  -1   -0.50    4.30
   1  13   1   30.40   11.00
   1  13   1   31.80   11.50
   2 -13   1  288.47   30.00
   2  13   1  376.76   29.00
  -2  13  -1  408.76   35.90
   2  13   1  409.96   34.80
   3 -13   1   46.90   14.40
  -3  13  -1   39.90   14.60
   3  13   1   65.79   15.10
   4  13   1  539.15   37.60
  -4  13  -1  524.35   43.50
   5  13   1   38.60   12.40
  -5  13  -1   17.10   10.90
  -5  13  -1   19.60   12.10
  -6  13  -1  217.78   36.40
  -6  13  -1  188.78   35.40
  -7  13  -1    5.10    8.50
  -7  13  -1    5.00   10.30
  -7  14   1  620.24   55.09
  -7  14   1  744.63   57.29
  -6  14   1  127.29   25.40
  -6  14   1  146.79   30.60
  -5  14   1  250.67   39.80
  -5  14   1  321.37   45.00
   4 -14  -1   -8.40    8.00
  -4  14   1   11.50   11.20
   4  14  -1   35.30   12.20
   3  14  -1 1131.59   62.99
   3  14  -1 1064.49   73.99
  -3  14   1 1201.08   65.39
   2 -14  -1  228.88   32.20
  -2  14   1  222.58   34.10
   2  14  -1  176.38   27.90
   2  14  -1  241.28   25.60
  -1  14   1  503.45   39.50
   1  14  -1  575.24   41.60
  -1  14   1  540.85   37.40
   1  14  -1  491.45   35.20
   0  14  -1  266.57   29.10
   0  14   1  239.78   26.80
   0  14  -1  197.28   23.00
   0  14   1  239.98   23.80
  -1  14  -1 2039.00   83.79
   1  14   1 1932.11   78.89
   1  14   1 1867.61   70.29
   2 -14   1  381.86   35.80
   2  14   1  322.77   31.80
  -2  14  -1  404.86   37.10
   2  14   1  374.66   30.40
   3  14   1  173.98   25.10
   3  14   1  109.29   21.60
  -3  14  -1  105.09   21.70
   4 -14   1  146.49   25.30
  -4  14  -1  163.78   27.00
  -4  14  -1  140.89   25.50
   4  14   1  155.08   23.20
  -5  14  -1  977.10   65.89
   5  14   1  947.11   54.29
  -5  14  -1 1019.20   63.99
  -6  14  -1   49.90   16.10
  -6  14  -1   68.79   21.40
  -6  15   1   40.00   16.00
  -6  15   1   14.70   11.40
  -5  15   1  454.65   44.70
  -5  15   1  510.65   46.00
   4 -15  -1  318.67   36.20
  -4  15   1  307.47   36.00
   3  15  -1  141.29   22.90
   3  15  -1  143.79   27.60
  -3  15   1  147.09   28.20
   2  15  -1   -8.00    6.90
  -2  15   1    4.70    7.00
   2  15  -1    8.60    8.60
  -2  15   1    5.30    7.90
  -1  15   1  738.23   49.20
   1  15  -1  691.33   47.90
   1  15  -1  812.12   51.79
  -1  15   1  784.12   51.19
   0  15   1  444.16   37.50
   0  15  -1  435.16   37.70
   0  15   1  400.56   33.90
   0  15  -1  432.16   42.60
  -1  15  -1  249.08   29.70
   1  15   1  287.57   28.10
   1  15   1  263.07   29.00
   2  15   1   11.20    9.50
  -2  15  -1   15.80   10.40
   3 -15   1  802.52   55.29
   3  15   1  842.42   48.90
   3  15   1  791.22   53.49
  -3  15  -1  852.31   56.79
   4  15   1  598.84   42.20
  -4  15  -1  696.03   53.39
  -5  15  -1  365.26   41.60
  -5  15  -1  374.96   40.70
  -6  15  -1   38.20   15.80
  -6  15  -1   37.40   17.70
  -5  16   1   15.40    9.30
  -5  16   1    0.90    9.20
  -4  16   1   18.20   12.20
   4  16  -1   33.80   14.30
   3 -16  -1   25.80   13.00
   3  16  -1   61.89   19.90
  -3  16   1   61.59   17.00
   2  16  -1 1746.73   82.29
   2  16  -1 1724.33   74.49
  -2  16   1 1822.32   84.19
   1  16  -1   49.40   17.90
  -1  16   1   90.29   20.60
  -1  16   1   61.89   20.60
   1  16  -1   78.39   18.30
   0  16  -1  342.17   32.00
   0  16   1  391.46   36.10
   0  16   1  367.76   33.10
   0  16  -1  390.76   37.00
   1  16   1   65.59   18.20
  -1  16  -1   53.19   15.10
   1  16   1   37.90   12.10
  -1  16  -1   28.60   13.10
   2  16   1 1411.26   71.49
  -2  16  -1 1373.86   84.79
   2  16   1 1436.36   65.79
  -3  16  -1   -5.80    6.60
   3  16   1   17.80   10.20
   3  16   1   12.20    9.90
   4  16   1  516.15   52.99
  -4  16  -1  498.25   46.90
  -5  16  -1   40.40   18.70
  -5  16  -1   46.90   19.20
  -5  17   1   60.89   20.00
  -5  17   1   59.29   20.30
   4  17  -1  168.28   34.60
  -4  17   1  119.09   26.60
  -3  17   1   -3.60    8.20
   3  17  -1   12.60   13.00
  -2  17   1  140.69   27.80
   2  17  -1   90.49   22.80
  -1  17   1  176.98   34.10
   1  17  -1  170.88   42.30
   0  17   1  225.38   36.10
   0  17  -1  164.98   33.10
   1  17   1   23.50   10.30
  -1  17  -1   22.40   12.00
  -2  17  -1  244.88   39.60
   2  17   1  270.77   41.20
  -3  17  -1  485.65   45.30
   3  17   1  457.95   43.20
   4  17   1  112.09   27.20
  -4  17  -1  127.09   29.10
  -5  17  -1   22.90   14.10
  -5  17  -1   18.60   12.30
  -4  18   1  131.99   29.80
   4  18  -1  127.19   31.40
   3  18  -1  139.89   28.50
  -3  18   1   77.39   20.60
   2  18  -1 1112.49   67.79
  -2  18   1 1181.38   71.29
   1  18  -1    2.30    9.10
  -1  18   1    5.40    8.20
   0  18  -1  116.19   25.30
   0  18   1  119.09   25.80
  -1  18  -1   45.80   16.20
   1  18   1   84.79   20.80
  -2  18  -1  990.40   65.29
   2  18   1  958.10   61.39
   3  18   1   37.00   16.50
  -3  18  -1   19.20   12.90
   4  18   1  332.17   38.60
  -4  18  -1  213.68   37.80
   3  19  -1   -6.50    6.90
  -3  19   1   11.30    8.60
   2  19  -1  184.88   32.50
  -2  19   1  200.58   35.90
   1  19  -1   20.50   10.90
  -1  19   1   31.30   12.90
   0  19  -1 1473.85   80.39
   0  19   1 1683.13   84.29
   1  19   1  120.29   25.60
  -1  19  -1   93.49   21.40
  -2  19  -1  240.48   40.70
   2  19   1  303.07   34.50
   3  19   1   23.10   13.10
  -3  19  -1   32.20   13.70
   0  20   1    9.00   10.90
   0  20  -1    2.40   11.10
  -9   0   2   -1.00    9.70
  -9   0   2   -1.60    7.30
   8   0  -2 2566.84   96.19
  -8   0   2 2605.44  100.69
  -8   0   2 2547.45   86.59
   7   0  -2    3.10    5.30
  -7   0   2   12.50    9.60
  -7   0   2   -3.90    4.40
   6   0  -2 2892.91   89.79
  -6   0   2 2982.20   85.79
  -5   0   2   16.10    9.60
   5   0  -2   18.90    8.20
  -5   0   2   28.10    8.80
   4   0  -2 3919.71   92.79
  -4   0   2 3893.51   90.39
  -4   0   2 3933.11   93.99
  -3   0   2  497.55   24.00
   3   0  -2  529.05   25.00
  -3   0   2  513.05   24.70
  -2   0   2 2661.53   59.09
   2   0  -2 2842.92   60.19
  -2   0   2 2799.92   58.89
   1   0  -2  164.38    8.90
  -1   0  -2  382.16   14.30
  -1   0  -2  376.56    9.20
   1   0   2  388.56   11.10
  -2   0  -2 4342.77   85.39
   2   0   2 4431.56   78.49
  -2   0  -2 4265.77   75.19
   3   0   2    6.70    3.70
  -3   0  -2    3.30    3.90
  -3   0  -2    0.10    2.50
  -4   0  -2 3605.14   91.19
  -4   0  -2 3497.75   76.99
   4   0   2 3509.25   82.79
  -5   0  -2 1082.09   39.50
   5   0   2 1083.69   57.39
  -5   0  -2 1032.50   48.50
  -6   0  -2 2691.83   90.79
  -6   0  -2 2670.63   73.89
   6   0   2 2901.41   85.89
  -7   0  -2  109.59   16.90
  -7   0  -2  124.29   26.30
   7   0   2  112.09   19.20
  -8   0  -2  365.46   36.90
   8   0   2  308.87   31.20
  -8   0  -2  298.17   25.30
  -9   0  -2  426.36   43.20
  -9   0  -2  453.25   31.70
  -9  -1   2   11.20   11.30
  -9  -1   2   16.20   10.90
  -9   1   2    8.70    8.70
  -9   1   2    3.40    8.70
  -8  -1   2   41.00   14.80
  -8  -1   2   84.99   18.80
   8  -1  -2   78.49   20.20
   8   1  -2   68.49   16.00
  -8   1   2   56.09   14.10
  -8   1   2   60.39   18.00
  -7  -1   2   33.70   12.60
  -7  -1   2   15.50    8.10
  -7   1   2   39.00   13.30
  -7   1   2   26.20   11.40
   7   1  -2   40.70   13.50
  -6  -1   2  854.21   41.80
   6   1  -2  719.93   41.50
  -6   1   2  809.52   42.00
  -6   1   2  960.50   72.19
  -5  -1   2    3.90    4.90
  -5  -1   2   19.30    8.40
   5  -1  -2   33.90   10.00
   5   1  -2   10.00    7.00
  -5   1   2   20.30    7.90
  -5   1   2   30.30   10.20
  -4  -1   2  398.16   25.80
   4  -1  -2  402.36   25.30
  -4  -1   2  399.76   23.80
   4   1  -2  409.16   24.90
  -4   1   2  396.86   25.20
  -4   1   2  386.26   24.20
  -3  -1   2  265.77   18.10
  -3  -1   2  225.98   16.00
   3  -1  -2  261.17   17.70
  -3   1   2  227.88   16.60
   3   1  -2  275.17   17.80
  -3   1   2  229.18   16.80
  -2  -1   2  942.71   29.70
  -2  -1   2  986.90   30.50
   2  -1  -2 1002.20   31.20
   2   1  -2  943.51   30.10
  -2   1   2  968.00   30.60
  -2   1   2  974.70   29.40
  -1  -1   2  733.33   20.50
  -1  -1   2  742.83   21.20
   1  -1  -2  773.82   21.50
   1   1  -2  719.63   21.00
  -1   1   2  765.22   19.20
  -1   1   2  750.62   21.40
  -1  -1  -2   49.30    6.10
   1  -1   2   47.80    5.00
  -1   1  -2   49.80    5.00
   1   1   2   48.30    2.80
  -1   1  -2   57.19    7.80
  -1   1  -2   51.99    4.80
   2  -1   2 1353.46   35.40
  -2  -1  -2 1388.26   38.40
  -2  -1  -2 1366.16   29.20
  -2   1  -2 1363.06   39.30
  -2   1  -2 1291.07   33.10
   2   1   2 1343.57   31.70
  -3  -1  -2  752.52   31.60
   3  -1   2  681.73   27.40
  -3  -1  -2  638.84   22.40
  -3   1  -2  649.43   30.20
  -3   1  -2  636.24   24.90
   3   1   2  686.73   25.80
   4  -1   2  245.98   18.50
  -4  -1  -2  222.18   20.00
  -4  -1  -2  235.68   15.40
   4   1   2  250.57   17.90
  -4   1  -2  238.88   20.60
  -4   1  -2  230.68   16.80
  -5  -1  -2  163.48   14.80
  -5  -1  -2  138.29   20.80
   5  -1   2  148.09   16.90
   5   1   2  171.68   17.20
  -5   1  -2  192.18   27.00
  -5   1  -2  146.49   15.10
  -6  -1  -2  876.41   48.60
   6  -1   2  728.63   40.70
  -6  -1  -2  808.62   35.60
   6   1   2  782.22   41.40
  -6   1  -2  786.92   46.40
  -6   1  -2  850.41   38.60
  -7  -1  -2   13.60    9.30
  -7  -1  -2   13.90    8.20
   7  -1   2    5.50    7.10
  -7   1  -2    2.60    6.60
   7   1   2   14.00    7.70
  -7   1  -2   -3.20    4.70
  -8  -1  -2  270.47   23.00
  -8  -1  -2  297.17   33.70
   8  -1   2  284.07   29.80
  -8   1  -2  235.58   23.00
   8   1   2  232.98   27.00
  -8   1  -2  278.87   40.40
  -9  -1  -2   76.29   21.00
  -9  -1  -2  114.99   18.60
  -9   1  -2   94.79   25.90
  -9   1  -2   98.59   17.80
  -9  -2   2  131.69   23.90
  -9  -2   2  112.09   29.90
  -9   2   2  173.08   28.00
  -9   2   2  135.09   29.80
  -8  -2   2  409.06   32.00
   8  -2  -2  443.96   45.90
  -8  -2   2  401.36   38.30
  -8   2   2  444.26   40.30
   8   2  -2  369.96   34.40
  -8   2   2  478.65   36.30
  -7  -2   2  230.38   23.20
  -7  -2   2  249.08   28.00
  -7   2   2  197.18   22.40
   7   2  -2  251.47   26.80
  -7   2   2  209.58   30.70
   6  -2  -2  822.72   45.00
  -6  -2   2  804.62   39.90
  -6  -2   2  736.03   43.90
   6   2  -2  693.93   40.50
  -6   2   2  699.83   39.70
   5  -2  -2  292.37   24.30
  -5  -2   2  299.97   25.20
  -5  -2   2  282.87   22.00
   5   2  -2  271.07   23.20
  -5   2   2  309.57   24.40
  -5   2   2  367.56   27.70
   4  -2  -2 1075.29   43.60
  -4  -2   2 1108.29   40.70
  -4  -2   2 1106.19   44.40
  -4   2   2 1110.29   43.10
  -4   2   2 1118.39   44.00
   4   2  -2 1093.89   42.40
  -3  -2   2  453.85   24.00
   3  -2  -2  429.86   23.60
  -3  -2   2  409.06   21.50
   3   2  -2  387.36   21.50
  -3   2   2  443.26   23.10
  -3   2   2  384.86   22.20
  -2  -2   2 3162.28   67.39
  -2  -2   2 3042.10   64.79
  -2   2   2 3158.18   65.29
  -2   2   2 3034.30   66.89
   1  -2  -2  795.82   23.20
   1   2  -2  797.22   23.40
  -1   2   2  755.42   23.00
  -1   2   2  771.32   20.80
   0  -2   2  762.42   24.30
   0  -2   2  784.82   20.80
   0   2  -2  818.52   20.90
   0   2   2  773.72   18.50
   0   2  -2  736.33   23.50
  -1  -2  -2  915.71   24.80
   1  -2   2  965.60   26.60
  -1   2  -2  941.61   24.90
  -1   2  -2  955.20   26.10
   1   2   2  880.81   24.00
  -2  -2  -2 1159.78   25.50
   2  -2   2 1175.48   34.60
  -2  -2  -2 1169.18   35.50
  -2   2  -2 1144.39   33.00
  -2   2  -2 1237.48   38.10
   2   2   2 1147.79   28.50
  -3  -2  -2  857.31   34.70
   3  -2   2  924.71   34.20
  -3  -2  -2  847.02   25.60
   3   2   2  917.41   29.90
  -3   2  -2  895.51   36.60
  -3   2  -2  904.01   31.80
  -4  -2  -2  222.38   14.60
   4  -2   2  267.37   20.10
  -4  -2  -2  280.57   22.00
  -4   2  -2  263.17   18.50
  -4   2  -2  221.68   20.30
   4   2   2  236.08   17.30
  -5  -2  -2  257.57   24.20
   5  -2   2  269.67   22.80
  -5  -2  -2  288.17   18.70
  -5   2  -2  279.37   25.20
   5   2   2  258.67   20.80
  -5   2  -2  240.08   19.80
   6  -2   2 1082.09   51.39
  -6  -2  -2 1196.48   58.09
  -6  -2  -2 1120.59   41.90
  -6   2  -2 1234.68   48.60
  -6   2  -2 1143.19   57.19
   6   2   2 1219.08   51.39
   7  -2   2  330.87   30.80
  -7  -2  -2  412.86   26.00
  -7  -2  -2  325.07   32.80
  -7   2  -2  391.26   35.70
  -7   2  -2  472.15   30.90
   7   2   2  360.26   29.90
   8  -2   2   85.39   19.00
  -8  -2  -2   94.09   16.30
  -8  -2  -2   70.79   19.90
  -8   2  -2   96.19   17.60
   8   2   2   77.29   17.90
  -8   2  -2   97.89   24.20
  -9  -2  -2  336.17   38.60
  -9  -2  -2  286.57   24.30
  -9   2  -2  326.97   38.30
  -9   2  -2  311.47   27.90
  -9  -3   2    7.80   10.80
  -9  -3   2   14.90    8.70
  -9   3   2   14.40    9.30
  -9   3   2    5.50   11.90
  -8  -3   2  547.25   36.70
  -8  -3   2  578.64   46.20
   8   3  -2  538.05   43.20
  -8   3   2  585.94   46.10
  -8   3   2  581.54   41.10
  -7  -3   2   69.49   16.10
  -7  -3   2   89.69   21.90
  -7   3   2   62.09   15.40
   7   3  -2   64.89   16.30
  -7   3   2   55.79   16.30
  -6  -3   2 2603.84   77.29
  -6  -3   2 2605.34   88.39
   6  -3  -2 2595.04   86.69
  -6   3   2 2554.14  101.89
  -6   3   2 2660.73   83.29
   6   3  -2 2568.04   83.29
  -5  -3   2  328.17   26.90
   5  -3  -2  329.07   26.40
  -5  -3   2  334.17   23.80
   5   3  -2  296.07   24.00
  -5   3   2  311.47   24.90
  -5   3   2  351.96   27.30
  -4  -3   2 1532.05   54.19
   4  -3  -2 1456.15   52.79
  -4  -3   2 1471.85   48.30
  -4   3   2 1593.04   54.09
   4   3  -2 1506.85   50.99
   3  -3  -2  466.55   25.30
  -3  -3   2  458.25   23.00
  -3  -3   2  416.66   24.20
  -3   3   2  483.25   25.00
  -3   3   2  409.36   23.70
   3   3  -2  442.06   23.30
  -2  -3   2 4191.78   84.09
  -2  -3   2 4446.35   88.99
   2  -3  -2 4258.47   87.69
   2   3  -2 4240.98   84.89
  -2   3   2 4373.26   85.19
  -2   3   2 4217.78   87.79
  -1  -3   2   27.40    6.10
   1  -3  -2   26.90    5.80
  -1   3   2   26.40    6.00
   1   3  -2   13.40    4.00
   0  -3   2 4982.80   87.89
   0  -3   2 4954.10   95.29
   0   3   2 4936.21   86.29
   0   3  -2 5240.68   88.09
   0   3  -2 4829.12   93.99
  -1  -3  -2 1066.29   29.30
   1  -3   2 1134.49   32.90
   1   3   2 1070.29   24.10
  -1   3  -2 1098.59   30.50
  -1   3  -2 1025.90   31.40
  -2  -3  -2 2200.08   42.40
  -2  -3  -2 2249.27   54.79
   2  -3   2 2301.37   55.99
   2   3   2 2281.67   46.60
  -2   3  -2 2198.08   54.19
  -2   3  -2 2277.07   58.69
   3  -3   2 1371.06   45.40
  -3  -3  -2 1410.66   34.90
  -3  -3  -2 1324.97   45.50
  -3   3  -2 1418.36   49.30
  -3   3  -2 1409.06   43.80
   3   3   2 1474.35   40.00
  -4  -3  -2 4437.96   86.99
   4  -3   2 4467.65  103.49
  -4  -3  -2 4344.27  105.49
  -4   3  -2 4621.14  110.59
   4   3   2 4540.05   95.89
  -4   3  -2 4392.46   98.49
   5  -3   2   91.39   17.40
  -5  -3  -2   85.09   18.40
  -5  -3  -2   97.99   13.10
  -5   3  -2   70.09   16.30
  -5   3  -2   77.49   14.50
   5   3   2  103.69   16.80
  -6  -3  -2  975.40   38.80
   6  -3   2  898.51   47.50
  -6  -3  -2  943.81   50.99
   6   3   2  928.11   44.40
  -6   3  -2  973.60   52.69
  -6   3  -2  969.30   44.40
  -7  -3  -2  880.71   53.79
  -7  -3  -2  865.41   37.60
   7  -3   2  847.02   49.10
  -7   3  -2  760.42   50.89
  -7   3  -2  873.41   44.00
   7   3   2  913.91   47.90
  -8  -3  -2 1539.35   54.09
  -8  -3  -2 1437.26   75.09
  -8   3  -2 1542.75   78.29
  -8   3  -2 1451.95   60.69
   8   3   2 1518.75   68.89
  -9  -3  -2  105.39   16.40
  -9  -3  -2   67.69   20.90
  -9   3  -2   95.09   18.90
  -9   3  -2   74.39   24.80
  -9  -4   2  628.84   52.39
  -9  -4   2  692.83   42.70
  -9   4   2  667.13   53.29
  -9   4   2  706.03   48.20
  -8  -4   2  205.08   33.90
  -8  -4   2  221.78   23.80
  -8   4   2  184.58   31.20
  -8   4   2  202.18   28.50
  -7  -4   2  104.89   16.70
  -7  -4   2  123.99   23.50
   7   4  -2  104.09   17.70
  -7   4   2  120.69   21.50
  -7   4   2  184.18   32.80
   6  -4  -2   24.80    9.70
  -6  -4   2   23.60    9.10
  -6  -4   2   31.80   13.40
  -6   4   2   41.30   12.70
   6   4  -2   24.90   10.60
  -6   4   2   17.20    8.50
  -5  -4   2 1023.00   42.50
   5  -4  -2 1041.40   48.40
  -5  -4   2  950.90   47.70
  -5   4   2 1018.80   46.60
   5   4  -2  981.70   44.80
  -5   4   2 1037.50   48.30
  -4  -4   2  774.42   38.70
  -4  -4   2  834.82   35.00
   4  -4  -2  802.42   38.50
   4   4  -2  835.62   37.20
  -4   4   2  792.82   38.20
  -4   4   2  859.01   39.40
  -3  -4   2  114.59   12.20
   3  -4  -2   99.69   14.30
  -3   4   2  112.69   12.80
   3   4  -2  124.29   13.10
  -3   4   2   96.29   13.60
   2  -4  -2  308.17   18.70
  -2  -4   2  278.57   16.60
  -2   4   2  277.37   16.90
  -2   4   2  292.07   18.70
   2   4  -2  259.67   16.40
   1  -4  -2 1537.25   40.70
  -1  -4   2 1462.05   39.60
  -1   4   2 1671.03   43.20
   0  -4   2   79.89   10.80
   0   4   2   70.79    9.30
   0   4  -2   60.09   10.10
   0   4  -2   72.89    8.50
   1  -4   2   71.49   12.10
   1   4   2   73.29    7.00
  -1   4  -2   56.39    8.60
  -1   4  -2   62.09    9.90
  -2  -4  -2  722.83   20.70
  -2  -4  -2  775.62   29.80
   2  -4   2  753.82   30.50
  -2   4  -2  747.53   30.30
   2   4   2  711.43   23.20
  -3  -4  -2 2922.71   84.69
  -3  -4  -2 2939.81   59.29
   3  -4   2 3001.80   75.89
  -3   4  -2 3090.59   80.29
  -3   4  -2 2928.71   73.39
   3   4   2 2895.21   65.19
   4  -4   2 1197.98   47.70
  -4  -4  -2 1221.88   48.80
  -4  -4  -2 1219.48   35.70
  -4   4  -2 1217.28   50.49
  -4   4  -2 1154.28   44.70
   4   4   2 1193.38   41.20
  -5  -4  -2   18.30    8.70
  -5  -4  -2   10.60    5.40
   5  -4   2    8.70    6.50
  -5   4  -2   10.40    7.80
  -5   4  -2   33.50    9.80
   6  -4   2   49.70   15.20
  -6  -4  -2   34.20   11.10
   6   4   2   63.49   14.20
  -6   4  -2   86.29   20.80
  -6   4  -2   91.59   17.40
  -7  -4  -2 1143.19   61.89
  -7  -4  -2 1160.88   43.40
   7  -4   2 1221.28   76.29
   7   4   2 1163.58   54.69
  -7   4  -2 1279.17   55.19
  -7   4  -2 1114.79   62.59
  -8  -4  -2  665.63   33.40
  -8  -4  -2  641.24   49.60
  -8   4  -2  657.83   50.59
  -8   4  -2  638.34   40.00
   8   4   2  533.05   40.00
  -9  -4  -2   -6.20    8.60
  -9  -4  -2   -1.30    6.20
  -9   4  -2   -7.50    7.10
  -9   4  -2   13.40   10.40
  -9  -5   2   75.79   24.30
  -9  -5   2   74.49   18.10
  -9   5   2   69.69   22.90
  -9   5   2   98.89   20.90
  -8  -5   2  203.58   32.80
  -8  -5   2  289.97   26.20
  -8   5   2  304.07   34.20
  -8   5   2  290.97   29.40
  -7  -5   2  974.30   57.49
  -7  -5   2 1043.10   47.70
   7   5  -2  846.72   76.39
  -7   5   2  994.10   57.39
  -7   5   2  976.40   52.69
  -6  -5   2  598.94   41.60
  -6  -5   2  603.24   34.40
   6   5  -2  603.34   37.70
  -6   5   2  661.63   42.30
  -6   5   2  623.24   39.50
  -5  -5   2   10.80    6.90
  -5  -5   2   17.50    9.80
   5  -5  -2   13.00    7.00
   5   5  -2   13.00    7.40
  -5   5   2   18.90    8.60
  -5   5   2   28.90   12.00
  -4  -5   2  608.04   34.60
  -4   5   2  531.45   32.10
   4   5  -2  582.14   31.10
  -4   5   2  585.84   33.10
  -3  -5   2 3430.66   78.69
   3  -5  -2 3498.15   85.59
   3   5  -2 3461.85   81.09
  -3   5   2 3259.37   82.39
  -3   5   2 3334.57   85.49
  -2  -5   2 1063.19   35.70
   2  -5  -2 1113.69   39.20
  -2   5   2 1149.69   40.90
   2   5  -2 1140.29   37.40
   1  -5  -2 1471.55   44.10
  -1  -5   2 1472.35   41.40
   1   5  -2 1504.15   41.80
  -1   5   2 1449.85   43.60
   0  -5   2  353.66   18.50
   0   5  -2  373.96   18.90
   0   5  -2  321.77   21.00
   0   5   2  297.67   17.70
  -1   5  -2 1881.71   49.50
   1   5   2 1880.01   43.60
  -2  -5  -2  224.18   16.80
   2  -5   2  258.57   18.90
  -2   5  -2  244.08   18.40
   2   5   2  228.38   21.40
  -3  -5  -2  547.25   20.90
  -3  -5  -2  569.44   30.00
   3  -5   2  552.54   29.80
  -3   5  -2  540.65   29.00
   3   5   2  517.65   23.60
  -3   5  -2  547.05   31.30
  -4  -5  -2 1402.16   39.30
   4  -5   2 1331.27   54.59
  -4  -5  -2 1423.56   54.39
   4   5   2 1279.17   44.30
  -4   5  -2 1357.26   50.69
  -4   5  -2 1475.85   57.39
   5  -5   2 1107.49   50.49
  -5  -5  -2 1047.10   50.89
  -5  -5  -2 1084.59   36.40
   5   5   2 1058.99   43.90
  -5   5  -2 1161.28   48.70
  -5   5  -2 1018.40   52.19
   6  -5   2   -4.70    4.20
  -6  -5  -2    1.50    7.20
   6   5   2   -2.80    4.50
  -6   5  -2    4.10    5.10
  -6   5  -2   -1.70    6.20
  -7  -5  -2  268.97   20.00
   7  -5   2  247.48   34.30
  -7  -5  -2  257.47   42.90
   7   5   2  251.37   24.80
  -7   5  -2  247.18   25.00
  -8  -5  -2  852.71   58.59
  -8  -5  -2  836.52   37.30
  -8   5  -2  826.62   58.49
   8   5   2  831.82   49.99
  -8   5  -2  858.81   47.90
  -9  -5  -2  344.27   23.90
  -9  -5  -2  268.57   43.30
  -9   5  -2  354.16   40.70
  -9   5  -2  377.96   33.60
  -9  -6   2   70.39   17.00
  -9  -6   2   29.50   12.90
  -9   6   2   56.39   21.10
  -9   6   2   62.19   19.00
  -8  -6   2  701.23   53.29
  -8  -6   2  785.02   42.80
  -8   6   2  729.13   49.30
  -8   6   2  719.43   52.49
  -7  -6   2  114.19   19.90
  -7  -6   2   78.59   28.00
   7   6  -2  127.59   22.00
  -7   6   2  165.88   28.40
  -7   6   2  128.59   27.60
  -6  -6   2  972.50   44.10
  -6  -6   2  999.30   54.39
   6   6  -2  973.80   49.40
  -6   6   2  918.61   49.70
  -6   6   2  999.30   53.59
  -5  -6   2   67.19   12.40
  -5  -6   2   88.59   19.80
   5  -6  -2   86.09   16.80
  -5   6   2  109.69   18.60
   5   6  -2  119.39   19.90
  -5   6   2  110.19   20.40
  -4  -6   2 1217.28   44.70
   4  -6  -2 1195.98   50.39
  -4  -6   2 1221.18   52.59
  -4   6   2 1202.58   50.89
  -4   6   2 1233.28   50.79
   4   6  -2 1253.67   48.20
  -3  -6   2   39.50    8.70
   3  -6  -2   41.30   11.00
  -3   6   2   63.49   13.50
  -3   6   2   61.19   18.60
   3   6  -2   37.40    8.60
  -2  -6   2 1793.32   50.49
   2  -6  -2 1829.02   54.89
   2   6  -2 1837.42   52.19
  -2   6   2 1720.23   55.19
   1  -6  -2  119.09   12.50
   1   6  -2  112.29   11.70
  -1   6   2  126.69   13.30
   0   6   2 1565.74   47.60
   0   6  -2 1560.74   52.09
   0   6  -2 1641.64   46.30
   1  -6   2  215.98   18.30
  -1   6  -2  204.28   17.90
  -1   6  -2  193.28   15.40
   1   6   2  208.18   13.80
   2  -6   2  815.82   36.00
   2   6   2  788.72   28.30
  -2   6  -2  798.22   36.00
   3  -6   2  159.28   17.00
  -3  -6  -2  196.28   12.80
  -3  -6  -2  170.48   17.20
   3   6   2  197.88   15.30
  -3   6  -2  189.18   19.60
  -3   6  -2  185.98   19.00
   4  -6   2  736.53   39.00
  -4  -6  -2  684.53   37.90
  -4  -6  -2  714.33   27.10
  -4   6  -2  730.23   41.30
  -4   6  -2  791.72   39.10
   4   6   2  710.93   32.50
  -5  -6  -2  274.07   17.70
  -5  -6  -2  269.77   26.40
   5  -6   2  285.97   26.30
  -5   6  -2  277.57   25.00
   5   6   2  294.87   23.10
  -6  -6  -2  718.33   46.30
   6  -6   2  794.72   46.50
   6   6   2  774.22   40.90
  -6   6  -2  720.83   41.50
  -6   6  -2  745.63   48.60
   7  -6   2  363.16   33.40
  -7  -6  -2  318.27   33.80
  -7  -6  -2  331.37   21.90
  -7   6  -2  358.06   36.50
   7   6   2  249.08   26.50
  -7   6  -2  392.56   31.70
  -8  -6  -2  226.98   19.20
  -8  -6  -2  191.38   31.80
  -8   6  -2  246.28   32.10
   8   6   2  190.58   29.80
  -8   6  -2  204.58   36.30
  -9  -6  -2  111.79   15.90
  -9  -6  -2   76.89   22.10
  -9   6  -2   86.99   20.30
  -9   6  -2  139.49   31.90
  -9  -7   2  158.88   31.00
  -9  -7   2  194.98   26.90
  -9   7   2  176.58   37.70
  -9   7   2  162.98   26.40
  -8  -7   2   28.30   15.60
  -8  -7   2    5.30    6.80
  -8   7   2   22.20   10.00
  -8   7   2    9.70   10.10
  -7  -7   2 2725.73   82.99
  -7  -7   2 2617.14  101.99
  -7   7   2 2840.32   97.39
   7   7  -2 2732.43   94.69
  -7   7   2 2550.64  101.29
  -6  -7   2   48.40   16.30
  -6  -7   2   75.29   15.30
  -6   7   2   66.39   16.60
  -6   7   2   51.19   15.20
   6   7  -2  102.89   20.30
  -5  -7   2   89.19   15.50
  -5  -7   2   89.49   21.40
   5  -7  -2   65.19   14.20
   5   7  -2   92.79   15.90
  -5   7   2  103.19   21.10
  -5   7   2   99.39   20.20
  -4  -7   2  176.98   17.50
   4  -7  -2  208.28   21.70
   4   7  -2  195.88   19.60
  -4   7   2  202.88   21.00
  -4   7   2  213.18   22.10
   3  -7  -2 4442.06  107.09
  -3  -7   2 4363.56   98.69
  -3   7   2 4505.95  107.39
   3   7  -2 4485.45  102.49
  -3   7   2 4501.45  109.59
   2  -7  -2  491.75   27.80
  -2  -7   2  474.25   25.10
   2   7  -2  461.15   25.60
  -2   7   2  431.16   27.30
   1  -7  -2   19.20    6.80
  -1  -7   2   27.40    7.70
   1   7  -2   23.90    6.90
  -1   7   2   21.70    7.20
   0   7   2   53.29   10.80
   0   7  -2   32.10    8.70
   0   7  -2   23.00    6.30
   1  -7   2 7692.33  155.38
  -1   7  -2 7520.85  153.28
  -1   7  -2 7634.44  144.89
   1   7   2 7532.25  137.19
   2  -7   2  386.96   25.70
  -2   7  -2  340.67   25.00
   2   7   2  401.56   21.20
  -3  -7  -2    8.10    4.40
   3   7   2    2.70    4.00
  -3   7  -2    1.70    4.90
   4  -7   2   46.30   11.10
  -4  -7  -2   57.59   14.80
  -4  -7  -2   55.09    9.10
  -4   7  -2   49.30   13.50
  -4   7  -2   35.70   13.30
   4   7   2   53.29   10.70
  -5  -7  -2 2679.73   90.09
  -5  -7  -2 2869.61   67.79
   5  -7   2 2773.12   90.59
  -5   7  -2 2946.01   88.99
   5   7   2 2763.32   79.79
  -5   7  -2 2916.71   96.69
  -6  -7  -2  582.34   42.10
  -6   7  -2  495.65   35.50
  -6   7  -2  535.45   42.20
   6   7   2  557.44   35.10
  -7  -7  -2  112.69   25.20
   7  -7   2  161.98   25.40
  -7  -7  -2  123.39   13.50
  -7   7  -2   93.49   20.80
  -7   7  -2   97.29   19.60
   7   7   2  137.69   23.40
  -8  -7  -2   33.00    9.40
  -8  -7  -2   23.60   12.90
  -8   7  -2   12.80   12.60
  -8   7  -2   21.60   11.20
  -9  -7  -2  843.02   62.49
  -9  -7  -2  924.31   37.80
  -9   7  -2  918.31   54.19
  -9   7  -2  805.72   62.99
  -9  -8   2  808.92   62.79
  -9   8   2  782.62   54.29
  -9   8   2  737.13   58.29
  -8  -8   2   56.49   19.00
  -8  -8   2   67.79   15.40
  -8   8   2   59.09   17.60
  -8   8   2   57.99   19.90
   7  -8  -2   35.60   13.10
  -7  -8   2   57.79   18.40
  -7  -8   2   35.80   11.30
  -7   8   2   36.00   14.80
   7   8  -2   37.80   12.70
  -7   8   2   28.20   13.60
  -6  -8   2  205.58   30.70
  -6  -8   2  237.68   22.00
  -6   8   2  189.68   28.50
  -6   8   2  230.38   35.20
   6   8  -2  243.78   32.30
  -5  -8   2 1904.31   62.49
   5  -8  -2 1843.92   72.09
  -5   8   2 1922.11   73.79
   5   8  -2 1757.22   66.39
  -4  -8   2   27.00    8.10
   4  -8  -2   24.60   10.10
  -4   8   2    4.10    5.70
  -4   8   2   12.00    8.40
   4   8  -2   34.00   10.30
  -3  -8   2    5.30    5.20
   3  -8  -2    8.70    6.60
  -3   8   2   -1.40    4.50
   3   8  -2   11.10    6.70
   2  -8  -2  967.80   42.00
  -2  -8   2  998.90   39.20
   2   8  -2  990.50   40.20
  -2   8   2  957.70   54.09
  -1  -8   2 3238.88   78.59
   1  -8  -2 3135.39   83.09
   1   8  -2 3104.59   88.29
   1   8  -2 3199.08   78.69
  -1   8   2 3106.99   83.79
   0   8   2  146.89   15.70
   0   8  -2  147.69   17.10
   0   8  -2  138.49   14.80
   1  -8   2   38.20    9.70
  -1   8  -2   22.00    8.40
   1   8   2   27.60    7.30
   1   8   2   32.90    9.60
  -1   8  -2   26.00    8.80
   2  -8   2  778.92   39.70
   2   8   2  874.31   34.10
  -2   8  -2  778.12   40.10
   3  -8   2 2753.92   82.99
   3   8   2 2597.84   69.79
  -3   8  -2 2812.72   84.79
   4  -8   2  157.68   23.80
  -4  -8  -2  148.49   13.30
  -4   8  -2  149.09   24.80
   4   8   2  161.58   17.00
  -4   8  -2  185.38   21.50
  -5  -8  -2  101.69   19.90
  -5  -8  -2  156.68   14.20
  -5   8  -2  210.88   28.50
  -5   8  -2  135.89   24.00
   5   8   2  171.38   18.90
  -6  -8  -2  103.89   24.40
   6   8   2  136.59   21.90
  -6   8  -2  152.58   24.30
  -6   8  -2   99.79   24.40
  -7  -8  -2  843.52   56.59
  -7  -8  -2  913.71   36.20
   7   8   2  922.61   51.89
  -7   8  -2  908.11   59.69
  -7   8  -2  875.91   50.69
  -8  -8  -2  121.69   14.30
  -8  -8  -2   98.89   23.60
  -8   8  -2  135.09   23.20
  -8   8  -2  127.69   27.40
  -8  -9   2   -1.50    5.40
  -8   9   2   -6.00    6.30
  -8   9   2   24.00   14.40
  -7  -9   2  235.58   22.80
  -7   9   2  246.18   44.60
   7   9  -2  292.87   44.80
  -7   9   2  206.68   35.20
  -6  -9   2   62.39   13.80
  -6   9   2   53.09   16.70
   6   9  -2   49.50   15.90
  -6   9   2   64.29   18.00
   5  -9  -2   46.50   12.90
  -5  -9   2   38.80   11.10
   5   9  -2   15.00    9.10
  -5   9   2   35.10   11.60
  -5   9   2   52.89   15.50
  -4  -9   2   36.70   11.00
   4  -9  -2   24.50   10.20
  -4   9   2   51.39   14.60
  -4   9   2   29.20   11.60
   4   9  -2   31.80   10.40
  -3  -9   2 1070.09   43.50
   3  -9  -2 1078.29   48.90
  -3   9   2 1091.09   51.79
   3   9  -2 1102.99   46.40
  -2  -9   2  187.28   17.70
   2  -9  -2  191.78   19.40
   2   9  -2  217.98   19.30
  -2   9   2  212.38   21.60
   1  -9  -2   28.50    8.80
  -1   9   2   39.30   13.60
   1   9  -2   37.80   10.70
   1   9  -2   34.10   11.00
   0   9   2  119.99   19.30
   0   9  -2  138.39   20.80
   0   9  -2   79.89   12.80
   0   9   2   95.99   14.00
   1  -9   2  729.43   40.80
   1   9   2  661.33   31.10
  -1   9  -2  645.14   39.80
   1   9   2  719.43   37.20
  -1   9  -2  716.63   39.50
   2  -9   2  339.37   27.30
   2   9   2  362.26   22.90
  -2   9  -2  284.97   23.30
  -2   9  -2  330.37   27.60
   3  -9   2    3.50    6.00
   3   9   2   -2.70    4.60
  -3   9  -2   -2.00    4.60
   4  -9   2   15.70    8.30
  -4   9  -2   -5.80    4.70
  -4   9  -2    6.80    6.40
   4   9   2   13.50    7.40
  -5  -9  -2  658.43   29.10
  -5   9  -2  629.24   45.30
  -5   9  -2  673.73   42.80
   5   9   2  668.83   37.70
  -6  -9  -2  118.29   24.90
  -6  -9  -2  133.09   14.60
  -6   9  -2  152.98   35.30
  -6   9  -2  116.99   22.10
   6   9   2   86.29   18.00
  -7  -9  -2    8.80    9.60
  -7  -9  -2   15.00    6.90
  -7   9  -2    5.00    8.00
   7   9   2    5.90    8.60
  -7   9  -2   17.40   13.60
  -8  -9  -2   -2.90    8.90
  -8  -9  -2    7.00    6.00
  -8   9  -2   21.80   11.40
  -8   9  -2   22.60   12.50
  -8 -10   2   13.80    8.00
  -8  10   2   16.40   13.40
  -8  10   2   13.40   11.10
  -7 -10   2   52.09   13.70
  -7  10   2   64.69   20.00
  -7  10   2   55.19   17.00
   6 -10  -2   19.90   11.80
  -6 -10   2   27.10   10.20
  -6  10   2   53.09   14.60
   6  10  -2   40.30   14.20
  -6  10   2   19.00   11.90
  -5 -10   2 4820.32  115.59
   5 -10  -2 4530.95  130.49
  -5  10   2 4775.22  135.29
   5  10  -2 4755.52  125.29
  -5  10   2 4827.72  134.99
   4 -10  -2  211.08   23.60
  -4 -10   2  198.68   20.20
  -4  10   2  231.48   25.90
   4  10  -2  219.38   22.50
  -4  10   2  222.28   25.80
   3 -10  -2   -0.90    3.50
  -3 -10   2    9.70    6.40
  -3  10   2   -0.10    5.50
   3  10  -2   -3.70    2.90
   2 -10  -2  269.17   25.40
  -2 -10   2  282.77   22.70
   2  10  -2  311.77   24.30
  -2  10   2  281.37   26.40
   1 -10  -2 4876.01  118.39
   1  10  -2 4700.43  111.09
   1  10  -2 4836.02  125.49
  -1  10   2 4740.93  119.29
   0  10   2  445.76   30.20
   0  10  -2  472.85   33.40
   0  10  -2  491.35   29.80
   0  10   2  452.45   28.20
   1 -10   2   32.00   11.40
  -1  10  -2   14.10    7.30
   1  10   2    8.20    5.50
  -1  10  -2   20.00    9.20
   2 -10   2  866.91   47.20
  -2  10  -2  929.01   48.60
  -2  10  -2  958.70   44.50
   2  10   2  826.82   58.59
   3 -10   2 2967.70   94.09
  -3  10  -2 3040.40   96.49
   3  10   2 3005.90   81.99
  -4  10  -2  560.84   39.60
   4  10   2  485.95   31.20
  -4  10  -2  513.15   40.10
  -5  10  -2  186.08   27.90
  -5  10  -2  136.69   25.40
   5  10   2  172.28   20.40
  -6 -10  -2  540.55   27.10
   6  10   2  565.14   37.60
  -6  10  -2  527.45   45.10
  -6  10  -2  542.45   41.30
  -7 -10  -2 1912.01   54.99
  -7  10  -2 1844.32   91.39
   7  10   2 1842.32   76.89
  -7  10  -2 1985.70   83.99
  -8 -10  -2  511.45   26.00
  -8  10  -2  528.65   42.40
  -8  10  -2  527.15   50.69
  -8 -11   2   14.40    9.10
  -8  11   2   21.80   15.00
  -8  11   2   39.00   17.20
  -7 -11   2  628.54   38.80
  -7  11   2  683.03   51.09
  -7  11   2  763.62   55.59
  -6 -11   2  217.28   22.60
   6 -11  -2  134.59   23.20
  -6  11   2  222.28   52.79
   6  11  -2  215.88   24.90
  -6  11   2  157.98   28.70
  -5 -11   2   35.80   11.10
  -5  11   2   40.60   13.90
  -5  11   2   40.80   13.00
   5  11  -2   24.30    9.80
   4 -11  -2   42.30   14.00
  -4 -11   2   51.39   13.30
  -4  11   2   26.70   11.90
  -4  11   2   35.80   12.10
   4  11  -2   35.00   12.70
  -3 -11   2 1358.66   52.89
   3 -11  -2 1342.37   59.49
  -3  11   2 1302.47   61.79
   3  11  -2 1280.57   54.79
   2 -11  -2  547.15   36.80
  -2  11   2  610.54   39.70
   2  11  -2  552.54   33.90
   1  11  -2   17.50    7.80
   1  11  -2   22.00   10.10
  -1  11   2   32.20   11.80
   0  11  -2    7.80    5.50
   0  11   2    0.90    5.30
   0  11   2   11.10    6.60
   0  11  -2   12.60    8.50
   1  11   2 1178.48   47.20
  -1  11  -2 1218.18   51.09
   1  11   2 1118.29   52.29
  -1  11  -2 1178.18   56.79
   2 -11   2  535.15   38.70
  -2  11  -2  421.46   34.20
  -2  11  -2  451.25   31.70
   2  11   2  479.55   29.90
   3 -11   2    1.60    5.90
   3  11   2   10.00    6.60
  -3  11  -2   32.00   10.90
  -3  11  -2   17.90    9.30
  -4  11  -2   11.60    9.40
   4  11   2   28.60   10.90
  -5  11  -2  932.81   59.19
   5  11   2  787.82   44.40
  -5  11  -2  944.41   55.49
  -6  11  -2  102.39   24.90
  -6  11  -2   85.99   19.80
   6  11   2  135.79   23.20
  -7  11  -2   -6.00    6.60
  -7  11  -2   -0.20    6.60
  -8  11  -2   20.80   15.70
  -8  11  -2   29.50   13.50
  -7 -12   2   10.20    8.40
  -7  12   2   15.10   11.80
  -7  12   2   30.70   17.20
  -6 -12   2  161.18   23.80
  -6  12   2  140.39   25.20
  -6  12   2  182.98   31.80
  -5 -12   2  643.44   38.00
  -5  12   2  722.33   50.49
   5  12  -2  671.93   44.80
  -5  12   2  624.84   46.50
   4 -12  -2   46.50   13.30
  -4 -12   2   55.69   13.80
   4  12  -2   46.30   12.10
  -4  12   2   43.90   14.20
  -4  12   2   57.99   17.30
   3 -12  -2   90.99   18.80
  -3 -12   2   75.89   14.90
   3  12  -2   85.89   16.60
  -3  12   2   63.29   17.60
   2 -12  -2  432.76   34.20
  -2  12   2  511.75   37.80
   2  12  -2  449.46   31.80
   2  12  -2  427.16   36.00
  -1  12   2  793.02   46.20
   1  12  -2  800.42   48.20
  -1  12   2  780.52   41.20
   1  12  -2  784.32   41.40
   0  12  -2   54.99   12.90
   0  12  -2   99.39   21.90
   0  12   2   85.19   18.20
   0  12   2   82.29   16.60
  -1  12  -2   40.00   10.50
   1  12   2   66.09   15.00
   1  12   2   67.89   15.10
  -1  12  -2   85.59   21.20
   2 -12   2  702.03   46.50
   2  12   2  693.33   42.80
  -2  12  -2  708.13   45.60
   2  12   2  746.23   39.30
  -2  12  -2  631.34   39.20
   3 -12   2  567.84   41.40
  -3  12  -2  579.24   38.20
   3  12   2  534.55   34.10
  -3  12  -2  566.24   41.80
  -4  12  -2   10.40    6.00
   4  12   2    7.50    7.00
  -4  12  -2    3.30    6.80
  -5  12  -2   47.30   17.20
  -5  12  -2   95.39   22.50
   5  12   2  122.09   21.80
   6  12   2  324.67   30.40
  -6  12  -2  297.77   44.50
  -6  12  -2  327.47   34.40
  -7  12  -2  195.98   35.60
  -7  12  -2  282.97   33.30
  -7 -13   2 1635.44   65.69
  -7  13   2 1704.43   88.79
  -7  13   2 1860.11   90.29
  -6 -13   2    2.90    6.70
  -6  13   2    6.90    8.80
  -6  13   2   11.70   12.40
   5 -13  -2   75.29   18.30
  -5 -13   2   91.89   18.20
   5  13  -2   69.69   17.30
  -5  13   2  111.99   40.20
  -4 -13   2   75.49   16.30
   4  13  -2   71.69   16.50
  -4  13   2   53.49   17.20
   3 -13  -2 2703.23   95.29
  -3  13   2 2601.44   96.59
   3  13  -2 2559.44   86.59
   2 -13  -2  144.19   26.00
   2  13  -2  128.09   20.30
   2  13  -2  154.18   25.70
  -2  13   2  149.59   27.10
   1  13  -2   80.29   19.90
  -1  13   2   50.69   14.80
   1  13  -2   63.49   15.50
  -1  13   2   36.40   10.80
   0  13  -2   89.59   20.80
   0  13   2   40.80   10.90
   0  13   2   72.79   18.20
  -1  13  -2 2537.15   93.09
   1  13   2 2620.34   89.19
   1  13   2 2496.65   79.69
   2 -13   2  163.58   26.30
  -2  13  -2  229.28   34.20
   2  13   2  122.89   19.60
   2  13   2  141.39   23.50
   3 -13   2   10.10    8.10
  -3  13  -2   31.00   13.80
   3  13   2   51.09   12.40
   4 -13   2  -11.80    6.90
  -4  13  -2   13.90    9.80
   4  13   2    7.40    7.90
  -5  13  -2 1711.13   99.59
   5  13   2 1585.54   68.99
  -5  13  -2 1654.03   73.69
  -5  13  -2 1765.12   87.89
  -6  13  -2  221.98   40.20
  -6  13  -2  203.38   34.10
  -7  13  -2  165.58   30.40
  -7  13  -2  106.49   30.10
  -7 -14   2   54.89   14.10
  -7  14   2   18.30   13.10
  -7  14   2   25.40   17.00
  -6 -14   2  208.18   23.30
  -6  14   2  179.68   29.50
  -6  14   2  124.89   28.70
  -5 -14   2  265.97   25.30
  -5  14   2  297.77   34.50
  -5  14   2  286.77   42.90
  -4  14   2  546.35   44.80
   4  14  -2  489.65   38.20
   3 -14  -2   56.29   14.40
   3  14  -2   85.69   17.60
  -3  14   2   45.00   15.80
   3  14  -2   61.89   17.30
   2  14  -2  223.18   24.70
   2  14  -2  243.98   28.50
  -2  14   2  298.67   30.90
  -1  14   2  346.67   29.50
   1  14  -2  246.58   25.30
   1  14  -2  436.56   36.90
  -1  14   2  377.56   33.40
   0  14  -2  663.03   45.90
   0  14   2  674.43   43.70
   0  14   2  601.04   38.20
   1  14   2  226.38   26.10
  -1  14  -2  202.68   32.00
   1  14   2  182.28   24.90
   2  14   2  347.57   32.50
   2  14   2  303.37   27.10
  -2  14  -2  284.77   31.40
   3  14   2  676.93   41.40
   3  14   2  667.63   46.30
  -3  14  -2  524.75   57.19
  -3  14  -2  622.14   47.30
   4 -14   2  623.04   48.70
  -4  14  -2  561.34   46.90
   4  14   2  546.85   47.00
  -4  14  -2  608.44   43.10
  -5  14  -2  364.86   38.70
  -5  14  -2  210.88   37.90
   5  14   2  280.87   29.30
  -6  14  -2  254.47   38.90
  -6  14  -2  241.18   42.20
  -6  15   2  222.88   35.30
  -6  15   2  231.18   38.70
  -5  15   2   24.40   14.20
  -5  15   2   23.70   12.70
   4 -15  -2  972.50   59.79
  -4  15   2  810.92   57.79
   3  15  -2  597.24   42.10
   3  15  -2  534.65   45.30
  -3  15   2  535.55   44.30
  -2  15   2  361.96   34.70
  -2  15   2  324.37   30.30
   2  15  -2  318.47   29.80
   2  15  -2  357.16   35.70
  -1  15   2  132.29   28.80
   1  15  -2  111.99   19.10
  -1  15   2   87.59   18.40
   1  15  -2  115.49   22.30
   0  15  -2  933.11   56.19
   0  15   2  891.11   48.80
   0  15   2  857.71   51.79
  -1  15  -2  495.35   41.90
   1  15   2  447.76   34.30
   1  15   2  508.55   39.10
   2  15   2  506.95   40.40
   2  15   2  473.65   36.40
  -2  15  -2  472.95   41.30
   3 -15   2   64.09   19.40
  -3  15  -2   62.89   19.30
   3  15   2   22.00   11.30
  -3  15  -2   11.50    8.30
   3  15   2   23.20   12.30
  -4  15  -2  888.71   60.59
   4  15   2  856.41   50.19
  -5  15  -2  146.19   30.70
  -5  15  -2   67.69   21.70
  -6  15  -2   80.19   22.90
  -6  15  -2   42.80   19.20
  -5  16   2  543.55   50.29
  -5  16   2  597.34   51.69
   4  16  -2   85.29   20.80
  -4  16   2   81.09   23.10
   3 -16  -2    9.10   11.90
  -3  16   2   -7.70    5.30
   2  16  -2    6.30    9.00
   2  16  -2   -6.60   10.10
  -2  16   2   -7.50    4.80
   1  16  -2  883.81   56.69
  -1  16   2  835.52   53.79
  -1  16   2  894.81   51.59
   1  16  -2  856.71   50.79
   0  16  -2   89.79   22.50
   0  16  -2   92.29   19.00
   0  16   2  144.49   27.20
   0  16   2  113.19   22.90
   1  16   2   12.80    8.70
   1  16   2    3.30    6.90
  -1  16  -2   25.70   11.70
   2  16   2   33.30   10.10
  -2  16  -2   -6.70   12.50
   2  16   2   -2.00    6.60
   3  16   2  501.35   38.40
   3  16   2  445.36   40.20
  -3  16  -2  459.55   43.50
  -4  16  -2  180.68   34.80
   4  16   2  229.18   37.40
  -5  16  -2   18.10   12.90
  -5  16  -2    4.20   10.80
  -5  17   2  111.59   26.10
   5  17  -2  112.89   26.30
  -5  17   2  114.39   28.50
  -4  17   2  450.25   45.70
   4  17  -2  487.15   46.70
   3  17  -2    6.20   11.40
  -3  17   2   42.30   17.80
   2  17  -2 1428.56   75.49
  -2  17   2 1328.87   73.39
   1  17  -2  150.08   28.30
  -1  17   2  129.49   41.00
   0  17  -2  940.81   60.29
   0  17   2  917.71   57.39
  -1  17  -2  148.19   29.20
   1  17   2  168.48   29.30
  -2  17  -2  635.24   50.79
   2  17   2  687.83   49.90
  -3  17  -2  114.09   27.40
   4  17   2  770.52   56.29
  -4  17  -2  698.03   57.59
  -5  17  -2   27.70   16.00
  -5  17  -2   48.80   17.70
  -4  18   2  623.84   53.29
   4  18  -2  544.95   51.19
   3  18  -2   69.79   19.10
  -3  18   2   60.09   20.30
   2  18  -2  764.72   55.99
  -2  18   2  784.92   57.29
   1  18  -2   33.20   15.10
  -1  18   2   20.20   10.80
   0  18  -2  576.64   48.40
   0  18   2  555.34   45.10
   1  18   2  211.58   32.50
  -1  18  -2  143.99   26.90
  -2  18  -2  631.64   52.29
   2  18   2  556.64   45.80
  -3  18  -2   32.60   15.00
   3  18   2   30.30   15.00
   4  18   2   95.69   24.70
  -4  18  -2  109.59   26.10
  -3  19   2   40.40   17.50
   3  19  -2   32.40   12.10
  -2  19   2  -15.80    7.00
   2  19  -2    7.20    8.10
  -1  19   2   17.90   11.50
   1  19  -2  -12.10    8.40
   0  19   2   88.79   22.10
   0  19  -2   93.69   22.70
  -1  19  -2   19.70   14.40
   1  19   2   -4.00    5.60
   2  19   2   71.09   20.50
  -2  19  -2   37.30   18.80
  -3  19  -2   24.70   13.70
   3  19   2   18.20   12.20
   0  20  -2  613.44   52.29
   0  20   2  643.24   52.09
  -9   0   3   -6.40    7.40
  -9   0   3   -7.60    5.10
  -8   0   3   -7.90    4.80
  -8   0   3    6.30    6.80
   8   0  -3  -16.60    5.60
   7   0  -3   -3.20    6.30
  -7   0   3    4.10    6.00
  -7   0   3   -0.60    5.90
  -6   0   3   -4.70    5.10
   6   0  -3   -2.00    3.90
  -6   0   3   14.90    7.50
  -5   0   3    0.70    4.50
   5   0  -3   -2.00    3.40
  -5   0   3   -1.50    4.80
  -4   0   3    4.90    4.50
   4   0  -3    2.20    4.50
  -4   0   3   -7.30    3.00
  -3   0   3    2.10    3.50
  -3   0   3   -2.00    3.20
   3   0  -3   -2.80    3.00
   2   0  -3    1.70    2.80
  -2   0   3    0.20    2.90
  -2   0   3   -5.10    2.20
   1   0  -3   -2.30    1.90
  -1   0   3   -1.50    1.70
   0   0  -3   -0.60    0.40
   0   0   3    0.70    1.20
   0   0  -3    2.60    1.40
  -1   0  -3    2.40    2.60
   1   0   3    2.90    1.90
  -2   0  -3    0.10    1.70
   2   0   3    0.80    2.30
  -2   0  -3    4.80    3.40
  -3   0  -3    0.90    2.30
  -3   0  -3    6.00    5.20
   3   0   3   -3.00    2.20
   4   0   3    4.00    3.70
  -4   0  -3    7.70    4.40
  -4   0  -3    0.70    3.80
   5   0   3    0.70    3.40
  -5   0  -3   -2.40    3.70
  -5   0  -3   -0.50    5.40
  -6   0  -3    4.00    5.30
  -6   0  -3   -5.40    5.40
   6   0   3    8.40    7.00
  -7   0  -3    4.60    5.40
  -7   0  -3    2.60    6.70
   7   0   3    4.20    6.80
  -8   0  -3    3.60    7.40
   8   0   3   -4.50    7.70
  -8   0  -3    0.90    4.60
  -9   0  -3   -4.50    4.60
  -9   0  -3    0.40    7.70
  -9  -1   3    3.80    8.60
  -9   1   3   11.70    9.10
  -9   1   3    6.00    8.00
  -8  -1   3  780.62   46.00
   8  -1  -3  762.32   64.39
  -8  -1   3  739.23   51.59
   8   1  -3  771.32   54.39
  -8   1   3  722.23   51.29
  -8   1   3  772.22   46.70
  -7  -1   3  358.16   29.10
  -7  -1   3  367.76   33.50
  -7   1   3  359.46   32.70
  -7   1   3  331.67   29.10
   6  -1  -3 2593.64   84.79
  -6  -1   3 2561.54   79.79
  -6   1   3 2639.74   87.39
  -6   1   3 2540.65   80.69
   6   1  -3 2628.64   84.79
   5  -1  -3   -1.90    4.30
  -5  -1   3    0.40    4.60
  -5  -1   3   -1.50    4.20
  -5   1   3   -2.90    5.20
   5   1  -3    6.30    5.30
  -5   1   3    5.50    5.00
   4  -1  -3  695.73   33.90
  -4  -1   3  690.73   32.60
  -4  -1   3  721.53   34.50
  -4   1   3  666.43   32.80
  -4   1   3  698.53   33.70
   4   1  -3  756.02   34.60
   3  -1  -3 2675.63   66.69
  -3  -1   3 2544.05   64.39
  -3  -1   3 2634.54   65.49
   3   1  -3 2659.13   66.19
  -3   1   3 2698.83   64.79
  -3   1   3 2689.23   66.59
   2  -1  -3 5563.44  104.29
  -2  -1   3 5674.33  103.99
  -2  -1   3 5774.22  102.89
  -2   1   3 5611.04   99.99
  -2   1   3 5425.96  103.49
  -1  -1   3  381.16   15.60
   1  -1  -3  402.16   15.20
  -1   1   3  410.86   15.70
   1   1  -3  387.26   15.60
  -1   1   3  381.36   11.90
   0  -1   3   41.80    5.50
   0  -1   3   49.99    4.70
   0   1  -3   45.80    4.40
   0   1  -3   47.40    5.30
   1  -1   3 1144.79   26.80
   1  -1   3 1180.78   26.30
  -1  -1  -3 1132.19   27.90
  -1   1  -3 1181.18   31.00
  -1   1  -3 1139.09   25.10
  -1   1  -3 1147.29   24.10
  -2  -1  -3 4498.65   69.89
   2  -1   3 4545.55   83.59
  -2  -1  -3 4559.54   88.39
  -2   1  -3 4359.86   78.99
   2   1   3 4594.94   77.29
  -2   1  -3 4511.45   90.29
  -3  -1  -3  128.29    8.70
   3  -1   3  119.89   11.40
  -3  -1  -3  111.09   12.70
  -3   1  -3  135.19   13.90
   3   1   3  142.29   13.40
  -3   1  -3  131.59   10.70
  -4  -1  -3   60.09    9.10
  -4  -1  -3   63.79   13.60
   4  -1   3   57.69   11.00
  -4   1  -3   75.49   16.40
  -4   1  -3   76.19   11.80
   4   1   3   61.29   11.00
  -5  -1  -3  615.74   26.90
  -5  -1  -3  672.93   38.50
   5  -1   3  605.14   40.90
  -5   1  -3  656.53   30.10
   5   1   3  615.94   32.50
  -5   1  -3  692.83   39.80
  -6  -1  -3 1420.76   63.19
   6  -1   3 1448.66   58.59
  -6   1  -3 1409.26   63.59
   6   1   3 1433.96   56.79
  -6   1  -3 1407.66   49.40
  -7  -1  -3  517.75   28.40
   7  -1   3  499.05   37.20
  -7  -1  -3  548.75   41.80
   7   1   3  472.65   35.00
  -7   1  -3  532.45   41.80
  -7   1  -3  505.75   30.40
  -8  -1  -3    9.00    9.20
  -8  -1  -3    5.00    6.20
   8  -1   3    4.60    6.50
  -8   1  -3    7.90    6.90
  -8   1  -3   -3.60    6.90
   8   1   3   17.60    6.90
  -9  -1  -3  460.65   44.80
  -9  -1  -3  454.95   29.20
  -9   1  -3  508.75   32.70
  -9   1  -3  430.76   43.50
  -9  -2   3   28.50   14.70
  -9  -2   3   48.50   13.40
  -9   2   3   39.30   14.90
  -9   2   3   54.99   20.00
  -8  -2   3 1017.80   61.09
  -8  -2   3  956.80   50.89
  -8   2   3 1043.80   55.09
  -8   2   3 1017.20   60.49
   8   2  -3  994.00   67.89
  -7  -2   3  311.17   30.90
  -7  -2   3  303.67   27.00
  -7   2   3  299.07   30.30
   7   2  -3  216.88   25.50
  -7   2   3  330.47   29.20
  -6  -2   3 1068.39   48.00
   6  -2  -3 1001.50   50.79
  -6  -2   3 1078.49   54.19
   6   2  -3 1054.59   50.89
  -6   2   3 1117.59   57.69
  -6   2   3 1062.89   50.09
   5  -2  -3  157.28   22.30
  -5  -2   3  149.29   22.00
  -5  -2   3  180.08   18.50
  -5   2   3  164.48   18.70
  -5   2   3  164.88   18.50
   5   2  -3  180.68   19.60
  -4  -2   3 2096.99   63.79
  -4  -2   3 2085.49   60.59
   4  -2  -3 1980.40   62.69
  -4   2   3 1999.30   61.69
   4   2  -3 2042.90   62.09
   3  -2  -3  861.21   34.80
  -3  -2   3  927.81   34.40
  -3  -2   3  930.21   35.30
   3   2  -3  925.61   35.10
  -3   2   3  843.02   32.50
  -3   2   3  901.61   35.00
  -2  -2   3  987.50   32.10
  -2  -2   3  992.80   32.20
  -2   2   3  999.90   29.80
   2   2  -3  986.80   32.30
  -2   2   3  963.70   32.40
   1  -2  -3 3407.66   63.09
  -1  -2   3 3184.88   64.19
  -1   2   3 3376.76   64.19
   1   2  -3 3417.96   65.19
  -1   2   3 3237.18   61.09
   0  -2   3 4782.52   90.29
   0  -2   3 4906.81   83.89
   0   2  -3 4872.61   88.89
   0   2  -3 5007.30   83.79
   0   2   3 4896.81   76.99
   1  -2   3  550.74   18.90
  -1  -2  -3  566.14   18.40
   1  -2   3  556.84   19.80
  -1   2  -3  523.45   18.70
  -1   2  -3  573.94   18.30
  -2  -2  -3  422.56   20.10
   2  -2   3  413.46   19.40
   2   2   3  428.06   14.30
  -2   2  -3  418.16   18.00
  -2   2  -3  423.36   21.90
  -3  -2  -3  528.35   26.70
   3  -2   3  491.85   24.40
  -3  -2  -3  498.15   16.30
  -3   2  -3  478.05   21.90
  -3   2  -3  498.75   27.20
   4  -2   3 3207.88   81.09
  -4  -2  -3 3235.88   65.49
  -4  -2  -3 3209.78   85.49
  -4   2  -3 3236.68   87.79
  -4   2  -3 3136.79   74.29
   4   2   3 3217.98   74.89
  -5  -2  -3  926.61   32.40
  -5  -2  -3  942.91   46.30
   5  -2   3  895.71   41.90
   5   2   3  902.81   38.70
  -5   2  -3  966.40   38.80
  -5   2  -3  971.00   48.00
  -6  -2  -3  294.67   19.50
  -6  -2  -3  286.87   28.60
   6  -2   3  224.18   23.40
   6   2   3  287.77   24.50
  -6   2  -3  312.27   23.60
  -6   2  -3  273.27   28.50
  -7  -2  -3  214.78   17.90
   7  -2   3  256.17   27.10
  -7  -2  -3  213.58   32.90
   7   2   3  276.77   25.90
  -7   2  -3  270.07   30.10
  -7   2  -3  246.28   22.00
  -8  -2  -3 1302.27   47.60
   8  -2   3 1259.77   64.99
  -8  -2  -3 1377.96   72.69
  -8   2  -3 1231.38   52.49
  -8   2  -3 1218.08   69.39
   8   2   3 1267.57   62.39
  -9  -2  -3  589.14   32.50
  -9  -2  -3  494.55   47.50
  -9   2  -3  576.84   36.40
  -9   2  -3  604.64   51.99
  -9  -3   3  455.95   44.40
  -9  -3   3  494.85   37.10
  -9   3   3  448.36   43.30
  -9   3   3  438.46   37.60
  -8  -3   3   63.39   21.00
  -8  -3   3   60.59   14.70
  -8   3   3   82.29   22.60
  -8   3   3   57.39   15.90
  -7  -3   3  102.39   22.80
  -7  -3   3   98.49   18.40
  -7   3   3  109.09   22.70
  -7   3   3  107.79   22.30
   7   3  -3   97.79   17.60
  -6  -3   3  438.06   34.00
  -6  -3   3  399.16   29.00
   6  -3  -3  433.06   33.00
  -6   3   3  309.27   49.50
   6   3  -3  398.96   31.00
  -6   3   3  412.36   31.30
  -5  -3   3  497.95   29.90
   5  -3  -3  465.85   31.80
  -5  -3   3  521.65   34.20
  -5   3   3  450.85   30.70
   5   3  -3  484.65   30.90
  -5   3   3  514.95   32.30
  -4  -3   3   73.59   14.10
   4  -3  -3  114.59   18.30
  -4  -3   3   84.99   14.20
   4   3  -3   77.39   12.80
  -4   3   3   98.29   16.00
  -4   3   3  119.09   18.60
   3  -3  -3  269.27   19.40
  -3  -3   3  267.57   18.20
  -3  -3   3  293.47   20.10
   3   3  -3  237.88   17.70
  -3   3   3  225.28   18.10
  -3   3   3  297.77   18.90
  -2  -3   3  610.44   25.30
   2  -3  -3  653.13   26.80
  -2  -3   3  636.54   26.70
  -2   3   3  644.84   24.00
   2   3  -3  634.74   25.80
  -2   3   3  614.14   26.30
   1  -3  -3 1853.91   42.20
  -1  -3   3 1773.62   43.60
  -1   3   3 1803.62   43.30
   1   3  -3 1828.32   44.00
   0  -3   3 2225.38   48.70
   0   3  -3 2282.37   48.70
   0   3   3 2330.07   45.10
   0   3  -3 2251.37   54.39
   1  -3   3 1461.35   39.30
  -1  -3  -3 1394.06   34.30
  -1   3  -3 1411.36   35.80
  -1   3  -3 1362.76   37.60
  -2  -3  -3  125.69   11.50
   2  -3   3  136.39   12.40
   2   3   3  139.49    8.30
  -2   3  -3  113.99   11.00
  -2   3  -3  121.69   12.80
  -3  -3  -3  766.32   20.40
   3  -3   3  737.03   31.90
  -3  -3  -3  744.73   32.60
  -3   3  -3  698.53   39.30
  -3   3  -3  728.13   29.50
   3   3   3  760.32   26.90
   4  -3   3  667.83   33.30
  -4  -3  -3  610.04   33.60
  -4  -3  -3  674.13   23.00
   4   3   3  647.94   28.20
  -4   3  -3  625.04   35.50
  -4   3  -3  704.93   31.30
   5  -3   3  488.75   31.20
  -5  -3  -3  507.15   33.90
  -5  -3  -3  447.06   21.20
  -5   3  -3  471.15   34.00
  -5   3  -3  487.45   28.10
   5   3   3  458.85   27.10
   6  -3   3   34.70   10.00
  -6  -3  -3   43.50    9.30
  -6  -3  -3   48.30   14.30
   6   3   3   47.40   10.80
  -6   3  -3   48.30   12.10
  -6   3  -3   38.80   13.60
  -7  -3  -3  564.54   28.20
   7  -3   3  547.35   38.60
  -7  -3  -3  616.24   44.40
  -7   3  -3  456.85   40.20
   7   3   3  578.14   37.00
  -7   3  -3  559.84   34.00
  -8  -3  -3  246.68   19.40
  -8  -3  -3  257.47   38.90
   8   3   3  238.38   26.70
  -8   3  -3  255.27   24.10
  -8   3  -3  148.39   29.20
  -9  -3  -3  185.18   17.60
  -9  -3  -3  129.19   25.80
  -9   3  -3  160.78   22.70
  -9   3  -3  232.38   41.90
  -9  -4   3  156.08   34.10
  -9  -4   3  133.69   23.40
  -9   4   3  121.09   23.80
  -9   4   3  164.08   31.80
  -8  -4   3 1497.05   62.79
  -8  -4   3 1379.56   73.09
  -8   4   3 1393.86   72.19
  -8   4   3 1370.86   66.09
  -7  -4   3  170.88   20.30
  -7  -4   3  112.19   21.20
  -7   4   3  216.38   35.20
  -7   4   3  166.58   25.20
   7   4  -3  152.88   29.20
   6  -4  -3  374.86   30.70
  -6  -4   3  399.46   28.60
  -6  -4   3  416.86   33.70
  -6   4   3  401.76   38.50
   6   4  -3  431.16   32.00
  -6   4   3  406.36   31.70
  -5  -4   3  762.92   37.30
  -5  -4   3  737.43   41.40
   5  -4  -3  738.23   40.30
   5   4  -3  689.83   37.70
  -5   4   3  686.53   38.50
  -5   4   3  727.03   39.50
  -4  -4   3 3004.30   78.69
   4  -4  -3 3015.50   83.59
  -4  -4   3 3171.88   86.09
  -4   4   3 3190.28   85.09
  -4   4   3 3114.19   82.39
   4   4  -3 3011.80   80.99
  -3  -4   3  134.09   13.60
   3  -4  -3  139.59   14.80
  -3  -4   3  178.58   19.90
   3   4  -3  180.48   15.80
  -3   4   3  172.68   15.00
  -3   4   3  162.48   15.80
  -2  -4   3  506.05   23.40
   2  -4  -3  495.55   24.00
  -2   4   3  484.35   24.50
  -2   4   3  500.85   22.40
   2   4  -3  507.45   23.80
  -1  -4   3 1977.40   49.10
   1  -4  -3 2014.30   47.70
  -1   4   3 2046.10   49.90
   1   4  -3 2032.10   49.50
   0  -4   3 6930.61  121.49
   0   4  -3 6742.73  129.29
   0   4  -3 6854.21  122.49
   0   4   3 7048.90  118.39
   1  -4   3  182.78   14.40
  -1   4  -3  177.68   14.10
   2  -4   3  226.18   16.70
  -2  -4  -3  235.58   16.00
  -2   4  -3  205.28   15.60
   2   4   3  206.68   11.10
   3  -4   3 1872.41   56.49
  -3  -4  -3 1856.71   63.99
  -3  -4  -3 1882.91   38.20
   3   4   3 1835.62   46.10
  -3   4  -3 1757.62   53.09
  -3   4  -3 1939.71   61.29
  -4  -4  -3 3267.27   64.39
  -4  -4  -3 3138.19   86.59
   4  -4   3 3492.45   88.69
  -4   4  -3 3156.08   90.29
  -4   4  -3 3273.47   81.99
   4   4   3 3171.08   74.99
  -5  -4  -3   35.50    7.20
  -5  -4  -3   27.70   10.80
   5  -4   3   67.49   16.00
  -5   4  -3   51.29   13.40
   5   4   3   46.70   11.30
  -5   4  -3   40.20    9.90
  -6  -4  -3    4.60    4.40
   6  -4   3   -0.50    5.50
  -6  -4  -3   -5.60    3.30
  -6   4  -3    8.40    7.10
   6   4   3   -1.40    4.80
  -6   4  -3   -0.90    6.00
  -7  -4  -3  931.71   35.60
  -7  -4  -3  853.51   53.19
   7  -4   3 1061.39   86.99
  -7   4  -3  792.92   69.19
  -7   4  -3  833.82   43.50
   7   4   3  918.71   47.10
  -8  -4  -3 1414.36   47.30
  -8  -4  -3 1441.96   75.49
  -8   4  -3 1471.45   77.89
   8   4   3 1326.17   64.39
  -8   4  -3 1531.95   62.39
  -9  -4  -3   52.39   20.90
  -9  -4  -3   85.09   13.50
  -9   4  -3   55.59   14.90
  -9   4  -3   65.69   20.50
  -9  -5   3  600.64   51.79
  -9  -5   3  594.34   40.80
  -9   5   3  543.95   48.30
  -9   5   3  621.44   46.20
  -8  -5   3  257.17   39.00
  -8  -5   3  300.97   27.90
  -8   5   3  334.47   35.40
  -7  -5   3   23.00    9.40
  -7  -5   3   11.80   10.50
  -7   5   3   12.50    8.60
   7   5  -3   19.10    9.20
  -7   5   3    8.50    8.30
  -6  -5   3  535.05   38.80
   6  -5  -3  526.55   37.40
  -6  -5   3  427.96   30.00
  -6   5   3  462.35   35.30
  -6   5   3  423.76   33.20
   6   5  -3  451.85   33.00
  -5  -5   3 1156.38   53.29
  -5  -5   3 1170.08   47.30
   5  -5  -3 1143.49   52.69
  -5   5   3 1128.99   51.19
  -5   5   3 1209.58   52.89
   5   5  -3 1093.49   48.70
  -4  -5   3  823.42   41.20
  -4  -5   3  828.32   36.70
  -4   5   3  774.22   38.00
   4   5  -3  840.82   40.10
  -4   5   3  829.72   40.40
  -3  -5   3   26.10    7.40
  -3   5   3   16.20    7.20
  -3   5   3   29.00    9.10
   3   5  -3   30.60    9.20
  -2  -5   3 3043.90   70.69
   2  -5  -3 2943.51   71.39
  -2   5   3 2962.30   73.79
   2   5  -3 3010.80   71.19
  -1  -5   3  952.30   32.60
   1  -5  -3  933.31   31.60
  -1   5   3  883.61   32.30
   1   5  -3  903.71   32.00
   0  -5   3  473.75   22.30
   0   5  -3  530.35   27.30
   0   5  -3  486.85   22.20
   0   5   3  441.46   20.70
  -1   5  -3  146.99   14.30
  -1   5  -3  140.19   12.40
  -2  -5  -3 2187.48   57.99
   2  -5   3 2257.17   62.19
   2   5   3 2187.08   48.70
  -2   5  -3 2245.48   61.09
  -2   5  -3 2131.29   56.89
  -3  -5  -3 1378.06   31.90
   3  -5   3 1412.26   49.90
  -3  -5  -3 1375.16   48.50
  -3   5  -3 1444.36   53.69
  -3   5  -3 1414.86   48.70
   3   5   3 1395.06   39.90
  -4  -5  -3  896.31   42.80
   4  -5   3  980.00   43.80
  -4  -5  -3  904.31   27.50
  -4   5  -3  947.51   41.00
   4   5   3  929.31   35.70
  -4   5  -3 1046.00   48.00
   5  -5   3   96.09   19.10
  -5  -5  -3   49.99   13.70
  -5  -5  -3   84.99   10.90
  -5   5  -3   88.49   16.60
  -5   5  -3   79.79   19.70
  -6  -5  -3  399.86   33.70
   6  -5   3  355.06   31.10
  -6  -5  -3  425.46   21.50
  -6   5  -3  387.46   34.80
   6   5   3  437.66   29.40
  -6   5  -3  463.75   31.60
   7  -5   3  714.03   46.50
  -7   5  -3  698.13   40.40
  -7   5  -3  711.03   50.49
   7   5   3  650.43   40.40
  -8  -5  -3  349.27   21.50
  -8  -5  -3  365.16   38.60
  -8   5  -3  340.37   30.10
  -8   5  -3  382.46   40.40
   8   5   3  382.86   33.40
  -9  -5  -3   28.20   17.80
  -9  -5  -3   22.60    7.90
  -9   5  -3    5.20    9.40
  -9   5  -3   22.20   11.70
  -9  -6   3   13.30   12.00
  -9  -6   3    5.60    7.10
  -9   6   3   17.20   12.70
  -9   6   3   12.40   10.20
  -8  -6   3  106.09   25.50
  -8  -6   3   91.49   17.90
  -8   6   3  107.29   23.30
  -8   6   3   75.79   21.20
  -7  -6   3 2062.59  104.59
  -7  -6   3 2127.99   73.29
  -7   6   3 2125.49   82.49
  -7   6   3 2034.10   84.19
   7   6  -3 1880.01   77.39
  -6  -6   3   11.90    8.10
  -6  -6   3   14.30   10.70
   6  -6  -3   12.80    9.30
  -6   6   3   16.20   11.30
  -6   6   3    4.70    7.20
   6   6  -3    7.70    7.90
  -5  -6   3  276.17   23.20
  -5  -6   3  313.17   29.60
   5  -6  -3  321.07   28.10
  -5   6   3  287.57   26.10
  -5   6   3  292.07   26.90
   5   6  -3  293.37   25.40
   4  -6  -3  287.97   24.30
  -4  -6   3  303.27   22.40
  -4  -6   3  276.17   24.70
   4   6  -3  311.27   24.00
  -4   6   3  284.77   23.30
  -4   6   3  327.27   26.10
   3  -6  -3 2716.73   75.49
  -3  -6   3 2747.43   71.69
   3   6  -3 2774.92   73.79
   2  -6  -3  250.37   18.80
  -2   6   3  251.07   19.80
   2   6  -3  298.57   19.90
   1  -6  -3 1912.41   52.49
   1   6  -3 1804.22   51.49
  -1   6   3 1910.91   54.19
   0  -6   3  591.24   26.80
   0   6  -3  527.25   29.30
   0   6  -3  582.34   26.00
   0   6   3  569.34   25.90
   1  -6   3 3243.38   82.99
  -1   6  -3 3116.09   73.99
  -1   6  -3 3313.47   81.89
   2  -6   3 1262.97   46.60
   2   6   3 1221.98   35.70
  -2   6  -3 1221.18   45.60
  -2   6  -3 1173.58   41.80
   3  -6   3 1552.44   55.39
  -3  -6  -3 1566.34   54.09
   3   6   3 1614.94   45.30
  -3   6  -3 1540.25   58.79
  -3   6  -3 1613.24   57.59
  -4  -6  -3  295.87   15.00
  -4  -6  -3  297.57   24.90
   4  -6   3  357.96   27.30
   4   6   3  289.87   20.10
  -4   6  -3  273.67   25.90
  -4   6  -3  307.57   24.10
   5  -6   3 1270.37   56.79
  -5  -6  -3 1213.18   56.79
  -5  -6  -3 1244.98   36.40
  -5   6  -3 1204.28   58.59
   5   6   3 1208.48   47.10
  -5   6  -3 1314.07   53.59
  -6  -6  -3 1028.10   34.50
  -6  -6  -3 1084.19   56.89
   6  -6   3 1040.70   54.29
   6   6   3  995.40   46.50
  -6   6  -3 1061.09   49.90
  -6   6  -3 1100.89   59.59
  -7  -6  -3  394.06   21.50
   7  -6   3  377.46   34.60
  -7  -6  -3  422.96   38.40
  -7   6  -3  389.96   37.80
   7   6   3  381.16   31.30
  -7   6  -3  397.66   31.50
  -8  -6  -3   47.30    9.40
  -8  -6  -3   39.90   15.40
  -8   6  -3   62.79   15.60
  -8   6  -3   35.80   19.30
   8   6   3   50.39   13.80
  -9  -6  -3  596.64   52.49
  -9  -6  -3  580.44   26.70
  -9   6  -3  620.84   54.29
  -9   6  -3  614.54   41.50
  -9  -7   3  152.08   34.40
  -9  -7   3  193.98   27.40
  -9   7   3  154.98   29.30
  -9   7   3  167.88   29.90
  -8  -7   3   68.09   21.30
  -8  -7   3   72.99   16.40
  -8   7   3   75.29   21.10
  -8   7   3   84.49   18.90
  -7  -7   3   11.10    8.90
   7  -7  -3   11.00    9.40
  -7  -7   3  -11.00    5.30
  -7   7   3   12.00    9.80
   7   7  -3   11.10    8.60
  -7   7   3    8.20    7.60
  -6  -7   3  567.04   35.10
  -6  -7   3  611.94   43.80
   6  -7  -3  542.05   39.50
   6   7  -3  542.75   37.40
  -6   7   3  704.53   44.00
  -6   7   3  618.14   42.30
  -5  -7   3   84.29   18.50
  -5  -7   3  102.19   15.90
   5  -7  -3   66.59   16.50
   5   7  -3  111.29   19.50
  -5   7   3  103.09   19.50
  -5   7   3   68.49   15.00
  -4  -7   3  144.69   16.70
   4  -7  -3  157.48   23.70
  -4   7   3  175.08   20.50
  -4   7   3  162.38   18.60
   4   7  -3  168.98   22.90
   3  -7  -3   85.09   13.70
  -3  -7   3  105.19   14.50
  -3   7   3   93.29   16.40
   3   7  -3  115.59   21.20
  -3   7   3  132.59   19.80
  -2  -7   3 1250.07   44.00
   2  -7  -3 1387.66   47.90
  -2   7   3 1356.86   49.80
   2   7  -3 1316.87   46.00
   1  -7  -3   -2.40    3.60
  -1  -7   3    4.00    4.60
   1   7  -3    8.90    5.40
  -1   7   3    2.10    3.50
   0  -7   3    7.50    5.20
   0   7  -3    7.70    5.20
   0   7   3    5.10    4.90
   0   7  -3   -0.50    3.30
   1  -7   3  442.26   28.90
   1   7   3  454.75   21.80
  -1   7  -3  457.75   25.10
  -1   7  -3  471.05   29.00
   2  -7   3  594.04   32.80
  -2   7  -3  606.04   30.40
   2   7   3  603.24   25.40
  -2   7  -3  562.74   32.20
   3  -7   3  152.18   17.90
   3   7   3  150.18   13.80
  -3   7  -3  168.58   18.40
  -4  -7  -3    6.40    3.80
   4  -7   3   17.90    8.30
  -4  -7  -3   10.20    8.10
   4   7   3    7.50    5.60
  -4   7  -3    5.50    7.40
  -4   7  -3   12.90    7.90
   5  -7   3  568.14   37.60
  -5  -7  -3  554.34   37.90
  -5  -7  -3  567.14   23.20
  -5   7  -3  582.24   36.40
  -5   7  -3  558.04   40.40
   5   7   3  508.25   30.60
  -6  -7  -3  368.06   19.30
   6  -7   3  383.66   33.10
  -6  -7  -3  352.16   33.40
  -6   7  -3  361.26   29.40
   6   7   3  332.57   26.70
  -6   7  -3  326.07   33.60
  -7  -7  -3   53.09    9.50
  -7  -7  -3   60.89   19.70
   7  -7   3   66.89   18.80
  -7   7  -3   70.49   16.60
  -7   7  -3   33.50   15.70
   7   7   3   48.40   12.80
  -8  -7  -3   36.50   16.10
  -8   7  -3   15.10   10.00
  -8   7  -3   36.60   13.30
  -9   7  -3  314.57   31.50
  -9  -8   3   61.49   21.70
  -9  -8   3   36.80   12.90
  -9   8   3   52.99   18.70
  -8  -8   3   -1.70    7.50
  -8  -8   3    3.50    8.20
  -8   8   3   11.00   11.10
  -8   8   3   14.90    8.70
  -7  -8   3 1270.27   69.99
  -7  -8   3 1329.37   57.39
   7  -8  -3 1487.85   75.49
  -7   8   3 1318.97  104.79
  -7   8   3 1443.66   69.49
   7   8  -3 1454.55   68.39
  -6  -8   3  286.87   24.80
  -6   8   3  304.07   30.30
   6   8  -3  284.97   27.50
  -6   8   3  265.17   28.50
  -5  -8   3  181.48   19.80
   5  -8  -3  141.69   21.50
  -5   8   3  181.38   27.50
  -5   8   3  133.39   21.20
   5   8  -3  129.89   18.90
  -4  -8   3  110.29   17.40
   4  -8  -3   61.89   13.50
   4   8  -3   98.79   16.50
  -4   8   3  121.39   20.70
  -4   8   3  104.19   18.80
   3  -8  -3 3037.90  100.49
  -3  -8   3 3145.29   82.19
  -3   8   3 3240.48   91.89
   3   8  -3 3176.18   85.09
   2  -8  -3  920.11   40.10
  -2  -8   3  938.71   39.20
   2   8  -3  913.91   39.30
   1  -8  -3  125.19   14.70
  -1  -8   3  146.89   15.50
   1   8  -3   94.29   13.10
  -1   8   3  139.99   15.70
   1   8  -3  115.89   20.20
   0   8  -3    8.30    5.10
   0   8   3   10.70    5.40
   0   8  -3   18.60    7.40
   1  -8   3 3127.29   90.99
  -1   8  -3 3062.69  131.49
   1   8   3 3258.47   74.69
  -1   8  -3 3271.97   81.89
   1   8   3 3278.97   82.39
   2  -8   3  944.31   73.09
  -2   8  -3 1201.18   50.39
   2   8   3 1213.68   40.10
  -2   8  -3 1166.28   45.50
   3  -8   3  171.48   19.40
  -3   8  -3  134.09   20.30
   3   8   3  148.99   15.30
   4  -8   3    7.80    5.70
  -4   8  -3   19.20   10.40
  -4   8  -3    8.80    6.40
   4   8   3   11.50    6.10
  -5  -8  -3 1511.05   41.40
   5  -8   3 1439.46   64.29
  -5  -8  -3 1441.96   64.59
  -5   8  -3 1529.05   70.39
   5   8   3 1558.04   56.59
  -5   8  -3 1560.54   63.39
  -6  -8  -3  561.44   24.10
  -6  -8  -3  564.94   42.80
   6  -8   3  530.55   44.10
  -6   8  -3  696.03   49.20
   6   8   3  573.44   36.00
  -6   8  -3  552.04   38.40
  -7  -8  -3  403.76   38.90
  -7  -8  -3  401.56   20.70
  -7   8  -3  466.55   43.20
  -7   8  -3  423.66   34.40
  -8  -8  -3    8.90   11.00
  -8  -8  -3   13.50    5.40
  -8   8  -3   11.90    9.30
  -8   8  -3   11.90    9.80
  -8  -9   3  146.19   23.10
  -8   9   3  148.29   30.30
  -8   9   3  187.18   30.70
  -7  -9   3  114.09   20.10
  -7   9   3  141.99   30.50
  -7   9   3   84.09   21.30
  -6  -9   3  107.59   17.80
   6   9  -3  111.89   20.10
  -6   9   3   84.69   20.40
  -6   9   3  123.69   24.70
  -5  -9   3 3611.94   97.29
   5  -9  -3 3521.35  108.19
   5   9  -3 3649.73  104.99
  -5   9   3 3713.43  112.39
  -5   9   3 3743.63  110.59
   4  -9  -3  825.52   44.90
  -4  -9   3  860.71   40.80
  -4   9   3  755.22   45.30
  -4   9   3  842.02   45.50
   4   9  -3  812.82   42.60
  -3  -9   3  355.46   25.60
   3  -9  -3  346.07   26.70
  -3   9   3  352.46   29.40
   3   9  -3  333.07   25.50
  -2  -9   3  417.36   26.90
   2  -9  -3  452.65   29.10
   2   9  -3  423.66   27.50
  -2   9   3  423.36   29.90
  -1  -9   3 5228.28  116.09
   1  -9  -3 5354.36  120.19
   1   9  -3 5650.63  158.38
  -1   9   3 4919.41  119.79
   1   9  -3 5230.88  129.99
   0   9  -3 1179.38   49.60
   0   9   3 1222.88   48.00
   0   9  -3 1171.38   51.99
   1   9   3 1310.57   50.09
  -1   9  -3 1263.47   58.29
   1   9   3 1228.98   42.90
  -1   9  -3 1088.59   50.69
   2  -9   3  284.97   25.50
   2   9   3  249.78   18.70
  -2   9  -3  266.87   22.40
  -2   9  -3  268.27   24.90
   3  -9   3 2033.70   73.69
  -3   9  -3 2161.48   70.19
  -3   9  -3 2207.38   76.19
   3   9   3 2064.09   61.89
   4  -9   3 1207.78   56.99
  -4   9  -3 1240.58   57.29
  -4   9  -3 1181.48   60.59
   4   9   3 1302.97   49.30
  -5   9  -3  767.02   45.40
  -5   9  -3  724.43   49.30
   5   9   3  792.32   40.60
  -6  -9  -3    9.50    9.80
   6  -9   3   -9.70    6.50
   6   9   3   10.50    7.40
  -6   9  -3   -6.40    6.30
  -6   9  -3    5.60    7.20
  -7  -9  -3  875.21   57.99
   7   9   3  914.81   50.19
  -7   9  -3  876.31   51.89
  -7   9  -3  895.11   62.09
  -8  -9  -3  793.62   58.69
  -8   9  -3  751.52   59.49
  -8   9  -3  770.62   49.80
  -8 -10   3   20.50   10.00
  -8  10   3   15.30   11.10
  -8  10   3   26.20   12.20
  -7 -10   3  111.99   18.50
  -7  10   3   91.09   19.70
  -7  10   3  101.29   24.80
  -6 -10   3   46.00   12.80
   6 -10  -3   40.10   16.00
   6  10  -3   78.99   18.00
  -6  10   3   39.50   13.90
  -6  10   3   30.40   13.30
   5 -10  -3    7.90    6.70
  -5 -10   3    7.70    6.90
   5  10  -3    5.40    6.10
  -5  10   3    6.90    8.70
  -5  10   3    0.20    5.90
   4 -10  -3   47.50   12.50
  -4 -10   3   36.00   11.40
  -4  10   3   45.20   14.10
   4  10  -3   78.59   16.70
  -4  10   3   35.50   12.20
   3 -10  -3    2.00    4.20
  -3 -10   3    3.10    6.60
  -3  10   3    7.90    7.50
   3  10  -3   13.80    7.50
  -2 -10   3  126.99   17.60
   2 -10  -3  176.78   20.60
  -2  10   3  177.48   20.90
   2  10  -3  134.59   19.80
  -1 -10   3   18.50    7.70
   1  10  -3   26.40    9.20
   1  10  -3   21.40   11.70
  -1  10   3   30.60   10.50
   0  10  -3   15.00    7.20
   0  10  -3    4.80    5.30
   1 -10   3   12.40    7.10
  -1  10  -3    8.00    5.90
   1  10   3    6.40    5.30
  -1  10  -3   39.80   13.30
   1  10   3   24.60    9.30
   2 -10   3   -6.60    4.50
  -2  10  -3    3.00    5.90
  -2  10  -3    4.70    5.70
   2  10   3    3.50    4.80
   3 -10   3   23.20    9.90
   3  10   3   19.90    8.30
  -3  10  -3   22.60   10.40
  -3  10  -3   22.30    8.90
  -4  10  -3  100.19   19.20
   4  10   3  103.09   18.10
  -4  10  -3   83.09   21.00
  -5  10  -3   -0.80    6.10
   5  10   3    1.50    5.50
   6 -10   3   -6.90    6.60
  -6  10  -3   14.20    8.80
  -6  10  -3   12.30   10.20
   6  10   3   -0.80    5.40
  -7  10  -3   57.29   21.10
   7  10   3   27.40   11.60
  -7  10  -3   36.60   14.90
  -8  10  -3  -17.70    7.60
  -8  10  -3   -4.40    8.30
  -8 -11   3   37.80   16.90
  -8  11   3   53.79   18.00
  -8  11   3   53.69   19.70
  -7 -11   3   81.69   18.50
  -7  11   3   73.69   22.40
  -7  11   3   42.80   16.30
  -6 -11   3  139.99   22.50
   6 -11  -3   99.99   22.20
  -6  11   3  123.09   27.80
  -6  11   3  183.48   51.59
   6  11  -3  133.89   26.20
  -5 -11   3 2036.60   71.49
  -5  11   3 2071.39   83.19
  -5  11   3 2019.50   84.29
  -4 -11   3  398.56   29.10
   4 -11  -3  392.06   32.00
  -4  11   3  341.77   31.40
  -4  11   3  386.26   34.50
   4  11  -3  310.57   27.80
   3 -11  -3  450.35   33.20
  -3 -11   3  529.35   33.20
  -3  11   3  503.95   37.80
   3  11  -3  479.55   33.10
  -2 -11   3  138.09   20.00
   2 -11  -3  121.69   19.90
  -2  11   3   84.69   16.80
   2  11  -3  140.79   26.50
   2  11  -3  114.69   19.70
  -1  11   3 2413.86   80.29
   1  11  -3 2329.67   84.29
   1  11  -3 2309.77   73.69
   0  11   3  653.73   38.20
   0  11  -3  773.52   39.50
   0  11   3  701.63   36.00
  -1  11  -3  624.54   41.40
   1  11   3  715.53   40.00
  -1  11  -3  635.14   36.90
   1  11   3  678.93   34.70
   2 -11   3  307.37   30.00
   2  11   3  334.47   24.50
  -2  11  -3  338.57   30.60
  -2  11  -3  301.37   25.80
   3 -11   3  556.94   39.40
  -3  11  -3  513.15   34.90
  -3  11  -3  538.25   39.00
   3  11   3  560.04   33.10
   4  11   3  625.64   36.60
  -4  11  -3  571.74   38.10
  -4  11  -3  678.53   45.30
   5  11   3  769.52   43.30
  -5  11  -3  793.22   50.69
  -5  11  -3  748.13   65.39
  -6  11  -3  285.17   30.60
  -6  11  -3  201.28   34.70
  -7  11  -3  487.15   48.40
  -7  11  -3  507.25   42.00
  -8  11  -3  673.43   48.40
  -7 -12   3 1074.39   53.49
  -7  12   3 1202.28   70.59
  -7  12   3 1082.99   68.19
  -6 -12   3  272.57   26.20
  -6  12   3  279.67   32.40
  -6  12   3  288.47   32.30
  -5 -12   3  202.48   22.10
  -5  12   3  202.58   33.30
  -5  12   3  151.78   30.30
   5  12  -3  175.88   25.10
  -4 -12   3   24.10    9.80
   4 -12  -3   34.90   11.40
  -4  12   3   17.20    9.40
   4  12  -3   45.50   14.60
  -4  12   3   18.90   11.90
  -3 -12   3 2764.02   83.69
   3 -12  -3 2583.24   89.29
  -3  12   3 2561.34   93.29
   3  12  -3 2653.03   86.09
   2 -12  -3  568.84   38.20
  -2  12   3  490.45   37.30
   2  12  -3  496.05   39.50
   2  12  -3  498.15   34.10
   1  12  -3  219.78   25.80
  -1  12   3  193.78   22.90
   1  12  -3  184.98   25.10
   0  12   3   27.80   10.20
   0  12  -3   58.69   14.10
   0  12  -3   38.40   13.20
   0  12   3   51.99   13.80
  -1  12  -3 2348.57   86.49
   1  12   3 2273.17   72.09
   1  12   3 2261.17   79.19
  -1  12  -3 2403.06   78.59
   2 -12   3 1270.97   64.09
  -2  12  -3 1301.97   56.59
   2  12   3 1202.08   56.79
  -2  12  -3 1290.27   63.19
   2  12   3 1397.16   53.59
   3 -12   3  123.19   21.30
  -3  12  -3  129.89   23.80
   3  12   3  138.59   20.70
  -3  12  -3  116.69   18.40
   4  12   3   98.39   17.10
  -4  12  -3  115.39   20.80
  -5  12  -3 1490.05   72.19
  -5  12  -3 1358.76   75.59
   5  12   3 1445.86   61.89
  -5  12  -3 1238.08   77.09
  -6  12  -3  751.52   58.09
  -6  12  -3  630.64   47.30
   6  12   3  608.04   42.10
  -7  12  -3  205.38   32.80
  -7  12  -3  187.18   34.20
  -7 -13   3   68.09   16.80
  -7  13   3   41.40   15.80
  -7  13   3   43.30   16.30
  -6 -13   3  328.97   29.10
  -6  13   3  292.87   33.90
  -6  13   3  308.87   35.10
  -5 -13   3    2.00    7.60
   5 -13  -3    8.00    9.10
  -5  13   3    6.20    8.50
   5  13  -3   28.50   13.80
  -4 -13   3  264.27   25.60
   4  13  -3  265.87   28.30
  -4  13   3  266.47   30.80
  -4  13   3  233.28   34.40
   3 -13  -3   82.09   19.30
  -3 -13   3   77.89   15.80
  -3  13   3   80.99   18.80
   3  13  -3  101.79   20.30
   2 -13  -3  901.01   50.29
  -2  13   3  882.31   51.49
   2  13  -3  868.11   54.29
   1  13  -3   80.39   18.80
  -1  13   3   84.79   18.00
   0  13   3  112.59   19.10
   0  13  -3   60.09   16.80
   0  13   3   86.79   18.50
   1  13   3  467.65   32.00
   1  13   3  456.15   34.80
  -1  13  -3  459.05   38.00
   2 -13   3  766.42   50.89
   2  13   3  611.94   41.80
  -2  13  -3  651.73   45.80
   2  13   3  754.22   40.30
  -2  13  -3  744.23   42.80
  -3  13  -3  109.19   21.90
   3  13   3  166.78   24.10
   4  13   3   39.30   12.30
  -4  13  -3   -3.30    9.10
  -5  13  -3  214.78   40.30
   5  13   3  196.38   39.10
  -5  13  -3  255.17   51.89
  -5  13  -3  181.98   27.80
  -6  13  -3  377.26   43.40
  -6  13  -3  450.25   41.00
   6  13   3  360.56   40.10
  -7  13  -3   60.69   23.50
  -7  13  -3   54.99   18.10
  -7 -14   3 1026.30   52.59
  -7  14   3 1078.19   70.29
  -7  14   3 1127.39   71.59
  -6 -14   3    1.10    8.10
  -6  14   3  -15.90    5.10
  -6  14   3   -3.60    8.20
  -5 -14   3  232.58   24.70
  -5  14   3  210.08   33.30
  -5  14   3  151.88   28.50
  -4 -14   3  694.53   41.70
   4  14  -3  681.63   45.50
  -4  14   3  640.84   48.10
  -4  14   3  598.94   47.70
   3 -14  -3  774.32   49.30
   3  14  -3  839.82   48.00
  -3  14   3  919.31   56.09
   3  14  -3  741.43   52.39
   2  14  -3  251.57   37.40
  -2  14   3  299.77   30.50
  -1  14   3  351.46   32.30
  -1  14   3  329.37   28.90
   1  14  -3  380.46   35.20
   0  14   3  397.56   30.70
   0  14   3  405.46   34.20
   0  14  -3  351.76   33.30
   1  14   3  574.14   37.10
  -1  14  -3  621.54   45.70
   1  14   3  600.24   41.40
   2  14   3  228.48   26.10
   2  14   3  247.98   25.30
  -2  14  -3  244.58   29.10
   3 -14   3  456.35   52.69
   3  14   3  638.24   44.20
  -3  14  -3  611.64   47.10
   3  14   3  615.14   39.30
  -3  14  -3  576.04   46.00
   4 -14   3  387.36   62.99
   4  14   3  469.95   44.80
  -4  14  -3  511.95   39.20
  -4  14  -3  438.36   42.70
  -5  14  -3  177.08   34.70
  -5  14  -3  193.78   30.30
   5  14   3  223.58   31.60
  -6  14  -3  271.27   38.50
  -6  14  -3  287.37   48.70
  -6  15   3  197.88   35.30
  -6  15   3  245.88   41.20
  -5  15   3  859.81   60.69
  -5  15   3  773.42   56.19
   4 -15  -3  391.86   37.90
  -4  15   3  403.16   39.60
   3 -15  -3   23.20   11.80
   3  15  -3   10.50    7.50
  -3  15   3    4.10    8.30
   3  15  -3   13.00    9.10
  -2  15   3  538.35   38.60
  -2  15   3  551.64   43.00
   2  15  -3  477.85   41.50
   2  15  -3  522.75   38.90
  -1  15   3 1240.28   63.09
   1  15  -3 1106.49   62.79
   0  15  -3  364.86   35.30
   0  15   3  387.66   31.30
   0  15   3  346.17   32.70
  -1  15  -3   18.50   12.50
   1  15   3    3.60    6.90
   1  15   3   60.19   16.70
  -2  15  -3  240.68   36.20
   2  15   3  259.47   26.40
   2  15   3  263.77   29.30
   3 -15   3  616.64   50.19
  -3  15  -3  628.64   48.50
   3  15   3  608.64   45.50
  -3  15  -3  652.63   55.39
   3  15   3  647.34   49.40
   4  15   3  306.07   29.70
  -4  15  -3  254.27   36.90
  -5  15  -3   -2.50    9.40
  -5  15  -3   -1.70    8.00
  -6  15  -3  326.17   37.50
  -6  15  -3  201.28   40.60
  -5  16   3  230.08   38.40
  -5  16   3  235.78   37.40
   4  16  -3 1639.14   86.19
  -4  16   3 1694.63   85.29
   3  16  -3   -7.50    8.40
  -3  16   3    1.00    7.30
  -2  16   3  202.78   30.10
  -2  16   3  233.28   42.90
   2  16  -3  336.77   35.20
  -1  16   3  518.65   41.40
  -1  16   3  471.95   37.30
   1  16  -3  510.05   40.50
   1  16  -3  496.65   43.10
   0  16   3 1653.53   70.49
   0  16   3 1645.94   75.39
   0  16  -3 1852.01   83.99
  -1  16  -3  128.39   26.50
   1  16   3  107.29   21.40
   1  16   3  129.09   22.80
  -2  16  -3   73.19   21.20
   2  16   3  161.38   29.30
   2  16   3  111.69   18.80
   3  16   3  539.05   43.60
   3  16   3  507.85   38.10
  -3  16  -3  482.95   44.70
  -4  16  -3  949.71   65.29
   4  16   3 1027.80   63.19
  -5  16  -3  118.29   29.40
  -5  16  -3  171.18   34.30
   5  17  -3  133.99   31.20
  -5  17   3  152.98   34.30
  -5  17   3  111.99   28.60
  -4  17   3   -4.20    8.80
   4  17  -3  -11.90    8.10
  -3  17   3   54.09   16.70
   3  17  -3   32.00   14.40
   2  17  -3  352.76   36.80
  -2  17   3  314.17   35.40
   1  17  -3   56.59   18.20
  -1  17   3   73.69   21.80
   0  17   3   19.00   12.10
   0  17  -3   42.20   16.00
  -1  17  -3  185.68   32.90
   1  17   3  276.87   31.20
   2  17   3   93.09   22.60
  -2  17  -3   86.59   21.00
  -3  17  -3   61.39   21.30
   3  17   3   97.79   25.90
   4  17   3  109.29   24.00
  -4  17  -3   86.49   24.70
   4  18  -3  572.54   52.09
  -4  18   3  568.54   52.39
   3  18  -3   86.69   23.70
  -3  18   3   50.99   17.90
  -2  18   3   65.09   19.50
   2  18  -3  164.48   30.50
  -1  18   3   26.50   13.50
   1  18  -3   78.99   23.10
   0  18  -3  624.44   50.39
   0  18   3  647.14   48.30
  -1  18  -3  300.37   35.50
   1  18   3  302.47   33.00
  -2  18  -3  163.08   33.60
   2  18   3  172.98   29.50
   3  18   3   46.90   16.90
  -3  18  -3   29.60   14.50
  -4  18  -3  414.06   45.50
   4  18   3  404.16   40.60
   3  19  -3  384.36   41.80
  -3  19   3  358.26   41.20
  -2  19   3 1258.47   73.79
   2  19  -3 1094.09   69.79
   1  19  -3   35.30   15.90
  -1  19   3   89.59   22.50
   0  19   3   89.69   23.60
   0  19  -3  169.48   30.60
   1  19   3  539.15   46.50
  -1  19  -3  582.44   50.79
  -2  19  -3 1144.69   73.09
   2  19   3 1109.09   66.69
  -9   0   4  104.39   19.70
  -9   0   4  146.69   31.90
  -8   0   4  175.78   27.70
  -8   0   4  148.79   29.80
  -7   0   4  513.35   36.00
  -7   0   4  459.85   37.10
  -6   0   4 3533.55   99.19
  -6   0   4 3516.05  104.49
   6   0  -4 3573.74  103.29
  -5   0   4  367.36   26.90
   5   0  -4  364.66   27.40
  -5   0   4  338.57   26.60
   4   0  -4   13.10    7.10
  -4   0   4    8.80    6.00
  -3   0   4 2994.50   73.39
   3   0  -4 3112.39   74.39
  -3   0   4 3183.58   72.39
  -2   0   4 3461.15   67.49
   2   0  -4 3284.27   80.69
  -2   0   4 3260.47   70.99
   1   0  -4 2073.99   43.70
  -1   0   4 1990.90   44.10
   0   0   4   23.70    3.30
   0   0  -4   22.60    3.00
   1   0   4 2070.19   40.90
   1   0   4 2142.99   35.80
  -1   0  -4 2155.08   45.30
   2   0   4 3962.80   70.89
  -2   0  -4 3925.71   81.39
  -3   0  -4 2188.98   60.69
   3   0   4 2165.28   51.79
  -3   0  -4 2077.09   43.70
  -4   0  -4  773.32   38.20
  -4   0  -4  812.72   27.00
   4   0   4  805.62   32.80
   5   0   4  249.28   20.80
  -5   0  -4  263.77   17.00
  -5   0  -4  275.27   25.10
  -6   0  -4 1691.03   70.69
   6   0   4 1696.03   62.39
  -6   0  -4 1668.23   50.39
   7   0   4 1887.61   72.39
  -7   0  -4 1840.12   56.49
  -7   0  -4 1845.12   79.89
  -8   0  -4  117.39   16.80
   8   0   4  121.09   22.50
  -8   0  -4  138.39   29.60
  -9   0  -4  139.59   27.30
  -9   0  -4  152.38   17.10
  -9  -1   4   98.59   21.60
  -9  -1   4   70.69   21.10
  -9   1   4   62.09   20.50
  -9   1   4   65.09   17.30
  -8  -1   4  679.43   48.80
  -8  -1   4  709.03   44.50
  -8   1   4  652.83   47.90
  -8   1   4  659.23   44.00
  -7  -1   4  918.41   47.90
  -7  -1   4  898.41   52.09
  -7   1   4  734.13   44.50
  -7   1   4  892.61   52.19
  -6  -1   4  669.53   38.70
   6  -1  -4  633.34   39.30
  -6  -1   4  623.44   51.69
   6   1  -4  632.94   39.30
  -6   1   4  572.94   38.30
  -6   1   4  759.22   41.50
  -5  -1   4   36.20    9.70
  -5  -1   4   14.00    7.80
   5  -1  -4   22.20    8.20
  -5   1   4   48.10   12.70
   5   1  -4   34.80   11.00
  -5   1   4   37.70   10.70
  -4  -1   4 1125.39   44.20
   4  -1  -4 1175.98   45.80
  -4   1   4 1137.69   43.30
   4   1  -4 1205.28   45.60
  -3  -1   4  973.30   36.30
  -3  -1   4  966.70   35.20
   3  -1  -4  926.81   35.80
  -3   1   4  952.80   36.40
  -3   1   4  913.71   33.30
   3   1  -4  954.50   36.30
  -2  -1   4  154.68   11.70
  -2  -1   4  161.18   12.90
   2   1  -4  172.68   13.10
  -2   1   4  137.69   10.10
  -2   1   4  163.28   12.70
   1  -1  -4    2.00    2.70
  -1  -1   4   -0.10    3.00
  -1   1   4    3.70    2.20
   1   1  -4    2.90    3.30
  -1   1   4   -0.70    2.60
   0  -1   4  587.64   17.40
   0   1  -4  544.05   17.80
   0   1   4  584.14   12.80
   0   1  -4  583.94   16.40
  -1  -1  -4  668.53   20.20
   1  -1   4  673.93   19.40
   1  -1   4  630.24   18.00
  -1   1  -4  650.53   16.40
  -1   1  -4  608.94   16.90
  -1   1  -4  640.94   22.40
   2  -1   4  131.39    9.90
  -2  -1  -4  127.49   11.50
  -2   1  -4  132.99    8.00
  -2   1  -4  134.19    8.30
   2   1   4  128.69    7.40
  -2   1  -4  150.48   12.80
  -3  -1  -4  126.79    7.00
   3  -1   4  146.79   12.40
  -3  -1  -4  145.09   14.30
  -3   1  -4  140.69   14.70
   3   1   4  133.89   12.10
  -3   1  -4  147.19   10.50
  -4  -1  -4  625.44   33.90
   4  -1   4  652.63   30.50
  -4  -1  -4  655.03   21.90
  -4   1  -4  620.54   34.20
   4   1   4  652.43   28.30
  -4   1  -4  639.44   25.40
  -5  -1  -4  887.21   45.50
  -5  -1  -4  942.61   31.30
  -5   1  -4  943.91   35.10
  -5   1  -4  953.30   47.80
   5   1   4 1008.50   41.10
  -6  -1  -4   42.60   15.60
   6  -1   4   41.50   11.80
  -6  -1  -4   47.40    9.20
   6   1   4   20.10    8.70
  -6   1  -4   55.39   11.20
  -6   1  -4   49.40   17.90
  -7  -1  -4    2.60    7.40
  -7  -1  -4   11.00    5.40
   7  -1   4    4.10    6.70
  -7   1  -4   12.60   10.70
   7   1   4   -6.00    6.00
  -7   1  -4   -9.50    4.10
  -8  -1  -4  390.96   24.10
   8  -1   4  356.46   33.40
  -8  -1  -4  373.16   38.30
   8   1   4  385.56   34.10
  -8   1  -4  353.76   25.50
  -8   1  -4  347.57   36.90
  -9  -1  -4  440.26   26.50
  -9  -1  -4  398.66   42.30
  -9   1  -4  428.86   28.10
  -9   1  -4  377.86   41.40
  -9  -2   4    5.90   10.90
  -9  -2   4   31.10   13.50
  -9   2   4   28.60   12.40
  -9   2   4   -1.10    8.20
  -8  -2   4    6.20    8.80
  -8  -2   4   20.20    9.80
  -8   2   4   11.50    8.70
  -8   2   4    8.50    9.70
  -7  -2   4  707.73   46.30
  -7  -2   4  669.23   40.60
  -7   2   4  593.44   42.40
  -7   2   4  643.44   41.60
   6  -2  -4 1105.39   54.29
  -6  -2   4 1163.48   56.89
  -6  -2   4 1294.97   54.09
  -6   2   4 1314.97   56.59
  -6   2   4 1222.58   55.99
   6   2  -4 1274.17   56.39
   5  -2  -4   10.60    6.30
  -5  -2   4    8.90    7.20
  -5  -2   4   22.70    9.90
  -5   2   4    0.50    5.50
  -5   2   4   -3.60    5.60
   5   2  -4    7.60    7.30
  -4  -2   4   37.90   10.40
   4  -2  -4   15.40    7.60
  -4  -2   4    6.60    5.50
   4   2  -4   16.00    7.30
  -4   2   4   33.80   10.10
  -4   2   4   28.30    9.90
  -3  -2   4 2033.90   57.39
   3  -2  -4 2169.48   59.89
  -3  -2   4 2173.18   58.99
   3   2  -4 2097.29   58.79
  -3   2   4 2169.58   56.19
  -3   2   4 2127.29   59.39
  -2  -2   4 2383.36   58.39
  -2  -2   4 2513.55   58.29
   2  -2  -4 2398.76   67.39
  -2   2   4 2523.05   59.79
   2   2  -4 2525.35   59.69
  -2   2   4 2537.25   53.29
   1  -2  -4   80.59    7.40
  -1  -2   4   79.79    8.80
   1   2  -4   86.09    8.80
  -1   2   4   87.19    5.50
  -1   2   4   97.39    8.50
   0  -2   4   24.60    5.30
   0   2   4   31.00    3.60
   0   2  -4   21.80    5.00
   0   2  -4   22.30    4.80
   1  -2   4 2057.99   44.40
   1  -2   4 2078.29   46.60
  -1  -2  -4 2072.49   43.00
  -1   2  -4 1987.70   43.50
  -1   2  -4 2076.69   42.10
  -2  -2  -4 1320.27   38.10
   2  -2   4 1360.26   38.00
  -2   2  -4 1189.28   32.90
  -2   2  -4 1322.67   41.80
   2   2   4 1261.67   26.60
  -2   2  -4 1250.17   32.50
  -3  -2  -4  848.42   34.70
   3  -2   4  869.61   32.70
   3   2   4  850.31   26.90
  -3   2  -4  848.62   28.90
   4  -2   4  500.85   27.30
  -4  -2  -4  473.45   16.80
  -4  -2  -4  477.75   29.30
   4   2   4  465.15   23.40
  -4   2  -4  435.66   22.50
  -4   2  -4  453.65   29.60
   5  -2   4  431.96   28.60
  -5  -2  -4  411.86   18.80
  -5  -2  -4  416.36   31.10
   5   2   4  447.66   26.30
  -5   2  -4  429.86   24.20
  -5   2  -4  433.56   32.20
  -6  -2  -4   91.39   12.00
  -6  -2  -4  100.99   22.10
   6  -2   4   98.59   17.80
  -6   2  -4  100.79   15.60
   6   2   4   96.79   16.90
  -6   2  -4   91.59   21.40
  -7  -2  -4  368.06   34.80
   7  -2   4  325.97   29.90
   7   2   4  366.56   30.00
  -7   2  -4  432.96   27.50
  -7   2  -4  397.26   36.30
   8  -2   4  259.17   28.00
  -8  -2  -4  235.58   18.20
  -8  -2  -4  296.27   33.80
  -8   2  -4  257.57   22.90
   8   2   4  249.58   27.90
  -8   2  -4  253.67   38.70
  -9  -2  -4  116.29   25.20
  -9  -2  -4  143.49   15.00
  -9   2  -4  164.48   19.20
  -9   2  -4  141.99   31.60
  -9  -3   4  116.59   24.30
  -9  -3   4  150.08   25.90
  -9   3   4  105.19   21.00
  -9   3   4  164.08   30.90
  -8  -3   4 1581.04   78.79
  -8  -3   4 1763.42   71.09
  -8   3   4 1835.12   76.69
  -8   3   4 1717.43   79.59
  -7  -3   4  494.95   34.70
  -7  -3   4  406.36   36.60
  -7   3   4  514.25   37.70
  -7   3   4  521.25   39.70
  -6  -3   4    1.50    6.20
  -6  -3   4    1.30    5.40
   6  -3  -4    6.10    6.10
  -6   3   4   20.20   11.20
   6   3  -4   -1.60    4.30
  -6   3   4    1.80    5.90
  -5  -3   4  565.64   32.90
  -5  -3   4  515.55   33.80
   5  -3  -4  539.25   34.40
  -5   3   4  549.45   34.00
  -5   3   4  515.95   32.50
   5   3  -4  559.94   34.00
  -4  -3   4 4803.92  111.29
   4  -3  -4 4681.03  110.49
  -4  -3   4 4621.04  105.99
  -4   3   4 4626.54  105.79
  -4   3   4 4798.52  110.39
   4   3  -4 4779.12  109.29
  -3  -3   4 1014.70   38.70
   3  -3  -4  966.30   38.20
  -3   3   4  996.70   35.50
  -3   3   4  996.10   39.10
  -2  -3   4  154.68   13.30
   2  -3  -4  154.58   13.20
  -2   3   4  156.08   13.40
  -2   3   4  172.48   11.70
   1  -3  -4 1618.64   38.20
  -1  -3   4 1540.75   41.50
  -1   3   4 1573.54   40.00
  -1   3   4 1664.43   34.40
   0  -3   4 5788.42  102.89
   0   3   4 5991.30   94.79
   0   3  -4 5751.32  101.99
   0   3  -4 5658.83  108.69
  -1  -3  -4 2171.38   46.00
   1  -3   4 2233.58   52.99
   1  -3   4 2079.09   49.00
  -1   3  -4 2117.89   50.09
  -1   3  -4 2100.89   47.00
   2  -3   4  150.18   12.90
  -2  -3  -4  161.18   12.60
  -2   3  -4  153.98   12.20
  -2   3  -4  178.58   15.50
   2   3   4  149.09    7.70
  -2   3  -4  136.69   11.10
   3  -3   4  623.04   29.10
  -3  -3  -4  634.24   30.00
  -3   3  -4  638.94   26.80
  -3   3  -4  638.94   32.50
   3   3   4  587.64   21.90
   4  -3   4 3915.11   93.89
  -4  -3  -4 3690.03   95.09
  -4  -3  -4 3747.12   65.99
  -4   3  -4 3704.53   99.39
  -4   3  -4 3623.14   83.99
   4   3   4 3911.71   82.79
  -5  -3  -4 1569.64   61.99
   5  -3   4 1465.45   56.79
  -5  -3  -4 1559.04   39.00
  -5   3  -4 1663.93   65.89
   5   3   4 1662.33   53.39
   6  -3   4  144.59   23.40
  -6  -3  -4  143.89   25.90
  -6  -3  -4  118.39   11.00
  -6   3  -4   94.89   15.60
  -6   3  -4   71.69   15.90
   6   3   4  120.39   19.60
   7  -3   4  608.54   41.20
  -7  -3  -4  540.15   24.80
  -7  -3  -4  495.25   40.50
  -7   3  -4  648.54   72.19
   7   3   4  540.95   36.30
  -7   3  -4  571.64   33.30
  -8  -3  -4 1195.08   68.49
  -8  -3  -4 1258.07   41.60
  -8   3  -4 1299.67   53.39
  -8   3  -4 1245.38   70.99
   8   3   4 1223.48   60.59
  -9  -3  -4  853.21   61.89
  -9  -3  -4  836.62   32.90
  -9   3  -4  834.62   43.40
  -9   3  -4  783.32   60.09
  -9  -4   4  635.44   43.20
  -9  -4   4  512.05   47.60
  -9   4   4  584.84   45.50
  -9   4   4  621.54   51.09
  -8  -4   4   99.39   19.80
  -8  -4   4   71.79   17.60
  -8   4   4   63.89   20.10
  -7  -4   4   56.19   13.40
  -7  -4   4   92.49   24.20
  -7   4   4   87.09   18.30
  -7   4   4  100.99   22.00
  -6  -4   4  117.19   18.30
  -6  -4   4  240.08   34.60
   6  -4  -4  146.89   21.90
   6   4  -4  152.28   24.40
  -6   4   4  116.99   19.40
   5  -4  -4  958.30   46.50
  -5  -4   4  932.81   46.90
  -5  -4   4  955.10   43.40
  -5   4   4  913.81   45.20
   5   4  -4  927.21   44.70
  -5   4   4  881.71   43.50
   4  -4  -4  775.22   37.80
  -4  -4   4  720.63   37.10
  -4  -4   4  645.14   33.10
  -4   4   4  677.03   35.80
  -4   4   4  734.73   34.90
  -3  -4   4  334.47   21.60
  -3  -4   4  328.27   22.70
   3  -4  -4  393.26   24.20
  -3   4   4  351.56   21.00
   3   4  -4  355.26   22.70
  -3   4   4  382.76   24.10
   2  -4  -4  656.63   27.80
  -2  -4   4  667.43   28.30
  -2   4   4  643.94   24.60
  -2   4   4  630.84   28.40
   2   4  -4  707.93   29.30
  -1  -4   4 1275.07   38.20
   1  -4  -4 1249.38   34.40
   1   4  -4 1273.77   37.80
  -1   4   4 1234.78   36.30
   0  -4   4 4799.32   91.59
   0   4   4 4934.11   85.29
   0   4  -4 4344.07   98.19
   0   4  -4 4770.22   98.59
   1  -4   4  522.45   22.90
   1  -4   4  494.45   24.20
  -1   4  -4  435.56   24.40
  -1   4  -4  486.45   23.20
  -2  -4  -4 1432.76   42.20
   2  -4   4 1415.16   44.70
  -2   4  -4 1337.77   42.30
  -2   4  -4 1375.26   40.60
   2   4   4 1414.76   31.70
  -3  -4  -4 1712.53   77.99
   3  -4   4 1832.92   55.79
  -3   4  -4 1681.73   50.69
  -3   4  -4 1835.52   60.29
   3   4   4 1718.33   49.60
   4  -4   4  920.71   41.10
  -4  -4  -4  921.31   42.30
  -4  -4  -4  897.01   21.50
  -4   4  -4  899.91   44.30
  -4   4  -4  911.51   37.50
   4   4   4  887.41   33.10
  -5  -4  -4  482.65   18.10
  -5  -4  -4  447.26   32.50
   5  -4   4  453.35   31.30
   5   4   4  522.85   28.50
  -5   4  -4  464.95   35.30
  -5   4  -4  487.25   28.60
  -6  -4  -4  272.87   15.30
  -6  -4  -4  288.27   28.50
   6  -4   4  305.77   27.40
   6   4   4  255.87   22.60
  -6   4  -4  299.37   30.10
  -6   4  -4  266.87   22.70
  -7  -4  -4  307.57   42.40
  -7  -4  -4  267.97   16.30
   7   4   4  233.88   24.20
  -7   4  -4  244.58   35.60
  -7   4  -4  275.87   24.20
  -8  -4  -4  271.17   19.00
  -8  -4  -4  346.17   36.70
   8   4   4  294.37   29.60
  -8   4  -4  295.07   44.70
  -8   4  -4  281.67   25.60
  -9  -4  -4   35.30   18.00
  -9   4  -4   43.70   19.10
  -9   4  -4   36.20   12.20
  -9  -5   4  536.25   39.50
  -9  -5   4  537.75   48.70
  -9   5   4  563.24   48.40
  -9   5   4  523.55   43.40
  -8  -5   4  475.85   43.20
  -8  -5   4  524.15   37.20
  -8   5   4  498.15   40.40
  -8   5   4  497.45   42.40
  -7  -5   4  114.99   21.50
  -7  -5   4  113.09   24.40
   7   5  -4  145.19   21.60
  -7   5   4  112.79   21.70
  -7   5   4   97.49   18.10
   6  -5  -4  318.57   30.00
  -6  -5   4  364.66   28.30
  -6  -5   4  395.56   33.60
   6   5  -4  326.37   28.60
  -6   5   4  323.77   30.00
  -6   5   4  354.76   30.60
  -5  -5   4 1061.29   51.59
   5  -5  -4 1050.19   50.59
  -5  -5   4 1086.59   46.90
   5   5  -4 1005.10   47.20
  -5   5   4 1105.99   49.70
  -5   5   4 1043.80   49.70
  -4  -5   4  944.91   44.70
  -4  -5   4  948.31   40.90
   4  -5  -4  949.51   52.99
  -4   5   4  996.10   45.00
  -4   5   4  984.90   42.00
   4   5  -4  983.10   43.10
   3  -5  -4   54.39   10.80
  -3  -5   4   59.19   11.00
   3   5  -4   48.80    9.70
  -3   5   4   78.79   13.10
  -3   5   4   47.90    9.80
   2  -5  -4  392.36   22.00
  -2  -5   4  385.96   22.20
  -2   5   4  379.46   19.90
  -2   5   4  359.16   22.20
   2   5  -4  375.26   22.00
  -1  -5   4 3271.27   74.49
   1  -5  -4 3428.06   71.39
  -1   5   4 3336.37   73.79
   1   5  -4 3389.86   74.99
   0   5   4 2596.24   57.59
   0   5  -4 2541.45   60.39
   0   5  -4 2550.04   68.19
   1  -5   4   -2.60    2.90
  -1   5  -4    4.50    3.80
  -1   5  -4   -0.60    3.10
   2  -5   4 1364.06   46.80
  -2  -5  -4 1376.16   43.20
  -2   5  -4 1342.27   45.20
   2   5   4 1419.86   34.40
  -2   5  -4 1377.66   43.00
  -3  -5  -4 2609.04   71.09
   3  -5   4 2640.44   72.79
  -3   5  -4 2498.35   76.19
  -3   5  -4 2495.15   68.79
   3   5   4 2668.93   58.39
   4  -5   4  364.06   26.60
  -4  -5  -4  417.46   28.70
  -4   5  -4  370.36   24.90
  -4   5  -4  344.07   28.40
   4   5   4  358.26   21.00
  -5  -5  -4   75.29   18.10
   5  -5   4   62.19   13.80
  -5  -5  -4   57.39    6.40
  -5   5  -4   93.59   25.50
  -5   5  -4   69.79   14.00
   5   5   4   60.29   11.50
  -6  -5  -4 1032.00   29.90
  -6  -5  -4  944.81   52.59
   6  -5   4 1033.70   52.49
  -6   5  -4  989.20   45.70
   6   5   4  979.20   44.60
  -6   5  -4  908.71   53.79
  -7  -5  -4  644.74   57.19
   7  -5   4  717.93   46.20
  -7  -5  -4  630.14   24.10
   7   5   4  600.04   38.40
  -7   5  -4  604.94   47.10
  -7   5  -4  603.34   36.80
  -8  -5  -4  104.59   26.20
  -8  -5  -4   95.99    9.90
  -8   5  -4  100.59   28.50
   8   5   4   93.69   19.40
  -8   5  -4  120.79   19.90
  -9  -5  -4   19.20   13.20
  -9   5  -4   19.20   10.30
  -9   5  -4   12.20   11.50
  -9  -6   4   84.29   25.40
  -9  -6   4   62.89   16.60
  -9   6   4   92.79   20.60
  -9   6   4  122.99   28.10
  -8  -6   4   57.59   18.00
  -8  -6   4  105.29   20.50
  -8   6   4   57.39   16.50
  -8   6   4   75.09   21.70
  -7  -6   4   -9.50    5.70
   7  -6  -4    9.60    7.80
  -7  -6   4    0.80    6.10
  -7   6   4    0.70    6.20
   7   6  -4    6.10    9.30
  -7   6   4   -6.70    6.90
  -6  -6   4  834.32   43.40
   6  -6  -4  819.82   48.30
  -6  -6   4  815.32   49.60
   6   6  -4  782.52   45.40
  -6   6   4  888.81   49.20
  -6   6   4  776.62   45.90
  -5  -6   4  433.66   29.80
   5  -6  -4  376.66   30.40
  -5   6   4  428.66   31.00
   5   6  -4  414.86   30.50
  -5   6   4  417.56   31.90
   4  -6  -4   18.40    7.80
  -4  -6   4   15.70    6.50
   4   6  -4   15.30    8.40
  -4   6   4   25.00    9.80
  -4   6   4    7.70    6.30
  -3  -6   4   15.10    6.70
   3  -6  -4   17.60    7.30
  -3   6   4   26.50    8.40
   3   6  -4   17.50    6.90
  -3   6   4   19.50    9.20
   2  -6  -4 1826.42   54.09
  -2  -6   4 1845.32   54.39
   2   6  -4 1871.11   55.49
  -2   6   4 1882.51   57.79
  -1  -6   4  776.52   31.60
   1  -6  -4  728.33   35.70
   1   6  -4  755.72   31.30
  -1   6   4  748.53   31.20
   0  -6   4  337.37   20.50
   0   6  -4  281.57   21.80
   0   6   4  316.27   18.50
   0   6  -4  291.07   18.70
   1  -6   4   26.90    7.70
  -1   6  -4   32.20    8.50
  -1   6  -4   35.30    8.60
   2  -6   4 1381.66   49.99
  -2   6  -4 1444.86   46.50
   2   6   4 1367.76   47.40
  -2   6  -4 1445.76   49.99
   3  -6   4  859.51   40.70
  -3  -6  -4  989.90   41.30
   3   6   4  930.71   31.80
  -3   6  -4  988.40   39.20
  -3   6  -4  902.21   41.90
  -3   6  -4  903.11   44.60
   4  -6   4  117.39   18.30
  -4  -6  -4  177.98   19.50
  -4   6  -4  177.78   18.40
   4   6   4  171.08   15.20
  -4   6  -4  158.68   23.40
  -5  -6  -4   80.59    7.00
  -5  -6  -4   82.29   19.10
   5  -6   4   78.19   15.10
  -5   6  -4  113.19   19.10
   5   6   4  108.69   18.60
  -5   6  -4   63.69   16.30
   6  -6   4  464.85   36.00
  -6  -6  -4  480.15   37.90
  -6  -6  -4  489.55   18.60
  -6   6  -4  541.45   34.20
   6   6   4  483.25   31.40
  -6   6  -4  438.96   38.80
  -7  -6  -4  643.84   22.80
  -7  -6  -4  664.63   48.00
   7  -6   4  623.04   44.90
   7   6   4  675.43   41.00
  -7   6  -4  646.84   39.50
  -7   6  -4  684.23   50.49
  -8  -6  -4   21.00   13.50
  -8   6  -4    5.10    9.20
  -8   6  -4    8.40    7.20
  -9  -6  -4   57.39   20.50
  -9   6  -4   56.99   23.00
  -9   6  -4   41.00   17.20
  -9  -7   4  303.67   30.80
  -9  -7   4  279.97   45.00
  -9   7   4  278.07   41.70
  -9   7   4  295.77   34.20
  -8  -7   4   16.10   12.70
  -8  -7   4   16.30    9.10
  -8   7   4   25.90   14.90
  -8   7   4   20.90   10.60
   7  -7  -4 1635.84   75.49
  -7  -7   4 1613.14   64.69
  -7  -7   4 1612.24   77.99
  -7   7   4 1677.53   74.49
  -7   7   4 1694.63   75.89
   7   7  -4 1586.24   71.19
   6  -7  -4  419.26   34.50
  -6  -7   4  445.86   31.50
  -6  -7   4  446.76   37.70
  -6   7   4  442.96   35.70
   6   7  -4  474.85   34.60
  -6   7   4  458.85   35.70
   5  -7  -4 1021.90   51.29
  -5  -7   4 1035.90   46.80
  -5   7   4  959.70   50.29
   5   7  -4  992.90   48.70
  -5   7   4  989.20   49.60
   4  -7  -4  150.98   23.10
  -4  -7   4  136.59   20.40
   4   7  -4  105.89   16.90
  -4   7   4  117.49   18.80
  -4   7   4  106.19   19.00
  -3  -7   4 1834.12   58.59
   3  -7  -4 1796.72   60.29
  -3   7   4 2036.20   66.49
   3   7  -4 1846.02   60.39
  -3   7   4 1785.12   58.49
   2  -7  -4 2157.38   61.49
   2   7  -4 2018.10   60.79
  -2   7   4 2076.29   64.09
   1  -7  -4 1448.36   46.20
  -1  -7   4 1394.86   47.00
   1   7  -4 1360.66   53.79
   1   7  -4 1435.76   47.20
  -1   7   4 1376.06   47.20
   0  -7   4  102.29   14.80
   0   7  -4  139.99   16.40
   0   7  -4  110.89   12.90
   0   7   4   99.79   11.80
   1  -7   4  950.00   43.90
  -1   7  -4  947.81   37.50
  -1   7  -4  982.00   42.60
   2  -7   4 2511.35   74.79
  -2   7  -4 2315.17   85.29
   2   7   4 2572.34   59.49
  -2   7  -4 2542.15   68.99
   3  -7   4 1538.05   58.19
  -3  -7  -4 1574.54   55.59
  -3   7  -4 1675.43   58.99
  -3   7  -4 1638.34   54.69
   3   7   4 1581.94   46.50
   4  -7   4   39.10   10.10
  -4  -7  -4   55.29   14.30
   4   7   4   39.50    9.50
  -4   7  -4   53.99   13.50
  -4   7  -4   55.49   14.70
  -5  -7  -4  947.01   49.90
   5  -7   4  963.30   50.29
   5   7   4  944.61   41.20
  -5   7  -4  983.10   54.59
  -5   7  -4  969.40   46.70
   6  -7   4 1971.30   78.89
  -6  -7  -4 1908.71   78.89
  -6   7  -4 1925.91   83.69
  -6   7  -4 1881.21   69.59
   6   7   4 1815.82   65.09
  -7  -7  -4  598.34   46.30
   7  -7   4  598.24   45.50
  -7   7  -4  649.83   40.80
   7   7   4  657.73   40.20
  -7   7  -4  702.43   52.19
  -8  -7  -4  200.18   33.30
   8   7   4  241.18   40.40
  -8   7  -4  187.38   32.80
  -8   7  -4  236.88   26.20
  -8  -8   4  158.88   30.00
  -8  -8   4  220.28   26.10
  -8   8   4  186.38   31.30
  -8   8   4  187.68   32.20
   7  -8  -4  387.56   38.90
  -7  -8   4  372.96   30.80
  -7   8   4  336.07   37.60
  -7   8   4  351.96   38.90
   7   8  -4  340.17   51.59
  -6  -8   4  145.19   23.30
  -6   8   4   99.59   18.60
  -6   8   4   98.99   21.70
   6   8  -4   67.09   17.40
   5  -8  -4  579.84   39.40
  -5  -8   4  652.73   36.90
  -5   8   4  632.14   39.80
  -5   8   4  601.04   40.60
   5   8  -4  593.24   38.30
   4  -8  -4  428.96   30.80
  -4  -8   4  506.45   30.90
   4   8  -4  456.35   31.20
  -4   8   4  475.65   34.40
  -4   8   4  503.25   32.80
   3  -8  -4  868.81   41.10
  -3  -8   4  842.12   38.90
   3   8  -4  773.92   38.60
  -3   8   4  810.62   42.10
  -3   8   4  899.41   40.90
  -2  -8   4  142.09   19.30
   2  -8  -4  157.78   16.00
   2   8  -4  136.99   21.50
  -1  -8   4  420.76   25.80
   1  -8  -4  427.26   25.50
   1   8  -4  413.76   30.40
  -1   8   4  444.26   27.00
   0  -8   4  619.44   38.40
   0   8   4  736.33   33.50
   0   8  -4  764.62   34.60
   1  -8   4 1462.75   58.49
  -1   8  -4 1375.96   48.60
   1   8   4 1377.56   42.40
  -1   8  -4 1245.78   52.29
   1   8   4 1347.67   47.10
   2  -8   4   95.39   16.60
  -2   8  -4  107.09   16.60
   2   8   4  115.89   12.10
  -2   8  -4  126.29   20.10
   3  -8   4  268.47   24.60
   3   8   4  325.17   20.60
  -3   8  -4  300.57   25.90
  -3   8  -4  323.27   24.20
   4  -8   4  805.12   45.00
  -4  -8  -4  854.21   44.70
  -4   8  -4  786.12   48.90
  -4   8  -4  901.81   42.90
   4   8   4  869.51   37.30
  -4   8  -4  906.11   45.80
  -5  -8  -4  925.71   50.49
   5  -8   4  948.31   51.19
  -5   8  -4  875.21   53.49
  -5   8  -4  987.20   48.90
   5   8   4  954.20   42.40
   6  -8   4   19.10    7.90
  -6  -8  -4   30.30   13.20
  -6   8  -4   38.10   19.00
  -6   8  -4   16.10    9.00
   6   8   4   51.49   13.30
  -7  -8  -4    2.50    7.40
  -7   8  -4   14.20    9.10
  -7   8  -4   12.00   11.20
   7   8   4   16.50    9.40
  -8  -8  -4  419.56   42.30
  -8   8  -4  350.06   40.70
  -8  -9   4   15.60   11.80
  -8   9   4    2.30   10.30
  -8   9   4   -5.20    7.10
  -7  -9   4  183.98   25.40
  -7   9   4  163.48   31.90
  -7   9   4  192.88   32.60
  -6  -9   4   97.89   17.10
   6   9  -4   78.79   17.20
  -6   9   4   84.89   18.40
  -6   9   4  115.39   24.40
  -5  -9   4  236.88   23.00
   5  -9  -4  309.27   28.20
   5   9  -4  259.47   25.90
  -5   9   4  274.77   51.79
  -5   9   4  235.78   26.40
  -4  -9   4    7.00    6.30
   4  -9  -4    9.20    5.60
  -4   9   4   10.70    6.40
  -4   9   4   11.90    7.30
   4   9  -4    5.20    8.20
   3  -9  -4  692.53   37.90
  -3  -9   4  760.12   38.20
  -3   9   4  717.93   41.50
   3   9  -4  754.62   39.30
  -2  -9   4   39.60   10.70
   2  -9  -4   40.70   11.00
   2   9  -4   35.80    9.00
  -2   9   4   31.70   11.00
  -1  -9   4  177.98   18.30
   1  -9  -4  163.88   17.10
   1   9  -4  203.78   22.70
   1   9  -4  141.39   16.20
  -1   9   4  177.48   18.60
   0   9  -4  193.08   20.30
   0   9   4  148.49   16.50
   0   9  -4  186.48   20.90
   1  -9   4 1692.73   66.49
  -1   9  -4 1608.24   62.49
  -1   9  -4 1557.14   54.99
   1   9   4 1617.64   49.90
   1   9   4 1573.04   55.09
   2  -9   4  332.77   28.10
   2   9   4  407.56   23.40
  -2   9  -4  330.67   25.00
  -2   9  -4  345.57   28.30
   3  -9   4   73.39   14.60
  -3   9  -4   99.49   15.60
  -3   9  -4  101.99   17.80
   3   9   4  116.59   13.80
   4  -9   4  191.88   22.20
  -4   9  -4  160.78   22.70
   4   9   4  156.78   16.90
  -4   9  -4  128.09   23.80
  -4   9  -4  205.98   29.10
   5  -9   4  115.19   19.30
  -5   9  -4  126.89   20.70
   5   9   4  160.68   21.90
  -5   9  -4  166.38   31.80
   6  -9   4   81.39   18.20
  -6  -9  -4   51.99   15.80
  -6   9  -4   57.89   20.10
  -6   9  -4   50.49   15.80
   6   9   4   62.19   14.90
  -7  -9  -4  120.19   27.60
   7   9   4   87.59   16.90
  -7   9  -4   74.39   24.70
  -7   9  -4   91.29   20.40
  -8  -9  -4   70.29   20.70
  -8   9  -4   83.59   26.90
  -8   9  -4   53.49   13.60
  -8 -10   4  476.75   36.50
  -8  10   4  624.74   48.90
  -8  10   4  464.95   43.60
  -7 -10   4  767.92   44.20
  -7  10   4  713.43   51.29
  -7  10   4  667.93   49.50
   6 -10  -4   20.90   11.60
  -6 -10   4    9.00    7.00
  -6  10   4   -6.10    5.70
   6  10  -4   -2.90    7.70
  -6  10   4    7.50    9.60
   5 -10  -4 1760.52   73.59
  -5 -10   4 1787.02   66.19
  -5  10   4 1888.51   78.29
  -5  10   4 1793.82   73.19
   5  10  -4 1675.53   69.39
  -4 -10   4 1269.77   53.69
   4 -10  -4 1317.67   58.69
  -4  10   4 1319.37   58.99
  -4  10   4 1291.07   61.49
   4  10  -4 1324.77   57.49
  -3 -10   4 1076.39   47.60
   3 -10  -4  973.10   47.40
   3  10  -4  993.30   47.40
  -3  10   4 1006.20   51.49
   2 -10  -4   10.40    7.10
  -2 -10   4    3.50    6.10
  -2  10   4    1.50    5.70
   2  10  -4   -0.90    5.00
  -1 -10   4 2337.17   71.79
   1  10  -4 2165.18   69.89
  -1  10   4 2400.46   75.39
   0  10  -4 1872.61   63.09
   0  10  -4 1909.81   71.39
   0  10   4 1859.71   63.89
   1 -10   4 2338.57   83.49
   1  10   4 2362.26   65.99
   1  10   4 2269.57   71.89
  -1  10  -4 2243.48   79.39
  -1  10  -4 2373.26   72.89
   2 -10   4  131.59   23.10
  -2  10  -4   89.99   17.00
  -2  10  -4   96.09   15.30
   2  10   4  109.59   15.80
   3 -10   4  418.06   33.40
  -3  10  -4  478.85   35.80
   3  10   4  431.36   33.70
  -3  10  -4  454.35   31.30
   4  10   4 1261.27   50.69
  -4  10  -4 1350.56   67.89
  -4  10  -4 1273.27   60.29
  -4  10  -4 1403.16   58.29
   5  10   4 1586.74   60.49
  -5  10  -4 1624.84   65.89
  -5  10  -4 1516.65   75.79
  -5  10  -4 1555.24   68.39
   6 -10   4   19.80   16.50
  -6  10  -4   26.60   14.30
   6  10   4   27.60    9.60
  -6  10  -4   52.69   15.60
   7  10   4  201.68   28.60
  -7  10  -4  172.18   34.90
  -8 -10  -4 1196.78   73.49
  -8  10  -4 1171.98   62.79
  -8  10  -4 1122.49   75.39
  -8 -11   4    4.00    9.40
  -8  11   4   26.20   15.90
  -8  11   4   20.50   11.80
  -7 -11   4  491.25   35.50
  -7  11   4  454.65   42.30
  -7  11   4  482.15   42.90
  -6 -11   4  398.26   31.70
   6 -11  -4  327.37   33.50
  -6  11   4  291.37   51.69
  -6  11   4  405.86   37.50
  -5 -11   4  314.87   27.40
  -5  11   4  251.27   27.90
  -5  11   4  306.37   31.50
   5  11  -4  281.77   28.30
  -4 -11   4   -2.10    4.50
   4 -11  -4    4.60    6.10
  -4  11   4   -4.10    4.90
  -4  11   4   -0.90    5.70
   4  11  -4   -7.70    4.80
   3 -11  -4  825.02   45.30
  -3 -11   4  947.01   45.60
   3  11  -4  885.01   45.50
  -3  11   4  893.11   50.89
   2 -11  -4  589.14   36.80
  -2 -11   4  559.24   34.90
  -2  11   4  634.34   40.00
   2  11  -4  624.34   36.70
   2  11  -4  631.04   43.00
   1  11  -4  331.57   26.80
  -1  11   4  434.76   31.70
   1  11  -4  390.16   33.20
   0  11  -4   35.50   10.40
   0  11  -4   55.89   14.40
   0  11   4   44.10   11.60
   1  11   4  637.74   37.30
  -1  11  -4  626.94   36.60
   1  11   4  607.74   32.60
  -1  11  -4  618.04   41.20
   2 -11   4  572.94   41.20
  -2  11  -4  544.95   35.10
  -2  11  -4  512.85   37.90
   2  11   4  626.54   32.80
   3  11   4  293.17   24.00
  -3  11  -4  314.37   27.10
  -3  11  -4  254.37   27.70
  -4  11  -4  202.68   23.20
   4  11   4  212.88   21.00
  -4  11  -4  170.78   25.30
  -5  11  -4  255.47   29.10
   5  11   4  278.77   25.70
  -5  11  -4  253.37   38.60
  -6  11  -4  429.16   37.10
   6  11   4  409.16   33.60
  -6  11  -4  479.15   45.40
  -6  11  -4  401.56   33.90
  -7  11  -4  341.97   33.80
   7  11   4  374.86   58.79
  -7  11  -4  247.68   38.00
  -7  12   4  159.38   28.40
  -7  12   4  166.68   32.00
  -6 -12   4  118.59   21.00
  -6  12   4  113.19   25.70
  -6  12   4  161.38   30.60
  -5 -12   4   78.09   16.10
   5  12  -4  133.09   23.20
  -5  12   4   99.29   20.80
  -5  12   4  114.89   24.60
   4 -12  -4   80.99   18.10
  -4 -12   4   92.39   18.50
  -4  12   4   74.69   18.70
   4  12  -4   50.69   18.10
  -4  12   4   81.59   18.70
  -3 -12   4  347.67   28.60
   3 -12  -4  368.66   31.00
  -3  12   4  325.37   31.80
   2 -12  -4  168.68   23.50
  -2 -12   4  171.88   23.20
   2  12  -4  156.58   23.70
  -2  12   4  190.38   29.50
   1  12  -4   -2.30    4.20
   1  12  -4   -4.30    4.30
  -1  12   4    8.70    7.10
   0  12  -4  464.25   32.40
   0  12   4  469.25   33.40
   0  12  -4  514.85   38.60
   0  12   4  439.96   29.90
  -1  12  -4  769.22   48.00
   1  12   4  823.92   44.30
  -1  12  -4  831.32   43.80
   1  12   4  691.53   37.10
   2 -12   4  188.68   28.50
   2  12   4  189.98   27.00
  -2  12  -4  198.08   22.30
  -2  12  -4  207.68   30.90
   2  12   4  172.98   19.00
   3  12   4    0.80    6.80
  -3  12  -4    2.90    7.10
  -3  12  -4    1.90    5.60
  -4  12  -4  542.95   41.80
   4  12   4  539.95   34.70
   5  12   4  481.85   34.50
  -5  12  -4  497.65   46.10
  -5  12  -4  427.16   37.50
   6  12   4   36.70   12.20
  -6  12  -4   10.00   11.30
  -6  12  -4   12.90   11.80
  -6  12  -4    8.70   11.80
  -7  12  -4    7.40   11.30
  -7  12  -4    3.80    8.70
  -7 -13   4  762.02   46.30
  -7  13   4  785.82   58.39
  -7  13   4  786.12   57.99
  -6 -13   4  336.97   30.20
  -6  13   4  340.27   36.00
  -6  13   4  348.47   37.60
  -5 -13   4  830.32   46.80
   5 -13  -4  803.02   51.49
  -5  13   4  747.33   72.49
  -5  13   4  869.31   54.89
   4 -13  -4   -3.30    6.40
  -4 -13   4    3.70    6.80
  -4  13   4    7.20    8.70
  -4  13   4   16.70   10.20
   4  13  -4    8.50    7.70
  -3 -13   4  602.24   38.30
   3 -13  -4  602.84   41.40
  -3  13   4  606.84   43.70
   2 -13  -4  930.11   49.90
  -2  13   4  851.11   50.69
   2  13  -4  970.60   57.39
   1  13  -4 1379.26   66.89
  -1  13   4 1261.67   59.89
   0  13   4    5.70    5.80
   0  13   4    7.30    7.70
   0  13  -4    8.00    7.20
  -1  13  -4  616.54   44.10
   1  13   4  578.64   35.10
   1  13   4  644.64   40.70
  -1  13  -4  669.23   40.00
   2 -13   4 1885.51   83.69
   2  13   4 2028.00   77.19
  -2  13  -4 1938.41   74.29
   2  13   4 2022.70   68.89
  -2  13  -4 2085.59   84.69
   3  13   4  842.92   43.80
  -3  13  -4  815.62   52.49
  -4  13  -4    2.20    7.30
   4  13   4    8.00    6.50
   5  13   4  312.07   45.50
  -5  13  -4  273.57   28.10
  -5  13  -4  298.87   46.90
  -6  13  -4 1055.39   72.09
   6  13   4 1032.10   56.09
  -6  13  -4 1074.89   63.69
  -7  13  -4  564.64   47.00
  -7  13  -4  545.65   53.39
  -6  14   4  404.16   41.30
  -6  14   4  464.25   42.70
   5 -14  -4  696.03   48.50
  -5 -14   4  629.74   41.60
  -5  14   4  590.64   47.10
  -5  14   4  685.23   51.79
  -4 -14   4  112.19   19.90
  -4  14   4  116.49   24.60
   4  14  -4   90.99   22.10
  -4  14   4   96.59   22.90
   3 -14  -4   15.30   10.80
  -3 -14   4    7.20    6.80
   3  14  -4   14.80   10.20
   3  14  -4   -6.60    5.80
  -3  14   4  -10.20    8.10
   2  14  -4 1285.77   68.79
  -2  14   4 1335.67   65.79
  -1  14   4 1259.37   56.59
   1  14  -4 1210.58   64.79
  -1  14   4 1220.18   60.49
   0  14   4   42.90   11.20
   0  14  -4   31.40   13.50
   0  14   4   39.80   14.00
   1  14   4   -1.00    5.10
  -1  14  -4    9.10    8.50
   1  14   4   -8.00    5.40
   2  14   4 1279.87   55.39
  -2  14  -4 1211.28   65.79
   2  14   4 1316.87   62.79
   3 -14   4  610.74   48.20
   3  14   4  633.04   39.20
  -3  14  -4  571.34   41.10
  -3  14  -4  588.24   46.10
   3  14   4  572.94   41.70
  -4  14  -4   68.89   21.20
  -4  14  -4   98.19   22.40
   4  14   4  109.29   21.60
   5  14   4    5.40    9.60
  -5  14  -4   27.30   14.30
  -5  14  -4   36.80   18.90
  -6  14  -4  552.34   47.10
  -6  14  -4  545.35   52.69
  -6 -15   4   46.50   13.30
  -6  15   4   33.40   15.50
  -6  15   4   37.10   19.10
  -5 -15   4  445.76   42.70
  -5  15   4  455.95   43.60
  -5  15   4  475.25   42.80
   4 -15  -4  873.21   55.39
  -4  15   4  835.92   67.59
  -4  15   4  860.91   58.49
   3 -15  -4   26.60   11.20
  -3  15   4   18.10   10.20
  -2  15   4  274.37   30.30
   2  15  -4  298.57   33.20
  -1  15   4  608.24   43.70
   1  15  -4  548.95   44.50
   0  15   4 1095.09   53.79
   0  15   4 1126.39   58.69
   0  15  -4 1065.89   61.39
   1  15   4  126.89   24.00
  -1  15  -4  101.19   22.10
   1  15   4   87.89   17.50
   2  15   4  223.38   32.10
  -2  15  -4  217.88   33.80
  -2  15  -4  248.38   28.30
   2  15   4  201.08   23.30
   3  15   4 1052.19   84.39
   3  15   4  987.30   57.69
   4  15   4  336.67   32.10
  -4  15  -4  272.47   38.60
  -5  15  -4  138.09   26.00
  -5  15  -4  117.39   30.20
  -6  15  -4  178.18   33.80
  -6  15  -4   95.59   26.70
  -5  16   4  332.07   38.40
  -5  16   4  249.28   39.30
   4 -16  -4  206.08   34.10
  -4  16   4  160.38   30.40
  -4  16   4  227.28   38.80
   4  16  -4  179.48   31.30
   3  16  -4  147.99   30.40
  -3  16   4  134.09   27.50
  -2  16   4   35.20   12.50
   2  16  -4   31.20   19.20
  -1  16   4  199.08   29.10
  -1  16   4  163.18   26.90
   1  16  -4  158.38   27.20
   0  16   4  421.26   36.70
   0  16  -4  434.36   40.40
   0  16   4  388.96   32.10
  -1  16  -4  198.68   52.39
   1  16   4  349.87   32.90
   1  16   4  345.17   30.20
  -2  16  -4   37.70   15.30
   2  16   4   44.40   14.10
   2  16   4   50.09   13.10
  -3  16  -4  316.57   36.50
   3  16   4  290.27   30.20
   3  16   4  350.56   35.20
   4  16   4  152.58   29.40
  -4  16  -4  160.48   33.20
  -5  16  -4  183.78   30.60
  -5  16  -4  140.69   33.70
  -5  17   4  116.29   27.50
   5  17  -4   99.89   24.80
  -5  17   4  116.59   25.00
   4  17  -4 1324.67   79.69
  -4  17   4 1283.67   73.29
  -4  17   4 1214.18   74.09
  -3  17   4  316.57   36.60
   3  17  -4  322.67   37.80
   2  17  -4   53.19   15.90
  -2  17   4   38.90   12.80
   1  17  -4  330.17   36.10
  -1  17   4  319.27   35.00
   0  17   4 1369.16   70.19
   0  17  -4 1548.15   78.89
   1  17   4  759.92   50.49
  -1  17  -4  737.03   54.69
   1  17   4  726.73   59.49
   2  17   4    2.30    7.30
  -2  17  -4  -13.30    5.60
   3  17   4  169.48   29.20
  -3  17  -4  202.38   36.80
  -4  17  -4  781.42   60.19
   4  17   4  749.03   55.29
   4  18  -4    5.10    9.40
  -4  18   4    7.50   10.80
  -4  18   4   -8.70    8.70
   3  18  -4  290.37   40.20
  -3  18   4  229.38   40.50
   2  18  -4  691.43   53.79
  -2  18   4  637.04   51.39
   1  18  -4  104.79   24.10
  -1  18   4   89.49   21.80
   0  18   4   88.79   22.30
   0  18  -4   66.09   20.00
  -1  18  -4  334.77   37.10
   1  18   4  265.07   30.10
   2  18   4  423.66   39.80
  -2  18  -4  522.45   47.70
   3  18   4  236.78   35.70
  -3  18  -4  247.18   41.30
   2  19  -4   21.50   14.10
  -2  19   4   18.20   10.10
   1  19  -4    5.10   11.10
  -1  19   4   -2.00    8.20
   0  19   4   28.50   14.90
   0  19  -4   64.69   19.70
   1  19   4   28.50   13.70
  -1  19  -4   61.19   20.90
  -2  19  -4   -2.60    7.50
   2  19   4   -7.70    9.20
  -9   0   5    5.10    6.80
  -9   0   5   -3.20    7.40
  -8   0   5    8.60    9.20
  -8   0   5    0.90    5.50
  -7   0   5   -8.70    4.90
  -7   0   5    2.60    6.60
   6   0  -5    2.00    5.40
  -6   0   5   -5.30    5.00
  -6   0   5    9.60    7.60
   5   0  -5    3.30    4.70
  -5   0   5   -5.30    3.60
  -4   0   5    8.10    5.20
   4   0  -5   -2.70    2.80
  -4   0   5    5.30    5.10
   3   0  -5    4.20    3.80
  -3   0   5   -0.80    3.40
  -3   0   5   -5.10    3.60
  -2   0   5    1.20    2.90
  -2   0   5    3.20    3.10
   2   0  -5    1.80    3.30
   1   0  -5   -0.80    2.20
  -1   0   5   -0.80    2.30
   0   0   5    1.60    2.30
   1   0   5    3.00    1.80
  -1   0  -5    1.60    2.60
   1   0   5    3.10    1.60
  -2   0  -5   -2.00    2.60
   2   0   5    2.30    2.30
  -3   0  -5   -0.80    1.50
   3   0   5    2.10    2.80
  -3   0  -5    3.20    4.80
  -3   0  -5    3.30    2.80
  -4   0  -5   -6.20    3.30
   4   0   5    1.20    3.90
  -4   0  -5   -1.00    2.20
  -5   0  -5    1.60    3.20
  -5   0  -5    8.10    7.90
   5   0   5   -7.70    3.60
  -6   0  -5    1.80    3.50
  -6   0  -5    3.00    6.60
   6   0   5   -3.00    4.70
  -7   0  -5   -4.90    7.50
   7   0   5    2.20    4.90
   8   0   5   20.40   10.70
  -9   0  -5    7.00    5.40
  -9   0  -5    1.30    8.40
  -9  -1   5  272.17   30.60
  -9  -1   5  264.57   39.90
  -9   1   5  333.77   36.90
  -9   1   5  318.47   32.60
  -8  -1   5  222.78   25.30
  -8  -1   5  128.09   25.90
  -8   1   5  150.78   26.80
  -8   1   5  153.58   24.60
  -7  -1   5  407.16   35.00
  -7  -1   5  408.26   32.80
  -7   1   5  341.67   32.20
  -7   1   5  433.56   34.20
   6  -1  -5 1949.60   73.49
  -6  -1   5 1828.32   82.99
  -6  -1   5 1998.30   71.29
   6   1  -5 2047.40   74.59
  -6   1   5 2012.50   73.79
  -6   1   5 2047.30   72.89
  -5  -1   5  871.21   42.10
   5  -1  -5  907.21   44.40
  -5  -1   5  847.92   42.40
  -5   1   5  951.60   44.60
   5   1  -5  901.61   43.70
  -5   1   5  883.01   42.20
  -4  -1   5   74.09   14.60
  -4  -1   5   83.99   13.50
   4  -1  -5   66.59   12.30
  -4   1   5   75.39   14.10
   4   1  -5   75.79   14.00
  -4   1   5  114.29   16.40
  -3  -1   5 1517.55   48.60
   3  -1  -5 1464.25   48.00
  -3  -1   5 1564.54   47.20
  -3   1   5 1605.34   50.09
  -3   1   5 1559.74   45.10
   3   1  -5 1659.93   50.59
   2  -1  -5 1789.92   49.50
  -2  -1   5 1900.31   50.19
  -2  -1   5 1945.61   47.20
  -2   1   5 1963.80   50.69
  -2   1   5 1964.10   43.90
   2   1  -5 1892.71   49.80
  -1  -1   5 2327.77   51.19
   1  -1  -5 2275.87   47.40
  -1   1   5 2245.88   48.80
   1   1  -5 2257.27   49.70
  -1   1   5 2257.37   39.90
   0  -1   5  550.74   17.90
   0   1  -5  569.24   16.70
   0   1   5  571.14   14.30
   0   1  -5  568.74   18.20
  -1  -1  -5 1119.19   28.50
   1  -1   5 1137.69   28.20
   1  -1   5 1136.69   26.70
  -1   1  -5 1151.08   32.50
  -1   1  -5 1054.09   21.50
  -1   1  -5 1108.39   22.20
  -2  -1  -5 1761.42   46.20
   2  -1   5 1747.03   41.00
   2   1   5 1637.04   32.70
  -2   1  -5 1709.53   47.90
  -2   1  -5 1610.54   32.00
  -2   1  -5 1631.24   32.70
  -3  -1  -5 4466.85   97.89
   3  -1   5 4554.94   89.69
   3   1   5 4372.26   82.59
  -3   1  -5 4279.27   77.89
  -3   1  -5 4419.46  110.79
  -3   1  -5 4239.58   77.49
   4  -1   5 1081.59   40.20
  -4  -1  -5 1075.29   45.50
  -4  -1  -5 1073.69   25.00
  -4   1  -5 1116.19   32.60
   4   1   5 1088.79   37.40
  -4   1  -5 1056.49   46.10
  -5  -1  -5   30.60   12.10
  -5  -1  -5   26.20    5.70
  -5   1  -5   24.90    6.60
  -5   1  -5   26.30   11.10
   5   1   5   17.30    6.90
  -6  -1  -5  909.51   30.30
  -6  -1  -5  891.21   50.29
   6  -1   5  945.51   45.80
   6   1   5  943.11   44.10
  -6   1  -5  885.91   50.59
  -6   1  -5  890.01   34.60
   7  -1   5 2195.28   79.99
  -7  -1  -5 2038.40   85.29
  -7  -1  -5 2059.39   53.89
   7   1   5 2087.29   75.59
  -7   1  -5 2059.09   87.79
  -7   1  -5 2154.08   60.69
  -8  -1  -5  502.65   44.30
  -8  -1  -5  508.75   26.50
   8  -1   5  551.34   40.40
  -8   1  -5  503.95   44.50
  -8   1  -5  505.05   28.30
   8   1   5  418.46   35.60
  -9  -1  -5   19.60    7.00
  -9  -1  -5   32.50   17.00
  -9   1  -5   34.20    9.80
  -9   1  -5   24.00   15.30
  -9  -2   5   59.59   16.60
  -9  -2   5   45.30   17.20
  -9   2   5   60.49   20.20
  -9   2   5   44.10   16.50
  -8  -2   5 1406.16   71.89
  -8  -2   5 1339.97   63.09
  -8   2   5 1336.27   69.39
  -8   2   5 1313.27   65.49
  -7  -2   5 1432.96   67.49
  -7  -2   5 1493.75   63.79
  -7   2   5 1512.95   67.99
  -7   2   5 1559.34   66.69
   6  -2  -5    7.20    6.00
  -6  -2   5    9.80    7.10
  -6  -2   5    7.60    8.10
  -6   2   5   14.20    8.60
   6   2  -5    5.00    6.40
  -6   2   5   -5.30    4.50
   5  -2  -5   16.60    8.00
  -5  -2   5   13.00    8.00
  -5  -2   5    9.00    6.70
   5   2  -5   19.50    7.60
  -5   2   5   13.40    7.90
  -5   2   5    9.10    6.50
  -4  -2   5 2920.81   78.79
  -4  -2   5 2935.11   78.09
   4  -2  -5 2834.32   79.19
   4   2  -5 2805.52   78.19
  -4   2   5 2803.32   84.29
  -4   2   5 2862.81   79.19
  -3  -2   5 3414.36   81.39
   3  -2  -5 3473.85   82.39
  -3  -2   5 3399.26   80.29
   3   2  -5 3397.86   81.69
  -3   2   5 3569.04   76.69
  -3   2   5 3431.26   82.29
   2  -2  -5  621.64   26.20
  -2  -2   5  698.03   28.20
   2   2  -5  665.13   27.50
  -2   2   5  700.03   27.90
  -2   2   5  688.53   22.40
  -1  -2   5  164.38   12.10
   1  -2  -5  179.68   10.40
   1   2  -5  155.98   11.60
  -1   2   5  158.08   10.80
  -1   2   5  174.28    6.80
   0  -2   5 1101.89   29.90
   0   2   5 1118.19   22.50
   0   2  -5 1152.88   32.70
   0   2  -5 1098.89   28.90
   1  -2   5 2542.55   54.79
   1  -2   5 2464.35   51.69
  -1  -2  -5 2522.55   49.99
  -1   2  -5 2439.16   48.40
  -1   2  -5 2451.65   50.09
  -2  -2  -5 1425.96   40.50
  -2   2  -5 1400.76   33.50
  -2   2  -5 1422.76   44.90
  -2   2  -5 1397.56   34.70
   2   2   5 1424.06   26.50
   3  -2   5  263.27   17.70
  -3  -2  -5  276.17   19.50
  -3   2  -5  267.97   14.80
  -3   2  -5  270.27   14.60
   3   2   5  272.97   13.80
  -3   2  -5  281.27   21.20
   4  -2   5 1192.28   43.50
  -4  -2  -5 1112.29   46.10
   4   2   5 1123.39   37.30
  -4   2  -5 1069.49   35.20
  -4   2  -5 1116.29   48.20
  -5  -2  -5 1986.80   41.40
  -5  -2  -5 1939.81   70.29
   5  -2   5 1989.80   65.59
  -5   2  -5 2020.10   55.19
  -5   2  -5 2031.60   73.49
   5   2   5 2031.80   60.29
  -6  -2  -5  221.78   25.10
  -6  -2  -5  211.68   12.80
   6  -2   5  241.68   24.00
  -6   2  -5  248.38   27.40
   6   2   5  219.98   20.70
  -6   2  -5  201.18   17.20
  -7  -2  -5   -1.80    3.40
  -7  -2  -5   -4.20    5.10
   7  -2   5    7.10    8.10
   7   2   5    1.90    4.90
  -7   2  -5   16.20    7.30
   8  -2   5  470.25   38.80
  -8  -2  -5  456.15   21.50
  -8  -2  -5  450.85   42.00
   8   2   5  420.56   34.60
  -8   2  -5  435.36   41.90
  -8   2  -5  433.56   27.50
  -9  -2  -5 1035.00   67.99
  -9  -2  -5 1108.59   37.40
  -9   2  -5  902.51   64.59
  -9   2  -5 1037.70   44.00
  -9  -3   5   75.79   18.90
  -9  -3   5   38.10   15.20
  -9   3   5   36.60   12.90
  -9   3   5   66.69   20.70
  -8  -3   5   69.69   18.80
  -8  -3   5  143.89   25.80
  -8   3   5  116.29   25.20
  -7  -3   5 1077.49   58.89
  -7  -3   5 1064.29   52.99
  -7   3   5 1106.09   56.69
  -7   3   5 1118.59   57.79
  -6  -3   5    1.00    7.10
  -6  -3   5    0.50    4.70
   6  -3  -5    5.20    6.70
  -6   3   5    0.70    6.00
   6   3  -5   -3.30    2.90
  -6   3   5   -9.20    5.70
   5  -3  -5   85.29   16.40
  -5  -3   5  138.99   24.60
  -5  -3   5  127.99   20.10
  -5   3   5  114.79   19.20
  -5   3   5   87.49   18.10
   5   3  -5   76.19   13.70
  -4  -3   5  831.12   38.50
  -4  -3   5  815.32   39.00
   4  -3  -5  914.41   41.30
  -4   3   5  926.51   38.40
  -4   3   5  869.11   40.20
   3  -3  -5  897.51   37.10
  -3  -3   5  894.41   36.80
  -3  -3   5  991.10   38.60
  -3   3   5  952.80   38.50
   3   3  -5  972.30   38.50
  -3   3   5  976.90   34.20
   2  -3  -5   95.49   10.70
  -2   3   5   78.59   10.70
   2   3  -5   98.99   11.20
  -2   3   5  114.99    9.10
  -1  -3   5 1038.70   33.30
   1  -3  -5 1071.19   28.50
   1   3  -5 1021.90   32.90
  -1   3   5 1058.79   31.10
  -1   3   5 1052.89   23.40
   0  -3   5  428.86   19.10
   0   3   5  470.85   14.40
   0   3  -5  462.05   22.00
   0   3  -5  466.85   19.10
  -1  -3  -5  978.80   26.90
   1  -3   5  992.80   30.60
   1  -3   5  913.71   38.40
  -1   3  -5 1013.10   30.90
  -1   3  -5  949.51   28.20
  -2  -3  -5    2.00    3.50
   2  -3   5   15.30    5.80
  -2   3  -5   18.40    7.20
  -2   3  -5   21.60    5.70
  -2   3  -5   13.40    4.60
   3  -3   5    1.40    3.60
  -3  -3  -5    9.60    5.10
  -3   3  -5    2.30    3.00
   3   3   5    7.40    3.50
  -3   3  -5    4.80    3.60
  -3   3  -5   -0.20    3.70
   4  -3   5  617.04   32.20
  -4  -3  -5  629.14   34.40
   4   3   5  627.84   26.60
  -4   3  -5  673.63   28.70
  -4   3  -5  655.13   37.20
  -5  -3  -5  298.77   26.80
   5  -3   5  272.57   23.70
   5   3   5  283.67   20.60
  -5   3  -5  276.07   26.80
  -5   3  -5  242.08   18.80
  -6  -3  -5  439.46   35.20
  -6  -3  -5  456.55   16.80
   6  -3   5  420.46   32.20
  -6   3  -5  470.05   37.30
  -6   3  -5  428.96   26.30
   6   3   5  410.16   28.00
   7  -3   5  106.39   20.20
  -7  -3  -5   86.79   21.50
  -7  -3  -5   88.99    8.60
  -7   3  -5  111.49   26.40
   7   3   5   98.19   17.20
  -7   3  -5  129.29   15.20
  -8  -3  -5  213.18   13.00
  -8  -3  -5  186.78   31.50
  -8   3  -5  200.68   20.10
  -8   3  -5  227.48   38.50
   8   3   5  214.98   29.60
  -9  -3  -5  151.38   33.40
  -9   3  -5   94.19   24.00
  -9   3  -5  136.19   20.20
  -9  -4   5  324.67   37.50
  -9  -4   5  308.77   31.40
  -9   4   5  357.46   38.60
  -9   4   5  330.27   35.90
  -8  -4   5  654.43   49.80
  -8  -4   5  811.62   47.80
  -8   4   5  759.42   49.90
  -8   4   5  733.33   50.69
  -7  -4   5  604.74   44.50
  -7  -4   5  653.43   40.80
  -7   4   5  701.03   45.20
  -7   4   5  713.23   45.90
   6  -4  -5  648.64   41.40
  -6  -4   5  627.64   41.70
  -6  -4   5  654.23   39.10
  -6   4   5  673.53   41.60
  -6   4   5  633.64   40.60
  -5  -4   5  669.23   36.80
  -5  -4   5  596.14   37.00
   5  -4  -5  586.64   36.40
  -5   4   5  638.64   37.90
   5   4  -5  642.34   37.10
  -5   4   5  568.84   34.30
  -4  -4   5 1654.33   56.89
   4  -4  -5 1691.43   59.19
  -4  -4   5 1690.13   59.89
  -4   4   5 1775.42   56.09
   4   4  -5 1716.13   58.79
  -4   4   5 1637.84   58.79
  -3  -4   5 1580.04   51.79
   3  -4  -5 1605.14   52.59
   3   4  -5 1699.83   53.89
  -3   4   5 1636.84   53.99
  -3   4   5 1691.73   48.60
  -2  -4   5 1826.12   52.09
   2  -4  -5 1781.22   49.60
  -2   4   5 1767.52   51.69
  -2   4   5 1806.12   44.20
   2   4  -5 1801.02   51.79
   1  -4  -5  599.24   21.50
  -1   4   5  588.84   23.70
   1   4  -5  586.14   25.10
   0  -4   5 2031.20   51.09
   0   4  -5 2044.00   50.59
   0   4  -5 2076.79   56.79
   0   4   5 2124.29   44.30
   1  -4   5 2588.54   60.69
   1  -4   5 2638.84   66.09
  -1   4  -5 2563.34   61.89
  -1   4  -5 2426.46   57.39
  -2  -4  -5 1830.52   49.40
   2  -4   5 1848.81   53.49
  -2   4  -5 1842.62   50.39
  -2   4  -5 1820.82   47.80
   2   4   5 1796.72   36.00
   3  -4   5  223.88   18.50
   3   4   5  224.78   12.80
  -3   4  -5  247.98   21.70
  -3   4  -5  243.18   16.50
  -3   4  -5  241.78   17.30
  -4  -4  -5  441.56   28.70
   4  -4   5  448.06   28.40
   4   4   5  443.16   22.20
  -4   4  -5  479.15   25.80
  -4   4  -5  461.35   32.00
  -5  -4  -5 1735.63   66.09
   5  -4   5 1813.52   64.79
  -5   4  -5 1668.23   54.99
   5   4   5 1643.64   53.29
   6  -4   5  948.41   49.99
  -6  -4  -5  973.40   52.89
  -6   4  -5 1083.89   58.19
  -6   4  -5  991.90   42.70
   6   4   5  961.80   43.70
   7  -4   5  191.58   41.70
  -7   4  -5  161.88   27.40
  -7   4  -5  181.98   19.40
   7   4   5  194.18   25.60
  -8  -4  -5   66.89   19.20
   8   4   5  114.79   21.70
  -8   4  -5   64.79   19.60
  -8   4  -5   86.59   15.40
  -9  -4  -5  773.92   58.99
  -9   4  -5  814.52   62.29
  -9   4  -5  755.72   40.90
  -9  -5   5  318.97   31.00
  -9  -5   5  350.56   39.10
  -9   5   5  262.77   31.30
  -9   5   5  269.17   39.40
  -8  -5   5    1.20    6.20
  -8  -5   5    7.40    8.20
  -8   5   5   14.70    9.40
  -8   5   5    4.20    9.70
  -7  -5   5   21.60   10.30
  -7  -5   5   28.40   13.90
   7  -5  -5   49.20   24.40
  -7   5   5   12.90    8.90
  -7   5   5   23.90   10.90
   6  -5  -5 1067.49   55.19
  -6  -5   5 1010.90   54.59
  -6  -5   5 1049.49   49.70
  -6   5   5 1037.00   53.39
   5  -5  -5  958.40   48.30
  -5  -5   5  985.40   49.60
  -5  -5   5  924.71   44.30
  -5   5   5  905.91   44.10
  -5   5   5 1002.10   49.00
   5   5  -5  890.11   45.20
   4  -5  -5   90.69   18.60
  -4  -5   5  143.29   16.90
  -4  -5   5   77.79   15.30
  -4   5   5  102.69   16.10
   4   5  -5  112.89   18.70
  -4   5   5  130.89   19.50
   3  -5  -5  276.07   20.60
  -3   5   5  264.77   21.30
  -3   5   5  267.47   18.30
   3   5  -5  276.87   21.30
  -2  -5   5 2846.62   71.39
   2  -5  -5 2783.72   68.19
  -2   5   5 2892.21   72.49
  -2   5   5 2912.41   64.39
   2   5  -5 2810.42   71.59
   1  -5  -5 1278.67   36.70
  -1  -5   5 1367.66   42.60
  -1   5   5 1300.27   39.90
   1   5  -5 1370.26   42.50
   0  -5   5 3267.97   73.89
   0   5   5 3188.98   66.29
   0   5  -5 3262.37   80.69
   0   5  -5 3308.07   72.99
   1  -5   5  113.09   12.30
   1  -5   5  118.39   14.00
  -1   5  -5  118.39   11.70
  -1   5  -5  116.09   16.00
  -2  -5  -5 2015.50   54.39
   2  -5   5 1968.60   59.19
  -2   5  -5 1889.41   55.79
   2   5   5 1996.80   42.30
  -2   5  -5 2067.49   54.19
   3  -5   5 1849.61   59.49
  -3  -5  -5 1885.81   57.89
  -3   5  -5 1871.11   64.49
  -3   5  -5 1791.92   55.09
  -3   5  -5 1859.21   53.59
   3   5   5 1862.11   45.10
   4  -5   5  595.44   34.10
  -4  -5  -5  627.64   35.00
  -4   5  -5  614.54   37.90
  -4   5  -5  591.34   30.10
   4   5   5  644.24   27.40
   5  -5   5  533.65   34.90
  -5  -5  -5  488.45   34.50
   5   5   5  525.25   28.20
  -5   5  -5  483.15   36.90
  -5   5  -5  526.05   30.50
  -6  -5  -5  864.01   50.09
   6  -5   5  869.61   48.10
  -6   5  -5  890.21   41.90
  -6   5  -5  886.61   53.39
   6   5   5  868.31   41.50
   7  -5   5  520.65   39.60
  -7  -5  -5  530.75   42.90
  -7   5  -5  563.34   45.30
  -7   5  -5  533.75   33.50
   7   5   5  492.15   34.00
  -8  -5  -5   49.10   16.60
  -8   5  -5   26.20   14.80
  -8   5  -5   74.99   16.10
   8   5   5   25.80   12.50
  -9  -5  -5   90.39   23.40
  -9   5  -5  148.59   21.80
  -9   5  -5   98.99   29.90
  -9  -6   5  889.11   51.99
  -9  -6   5  828.42   61.19
  -9   6   5  840.92   56.99
  -9   6   5  800.92   57.79
  -8  -6   5   -3.90    7.90
  -8  -6   5   -2.80    6.70
  -8   6   5   -3.00    8.20
  -8   6   5    8.90    8.60
  -7  -6   5  104.09   18.50
   7  -6  -5  102.89   20.20
  -7  -6   5  129.29   27.90
  -7   6   5   96.99   20.90
   7   6  -5   52.79   15.50
  -7   6   5   89.29   20.10
  -6  -6   5 1406.56   58.79
   6  -6  -5 1413.16   64.69
  -6  -6   5 1490.75   68.29
  -6   6   5 1491.25   64.09
  -6   6   5 1503.45   65.69
   5  -6  -5 1504.55   61.69
  -5  -6   5 1535.45   58.59
  -5   6   5 1423.86   61.09
   5   6  -5 1444.16   59.29
  -5   6   5 1434.56   57.79
  -4  -6   5  431.56   28.30
   4  -6  -5  381.66   27.70
  -4   6   5  392.96   26.60
   4   6  -5  438.86   29.40
  -4   6   5  406.66   29.70
  -3  -6   5  191.48   18.10
   3  -6  -5  190.08   17.90
  -3   6   5  224.48   17.70
  -3   6   5  183.08   18.90
  -2  -6   5 2172.38   62.09
   2  -6  -5 2227.18   60.09
   2   6  -5 2136.49   61.89
  -2   6   5 2215.48   63.69
   1  -6  -5 2848.22   65.39
   1   6  -5 2706.63   69.49
  -1   6   5 2899.21   69.29
   0  -6   5  898.21   35.30
   0   6  -5  889.81   39.60
   0   6  -5  858.51   33.80
   0   6   5  944.61   32.00
   1  -6   5   -1.10    4.90
  -1   6  -5    3.90    4.10
  -1   6  -5    3.50    4.80
   2  -6   5 2698.43   75.89
  -2   6  -5 2759.02   69.19
   2   6   5 2689.63   56.89
  -2   6  -5 2736.93   73.69
  -3  -6  -5 2089.49   63.19
   3  -6   5 2106.29   72.39
  -3   6  -5 1962.70   69.89
  -3   6  -5 2071.49   66.79
   3   6   5 2088.39   50.89
  -3   6  -5 2034.60   59.89
  -4  -6  -5  413.66   28.80
   4  -6   5  360.36   28.00
  -4   6  -5  392.16   26.50
   4   6   5  437.36   23.10
  -4   6  -5  418.36   32.60
  -4   6  -5  406.06   25.90
  -5  -6  -5   30.70   16.20
   5  -6   5   56.79   14.70
   5   6   5   60.79   13.40
  -5   6  -5   53.59   13.40
  -5   6  -5   29.70   13.00
  -6  -6  -5 1751.92   74.29
   6  -6   5 1758.62   72.59
   6   6   5 1770.82   62.19
  -6   6  -5 1745.33   63.09
  -6   6  -5 1730.83   78.79
   7  -6   5  603.24   44.10
  -7  -6  -5  584.24   45.20
  -7   6  -5  571.44   46.90
   7   6   5  659.53   39.80
  -7   6  -5  599.04   36.90
  -8  -6  -5  568.44   47.90
  -8   6  -5  538.35   36.30
   8   6   5  520.15   39.00
  -8   6  -5  487.65   46.50
  -9  -7   5   70.39   19.10
  -9  -7   5   63.99   24.00
  -9   7   5   65.59   18.30
  -9   7   5   45.00   17.20
  -8  -7   5  116.39   29.40
  -8  -7   5   72.39   23.50
  -8   7   5   63.99   18.80
  -8   7   5   70.69   18.00
  -7  -7   5  297.47   28.40
  -7  -7   5  304.87   33.80
   7  -7  -5  371.76   33.60
   7   7  -5  251.37   28.90
  -7   7   5  373.16   35.00
  -7   7   5  326.97   32.80
   6  -7  -5  284.67   28.30
  -6  -7   5  289.97   26.40
  -6   7   5  251.87   26.10
  -6   7   5  278.07   28.70
  -5  -7   5   95.49   18.00
   5  -7  -5  117.89   20.30
  -5   7   5   75.09   16.50
  -5   7   5  101.49   19.30
   5   7  -5   90.09   18.40
   4  -7  -5  437.46   30.30
  -4  -7   5  449.56   29.80
  -4   7   5  432.76   28.50
  -4   7   5  415.36   31.00
   4   7  -5  445.16   30.30
   3  -7  -5  240.88   20.50
  -3  -7   5  198.48   19.00
   3   7  -5  222.08   20.30
  -3   7   5  275.67   23.30
  -2  -7   5  227.88   19.40
   2  -7  -5  221.78   17.80
  -2   7   5  257.27   21.00
   2   7  -5  225.58   19.20
  -1  -7   5  219.98   19.00
   1  -7  -5  269.37   19.50
   1   7  -5  219.58   21.40
  -1   7   5  231.68   18.20
   1   7  -5  201.98   17.50
   0  -7   5  543.15   28.50
   0   7  -5  528.25   27.30
   0   7   5  518.35   25.30
   1  -7   5   11.80    7.60
  -1   7  -5   14.30    5.70
  -1   7  -5    9.60    6.10
   2  -7   5  181.18   19.10
   2   7   5  180.28   13.10
  -2   7  -5  202.28   17.40
  -3  -7  -5  681.83   35.10
   3  -7   5  778.82   40.10
   3   7   5  677.13   27.70
  -3   7  -5  678.93   33.70
  -3   7  -5  763.52   38.00
   4  -7   5  183.08   21.20
  -4  -7  -5  203.68   21.50
  -4   7  -5  185.98   19.00
  -4   7  -5  184.28   19.80
   4   7   5  177.48   15.70
  -4   7  -5  237.28   26.80
   5  -7   5  100.59   20.50
  -5  -7  -5  149.99   26.10
  -5   7  -5  131.29   20.30
   5   7   5  147.89   16.20
  -5   7  -5  133.09   24.30
  -5   7  -5  125.99   19.00
  -6  -7  -5   21.20   11.60
   6  -7   5   29.20   10.60
   6   7   5   29.00   10.30
  -6   7  -5   26.10   10.30
  -6   7  -5   12.60   10.60
   7  -7   5  326.47   55.19
  -7  -7  -5  286.67   32.70
  -7   7  -5  353.06   28.70
   7   7   5  320.87   27.50
  -7   7  -5  310.87   35.60
  -8  -7  -5  142.79   30.40
  -8   7  -5  118.79   21.50
  -8   7  -5   97.79   26.00
   8   7   5  135.79   26.70
  -8  -8   5   74.19   16.70
  -8   8   5   75.89   22.70
  -8   8   5  135.59   26.30
   7  -8  -5  594.04   48.70
  -7  -8   5  550.64   37.90
  -7   8   5  426.26   46.20
  -7   8   5  461.85   39.20
  -6  -8   5  582.74   37.40
  -6   8   5  478.05   38.30
  -6   8   5  656.03   43.00
   5  -8  -5  960.10   50.09
  -5  -8   5 1047.60   49.00
  -5   8   5  996.00   52.69
  -5   8   5  998.40   49.99
   4  -8  -5  516.45   33.50
  -4  -8   5  490.15   31.80
   4   8  -5  510.15   33.30
  -4   8   5  495.55   32.10
  -4   8   5  478.05   34.60
  -3  -8   5  452.05   29.20
   3  -8  -5  489.95   30.10
  -3   8   5  436.96   27.60
  -3   8   5  443.76   31.20
   3   8  -5  485.15   30.70
  -2  -8   5  999.10   42.00
   2  -8  -5  891.21   38.60
   2   8  -5  935.41   41.10
   1  -8  -5 1180.48   42.30
  -1  -8   5 1168.18   45.50
   1   8  -5 1213.58   45.80
   1   8  -5 1065.49   50.49
  -1   8   5 1247.68   46.10
   0  -8   5  538.65   30.20
   0   8   5  521.55   27.50
   0   8  -5  547.95   29.40
  -1   8  -5  615.34   31.40
   1   8   5  615.64   29.70
  -1   8  -5  543.15   33.70
   2  -8   5  922.61   45.70
   2   8   5  907.71   33.00
  -2   8  -5  920.01   39.90
  -2   8  -5  814.42   41.60
   3  -8   5  592.24   36.90
  -3   8  -5  772.42   40.70
   3   8   5  698.43   29.90
  -3   8  -5  684.73   35.40
   4  -8   5  754.32   43.50
  -4  -8  -5  794.82   42.90
   4   8   5  759.52   34.00
  -4   8  -5  753.72   47.10
  -4   8  -5  696.83   37.60
  -4   8  -5  791.62   41.90
  -5  -8  -5  272.07   27.70
   5  -8   5  327.57   30.30
  -5   8  -5  297.47   25.40
  -5   8  -5  295.77   26.90
  -5   8  -5  246.38   29.00
   5   8   5  297.27   22.90
  -6  -8  -5  383.46   35.10
   6  -8   5  391.26   34.50
  -6   8  -5  450.95   33.50
  -6   8  -5  406.06   30.50
   6   8   5  400.56   29.30
  -6   8  -5  372.76   37.70
  -7  -8  -5  291.57   42.60
  -7   8  -5  200.88   21.40
  -7   8  -5  264.07   26.10
   7   8   5  250.07   25.40
  -7   8  -5  209.28   33.30
  -8  -8  -5  510.25   46.00
  -8   8  -5  519.65   49.30
  -8   8  -5  533.45   47.60
  -8   8  -5  508.65   38.10
  -8  -9   5  917.01   51.69
  -8   9   5 1006.20   63.29
  -8   9   5  953.10   61.79
  -7  -9   5 1308.57   60.09
  -7   9   5 1207.18   75.89
  -7   9   5 1322.37   69.29
  -6  -9   5   93.49   18.90
  -6   9   5  100.79   21.40
  -6   9   5   86.79   20.50
   5  -9  -5  261.87   26.50
  -5  -9   5  267.47   25.00
  -5   9   5  262.07   26.30
  -5   9   5  294.67   29.30
   4  -9  -5 1165.78   52.89
  -4  -9   5 1081.29   49.00
  -4   9   5 1084.49   49.80
   4   9  -5 1055.59   50.19
  -4   9   5 1063.49   54.39
  -3  -9   5 1539.65   57.99
   3  -9  -5 1622.74   61.19
  -3   9   5 1593.44   63.39
  -3   9   5 1579.04   57.59
   3   9  -5 1673.33   60.99
   2  -9  -5  233.68   20.70
  -2  -9   5  262.67   22.80
   2   9  -5  302.37   24.10
  -2   9   5  291.47   24.80
  -1  -9   5  263.77   22.50
  -1   9   5  284.67   22.40
   1   9  -5  263.87   21.70
   1   9  -5  242.78   25.10
   0  -9   5 1565.44   55.69
   0   9   5 1408.66   50.69
   0   9  -5 1440.86   52.29
   0   9  -5 1566.24   61.79
   1  -9   5 2390.66   82.49
  -1   9  -5 2372.96   78.19
  -1   9  -5 2206.58   68.19
   1   9   5 2241.18   66.89
   2  -9   5  633.14   40.30
  -2   9  -5  658.63   35.50
  -2   9  -5  680.93   39.60
   2   9   5  683.93   30.30
   3  -9   5   44.80   11.50
  -3   9  -5   38.60   12.20
   3   9   5   46.40   10.40
  -3   9  -5   61.49   13.90
   4  -9   5 1008.70   53.09
  -4   9  -5 1054.89   51.49
  -4   9  -5 1089.09   58.99
  -4   9  -5 1016.10   47.20
  -5  -9  -5 1633.44   69.89
   5  -9   5 1670.63   72.39
   5   9   5 1708.23   59.79
  -5   9  -5 1581.34   62.79
  -5   9  -5 1717.03   68.09
  -5   9  -5 1652.83   77.59
  -6  -9  -5  913.31   55.89
   6  -9   5  894.51   54.79
   6   9   5  938.11   46.30
  -6   9  -5  998.60   50.19
  -6   9  -5  879.61   58.69
  -6   9  -5  982.80   52.19
  -7  -9  -5   -7.20    6.60
  -7   9  -5    4.40    8.40
  -7   9  -5    1.50    9.00
   7   9   5   -0.30    5.80
  -8  -9  -5  633.04   51.79
  -8   9  -5  578.74   41.40
  -8   9  -5  541.15   39.80
  -8   9  -5  604.94   54.99
  -8 -10   5   19.30   11.60
  -8  10   5   24.20   12.80
  -8  10   5   15.70   13.20
  -7 -10   5   39.80   12.60
  -7  10   5   49.70   17.30
  -7  10   5   46.10   16.50
  -6 -10   5   55.19   14.70
   6 -10  -5   22.40   14.00
  -6  10   5   27.00   11.70
  -6  10   5   50.79   17.10
   6  10  -5   34.70   13.30
   5 -10  -5   -0.30    6.20
  -5 -10   5   -6.40    4.20
   5  10  -5    4.00   10.60
  -5  10   5    5.40    6.70
  -5  10   5    0.30    6.70
   4 -10  -5   46.40   13.10
  -4 -10   5   49.00   13.70
  -4  10   5   35.20   12.30
  -4  10   5   45.40   13.60
  -3 -10   5   34.50   11.90
   3 -10  -5   31.50   11.60
   3  10  -5   20.00    8.90
  -3  10   5    9.40    7.50
  -2 -10   5  180.58   20.20
   2 -10  -5  220.08   21.00
   2  10  -5  168.68   19.70
  -2  10   5  121.89   19.70
  -1 -10   5   23.70    9.40
   1  10  -5   15.40    8.70
   1  10  -5   27.70   10.20
  -1  10   5   26.90    9.00
   0  10   5    8.30    5.60
   0  10  -5    8.90    8.20
   0  10  -5   29.80    9.70
   1 -10   5    7.70    6.70
  -1  10  -5   23.60   10.70
  -1  10  -5    8.00    6.20
   1  10   5    9.20    5.70
   1  10   5    9.90    6.40
   2 -10   5   52.99   14.70
  -2  10  -5   52.49   12.90
  -2  10  -5   34.10   12.10
   2  10   5   59.39   11.70
   3 -10   5    8.70    6.70
  -3  10  -5   41.80   12.10
  -3  10  -5   30.10   11.30
   3  10   5   33.00    9.30
   4 -10   5   -0.80    6.10
  -4  10  -5   14.10   11.00
  -4  10  -5   -6.00    4.20
  -4  10  -5   11.30    7.90
   4  10   5    2.80    5.30
   5 -10   5   32.30   12.00
   5  10   5   23.10   10.00
  -5  10  -5   19.00   10.50
  -5  10  -5   11.40   10.40
  -5  10  -5   17.60   10.50
  -6  10  -5   -3.60    6.00
  -6  10  -5   15.80   11.20
   6  10   5   46.80   12.40
  -6  10  -5   47.00   13.00
   7  10   5    3.90    8.70
  -7  10  -5   -0.20    7.90
  -7  10  -5   11.60    9.80
  -7  10  -5    4.00   10.40
  -8 -10  -5   35.70   15.10
  -8  10  -5   11.00   11.90
  -8  10  -5    5.70   11.10
  -8 -11   5  547.65   40.40
  -8  11   5  642.14   52.09
  -8  11   5  503.45   45.90
  -7 -11   5  665.63   47.10
  -7  11   5  658.83   49.50
  -7  11   5  730.93   52.69
  -6 -11   5   40.40   12.50
   6 -11  -5   49.60   15.00
  -6  11   5   50.89   17.40
  -6  11   5   35.30   15.20
  -5 -11   5   91.19   18.60
   5 -11  -5   54.09   14.10
  -5  11   5   80.99   18.80
  -5  11   5   76.99   18.70
  -4 -11   5 1129.19   52.19
   4 -11  -5 1080.49   53.59
  -4  11   5 1056.69   56.99
  -4  11   5 1056.89   53.29
  -3 -11   5 1500.35   60.19
   3 -11  -5 1411.76   59.69
  -3  11   5 1470.25   65.39
  -2 -11   5   45.40   12.70
   2 -11  -5   44.90   12.20
  -2  11   5   69.19   15.20
   2  11  -5   74.69   20.80
   2  11  -5   65.69   15.30
  -1 -11   5    3.70    6.60
  -1  11   5    3.20    6.50
   1  11  -5    5.90    5.00
   1  11  -5    9.10    9.60
   0  11  -5 1411.96   55.49
   0  11   5 1283.97   53.49
  -1  11  -5 1526.55   66.39
   1  11   5 1524.75   54.99
   1  11   5 1459.05   58.09
  -1  11  -5 1498.85   58.39
   2 -11   5  425.46   36.20
  -2  11  -5  359.86   28.60
   2  11   5  382.66   25.60
   2  11   5  348.87   28.20
  -2  11  -5  410.86   33.90
  -3  11  -5   63.29   15.50
   3  11   5   96.29   16.30
  -3  11  -5   44.90   10.90
  -4  11  -5 1109.39   57.29
  -4  11  -5 1144.19   53.89
   4  11   5 1108.79   48.40
   5 -11   5  433.26   37.30
  -5  11  -5  472.05   43.80
  -5  11  -5  469.25   38.70
   5  11   5  509.35   33.80
  -6  11  -5  245.08   27.20
   6  11   5  317.77   27.30
  -6  11  -5  239.98   37.70
  -6  11  -5  245.08   34.60
  -7  11  -5   17.00   10.10
  -7  11  -5   32.00   15.20
   7  11   5   29.90   11.90
  -7 -12   5  385.56   33.50
  -7  12   5  383.76   38.40
  -7  12   5  353.86   38.60
  -6 -12   5  586.14   40.50
  -6  12   5  585.24   47.40
  -5 -12   5  746.83   44.90
  -5  12   5  842.32   50.49
  -5  12   5  808.72   53.19
   5  12  -5  814.92   49.70
  -4 -12   5  481.15   34.90
   4 -12  -5  482.05   36.90
  -4  12   5  557.24   39.30
  -4  12   5  521.85   41.20
   3 -12  -5  259.67   26.30
  -3 -12   5  266.27   25.90
  -3  12   5  246.48   27.90
  -2 -12   5  772.82   43.00
   2 -12  -5  712.03   41.60
   2  12  -5  760.12   49.90
  -2  12   5  773.02   45.70
   1  12  -5 1301.07   63.89
   1  12  -5 1276.97   55.59
  -1  12   5 1244.48   56.59
   0  12  -5  555.14   35.40
   0  12   5  532.35   35.20
   0  12  -5  510.25   38.60
  -1  12  -5  329.57   31.50
   1  12   5  370.96   29.00
  -1  12  -5  357.46   28.90
   1  12   5  320.57   24.90
   2  12   5 1473.35   60.59
  -2  12  -5 1393.26   59.49
  -2  12  -5 1411.06   66.59
   2  12   5 1423.26   53.99
  -3  12  -5 1163.78   54.89
  -3  12  -5 1294.97   63.89
   3  12   5 1159.38   49.50
  -4  12  -5  973.00   55.99
   4  12   5  892.11   44.80
   5  12   5   62.89   14.10
  -5  12  -5   43.60   17.40
  -5  12  -5   43.10   14.80
  -6  12  -5  700.63   47.10
  -6  12  -5  722.33   58.19
  -6  12  -5  755.42   50.39
   6  12   5  693.63   43.00
  -7  12  -5  561.84   44.50
  -7  12  -5  511.45   50.59
  -7 -13   5   -1.20    8.70
  -7  13   5  -15.40    9.70
  -7  13   5    3.00    8.10
  -6 -13   5  303.47   58.49
  -6  13   5  293.07   32.80
  -6  13   5  306.37   34.70
  -5 -13   5  443.56   34.80
   5 -13  -5  305.97   33.10
  -5  13   5  302.97   36.00
  -5  13   5  356.66   34.70
  -4 -13   5   89.79   18.50
   4 -13  -5   66.09   15.30
  -4  13   5   87.99   19.60
  -4  13   5   74.39   19.10
   3 -13  -5    7.50    9.30
  -3 -13   5  -12.50    4.20
   3  13  -5   -3.90    8.30
  -3  13   5   -8.40    6.00
  -2 -13   5  312.77   28.40
  -2  13   5  303.77   29.80
   2  13  -5  296.77   32.20
  -1  13   5  639.44   41.60
   1  13  -5  668.73   46.40
   0  13   5  125.79   22.00
   0  13   5  140.69   20.10
   0  13  -5  158.58   27.40
   0  13  -5  128.19   19.60
   1  13   5   42.00   13.20
  -1  13  -5   41.80   14.00
  -1  13  -5   43.70   12.90
   1  13   5   44.80   11.80
   2  13   5  369.06   31.50
  -2  13  -5  286.07   27.00
   2  13   5  432.56   29.80
  -2  13  -5  383.86   35.60
  -3  13  -5  607.44   45.70
   3  13   5  586.04   36.00
   4  13   5  168.38   24.60
  -4  13  -5  113.19   23.00
  -5  13  -5  159.58   25.90
   5  13   5  156.08   24.70
  -5  13  -5  175.78   37.30
   6  13   5   32.80   14.90
  -6  13  -5   15.10   11.30
  -6  13  -5   14.80   14.90
  -6 -14   5  605.44   41.70
  -6  14   5  584.44   50.99
  -6  14   5  533.65   45.10
   5 -14  -5  621.74   46.40
  -5 -14   5  712.03   45.20
  -5  14   5  613.84   49.60
   4 -14  -5   -1.60    7.80
  -4 -14   5   16.10    9.10
  -4  14   5  -10.10    7.10
  -4  14   5    2.20    6.60
   3 -14  -5  -16.30    6.30
  -3 -14   5   -9.70    4.50
  -3  14   5   13.50    7.50
   3  14  -5  -10.00    6.70
  -2  14   5 1520.05   70.09
   2  14  -5 1422.26   73.79
  -1  14   5 1149.69   58.29
   1  14  -5 1132.99   62.59
   0  14   5    4.90    7.00
   0  14  -5    2.30    5.90
   0  14   5   13.30    6.90
  -1  14  -5   50.09   15.90
   1  14   5   86.59   18.20
   1  14   5   73.19   15.20
   2  14   5 1160.28   57.49
  -2  14  -5 1095.69   62.59
   2  14   5 1055.69   50.19
   3  14   5  785.22   43.70
   3  14   5  858.31   50.59
  -3  14  -5  768.22   47.10
  -3  14  -5  701.23   51.19
  -4  14  -5   50.09   12.00
   4  14   5  105.79   18.80
  -5  14  -5   58.79   21.70
   5  14   5   80.79   17.90
  -6  14  -5  651.33   50.79
  -6  14  -5  568.94   54.69
  -6 -15   5  340.77   32.00
  -6  15   5  369.26   38.00
  -6  15   5  386.96   41.80
  -5 -15   5  477.45   37.60
  -5  15   5  411.96   42.20
  -5  15   5  485.45   42.80
  -4 -15   5   45.10   13.40
  -4  15   5   50.39   19.50
   4  15  -5   36.50   18.00
  -4  15   5   31.40   14.10
   3 -15  -5  166.88   29.00
  -3  15   5  192.88   30.70
   3  15  -5  236.28   63.69
  -2  15   5  704.43   48.40
   2  15  -5  690.23   51.49
  -1  15   5  548.55   41.10
   1  15  -5  541.55   44.20
   0  15   5   86.19   18.20
   0  15  -5   96.79   19.70
   0  15   5   66.99   16.40
  -1  15  -5  294.17   30.40
   1  15   5  273.37   28.50
   1  15   5  321.97   27.80
  -1  15  -5  265.07   38.90
   2  15   5  806.72   44.80
   2  15   5  842.02   49.90
  -2  15  -5  769.52   54.09
  -2  15  -5  779.32   47.30
  -3  15  -5  499.65   46.90
   3  15   5  590.64   43.80
   3  15   5  510.05   38.30
   4  15   5  194.68   22.90
  -4  15  -5  144.59   28.40
  -5  15  -5  154.38   34.20
  -5  15  -5  134.89   28.40
  -5 -16   5  168.08   25.80
  -5  16   5   91.09   26.10
  -5  16   5  160.18   31.20
   4 -16  -5  933.91   58.49
  -4  16   5  978.70   63.79
  -4  16   5  892.31   57.29
   4  16  -5  809.82   61.29
  -3  16   5  664.63   50.49
   3  16  -5  686.03   53.29
   2  16  -5   53.29   18.40
  -2  16   5   79.29   21.00
  -1  16   5  207.78   24.40
  -1  16   5  254.47   36.60
   1  16  -5  186.58   34.40
   0  16  -5 1126.59   94.79
   0  16   5 1115.79   60.39
   0  16   5 1142.49   56.59
   1  16   5 1172.08   60.19
  -1  16  -5 1133.19   67.89
   1  16   5  988.30   52.39
  -2  16  -5  127.29   27.20
   2  16   5  117.79   23.30
   2  16   5  102.29   18.50
   3  16   5   44.90   16.10
   3  16   5   89.29   17.80
  -3  16  -5  104.79   26.10
  -4  16  -5  263.17   39.40
   4  16   5  337.87   35.70
  -5  16  -5 1195.78   72.69
  -5  16  -5  988.60   73.99
  -4  17   5  208.78   34.30
   4  17  -5  195.98   36.30
  -4  17   5  189.68   33.20
  -3  17   5  452.65   42.40
   3  17  -5  403.56   41.80
   2  17  -5   28.40   14.90
  -2  17   5   36.60   15.70
   1  17  -5   32.20   13.60
  -1  17   5   23.50   13.80
   0  17   5  379.46   36.60
   0  17  -5  449.26   42.80
  -1  17  -5  155.58   31.80
   1  17   5  134.69   26.90
   1  17   5  103.79   22.80
   2  17   5   15.20   10.60
  -2  17  -5   41.30   17.40
  -3  17  -5   58.99   17.90
   3  17   5   39.30   15.00
   4  17   5  113.79   30.10
  -4  17  -5  122.69   28.00
  -3  18   5  535.55   48.50
   3  18  -5  579.54   51.59
  -2  18   5   40.80   16.60
   2  18  -5   41.00   18.60
   1  18  -5   13.50    9.90
  -1  18   5    8.90    9.10
   0  18  -5  447.86   42.90
   0  18   5  443.86   39.80
   1  18   5  542.85   46.50
  -1  18  -5  539.75   48.20
   2  18   5   76.89   21.30
  -2  18  -5   53.29   18.80
   3  18   5   23.40   10.50
  -3  18  -5   -6.30   10.00
   2  19  -5  645.74   54.29
  -2  19   5  659.23   53.09
  -1  19   5  870.81   59.39
   1  19  -5  876.21   62.59
   0  19  -5  164.08   30.00
   0  19   5  248.88   38.70
  -1  19  -5   80.89   21.30
   1  19   5   87.99   22.40
  -2  19  -5  622.34   53.59
   2  19   5  589.94   46.70
  -9   0   6 1273.37   66.19
  -9   0   6 1215.18   70.39
  -8   0   6  658.43   47.60
  -8   0   6  554.04   50.49
  -7   0   6   69.79   15.10
  -7   0   6  108.29   23.40
  -6   0   6 1109.09   52.59
   6   0  -6 1142.69   54.39
  -6   0   6  999.50   50.29
  -5   0   6 2253.07   71.29
   5   0  -6 2164.58   72.99
  -5   0   6 2195.68   72.39
   4   0  -6  677.33   35.00
  -4   0   6  707.63   33.10
  -3   0   6  313.57   18.90
  -3   0   6  370.66   22.90
   3   0  -6  347.67   22.20
   2   0  -6 1226.88   38.40
  -2   0   6 1256.37   33.80
  -2   0   6 1279.47   39.90
   1   0  -6 5716.83  101.39
  -1   0   6 5984.90  104.89
   0   0   6 1776.02   37.10
   1   0   6   81.09    5.60
  -1   0  -6   80.09    7.60
   1   0   6   78.89    5.20
  -2   0  -6 1253.77   39.10
   2   0   6 1194.68   29.60
  -3   0  -6 4773.12  115.69
   3   0   6 4760.22   93.19
  -4   0  -6 1085.09   46.50
   4   0   6 1025.20   37.30
  -5   0  -6  446.66   32.70
   5   0   6  421.66   26.20
  -5   0  -6  416.96   16.50
  -5   0  -6  421.96   16.50
   6   0   6  709.03   38.80
  -6   0  -6  742.03   25.60
  -6   0  -6  768.92   47.10
   7   0   6 3194.28   99.39
  -7   0  -6 3354.16   70.89
  -7   0  -6 3326.77  159.38
  -8   0  -6  428.86   41.60
  -8   0  -6  376.56   19.70
  -8   0  -6  387.66   20.40
   8   0   6  348.87   33.90
  -9   0  -6  613.24   52.99
  -9   0  -6  641.34   28.70
  -9   0  -6  633.54   29.30
  -9  -1   6   14.70    8.40
  -9  -1   6    9.50   10.80
  -9   1   6    3.20    8.90
  -9   1   6    6.30    6.70
  -8  -1   6  175.88   31.30
  -8  -1   6  200.98   32.10
  -8   1   6  147.39   25.30
  -7  -1   6  573.94   39.20
  -7  -1   6  554.14   40.40
  -7   1   6  503.75   37.50
  -7   1   6  477.85   37.40
  -6  -1   6  133.99   23.20
   6  -1  -6   85.19   17.10
  -6  -1   6  108.09   24.00
   6   1  -6   92.89   17.80
  -6   1   6  123.69   22.20
  -6   1   6  100.39   19.60
  -5  -1   6  109.09   17.40
  -5  -1   6  125.79   18.80
   5  -1  -6  159.98   18.80
   5   1  -6  151.18   22.90
  -5   1   6  102.09   18.50
  -5   1   6  137.99   21.60
  -4  -1   6  346.57   23.60
  -4  -1   6  360.46   25.20
   4  -1  -6  374.06   25.80
  -4   1   6  411.26   29.60
  -4   1   6  418.86   27.30
   4   1  -6  374.46   25.90
  -3  -1   6 2635.84   68.99
   3  -1  -6 2484.75   67.09
  -3  -1   6 2722.13   65.69
  -3   1   6 2527.85   68.09
  -3   1   6 2535.65   61.49
   3   1  -6 2514.55   67.49
  -2  -1   6   76.09   11.90
   2  -1  -6   53.09    8.90
  -2   1   6   59.59    6.90
  -2   1   6   48.80    8.10
   2   1  -6   62.39    9.60
  -1  -1   6  574.54   22.70
   1  -1  -6  589.24   19.80
  -1   1   6  572.24   21.20
   1   1  -6  592.64   21.90
   0  -1  -6  362.86    9.90
   0  -1   6  340.07   14.60
   0   1  -6  333.07   12.50
   0   1  -6  350.36   13.80
   0   1   6  339.27   11.70
   1  -1   6 1821.72   38.60
  -1  -1  -6 1853.31   41.00
   1  -1   6 1866.51   41.30
  -1   1  -6 1791.72   45.00
   2  -1   6  967.20   28.70
  -2  -1  -6  937.41   32.40
   2   1   6  952.40   21.30
  -2   1  -6  928.51   34.30
   3  -1   6    7.50    4.50
  -3  -1  -6   10.30    5.40
  -3   1  -6   10.90    2.80
  -3   1  -6    3.80    4.40
   3   1   6    6.80    3.50
  -3   1  -6    7.90    2.60
  -4  -1  -6  338.67   25.10
   4  -1   6  357.66   22.10
   4   1   6  321.47   19.20
  -4   1  -6  308.47   14.10
  -4   1  -6  337.97   25.80
  -4   1  -6  318.07   14.40
  -5  -1  -6  790.22   43.70
  -5   1  -6  765.22   27.10
  -5   1  -6  809.52   27.30
   5   1   6  874.21   37.20
  -5   1  -6  798.52   44.60
  -6  -1  -6  102.49    8.20
  -6  -1  -6  128.29   24.70
  -6  -1  -6  109.49    8.10
   6  -1   6  108.89   17.60
  -6   1  -6  109.69   11.10
  -6   1  -6  129.79   23.60
   6   1   6  155.88   17.70
   7  -1   6   17.60    9.20
  -7  -1  -6   28.20    5.70
  -7  -1  -6   20.70   16.20
   7   1   6   23.60   10.00
  -7   1  -6   16.70    6.40
  -7   1  -6   16.90   14.50
   8  -1   6   69.29   19.70
  -8  -1  -6   68.29   21.10
  -8   1  -6   61.99   20.50
  -8   1  -6   61.79   11.20
  -8   1  -6   56.09    9.90
   8   1   6   52.69   15.00
  -9  -1  -6  367.76   41.00
  -9   1  -6  273.47   45.80
  -9   1  -6  305.87   19.70
  -9   1  -6  267.37   19.80
  -9  -2   6  266.27   41.80
  -9  -2   6  191.18   28.80
  -9   2   6  190.88   31.00
  -9   2   6  276.17   31.50
  -8  -2   6  365.26   36.60
  -8  -2   6  400.46   38.10
  -8   2   6  356.56   35.00
  -8   2   6  386.86   40.70
  -7  -2   6  245.68   27.90
  -7  -2   6  237.98   26.10
  -7   2   6  231.48   26.40
  -7   2   6  236.68   26.40
   6  -2  -6  316.37   28.90
  -6  -2   6  286.87   30.00
  -6  -2   6  311.07   27.50
  -6   2   6  333.37   28.30
  -6   2   6  261.37   26.20
   6   2  -6  302.27   27.20
  -5  -2   6  961.90   45.50
  -5  -2   6 1044.40   47.70
   5  -2  -6  976.20   47.20
  -5   2   6  940.51   43.50
  -5   2   6 1095.99   49.10
   5   2  -6  962.80   46.20
  -4  -2   6  941.51   41.70
   4  -2  -6  983.10   43.00
  -4  -2   6 1000.50   41.80
  -4   2   6  959.80   42.70
  -3  -2   6    4.10    4.80
  -3  -2   6    5.40    4.70
   3  -2  -6   -0.10    3.10
  -3   2   6    3.60    4.50
  -3   2   6   11.70    5.30
   3   2  -6    1.20    3.80
   2  -2  -6  128.29   12.00
  -2  -2   6  132.69   12.90
  -2   2   6  139.39    9.50
  -2   2   6  143.09   12.90
   2   2  -6  148.59   13.30
   1  -2  -6  704.13   21.50
  -1  -2   6  692.43   26.20
  -1   2   6  697.73   24.10
   1   2  -6  709.23   25.80
   0  -2   6  783.52   25.40
   0   2  -6  753.22   25.80
   0   2  -6  761.32   23.50
   0   2   6  787.92   18.80
   1  -2   6  101.29    9.70
   1  -2   6   84.99    8.10
  -1  -2  -6   93.59    7.50
  -1   2  -6   85.59    6.80
  -1   2  -6   89.49    7.50
   2  -2   6  203.48   13.80
  -2  -2  -6  180.08   13.30
  -2   2  -6  176.78    9.70
  -2   2  -6  180.78   15.50
  -2   2  -6  190.68   10.40
   3  -2   6 1440.96   44.00
  -3  -2  -6 1386.36   46.30
  -3   2  -6 1376.26   49.50
  -3   2  -6 1335.17   34.60
  -3   2  -6 1303.67   33.50
   3   2   6 1351.16   33.90
  -4  -2  -6  673.83   35.40
   4  -2   6  720.33   33.20
  -4   2  -6  656.23   37.20
  -4   2  -6  692.03   25.50
  -4   2  -6  691.43   25.20
   4   2   6  736.43   28.60
   5  -2   6    1.60    4.80
  -5  -2  -6   -1.50    5.40
  -5   2  -6   12.10    8.80
   5   2   6    4.30    4.60
  -5   2  -6    3.80    4.00
  -5   2  -6    4.70    4.00
   6  -2   6   39.40   11.40
  -6  -2  -6   37.30   13.50
  -6   2  -6   30.30    7.90
   6   2   6   31.60    9.50
  -6   2  -6   15.10    9.50
   7  -2   6  937.31   50.69
  -7   2  -6  953.10   58.19
   7   2   6  906.51   47.30
  -7   2  -6  920.71   36.50
   8  -2   6  284.27   44.00
  -8  -2  -6  367.26   38.10
   8   2   6  311.87   29.70
  -8   2  -6  318.97   22.40
  -8   2  -6  319.87   36.40
  -8   2  -6  370.26   23.30
  -9  -2  -6   32.70   16.80
  -9   2  -6   33.40   15.30
  -9   2  -6   29.70    8.70
  -9   2  -6   50.09   14.40
  -9  -3   6   -2.70    6.40
  -9  -3   6    7.30   11.20
  -9   3   6    1.80    7.00
  -9   3   6    0.30    8.90
  -8  -3   6  689.33   50.29
  -8  -3   6  663.43   53.99
  -8   3   6  707.83   49.70
  -8   3   6  620.14   45.30
  -7  -3   6 1368.56   61.69
  -7  -3   6 1393.66   67.39
  -7   3   6 1334.17   63.49
  -7   3   6 1296.07   62.69
   6  -3  -6  611.34   40.60
  -6  -3   6  605.34   40.40
  -6  -3   6  653.93   39.70
  -6   3   6  602.94   39.60
  -6   3   6  624.14   38.90
  -5  -3   6    3.20    5.70
   5  -3  -6   21.10    9.90
  -5  -3   6    9.30    7.30
  -5   3   6    6.90    6.80
  -5   3   6    7.20    6.70
   5   3  -6    2.90    6.10
  -4  -3   6  886.81   41.00
   4  -3  -6  973.90   43.00
  -4  -3   6 1022.80   43.70
   4   3  -6  932.81   42.20
  -4   3   6  986.50   43.60
   3  -3  -6 4566.94  100.39
  -3  -3   6 4482.95  101.39
  -3   3   6 4578.14   92.29
   3   3  -6 4415.26  100.99
  -3   3   6 4510.95  101.79
   2  -3  -6 1628.04   45.80
  -2  -3   6 1569.64   48.30
  -2   3   6 1649.63   48.10
  -2   3   6 1665.73   38.90
   2   3  -6 1666.23   49.10
   1  -3  -6  185.18   10.40
  -1  -3   6  174.88   13.80
   1   3  -6  174.98   13.50
  -1   3   6  169.48   12.10
   0  -3   6  940.61   30.60
   0   3  -6  945.81   29.40
   0   3   6  965.10   22.90
   0   3  -6  956.10   33.00
   1  -3   6 5948.10  111.59
  -1  -3  -6 5628.44   97.59
   1  -3   6 5712.43  104.79
  -1   3  -6 5509.15   99.79
  -1   3  -6 5530.35  102.99
   2  -3   6 1061.99   36.30
  -2  -3  -6  987.30   33.40
  -2   3  -6 1008.80   29.60
  -2   3  -6 1013.20   31.30
  -2   3  -6 1068.39   40.30
  -3  -3  -6  163.68   15.60
   3  -3   6  187.98   16.10
  -3   3  -6  143.79   13.30
   3   3   6  172.28   10.40
  -3   3  -6  179.48   13.10
  -3   3  -6  216.18   19.60
  -4  -3  -6  144.29   21.80
   4  -3   6  158.28   16.20
  -4   3  -6  135.59   12.60
  -4   3  -6   94.89   16.40
   4   3   6  155.48   12.70
  -4   3  -6  136.09   12.00
  -5  -3  -6 2191.48   75.59
   5  -3   6 2269.07   72.39
  -5   3  -6 2086.69   56.79
   5   3   6 2104.59   60.99
  -5   3  -6 2129.39   58.39
  -6  -3  -6  280.67   28.40
   6  -3   6  227.48   23.80
  -6   3  -6  270.17   28.80
   6   3   6  270.47   22.30
  -6   3  -6  254.07   19.30
  -6   3  -6  245.18   18.80
   7  -3   6  296.07   29.10
   7   3   6  301.57   26.50
  -7   3  -6  293.67   21.70
  -7   3  -6  244.98   36.20
  -8  -3  -6   94.49   25.50
  -8   3  -6   69.79   13.70
  -8   3  -6   74.59   13.60
  -8   3  -6   63.29   17.80
   8   3   6   68.69   16.60
  -9  -3  -6 1255.47   75.89
  -9   3  -6 1284.57   48.30
  -9   3  -6 1298.07   49.50
  -9   3  -6 1181.88   75.19
  -9  -4   6  131.99   29.30
  -9  -4   6  116.29   24.30
  -9   4   6  118.99   24.30
  -9   4   6  148.89   30.20
  -8  -4   6    5.40    8.70
  -8   4   6   11.00   12.40
  -8   4   6   30.90   12.00
  -7  -4   6  910.31   54.49
  -7  -4   6  904.31   49.60
  -7   4   6  922.91   52.99
  -7   4   6  828.12   49.80
   6  -4  -6 1422.46   62.79
  -6  -4   6 1409.16   59.29
  -6  -4   6 1264.07   60.09
  -6   4   6 1399.26   62.19
  -6   4   6 1288.07   57.69
  -5  -4   6  394.16   29.00
   5  -4  -6  423.16   31.00
  -5  -4   6  403.56   31.00
  -5   4   6  375.66   27.30
  -5   4   6  369.46   29.40
   5   4  -6  393.36   29.50
  -4  -4   6  150.78   21.90
   4  -4  -6  119.09   17.90
  -4  -4   6  143.39   20.80
  -4   4   6  125.29   18.60
  -4   4   6  138.59   15.10
   4   4  -6  167.98   23.40
   3  -4  -6 1520.25   49.90
  -3  -4   6 1315.57   49.20
   3   4  -6 1427.76   49.90
  -3   4   6 1393.16   42.50
  -3   4   6 1337.87   48.90
  -2  -4   6 1520.15   48.20
   2  -4  -6 1563.94   44.90
  -2   4   6 1478.95   38.10
   2   4  -6 1526.65   48.10
  -2   4   6 1478.05   46.80
  -1  -4   6  651.63   27.90
   1  -4  -6  652.83   21.60
  -1   4   6  642.64   25.20
   1   4  -6  652.13   27.60
  -1   4   6  698.23   21.50
   0  -4   6 1446.36   42.60
   0   4  -6 1439.16   41.10
   0   4  -6 1547.25   47.40
   0   4   6 1506.05   34.50
   1  -4   6  356.96   22.30
   1  -4   6  338.37   19.30
  -1  -4  -6  346.87   15.80
  -1   4  -6  349.47   18.00
  -1   4  -6  375.66   20.10
   2  -4   6 1465.15   47.70
  -2  -4  -6 1535.55   44.40
  -2   4  -6 1527.65   41.90
  -2   4  -6 1594.24   45.10
   3  -4   6  428.86   25.40
  -3   4  -6  392.76   27.60
  -3   4  -6  386.96   20.40
   3   4   6  412.66   16.40
  -3   4  -6  413.86   22.00
  -4  -4  -6  433.96   28.50
   4  -4   6  378.16   41.40
  -4   4  -6  369.06   21.40
   4   4   6  417.86   20.80
  -4   4  -6  430.56   23.70
  -4   4  -6  394.66   30.10
  -5  -4  -6  500.25   34.70
   5  -4   6  500.65   33.40
  -5   4  -6  546.55   27.90
   5   4   6  577.54   28.70
  -5   4  -6  498.05   37.50
  -6  -4  -6  778.22   47.80
   6  -4   6  868.81   47.00
  -6   4  -6  864.71   37.60
   6   4   6  861.71   40.40
  -6   4  -6  867.41   38.20
  -6   4  -6  857.11   52.29
  -7  -4  -6   89.59   20.90
   7  -4   6   94.09   18.70
  -7   4  -6   88.49   15.80
   7   4   6   98.29   17.90
  -7   4  -6   88.49   22.40
  -7   4  -6   86.99   14.60
  -8  -4  -6   15.60   12.90
  -8   4  -6   35.30   10.00
  -8   4  -6   28.40   10.20
  -8   4  -6   47.90   20.20
   8   4   6   31.60   13.70
  -9  -4  -6  356.76   40.70
  -9   4  -6  293.97   47.40
  -9   4  -6  264.37   24.50
  -9   4  -6  297.57   23.50
  -9  -5   6  256.47   39.40
  -9  -5   6  318.47   32.20
  -9   5   6  344.37   36.20
  -9   5   6  375.06   38.80
  -8  -5   6   12.10   10.00
  -8  -5   6   13.30    8.90
  -8   5   6   30.30   13.30
  -8   5   6   28.70   13.30
  -7  -5   6  234.18   34.40
  -7  -5   6  307.77   29.00
   7  -5  -6  308.97   33.10
  -7   5   6  330.37   32.10
  -7   5   6  270.17   28.80
   6  -5  -6 1015.50   53.79
  -6  -5   6 1099.19   56.69
  -6  -5   6 1043.40   50.59
  -6   5   6  968.00   52.39
  -6   5   6 1026.90   56.99
  -5  -5   6  778.12   44.40
   5  -5  -6  732.33   42.00
  -5  -5   6  763.52   40.80
  -5   5   6  806.52   44.30
   5   5  -6  787.92   42.90
  -5   5   6  819.62   41.30
   4  -5  -6  553.54   34.00
  -4  -5   6  541.25   32.40
  -4   5   6  494.05   32.40
   4   5  -6  568.44   33.70
  -4   5   6  564.04   30.10
   3  -5  -6 1220.38   44.80
  -3  -5   6 1141.59   44.90
  -3   5   6 1102.19   49.20
  -3   5   6 1202.58   40.20
   3   5  -6 1179.78   45.90
  -2  -5   6 2057.29   59.39
   2  -5  -6 2048.10   54.59
  -2   5   6 2035.60   48.90
   2   5  -6 2003.50   58.69
  -2   5   6 2022.20   58.49
  -1  -5   6   65.69   10.60
   1  -5  -6   63.19    8.40
  -1   5   6   56.99    9.20
   1   5  -6   66.19   11.30
   0  -5   6 1329.27   42.70
   0   5  -6 1338.47   47.10
   0   5  -6 1371.16   42.00
   0   5   6 1378.16   36.00
   1  -5   6 1236.98   47.10
   1  -5   6 1278.07   42.30
  -1   5  -6 1309.57   40.20
  -1   5  -6 1311.17   44.00
   2  -5   6 2036.10   61.59
  -2  -5  -6 2098.19   55.19
  -2   5  -6 2115.79   54.89
   2   5   6 2024.80   41.20
  -2   5  -6 2098.49   58.29
  -3  -5  -6  182.58   17.20
   3  -5   6  195.98   18.60
  -3   5  -6  190.98   15.50
   3   5   6  183.08   11.70
  -3   5  -6  192.58   16.70
  -3   5  -6  193.68   20.30
   4  -5   6  503.25   31.50
  -4  -5  -6  502.85   31.20
  -4   5  -6  424.46   32.30
   4   5   6  480.45   22.70
  -4   5  -6  441.46   26.90
  -4   5  -6  460.35   25.50
  -5  -5  -6 1472.75   61.49
   5  -5   6 1632.84   63.29
  -5   5  -6 1560.44   53.39
  -5   5  -6 1505.35   51.39
  -5   5  -6 1463.95   66.29
   5   5   6 1559.14   50.29
   6  -5   6  940.81   50.19
  -6  -5  -6  924.91   51.89
  -6   5  -6  865.41   40.60
  -6   5  -6  893.81   54.29
   6   5   6  871.51   40.90
  -6   5  -6  863.11   39.60
  -7  -5  -6   34.50   14.20
   7  -5   6   44.10   14.80
  -7   5  -6   23.00    9.70
  -7   5  -6   38.90   11.00
   7   5   6   38.20    9.90
  -8  -5  -6  469.65   43.10
   8   5   6  397.36   33.20
  -8   5  -6  415.56   42.70
  -8   5  -6  409.26   29.80
  -8   5  -6  457.75   30.80
  -9  -6   6  369.36   34.00
  -9  -6   6  357.46   40.40
  -9   6   6  340.07   37.50
  -9   6   6  374.56   39.00
  -8  -6   6   42.80   13.50
  -8  -6   6   63.49   20.60
  -8   6   6   35.90   15.50
  -8   6   6   56.09   18.10
  -7  -6   6    9.30    8.50
   7  -6  -6   20.30    9.20
  -7  -6   6   -5.20    4.90
  -7   6   6    6.20    8.10
  -7   6   6    2.90    6.40
  -6  -6   6  741.53   47.50
   6  -6  -6  727.53   45.50
  -6  -6   6  735.13   42.60
  -6   6   6  702.43   50.59
  -6   6   6  635.94   42.60
  -5  -6   6 1084.79   49.60
   5  -6  -6 1002.70   49.99
  -5   6   6 1106.89   53.59
   5   6  -6 1093.69   51.49
  -5   6   6 1075.99   48.60
   4  -6  -6   70.89   13.40
  -4  -6   6   59.39   12.20
  -4   6   6   97.79   18.70
  -4   6   6   99.89   16.70
   4   6  -6   81.99   15.40
   3  -6  -6  145.19   15.70
   3   6  -6  136.09   16.10
  -3   6   6  153.68   14.30
  -3   6   6  129.59   20.00
  -2  -6   6 1407.86   48.80
   2  -6  -6 1368.16   43.90
   2   6  -6 1312.77   47.30
  -2   6   6 1309.47   39.60
  -2   6   6 1303.97   46.80
   1  -6  -6 1346.67   39.00
  -1  -6   6 1357.26   46.40
  -1   6   6 1430.66   44.30
   1   6  -6 1323.97   45.10
   1   6  -6 1356.86   52.99
   0  -6   6  466.75   25.40
   0   6  -6  418.36   26.90
   0   6   6  425.56   20.30
   0   6  -6  422.66   23.50
   1  -6   6  320.67   24.70
   1  -6   6  300.57   21.00
  -1   6  -6  289.47   21.70
  -1   6  -6  322.07   20.10
   2  -6   6  523.65   30.50
  -2   6  -6  465.35   24.70
   2   6   6  487.65   18.50
  -2   6  -6  475.05   27.50
  -3  -6  -6 1088.49   43.00
   3  -6   6 1090.89   48.80
  -3   6  -6 1109.79   40.90
  -3   6  -6  985.20   48.30
   3   6   6 1038.50   31.90
  -3   6  -6 1032.80   44.20
   4  -6   6   -2.80    4.60
  -4  -6  -6   10.10    6.80
  -4   6  -6    3.90    6.90
   4   6   6    2.30    4.10
  -4   6  -6    2.70    4.30
  -4   6  -6    4.20    4.80
   5  -6   6  331.37   28.50
  -5   6  -6  347.97   32.40
  -5   6  -6  369.56   26.40
   5   6   6  327.27   22.40
  -5   6  -6  384.46   26.50
  -6  -6  -6  390.56   34.30
   6  -6   6  399.26   33.40
  -6   6  -6  353.76   35.60
  -6   6  -6  345.67   26.50
  -6   6  -6  378.56   26.90
   6   6   6  399.16   27.60
  -7  -6  -6  413.56   37.90
   7  -6   6  375.66   33.90
  -7   6  -6  332.67   35.90
  -7   6  -6  398.76   29.00
   7   6   6  390.36   30.30
  -7   6  -6  330.17   27.00
  -8  -6  -6   -1.40    5.70
  -8   6  -6    6.70    8.90
   8   6   6   10.40    9.30
  -8   6  -6   28.90   15.50
  -8   6  -6   13.30    8.80
  -9  -7   6  855.61   63.09
  -9  -7   6  829.02   51.49
  -9   7   6  901.01   60.99
  -9   7   6  949.90   62.19
  -8  -7   6  617.74   42.70
  -8  -7   6  633.24   50.99
  -8   7   6  601.24   46.80
  -8   7   6  567.14   45.60
  -7  -7   6   15.70    9.20
   7  -7  -6   25.90   11.40
  -7   7   6   14.80   12.50
  -7   7   6   14.60   10.30
   6  -7  -6 1002.80   54.89
  -6  -7   6 1197.38   55.09
  -6   7   6 1179.68   56.49
  -6   7   6 1184.38   59.99
  -5  -7   6 1419.56   57.89
   5  -7  -6 1288.77   58.39
  -5   7   6 1402.46   62.39
  -5   7   6 1246.18   54.29
  -4  -7   6 1637.74   60.89
   4  -7  -6 1689.53   62.39
   4   7  -6 1736.73   63.79
  -4   7   6 1751.02   65.89
  -4   7   6 1714.53   58.79
   3  -7  -6   70.49   13.00
  -3  -7   6   69.09   13.60
   3   7  -6  115.69   18.80
  -3   7   6  114.59   16.40
  -3   7   6   88.29   16.40
  -2  -7   6 1848.22   59.39
   2  -7  -6 1872.11   54.79
  -2   7   6 1749.72   58.59
   2   7  -6 1883.81   69.79
   1  -7  -6 2920.91   67.59
  -1  -7   6 2845.42   75.49
   1   7  -6 2767.52   85.99
   1   7  -6 2901.51   75.39
  -1   7   6 2905.51   72.99
   0   7  -6 4520.15  100.49
   0   7   6 4624.04   94.79
   0   7  -6 4433.46  110.09
   1  -7   6   15.50    8.10
   1  -7   6    5.40    5.90
  -1   7  -6    4.60    4.20
   1   7   6    5.70    4.20
  -1   7  -6   -1.50    3.00
  -2   7  -6  788.02   34.60
   2   7   6  763.12   26.70
  -2   7  -6  783.02   39.50
   3  -7   6  880.11   43.60
  -3  -7  -6  856.11   39.40
  -3   7  -6  824.22   36.90
   3   7   6  847.52   30.20
  -3   7  -6  787.72   38.80
  -4  -7  -6 1774.42   64.89
   4  -7   6 1709.63   66.49
  -4   7  -6 1822.72   61.79
  -4   7  -6 1735.13   73.19
   4   7   6 1820.82   51.79
  -4   7  -6 1774.22   61.99
  -5  -7  -6    6.40    8.60
   5  -7   6   13.20    7.80
  -5   7  -6   -0.60    4.70
  -5   7  -6   -3.00    6.10
  -5   7  -6    0.10    5.50
  -6  -7  -6  396.26   34.80
  -6   7  -6  374.86   28.70
  -6   7  -6  357.56   27.40
   6   7   6  388.96   27.20
  -7  -7  -6  363.06   36.10
  -7   7  -6  379.76   39.70
  -7   7  -6  301.27   26.50
   7   7   6  316.77   27.50
  -7   7  -6  352.96   27.80
  -8  -7  -6 1294.27   73.39
  -8   7  -6 1294.47   56.29
  -8   7  -6 1252.27   56.09
  -8   7  -6  994.50   68.29
   8   7   6 1287.57   61.69
  -8  -8   6  623.84   43.50
  -8   8   6  591.14   47.30
  -8   8   6  554.84   45.60
  -7  -8   6 1015.00   53.39
   7  -8  -6  940.61   68.69
  -7   8   6 1007.90   59.09
  -7   8   6  924.31   54.99
  -6  -8   6   84.59   17.30
  -6   8   6   81.19   19.00
  -6   8   6   63.49   17.70
   5  -8  -6   57.69   14.10
  -5  -8   6   53.19   13.70
  -5   8   6   53.79   13.90
  -5   8   6   57.29   16.10
  -4  -8   6  770.72   40.90
   4  -8  -6  688.93   39.00
   4   8  -6  680.73   39.50
  -4   8   6  696.93   36.90
  -4   8   6  688.93   41.70
   3  -8  -6  562.44   32.10
  -3  -8   6  566.04   33.40
   3   8  -6  488.35   31.80
  -3   8   6  515.55   33.80
  -3   8   6  574.64   30.60
   2  -8  -6  495.05   27.60
  -2  -8   6  492.55   30.20
   2   8  -6  544.25   31.60
  -1  -8   6  535.25   31.10
  -1   8   6  569.84   30.00
   1   8  -6  561.44   36.70
   0  -8   6  563.94   31.70
   0   8  -6  563.84   30.40
   0   8   6  583.24   28.50
   0   8  -6  650.33   37.30
   1  -8   6  364.56   29.80
  -1   8  -6  376.26   27.80
   1   8   6  309.67   20.60
  -1   8  -6  357.26   24.10
   2  -8   6  926.81   47.20
  -2   8  -6  926.91   41.50
   2   8   6  971.00   33.30
  -2   8  -6 1010.90   46.20
   3  -8   6  559.74   36.00
  -3   8  -6  508.05   32.70
  -3   8  -6  551.44   31.30
   3   8   6  484.05   24.20
  -4  -8  -6  550.54   35.60
   4  -8   6  534.55   37.00
   4   8   6  554.24   28.10
  -4   8  -6  549.05   34.70
  -4   8  -6  547.85   32.60
  -4   8  -6  519.85   39.60
  -5  -8  -6  345.57   30.70
   5  -8   6  375.56   32.70
  -5   8  -6  345.47   34.80
  -5   8  -6  403.06   30.60
   5   8   6  387.26   25.20
  -5   8  -6  358.06   27.30
  -6  -8  -6  675.03   46.50
   6  -8   6  734.93   48.20
  -6   8  -6  655.23   39.80
   6   8   6  680.03   37.60
  -6   8  -6  706.13   51.29
  -6   8  -6  678.83   39.10
  -7  -8  -6  138.29   25.70
  -7   8  -6  137.29   28.30
  -7   8  -6  224.28   24.80
  -7   8  -6  242.58   24.00
   7   8   6  212.78   26.90
  -8  -8  -6  213.68   33.60
  -8   8  -6  275.27   46.50
  -8   8  -6  240.88   26.20
  -8  -9   6   38.10   15.10
  -8   9   6   35.50   14.60
  -8   9   6   15.70   11.50
  -7  -9   6    7.60    7.80
  -7   9   6   -0.40   10.10
  -6  -9   6   81.79   16.90
  -6   9   6   90.29   21.20
  -6   9   6  105.29   22.40
   5  -9  -6  197.38   23.00
  -5  -9   6  147.09   21.00
  -5   9   6  207.48   22.90
  -5   9   6  152.78   24.80
  -4  -9   6  189.28   21.60
   4  -9  -6  173.18   20.40
  -4   9   6  210.28   21.20
  -4   9   6  211.58   30.30
   3  -9  -6    2.30    9.50
  -3  -9   6    9.50    6.80
   3   9  -6    6.10    5.50
  -3   9   6    4.90    6.60
  -3   9   6   -1.30    5.20
   2  -9  -6   59.29   12.10
  -2  -9   6   42.80   11.30
   2   9  -6   58.79   13.50
  -2   9   6   87.89   16.70
  -1  -9   6  114.69   18.40
   1   9  -6   77.89   13.80
   1   9  -6   71.29   14.30
  -1   9   6   88.59   14.70
   0  -9   6   55.29   13.60
   0   9  -6   60.89   13.90
   0   9  -6   62.79   12.90
   0   9   6   91.99   14.90
   1  -9   6  122.09   22.40
  -1   9  -6   83.39   17.00
  -1   9  -6   82.09   14.50
   1   9   6  107.29   16.30
   2  -9   6   11.90    7.40
  -2   9  -6   -2.30    5.80
   2   9   6    3.60    4.30
  -2   9  -6    2.30    5.00
   3  -9   6   50.69   12.30
   3   9   6   65.39   11.60
  -3   9  -6   75.79   15.10
  -3   9  -6   58.99   12.40
   4  -9   6  877.71   49.90
   4   9   6  917.91   39.10
  -4   9  -6 1008.90   46.40
  -4   9  -6 1047.90   50.59
  -4   9  -6  946.41   55.79
  -5  -9  -6   73.79   19.20
   5  -9   6   45.90   12.60
   5   9   6   59.49   13.00
  -5   9  -6   63.39   15.60
  -5   9  -6   29.90    9.90
  -5   9  -6   52.09   17.90
   6  -9   6    7.00    7.60
  -6  -9  -6   15.60   10.60
   6   9   6   14.00    7.00
  -6   9  -6    1.50    5.20
  -6   9  -6   11.00   11.70
  -6   9  -6   18.70    9.40
  -7  -9  -6   98.79   26.60
  -7   9  -6   62.59   20.20
  -7   9  -6   62.29   15.80
  -8  -9  -6  222.08   35.20
  -8   9  -6  306.67   28.60
  -8   9  -6  340.07   32.30
  -8   9  -6  228.38   38.00
  -8 -10   6  797.72   49.20
  -8  10   6  878.21   58.79
  -8  10   6  843.22   58.79
  -7 -10   6 1038.90   55.09
  -7  10   6 1054.19   60.49
  -7  10   6 1164.28   66.09
   6 -10  -6  519.65   51.09
  -6 -10   6  634.54   41.10
  -6  10   6  607.84   42.40
  -6  10   6  673.13   48.00
   5 -10  -6   22.10    9.50
  -5 -10   6   33.30   10.20
  -5  10   6   28.20   13.70
  -5  10   6   37.30   12.90
   4 -10  -6 1634.94   65.69
  -4 -10   6 1678.63   64.89
  -4  10   6 1691.43   64.29
  -4  10   6 1728.53   71.89
   3 -10  -6 2227.08   73.19
  -3 -10   6 2258.67   75.29
   3  10  -6 2181.88   74.99
  -3  10   6 2279.67   72.09
  -3  10   6 2126.09   77.69
   2 -10  -6 1278.57   50.59
  -2 -10   6 1212.68   51.99
  -2  10   6 1200.98   53.29
   2  10  -6 1202.58   52.29
   2  10  -6 1282.47   61.89
  -1 -10   6  100.89   16.40
   1  10  -6  113.99   20.80
   1  10  -6  136.29   19.70
  -1  10   6  156.08   21.90
   0 -10   6  944.71   45.40
   0  10   6 1020.20   43.80
   0  10  -6  988.60   45.20
   0  10  -6 1033.80   51.69
  -1  10  -6 1318.57   59.39
   1  10   6 1376.36   51.49
  -1  10  -6 1369.06   53.79
   2 -10   6 1613.34   70.59
  -2  10  -6 1839.32   63.09
  -2  10  -6 1639.54   66.99
   2  10   6 1697.83   52.89
   3 -10   6   12.50    9.80
  -3  10  -6    8.80    7.80
   3  10   6   23.30    8.40
  -3  10  -6   17.90    9.70
   4 -10   6  605.74   42.30
  -4  10  -6  683.23   42.40
  -4  10  -6  721.13   49.80
  -4  10  -6  634.04   38.00
   4  10   6  682.73   34.60
   5 -10   6  489.65   39.20
   5  10   6  414.86   28.80
  -5  10  -6  460.35   32.70
  -5  10  -6  429.76   34.10
  -5  10  -6  443.36   42.00
   6  10   6 2256.07   76.79
  -6  10  -6 2331.27  101.59
  -6  10  -6 2344.27   85.09
  -7  10  -6   -1.20    7.00
   7  10   6    0.60    7.50
  -7  10  -6    3.30    8.20
  -7  10  -6    7.00   10.80
  -7 -11   6   85.79   19.70
  -7  11   6   79.89   19.50
  -7  11   6   71.09   19.00
  -6 -11   6  149.19   22.50
   6 -11  -6  155.78   27.00
  -6  11   6  169.98   30.40
  -6  11   6  155.38   29.60
  -5 -11   6  200.78   23.20
   5 -11  -6  198.18   23.40
  -5  11   6  254.87   26.20
  -5  11   6  245.98   28.70
  -4 -11   6  507.05   36.00
   4 -11  -6  529.05   36.60
  -4  11   6  498.65   35.00
  -4  11   6  510.85   39.20
   3 -11  -6   17.00    7.70
  -3 -11   6   18.60   10.80
  -3  11   6   22.20    9.70
  -2 -11   6  134.69   19.80
   2 -11  -6  154.08   21.60
   2  11  -6  141.89   23.50
   2  11  -6  111.29   17.30
  -2  11   6  150.68   23.10
  -1 -11   6  499.25   34.20
  -1  11   6  467.65   32.10
   1  11  -6  523.65   39.40
   1  11  -6  439.86   31.40
   0  11  -6  728.03   44.80
   0  11  -6  758.62   41.00
   0  11   6  716.33   38.50
  -1  11  -6   88.69   18.70
  -1  11  -6   69.49   15.70
  -2  11  -6  203.98   21.20
  -2  11  -6  136.19   22.60
   2  11   6  181.58   27.70
  -3  11  -6  597.74   41.60
   3  11   6  668.33   34.40
  -3  11  -6  653.73   38.80
   4  11   6 1169.78   49.10
  -4  11  -6 1282.57   56.79
  -4  11  -6 1219.78   60.09
   5 -11   6   53.09   15.10
   5  11   6   44.80   12.90
  -5  11  -6   23.80   12.40
  -5  11  -6   42.70   12.10
  -5  11  -6   38.20   14.90
  -6  11  -6   35.90   16.10
   6  11   6   22.30    9.20
  -6  11  -6   48.90   13.80
  -6  11  -6    8.50   11.10
   7  11   6  235.58   27.70
  -7  11  -6  195.28   31.10
  -7  11  -6  250.77   44.10
  -7  11  -6  275.47   28.60
  -7 -12   6  164.18   27.00
  -7  12   6  114.09   25.30
  -7  12   6  155.28   29.80
   6 -12  -6   40.30   20.20
  -6  12   6   23.30   11.40
  -6  12   6   32.70   14.70
  -5 -12   6  299.67   29.10
  -5  12   6  308.07   33.30
  -5  12   6  257.27   27.70
  -4 -12   6  669.03   42.10
   4 -12  -6  587.14   40.50
  -4  12   6  540.15   45.30
  -4  12   6  602.74   44.10
  -3 -12   6  401.06   31.90
   3 -12  -6  334.67   29.10
  -3  12   6  368.86   32.80
  -2 -12   6  350.46   29.50
   2  12  -6  333.67   34.10
  -2  12   6  338.67   30.50
  -1 -12   6  567.34   37.60
  -1  12   6  600.64   38.20
   1  12  -6  593.14   37.50
   1  12  -6  614.84   43.70
   0  12   6  406.56   30.40
   0  12  -6  396.56   34.50
   0  12  -6  362.56   29.40
   1  12   6  236.18   22.90
   1  12   6  193.48   19.00
  -1  12  -6  167.48   24.90
  -1  12  -6  243.88   24.20
  -2  12  -6  187.98   29.30
   2  12   6  195.38   19.60
   2  12   6  209.78   22.60
  -2  12  -6  179.58   20.70
  -3  12  -6  588.74   38.70
  -3  12  -6  637.74   44.40
   3  12   6  575.34   34.10
  -4  12  -6  456.55   38.60
   4  12   6  461.15   31.70
  -5  12  -6  132.79   33.20
  -5  12  -6   89.59   20.10
   5  12   6   65.99   13.60
  -6  12  -6  154.48   27.30
  -6  12  -6  193.68   27.60
   6  12   6  151.18   23.40
  -6  12  -6  133.19   31.60
  -7  12  -6  232.88   41.50
  -7  12  -6  277.97   31.40
  -7 -13   6  -10.10    6.20
  -7  13   6    8.00    9.40
  -7  13   6   -1.90    7.20
  -6 -13   6  888.71   51.79
  -6  13   6  790.42   56.79
  -6  13   6  729.43   50.49
  -5 -13   6  580.64   41.20
  -5  13   6  658.23   49.30
  -5  13   6  576.04   42.10
  -4 -13   6  838.92   47.90
   4 -13  -6  807.12   49.30
  -4  13   6  798.12   52.49
  -4  13   6  750.22   46.70
   3 -13  -6    9.00    7.60
  -3 -13   6   12.80    7.80
   3  13  -6    0.90    7.90
  -3  13   6   -0.90    6.00
  -2 -13   6 1179.28   56.39
   2  13  -6 1218.88   65.79
  -2  13   6 1121.49   57.59
  -1  13   6  865.81   48.10
   1  13  -6  861.11   53.29
   0  13  -6 1287.47   57.99
   0  13   6 1311.37   57.79
   0  13  -6 1290.97   64.89
  -1  13  -6    8.20    9.90
  -1  13  -6   27.80    9.40
   1  13   6   21.90    8.60
   1  13   6   37.90   12.20
   2  13   6  482.45   31.80
  -2  13  -6  482.15   40.10
   2  13   6  549.05   37.10
   3  13   6  722.03   40.10
  -3  13  -6  770.52   50.69
  -4  13  -6 1608.14   75.59
   4  13   6 1567.64   63.19
  -5  13  -6   28.70   15.30
   5  13   6    6.70    7.20
  -5  13  -6   35.80   19.80
  -5  13  -6   24.90    9.50
  -6  13  -6  426.16   38.90
   6  13   6  398.06   35.70
  -6  13  -6  422.76   46.40
  -6 -14   6  544.05   41.10
  -6  14   6  548.55   47.60
  -6  14   6  565.44   45.30
   5 -14  -6  561.84   42.90
  -5 -14   6  587.44   41.20
  -5  14   6  504.85   41.30
  -5  14   6  535.55   46.90
  -4 -14   6   33.80   12.60
   4 -14  -6   39.40   13.20
  -4  14   6   54.39   17.50
  -4  14   6   35.60   13.70
   3 -14  -6  438.56   35.80
  -3 -14   6  361.06   33.10
  -3  14   6  435.16   38.40
   3  14  -6  420.76   41.30
  -2 -14   6  807.62   47.40
  -2  14   6  731.43   47.20
   2  14  -6  786.42   53.89
   1  14  -6  720.13   49.99
  -1  14   6  761.62   46.50
   0  14  -6   18.80   11.40
   0  14   6   20.20    7.90
   0  14   6   30.30   11.10
   1  14   6  337.37   27.60
  -1  14  -6  427.36   38.30
   1  14   6  330.97   29.40
   2  14   6  407.46   30.30
   2  14   6  465.45   35.20
  -2  14  -6  380.86   36.90
   3  14   6  538.95   35.80
   3  14   6  569.84   40.60
  -3  14  -6  571.94   40.30
  -3  14  -6  526.45   43.80
   4  14   6    5.00    8.90
  -4  14  -6    3.10   11.60
  -4  14  -6    0.70    8.20
  -5  14  -6   82.89   23.50
  -5  14  -6   66.99   20.20
   5  14   6  139.79   23.20
  -6  14  -6  226.68   34.40
  -6  14  -6  212.68   41.10
  -6 -15   6  512.45   40.80
  -6  15   6  457.55   44.80
  -6  15   6  429.06   41.60
  -5 -15   6  160.88   26.70
  -5  15   6  103.99   24.90
  -5  15   6  133.69   27.90
  -4 -15   6   39.10   13.50
  -4  15   6   47.80   16.30
  -4  15   6   66.29   18.80
   4  15  -6   68.79   19.70
  -3 -15   6  728.73   46.60
   3 -15  -6  767.22   48.20
   3  15  -6  734.63   55.39
  -3  15   6  771.12   52.99
  -2  15   6  444.56   38.20
   2  15  -6  475.15   42.90
   1  15  -6  110.49   26.10
   1  15  -6  147.09   28.70
  -1  15   6   97.89   19.60
   0  15   6   21.50    8.70
   0  15  -6   13.80    9.90
   0  15   6   11.60    8.10
   0  15  -6   20.20   11.10
   1  15   6  898.31   47.50
  -1  15  -6 1043.10   55.29
  -1  15  -6 1136.09   64.79
   1  15   6 1019.60   53.59
   2  15   6  363.06   32.50
  -2  15  -6  325.37   31.80
   2  15   6  371.06   29.80
  -2  15  -6  326.37   35.70
   3  15   6    0.70    7.10
  -3  15  -6   30.40   12.70
   3  15   6   10.20    8.10
   4  15   6   13.10   10.60
  -4  15  -6    8.00   10.60
   4  15   6   16.10   12.30
   5  15   6  852.41   62.49
  -5  15  -6  878.41   67.89
  -5  15  -6  892.31   60.59
  -5 -16   6   46.80   16.10
  -5  16   6   28.00   18.10
  -5  16   6   31.40   15.10
  -4 -16   6   59.49   16.70
   4 -16  -6   92.29   22.20
  -4  16   6   25.00   13.80
  -4  16   6   79.69   21.50
   4  16  -6   65.59   20.20
   3  16  -6  331.37   39.30
  -3  16   6  316.67   34.60
   2  16  -6  264.67   40.30
  -2  16   6  208.68   32.80
  -1  16   6   11.20   10.50
   1  16  -6    9.20    9.30
  -1  16   6   12.30    7.40
   0  16   6  121.19   23.20
   0  16  -6  124.89   26.00
   0  16   6   99.69   18.60
   1  16   6  105.49   19.60
  -1  16  -6  116.79   27.00
   1  16   6  104.09   21.60
   2  16   6  328.97   30.10
   2  16   6  341.47   32.40
  -2  16  -6  349.27   37.30
  -3  16  -6   32.50   14.10
   3  16   6   11.40    8.60
  -4  16  -6  125.39   25.60
   4  16   6  147.19   29.70
   4  16   6  179.28   29.00
  -5  16  -6  136.69   37.90
  -5  16  -6   97.69   26.10
   4 -17  -6  318.77   39.80
   4  17  -6  446.76   46.80
  -4  17   6  329.97   45.80
  -4  17   6  476.55   41.80
   3  17  -6 1134.99   72.29
  -3  17   6 1118.79   67.89
   2  17  -6  106.99   22.20
  -2  17   6  147.99   26.20
   1  17  -6   23.20   13.10
  -1  17   6   51.69   15.80
   0  17   6  535.15   42.50
   0  17  -6  569.94   48.10
   1  17   6 1030.00   58.49
   1  17   6 1088.69   61.59
  -1  17  -6 1118.89   67.89
   2  17   6  131.79   30.90
   2  17   6  170.58   29.10
  -2  17  -6  231.58   38.90
   3  17   6  225.78   34.00
  -3  17  -6  161.78   30.80
   4  17   6  286.37   55.29
  -4  17  -6  213.78   35.00
  -3  18   6  -17.50    9.70
   3  18  -6   18.10   12.10
   2  18  -6   82.69   21.80
  -2  18   6   74.99   20.60
  -1  18   6  630.74   48.80
   1  18  -6  676.03   53.19
   0  18   6  462.45   41.40
   0  18  -6  545.35   48.90
  -1  18  -6    8.90    9.50
   1  18   6    5.20   11.40
  -2  18  -6   46.30   16.80
   2  18   6   17.50   14.70
   3  18   6  764.72   52.29
  -3  18  -6  825.62   61.69
  -2  19   6  -15.00    7.50
   1  19  -6   13.90   13.50
  -1  19   6   14.50   12.70
   0  19   6   96.59   24.40
   0  19  -6   66.59   22.20
  -1  19  -6  142.79   28.50
   1  19   6  154.68   28.40
  -9   0   7   -8.90    9.00
  -9   0   7    4.70    9.80
  -8   0   7    4.40    6.00
  -7   0   7    0.30    4.80
  -7   0   7    1.20    5.80
  -6   0   7   -2.50    4.90
  -6   0   7    0.50    5.40
   6   0  -7   -4.50    4.90
  -5   0   7    3.00    5.80
   5   0  -7    2.80    5.40
  -5   0   7   -2.00    4.60
  -4   0   7    0.60    4.50
   4   0  -7   -1.30    3.30
  -4   0   7   -3.30    3.70
   3   0  -7    3.80    4.20
  -3   0   7   -0.30    3.40
  -3   0   7   -1.20    2.90
  -2   0   7   -1.80    2.90
   2   0  -7    2.70    2.90
   1   0  -7   -1.80    1.60
  -1   0   7   -3.10    2.00
   0   0   7    5.60    2.90
   1   0   7    2.50    2.10
  -1   0  -7    2.90    2.60
   1   0   7    1.70    1.80
  -2   0  -7    2.70    3.50
   2   0   7    2.70    2.20
   2   0   7   -0.40    2.10
  -3   0  -7    2.60    4.60
   3   0   7   -2.50    2.30
   4   0   7    1.40    3.20
  -4   0  -7    2.50    5.00
   5   0   7    5.00    4.90
  -5   0  -7    4.80    5.70
  -6   0  -7   15.80   10.40
   6   0   7    1.70    5.20
   7   0   7   -9.60    4.90
  -7   0  -7    2.90    7.90
  -8   0  -7   -7.70    5.10
   8   0   7   -3.40    6.00
  -9   0  -7   -0.50    8.00
  -9  -1   7 1438.96   77.79
  -9  -1   7 1551.94   74.29
  -9   1   7 1431.16   76.19
  -9   1   7 1506.85   74.19
  -8  -1   7  694.93   46.50
  -8  -1   7  681.43   49.00
  -8   1   7  610.74   46.00
  -8   1   7  649.24   45.80
  -7  -1   7   44.20   12.70
  -7  -1   7   39.10   14.10
  -7   1   7  103.59   21.90
  -7   1   7   53.39   15.20
  -6  -1   7   97.79   23.50
  -6  -1   7   84.29   15.80
   6  -1  -7   63.59   16.20
  -6   1   7   98.29   20.00
   6   1  -7   70.19   15.90
  -6   1   7   92.89   20.10
  -5  -1   7 2415.86   77.39
  -5  -1   7 2436.16   75.99
   5  -1  -7 2429.26   77.99
   5   1  -7 2415.36   78.29
  -5   1   7 2445.86   73.79
  -5   1   7 2247.58   75.79
  -4  -1   7 1693.13   58.49
  -4  -1   7 1607.44   54.09
   4  -1  -7 1694.63   58.09
  -4   1   7 1628.04   57.99
  -3  -1   7  731.43   30.40
  -3  -1   7  714.83   33.10
   3  -1  -7  669.73   31.30
  -3   1   7  685.73   32.50
   3   1  -7  646.04   31.30
  -3   1   7  685.53   27.40
   2  -1  -7  213.38   15.00
  -2  -1   7  223.58   16.60
  -2   1   7  217.38   11.90
  -2   1   7  179.28   14.80
   2   1  -7  197.38   15.20
   1  -1  -7 3478.25   65.89
  -1  -1   7 3559.24   73.49
   1   1  -7 3515.45   70.29
  -1   1   7 3433.36   70.39
   0  -1  -7 1764.82   32.20
   0  -1   7 1760.02   41.00
   0   1  -7 1691.53   35.70
   0   1  -7 1757.02   37.30
   0   1   7 1742.43   36.30
   1  -1   7 2446.36   52.29
   1  -1   7 2388.06   49.00
  -1  -1  -7 2412.66   50.89
  -1   1  -7 2502.85   56.89
   2  -1   7   78.89    8.20
   2  -1   7   69.59    7.80
  -2  -1  -7   86.49   12.40
  -2   1  -7   97.89   11.40
   2   1   7   74.59    5.30
   2   1   7   74.59    5.20
   3  -1   7 2545.35   60.69
  -3   1  -7 2546.25   70.99
   3   1   7 2484.15   53.79
   4  -1   7  413.16   24.00
  -4  -1  -7  418.46   28.10
   4   1   7  369.26   20.50
  -4   1  -7  409.86   28.50
  -5  -1  -7 1392.06   59.29
   5   1   7 1372.66   48.40
  -5   1  -7 1396.36   32.40
  -5   1  -7 1380.16   60.19
  -5   1  -7 1378.06   32.40
   6  -1   7    1.10    5.20
  -6  -1  -7   -2.30    6.80
  -6   1  -7   -0.20    2.70
  -6   1  -7    1.90    3.00
   6   1   7    2.50    6.10
  -6   1  -7   -0.30    6.00
   7  -1   7 1554.44   65.39
  -7  -1  -7 1471.55   77.49
   7   1   7 1501.25   62.49
  -7   1  -7 1491.75   44.20
  -7   1  -7 1455.85   38.60
  -7   1  -7 1586.44   75.39
  -8  -1  -7  128.39   30.70
   8  -1   7  143.29   23.50
  -8   1  -7  125.39   17.90
  -8   1  -7  108.69    9.90
  -8   1  -7  103.99   26.70
   8   1   7  115.79   21.60
  -9  -1  -7  682.93   55.99
  -9   1  -7  687.53   56.89
  -9  -2   7  137.99   29.20
  -9  -2   7  139.59   26.70
  -9   2   7  157.08   29.60
  -9   2   7  119.59   25.80
  -8  -2   7  312.07   31.60
  -8  -2   7  233.78   36.60
  -8   2   7  234.18   34.70
  -8   2   7  268.77   29.60
  -7  -2   7 1180.98   60.59
  -7  -2   7 1302.37   61.09
  -7   2   7 1186.68   59.89
  -7   2   7 1150.58   58.39
  -6  -2   7  481.95   34.50
   6  -2  -7  486.15   36.00
  -6  -2   7  473.25   35.50
  -6   2   7  418.36   33.30
  -6   2   7  470.25   33.60
   6   2  -7  517.15   36.60
   5  -2  -7  798.92   42.50
  -5  -2   7  718.73   39.90
  -5  -2   7  794.92   41.10
   5   2  -7  768.22   41.90
  -5   2   7  757.22   38.60
  -5   2   7  763.02   41.90
   4  -2  -7  434.06   28.20
  -4  -2   7  484.15   28.40
  -4  -2   7  404.36   27.60
  -4   2   7  452.65   29.50
   4   2  -7  442.96   29.00
  -4   2   7  418.66   25.20
  -3  -2   7 3016.30   73.99
   3  -2  -7 3059.69   76.39
   3   2  -7 2971.50   77.19
  -3   2   7 2951.10   77.39
  -3   2   7 2976.50   67.29
  -2  -2   7  676.43   30.00
   2  -2  -7  730.03   28.30
  -2   2   7  747.33   30.20
   2   2  -7  724.13   30.10
  -2   2   7  708.33   21.70
   1  -2  -7 2074.19   42.40
  -1  -2   7 1981.60   51.29
  -1   2   7 1993.60   47.90
   0  -2   7  420.56   18.80
   0   2   7  431.56   14.00
   0   2  -7  431.06   18.70
   0   2  -7  405.96   16.80
  -1  -2  -7 4703.53   82.29
   1  -2   7 4348.46   99.99
   1  -2   7 4788.42   86.99
  -1   2  -7 4758.42   80.69
  -1   2  -7 4570.94   78.59
  -2  -2  -7  322.37   18.20
   2  -2   7  345.07   18.00
   2  -2   7  344.07   18.40
  -2   2  -7  339.47   21.30
  -2   2  -7  321.27   11.90
  -2   2  -7  337.47   12.50
  -3  -2  -7 1832.92   62.69
   3  -2   7 1876.41   52.39
   3   2   7 1833.22   40.70
  -3   2  -7 1773.12   37.80
  -3   2  -7 1846.02   59.49
  -3   2  -7 1780.92   38.60
   4  -2   7  211.08   18.10
  -4  -2  -7  205.08   19.70
   4   2   7  177.38   13.60
  -4   2  -7  182.58   11.20
  -4   2  -7  186.08   20.30
  -4   2  -7  189.68   11.70
   5  -2   7 1483.15   54.99
  -5  -2  -7 1525.45   61.09
  -5   2  -7 1462.25   39.00
  -5   2  -7 1239.58   67.99
   5   2   7 1447.36   48.40
  -5   2  -7 1418.26   38.70
  -6  -2  -7  276.17   28.10
   6  -2   7  264.77   24.80
   6   2   7  286.27   23.00
  -6   2  -7  263.27   29.10
  -6   2  -7  305.37   17.20
  -6   2  -7  262.27   16.30
   7  -2   7  769.32   45.60
  -7  -2  -7  758.92   58.29
  -7   2  -7  743.33   29.40
  -7   2  -7  704.13   50.19
  -7   2  -7  758.52   29.70
   7   2   7  785.02   43.10
  -8  -2  -7   69.29   20.90
  -8   2  -7   91.39   24.90
  -8   2  -7   87.49   11.80
   8   2   7   80.89   17.70
  -9   2  -7  652.23   26.60
  -9  -3   7   15.50   12.40
  -9  -3   7    0.40    7.80
  -9   3   7   14.40   12.90
  -9   3   7    2.00    9.70
  -8  -3   7   82.19   21.80
  -8  -3   7   31.50   12.30
  -8   3   7   62.99   18.40
  -8   3   7   66.69   18.80
  -7  -3   7   80.19   16.30
  -7  -3   7  107.09   22.60
  -7   3   7   65.69   16.30
  -7   3   7   62.89   18.20
   6  -3  -7  398.76   32.70
  -6  -3   7  481.05   34.70
  -6  -3   7  434.86   34.20
  -6   3   7  456.65   33.00
  -6   3   7  416.66   33.30
   6   3  -7  421.86   32.80
  -5  -3   7  185.48   20.70
   5  -3  -7  218.98   22.60
  -5  -3   7  233.38   23.30
   5   3  -7  189.98   20.90
  -5   3   7  216.98   23.40
  -5   3   7  190.78   19.50
  -4  -3   7   91.09   17.10
  -4  -3   7   57.19   11.70
   4  -3  -7  110.89   17.80
  -4   3   7   75.29   13.70
   4   3  -7  114.59   18.60
  -4   3   7   53.89   12.30
  -3  -3   7   59.99   12.00
   3  -3  -7   66.29   11.90
   3   3  -7   32.30    8.30
  -3   3   7   76.89   11.20
  -3   3   7   53.19   11.30
  -2  -3   7 1693.83   51.39
   2  -3  -7 1779.02   47.70
  -2   3   7 1673.83   37.80
   2   3  -7 1709.63   50.99
  -2   3   7 1656.63   49.60
   1  -3  -7  192.58   10.10
  -1  -3   7  173.98   14.30
  -1   3   7  199.48   13.30
   1   3  -7  189.98   14.10
   0  -3   7  405.96   20.00
   0   3   7  402.76   14.00
   0   3  -7  421.86   21.00
   0   3  -7  434.56   19.20
   1  -3   7   27.50    6.60
  -1  -3  -7   44.40    6.60
   1  -3   7   40.80    8.30
  -1   3  -7   34.40    6.60
  -1   3  -7   27.90    5.70
   2  -3   7 1081.09   37.40
  -2  -3  -7 1004.50   33.80
  -2   3  -7 1004.70   30.30
  -2   3  -7 1009.10   28.90
  -2   3  -7 1009.90   40.10
   3  -3   7   55.69   10.50
  -3   3  -7   65.89    7.70
  -3   3  -7   59.09    8.70
  -3   3  -7   48.00   12.30
   3   3   7   56.99    5.90
  -4  -3  -7   52.49   12.00
   4  -3   7   53.89   12.00
   4   3   7   51.39    9.00
  -4   3  -7   48.80   10.30
  -4   3  -7   65.29    9.70
  -4   3  -7   36.80   11.40
  -5  -3  -7   10.60    7.50
   5  -3   7   11.70    7.50
   5   3   7   14.80    6.10
  -5   3  -7   19.00    6.00
  -5   3  -7   14.50   11.60
  -5   3  -7   17.40    6.30
  -6  -3  -7  649.64   43.20
   6  -3   7  710.63   41.40
  -6   3  -7  628.54   44.30
  -6   3  -7  668.53   28.80
   6   3   7  671.93   35.40
  -6   3  -7  653.03   28.90
   7  -3   7  106.59   24.00
  -7  -3  -7   65.29   17.70
  -7   3  -7   72.19   20.90
  -7   3  -7  104.69   14.40
   7   3   7   90.79   17.10
  -7   3  -7   80.69   12.60
  -8  -3  -7   19.70   10.60
   8   3   7   13.00    8.60
  -8   3  -7   -0.40    5.60
  -8   3  -7    0.50    4.60
  -8   3  -7   -4.70    6.90
  -9  -4   7   74.49   23.20
  -9  -4   7   44.40   15.00
  -9   4   7   59.49   19.50
  -9   4   7   52.39   16.30
  -8  -4   7   12.90    9.70
  -8  -4   7    0.60    5.60
  -8   4   7   18.80   11.10
  -8   4   7   21.50   11.70
  -7  -4   7  680.03   47.20
  -7  -4   7  730.53   45.50
  -7   4   7  705.03   46.80
  -7   4   7  690.13   44.80
  -6  -4   7  941.31   48.60
  -6  -4   7  815.42   48.80
   6  -4  -7  900.31   49.30
  -6   4   7  909.91   47.00
  -6   4   7  989.80   52.09
   5  -4  -7   88.09   16.30
  -5  -4   7   81.09   16.80
  -5  -4   7  102.29   17.70
  -5   4   7  130.29   21.20
   5   4  -7  140.59   21.60
  -5   4   7  120.39   19.40
   4  -4  -7  284.07   27.90
  -4  -4   7  284.67   24.00
  -4   4   7  300.67   24.90
   4   4  -7  296.17   24.60
  -3  -4   7 3201.98   83.39
   3  -4  -7 3212.68   80.69
  -3   4   7 3199.18   71.59
   3   4  -7 3266.57   83.99
  -3   4   7 3181.78   83.59
   2  -4  -7  970.00   33.70
  -2  -4   7 1001.80   39.00
   2   4  -7  966.80   37.90
  -2   4   7  968.10   27.40
  -2   4   7 1007.60   37.50
  -1  -4   7  129.99   13.10
   1  -4  -7  116.09    8.10
   1   4  -7  123.29   12.50
  -1   4   7  104.39   10.40
   0  -4   7  322.27   18.90
   0   4  -7  323.17   17.90
   0   4   7  295.07   13.00
   0   4  -7  279.57   19.10
   1  -4   7 2912.81   75.29
   1  -4   7 2863.81   67.89
  -1  -4  -7 2844.22   58.29
  -1   4  -7 2791.52   62.89
  -1   4  -7 3031.80   68.09
  -2  -4  -7  611.14   26.10
   2  -4   7  653.83   30.60
  -2   4  -7  590.74   24.00
  -2   4  -7  600.84   25.40
   3  -4   7  834.72   36.80
  -3  -4  -7  821.02   41.60
  -3   4  -7  805.92   40.50
   3   4   7  841.82   23.50
  -3   4  -7  808.22   29.30
  -3   4  -7  879.01   32.00
   4  -4   7  241.38   22.00
  -4  -4  -7  256.77   22.60
  -4   4  -7  276.57   18.30
  -4   4  -7  259.37   24.70
   4   4   7  253.77   15.80
  -4   4  -7  260.07   17.20
   5  -4   7 1343.97   55.69
  -5  -4  -7 1355.56   58.39
   5   4   7 1364.86   45.90
  -5   4  -7 1313.27   62.19
  -5   4  -7 1407.46   45.90
  -5   4  -7 1411.56   44.60
   6  -4   7   11.50    7.00
  -6  -4  -7   16.30    9.50
  -6   4  -7    2.40    4.90
  -6   4  -7   13.60    6.70
   6   4   7    6.00    5.40
  -6   4  -7    6.40    7.70
   7  -4   7  876.71   50.99
  -7  -4  -7  892.71   55.29
  -7   4  -7  926.01   38.30
  -7   4  -7  892.11   57.69
   7   4   7  854.81   44.90
  -7   4  -7  857.61   37.50
  -8  -4  -7  125.19   27.70
  -8   4  -7  118.39   16.90
   8   4   7  114.59   20.70
  -8   4  -7   85.19   25.30
  -9  -5   7  151.08   34.40
  -9  -5   7  118.09   22.60
  -9   5   7  144.19   30.90
  -9   5   7  108.19   23.40
  -8  -5   7   12.00   10.80
  -8  -5   7    2.40    7.70
  -8   5   7    9.00    9.50
  -8   5   7    2.20    6.80
  -7  -5   7  644.74   59.49
   7  -5  -7  631.14   45.50
  -7  -5   7  657.43   42.80
  -7   5   7  701.03   44.90
  -7   5   7  587.04   43.30
   6  -5  -7 1687.73   70.69
  -6  -5   7 1560.24   64.69
  -6  -5   7 1581.34   70.39
  -6   5   7 1655.83   70.09
  -6   5   7 1653.23   65.29
  -5  -5   7  726.43   40.70
   5  -5  -7  795.02   43.70
  -5   5   7  769.92   39.40
  -5   5   7  743.53   42.90
   5   5  -7  715.53   41.70
   4  -5  -7   21.50    8.50
  -4  -5   7   14.60    8.80
  -4   5   7   28.50    9.80
  -4   5   7   41.10   10.60
   4   5  -7   18.80    8.10
   3  -5  -7 1287.87   46.80
  -3  -5   7 1311.07   49.70
  -3   5   7 1376.26   59.59
  -3   5   7 1322.97   41.30
   2  -5  -7 1750.32   49.10
  -2   5   7 1748.33   54.09
  -2   5   7 1784.32   43.00
   2   5  -7 1799.62   55.79
  -1  -5   7 1311.27   44.40
   1  -5  -7 1268.57   32.80
   1   5  -7 1249.18   49.00
   1   5  -7 1223.98   42.30
  -1   5   7 1257.67   39.50
   0  -5   7   15.50    6.20
   0   5  -7    9.10    5.20
   0   5  -7   17.30    6.40
   0   5   7   18.80    5.00
   1  -5   7 1178.18   46.70
   1  -5   7 1074.79   39.50
  -1   5  -7 1141.69   40.80
  -1   5  -7 1091.29   36.60
   2  -5   7 1894.21   59.59
  -2  -5  -7 1802.42   50.39
  -2   5  -7 1863.01   50.29
  -2   5  -7 1841.42   53.79
   3  -5   7  507.55   30.10
  -3  -5  -7  575.54   29.80
  -3   5  -7  515.35   24.90
  -3   5  -7  528.35   33.60
   3   5   7  494.45   18.30
  -3   5  -7  486.45   26.00
  -4  -5  -7   16.10    8.80
   4  -5   7    7.70    6.60
  -4   5  -7    9.30    8.30
   4   5   7   12.90    4.90
  -4   5  -7    3.80    5.00
  -4   5  -7   10.10    5.60
   5  -5   7  753.92   42.30
  -5  -5  -7  763.32   43.60
  -5   5  -7  758.42   33.60
  -5   5  -7  750.22   34.50
  -5   5  -7  798.52   48.40
   5   5   7  762.52   33.20
  -6  -5  -7  402.76   34.40
   6  -5   7  423.66   33.70
   6   5   7  410.96   27.30
  -6   5  -7  392.56   36.30
  -6   5  -7  414.06   26.30
  -6   5  -7  413.26   25.60
  -7  -5  -7  313.57   32.60
   7  -5   7  322.87   30.70
  -7   5  -7  301.87   23.60
  -7   5  -7  320.97   23.70
  -7   5  -7  304.47   34.60
   7   5   7  332.07   26.70
  -8  -5  -7   37.60   18.30
  -8   5  -7   30.00    9.50
  -8   5  -7   34.50   17.30
   8   5   7   37.90   10.70
  -8   5  -7   33.20   10.10
  -9  -6   7  410.96   37.30
  -9  -6   7  396.46   43.20
  -9   6   7  396.56   39.90
  -9   6   7  455.45   42.70
  -8  -6   7  824.42   50.09
  -8  -6   7  642.54   51.39
  -8   6   7  644.34   47.50
  -8   6   7  660.03   48.90
  -7  -6   7  311.07   32.90
   7  -6  -7  210.48   29.10
  -7  -6   7  297.27   29.20
  -7   6   7  255.27   29.00
  -7   6   7  311.77   30.90
   6  -6  -7  370.56   32.30
  -6  -6   7  439.36   33.50
  -6   6   7  345.67   31.60
  -5  -6   7  805.62   43.60
   5  -6  -7  820.72   44.80
  -5   6   7  859.41   47.00
   5   6  -7  781.72   43.90
  -5   6   7  868.21   42.20
  -4  -6   7 2972.20   86.69
   4  -6  -7 3015.60   86.29
   4   6  -7 2951.00   87.59
  -4   6   7 3022.90   78.99
  -4   6   7 3020.00   89.59
   3  -6  -7  492.05   28.10
   3   6  -7  447.36   29.00
  -3   6   7  442.16   28.90
  -3   6   7  467.95   24.10
  -2  -6   7  565.74   31.00
   2  -6  -7  643.34   28.10
   2   6  -7  661.13   32.90
  -2   6   7  617.24   31.30
  -2   6   7  619.94   24.20
   1  -6  -7  218.38   13.10
  -1  -6   7  220.48   20.50
   1   6  -7  189.88   19.80
   1   6  -7  218.78   18.10
  -1   6   7  220.18   16.30
   0  -6   7 4682.33  102.09
   0   6  -7 4452.25  106.49
   0   6  -7 4639.24   99.19
   0   6   7 4668.83   90.19
   1  -6   7  877.61   42.70
   1  -6   7  884.11   37.20
  -1   6  -7  908.01   38.60
  -1   6  -7  902.51   35.00
   2  -6   7  297.47   23.90
  -2   6  -7  332.57   22.30
   2   6   7  297.77   13.40
  -2   6  -7  338.67   21.00
  -3  -6  -7   47.90   11.10
   3  -6   7   33.20   10.00
  -3   6  -7   37.70    9.50
  -3   6  -7   49.30   10.00
  -3   6  -7   54.39   14.90
   3   6   7   31.50    9.90
   4  -6   7 2182.18   74.09
  -4  -6  -7 2183.58   71.49
  -4   6  -7 2258.87  104.99
  -4   6  -7 2245.38   66.09
  -4   6  -7 2220.28   63.09
   4   6   7 2113.89   54.79
  -5  -6  -7  467.25   42.10
   5  -6   7  538.55   36.40
  -5   6  -7  568.14   30.60
  -5   6  -7  563.34   41.40
  -5   6  -7  583.94   31.90
   5   6   7  512.95   27.50
  -6  -6  -7   43.70   15.80
   6  -6   7   33.00   11.60
   6   6   7   26.00    9.00
  -6   6  -7   21.60   13.10
  -6   6  -7   38.80   11.20
  -6   6  -7   46.10   11.80
  -7  -6  -7    7.10    8.30
   7  -6   7   14.50   10.70
  -7   6  -7   11.70    7.70
   7   6   7   25.10    8.80
  -7   6  -7   30.30   12.30
  -7   6  -7    9.40    6.70
  -8  -6  -7 1231.98   71.09
  -8   6  -7 1190.68   50.79
   8   6   7 1161.58   57.49
  -8   6  -7 1195.48   49.70
  -8   6  -7 1187.98   73.29
  -8  -7   7  196.88   27.80
  -8   7   7  207.58   34.00
  -8   7   7  238.08   35.80
   7  -7  -7   -7.20    7.00
  -7  -7   7    7.50    8.70
  -7   7   7    6.90    8.30
  -7   7   7    4.60    7.70
   6  -7  -7    6.20    6.80
  -6  -7   7   -2.40    5.40
  -6   7   7   10.00    9.00
  -6   7   7    1.60    6.10
  -5  -7   7  759.02   42.80
   5  -7  -7  813.72   44.90
  -5   7   7  726.03   39.60
  -5   7   7  744.83   45.30
   4  -7  -7  344.07   26.80
  -4  -7   7  343.07   27.20
  -4   7   7  362.36   24.70
   4   7  -7  336.67   27.50
  -4   7   7  302.57   27.00
   3  -7  -7    7.00    4.40
  -3  -7   7    8.30    6.10
  -3   7   7   -0.40    4.00
   3   7  -7    4.80    5.80
  -3   7   7    3.70    4.90
  -2  -7   7    7.40    6.20
   2  -7  -7    6.40    4.40
   2   7  -7    2.50    5.30
  -2   7   7   17.70    5.90
  -2   7   7    3.20    5.00
  -1  -7   7 1254.47   47.50
  -1   7   7 1264.57   44.00
   1   7  -7 1371.36   56.39
   1   7  -7 1300.47   47.30
   0  -7   7 1209.48   46.10
   0   7  -7 1198.08   44.20
   0   7  -7 1127.69   58.59
   0   7   7 1282.27   40.10
   1  -7   7  204.58   18.80
   1  -7   7  253.57   35.70
   1   7   7  197.78   14.30
  -1   7  -7  186.18   16.80
   2  -7   7  482.75   32.30
  -2   7  -7  508.45   30.10
  -2   7  -7  460.85   26.40
   3  -7   7  211.78   21.70
  -3  -7  -7  197.78   19.00
  -3   7  -7  219.78   20.50
   3   7   7  200.38   14.10
  -3   7  -7  196.98   18.00
  -4  -7  -7  237.78   23.10
   4  -7   7  216.38   23.00
  -4   7  -7  268.27   28.50
   4   7   7  260.57   17.60
  -4   7  -7  247.18   21.90
  -4   7  -7  213.48   33.10
  -5  -7  -7  207.98   30.80
   5  -7   7  194.68   23.10
   5   7   7  182.08   17.30
  -5   7  -7  170.28   18.10
  -5   7  -7  192.48   31.70
  -5   7  -7  225.78   21.30
  -6  -7  -7  221.08   34.10
   6  -7   7  167.28   25.80
  -6   7  -7  154.38   29.20
  -6   7  -7  178.98   19.40
  -6   7  -7  176.98   19.30
   6   7   7  221.88   20.30
  -7  -7  -7  232.68   34.90
  -7   7  -7  248.48   23.00
   7   7   7  240.78   24.10
  -7   7  -7  217.38   21.40
  -7   7  -7  174.68   32.90
  -8  -7  -7   13.20   11.80
  -8   7  -7   -0.10    8.10
   8   7   7   20.10   10.30
  -8   7  -7   19.80   14.50
  -8   7  -7   23.10   10.70
  -8  -8   7  789.82   50.39
  -8   8   7  916.61   59.19
  -8   8   7  844.12   54.79
   7  -8  -7   -5.30   10.50
  -7   8   7   -4.30    4.10
  -7   8   7    0.50    6.90
  -6  -8   7  102.99   20.10
  -6   8   7   84.69   20.20
  -6   8   7  103.19   22.00
   5  -8  -7  630.24   40.10
  -5  -8   7  625.94   39.70
  -5   8   7  628.04   41.60
  -5   8   7  651.23   38.10
   4  -8  -7  898.41   44.60
  -4  -8   7  892.71   45.40
  -4   8   7  868.61   47.20
   4   8  -7  915.71   46.60
  -4   8   7  858.91   40.70
  -3  -8   7   35.20   10.00
   3  -8  -7   41.50   11.20
  -3   8   7   40.60   12.40
   3   8  -7   42.90   12.40
   2  -8  -7  231.98   18.50
  -2  -8   7  220.78   21.20
   2   8  -7  217.18   20.70
  -2   8   7  248.88   26.40
  -1  -8   7  478.25   29.80
   1   8  -7  492.85   29.70
   1   8  -7  479.15   34.10
  -1   8   7  470.25   27.40
   0  -8   7 3270.77   86.89
   0   8   7 3213.38   77.39
   0   8  -7 3215.08   86.29
   0   8  -7 3259.27   92.79
   1  -8   7   20.10    9.70
   1   8   7   12.90    6.10
  -1   8  -7    7.60    7.40
  -1   8  -7   17.20    7.00
   2  -8   7    5.20    6.20
   2   8   7   -0.30    3.80
  -2   8  -7    4.90    6.60
  -2   8  -7    7.90    5.80
   3  -8   7  304.87   27.10
  -3   8  -7  244.08   22.60
   3   8   7  273.27   17.70
  -3   8  -7  268.57   22.00
  -4  -8  -7 3360.66   96.59
   4  -8   7 3330.77  101.89
  -4   8  -7 3324.87   93.69
  -4   8  -7 3364.76  108.99
   4   8   7 3270.47   78.29
  -4   8  -7 3237.58   87.99
  -5  -8  -7   24.20   10.60
   5  -8   7    9.30    7.30
  -5   8  -7   35.40   11.70
  -5   8  -7   25.20    9.40
   5   8   7   26.20    9.00
  -5   8  -7   34.70   15.30
  -6  -8  -7   -9.60    5.50
   6  -8   7  -10.90    5.50
  -6   8  -7    7.30    7.00
  -6   8  -7   17.70   13.20
  -6   8  -7   12.10    7.20
   6   8   7    4.50    6.10
  -7  -8  -7  169.08   31.70
  -7   8  -7  166.78   19.00
  -7   8  -7  128.49   27.10
   7   8   7  155.88   21.90
  -7   8  -7  162.48   24.40
  -8  -8  -7 1203.98   71.39
  -8   8  -7 1246.18   54.39
  -8   8  -7 1203.78   76.29
  -8   8  -7 1167.88   54.79
  -8  -9   7  469.35   38.90
  -8   9   7  514.65   45.40
  -8   9   7  499.45   42.90
  -7  -9   7  777.62   48.20
  -7   9   7  709.63   48.10
  -7   9   7  786.82   53.09
  -6  -9   7 1156.58   57.59
  -6   9   7 1185.28   63.29
  -6   9   7 1253.47   59.49
   5  -9  -7  320.97   28.60
  -5  -9   7  289.57   27.50
  -5   9   7  259.97   25.10
  -5   9   7  345.47   31.70
   4  -9  -7  615.74   37.40
  -4  -9   7  636.04   38.70
  -4   9   7  668.33   42.20
  -4   9   7  620.74   35.30
   4   9  -7  570.74   37.90
   3  -9  -7  679.93   35.80
  -3  -9   7  671.23   38.80
   3   9  -7  690.23   39.90
  -3   9   7  646.14   39.60
  -3   9   7  694.93   34.70
   2  -9  -7 2639.34   73.19
  -2  -9   7 2619.74   79.79
  -2   9   7 2614.34   79.79
   2   9  -7 2677.83   80.59
  -1  -9   7  687.83   37.30
   1   9  -7  633.64   40.90
   1   9  -7  632.84   35.10
  -1   9   7  626.44   33.50
   0  -9   7   29.70   10.60
   0   9  -7   40.10   12.40
   0   9   7   40.90   10.20
   0   9  -7   24.10    8.40
   1  -9   7  505.55   37.30
  -1   9  -7  468.05   29.10
   1   9   7  484.75   26.90
  -1   9  -7  460.55   32.90
   2  -9   7 3590.74  109.29
   2   9   7 3558.94   80.89
  -2   9  -7 3742.03   95.29
  -2   9  -7 3843.32  104.29
   3  -9   7  221.28   30.70
   3   9   7  232.18   17.60
  -3   9  -7  195.88   22.00
  -3   9  -7  218.68   21.10
   4  -9   7   64.39   15.10
  -4   9  -7   85.89   17.80
  -4   9  -7   65.89   20.00
  -4   9  -7   66.69   14.30
   4   9   7   87.59   14.50
  -5  -9  -7  107.99   23.00
   5  -9   7   78.49   21.70
  -5   9  -7  109.19   17.10
  -5   9  -7  102.49   18.00
  -5   9  -7   76.39   24.30
   5   9   7  100.49   16.80
  -6  -9  -7 2996.60  151.28
   6  -9   7 2568.04  143.49
  -6   9  -7 2512.35  104.59
  -6   9  -7 2564.24   82.59
  -6   9  -7 2608.24   86.19
   6   9   7 2592.64   79.99
  -7  -9  -7   53.69   20.40
  -7   9  -7   53.99   13.80
  -7   9  -7   41.50   13.20
  -7   9  -7   25.70   14.60
   7   9   7   51.59   19.80
  -8 -10   7   39.70   15.00
  -8  10   7   46.90   15.00
  -8  10   7   25.70   12.80
  -7 -10   7    1.50    7.40
  -7  10   7    0.50    7.10
  -7  10   7   -3.80    8.20
  -6 -10   7    4.50    7.40
  -6  10   7    3.20    6.80
  -6  10   7   22.60   19.00
  -5 -10   7    5.30    6.10
   5 -10  -7   -2.60    5.70
  -5  10   7    2.30    6.30
  -5  10   7   -8.40    5.80
   4 -10  -7  185.68   26.40
  -4 -10   7  190.38   22.20
  -4  10   7  171.08   19.50
  -4  10   7  134.09   24.00
  -3 -10   7   30.40    9.80
   3 -10  -7   28.50    9.70
  -3  10   7   15.40    9.80
   3  10  -7   22.20    8.90
  -3  10   7   59.39   13.20
   2 -10  -7    8.80    6.60
  -2 -10   7    1.10    5.20
   2  10  -7   12.20    9.10
  -2  10   7    4.40    6.80
   2  10  -7   22.90   10.80
  -1 -10   7  120.69   19.70
   1  10  -7  123.89   22.50
   1  10  -7   83.39   14.60
  -1  10   7  138.39   21.00
   0 -10   7  112.09   18.30
   0  10  -7  111.89   16.80
   0  10   7  132.59   15.70
   0  10  -7  171.58   27.30
  -1  10  -7    0.30    5.50
   1  10   7    4.20    5.20
  -1  10  -7    8.20    6.90
   2 -10   7   -7.40    6.20
  -2  10  -7    1.10    5.70
  -2  10  -7   -3.40    5.80
   2  10   7   -5.00    4.20
   3 -10   7   32.30   11.00
  -3  10  -7   37.20   11.60
   3  10   7   40.30    9.90
  -3  10  -7   30.30   10.80
   4 -10   7   66.99   18.30
   4  10   7  151.28   16.60
  -4  10  -7  114.59   18.10
  -4  10  -7  111.99   23.90
  -4  10  -7  133.89   22.20
   5 -10   7    5.30    9.50
   5  10   7   17.30    7.50
  -5  10  -7   16.00    9.60
  -5  10  -7   26.30    9.00
  -5  10  -7    4.90    9.80
  -6  10  -7    6.30    7.90
  -6  10  -7   10.70    5.30
  -6  10  -7    1.10    6.90
   6  10   7   -9.90    6.00
  -7  10  -7   21.50   13.80
  -7  10  -7   30.60   13.00
   7  10   7   35.60   10.60
  -7 -11   7  334.07   32.80
  -7  11   7  347.57   34.40
  -7  11   7  404.86   39.60
   6 -11  -7  943.91   56.59
  -6  11   7  989.90   55.09
  -6  11   7 1057.09   61.89
  -5 -11   7  175.68   26.40
   5 -11  -7  142.79   23.30
  -5  11   7  197.98   29.20
  -5  11   7  155.68   25.80
  -4 -11   7  594.94   39.10
   4 -11  -7  573.04   38.00
  -4  11   7  603.64   37.60
  -4  11   7  570.74   41.90
   3 -11  -7  460.45   32.10
  -3 -11   7  554.04   37.10
  -3  11   7  509.05   32.60
  -3  11   7  468.55   36.00
  -2 -11   7 2846.62   88.49
   2 -11  -7 2676.73   79.79
   2  11  -7 2827.42   87.69
   2  11  -7 2636.74   97.29
  -2  11   7 2782.12   88.29
  -1 -11   7  297.47   27.00
  -1  11   7  314.87   26.10
   1  11  -7  285.67   29.40
   1  11  -7  325.77   27.20
   0  11   7  308.77   24.90
   0  11  -7  298.47   25.80
   0  11  -7  305.27   29.40
  -1  11  -7  237.28   26.40
  -1  11  -7  241.58   23.50
   1  11   7  193.78   19.30
   2  11   7 2403.66   74.59
  -2  11  -7 2393.56   78.09
  -2  11  -7 2364.86   85.19
   2  11   7 2425.36   71.19
   3  11   7  711.73   34.80
  -3  11  -7  679.53   44.00
  -3  11  -7  715.73   39.90
   4 -11   7   -1.00    7.80
  -4  11  -7   13.00   11.20
  -4  11  -7   41.80   13.80
   4  11   7   40.20   11.00
  -4  11  -7   21.90   17.40
  -5  11  -7   17.00   12.10
  -5  11  -7   18.20    8.50
   5  11   7   24.60    8.50
  -5  11  -7   10.60    8.90
  -6  11  -7 1424.36   81.19
   6  11   7 1620.64   63.99
  -6  11  -7 1607.34   69.89
  -7  11  -7   -0.10    9.50
  -7  11  -7   38.30   14.20
   7  11   7   33.40   14.10
  -7  11  -7   10.70   11.30
  -7 -12   7    3.90    7.20
  -7  12   7  -10.50    8.30
  -6 -12   7  113.39   23.10
   6 -12  -7  189.18   32.50
  -6  12   7  139.79   26.40
  -6  12   7  147.19   27.10
  -5 -12   7  305.07   30.40
  -5  12   7  395.16   33.20
  -5  12   7  374.16   36.30
   4 -12  -7 1346.07   62.19
  -4 -12   7 1611.64   67.79
  -4  12   7 1515.05   64.89
  -4  12   7 1530.75   71.79
  -3 -12   7   22.30    9.60
   3 -12  -7   56.39   14.50
  -3  12   7   43.80   13.50
  -3  12   7   40.20   13.90
  -2 -12   7   67.69   15.40
   2  12  -7   69.79   16.50
  -2  12   7   68.59   15.70
   2  12  -7   87.79   21.40
  -1 -12   7  422.16   32.40
   1  12  -7  398.06   35.60
  -1  12   7  451.75   32.80
   1  12  -7  383.06   30.80
   0  12  -7 2342.57   79.19
   0  12  -7 2262.07   86.09
   0  12   7 2288.77   75.79
  -1  12  -7    9.70   10.20
   1  12   7    5.20    6.20
   1  12   7   -3.90    5.00
  -1  12  -7   -1.30    5.00
  -2  12  -7    3.40    6.90
  -2  12  -7    5.60    6.90
   2  12   7   15.50    8.20
   2  12   7   17.60    7.80
  -3  12  -7  607.24   38.20
   3  12   7  587.94   33.20
  -3  12  -7  546.25   41.00
   4 -12   7 2090.19   89.59
   4  12   7 2035.40   69.39
  -4  12  -7 2088.59   83.19
  -5  12  -7   -2.60    7.00
  -5  12  -7   16.80   11.00
   5  12   7   -4.80    5.80
  -6  12  -7    1.60    7.80
  -6  12  -7   11.40   11.30
  -6  12  -7    4.00    7.80
  -7 -13   7   19.60   14.40
  -7  13   7   33.10   16.60
  -7  13   7   34.80   15.80
  -6 -13   7   26.60   12.60
  -6  13   7   15.40   12.00
  -6  13   7   44.30   16.00
  -5 -13   7  714.43   47.80
  -5  13   7  688.03   45.40
  -5  13   7  618.64   48.40
  -4 -13   7  204.48   30.30
   4 -13  -7  160.58   24.80
  -4  13   7  123.59   23.90
  -4  13   7  208.58   24.30
   3 -13  -7  122.89   22.20
  -3 -13   7  178.98   26.70
  -3  13   7  141.29   24.10
   3  13  -7   92.39   20.70
  -2 -13   7   23.20   11.60
   2  13  -7   23.30   11.90
  -2  13   7   38.20   13.00
  -1 -13   7 1226.48   57.89
  -1  13   7 1182.58   56.39
   1  13  -7 1229.48   64.99
   0  13  -7   89.99   18.40
   0  13  -7  156.98   28.60
   0  13   7  127.09   21.30
  -1  13  -7  190.18   22.40
  -1  13  -7  289.47   31.20
   1  13   7  281.77   25.40
   1  13   7  280.37   23.40
  -2  13  -7   13.00    8.60
   2  13   7    5.70    7.10
  -2  13  -7   16.10    7.60
   2  13   7    4.30    7.30
   3  13   7  488.15   35.10
   3  13   7  478.05   31.30
  -3  13  -7  529.55   41.70
   4  13   7  111.79   19.20
  -4  13  -7  131.79   29.10
  -4  13  -7  168.18   30.00
  -5  13  -7   79.49   21.30
   5  13   7  121.49   20.20
  -5  13  -7  101.99   19.10
  -5  13  -7   83.29   23.40
  -6  13  -7   21.10   14.20
  -6  13  -7   35.60   11.90
   6  13   7   28.60   13.30
  -6 -14   7  192.68   30.90
  -6  14   7  248.98   36.80
  -6  14   7  130.19   25.70
   5 -14  -7  103.59   22.80
  -5 -14   7  126.99   22.80
  -5  14   7  118.39   23.50
  -5  14   7   96.09   20.70
   4 -14  -7  386.06   35.10
  -4 -14   7  352.06   52.59
  -4  14   7  378.56   33.50
  -4  14   7  426.66   45.40
   3 -14  -7  314.87   30.20
  -3 -14   7  327.57   31.50
   3  14  -7  291.37   34.50
  -3  14   7  313.17   32.50
  -2 -14   7  221.28   26.30
  -2  14   7  242.38   27.50
   2  14  -7  290.27   41.30
   2  14  -7  200.18   30.90
   1  14  -7   36.00   16.40
  -1  14   7   22.10   10.40
   0  14  -7 1296.27   67.39
   0  14   7 1342.97   60.59
   1  14   7  391.56   29.30
  -1  14  -7  454.35   39.50
   1  14   7  411.36   32.20
   2  14   7   85.69   18.60
   2  14   7   66.49   14.40
  -2  14  -7   58.49   25.20
  -2  14  -7   82.79   19.60
  -3  14  -7   -1.90    8.00
  -3  14  -7    9.10    7.90
   3  14   7   -2.80    5.70
   3  14   7   12.70    7.80
   4  14   7 1136.29   54.19
  -4  14  -7 1084.09   63.39
  -4  14  -7 1160.98   62.19
  -5  14  -7  134.99   25.30
   5  14   7  191.38   26.70
  -5  14  -7  105.29   27.50
  -6  14  -7   51.69   15.90
  -6  14  -7   22.90   15.80
   5 -15  -7  178.18   29.10
  -5 -15   7  163.88   26.50
  -5  15   7  159.48   28.30
  -5  15   7  111.79   23.40
  -4 -15   7    1.80    7.20
   4 -15  -7    2.70    8.60
   4  15  -7    6.90    9.50
  -4  15   7   -6.20    6.50
  -4  15   7    7.50    7.90
  -3 -15   7  375.86   34.80
   3  15  -7  462.05   43.90
  -3  15   7  371.96   36.70
  -2  15   7  677.33   47.40
   2  15  -7  722.43   63.19
  -1  15   7  190.88   30.40
   1  15  -7  197.88   27.50
   1  15  -7  106.19   20.90
   0  15   7   24.90    8.10
   0  15  -7   15.40    9.60
   0  15  -7   15.00   11.50
   0  15   7    4.90    7.10
  -1  15  -7  346.87   35.70
   1  15   7  347.57   28.70
   1  15   7  309.67   29.20
  -1  15  -7  296.27   30.40
  -2  15  -7  441.56   37.70
   2  15   7  433.86   32.10
   2  15   7  405.36   33.80
   3  15   7   78.59   17.40
   3  15   7   73.09   18.50
  -3  15  -7   91.09   22.60
   4  15   7  -11.50    5.10
   4  15   7    5.80    9.00
  -4  15  -7   -3.10    9.40
   5  15   7  350.56   33.60
  -5  15  -7  385.86   39.80
  -5  15  -7  401.46   46.00
  -5 -16   7  117.69   24.20
  -5  16   7  109.29   25.10
   5  16  -7  119.69   27.80
  -5  16   7  116.49   24.70
  -4 -16   7   21.30   10.80
   4  16  -7   46.80   18.00
  -4  16   7    2.00    8.60
   3  16  -7 1078.89   69.79
  -3  16   7 1256.67   68.89
  -2  16   7  253.77   37.90
   2  16  -7  180.38   28.90
  -1  16   7  391.26   35.90
   1  16  -7  474.65   42.40
   0  16  -7   -0.50    8.80
   0  16   7   13.00   10.30
   0  16   7   -5.10    5.50
   1  16   7 1150.58   55.59
  -1  16  -7 1190.08   68.29
   1  16   7 1030.90   55.99
   2  16   7   98.09   21.30
   2  16   7  136.39   22.40
  -2  16  -7   89.89   22.60
   3  16   7  498.05   39.80
   3  16   7  424.46   34.60
  -3  16  -7  483.75   44.10
   4  16   7   11.30    9.20
  -4  16  -7    9.50   13.20
   4  16   7   -8.20   11.00
  -4  17   7  172.48   29.90
   4  17  -7  143.89   28.60
  -4  17   7  105.59   23.90
  -3  17   7    9.40    8.90
   3  17  -7    6.30    8.90
   2  17  -7  117.69   26.60
  -2  17   7   98.29   21.30
  -1  17   7  187.68   29.30
   1  17  -7  214.98   32.60
   0  17  -7  138.69   27.00
   0  17   7  143.99   25.50
   1  17   7   -1.60    8.80
   1  17   7  -10.30   10.40
  -1  17  -7    2.00    8.50
   2  17   7  289.67   41.00
  -2  17  -7  239.58   39.30
   2  17   7  262.57   30.10
  -3  17  -7  158.08   29.80
   3  17   7  186.78   30.00
   3  18  -7  515.55   49.50
  -3  18   7  454.05   44.20
  -2  18   7   50.49   17.30
   2  18  -7  133.89   31.40
  -1  18   7  176.28   28.80
   1  18  -7  175.48   33.60
   0  18  -7  170.28   31.90
   0  18   7  212.28   33.50
  -1  18  -7  525.15   47.00
   1  18   7  395.76   68.59
   2  18   7    5.80   18.90
  -2  18  -7   41.30   16.50
   1  19  -7 1126.59   72.49
  -1  19   7 1164.78   68.29
   0  19  -7  423.66   44.20
   0  19   7  377.16   36.90
  -9   0   8 1628.04   82.59
  -9   0   8 1709.53   80.19
  -8   0   8  628.44   46.60
  -8   0   8  709.83   48.30
  -7   0   8 1267.77   61.49
  -7   0   8 1340.97   63.69
   6   0  -8  120.59   22.50
  -6   0   8  109.59   21.10
  -6   0   8   83.69   18.70
   5   0  -8 1600.74   61.99
  -5   0   8 1579.54   57.89
  -5   0   8 1558.94   61.69
  -4   0   8 1087.29   42.40
  -4   0   8 1088.69   46.90
  -3   0   8 3395.96   75.59
  -3   0   8 3398.26   85.09
   3   0  -8 3394.76   83.29
  -2   0   8   96.19   13.80
   2   0  -8   77.89   11.10
  -1   0   8 1856.41   47.50
   1   0  -8 1788.02   42.40
   0   0   8 1548.35   37.10
   1   0   8 9464.55  148.99
   1   0   8 9467.85  152.08
  -1   0  -8 9661.63  158.98
   2   0   8    2.30    2.30
   2   0   8    3.50    2.80
  -2   0  -8   16.60    6.00
   3   0   8 2165.28   52.19
  -3   0  -8 2232.58   64.69
  -4   0  -8   75.99   15.30
   4   0   8   78.59   12.20
   5   0   8 4297.47   99.99
  -5   0  -8 4113.69  114.09
  -6   0  -8   11.30    9.90
   6   0   8    8.50    6.60
  -7   0  -8  325.37   34.20
   7   0   8  361.76   29.60
  -8   0  -8    8.70    9.40
   8   0   8   35.10   12.50
  -9  -1   8  181.38   32.30
  -9  -1   8  233.98   35.40
  -9   1   8  217.88   32.60
  -9   1   8  211.28   35.50
  -8  -1   8   48.60   15.50
  -8  -1   8   45.90   15.40
  -8   1   8   88.39   21.90
  -8   1   8   60.29   15.60
  -7  -1   8  241.48   27.30
  -7  -1   8  312.07   30.10
   7   1  -8  229.18   47.00
  -7   1   8  230.48   26.50
  -7   1   8  278.17   29.10
  -6  -1   8  256.67   26.00
  -6  -1   8  287.57   40.10
   6  -1  -8  264.67   26.70
   6   1  -8  269.97   26.90
  -6   1   8  258.47   26.60
  -6   1   8  289.17   26.10
  -5  -1   8  417.56   30.80
   5  -1  -8  420.66   30.60
  -5  -1   8  454.15   30.40
  -5   1   8  449.76   29.10
  -5   1   8  430.26   31.70
   5   1  -8  424.26   30.90
  -4  -1   8   40.20   10.30
   4  -1  -8   37.30   11.00
  -4  -1   8   49.40   13.00
   4   1  -8   46.30   11.50
  -4   1   8   43.20   11.70
  -4   1   8   61.29   13.70
  -3  -1   8  295.97   19.00
   3  -1  -8  255.27   19.30
   3   1  -8  248.58   19.60
  -3   1   8  251.57   16.30
  -3   1   8  258.47   20.60
  -2  -1   8  595.94   28.10
   2  -1  -8  614.94   26.20
  -2   1   8  628.24   28.10
   2   1  -8  617.04   27.10
  -1  -1   8 1545.55   43.40
   1  -1  -8 1556.14   35.90
  -1   1   8 1549.14   41.70
   1   1  -8 1499.35   39.60
   0  -1   8  184.88   12.10
   0   1  -8  190.98    9.50
   0   1  -8  181.68    8.90
   0   1   8  182.38   10.20
   1  -1   8  511.15   20.80
   1  -1   8  406.76   16.90
  -1  -1  -8  447.06   17.90
  -1   1  -8  462.15   21.20
   2  -1   8   48.00    7.70
  -2  -1  -8   67.19   11.30
   2  -1   8   70.29    9.50
   2   1   8   58.59    5.00
   2   1   8   47.80    4.60
  -2   1  -8   63.79   12.00
  -3  -1  -8 1032.80   41.40
   3  -1   8 1017.10   34.70
   3   1   8 1042.90   29.70
  -3   1  -8 1018.40   42.20
   4  -1   8  220.98   17.50
  -4  -1  -8  228.48   21.60
   4   1   8  237.28   16.10
  -4   1  -8  249.68   22.50
  -5  -1  -8  246.18   25.20
   5  -1   8  278.57   25.50
  -5   1  -8  347.97   52.99
   5   1   8  291.57   21.20
  -6  -1  -8   91.79   21.60
   6  -1   8   52.99   12.60
  -6   1  -8   51.29   17.20
   6   1   8   63.49   13.00
  -7  -1  -8  285.37   31.70
   7  -1   8  335.77   29.70
   7   1   8  305.27   28.00
  -7   1  -8  275.27   31.70
   8  -1   8   86.29   20.90
  -8  -1  -8   92.79   25.30
   8   1   8   63.49   18.90
  -8   1  -8   65.09   21.10
  -9  -2   8  312.47   36.00
  -9  -2   8  388.46   36.90
  -9   2   8  355.46   36.70
  -9   2   8  434.86   41.50
  -8  -2   8  101.39   24.00
  -8  -2   8  114.89   21.60
  -8   2   8   91.29   20.60
  -8   2   8  132.09   25.10
  -7  -2   8  240.38   27.50
  -7  -2   8  239.78   27.20
   7   2  -8  244.18   28.50
  -7   2   8  282.27   28.30
  -7   2   8  276.37   29.30
  -6  -2   8  206.98   23.60
  -6  -2   8  201.78   23.20
   6  -2  -8  229.18   24.90
  -6   2   8  229.98   23.30
   6   2  -8  256.57   26.10
  -6   2   8  222.78   24.60
  -5  -2   8  911.21   46.00
   5  -2  -8  912.41   46.10
  -5  -2   8  970.20   45.50
  -5   2   8  922.31   46.80
  -5   2   8  867.31   41.00
   5   2  -8  926.11   46.70
  -4  -2   8  356.26   24.90
   4  -2  -8  419.06   28.80
  -4  -2   8  419.96   28.80
   4   2  -8  401.96   27.70
  -4   2   8  387.96   27.70
  -4   2   8  390.06   23.40
  -3  -2   8 1470.05   51.69
   3  -2  -8 1544.35   50.09
   3   2  -8 1444.36   50.39
  -3   2   8 1486.75   41.90
  -3   2   8 1504.55   51.69
  -2  -2   8  934.51   36.70
   2  -2  -8  921.21   32.20
  -2   2   8  952.90   35.40
   2   2  -8  926.31   35.20
  -2   2   8  892.51   24.30
   1  -2  -8 1113.09   26.80
  -1  -2   8 1132.89   37.20
   1   2  -8 1122.79   35.90
  -1   2   8 1127.89   34.00
   0  -2   8    7.80    4.40
   0   2  -8    2.70    2.80
   0   2   8    1.90    2.00
   0   2  -8    2.10    2.50
  -1  -2  -8 1670.43   38.10
   1  -2   8 1751.62   47.90
   1  -2   8 1675.53   42.30
  -1   2  -8 1578.54   34.00
  -1   2  -8 1624.34   33.60
   2  -2   8  354.76   19.40
   2  -2   8  389.56   19.60
  -2  -2  -8  406.46   20.60
  -2   2  -8  377.06   23.20
   3  -2   8  299.67   19.30
  -3   2  -8  293.77   22.50
   3   2   8  263.87   12.60
  -4  -2  -8    6.70    6.30
   4  -2   8    4.60    4.60
   4   2   8    8.20    4.90
  -4   2  -8    3.20    5.90
  -5  -2  -8 1124.89   52.39
   5  -2   8 1090.19   46.80
  -5   2  -8 1101.09   27.30
  -5   2  -8 1063.59   54.19
   5   2   8 1117.09   41.50
   6  -2   8  333.17   27.90
  -6  -2  -8  290.67   29.30
  -6   2  -8  302.37   13.80
   6   2   8  323.67   24.80
  -6   2  -8  319.57   32.00
  -7  -2  -8  192.18   30.40
   7  -2   8  184.68   27.80
  -7   2  -8  200.58   32.00
   7   2   8  225.18   23.10
  -8  -2  -8   80.09   22.70
   8   2   8   80.79   19.10
  -8   2  -8   59.19   20.40
  -9  -3   8  563.44   48.30
  -9  -3   8  583.44   45.10
  -9   3   8  597.54   48.10
  -9   3   8  587.34   47.70
  -8  -3   8   23.50   12.40
  -8  -3   8   20.10   11.60
  -8   3   8   27.80   12.00
  -8   3   8    9.70    9.30
  -7  -3   8 1182.98   59.19
  -7  -3   8 1187.28   61.29
   7   3  -8 1120.99   59.09
  -7   3   8 1182.18   61.09
  -7   3   8 1206.18   58.79
  -6  -3   8  246.38   26.10
   6  -3  -8  227.98   24.70
  -6  -3   8  228.08   24.80
  -6   3   8  259.37   26.40
  -6   3   8  237.68   23.70
   6   3  -8  268.97   26.70
  -5  -3   8 2025.90   72.09
  -5  -3   8 2094.69   72.19
   5  -3  -8 2094.39   72.99
   5   3  -8 2089.69   74.09
  -5   3   8 2089.49   66.49
  -5   3   8 2072.39   74.09
   4  -3  -8   46.60   11.90
  -4  -3   8   27.20   10.60
  -4   3   8   38.70   12.20
   4   3  -8   29.60    9.20
  -4   3   8   29.00    8.50
   3  -3  -8 1773.52   54.79
  -3  -3   8 1776.32   58.29
  -3   3   8 1750.62   46.20
   3   3  -8 1704.93   56.59
  -3   3   8 1709.33   56.69
   2  -3  -8  358.96   20.00
  -2  -3   8  409.46   24.20
   2   3  -8  360.06   22.00
  -2   3   8  346.17   13.50
  -2   3   8  365.26   21.70
   1  -3  -8 2490.55   46.40
  -1  -3   8 2509.05   63.19
  -1   3   8 2465.05   57.09
   1   3  -8 2440.06   66.69
   1   3  -8 2483.95   60.59
   0  -3   8    0.80    3.30
   0   3   8    2.60    2.30
   0   3  -8    0.80    3.00
   0   3  -8    2.70    3.20
  -1  -3  -8 2164.88   45.30
   1  -3   8 2090.49   52.99
   1  -3   8 2276.17   61.19
  -1   3  -8 2124.79   47.40
  -1   3  -8 2099.29   49.10
   2  -3   8  184.98   15.00
   2  -3   8  191.38   15.60
  -2  -3  -8  177.18   13.90
  -2   3  -8  172.68   19.30
  -2   3  -8  182.08   11.20
  -2   3  -8  174.48   10.60
  -3  -3  -8 3606.94   99.69
   3  -3   8 3844.32   88.59
  -3   3  -8 3769.82   71.79
  -3   3  -8 3840.32   97.29
   3   3   8 3827.82   66.99
  -3   3  -8 3675.13   70.19
   4  -3   8    7.50    5.40
  -4  -3  -8    7.70    6.70
   4   3   8    0.80    3.40
  -4   3  -8    1.90    3.40
  -4   3  -8    3.80    5.10
  -4   3  -8    5.20    3.70
   5  -3   8  922.11   44.00
  -5  -3  -8  835.32   45.50
   5   3   8  880.11   35.50
  -5   3  -8  906.31   32.30
  -5   3  -8  875.61   29.30
  -5   3  -8  808.02   47.40
   6  -3   8   14.90    8.40
  -6  -3  -8   10.40    9.10
  -6   3  -8   19.70    6.10
   6   3   8   20.80    8.20
  -6   3  -8   23.60    6.60
  -6   3  -8   11.20    9.10
  -7  -3  -8 2282.27   91.89
   7   3   8 2334.07   77.99
  -7   3  -8 2298.07   95.99
  -7   3  -8 2331.27   56.59
  -7   3  -8 2337.87   56.19
  -8  -3  -8   67.19   19.60
   8   3   8   54.79   14.30
  -8   3  -8   45.30    8.20
  -8   3  -8   38.80    7.90
  -8   3  -8   26.10   13.60
  -9  -4   8   13.00    7.90
  -9  -4   8   18.10   13.40
  -9   4   8    1.70    9.20
  -9   4   8   -3.10    6.90
  -8  -4   8   10.00    9.50
  -8  -4   8   10.40   10.30
  -8   4   8   26.40   13.10
  -8   4   8   13.20   11.00
  -7  -4   8  385.06   35.40
  -7  -4   8  389.46   34.20
   7  -4  -8  330.77   33.80
  -7   4   8  269.77   29.80
  -7   4   8  405.86   33.80
   7   4  -8  387.26   34.70
   6  -4  -8 1182.28   58.19
  -6  -4   8 1311.97   58.79
  -6  -4   8 1175.78   58.29
  -6   4   8 1204.08   59.09
  -6   4   8 1261.97   55.19
  -5  -4   8   15.70    8.50
   5  -4  -8   17.40    8.60
  -5  -4   8   -1.30    5.30
   5   4  -8   16.20    8.40
  -5   4   8    3.70    6.10
  -5   4   8    7.30    6.50
  -4  -4   8  153.48   22.40
  -4   4   8  150.58   22.10
   4   4  -8  133.09   19.10
  -4   4   8  141.79   14.50
   3  -4  -8  827.72   35.80
  -3  -4   8  860.21   39.40
  -3   4   8  790.12   29.10
   3   4  -8  814.02   38.00
  -2  -4   8 2132.19   64.59
   2  -4  -8 2260.67   56.39
   2   4  -8 2204.28   62.29
  -2   4   8 2054.39   59.09
  -2   4   8 2129.39   44.30
  -1  -4   8   74.79   12.10
   1   4  -8   89.99   12.90
   1   4  -8   79.29   13.60
  -1   4   8   92.89    9.90
   0  -4   8   99.79   13.20
   0   4   8  108.39    8.10
   0   4  -8  114.19   11.30
   0   4  -8  107.09   11.80
   1  -4   8  560.64   26.30
  -1  -4  -8  528.45   19.20
   1  -4   8  544.45   29.80
  -1   4  -8  542.85   24.20
  -1   4  -8  493.65   22.40
  -2  -4  -8 2065.89   53.39
   2  -4   8 2076.39   60.79
  -2   4  -8 2049.99   51.99
  -3  -4  -8   90.09   16.00
   3  -4   8   71.89   12.70
   3   4   8   59.19    5.80
  -3   4  -8   70.79   10.30
  -3   4  -8   68.29   11.00
  -3   4  -8   68.79   15.50
   4  -4   8  175.28   18.40
  -4  -4  -8  186.08   25.70
  -4   4  -8  176.08   25.50
   4   4   8  161.98   12.30
  -4   4  -8  175.98   14.00
  -4   4  -8  163.98   13.30
   5  -4   8  181.18   25.00
  -5  -4  -8  215.58   22.90
  -5   4  -8  159.78   26.10
  -5   4  -8  180.28   14.00
   5   4   8  160.78   15.00
  -5   4  -8  185.18   15.00
  -6  -4  -8  823.52   49.10
   6  -4   8  868.51   47.10
  -6   4  -8  835.22   33.50
   6   4   8  832.82   38.90
  -6   4  -8  796.02   31.70
  -6   4  -8  795.02   51.59
  -7  -4  -8   12.90   11.00
   7  -4   8   27.00   10.70
  -7   4  -8   21.80    7.40
  -7   4  -8   25.50    7.30
  -7   4  -8   18.90   11.90
   7   4   8   14.30    7.80
  -8  -4  -8  183.28   33.40
  -8   4  -8  220.48   39.30
  -8   4  -8  177.28   15.50
  -8   4  -8  191.48   16.60
   8   4   8  238.98   31.00
  -9  -5   8   43.60   14.00
  -9  -5   8   31.30   15.70
  -9   5   8   60.79   18.70
  -9   5   8   40.50   15.70
  -8  -5   8  683.43   46.80
  -8  -5   8  696.53   52.49
  -8   5   8  661.13   48.70
  -8   5   8  728.23   49.10
  -7  -5   8  472.45   37.00
   7  -5  -8  469.95   39.00
  -7   5   8  423.96   34.60
   7   5  -8  480.15   39.00
  -7   5   8  539.05   41.40
  -6  -5   8  225.28   24.70
   6  -5  -8  222.48   25.80
  -6   5   8  234.68   23.60
  -6   5   8  243.88   26.60
  -5  -5   8   85.49   15.40
   5  -5  -8   90.59   17.90
  -5   5   8  100.89   17.60
   5   5  -8   92.89   18.70
  -5   5   8   87.59   18.10
  -4  -5   8 1929.01   67.29
   4  -5  -8 2074.19   69.19
   4   5  -8 1973.40   68.49
  -4   5   8 1979.60   68.89
  -3  -5   8 1372.76   51.99
   3  -5  -8 1348.17   47.50
  -3   5   8 1332.27   50.89
   3   5  -8 1359.06   51.69
  -3   5   8 1299.77   39.90
   2  -5  -8   77.79   11.20
  -2  -5   8   53.99   10.00
  -2   5   8   81.79   13.60
   2   5  -8   76.49   13.00
  -2   5   8   67.39    6.80
   1  -5  -8   94.79    7.90
  -1  -5   8   85.99   14.30
  -1   5   8   91.69   10.30
   1   5  -8   94.69   16.30
   1   5  -8   81.09   11.80
   0  -5   8 1756.32   52.59
   0   5   8 1691.33   41.40
   0   5  -8 1823.52   56.09
   0   5  -8 1769.72   50.49
   1  -5   8 1459.95   47.70
   1  -5   8 1402.86   53.79
  -1   5  -8 1486.85   47.10
  -1   5  -8 1490.25   43.80
   2  -5   8   44.60   10.90
  -2  -5  -8   38.90    8.60
  -2   5  -8   38.40    8.00
  -2   5  -8   42.80    9.20
  -3  -5  -8  713.63   33.50
   3  -5   8  703.53   42.90
   3   5   8  738.43   21.50
  -3   5  -8  683.63   39.10
  -3   5  -8  725.43   29.00
  -3   5  -8  676.53   30.00
   4  -5   8  760.82   40.00
  -4  -5  -8  802.22   40.10
  -4   5  -8  774.92   31.20
  -4   5  -8  824.72   46.00
   4   5   8  823.82   28.70
  -4   5  -8  815.02   33.60
  -5  -5  -8  321.27   36.30
   5  -5   8  282.47   25.80
   5   5   8  298.37   20.20
  -5   5  -8  286.97   19.60
  -5   5  -8  314.17   31.00
  -6  -5  -8   65.29   18.40
   6  -5   8   83.59   17.90
  -6   5  -8   32.80   12.90
   6   5   8   67.79   13.70
  -6   5  -8   80.59   13.40
  -6   5  -8   76.79   13.10
   7  -5   8  433.36   36.80
  -7  -5  -8  463.55   39.90
   7   5   8  406.86   30.00
  -7   5  -8  465.25   42.70
  -7   5  -8  384.46   24.50
  -7   5  -8  421.16   25.90
  -8  -5  -8  534.05   46.20
  -8   5  -8  530.35   28.90
   8   5   8  539.35   38.90
  -8   5  -8  470.95   46.00
  -8  -6   8   49.70   14.90
  -8   6   8   59.19   18.50
  -8   6   8   83.29   20.50
  -7  -6   8  458.65   37.20
   7  -6  -8  416.46   37.30
  -7   6   8  433.36   35.40
  -7   6   8  305.37   49.40
  -6  -6   8  279.97   27.90
   6  -6  -8  310.57   29.20
  -6   6   8  337.57   28.70
  -6   6   8  359.06   33.00
  -5  -6   8  488.35   34.40
   5  -6  -8  463.35   33.90
   5   6  -8  502.15   35.90
  -5   6   8  473.35   30.50
  -5   6   8  456.05   34.70
  -4  -6   8  180.98   20.70
   4  -6  -8  191.28   20.10
   4   6  -8  132.19   19.90
  -4   6   8  138.89   14.80
  -4   6   8  159.88   23.20
   3  -6  -8  582.04   30.40
  -3  -6   8  609.74   34.50
  -3   6   8  623.84   34.50
  -3   6   8  552.24   25.50
   3   6  -8  527.05   32.40
   2  -6  -8  479.65   23.60
  -2  -6   8  476.25   29.10
  -2   6   8  509.75   20.30
   2   6  -8  506.85   29.40
  -2   6   8  519.75   28.70
  -1  -6   8  518.15   28.90
  -1   6   8  527.75   25.80
   1   6  -8  581.14   29.50
   0  -6   8   72.29   13.90
   0   6  -8   90.69   16.00
   0   6   8   75.29    8.60
   0   6  -8  105.19   12.20
   1  -6   8 1307.57   54.19
   1  -6   8 1221.28   47.70
   1   6   8 1230.88   33.00
  -1   6  -8 1268.77   42.80
  -1   6  -8 1294.37   46.70
   2  -6   8  130.89   23.70
  -2   6  -8  112.49   16.40
  -2   6  -8  110.29   15.10
   3  -6   8   65.69   14.40
  -3  -6  -8   70.49   13.50
  -3   6  -8   86.09   13.50
  -3   6  -8   79.59   17.50
  -3   6  -8   77.99   13.60
   3   6   8   84.19    8.10
   4  -6   8  226.08   22.80
  -4  -6  -8  215.18   21.20
   4   6   8  255.97   16.00
  -4   6  -8  232.38   19.70
  -4   6  -8  219.78   18.00
  -4   6  -8  244.68   35.20
  -5  -6  -8 1662.63   67.79
   5  -6   8 1755.22   68.69
  -5   6  -8 1639.04   53.29
  -5   6  -8 1712.53   56.09
   5   6   8 1673.53   51.59
  -5   6  -8 1705.53   74.39
  -6  -6  -8    4.50    7.70
   6  -6   8   18.40   10.80
   6   6   8   14.90    7.00
  -6   6  -8   12.60   11.60
  -6   6  -8   19.70    8.50
  -7  -6  -8   50.89   16.50
  -7   6  -8   64.19   12.90
  -7   6  -8   71.99   13.40
   7   6   8   79.79   16.20
  -7   6  -8   69.99   22.50
  -8  -6  -8   23.30   13.90
  -8   6  -8    5.10    7.60
  -8   6  -8   17.50    7.90
  -8   6  -8   32.60   15.50
   8   6   8    8.30    9.50
  -8  -7   8 1530.15   71.39
  -8   7   8 1509.05   76.99
  -8   7   8 1508.85   72.99
   7  -7  -8   88.19   20.60
  -7  -7   8   92.99   24.60
  -7   7   8   94.49   20.10
  -7   7   8   69.49   19.10
  -6  -7   8    5.30    7.20
   6  -7  -8    8.60    8.20
  -6   7   8   15.60   10.20
   5  -7  -8  638.94   39.80
  -5  -7   8  701.53   41.60
  -5   7   8  657.73   42.30
   5   7  -8  666.23   41.50
  -5   7   8  651.23   36.40
   4  -7  -8 2137.59   70.99
  -4  -7   8 2181.88   73.99
  -4   7   8 2135.89   75.39
  -4   7   8 2130.79   64.19
   4   7  -8 2207.98   75.59
  -3  -7   8    7.70    6.50
   3  -7  -8    5.30    4.90
  -3   7   8   10.90    5.70
  -3   7   8    6.90    6.50
   3   7  -8   14.10    7.40
   2  -7  -8   34.90    7.90
  -2  -7   8   29.50    9.60
  -2   7   8   24.20    8.50
   2   7  -8   27.10    8.80
  -2   7   8   50.69    8.80
  -1  -7   8  276.37   22.30
   1   7  -8  295.57   22.30
  -1   7   8  312.87   20.90
   1   7  -8  332.87   27.80
   0  -7   8 3842.42   94.69
   0   7   8 3848.11   82.59
   0   7  -8 3818.32   99.29
   0   7  -8 3892.81   91.69
   1  -7   8   61.39   13.80
   1  -7   8   29.30    9.90
  -1   7  -8   35.70    9.50
  -1   7  -8   34.30    9.30
   1   7   8   51.99    8.70
   2  -7   8  371.16   29.00
  -2   7  -8  347.07   24.80
  -2   7  -8  379.56   24.00
   3  -7   8   64.39   13.30
  -3  -7  -8   93.09   17.10
  -3   7  -8   90.99   16.00
  -3   7  -8   79.09   12.80
   3   7   8   85.09    9.40
   4  -7   8 3808.72  108.19
  -4  -7  -8 3783.22  102.19
  -4   7  -8 3877.81   96.79
  -4   7  -8 3822.62   92.19
  -4   7  -8 3815.62  115.89
   4   7   8 3927.21   82.69
  -5  -7  -8   -9.30    4.10
   5  -7   8    4.20    7.40
  -5   7  -8    5.60    6.00
  -5   7  -8    0.50    4.80
   5   7   8   -0.40    3.80
  -5   7  -8    2.80    7.40
   6  -7   8  403.16   34.40
  -6  -7  -8  398.16   34.60
  -6   7  -8  421.76   28.70
  -6   7  -8  360.36   26.00
   6   7   8  380.86   26.70
  -6   7  -8  346.07   36.50
  -7  -7  -8    8.40    9.30
  -7   7  -8   23.40    9.30
  -7   7  -8   35.00   15.60
   7   7   8   17.80    8.30
  -7   7  -8   23.90    8.30
  -8  -7  -8 1387.06   76.39
   8   7   8 1310.97   60.99
  -8   7  -8 1415.26   54.89
  -8   7  -8 1347.87   80.19
  -8   7  -8 1300.37   52.69
  -8  -8   8   72.99   19.70
  -8   8   8   70.79   19.30
  -8   8   8   74.39   20.00
  -7  -8   8   -8.10    5.40
  -7   8   8   -7.50    6.00
  -7   8   8   19.50   12.10
  -6  -8   8  717.73   45.00
  -6   8   8  701.33   42.60
  -6   8   8  695.33   47.60
  -5  -8   8  761.52   44.40
   5  -8  -8  671.33   41.30
  -5   8   8  766.92   47.00
  -5   8   8  696.43   38.90
  -4  -8   8  103.79   19.30
   4  -8  -8   84.69   16.30
  -4   8   8   64.79   13.20
   4   8  -8   87.29   17.90
  -4   8   8   72.59   15.60
  -3  -8   8    7.60    7.30
   3  -8  -8   21.70    7.30
  -3   8   8   18.30    8.00
   3   8  -8   25.90   11.10
  -3   8   8   24.50    7.30
   2  -8  -8 1811.52   54.19
  -2  -8   8 1821.22   63.89
  -2   8   8 1813.92   61.89
  -2   8   8 1835.92   50.89
   2   8  -8 1853.01   63.69
  -1  -8   8  338.07   25.70
   1   8  -8  357.06   25.70
  -1   8   8  382.66   24.50
   1   8  -8  381.06   30.60
   0  -8   8    6.60    6.00
   0   8   8   11.00    5.80
   0   8  -8    8.60    6.00
   1  -8   8   21.70    9.40
   1  -8   8    7.70    5.90
  -1   8  -8   24.90    8.70
   1   8   8   40.60    8.70
  -1   8  -8   14.00    7.20
   2  -8   8 2797.32   91.19
  -2   8  -8 2720.13   87.49
  -2   8  -8 2908.71   83.29
   2   8   8 2786.92   62.29
   3  -8   8   63.09   15.20
  -3   8  -8  108.99   17.40
  -3   8  -8   61.09   13.20
   3   8   8   90.69   11.70
  -4  -8  -8   65.59   16.00
   4  -8   8   61.39   15.80
  -4   8  -8   49.60   17.00
   4   8   8   62.49   10.80
  -4   8  -8   51.79   12.10
  -4   8  -8   48.00   12.70
  -5  -8  -8   17.60   10.40
   5  -8   8   18.50    9.60
  -5   8  -8   11.40    8.70
   5   8   8   14.30    7.90
  -5   8  -8   32.20   10.40
  -5   8  -8   18.30   12.30
   6  -8   8 1253.07   65.39
  -6  -8  -8 1294.57   65.19
  -6   8  -8 1257.97   70.89
  -6   8  -8 1372.66   54.19
   6   8   8 1377.16   52.69
  -6   8  -8 1368.76   55.69
  -7  -8  -8   61.59   17.30
  -7   8  -8   54.19   21.40
   7   8   8   63.99   16.10
  -7   8  -8   64.19   15.00
  -7   8  -8   61.79   14.10
  -8  -9   8  179.98   28.70
  -8   9   8  177.88   31.30
  -8   9   8  227.98   35.70
  -7  -9   8   50.19   15.30
  -7   9   8   41.70   15.10
  -7   9   8   31.40   14.60
  -6  -9   8   34.40   12.50
  -6   9   8   37.70   14.00
  -6   9   8   25.00   11.80
   5  -9  -8  106.29   19.30
  -5  -9   8  121.19   19.40
  -5   9   8  156.78   27.40
  -5   9   8  144.19   23.50
  -4  -9   8  364.76   30.00
   4  -9  -8  324.17   26.80
   4   9  -8  347.97   29.80
  -4   9   8  360.46   31.30
  -4   9   8  350.56   25.70
   3  -9  -8   97.19   15.60
  -3  -9   8   68.39   13.50
   3   9  -8   83.39   17.30
  -3   9   8   90.89   15.30
  -3   9   8  113.39   19.50
   2  -9  -8   29.90    9.10
  -2  -9   8   16.10    8.40
   2   9  -8   24.10   11.30
   2   9  -8   30.60   10.60
  -2   9   8   47.60   11.80
  -1  -9   8   13.30    8.40
  -1   9   8    4.60    5.80
   1   9  -8   -0.50    4.00
   1   9  -8    7.20    7.30
   0  -9   8  602.54   35.50
   0   9  -8  525.25   35.60
   0   9  -8  504.15   31.10
   0   9   8  537.45   28.60
   1   9   8    0.60    4.00
  -1   9  -8    3.40    6.00
  -1   9  -8   -2.00    3.50
   2  -9   8   15.70    8.90
  -2   9  -8   24.90    8.80
  -2   9  -8   22.00    8.40
   2   9   8   35.90    7.90
   3  -9   8   48.50   14.10
  -3   9  -8   71.19   14.20
  -3   9  -8   58.99   14.10
   3   9   8   63.99   10.60
   4  -9   8  291.37   28.60
  -4   9  -8  314.07   24.90
  -4   9  -8  307.17   32.60
   4   9   8  284.97   20.30
  -4   9  -8  286.57   26.00
  -5  -9  -8    7.90    8.30
   5  -9   8  -12.60    6.00
  -5   9  -8    2.50    6.80
   5   9   8    1.70    4.80
  -5   9  -8   11.10    7.20
  -5   9  -8    0.70    5.80
   6   9   8  132.89   19.40
  -6   9  -8   57.69   20.40
  -6   9  -8   76.99   16.20
  -6   9  -8  101.59   17.60
  -7  -9  -8   32.20   13.60
   7   9   8    0.60    8.30
  -7   9  -8   -2.00    8.90
  -7   9  -8   13.90   14.00
  -7   9  -8    5.30    9.20
  -8 -10   8   31.60   12.50
  -8  10   8   22.50   12.90
  -7 -10   8  251.27   28.90
  -7  10   8  195.58   34.30
   6 -10  -8 2086.29  119.79
  -6  10   8 2529.05   87.69
  -6  10   8 2445.16   96.69
   5 -10  -8   52.89   13.50
  -5 -10   8   47.60   14.90
  -5  10   8   74.19   17.80
  -5  10   8   40.80   13.70
   4 -10  -8   19.60    9.60
  -4 -10   8   20.20    9.80
  -4  10   8   41.60   13.20
  -4  10   8   23.50   10.40
   4  10  -8    9.00    5.70
   3 -10  -8  210.18   20.80
  -3 -10   8  195.78   22.70
   3  10  -8  154.78   21.70
  -3  10   8  231.58   25.20
  -3  10   8  196.08   19.10
  -2 -10   8 5010.30  123.29
   2 -10  -8 4686.53  108.09
  -2  10   8 4756.22  120.49
   2  10  -8 4554.54  133.09
   2  10  -8 4719.53  120.49
  -1 -10   8  374.66   29.60
   1  10  -8  426.26   34.60
  -1  10   8  464.45   30.00
   1  10  -8  376.66   28.80
   0 -10   8  193.28   21.90
   0  10  -8  133.79   20.70
   0  10   8  194.08   18.60
   0  10  -8  182.58   19.70
  -1  10  -8  202.38   27.40
   1  10   8  203.08   18.10
  -1  10  -8  164.88   19.10
   2 -10   8 4692.73  136.29
  -2  10  -8 4981.50  127.89
   2  10   8 4801.12  109.49
   2  10   8 4878.31  103.29
  -2  10  -8 4904.01  117.39
   3 -10   8  295.27   30.30
  -3  10  -8  297.27   24.90
  -3  10  -8  341.07   29.90
   3  10   8  313.67   21.30
  -4  10  -8  362.36   28.00
  -4  10  -8  352.96   35.90
   4  10   8  343.87   37.80
  -4  10  -8  358.46   30.20
   5 -10   8    1.20    8.30
  -5  10  -8    7.20    5.80
  -5  10  -8    2.40    6.20
  -5  10  -8   -8.40    5.40
   5  10   8   -2.70    5.20
  -6  10  -8 2466.65  106.59
  -6  10  -8 2412.66   80.69
   6  10   8 2418.06   77.39
  -6  10  -8 2492.55   85.59
  -7  10  -8   -7.80    6.80
   7  10   8   -2.30    8.20
  -7  10  -8    4.50   10.00
  -7 -11   8    6.60    7.90
  -7  11   8    9.00    9.40
  -7  11   8    7.50    9.00
   6 -11  -8   44.30   15.10
  -6 -11   8   48.60   15.40
  -6  11   8   46.60   15.30
  -6  11   8   48.10   16.30
  -5 -11   8  206.98   30.10
   5 -11  -8  136.49   22.30
  -5  11   8  139.79   24.20
  -5  11   8  168.58   26.60
   5  11  -8  181.88   36.40
  -4 -11   8 1108.59   55.59
   4 -11  -8 1113.19   53.29
  -4  11   8 1170.48   60.39
  -4  11   8 1130.59   50.99
   3 -11  -8  109.39   18.70
  -3 -11   8  134.89   23.20
  -3  11   8  121.69   20.80
  -3  11   8  138.79   21.00
  -2 -11   8  235.18   24.70
   2 -11  -8  198.28   19.00
  -2  11   8  192.28   22.20
   2  11  -8  200.18   32.20
   2  11  -8  199.28   22.90
  -1 -11   8  116.49   19.90
   1  11  -8  110.89   19.10
   1  11  -8   79.19   17.90
  -1  11   8  156.68   22.70
   0 -11   8 1062.29   51.99
   0  11  -8 1085.49   55.99
   0  11   8 1184.58   48.80
   0  11  -8 1210.88   52.59
   1  11   8   28.70    9.40
  -1  11  -8   27.60   10.70
  -1  11  -8   15.20    9.70
   2 -11   8   96.59   22.20
  -2  11  -8  100.29   20.30
   2  11   8   89.69   14.10
   2  11   8   88.99   15.90
  -2  11  -8  117.69   19.30
   3 -11   8  196.38   31.90
   3  11   8  209.28   29.50
  -3  11  -8  190.48   28.60
  -3  11  -8  220.28   22.30
   4 -11   8  679.13   48.60
  -4  11  -8  740.53   41.20
  -4  11  -8  634.54   42.40
  -4  11  -8  751.62   53.89
   4  11   8  708.43   35.80
  -5  11  -8    1.70    6.70
   5  11   8   18.10    8.30
  -5  11  -8   -7.80    8.70
  -5  11  -8   13.50    8.20
   6  11   8   49.90   12.70
  -6  11  -8   70.69   16.80
  -6  11  -8   58.29   20.20
  -7  11  -8   37.80   14.10
  -7  11  -8   54.79   15.70
   7  11   8   53.79   13.80
  -7  11  -8   56.89   21.20
  -7 -12   8    7.50    8.40
  -7  12   8   16.80   12.40
  -7  12   8    6.00    7.80
  -6 -12   8  412.06   36.10
   6 -12  -8  397.86   37.20
  -6  12   8  387.56   34.90
  -6  12   8  370.66   37.80
  -5 -12   8  326.67   51.09
   5 -12  -8  296.47   30.80
  -5  12   8  327.97   53.29
  -5  12   8  303.87   29.30
   4 -12  -8   86.29   17.60
  -4 -12   8   73.69   18.80
   4  12  -8   52.69   19.60
  -4  12   8   78.59   19.70
  -4  12   8   99.09   19.40
   3 -12  -8   77.49   16.70
  -3 -12   8   84.19   19.20
  -3  12   8   55.49   14.70
  -3  12   8   81.19   16.70
   3  12  -8  101.19   23.90
  -2 -12   8  666.63   42.30
   2  12  -8  686.73   48.60
  -2  12   8  720.23   43.80
  -1 -12   8  569.44   38.90
  -1  12   8  516.25   35.10
   1  12  -8  590.24   43.30
   1  12  -8  506.15   35.20
   0  12  -8   28.20   11.00
   0  12   8   40.50   12.50
   0  12  -8   29.50   10.60
   1  12   8  125.29   19.80
  -1  12  -8  109.39   19.80
  -1  12  -8  148.09   26.30
   1  12   8  106.29   17.00
   2  12   8  805.22   41.40
  -2  12  -8  796.22   43.70
   2  12   8  755.82   36.80
  -2  12  -8  761.32   47.40
   3 -12   8  314.07   32.70
  -3  12  -8  314.27   31.60
   3  12   8  304.87   23.70
  -3  12  -8  313.47   27.40
   4 -12   8    6.40   11.70
   4  12   8   44.90   11.40
  -4  12  -8   33.00   13.50
  -5  12  -8   71.79   20.90
   5  12   8  121.79   19.00
  -5  12  -8   94.89   19.30
  -6  12  -8  259.97   41.90
  -6  12  -8  271.57   36.00
  -6  12  -8  253.27   27.90
  -6 -13   8   34.20   13.90
  -6  13   8    1.00   11.00
  -5 -13   8  173.58   25.50
  -5  13   8  189.18   28.80
  -5  13   8  182.18   29.70
  -4 -13   8 1599.54   75.69
   4 -13  -8 1682.83   70.89
  -4  13   8 1623.34   76.59
  -4  13   8 1808.92   70.29
  -3 -13   8  159.48   26.40
   3 -13  -8  160.68   23.90
   3  13  -8  224.68   36.70
   3  13  -8  223.08   25.20
  -3  13   8  205.08   28.10
  -3  13   8  209.18   29.80
  -2 -13   8   26.20   11.20
  -2  13   8   20.40    9.80
   2  13  -8   23.30   14.20
  -1 -13   8   23.90   10.40
   1  13  -8   16.30    9.10
  -1  13   8   53.09   14.80
   0  13  -8 2669.83   98.09
   0  13   8 2716.73   86.59
   1  13   8   19.80    7.70
  -1  13  -8   15.00    9.90
   1  13   8   31.40   10.40
  -1  13  -8    4.60    5.50
  -2  13  -8   72.99   18.50
   2  13   8   85.19   15.80
   2  13   8   61.09   15.90
   3 -13   8    5.20   10.60
   3  13   8   25.50   10.30
  -3  13  -8   43.40   14.00
   3  13   8   33.50   11.20
  -4  13  -8 1638.14   71.49
   4  13   8 1594.84   61.99
  -4  13  -8 1709.03   76.19
   5  13   8  -12.50    7.20
  -5  13  -8  -12.20    4.60
  -5  13  -8    2.30    9.00
  -5  13  -8   12.30    8.20
  -6  13  -8  256.27   44.20
  -6  13  -8  360.66   35.30
   6  13   8  323.97   30.00
  -6 -14   8  347.77   35.50
  -6  14   8  328.17   34.10
  -6  14   8  247.28   39.60
  -5 -14   8  416.86   36.50
   5 -14  -8  368.56   36.70
  -5  14   8  399.76   34.40
  -5  14   8  305.37   43.30
   4 -14  -8   25.00   11.90
  -4 -14   8   18.30    9.40
   4  14  -8   15.40   12.70
  -4  14   8   32.70   13.20
   3 -14  -8  452.45   34.50
  -3 -14   8  564.74   55.79
  -3  14   8  416.36   37.90
   3  14  -8  476.45   49.20
  -2 -14   8  331.17   31.70
   2  14  -8  313.27   31.20
  -2  14   8  282.97   29.70
   2  14  -8  283.27   41.30
   1  14  -8  371.06   35.90
  -1  14   8  400.46   33.40
   1  14  -8  403.76   33.20
   0  14  -8  101.59   23.80
   0  14   8  105.09   19.70
   1  14   8  636.84   40.20
   1  14   8  779.42   41.40
  -1  14  -8  777.12   51.99
   2  14   8  131.49   22.70
   2  14   8  162.08   19.20
  -2  14  -8  156.48   25.90
  -2  14  -8  194.28   31.30
   3  14   8   89.89   16.80
   3  14   8   94.29   19.00
  -3  14  -8   84.59   21.20
  -3  14  -8  107.59   20.80
   4  14   8  116.39   20.10
  -4  14  -8  113.59   23.80
  -4  14  -8  125.09   26.00
   5  14   8  586.04   41.30
  -5  14  -8  643.84   47.70
  -5  14  -8  633.14   56.39
   5 -15  -8  174.08   28.40
  -5 -15   8  193.28   30.70
  -5  15   8  185.78   31.10
   4 -15  -8  267.27   33.60
  -4 -15   8  218.88   31.10
  -4  15   8  183.08   28.30
  -4  15   8  195.88   34.40
   4  15  -8  169.08   34.80
  -3 -15   8  540.65   41.80
  -3  15   8  493.15   42.80
   3  15  -8  545.15   48.80
  -2 -15   8   -3.40    5.90
  -2  15   8   14.30    8.70
   2  15  -8  -10.50    7.20
   1  15  -8  316.77   55.89
  -1  15   8  422.46   35.30
   0  15  -8  263.87   41.40
   0  15  -8  322.17   32.30
   0  15   8  286.97   28.80
   0  15   8  326.37   28.60
   1  15   8  414.06   31.30
  -1  15  -8  398.66   62.79
  -1  15  -8  456.95   37.40
   1  15   8  438.76   34.60
   2  15   8   31.70    8.70
  -2  15  -8   33.80   11.10
   2  15   8    9.10    9.00
   3  15   8  727.33   42.60
   3  15   8  682.83   45.20
  -3  15  -8  755.22   53.29
  -4  15  -8  361.46   37.90
   4  15   8  451.75   37.20
   4  15   8  358.76   32.30
  -5  15  -8   46.40   20.40
   5  15   8   24.10   14.60
  -5  15  -8   56.39   16.50
  -5 -16   8   17.00   11.30
   5  16  -8   -2.50    8.10
  -5  16   8    6.00    7.70
  -5  16   8   -0.40    9.10
  -4 -16   8    0.30    8.00
   4  16  -8    3.80   10.90
  -4  16   8    0.50    8.60
  -4  16   8    4.00    9.00
  -3 -16   8  118.69   23.80
   3  16  -8   68.89   18.70
  -3  16   8  129.69   28.50
  -2  16   8  714.53   49.50
   2  16  -8  702.23   54.29
   1  16  -8   -5.60    5.10
  -1  16   8    4.80    7.40
   0  16  -8    9.40    9.70
   0  16   8   42.90   13.30
   0  16   8   40.70   13.00
   1  16   8   40.40   13.50
   1  16   8   58.99   15.20
  -1  16  -8   32.60   13.50
   2  16   8  701.43   42.20
  -2  16  -8  648.34   49.99
   2  16   8  675.13   44.20
  -3  16  -8   11.40   10.60
   3  16   8  -10.00    8.10
   3  16   8    9.10    9.20
   4  16   8  119.99   25.10
   4  16   8   52.39   16.90
  -4  16  -8   31.50   15.10
  -4 -17   8   36.70   15.20
  -4  17   8   24.10   13.20
  -4  17   8   16.80   11.50
   4  17  -8   -3.60   10.10
   3  17  -8  501.95   48.30
  -3  17   8  436.16   42.70
   2  17  -8  137.89   28.70
  -2  17   8  127.29   27.30
   1  17  -8 1147.79   69.39
  -1  17   8 1150.08   65.69
   0  17  -8   13.60   10.60
   0  17   8    1.80    7.60
  -1  17  -8  379.76   39.70
   1  17   8  397.16   39.10
   1  17   8  409.36   36.40
   2  17   8   36.50   12.80
  -2  17  -8   13.70   13.00
   2  17   8   91.79   22.90
   3  17   8 1035.50   58.59
  -3  17  -8 1035.20   66.69
  -2  18   8   69.79   20.30
   2  18  -8  116.79   25.60
   1  18  -8  574.04   50.39
  -1  18   8  589.74   46.50
   0  18  -8  122.79   26.80
   0  18   8  159.28   26.20
  -1  18  -8  626.04   52.29
  -2  18  -8   66.49   21.00
  -9   0   9    4.70    8.80
  -9   0   9    9.70   10.10
  -8   0   9   -6.60    6.10
  -8   0   9   -8.30    5.20
  -7   0   9   -3.10    4.90
   7   0  -9  -14.00    6.50
  -7   0   9   -7.90    4.00
  -6   0   9   -4.80    3.90
  -6   0   9    0.10    6.50
   6   0  -9   -6.80    4.80
  -5   0   9   -1.80    4.50
  -5   0   9    5.10    6.10
   5   0  -9    6.70    5.50
  -4   0   9    4.40    4.90
  -4   0   9    0.80    5.60
   4   0  -9    1.90    3.70
  -3   0   9   -5.80    2.70
   3   0  -9    0.70    3.70
  -3   0   9    0.60    3.50
   2   0  -9   -2.40    2.80
  -2   0   9   -2.60    3.10
   1   0  -9    0.10    2.10
  -1   0   9    1.10    2.90
   0   0   9    3.50    3.00
  -1   0  -9   -1.10    2.90
   1   0   9    7.20    3.60
   1   0   9    3.80    2.60
  -2   0  -9    5.10    4.00
   2   0   9    9.30    3.60
  -3   0  -9   -4.40    3.90
   3   0   9    1.40    3.40
   4   0   9    2.20    3.80
  -4   0  -9   -5.80    3.90
   5   0   9   -2.50    4.20
  -6   0  -9   -0.10    6.80
   6   0   9   10.50    6.30
   7   0   9    3.90    5.60
  -7   0  -9   20.40   11.30
   8   0   9    9.40   11.00
  -8   0  -9    9.50   10.60
  -9  -1   9  376.56   39.30
  -9  -1   9  366.76   37.40
  -9   1   9  321.77   36.50
  -9   1   9  395.86   38.40
  -8  -1   9  204.18   28.50
  -8  -1   9  194.78   32.80
  -8   1   9  266.67   30.00
  -8   1   9  143.79   23.30
   7  -1  -9 2008.50   83.49
  -7  -1   9 2043.20   80.59
  -7  -1   9 1938.21   78.19
  -7   1   9 1855.21   78.09
   7   1  -9 1919.31   80.59
  -7   1   9 1906.81   75.79
  -6  -1   9  274.87   27.20
   6  -1  -9  287.67   28.20
  -6  -1   9  256.57   30.10
  -6   1   9  321.37   29.80
   6   1  -9  328.67   29.80
  -6   1   9  316.27   27.20
  -5  -1   9  236.28   21.90
  -5  -1   9  185.38   26.20
   5  -1  -9  213.88   22.40
  -5   1   9  198.18   22.30
  -5   1   9  237.78   20.90
   5   1  -9  244.68   23.80
  -4  -1   9  120.79   17.60
   4  -1  -9  129.49   28.40
  -4  -1   9  108.49   17.80
  -4   1   9  132.39   22.70
  -4   1   9  117.99   13.40
   4   1  -9  122.29   17.30
   3  -1  -9 4099.69   94.89
  -3  -1   9 4284.47  100.39
   3   1  -9 4012.00   95.59
  -3   1   9 4226.28  115.49
  -3   1   9 4146.08   84.89
  -2  -1   9  189.18   16.60
   2  -1  -9  200.58   14.80
  -2   1   9  174.18   15.50
   2   1  -9  201.98   15.60
   1  -1  -9  110.19    7.80
  -1  -1   9  125.19   12.10
   1   1  -9  141.09   12.50
  -1   1   9  116.39   11.00
   1   1  -9  110.89   10.00
   0  -1   9   50.89    8.20
   0   1  -9   50.59    4.70
   0   1   9   44.70    6.50
   0   1  -9   43.70    5.00
  -1  -1  -9 6472.65  110.09
   1  -1   9 6254.17  109.59
   1  -1   9 5914.11  122.89
  -1   1  -9 6624.54  118.79
   1   1   9 6180.48  100.19
   1   1   9 6286.97  102.69
  -2  -1  -9   40.60    9.10
   2  -1   9   44.90    8.20
   2  -1   9   37.80    7.10
   2   1   9   38.40    4.50
   2   1   9   39.30    4.70
  -2   1  -9   40.20    9.30
   3  -1   9  159.78   13.40
  -3  -1  -9  199.18   17.60
   3   1   9  149.09   10.70
  -3   1  -9  153.28   16.50
  -4  -1  -9  162.98   18.50
   4  -1   9  155.28   15.20
  -4   1  -9  176.18   19.80
   4   1   9  183.68   14.40
   5  -1   9 4112.29   99.89
  -5  -1  -9 3597.84  119.69
   5   1   9 4148.08   94.69
  -5   1  -9 3972.30  113.49
  -6  -1  -9    5.20    8.20
   6  -1   9    7.70    7.20
   6   1   9    3.00    5.60
  -6   1  -9    0.30    5.80
   7  -1   9   -2.20    6.10
  -7  -1  -9    3.50    8.90
  -7   1  -9    2.00    8.10
   7   1   9   -1.00    6.60
  -8  -1  -9   94.99   24.40
   8   1   9   90.49   20.50
  -8   1  -9  116.19   26.10
  -9  -2   9  918.11   61.19
  -9  -2   9  902.21   57.59
  -9   2   9  890.21   58.39
  -9   2   9  875.91   57.89
  -8  -2   9   -6.40    7.70
  -8  -2   9   -1.10    7.10
  -8   2   9    1.50    7.00
  -8   2   9    7.10    9.10
   7  -2  -9  467.75   39.70
  -7  -2   9  521.95   40.00
  -7  -2   9  550.44   40.70
   7   2  -9  540.65   40.90
  -7   2   9  529.35   38.00
  -7   2   9  533.15   41.40
  -6  -2   9  177.68   27.10
   6  -2  -9  158.28   23.70
  -6  -2   9  208.68   23.50
  -6   2   9  182.78   20.60
  -6   2   9  159.28   23.90
   6   2  -9  160.68   24.70
  -5  -2   9 2540.55   82.39
  -5  -2   9 2458.15   78.19
   5  -2  -9 2440.56   80.79
  -5   2   9 2461.75   82.09
  -5   2   9 2551.74   74.09
   5   2  -9 2388.16   80.29
  -4  -2   9   94.49   16.40
  -4   2   9  108.69   19.60
   4   2  -9   91.59   16.50
  -4   2   9  116.89   16.30
  -3  -2   9  295.47   22.90
   3  -2  -9  304.47   21.50
  -3   2   9  285.67   16.40
   3   2  -9  344.37   23.50
  -3   2   9  284.67   29.50
  -2  -2   9  887.61   36.80
   2  -2  -9  908.61   32.70
  -2   2   9  953.20   36.50
   2   2  -9  921.71   35.60
  -1  -2   9 4108.69   87.19
   1  -2  -9 3626.84   76.99
   1   2  -9 4098.19   82.49
  -1   2   9 4048.70   81.59
   1   2  -9 4100.29   89.09
   0  -2   9  208.48   14.50
   0   2  -9  197.68   11.50
   0   2   9  211.88   11.20
   0   2  -9  229.38   13.00
  -1  -2  -9   27.00    5.30
   1  -2   9   30.60    7.00
   1  -2   9   19.00    6.30
   2  -2   9  541.05   25.10
  -2  -2  -9  561.04   24.70
   2  -2   9  570.14   24.60
  -2   2  -9  593.44   29.60
   3  -2   9 3798.42   85.79
  -3  -2  -9 3692.53   88.99
   3   2   9 3752.92   69.19
  -3   2  -9 3935.21   97.19
   4  -2   9  353.96   23.30
  -4  -2  -9  332.57   25.40
   4   2   9  279.37   17.00
  -4   2  -9  348.97   27.70
  -5  -2  -9   62.69   15.80
   5  -2   9   52.89   12.40
  -5   2  -9   63.29   17.20
   5   2   9   48.70   10.50
   6  -2   9   13.80    8.30
  -6  -2  -9   26.90   11.80
  -6   2  -9   -1.10    7.00
   6   2   9   -5.70    5.10
   7  -2   9 1357.16   62.29
  -7  -2  -9 1376.16   70.39
   7   2   9 1372.26   58.09
  -7   2  -9 1343.77   70.49
  -8  -2  -9  156.78   33.80
  -8   2  -9  136.79   28.10
   8   2   9  157.58   25.60
  -9  -3   9  123.69   27.90
  -9  -3   9   99.19   24.80
  -9   3   9   63.49   19.20
  -9   3   9   95.09   22.20
  -8  -3   9   69.49   21.80
  -8  -3   9   57.29   17.20
  -8   3   9   52.69   15.50
  -8   3   9   25.30   12.40
  -7  -3   9    8.80    8.30
  -7  -3   9   12.00    9.60
   7  -3  -9    5.70    7.70
  -7   3   9   14.80    8.90
   7   3  -9    2.20    9.70
  -7   3   9   12.70    9.10
   6  -3  -9  590.64   39.70
  -6  -3   9  600.74   39.90
  -6  -3   9  611.34   40.50
  -6   3   9  542.85   39.20
  -6   3   9  583.34   36.20
  -5  -3   9  152.68   24.10
  -5  -3   9  142.29   22.90
   5  -3  -9  160.98   24.00
  -5   3   9  154.58   22.60
   5   3  -9  162.58   24.80
  -5   3   9  156.58   21.90
   4  -3  -9  125.19   27.80
  -4  -3   9   79.29   14.10
  -4   3   9   80.79   14.80
  -4   3   9  114.09   13.30
   4   3  -9  129.29   19.50
  -3  -3   9  463.35   29.00
   3  -3  -9  497.35   27.20
   3   3  -9  489.75   29.00
  -3   3   9  493.05   30.10
  -3   3   9  462.55   20.60
  -2  -3   9 1179.98   44.20
  -2   3   9 1192.68   42.10
  -2   3   9 1263.27   31.80
   2   3  -9 1215.38   43.20
  -1  -3   9   45.10    9.80
   1   3  -9   30.80    7.40
  -1   3   9   41.30    8.30
   1   3  -9   36.20    9.70
   0  -3   9  357.86   20.20
   0   3  -9  369.96   19.40
   0   3  -9  353.66   17.60
   0   3   9  353.26   14.60
   1  -3   9  255.07   16.80
   1  -3   9  233.58   18.70
  -1  -3  -9  266.57   12.30
  -1   3  -9  241.88   13.40
  -1   3  -9  235.48   12.60
  -2  -3  -9 1290.97   39.20
   2  -3   9 1236.88   41.20
   2  -3   9 1300.37   43.90
  -2   3  -9 1315.37   47.90
  -2   3  -9 1238.78   30.40
  -2   3  -9 1199.08   29.30
   3  -3   9    1.30    3.70
  -3  -3  -9    6.00    5.60
  -3   3  -9    0.40    2.10
  -3   3  -9    1.30    4.80
  -3   3  -9   -0.50    2.20
   3   3   9    4.20    2.30
   4  -3   9  389.46   28.50
  -4  -3  -9  416.86   29.00
   4   3   9  420.66   19.50
  -4   3  -9  460.75   33.00
  -4   3  -9  381.56   14.20
  -5  -3  -9  101.59   21.10
   5  -3   9  110.89   18.10
  -5   3  -9   74.49   18.50
   5   3   9   78.79   12.30
  -6  -3  -9  445.56   36.10
   6  -3   9  464.15   33.50
   6   3   9  467.15   28.70
  -6   3  -9  412.06   36.50
   7  -3   9   23.00   10.80
  -7  -3  -9   14.80   10.60
  -7   3  -9   17.30   11.50
   7   3   9   45.70   13.00
  -8  -3  -9  482.65   44.10
   8   3   9  438.46   35.60
  -8   3  -9  515.95   46.90
  -9  -4   9  810.22   54.29
  -9  -4   9  741.13   56.69
  -9   4   9  857.41   58.19
  -9   4   9  808.62   55.19
  -8  -4   9  218.08   36.50
  -8  -4   9  137.69   25.70
  -8   4   9  186.68   30.70
  -8   4   9  195.58   32.40
  -7  -4   9  483.95   40.40
  -7  -4   9  498.85   39.30
   7  -4  -9  490.65   38.50
  -7   4   9  436.96   34.90
   7   4  -9  531.65   41.10
  -7   4   9  486.55   40.70
  -6  -4   9    6.40    9.90
  -6  -4   9   16.10   10.10
   6  -4  -9    6.90    5.90
  -6   4   9    4.20    6.50
   6   4  -9   14.90    9.00
  -6   4   9   21.50    9.80
   5  -4  -9 2281.47   77.49
  -5  -4   9 2232.48   77.49
  -5   4   9 2242.88   68.69
   5   4  -9 2414.56   81.19
  -5   4   9 2220.38   78.99
  -4  -4   9  100.49   15.70
  -4   4   9  101.19   16.80
  -4   4   9  147.59   14.40
   4   4  -9  106.69   16.70
  -3  -4   9  359.56   26.20
   3  -4  -9  309.67   21.60
  -3   4   9  359.16   17.90
  -3   4   9  334.47   24.50
  -2  -4   9   39.20    9.10
   2  -4  -9   53.59   10.10
   2   4  -9   53.69   11.10
  -2   4   9   52.19    6.60
  -2   4   9   46.70    9.70
  -1  -4   9 4342.87   96.39
  -1   4   9 4306.77   88.39
   1   4  -9 4359.06  102.29
   1   4  -9 4279.57   92.89
   0  -4   9  515.55   25.80
   0   4  -9  510.85   23.40
   0   4  -9  513.45   25.50
   0   4   9  473.25   18.10
   1  -4   9  459.65   24.40
  -1  -4  -9  428.06   16.80
   1  -4   9  450.15   28.20
  -1   4  -9  457.15   21.80
  -2  -4  -9   33.80    7.90
   2  -4   9   43.50    9.80
   2  -4   9   22.80    7.50
  -2   4  -9   24.40    5.70
  -2   4  -9   30.50    6.70
   3  -4   9 2404.46   70.09
  -3  -4  -9 2323.37   65.79
  -3   4  -9 2328.17   52.99
  -3   4  -9 2430.76   55.29
  -3   4  -9 2369.56   75.99
  -4  -4  -9  290.57   24.10
   4  -4   9  310.77   24.30
  -4   4  -9  294.27   16.30
   4   4   9  299.37   16.30
  -4   4  -9  303.27   16.20
  -4   4  -9  277.77   26.70
   5  -4   9   60.79   15.30
  -5  -4  -9   62.49   18.20
   5   4   9   58.29   11.30
  -5   4  -9   35.50   12.20
  -5   4  -9   52.39    8.70
   6  -4   9   21.50    9.00
  -6  -4  -9   20.80   11.20
   6   4   9   12.90    6.50
  -6   4  -9   17.80   11.10
  -6   4  -9   12.10    5.40
  -6   4  -9   24.00    7.40
  -7  -4  -9 1650.23   77.19
   7  -4   9 1721.03   73.99
   7   4   9 1724.73   64.29
  -7   4  -9 1699.83   62.79
  -7   4  -9 1586.44   79.49
  -7   4  -9 1718.33   44.60
  -8  -4  -9   10.20   12.50
  -8   4  -9    3.50    8.10
   8   4   9    4.10    9.40
  -8  -5   9  141.59   25.40
  -8  -5   9  205.58   36.50
  -8   5   9  159.88   27.80
  -8   5   9  135.89   24.50
   7  -5  -9  823.52   52.59
  -7   5   9  921.71   81.79
  -7   5   9  881.71   49.80
   6  -5  -9  929.51   51.39
  -6  -5   9  976.80   51.79
  -6   5   9  878.31   45.40
  -6   5   9  913.01   52.09
  -5  -5   9   13.30    7.40
   5  -5  -9   25.80   10.20
   5   5  -9   17.50    8.50
  -5   5   9   18.90    8.10
  -5   5   9   33.00   11.70
  -4  -5   9  437.16   31.30
   4  -5  -9  435.16   34.60
   4   5  -9  409.86   30.00
  -4   5   9  426.06   31.00
  -4   5   9  447.16   24.90
  -3  -5   9 1361.06   53.29
   3  -5  -9 1380.36   47.80
  -3   5   9 1371.66   52.59
   3   5  -9 1482.55   54.49
  -3   5   9 1354.76   39.20
  -2  -5   9  818.32   38.10
   2  -5  -9  752.62   37.10
  -2   5   9  753.42   34.10
   2   5  -9  766.62   35.70
  -2   5   9  758.42   21.30
   1   5  -9   48.00   10.00
   1   5  -9   57.49   12.80
  -1   5   9   49.99    9.20
   0  -5   9  307.97   21.20
   0   5  -9  295.47   20.80
   0   5  -9  311.87   19.80
   0   5   9  301.47   15.10
   1  -5   9 1446.96   55.79
   1  -5   9 1480.75   49.00
  -1   5  -9 1427.16   46.00
  -1   5  -9 1455.65   43.60
  -2  -5  -9  755.22   29.50
   2  -5   9  789.42   38.50
  -2   5  -9  719.83   30.10
  -2   5  -9  688.23   27.80
   3  -5   9    2.90    4.20
  -3  -5  -9   -3.90    4.00
  -3   5  -9    2.80    3.70
  -3   5  -9   10.30    7.10
   3   5   9    4.00    2.60
   4  -5   9  968.40   46.00
  -4  -5  -9  949.51   43.90
  -4   5  -9  950.70   33.40
  -4   5  -9  956.40   34.90
   4   5   9  903.01   29.70
   5  -5   9 1292.07   56.79
  -5  -5  -9 1416.76   92.89
  -5   5  -9 1251.07   62.79
  -5   5  -9 1221.48   41.20
   5   5   9 1159.98   40.80
  -5   5  -9 1267.87   40.40
   6  -5   9  323.77   29.90
  -6  -5  -9  369.06   33.40
  -6   5  -9  364.16   40.90
   6   5   9  361.16   24.60
  -6   5  -9  413.86   22.10
  -7  -5  -9    9.80    9.40
   7  -5   9   -3.20    9.90
  -7   5  -9   18.70    6.50
  -7   5  -9    2.30    6.00
   7   5   9   21.70    8.10
  -7   5  -9   15.90   10.90
  -8  -5  -9  274.97   41.30
   8   5   9  254.97   26.60
  -8   5  -9  299.77   19.60
  -8   5  -9  238.38   17.50
  -8   5  -9  237.58   37.90
  -8  -6   9 1672.73   76.19
  -8   6   9 1603.04   74.59
  -8   6   9 1643.04   79.99
   7  -6  -9  110.99   21.30
  -7  -6   9  138.59   25.80
  -7   6   9   94.19   19.60
  -7   6   9  101.39   21.20
  -6  -6   9   51.89   13.00
   6  -6  -9   63.19   14.30
  -6   6   9   44.50   13.70
  -6   6   9   47.30   14.10
  -5  -6   9   12.60    8.70
   5  -6  -9   25.50    9.40
   5   6  -9   10.70    7.40
  -5   6   9   24.40    8.80
  -5   6   9   15.20   10.10
   4  -6  -9 2097.49   68.69
  -4  -6   9 2155.58   73.39
  -4   6   9 2019.80   72.39
   4   6  -9 2152.88   73.79
  -4   6   9 2007.90   68.79
   3  -6  -9  132.79   14.50
  -3  -6   9   90.69   16.70
  -3   6   9  112.79   16.70
   3   6  -9  144.39   20.80
  -3   6   9  133.99   12.00
  -2  -6   9  566.74   32.50
  -2   6   9  529.05   29.60
  -2   6   9  544.65   19.60
  -1  -6   9    3.50    4.80
  -1   6   9   -0.20    3.40
   1   6  -9    6.10    5.50
   1   6  -9    4.10    5.70
   0  -6   9 1722.13   56.09
   0   6   9 1765.52   45.60
   0   6  -9 1887.81   60.39
   0   6  -9 1793.42   54.09
   1  -6   9  155.48   31.00
   1  -6   9  107.49   16.00
   1   6   9  108.19    8.40
  -1   6  -9  108.89   14.80
  -1   6  -9  102.69   15.20
   2  -6   9 1443.26   57.29
  -2   6  -9 1395.66   44.90
  -2   6  -9 1422.06   48.20
   3  -6   9  111.29   18.10
  -3  -6  -9  106.39   17.30
  -3   6  -9   95.69   14.80
  -3   6  -9   87.39   18.80
   3   6   9   90.09    7.90
  -3   6  -9   80.39   12.60
  -4  -6  -9 1121.99   48.90
   4  -6   9 1108.29   51.59
  -4   6  -9 1095.89   39.30
  -4   6  -9 1115.29   56.49
   4   6   9 1112.59   34.10
  -5  -6  -9   -7.00    6.30
   5  -6   9   16.50    8.40
  -5   6  -9   -0.80    4.40
  -5   6  -9    6.60    7.30
  -5   6  -9   -7.00    3.80
   5   6   9    3.20    3.50
   6  -6   9  685.03   55.39
  -6  -6  -9  816.62   49.70
   6   6   9  761.52   36.50
  -6   6  -9  832.92   36.20
  -6   6  -9  796.32   54.19
  -6   6  -9  776.02   33.80
  -7  -6  -9   57.39   18.00
  -7   6  -9   43.10   10.20
   7   6   9   43.70   12.50
  -7   6  -9   59.39   11.60
  -7   6  -9   48.80   17.40
  -8  -6  -9  593.44   49.10
   8   6   9  444.86   35.90
  -8   6  -9  522.05   28.70
  -8   6  -9  622.74   53.69
  -8   6  -9  619.44   30.60
  -8  -7   9    2.50    9.30
  -8   7   9    6.30    9.10
  -8   7   9   25.30   12.20
   7  -7  -9  218.98   33.30
  -7  -7   9  190.08   29.80
  -7   7   9  187.28   31.80
  -7   7   9  209.78   30.10
  -6  -7   9  161.28   27.40
   6  -7  -9  152.58   26.40
  -6   7   9  123.69   21.80
   6   7  -9  128.69   22.30
  -6   7   9  152.48   23.50
  -5  -7   9  118.39   22.10
   5  -7  -9  114.29   18.70
  -5   7   9  146.59   21.80
  -5   7   9  101.49   19.00
   4  -7  -9   38.80   10.10
  -4  -7   9   53.79   14.10
   4   7  -9   39.20   11.30
  -4   7   9   45.60   11.30
  -4   7   9   45.60   13.60
  -3  -7   9  376.06   29.20
   3  -7  -9  473.25   27.10
  -3   7   9  409.36   29.20
  -3   7   9  411.56   21.90
   3   7  -9  413.86   29.70
  -2  -7   9   58.29   13.40
   2  -7  -9   49.99    9.60
  -2   7   9   68.49    9.50
  -2   7   9   51.59   11.50
   2   7  -9   56.19   12.90
  -1  -7   9   14.20    6.70
  -1   7   9   22.90    7.40
   1   7  -9   18.40    8.80
   1   7  -9   20.80   10.30
   0  -7   9  103.39   15.10
   0   7   9  124.09   11.60
   0   7  -9  142.09   15.60
   0   7  -9  119.59   18.00
   1  -7   9  553.24   32.30
   1  -7   9  544.45   36.70
   1   7   9  550.34   22.40
  -1   7  -9  579.64   32.40
  -1   7  -9  578.94   29.50
   2  -7   9  450.95   33.10
  -2   7  -9  377.36   25.50
  -2   7  -9  424.66   25.00
   3  -7   9   34.50   10.60
  -3  -7  -9   51.79   12.40
   3   7   9   57.79    8.50
  -3   7  -9   52.69   11.80
  -3   7  -9   47.40   10.50
   4  -7   9  194.68   22.10
  -4  -7  -9  212.88   21.60
  -4   7  -9  196.98   31.30
  -4   7  -9  167.68   17.30
  -4   7  -9  144.69   15.80
   4   7   9  193.98   14.30
   5  -7   9  654.53   42.50
  -5  -7  -9  597.94   39.30
   5   7   9  627.04   29.60
  -5   7  -9  570.74   43.80
  -5   7  -9  606.24   32.70
  -5   7  -9  544.35   33.60
  -6  -7  -9  192.28   29.60
   6  -7   9  168.88   26.90
  -6   7  -9  167.78   17.20
   6   7   9  172.98   17.60
  -6   7  -9  160.48   18.20
  -6   7  -9  166.28   31.10
  -7  -7  -9    4.30    8.10
   7   7   9    7.80    7.60
  -7   7  -9   11.20    6.00
  -7   7  -9    6.20    6.60
  -8  -8   9  797.42   52.59
  -8   8   9  829.52   57.89
  -8   8   9  937.91   56.49
  -7  -8   9    7.10    9.20
  -7   8   9    9.90    8.80
  -7   8   9   -2.80    9.20
  -6  -8   9  527.45   39.40
   6   8  -9  475.45   39.50
  -6   8   9  509.85   36.20
  -6   8   9  558.84   42.70
  -5  -8   9  164.88   24.40
   5  -8  -9  160.58   22.40
  -5   8   9  130.69   20.70
  -5   8   9  178.88   19.70
   4  -8  -9 2030.30   69.29
  -4  -8   9 2129.59   75.39
   4   8  -9 2002.00   74.29
  -4   8   9 2003.50   61.89
  -4   8   9 2004.40   75.29
  -3  -8   9   -0.50    5.60
   3  -8  -9   18.00    6.90
  -3   8   9    0.20    5.60
  -3   8   9    0.40    4.80
   3   8  -9   -1.20    4.30
  -2  -8   9 1108.09   49.50
   2  -8  -9 1143.09   39.60
  -2   8   9 1119.99   47.30
   2   8  -9 1179.98   49.99
   2   8  -9 1097.19   55.59
  -2   8   9 1142.19   36.20
  -1  -8   9  371.06   27.70
   1   8  -9  402.26   27.10
   1   8  -9  376.46   30.40
  -1   8   9  375.06   24.10
   0  -8   9 1477.65   55.69
   0   8  -9 1398.66   51.79
   0   8  -9 1418.06   57.09
   0   8   9 1322.47   43.80
   1  -8   9   -5.20    5.20
   1   8   9    0.80    3.40
  -1   8  -9    3.80    6.70
  -1   8  -9    2.10    4.50
   2  -8   9  425.66   34.00
  -2   8  -9  451.25   30.10
  -2   8  -9  390.96   30.50
   3  -8   9   92.49   17.40
  -3   8  -9  130.89   19.20
  -3   8  -9  131.69   21.80
   3   8   9  126.69   11.60
   4  -8   9 1407.56   64.49
  -4  -8  -9 1468.65   59.09
  -4   8  -9 1483.55   53.09
  -4   8  -9 1425.06   69.19
   4   8   9 1494.55   44.80
  -4   8  -9 1479.55   55.89
  -5  -8  -9   18.90   10.30
   5   8   9   20.40    8.50
  -5   8  -9   17.40    8.90
  -5   8  -9   10.70    8.00
   6  -8   9  886.41   56.19
  -6  -8  -9 1039.40   57.69
  -6   8  -9 1014.00   63.59
  -6   8  -9 1026.30   46.00
   6   8   9  979.90   43.00
  -6   8  -9  955.50   43.20
  -7  -8  -9   86.99   23.70
  -7   8  -9   49.90   12.90
  -7   8  -9   38.70   11.40
  -7   8  -9   52.79   17.40
   7   8   9   78.79   15.70
  -8  -9   9  216.98   31.50
  -8   9   9  226.68   34.20
  -8   9   9  229.18   36.90
  -7  -9   9   -1.80    6.50
  -7   9   9   14.30   10.70
  -7   9   9   22.10   11.70
  -6   9   9 1835.62  104.69
  -6   9   9 1868.71   72.09
  -5  -9   9  126.29   23.50
   5  -9  -9  103.09   19.10
   5   9  -9  108.69   35.60
  -5   9   9  105.09   20.60
  -5   9   9   87.39   17.60
   4  -9  -9  755.12   40.70
  -4  -9   9  715.83   43.20
   4   9  -9  764.42   45.00
  -4   9   9  787.42   37.30
  -4   9   9  659.13   42.40
   3  -9  -9    5.00    5.50
  -3  -9   9    6.30    6.70
   3   9  -9   14.50    8.00
  -3   9   9    5.00    5.60
  -3   9   9    8.80    7.00
  -2  -9   9 3196.38   94.19
   2  -9  -9 3258.57   79.49
   2   9  -9 3349.86  106.99
  -2   9   9 3292.67   76.29
   2   9  -9 3412.16   95.39
  -2   9   9 3369.06   92.79
  -1  -9   9   14.80    7.70
  -1   9   9   20.90    7.90
   1   9  -9   17.40    8.40
   1   9  -9   23.90   11.60
   0  -9   9 1205.38   52.29
   0   9   9 1109.49   42.20
   0   9  -9 1224.68   49.40
   0   9  -9 1174.58   53.69
   1  -9   9    7.20    7.10
  -1   9  -9    5.40    4.50
   1   9   9   14.80    5.90
  -1   9  -9   10.20    6.60
   2  -9   9 3223.08  105.49
   2   9   9 3128.99   70.99
  -2   9  -9 3209.88   92.89
  -2   9  -9 3131.99   85.69
   3  -9   9   16.30    8.20
   3   9   9    8.00    5.50
  -3   9  -9    5.70    5.90
  -3   9  -9    2.50    5.00
   4  -9   9 1427.46   67.09
   4   9   9 1413.16   45.90
  -4   9  -9 1322.07   55.79
  -4   9  -9 1266.47   66.89
  -4   9  -9 1377.56   53.49
   5  -9   9   -6.50    6.80
  -5   9  -9    2.20    5.90
   5   9   9   17.50    7.20
  -5   9  -9   15.80    6.70
  -5   9  -9   23.20   13.70
  -6  -9  -9 1367.46   78.39
  -6   9  -9 1540.55   60.29
  -6   9  -9 1441.56   78.69
   6   9   9 1494.35   55.79
  -6   9  -9 1455.45   56.59
  -7  -9  -9   12.00   12.10
  -7   9  -9   -9.30    6.30
  -7   9  -9    7.50   11.70
  -7   9  -9   16.00    7.40
   7   9   9   -4.90    8.50
  -7 -10   9    9.20    9.90
  -7  10   9   29.50   12.20
  -7  10   9   25.30   11.00
  -6 -10   9    7.70    8.50
  -6  10   9   23.90   11.40
  -6  10   9   -4.50    8.40
  -5 -10   9   -5.80    3.90
   5 -10  -9    9.30    6.60
   5  10  -9    4.00    8.30
  -5  10   9   -1.40    6.30
  -5  10   9    4.10    6.50
   4 -10  -9   18.50    9.30
  -4 -10   9   19.60    9.80
  -4  10   9   41.90   11.80
  -4  10   9   31.30   12.20
   3 -10  -9   67.99   14.00
  -3 -10   9   80.39   17.90
   3  10  -9   63.69   15.00
  -3  10   9   48.20   13.50
  -3  10   9   63.99   13.10
  -2 -10   9   93.49   17.10
   2 -10  -9  137.49   15.00
  -2  10   9  140.79   22.10
   2  10  -9  162.18   24.50
   2  10  -9  148.89   24.40
  -1 -10   9  177.08   25.70
   1  10  -9  115.49   21.10
  -1  10   9  160.48   18.10
   1  10  -9  138.29   19.90
   0 -10   9  113.39   20.20
   0  10   9  108.69   16.30
   0  10  -9  120.79   20.00
   0  10  -9  114.99   20.30
   1  10   9   22.50    7.50
  -1  10  -9   -1.20    4.30
  -1  10  -9   11.40    7.80
   2 -10   9   33.60   12.70
  -2  10  -9   65.09   15.90
  -2  10  -9   56.39   13.20
   2  10   9   63.49   12.20
   2  10   9   62.09   10.70
   3 -10   9   39.30   13.40
  -3  10  -9   13.50    6.80
   3  10   9   16.50    7.20
  -3  10  -9    7.70    7.60
   4 -10   9   71.89   17.60
  -4  10  -9   62.19   14.50
  -4  10  -9   43.00   12.30
   4  10   9   56.09   12.30
   5 -10   9   18.80   11.00
   5  10   9   16.80    6.30
  -5  10  -9   -3.10    7.80
  -5  10  -9    6.60    6.60
  -5  10  -9    9.10    6.90
  -6  10  -9    2.90    7.00
  -6  10  -9   -3.20    6.30
   6  10   9   -4.00    5.90
  -7  10  -9    1.50    8.00
   7  10   9   -7.90    8.70
  -7  10  -9    4.40   10.90
  -7  10  -9   19.70   10.00
  -7 -11   9   32.70   14.80
  -7  11   9   21.90   11.60
  -7  11   9   42.40   14.20
   6 -11  -9 1593.64   73.09
  -6 -11   9 1589.74   72.59
  -6  11   9 1619.54   68.59
  -6  11   9 1498.65   77.09
   5 -11  -9   37.00   12.90
  -5  11   9   26.70   11.90
  -5  11   9   41.80   15.60
  -4 -11   9  488.45   37.50
   4 -11  -9  534.85   36.10
   4  11  -9  458.15   37.30
  -4  11   9  507.35   38.90
  -4  11   9  562.84   34.00
  -3 -11   9    3.90    7.40
   3 -11  -9   22.80    9.40
  -3  11   9   16.70    8.00
  -3  11   9   22.30   10.40
   3  11  -9   13.00   11.70
   3  11  -9   18.00   10.50
  -2 -11   9 2280.97   80.39
  -2  11   9 2225.08   78.19
   2  11  -9 2331.57   91.29
   2  11  -9 2134.59   76.99
  -1 -11   9  119.49   21.70
   1  11  -9  113.39   18.80
   1  11  -9   80.59   18.10
  -1  11   9  105.39   18.60
   0 -11   9  637.24   40.10
   0  11  -9  680.43   43.90
   0  11   9  652.53   35.80
   0  11  -9  670.33   39.10
   1  11   9   16.40    7.10
  -1  11  -9   -0.20    6.90
  -1  11  -9   12.10    7.30
   2 -11   9 1764.32   80.79
   2  11   9 1784.52   55.49
  -2  11  -9 1786.82   72.29
  -2  11  -9 1826.02   66.39
   2  11   9 1739.13   59.49
   3 -11   9   -5.60    8.10
  -3  11  -9   -2.20    5.50
   3  11   9   16.60    7.60
  -3  11  -9    4.20    6.30
   4 -11   9  712.23   49.70
  -4  11  -9  724.73   44.40
  -4  11  -9  727.23   53.79
  -4  11  -9  772.72   42.20
   4  11   9  709.23   35.20
  -5  11  -9   35.70   13.90
   5  11   9   70.69   13.70
  -5  11  -9   38.80   18.10
  -5  11  -9   59.99   14.50
  -6  11  -9  806.12   47.60
  -6  11  -9  947.81   65.99
   6  11   9  781.72   42.50
  -7 -12   9   57.09   16.80
  -7  12   9   31.90   14.60
  -7  12   9   26.70   14.40
  -6 -12   9  372.16   34.80
   6 -12  -9  378.46   35.10
  -6  12   9  381.16   33.30
  -6  12   9  414.16   40.30
   5 -12  -9  231.88   25.50
  -5 -12   9  178.28   28.60
  -5  12   9  207.78   24.30
  -5  12   9  229.98   37.70
  -4 -12   9 2078.89   81.79
   4 -12  -9 2015.20   75.39
  -4  12   9 2056.69   84.89
  -4  12   9 2056.19   71.49
   4  12  -9 2012.20   81.99
   3 -12  -9   78.19   16.40
  -3 -12   9   68.49   15.80
   3  12  -9   81.39   22.70
  -3  12   9  101.89   20.70
  -3  12   9   92.39   18.20
  -2 -12   9  420.56   34.00
   2  12  -9  427.86   39.30
  -2  12   9  448.76   34.40
  -1 -12   9    5.80    6.30
   1  12  -9   15.40    7.80
  -1  12   9    6.60    7.50
   1  12  -9   -7.80    6.50
   0 -12   9 1631.24   67.89
   0  12  -9 1623.34   65.59
   0  12  -9 1519.45   69.69
   0  12   9 1586.14   60.09
  -1  12  -9    2.80    5.10
  -1  12  -9    1.20    5.70
   1  12   9    1.60    4.60
  -2  12  -9  524.45   39.40
  -2  12  -9  448.66   32.80
   2  12   9  485.05   28.60
   2  12   9  502.15   32.00
   3 -12   9   64.69   19.20
  -3  12  -9   84.99   19.50
   3  12   9  108.99   19.60
  -3  12  -9   91.39   16.30
   3  12   9   52.79   12.10
  -4  12  -9  998.30   54.79
  -4  12  -9 1014.50   65.59
   4  12   9  924.81   43.20
  -5  12  -9   10.10    9.60
  -5  12  -9   26.50   10.30
   5  12   9   25.10    9.90
  -6  12  -9  752.12   60.69
   6  12   9  717.33   40.90
  -6  12  -9  695.83   55.29
  -6  12  -9  687.73   42.50
  -6 -13   9   -3.80    7.70
  -6  13   9    8.50   10.60
  -5 -13   9   86.69   19.40
  -5  13   9  105.19   21.50
  -5  13   9   94.59   20.90
  -4 -13   9    0.60    7.70
   4 -13  -9    6.30    7.90
  -4  13   9   -2.40    7.20
  -4  13   9    5.20    7.30
  -3 -13   9  586.94   41.90
   3 -13  -9  569.14   36.90
   3  13  -9  638.24   44.60
  -3  13   9  605.74   43.60
   3  13  -9  647.44   51.49
  -3  13   9  660.43   38.20
  -2 -13   9   -6.40    5.20
  -2  13   9   -1.90    5.20
   2  13  -9   -2.40    5.90
   2  13  -9   -2.20    6.40
  -1 -13   9   90.49   20.70
  -1  13   9  111.59   20.70
   1  13  -9  132.79   25.90
   0  13   9    7.30    6.30
   0  13  -9    9.50   10.20
   1  13   9  789.12   39.80
   1  13   9  840.12   43.20
  -1  13  -9  794.72   50.69
   2  13   9    0.20    4.90
  -2  13  -9   -4.40    6.30
   2  13   9    7.00    6.30
  -3  13  -9    4.70    9.40
   3  13   9   18.90    9.10
   3  13   9    8.10    7.00
  -4  13  -9   -4.30    7.70
  -4  13  -9    4.60    8.10
   4  13   9    6.30    6.80
  -5  13  -9  641.94   47.40
  -5  13  -9  614.24   40.50
   5  13   9  666.83   39.40
  -5  13  -9  628.54   55.59
  -6 -14   9   40.50   14.50
  -6  14   9   55.99   18.10
  -6  14   9   56.29   17.40
  -5 -14   9   56.59   16.30
  -5  14   9   71.89   22.60
  -5  14   9   75.69   19.20
   4 -14  -9  976.00   53.19
  -4 -14   9  979.20   56.79
  -4  14   9 1015.20   61.99
  -4  14   9  929.71   49.70
  -3 -14   9  124.69   23.10
   3  14  -9   81.09   20.20
  -3  14   9   75.49   18.40
  -3  14   9   89.49   17.90
  -2 -14   9  403.56   61.59
   2  14  -9  415.26   37.00
   2  14  -9  502.55   50.49
  -2  14   9  388.76   35.20
  -1 -14   9   70.19   17.20
   1  14  -9   65.49   17.20
  -1  14   9   46.40   14.90
   1  14  -9   60.79   15.80
   0  14   9  893.11   48.40
   0  14  -9  987.40   59.19
   0  14  -9  883.41   50.89
  -1  14  -9   20.80    9.80
  -1  14  -9   13.30   11.70
   1  14   9   12.00    8.80
   1  14   9   13.40    8.50
   2  14   9  453.95   31.40
  -2  14  -9  491.25   36.50
  -2  14  -9  474.35   40.50
   2  14   9  507.85   35.20
  -3  14  -9  284.27   41.30
  -3  14  -9  268.87   28.50
   3  14   9  346.27   27.30
   3  14   9  297.87   28.30
  -4  14  -9  702.43   54.29
   4  14   9  633.84   39.20
  -4  14  -9  766.22   50.79
   4  14   9  689.03   44.20
  -5  14  -9  -20.80    7.40
  -5  14  -9   23.50   11.70
   5  14   9  -29.10   11.10
  -5 -15   9   24.40   12.10
   5 -15  -9   23.80   14.00
  -5  15   9   17.40   11.80
   5  15  -9   26.70   11.90
  -5  15   9   61.39   19.10
   4 -15  -9   56.69   17.60
  -4 -15   9   92.69   21.20
   4  15  -9   48.70   17.70
  -4  15   9   70.69   18.40
  -4  15   9   41.50   17.00
  -3 -15   9  578.04   44.30
  -3  15   9  532.15   37.30
  -3  15   9  556.34   46.40
   3  15  -9  546.85   49.30
  -2 -15   9  555.34   43.30
   2  15  -9  537.35   46.10
  -2  15   9  526.95   42.30
   1  15  -9    8.40    8.20
  -1  15   9    8.20    8.30
   0  15  -9  408.96   40.00
   0  15   9  350.86   31.20
  -1  15  -9  547.95   44.20
   1  15   9  495.95   36.70
   1  15   9  518.45   34.80
  -2  15  -9  417.56   39.40
   2  15   9  366.86   29.90
   2  15   9  400.56   32.10
   3  15   9   34.00   12.00
   3  15   9   34.10   12.30
  -3  15  -9   45.70   16.50
  -4  15  -9  353.86   37.70
   4  15   9  422.86   43.80
   4  15   9  455.65   37.20
  -4 -16   9    5.70   11.50
  -4  16   9   11.80    8.80
  -4  16   9   16.00   12.30
   4  16  -9   21.50   12.50
  -3 -16   9  268.57   31.90
   3  16  -9  190.98   35.00
  -3  16   9  199.28   31.50
  -3  16   9  226.88   25.90
   2  16  -9   -5.10    6.90
  -2  16   9   11.50   12.30
  -1  16   9 1487.45   70.89
   1  16  -9 1593.04   80.59
   0  16   9   47.30   12.30
   0  16   9   59.89   16.30
   0  16  -9   39.20   16.20
   1  16   9   38.10   11.50
   1  16   9   27.70   11.80
  -1  16  -9   36.10   13.60
   2  16   9   17.00   11.20
   2  16   9   13.90    8.20
  -2  16  -9   11.90   10.40
  -3  16  -9 1289.67   73.09
   3  16   9 1299.07   59.69
   3  16   9 1333.67   64.09
   4  16   9   22.30   11.10
   4  16   9   36.80   12.80
  -4  16  -9   15.00   12.90
   3  17  -9  296.37   43.70
  -3  17   9  376.26   39.40
  -3  17   9  316.07   31.10
  -2  17   9  291.07   33.70
   2  17  -9  190.98   31.80
   1  17  -9   18.40   12.60
  -1  17   9   46.40   17.20
   0  17  -9   60.79   18.90
   0  17   9   88.09   20.80
   1  17   9  272.17   47.60
  -1  17  -9  294.87   44.40
   1  17   9  297.87   30.60
   2  17   9  307.77   30.80
  -2  17  -9  335.67   37.50
   2  17   9  290.27   42.10
   3  17   9    8.60    8.20
  -3  17  -9    4.00   11.10
  -2  18   9   28.20   17.20
   2  18  -9   17.70   13.90
  -1  18   9  813.92   54.59
   1  18  -9  752.82   58.39
   0  18   9   22.40   11.30
   0  18  -9    3.70    9.90
  -1  18  -9   -3.20   12.20
  -9   0  10   20.30   10.70
  -9   0  10    0.80    9.50
  -8   0  10  154.38   25.50
  -8   0  10  157.48   27.20
   7   0 -10 2699.73   98.19
  -7   0  10 2744.53   93.69
  -7   0  10 2652.53   98.09
  -6   0  10   41.60   13.20
   6   0 -10   28.20    9.30
  -6   0  10   48.40   14.40
   5   0 -10   65.89   15.60
  -5   0  10   79.89   17.90
  -5   0  10   82.29   16.00
  -4   0  10    1.00    5.00
   4   0 -10   10.60    7.60
  -4   0  10    7.80    6.80
   3   0 -10 5292.07  113.59
  -3   0  10 5080.89  116.69
   2   0 -10   68.19   10.60
  -2   0  10   47.60   10.30
   1   0 -10  658.43   23.80
   1   0 -10  657.83   22.10
  -1   0  10  690.23   28.30
   0   0 -10  439.26   16.90
   0   0  10  446.56   19.70
   1   0  10 4259.27   78.79
  -1   0 -10 4392.46   85.39
   1   0  10 4344.87   85.29
   2   0  10  290.27   14.20
   2   0  10  278.97   14.70
  -2   0 -10  275.97   18.60
   3   0  10  404.36   20.00
  -3   0 -10  448.46   27.30
   4   0  10  263.87   18.40
  -4   0 -10  256.27   23.60
  -5   0 -10 4818.72  126.59
   5   0  10 4786.02  115.19
   6   0  10  269.47   24.00
  -6   0 -10  292.67   29.90
  -7   0 -10  483.15   41.50
   7   0  10  439.16   33.70
   8   0  10  108.89   24.10
  -8   0 -10   85.99   22.60
  -9  -1  10  323.17   36.20
  -9  -1  10  377.66   38.40
  -9   1  10  314.67   35.30
  -9   1  10  301.97   34.20
  -8  -1  10   -9.70    4.80
  -8  -1  10    9.70    6.90
  -8   1  10   -3.70    5.20
  -7  -1  10    5.80    8.20
   7  -1 -10   13.90   10.30
  -7  -1  10    8.50    7.60
   7   1 -10   40.40   12.90
  -7   1  10   11.30    8.80
  -7   1  10   33.50   11.80
  -6  -1  10   35.90   11.40
   6  -1 -10   40.00   11.00
  -6  -1  10   35.00   13.30
   6   1 -10   37.20   12.00
  -6   1  10   63.59   15.80
  -6   1  10   51.59   15.70
  -5  -1  10  831.02   45.60
  -5  -1  10  873.61   42.50
   5  -1 -10  863.21   45.00
  -5   1  10  911.11   47.70
  -5   1  10  830.42   39.50
   5   1 -10  792.62   44.10
  -4  -1  10   99.19   18.40
   4  -1 -10   81.09   14.40
  -4   1  10   81.59   16.20
   4   1 -10   98.39   17.00
  -4   1  10   83.79   13.60
   3  -1 -10   -0.20    4.20
  -3  -1  10   10.20    6.70
   3   1 -10    8.10    5.00
  -3   1  10   -3.00    3.80
  -2  -1  10  417.96   25.00
   2  -1 -10  402.76   21.10
  -2   1  10  396.66   23.60
   2   1 -10  423.36   22.80
   1  -1 -10 1393.76   30.80
   1  -1 -10 1464.55   32.90
  -1  -1  10 1431.56   44.20
   1   1 -10 1399.76   41.60
   1   1 -10 1399.46   38.20
  -1   1  10 1433.26   42.30
   0  -1  10  346.57   18.50
   0   1  10  365.26   16.70
   1  -1  10   79.59   11.90
  -1  -1 -10   77.39    7.90
   1  -1  10   69.49    8.10
  -1   1 -10   85.89   12.80
   1   1  10   65.29    6.10
   1   1  10   78.79    7.50
   2  -1  10   87.69    9.90
   2  -1  10   91.39    9.80
  -2  -1 -10   96.39   11.20
   2   1  10   93.59    7.20
   2   1  10  118.69    7.50
  -2   1 -10  122.79   17.00
   3  -1  10 1652.93   47.70
  -3  -1 -10 1666.43   54.59
   3   1  10 1596.14   41.60
  -3   1 -10 1620.14   56.29
  -4  -1 -10  291.67   24.40
   4  -1  10  326.27   21.70
  -4   1 -10  280.27   25.00
   4   1  10  296.57   18.40
  -5  -1 -10  145.39   28.30
   5  -1  10  136.39   19.20
  -5   1 -10  103.49   20.10
   5   1  10  150.98   15.50
   6  -1  10   42.90   11.50
  -6  -1 -10   32.00   12.80
  -6   1 -10   19.90   10.70
   6   1  10   31.90   10.50
   7  -1  10  381.66   31.00
  -7  -1 -10  437.16   39.50
  -7   1 -10  333.67   35.60
   7   1  10  418.66   31.30
  -8  -1 -10   48.10   18.70
   8   1  10   56.49   16.20
  -8   1 -10   28.20   15.30
  -9  -2  10   -9.20    6.90
  -9  -2  10    6.60    7.70
  -9   2  10   -1.40    8.20
  -9   2  10  -17.50    7.20
  -8  -2  10   17.80    9.40
  -8  -2  10   15.70   10.70
  -8   2  10   36.90   14.40
  -8   2  10   19.60   11.80
  -7  -2  10  778.82   49.20
   7  -2 -10  739.63   49.30
  -7  -2  10  806.12   61.89
  -7   2  10  871.01   48.40
   7   2 -10  857.91   53.09
  -7   2  10  841.92   57.29
  -6  -2  10  145.79   24.90
   6  -2 -10  139.19   24.00
  -6  -2  10  119.99   22.60
  -6   2  10  128.49   22.70
  -6   2  10  198.48   27.30
  -5  -2  10   -3.40    6.00
  -5  -2  10   19.00   10.50
   5  -2 -10    5.60    6.20
  -5   2  10   15.80    8.50
  -5   2  10   15.90    7.90
   5   2 -10   26.10    9.80
   4  -2 -10  273.47   40.90
  -4  -2  10  238.88   23.10
  -4   2  10  226.08   17.60
   4   2 -10  221.88   22.10
  -4   2  10  215.08   22.20
   3  -2 -10 1786.12   55.69
  -3  -2  10 1769.42   60.29
  -3   2  10 1787.42   59.39
  -3   2  10 1807.92   45.90
   3   2 -10 1888.81   59.29
  -2  -2  10  244.48   20.00
  -2   2  10  265.07   19.50
   2   2 -10  278.87   19.30
  -1  -2  10   31.50    7.90
  -1   2  10   33.10    7.40
   1   2 -10   32.00    8.30
   1   2 -10   43.40    8.10
   0  -2  10  590.74   25.40
   0   2 -10  542.75   19.10
   0   2  10  542.85   19.90
   0   2 -10  529.15   19.60
  -1  -2 -10 2716.43   55.29
   1  -2  10 2825.42   71.49
   1  -2  10 2751.12   62.99
   2  -2  10   60.89   10.60
  -2  -2 -10   57.59   10.10
   2  -2  10   49.30    9.20
  -2   2 -10   41.40   12.10
   3  -2  10  122.99   13.00
  -3  -2 -10  119.79   13.90
   3   2  10  123.29    8.70
  -3   2 -10  162.58   22.70
  -4  -2 -10  629.24   35.40
   4  -2  10  644.04   32.30
  -4   2 -10  598.94   37.10
   4   2  10  589.44   24.70
   5  -2  10  798.32   39.80
  -5   2 -10  753.02   45.40
   5   2  10  842.12   35.00
   6  -2  10   36.30   12.10
  -6  -2 -10   -1.60    6.70
  -6   2 -10   33.00   13.90
   6   2  10   18.60    7.60
  -7  -2 -10  119.39   23.90
  -7   2 -10  153.58   30.20
   7   2  10  210.18   22.40
  -8  -2 -10  320.37   36.40
   8   2  10  314.77   31.40
  -8   2 -10  320.77   46.50
  -8  -3  10    8.00    8.60
  -8  -3  10   -2.30    7.80
  -8   3  10   12.30   10.00
  -8   3  10    6.80    7.60
  -7  -3  10   25.70   15.90
   7  -3 -10    0.60   10.50
  -7  -3  10   28.40   13.40
  -7   3  10   44.80   14.10
   7   3 -10   23.20   10.50
   6  -3 -10   12.00    6.90
  -6  -3  10   -4.80    5.30
  -6  -3  10    5.70    8.70
   6   3 -10    5.70    5.90
  -6   3  10    4.20    7.80
  -6   3  10    5.60    7.10
  -5  -3  10 3954.50  111.69
   5  -3 -10 4094.79  110.59
   5   3 -10 4237.78  113.89
  -5   3  10 4069.89   99.29
  -5   3  10 4074.79  113.59
  -4  -3  10    7.60    6.30
   4   3 -10    9.50    6.80
  -4   3  10    9.80    8.70
  -4   3  10   12.50    6.60
   3  -3 -10   16.90    6.80
  -3  -3  10   23.60    8.70
  -3   3  10    5.80    5.30
   3   3 -10   27.40    9.00
  -3   3  10   20.90    6.20
   2  -3 -10    4.40    3.90
  -2  -3  10   -6.20    2.60
   2   3 -10    2.80    3.70
  -2   3  10    4.80    4.10
  -1  -3  10 6946.71  136.49
   1   3 -10 7069.89  138.79
   1   3 -10 6952.80  130.39
  -1   3  10 6962.60  127.99
   0  -3  10    2.50    4.10
   0   3 -10    1.60    2.70
   0   3  10    7.20    3.20
   0   3 -10    6.00    3.80
   1  -3  10  362.66   24.20
  -1  -3 -10  326.77   14.00
   1  -3  10  369.96   20.80
  -1   3 -10  335.87   14.30
  -1   3 -10  348.57   15.20
   2  -3  10  288.27   19.70
   2  -3  10  302.87   21.10
  -2  -3 -10  340.87   19.00
  -2   3 -10  306.37   22.80
  -3  -3 -10 2905.41   75.29
   3  -3  10 2955.90   76.69
  -3   3 -10 2671.63   81.19
  -4  -3 -10    3.00    6.10
   4  -3  10   -1.90    4.90
   4   3  10   -2.10    2.50
  -4   3 -10    4.10    6.60
   5  -3  10  263.97   24.10
   5   3  10  307.57   19.90
  -5   3 -10  262.47   27.90
  -6  -3 -10    1.10    6.70
   6  -3  10   -1.80    6.60
   6   3  10   14.30    6.50
  -6   3 -10   13.00    8.10
  -7  -3 -10 1308.87   68.09
   7  -3  10 1288.67   61.79
  -7   3 -10 1365.86   73.19
   7   3  10 1368.36   57.09
  -8  -3 -10  119.69   26.80
  -8   3 -10  110.29   24.90
   8   3  10  103.89   20.90
  -8  -4  10  393.66   38.40
  -8  -4  10  396.96   36.90
  -8   4  10  425.36   39.30
  -8   4  10  408.36   36.80
  -7  -4  10  237.38   28.20
   7  -4 -10  331.07   32.60
  -7   4  10  261.17   30.20
  -7   4  10  277.97   27.20
  -6  -4  10  674.63   43.50
   6  -4 -10  596.24   40.70
  -6   4  10  699.93   45.40
  -6   4  10  631.54   37.40
   5  -4 -10    9.60    7.60
  -5  -4  10    0.10    5.10
  -5   4  10    3.90    6.70
  -5   4  10   11.50    6.60
   5   4 -10   -8.80    4.50
  -4  -4  10  731.93   40.70
  -4   4  10  654.43   38.80
   4   4 -10  747.93   40.50
  -4   4  10  713.33   30.70
   3  -4 -10   68.09   12.30
  -3  -4  10   72.79   13.50
  -3   4  10   82.29    8.50
  -3   4  10   98.29   16.20
   3   4 -10   75.69   15.80
   2  -4 -10  384.16   18.80
  -2  -4  10  427.66   27.50
   2   4 -10  392.66   24.80
  -2   4  10  436.96   25.40
  -1  -4  10   57.99   12.50
   1   4 -10   49.30   10.90
   1   4 -10   43.70    9.40
  -1   4  10   39.80    8.60
   0  -4  10  995.40   38.10
   0   4 -10  989.50   34.00
   0   4  10 1041.30   29.30
   0   4 -10  942.61   35.70
   1  -4  10  284.87   19.90
   1  -4  10  298.67   23.80
  -1   4 -10  283.27   16.80
  -1   4 -10  255.17   16.10
   2  -4  10  463.75   26.60
  -2  -4 -10  483.45   22.70
   2  -4  10  449.66   28.00
  -2   4 -10  470.25   19.90
  -2   4 -10  417.56   28.20
  -2   4 -10  480.45   19.20
  -3  -4 -10   49.40   11.40
   3  -4  10   42.20   10.60
  -3   4 -10   30.40   10.70
  -3   4 -10   43.60    6.80
  -3   4 -10   43.00    6.60
   4  -4  10 1235.78   50.99
  -4  -4 -10 1281.67   51.29
   4   4  10 1195.78   34.40
  -4   4 -10 1151.08   63.09
  -4   4 -10 1224.58   30.50
  -4   4 -10 1222.58   31.20
   5  -4  10  618.84   37.20
  -5  -4 -10  592.34   60.69
   5   4  10  581.54   27.20
  -5   4 -10  612.34   42.70
  -6  -4 -10  482.55   37.60
   6  -4  10  493.75   35.80
  -6   4 -10  292.77   56.29
   6   4  10  513.55   29.60
   7  -4  10    0.40    9.40
  -7  -4 -10    8.40    9.80
   7   4  10    3.60    6.90
  -7   4 -10   13.50   10.30
  -8  -4 -10  727.23   54.19
   8   4  10  708.83   44.10
  -8   4 -10  734.23   56.89
  -8  -5  10  523.65   43.30
  -8   5  10  573.44   42.60
  -8   5  10  599.74   47.60
   7  -5 -10   -0.70    6.70
  -7  -5  10    0.20    7.40
  -7   5  10    7.10    7.70
  -7   5  10    4.70    7.90
  -6  -5  10  298.47   29.10
   6  -5 -10  265.67   26.50
  -6   5  10  256.67   27.60
  -6   5  10  192.48   21.60
  -5  -5  10 1022.20   51.69
   5  -5 -10  989.80   49.10
  -5   5  10 1060.19   43.80
   5   5 -10  993.80   51.69
  -5   5  10 1075.89   54.09
  -4  -5  10  676.43   39.60
   4  -5 -10  526.25   47.60
   4   5 -10  617.24   37.60
  -4   5  10  640.34   29.10
  -4   5  10  590.84   36.80
  -3  -5  10    2.90    5.40
   3  -5 -10    8.20    5.40
  -3   5  10   14.30    6.70
  -3   5  10    7.00    4.90
   3   5 -10    4.50    5.20
  -2  -5  10  965.50   43.00
   2  -5 -10  927.71   30.60
   2   5 -10  938.11   40.70
  -2   5  10  939.11   39.20
  -1  -5  10 1562.64   52.89
   1   5 -10 1517.15   55.99
   1   5 -10 1496.35   49.40
  -1   5  10 1424.36   44.70
   0  -5  10  347.27   30.90
   0   5  10  357.56   17.00
   0   5 -10  349.67   22.90
   0   5 -10  374.86   21.70
   1  -5  10   76.39   15.30
   1  -5  10   69.19   12.50
  -1   5 -10   68.59   10.90
  -1   5 -10   52.79   10.20
   2  -5  10 1248.78   53.19
  -2  -5 -10 1184.28   38.40
  -2   5 -10 1162.98   36.70
  -2   5 -10 1196.48   38.80
  -3  -5 -10  530.65   28.70
   3  -5  10  529.75   32.50
  -3   5 -10  527.35   22.70
  -3   5 -10  510.75   23.60
  -3   5 -10  548.85   36.20
  -4  -5 -10    3.40    7.00
   4  -5  10   33.20   10.20
   4   5  10   11.00    4.60
  -4   5 -10   16.20    5.40
  -4   5 -10   15.80    8.80
  -4   5 -10   10.20    4.70
   5  -5  10  152.48   22.10
  -5  -5 -10  172.28   27.20
  -5   5 -10  169.28   13.50
   5   5  10  161.88   14.50
  -5   5 -10  161.98   12.80
  -5   5 -10  152.98   28.70
   6  -5  10  689.93   43.50
  -6  -5 -10  635.14   43.70
  -6   5 -10  580.84   45.80
   6   5  10  666.63   33.70
  -6   5 -10  663.93   25.60
  -6   5 -10  708.03   33.30
  -7  -5 -10  371.86   36.40
  -7   5 -10  402.76   40.20
  -7   5 -10  370.56   17.30
   7   5  10  363.46   28.40
  -8  -5 -10   -2.90    7.30
  -8   5 -10   -2.90    7.50
   8   5  10   -1.50    8.80
  -8  -6  10  107.19   21.60
  -8   6  10  125.69   25.40
  -8   6  10  154.88   30.90
   7  -6 -10  912.01   54.79
  -7  -6  10  932.81   54.19
  -7   6  10  814.72   53.69
  -7   6  10  831.12   47.90
   6  -6 -10   55.89   13.90
  -6  -6  10   61.39   14.90
  -6   6  10   91.59   18.00
  -6   6  10   55.79   14.20
   6   6 -10   40.00   12.10
   5  -6 -10  112.39   18.60
  -5  -6  10   84.19   17.60
  -5   6  10   80.79   15.90
   5   6 -10  101.89   19.80
  -5   6  10  100.09   16.60
   4  -6 -10   -2.10    5.30
  -4  -6  10    3.50    7.00
  -4   6  10    4.10    5.70
  -4   6  10   10.20    6.10
   4   6 -10    7.60    6.30
   3  -6 -10 1445.56   49.10
  -3  -6  10 1537.45   58.99
  -3   6  10 1518.45   40.70
  -3   6  10 1430.16   55.99
   3   6 -10 1517.95   58.39
  -2  -6  10   62.39   14.40
   2  -6 -10   69.49   10.00
   2   6 -10   33.70   10.30
  -2   6  10   46.70   10.60
  -1  -6  10  114.79   16.50
   1   6 -10  163.18   18.90
   1   6 -10  172.48   17.00
  -1   6  10  154.98   14.70
   0  -6  10   22.20    8.60
   0   6 -10   43.30   13.60
   0   6  10   28.30    6.70
   0   6 -10   29.60    8.80
   1  -6  10 1214.88   47.30
  -1   6 -10 1268.67   45.50
  -1   6 -10 1223.18   42.20
   1   6  10 1179.68   30.20
   2  -6  10   70.99   16.30
  -2   6 -10   85.89   12.60
  -2   6 -10   81.49   13.20
  -3  -6 -10   -3.30    4.00
   3  -6  10    8.40    6.80
  -3   6 -10    3.60    4.20
  -3   6 -10    4.80    4.60
  -3   6 -10    5.20    6.10
   4  -6  10   45.60   12.80
  -4  -6 -10   43.30   11.60
  -4   6 -10   49.50   16.30
  -4   6 -10   47.00    9.30
  -4   6 -10   60.59   11.40
   4   6  10   49.90    8.20
  -5  -6 -10  629.74   39.60
   5  -6  10  633.94   41.30
  -5   6 -10  678.73   29.00
  -5   6 -10  589.64   43.90
   5   6  10  639.34   28.60
   6  -6  10  193.98   27.60
  -6  -6 -10  125.99   25.20
  -6   6 -10  140.39   15.00
  -6   6 -10  132.39   13.50
  -6   6 -10  112.59   27.10
   6   6  10  131.19   18.20
  -7  -6 -10   74.29   20.00
  -7   6 -10  127.19   13.30
   7   6  10  122.89   18.60
  -7   6 -10  104.09   13.20
  -7   6 -10  113.39   27.80
  -8  -7  10  918.61   57.59
  -8   7  10  961.70   56.39
  -8   7  10  940.41   61.19
   7  -7 -10   25.90   13.60
  -7  -7  10   42.90   13.30
  -7   7  10   27.20   12.50
  -7   7  10   40.00   14.20
  -6  -7  10 1429.76   66.89
   6  -7 -10 1386.86   64.29
   6   7 -10 1410.66   67.39
  -6   7  10 1438.36   68.79
  -6   7  10 1482.05   59.39
  -5  -7  10   -2.60    4.50
   5  -7 -10    8.50    7.10
   5   7 -10    2.90    5.60
  -5   7  10   -3.60    4.70
  -5   7  10   10.30    6.70
   4  -7 -10 1530.85   57.39
  -4  -7  10 1506.45   62.69
  -4   7  10 1471.95   62.79
   4   7 -10 1578.04   63.99
  -4   7  10 1563.44   55.99
  -3  -7  10    4.80    6.50
   3  -7 -10    3.30    4.70
  -3   7  10    1.30    4.50
  -3   7  10    4.70    6.40
   3   7 -10   12.00    7.30
   2  -7 -10 2881.51   66.19
  -2  -7  10 3005.80   86.39
   2   7 -10 2883.61   93.39
  -2   7  10 2906.01   58.29
   2   7 -10 3129.19   86.19
  -1  -7  10  204.68   21.00
   1   7 -10  250.77   22.10
  -1   7  10  227.88   18.30
   1   7 -10  239.18   23.30
   0  -7  10  860.91   41.00
   0   7 -10  863.71   38.00
   0   7  10  873.41   31.90
   0   7 -10  918.01   42.80
   1  -7  10   21.70    9.20
  -1   7 -10   43.90   11.50
  -1   7 -10   15.90    7.10
   1   7  10   29.10    6.10
   2  -7  10 2639.94   88.39
  -2   7 -10 2758.92   75.79
  -2   7 -10 2768.02   71.69
   3  -7  10   38.20   12.10
  -3   7 -10   41.10   13.90
  -3   7 -10   69.09   13.50
   3   7  10   63.09    8.70
  -3   7 -10   61.49   11.50
  -4  -7 -10  565.04   35.00
   4  -7  10  689.43   42.50
  -4   7 -10  640.14   32.30
  -4   7 -10  633.04   44.10
  -4   7 -10  611.74   30.10
   4   7  10  621.74   24.70
  -5  -7 -10   26.90   11.80
   5  -7  10   26.50   10.00
  -5   7 -10   38.90   10.00
  -5   7 -10   25.90   12.90
   5   7  10   44.20    9.50
  -5   7 -10   35.80    9.70
   6  -7  10 1592.84   73.49
  -6  -7 -10 1607.24   71.49
  -6   7 -10 1573.44   52.89
  -6   7 -10 1585.04   79.49
   6   7  10 1590.64   54.59
  -6   7 -10 1470.85   49.30
  -7  -7 -10  158.08   29.70
   7   7  10  105.09   17.10
  -7   7 -10  111.79   25.20
  -7   7 -10  131.59   17.30
  -7   7 -10  119.99   15.50
  -8  -8  10  504.85   42.00
  -8   8  10  425.06   38.00
  -8   8  10  443.46   43.00
  -7  -8  10   14.60   10.00
  -7   8  10   15.50   10.90
  -7   8  10    3.20    8.10
  -6  -8  10  716.43   58.69
  -6   8  10  703.13   48.20
  -6   8  10  670.13   46.60
  -5  -8  10    7.20    8.60
   5  -8 -10    8.20    7.30
  -5   8  10   -8.30    5.00
  -5   8  10   12.00    7.80
   4  -8 -10 1037.50   47.00
  -4  -8  10 1016.60   51.69
  -4   8  10 1043.10   52.79
  -4   8  10 1051.19   40.90
   4   8 -10 1053.49   52.59
  -3  -8  10  114.09   20.60
   3  -8 -10  129.89   17.80
   3   8 -10  130.99   21.00
  -3   8  10  130.99   21.00
  -3   8  10  140.19   13.00
  -2  -8  10  184.28   21.60
   2  -8 -10  135.19   12.90
   2   8 -10  181.28   20.00
   2   8 -10  193.28   28.80
  -2   8  10  152.98   21.20
  -2   8  10  164.78   11.70
  -1  -8  10   85.89   15.80
   1   8 -10  117.79   21.80
   1   8 -10  116.19   17.90
  -1   8  10  114.19   16.40
   0  -8  10 1448.26   56.59
   0   8 -10 1476.35   58.49
   0   8  10 1449.26   45.80
   0   8 -10 1465.75   53.59
   1  -8  10  142.59   20.80
  -1   8 -10  117.79   18.20
   1   8  10  135.99   11.90
   2  -8  10  255.87   27.40
  -2   8 -10  222.58   21.40
  -2   8 -10  241.18   20.80
   3  -8  10  514.75   37.40
  -3   8 -10  505.95   31.00
  -3   8 -10  509.45   34.90
   3   8  10  452.35   20.50
  -4  -8 -10 1777.72   64.69
   4  -8  10 1737.33   72.49
  -4   8 -10 1647.44   58.29
   4   8  10 1635.04   46.60
  -4   8 -10 1586.84   74.19
  -4   8 -10 1795.92   71.59
  -5  -8 -10   34.30   11.90
   5  -8  10   46.50   13.70
  -5   8 -10   70.49   12.70
  -5   8 -10   46.40   11.60
  -5   8 -10   73.19   21.50
   5   8  10   61.09   11.40
  -6  -8 -10   79.79   21.70
  -6   8 -10   62.79   19.40
   6   8  10  105.09   17.10
  -6   8 -10   78.89   13.50
  -6   8 -10   68.39   14.00
  -7  -8 -10  112.19   26.10
   7   8  10  132.69   20.90
  -7   8 -10  142.39   16.70
  -7   8 -10  100.99   24.10
  -7   8 -10  142.59   19.20
  -7  -9  10   15.30    9.40
  -7   9  10    8.90    9.20
  -7   9  10   20.60   10.40
  -6  -9  10  151.18   25.90
  -6   9  10  136.69   26.50
  -6   9  10  153.68   23.70
   5  -9 -10   86.29   18.10
  -5  -9  10   45.00   14.30
  -5   9  10   79.59   15.80
  -5   9  10   61.59   17.10
   5   9 -10   57.49   16.10
   4  -9 -10  221.88   22.00
  -4  -9  10  210.68   24.70
  -4   9  10  202.18   18.40
  -4   9  10  218.18   24.90
  -3  -9  10   55.09   12.60
   3  -9 -10   72.59   13.60
  -3   9  10   64.39   15.90
  -3   9  10   64.49   12.00
   3   9 -10   67.19   13.90
  -2  -9  10  257.57   24.90
  -2   9  10  266.27   16.50
  -2   9  10  257.87   23.50
   2   9 -10  251.27   28.00
   2   9 -10  314.27   27.20
  -1  -9  10   78.19   15.50
   1   9 -10   88.89   15.70
  -1   9  10  133.79   15.70
   1   9 -10  138.99   24.30
   0  -9  10  162.78   23.80
   0   9 -10  145.99   21.50
   0   9  10  130.69   14.30
   0   9 -10  191.28   19.70
   1  -9  10   38.40   12.20
  -1   9 -10   65.69   14.00
  -1   9 -10   50.19   13.50
   1   9  10   62.89   10.60
   2  -9  10  645.14   45.00
  -2   9 -10  604.14   36.60
   2   9  10  641.34   28.70
  -2   9 -10  614.14   34.10
   3  -9  10   46.70   14.30
  -3   9 -10   28.00    8.90
   3   9  10   55.79    9.70
  -3   9 -10   64.69   14.60
   4  -9  10   45.40   15.70
  -4   9 -10   75.49   21.40
  -4   9 -10   60.69   13.70
   4   9  10   52.69   10.80
  -4   9 -10   68.09   14.10
   5  -9  10   -9.40    8.20
   5   9  10  -11.80    5.10
  -5   9 -10    3.30    6.80
  -5   9 -10   10.90    7.10
  -6  -9 -10  316.47   32.40
   6   9  10  217.48   20.90
  -6   9 -10  259.57   23.40
  -6   9 -10  265.77   23.80
  -6   9 -10  229.38   36.60
  -7  -9 -10   19.70   11.60
  -7   9 -10   25.60   16.40
  -7   9 -10   46.80   12.50
   7   9  10   16.20    9.70
  -7   9 -10   22.80    9.50
  -7 -10  10   27.00   11.40
  -7  10  10   19.10   11.50
  -7  10  10   38.20   15.60
  -6 -10  10 1149.08   60.99
  -6  10  10 1107.99   63.39
  -6  10  10 1166.58   55.29
   5 -10 -10    8.50    8.40
  -5 -10  10   11.10    8.20
   5  10 -10   27.20   11.40
  -5  10  10   -6.70    5.50
  -5  10  10   14.00    7.80
   4 -10 -10 2589.14   82.09
  -4 -10  10 2633.74   91.39
  -4  10  10 2699.93   93.49
  -4  10  10 2724.03   76.09
   3 -10 -10   10.50    7.30
  -3 -10  10   14.10    8.20
  -3  10  10   -3.30    5.70
   3  10 -10    2.10    7.30
  -2 -10  10 2240.48   78.69
  -2  10  10 2019.60   71.69
   2  10 -10 2075.49   74.89
  -2  10  10 2103.49   57.59
   2  10 -10 2221.28   87.19
  -1 -10  10  106.89   21.40
   1  10 -10  136.89   25.30
   1  10 -10   84.59   16.90
  -1  10  10  124.79   18.70
   0 -10  10 4029.70  110.79
   0  10 -10 4027.70  105.79
   0  10 -10 3936.11  113.09
   0  10  10 3884.91   94.99
  -1  10 -10   33.30    9.70
   1  10  10   30.90    8.30
  -1  10 -10   36.00   12.50
   2 -10  10 1009.60   58.29
   2  10  10  966.80   39.10
   2  10  10  919.31   35.40
  -2  10 -10 1002.10   49.80
  -2  10 -10 1010.80   45.90
   3 -10  10   61.29   16.50
  -3  10 -10   55.69   13.40
  -3  10 -10   65.39   15.20
   3  10  10   64.29   11.70
   4 -10  10 1820.72   81.89
  -4  10 -10 1818.32   64.49
  -4  10 -10 1871.61   85.49
   4  10  10 1823.42   55.29
  -4  10 -10 1900.11   69.49
   5  10  10    1.80    5.70
  -5  10 -10   10.90   12.40
  -5  10 -10  -10.50    6.00
  -5  10 -10   -2.00    6.20
  -6  10 -10  415.36   31.10
   6  10  10  412.86   28.60
  -6  10 -10  389.76   28.90
  -6  10 -10  423.16   43.90
  -7 -11  10   34.20   13.80
  -7  11  10   49.50   18.00
  -7  11  10   39.50   23.20
   6 -11 -10  329.27   31.80
  -6 -11  10  362.86   34.80
  -6  11  10  338.27   35.80
  -6  11  10  343.27   30.30
  -5 -11  10   94.79   22.00
   5 -11 -10   78.29   17.70
  -5  11  10   76.89   16.80
  -5  11  10   69.29   18.70
  -4 -11  10  569.64   40.40
   4 -11 -10  547.75   35.70
  -4  11  10  471.45   38.50
   4  11 -10  522.15   39.30
  -4  11  10  522.25   31.60
  -3 -11  10    6.50    7.30
   3 -11 -10    4.10    7.10
  -3  11  10    2.40    7.00
  -3  11  10   -7.40    5.10
   3  11 -10    5.70    7.90
  -2 -11  10  528.75   38.20
  -2  11  10  533.55   31.00
   2  11 -10  522.85   42.10
  -2  11  10  542.95   36.30
   2  11 -10  571.24   37.70
  -1 -11  10  142.69   23.80
  -1  11  10  135.99   20.10
   1  11 -10  129.59   23.50
   1  11 -10  153.28   24.20
   0 -11  10  868.11   48.00
   0  11 -10  877.71   45.30
   0  11  10  900.21   42.50
   0  11 -10  827.82   48.70
  -1  11 -10   -3.00    4.70
   1  11  10   -2.60    3.50
   2  11  10  618.44   32.60
   2  11  10  553.94   28.60
  -2  11 -10  612.04   36.90
  -2  11 -10  602.04   40.10
   3 -11  10   84.69   21.30
  -3  11 -10  102.59   17.10
  -3  11 -10   70.59   16.70
   3  11  10  109.39   15.40
   4 -11  10  236.58   37.00
   4  11  10  239.78   20.00
  -4  11 -10  242.08   23.90
  -4  11 -10  270.77   26.80
  -4  11 -10  286.37   44.20
  -5  11 -10    4.30    7.40
  -5  11 -10    6.40    9.80
  -5  11 -10    6.50    8.40
   5  11  10   33.10    8.80
   6  11  10  368.36   27.40
  -6  11 -10  303.67   45.90
  -6  11 -10  394.26   30.00
  -6  11 -10  355.86   29.90
  -6 -12  10  281.57   30.60
   6 -12 -10  336.97   33.00
  -6  12  10  297.47   28.30
  -6  12  10  278.97   39.60
   5 -12 -10   17.50    8.30
  -5 -12  10   13.70    9.00
  -5  12  10   -6.60    7.90
  -5  12  10   27.30   11.60
  -4 -12  10  288.77   31.40
   4 -12 -10  390.26   31.20
  -4  12  10  356.46   33.90
  -4  12  10  410.26   29.00
   3 -12 -10  236.18   22.70
  -3 -12  10  228.78   27.00
  -3  12  10  268.77   22.40
   3  12 -10  243.28   37.60
  -3  12  10  239.38   27.30
   3  12 -10  260.47   28.30
  -2 -12  10  154.98   25.80
  -2  12  10  151.18   25.20
   2  12 -10  162.88   27.60
  -1 -12  10   64.39   15.90
   1  12 -10   54.29   15.30
  -1  12  10   63.49   15.50
   0 -12  10  429.16   35.30
   0  12  10  390.96   28.40
   0  12 -10  397.96   31.20
   0  12 -10  456.55   36.90
  -1  12 -10  254.77   25.10
  -1  12 -10  261.27   27.90
   1  12  10  264.37   22.80
  -2  12 -10   24.70   10.20
   2  12  10   33.30    9.30
  -2  12 -10   26.50   11.70
   3 -12  10  180.28   30.30
   3  12  10  152.28   17.80
   3  12  10  235.78   23.10
  -3  12 -10  238.08   26.40
  -3  12 -10  246.88   24.40
   4  12  10  328.17   25.00
  -4  12 -10  322.77   30.50
  -4  12 -10  306.47   27.30
  -4  12 -10  259.87   40.50
  -5  12 -10  162.08   25.90
   5  12  10  184.18   20.00
  -5  12 -10   81.09   25.10
  -6  12 -10   28.40   13.10
  -6  12 -10   20.60   15.30
   6  12  10   20.40    8.70
  -6 -13  10  861.81   55.49
  -6  13  10  746.93   55.49
  -6  13  10  912.41   50.99
   5 -13 -10   16.70    8.90
  -5 -13  10    9.60    9.40
  -5  13  10   31.50   13.30
  -5  13  10    6.30    8.50
  -4 -13  10  885.61   54.19
   4 -13 -10  849.61   48.10
  -4  13  10  799.92   42.50
  -4  13  10  820.12   53.89
   4  13 -10  946.31   63.99
  -3 -13  10    6.70    8.00
  -3  13  10    0.00    6.80
  -3  13  10    6.60    6.40
  -2 -13  10 1276.37   63.09
   2  13 -10 1279.27   62.29
  -2  13  10 1338.77   62.79
   2  13 -10 1277.37   70.19
  -1 -13  10   10.30    7.30
  -1  13  10   15.30    8.90
   1  13 -10    3.20    5.70
   0  13 -10  659.73   45.90
   0  13  10  620.64   37.70
   1  13  10   27.40   10.30
  -1  13 -10   21.30   10.30
   2  13  10 1711.33   59.09
   2  13  10 1690.33   62.29
  -2  13 -10 1510.55   71.59
  -3  13 -10    4.30    7.60
   3  13  10    3.70    6.90
   3  13  10    1.50    6.80
  -4  13 -10  356.26   33.30
  -4  13 -10  396.56   39.50
   4  13  10  334.47   26.60
  -4  13 -10  363.46   40.90
  -5  13 -10   65.99   14.40
   5  13  10   78.29   15.60
  -5  13 -10   59.89   22.60
  -5  13 -10   99.19   20.20
  -5 -14  10   -1.90   10.20
  -5  14  10    1.50    9.10
  -5  14  10   -0.50    9.20
   4 -14 -10  121.39   21.50
  -4 -14  10  130.09   23.40
   4  14 -10  126.69   28.30
  -4  14  10  165.48   25.30
  -4  14  10  107.69   23.10
  -3 -14  10 1036.60   59.29
  -3  14  10 1129.39   61.79
   3  14 -10 1140.99   70.19
  -3  14  10 1077.69   50.19
  -2 -14  10  173.58   28.00
   2  14 -10  231.68   37.30
  -2  14  10  151.88   26.10
  -1 -14  10    1.50    7.00
   1  14 -10   14.70   10.60
  -1  14  10    9.90    7.20
   1  14 -10    0.50    8.10
   0  14  10  202.68   23.20
   0  14 -10  189.68   27.70
   0  14 -10  206.98   31.30
  -1  14 -10  700.53   44.90
   1  14  10  793.52   41.10
  -1  14 -10  832.62   53.59
   1  14  10  763.12   43.10
  -2  14 -10  100.99   22.80
   2  14  10  110.39   18.80
  -2  14 -10  149.59   24.20
   2  14  10  121.19   19.50
  -3  14 -10   21.50   11.10
   3  14  10   36.80   12.90
   3  14  10   19.20    8.50
   4  14  10  279.77   27.90
  -4  14 -10  281.17   31.30
  -4  14 -10  204.88   31.90
   4  14  10  234.78   23.50
  -5  14 -10  650.03   58.59
  -5  14 -10  616.04   46.30
  -5 -15  10 1050.29   61.89
  -5  15  10 1016.40   65.69
   5  15 -10 1046.40   73.89
  -5  15  10 1051.89   55.49
  -4 -15  10  230.08   33.80
   4 -15 -10  286.87   28.90
   4  15 -10  224.58   42.50
  -4  15  10  276.87   26.20
  -4  15  10  282.77   41.20
  -3 -15  10    4.60    7.70
  -3  15  10    2.10   10.60
   3  15 -10    5.00   10.60
  -2 -15  10  303.77   32.80
   2  15 -10  308.47   44.00
  -2  15  10  272.77   30.90
  -1  15  10  723.53   46.90
   1  15 -10  743.83   53.39
   0  15  10   84.49   18.30
   0  15 -10  120.99   25.60
  -1  15 -10  100.29   24.70
   1  15  10   87.29   17.80
   1  15  10  133.39   20.50
  -2  15 -10  374.56   37.00
   2  15  10  317.37   28.90
   2  15  10  383.16   30.30
   3  15  10  736.73   41.90
   3  15  10  793.22   46.10
  -3  15 -10  783.92   54.19
  -4  15 -10   21.90   12.90
   4  15  10   10.90   10.10
  -4 -16  10  364.66   37.30
   4  16 -10  423.06   45.70
  -4  16  10  353.66   30.70
  -4  16  10  316.07   36.80
  -3 -16  10   19.10   11.30
  -3  16  10   15.00   10.20
   3  16 -10   -5.20   10.20
  -3  16  10   46.50   17.10
   2  16 -10  216.28   37.40
  -2  16  10  151.98   26.70
   1  16 -10    5.60    8.40
  -1  16  10    8.10    8.80
   0  16  10  480.25   37.30
   0  16  10  477.15   35.70
   0  16 -10  561.34   46.80
  -1  16 -10   15.10   11.10
   1  16  10   24.70   11.60
   1  16  10   23.40    9.00
   2  16  10  216.78   24.00
  -2  16 -10  198.08   33.80
   2  16  10  188.28   28.00
  -3  16 -10   10.50   11.60
   3  16  10   15.70   11.20
   3  16  10   19.80   10.50
   3  17 -10   26.00   13.00
  -3  17  10   27.00   14.90
  -3  17  10   15.40    9.00
   2  17 -10   -5.40    7.40
  -2  17  10   21.90   13.40
   1  17 -10 1615.34   84.59
  -1  17  10 1907.51  119.99
   0  17 -10   27.10   12.90
   0  17  10   28.20   13.10
   1  17  10  105.69   20.90
  -1  17 -10  108.49   26.60
  -2  17 -10    0.40    9.90
   2  17  10    5.20   15.40
   2  17  10    4.90    8.20
  -8   0  11    2.20    7.10
  -8   0  11    8.50    6.80
   7   0 -11  -11.40    8.40
  -7   0  11   -6.00    5.20
  -7   0  11    5.10    5.80
  -6   0  11    2.10    6.40
   6   0 -11   -1.40    5.50
  -6   0  11    8.10    7.80
   5   0 -11   -5.40    4.30
  -5   0  11    2.90    6.00
  -5   0  11   -6.30    4.60
  -4   0  11    2.50    5.40
   4   0 -11    6.90    5.90
   3   0 -11   -3.70    3.10
  -3   0  11    0.30    5.20
   2   0 -11    5.50    3.50
  -2   0  11   -0.10    3.90
   1   0 -11   -3.20    2.00
  -1   0  11   -1.80    3.00
   1   0 -11    3.30    2.90
   0   0  11    1.50    3.40
   0   0 -11    6.10    3.20
   1   0  11   -0.20    2.80
   1   0  11    4.90    4.20
  -1   0 -11    8.00    4.30
   2   0  11   -0.40    2.50
  -2   0 -11    1.30    3.30
   2   0  11    3.80    4.20
   3   0  11   -0.70    3.30
  -3   0 -11    4.40    5.40
   4   0  11    3.90    4.20
  -4   0 -11    6.30    7.20
  -5   0 -11    4.50    6.50
   6   0  11   11.60    7.60
  -6   0 -11   -1.30    6.70
   7   0  11   16.10    8.80
  -7   0 -11    1.00    8.10
  -8   0 -11   -8.10    7.60
  -8  -1  11   -5.30    6.10
  -8  -1  11  -10.60    6.80
  -8   1  11  -10.80    4.90
  -8   1  11   -2.60    7.50
   7  -1 -11 1811.02   78.49
  -7  -1  11 1649.04   74.69
  -7  -1  11 1716.23   73.09
   7   1 -11 1706.73   75.89
  -7   1  11 1742.83   77.39
  -7   1  11 1730.33   71.09
  -6  -1  11   89.29   20.00
   6  -1 -11   83.19   18.80
  -6   1  11   94.29   18.10
   6   1 -11   40.50   13.30
  -6   1  11  104.69   22.00
   5  -1 -11  658.43   39.50
  -5  -1  11  665.93   36.40
  -5  -1  11  578.94   38.50
   5   1 -11  624.54   38.80
  -5   1  11  651.43   41.00
  -5   1  11  717.23   35.70
   4  -1 -11   45.30   11.50
  -4  -1  11   42.10   11.90
   4   1 -11   39.20   11.40
  -4   1  11   40.70   10.40
  -4   1  11   49.90   13.50
   3  -1 -11 2832.12   74.89
  -3  -1  11 2804.82   80.69
  -3   1  11 2852.01   80.19
   3   1 -11 2925.41   77.79
   2  -1 -11  216.68   15.40
  -2  -1  11  224.28   19.20
   2   1 -11  233.28   17.20
  -2   1  11  253.37   19.60
  -1  -1  11 1396.16   44.70
  -1   1  11 1307.17   41.50
   1   1 -11 1338.97   38.80
   1   1 -11 1237.18   35.20
   0  -1  11   84.79   11.40
   0   1  11   73.79    8.40
  -1  -1 -11 2115.99   48.70
   1  -1  11 2093.99   51.19
   1  -1  11 2144.89   58.39
   1   1  11 2146.29   45.40
  -1   1 -11 2175.88   55.79
  -2  -1 -11  629.74   27.70
   2  -1  11  610.74   26.30
   2  -1  11  624.54   25.20
   2   1  11  598.64   19.20
  -2   1 -11  591.94   29.80
   2   1  11  606.94   20.50
   3  -1  11 1507.45   45.80
  -3  -1 -11 1488.25   51.69
  -3   1 -11 1536.15   55.09
   3   1  11 1461.35   45.50
  -4  -1 -11  157.48   23.00
   4  -1  11  127.69   16.60
   4   1  11  124.59   12.40
  -4   1 -11  182.58   25.60
  -5  -1 -11 1189.58   55.79
   5  -1  11 1188.08   47.80
  -5   1 -11 1072.59   54.89
   5   1  11 1205.18   44.20
   6  -1  11  530.65   33.90
  -6  -1 -11  505.35   39.00
  -6   1 -11  507.45   39.70
   6   1  11  510.75   31.70
  -7  -1 -11  853.61   55.29
   7  -1  11  958.30   50.49
   7   1  11  843.72   46.00
  -7   1 -11  896.31   57.59
  -8  -1 -11   11.20    9.10
   8   1  11   37.20   19.70
  -8   1 -11   -7.00    8.70
  -8  -2  11   57.39   16.40
  -8  -2  11   49.10   16.10
  -8   2  11   33.50   12.50
  -8   2  11   35.80   14.80
  -7  -2  11  312.87   31.10
   7  -2 -11  322.97   32.90
  -7  -2  11  359.46   34.00
  -7   2  11  278.77   30.60
  -7   2  11  342.37   30.40
   7   2 -11  320.67   33.30
  -6  -2  11   32.00   11.00
   6  -2 -11   81.29   17.60
  -6  -2  11   70.59   17.40
  -6   2  11   43.80   13.00
  -6   2  11   42.60   13.30
   5  -2 -11 2342.67   79.19
  -5  -2  11 2333.57   81.39
  -5   2  11 2300.97   81.19
  -5   2  11 2327.67   69.49
   5   2 -11 2438.36   81.99
  -4  -2  11  102.49   17.80
   4  -2 -11  131.99   23.40
  -4   2  11  116.79   15.70
  -4   2  11  124.59   21.60
   4   2 -11  143.79   21.80
  -3  -2  11  500.55   31.40
   3  -2 -11  508.45   27.30
  -3   2  11  496.05   30.30
   3   2 -11  476.75   28.70
  -2  -2  11   70.39   12.50
   2  -2 -11  103.39   10.10
  -2   2  11   87.49   14.10
   2   2 -11   85.09   12.80
  -1  -2  11 3645.14   84.79
   1   2 -11 3558.14   76.99
  -1   2  11 3662.13   79.69
   1   2 -11 3519.25   80.19
   0  -2  11  343.67   20.30
   0   2 -11  335.47   14.00
   0   2 -11  316.17   13.30
   0   2  11  333.97   16.20
   1  -2  11 1110.79   36.50
  -1  -2 -11 1091.89   29.60
   1  -2  11 1141.19   42.70
  -1   2 -11 1132.19   39.80
   1   2  11 1067.29   26.10
  -2  -2 -11  160.98   13.40
   2  -2  11  178.28   15.00
   2  -2  11  171.18   15.30
  -2   2 -11  197.68   17.90
  -3  -2 -11 1499.95   50.89
   3  -2  11 1549.05   49.90
   3   2  11 1509.35   36.20
  -3   2 -11 1546.05   57.29
   4  -2  11  134.09   18.60
  -4  -2 -11  141.59   21.40
   4   2  11  128.09   11.40
  -4   2 -11  112.99   21.10
  -5  -2 -11 1238.78   56.89
   5  -2  11 1260.17   51.39
  -5   2 -11 1246.08   59.79
   5   2  11 1323.57   45.00
  -6  -2 -11  113.69   22.30
   6  -2  11  148.69   21.60
   6   2  11  134.19   19.10
  -6   2 -11  162.98   31.50
  -7  -2 -11  632.84   47.30
   7  -2  11  617.34   42.30
   7   2  11  605.04   37.20
  -7   2 -11  627.94   48.60
  -8  -2 -11  102.89   24.80
   8   2  11  162.08   24.90
  -8   2 -11  163.18   35.60
  -8  -3  11  496.65   42.60
  -8  -3  11  434.76   39.70
  -8   3  11  429.06   43.10
  -8   3  11  516.25   43.20
  -7  -3  11   12.50    8.80
   7  -3 -11   15.00   10.90
  -7   3  11    1.50    6.40
  -7   3  11   -4.30    6.60
   6  -3 -11   75.99   15.40
  -6  -3  11  106.89   21.00
  -6   3  11   64.99   15.50
  -6   3  11  101.49   19.10
   5  -3 -11   71.39   15.90
  -5  -3  11   47.40   15.10
  -5   3  11   86.89   14.90
   5   3 -11  108.59   20.90
  -5   3  11   65.69   15.90
  -4  -3  11  551.34   35.90
  -4   3  11  585.84   36.00
  -4   3  11  614.14   27.60
   4   3 -11  553.04   34.30
  -3  -3  11    1.90    5.20
   3  -3 -11   11.00    5.60
   3   3 -11    6.50   10.80
  -3   3  11   -1.30    4.30
  -3   3  11    6.30    4.10
  -2  -3  11    5.50    5.50
   2  -3 -11    6.90    4.10
  -2   3  11    4.10    5.10
   2   3 -11    8.90    5.20
  -1  -3  11   29.20    8.20
   1   3 -11   35.00    9.10
   1   3 -11   20.90    6.70
  -1   3  11   40.60    8.50
   0  -3  11 1441.06   45.90
   0   3  11 1344.97   35.80
   0   3 -11 1371.96   37.30
   0   3 -11 1377.36   39.10
   1  -3  11   55.09   10.30
   1  -3  11   71.99   13.10
  -1  -3 -11   53.19    5.90
  -1   3 -11   56.59    5.70
  -1   3 -11   63.19    5.70
   2  -3  11    5.20    5.00
  -2  -3 -11   12.40    5.60
   2  -3  11   14.70    6.40
  -2   3 -11    7.40    6.40
  -3  -3 -11  121.69   17.40
   3  -3  11   96.49   15.40
  -3   3 -11  145.69   22.50
  -4  -3 -11  801.82   40.20
   4  -3  11  836.32   39.50
   4   3  11  766.62   27.00
  -4   3 -11  753.82   43.80
   5  -3  11   29.80   10.20
  -5  -3 -11   23.40   11.20
   5   3  11   29.60    7.40
  -5   3 -11   23.30   11.60
  -6  -3 -11    6.40    8.00
   6  -3  11  -10.70    6.20
   6   3  11   10.30    6.70
  -7  -3 -11  113.49   25.10
   7  -3  11   95.29   19.50
  -7   3 -11   98.79   23.10
   7   3  11  111.79   19.10
  -8  -4  11   37.00   14.20
  -8   4  11   21.40   11.40
  -8   4  11   38.30   16.50
  -7  -4  11  291.37   31.30
   7  -4 -11  258.37   29.70
  -7   4  11  228.98   24.90
  -7   4  11  261.77   30.80
  -6  -4  11  172.88   26.50
   6  -4 -11  195.08   28.40
  -6   4  11  203.48   21.00
  -6   4  11  148.59   23.10
  -5  -4  11 2211.28   80.39
   5  -4 -11 2221.28   77.29
  -5   4  11 2345.27   82.99
   5   4 -11 2379.46   82.49
  -5   4  11 2303.87   67.19
  -4  -4  11   63.99   15.40
   4  -4 -11   66.49   21.30
  -4   4  11   49.10   10.50
   4   4 -11   82.99   16.50
  -4   4  11   50.09   12.90
  -3  -4  11  411.96   29.80
   3  -4 -11  475.05   25.90
  -3   4  11  428.26   17.20
   3   4 -11  441.16   29.10
  -3   4  11  430.26   28.70
  -2  -4  11  575.34   32.90
   2  -4 -11  591.54   22.30
   2   4 -11  621.54   31.80
  -2   4  11  603.84   30.80
  -1  -4  11 2605.84   70.59
   1   4 -11 2420.46   69.59
   1   4 -11 2299.07   62.59
  -1   4  11 2359.66   60.79
   0  -4  11   25.90    7.70
   0   4 -11   27.70    7.30
   0   4 -11   40.50    8.90
   0   4  11   26.50    5.60
   1  -4  11 1049.49   40.20
  -1   4 -11 1003.90   32.10
  -1   4 -11 1060.19   31.50
   2  -4  11   58.99   13.80
   2  -4  11   49.20   11.40
  -2  -4 -11   53.29   10.40
  -2   4 -11   41.10   12.10
  -2   4 -11   49.20    6.70
  -2   4 -11   48.90    6.80
  -3  -4 -11  991.30   39.60
   3  -4  11 1035.90   46.20
  -3   4 -11 1045.50   49.00
   4  -4  11  362.66   26.80
  -4  -4 -11  301.97   24.20
   4   4  11  297.07   15.20
  -4   4 -11  304.47   28.40
  -5  -4 -11  728.23   42.30
   5  -4  11  709.13   40.60
   5   4  11  704.13   29.90
  -5   4 -11  629.54   43.80
  -6  -4 -11   70.39   18.70
   6  -4  11   55.29   13.00
  -6   4 -11   18.10   12.10
   6   4  11   64.89   13.20
  -7  -4 -11  307.57   32.80
   7  -4  11  268.07   28.10
  -7   4 -11  260.27   39.30
   7   4  11  274.77   25.10
  -8  -5  11  349.77   35.70
  -8   5  11  328.77   36.10
  -8   5  11  310.77   31.50
   7  -5 -11  578.24   43.70
  -7  -5  11  720.83   48.10
  -7   5  11  667.53   41.40
  -7   5  11  605.14   45.60
   6  -5 -11  229.78   25.00
  -6  -5  11  123.09   21.10
  -6   5  11  193.88   28.30
  -6   5  11  172.38   19.40
   6   5 -11  181.58   29.50
  -5  -5  11  270.17   27.10
   5  -5 -11  228.48   23.50
   5   5 -11  207.48   24.40
  -5   5  11  227.18   20.20
  -5   5  11  314.47   28.70
   4  -5 -11  429.56   46.30
  -4  -5  11  566.14   37.40
  -4   5  11  578.04   36.70
   4   5 -11  575.14   36.20
  -4   5  11  632.54   27.30
   3  -5 -11  614.94   29.40
  -3  -5  11  584.74   35.80
   3   5 -11  740.93   38.60
  -3   5  11  615.44   21.30
  -3   5  11  666.53   36.50
   2  -5 -11   55.39    8.10
  -2  -5  11   43.00   11.20
   2   5 -11   52.69   12.20
  -2   5  11   41.00   10.00
  -1  -5  11  414.36   27.10
   1   5 -11  352.76   23.40
  -1   5  11  395.36   22.10
   0  -5  11  650.93   33.00
   0   5 -11  700.63   30.10
   0   5 -11  662.13   31.50
   0   5  11  672.43   24.70
   1  -5  11 1209.88   46.50
  -1   5 -11 1202.78   40.20
  -1   5 -11 1225.78   38.50
   2  -5  11  162.58   24.20
  -2  -5 -11  130.39   12.30
   2  -5  11  120.39   18.10
  -2   5 -11  140.79   12.30
  -2   5 -11  158.88   15.50
   3  -5  11  344.77   26.90
  -3  -5 -11  343.47   22.90
  -3   5 -11  325.57   17.10
  -3   5 -11  301.37   27.20
  -3   5 -11  297.77   15.80
  -4  -5 -11  836.62   41.20
   4  -5  11  843.52   44.20
   4   5  11  873.11   27.00
  -4   5 -11  826.22   47.90
  -4   5 -11  819.52   25.70
  -4   5 -11  884.01   27.10
   5  -5  11  930.71   48.90
  -5  -5 -11  945.41   48.50
  -5   5 -11  915.11   54.49
   5   5  11  863.81   32.90
  -6  -5 -11  171.88   28.50
  -6   5 -11  149.29   26.60
   6   5  11  188.48   18.10
  -7  -5 -11   58.49   18.90
  -7   5 -11   69.69   21.20
   7   5  11   59.89   13.40
  -8  -6  11  196.58   29.90
  -8   6  11  184.08   29.50
  -8   6  11  199.88   35.00
   7  -6 -11   41.10   14.90
  -7  -6  11   49.40   15.30
  -7   6  11   26.20   13.50
  -7   6  11   87.09   18.70
   6  -6 -11 1463.65   65.29
  -6  -6  11 1364.36   66.19
  -6   6  11 1454.65   68.89
  -6   6  11 1449.35   57.69
   6   6 -11 1523.05   69.89
  -5  -6  11   97.59   21.10
   5  -6 -11   72.39   16.20
  -5   6  11   69.19   13.90
  -5   6  11   48.50   14.70
  -4  -6  11  404.96   31.80
   4   6 -11  434.36   32.50
  -4   6  11  399.46   22.00
  -4   6  11  416.36   32.00
  -3  -6  11  547.85   35.10
   3  -6 -11  491.85   26.20
  -3   6  11  469.75   19.00
   3   6 -11  478.15   32.30
  -3   6  11  496.45   32.50
   2  -6 -11 2203.18   50.39
  -2  -6  11 2380.66   74.69
   2   6 -11 2353.46   71.79
   2   6 -11 2297.87   79.29
  -2   6  11 2329.07   68.59
  -1  -6  11   -1.90    4.70
   1   6 -11   -0.50    3.60
   1   6 -11    7.50    6.20
  -1   6  11    1.80    4.00
   0  -6  11   30.30    9.10
   0   6 -11   17.20    7.50
   0   6 -11   42.40   16.30
   0   6  11   30.40    6.80
   1  -6  11  452.35   29.00
   1   6  11  415.26   16.00
  -1   6 -11  437.16   24.00
  -1   6 -11  412.26   24.80
   2  -6  11 3478.55   92.19
   2  -6  11 3285.87   98.39
  -2   6 -11 3339.67   79.19
  -2   6 -11 3308.57   76.29
  -3  -6 -11   38.70   10.70
   3  -6  11   37.10   11.80
  -3   6 -11   33.10    7.80
  -3   6 -11   29.50    7.80
   4  -6  11   16.30    7.70
  -4  -6 -11   14.60    8.50
  -4   6 -11   22.40   11.40
  -4   6 -11   19.70    6.40
  -4   6 -11   13.00    5.90
   4   6  11   22.90    5.40
   5  -6  11  418.26   33.20
  -5  -6 -11  449.06   33.60
   5   6  11  360.86   20.70
  -5   6 -11  329.37   33.40
  -5   6 -11  387.26   19.80
  -5   6 -11  418.76   21.20
   6  -6  11 1919.11   79.99
  -6  -6 -11 2008.30   80.19
  -6   6 -11 1956.30   49.10
   6   6  11 2017.20   61.59
  -6   6 -11 1894.11   86.59
  -7  -6 -11  121.39   24.60
   7   6  11  158.68   21.30
  -7   6 -11  124.99   28.60
  -8  -7  11  140.99   27.70
  -8   7  11  129.59   28.40
  -8   7  11  146.79   26.90
  -7  -7  11  203.28   29.20
   7  -7 -11  331.47   34.30
  -7   7  11  261.97   27.10
  -7   7  11  346.27   34.70
   6  -7 -11    6.70    6.80
  -6  -7  11   -5.90    5.80
  -6   7  11   17.60   10.20
  -6   7  11    6.30    6.60
   6   7 -11   19.00   13.30
   5  -7 -11  128.89   22.20
  -5  -7  11   90.29   16.90
  -5   7  11  133.99   21.80
  -5   7  11  111.89   17.00
  -4  -7  11  245.08   25.50
   4  -7 -11  201.68   22.40
  -4   7  11  222.28   16.80
   4   7 -11  232.28   24.60
  -4   7  11  215.98   24.20
  -3  -7  11  643.94   39.60
   3  -7 -11  737.23   32.80
  -3   7  11  774.12   41.10
   3   7 -11  684.33   39.60
  -3   7  11  712.13   25.20
  -2  -7  11  109.69   17.20
   2  -7 -11  145.89   11.10
   2   7 -11  134.29   20.10
  -2   7  11  157.38   17.70
   2   7 -11  138.39   22.70
  -1  -7  11  402.06   28.90
   1   7 -11  395.36   30.10
   1   7 -11  380.46   26.50
  -1   7  11  408.16   24.50
   0  -7  11  201.88   20.70
   0   7 -11  200.48   20.20
   0   7 -11  204.18   18.70
   0   7  11  194.38   14.80
   1  -7  11  344.47   26.80
  -1   7 -11  304.37   21.40
   1   7  11  293.27   15.30
  -1   7 -11  291.27   22.60
   2  -7  11  345.67   30.90
  -2   7 -11  368.16   22.80
  -2   7 -11  353.46   24.30
   3  -7  11  739.03   44.30
  -3   7 -11  824.12   36.50
  -3   7 -11  824.62   34.10
  -3   7 -11  744.13   46.20
  -4  -7 -11  272.57   24.00
   4  -7  11  205.08   23.50
  -4   7 -11  205.38   31.30
   4   7  11  202.68   13.70
  -4   7 -11  249.78   18.20
  -4   7 -11  234.08   18.90
  -5  -7 -11   77.79   17.70
  -5   7 -11   76.09   12.70
  -5   7 -11   78.79   12.30
  -5   7 -11   56.49   18.80
   5   7  11  109.39   11.50
  -6  -7 -11   92.59   20.50
   6  -7  11   78.89   19.30
  -6   7 -11   86.09   12.80
  -6   7 -11  100.79   25.60
   6   7  11   79.39   13.80
  -6   7 -11   70.19   10.80
  -7  -7 -11  327.87   35.00
  -7   7 -11  259.77   40.10
  -7   7 -11  313.77   18.40
   7   7  11  293.97   24.90
  -7  -8  11   81.29   21.60
  -7   8  11   52.79   17.90
  -7   8  11   57.19   16.40
  -6  -8  11 1476.15   69.09
  -6   8  11 1483.05   58.59
  -6   8  11 1431.56   81.49
  -5  -8  11   72.39   17.90
   5  -8 -11   89.59   18.20
  -5   8  11  104.59   21.60
   5   8 -11   83.89   22.10
  -5   8  11   86.19   16.30
   4  -8 -11   79.89   14.90
  -4  -8  11  104.99   21.00
  -4   8  11  109.19   15.40
   4   8 -11  102.19   19.90
  -4   8  11   74.99   17.40
  -3  -8  11   -0.10    5.10
   3  -8 -11   -9.20    3.20
  -3   8  11    6.30    6.40
   3   8 -11   -1.10    6.20
  -3   8  11   -4.20    3.70
  -2  -8  11 2714.13   85.29
  -2   8  11 2653.83   79.49
   2   8 -11 2782.82   83.99
  -2   8  11 2621.04   53.09
   2   8 -11 2810.42   94.59
  -1  -8  11   81.99   15.60
  -1   8  11  126.49   14.70
   1   8 -11  102.49   16.60
   1   8 -11  131.59   21.40
   0  -8  11  175.18   20.70
   0   8 -11  142.99   21.90
   0   8 -11  157.48   18.00
   0   8  11  159.38   14.80
   1  -8  11   51.69   13.00
  -1   8 -11   68.39   13.80
   1   8  11   68.59   10.30
   2  -8  11 2290.77   86.59
   2   8  11 2267.87   54.59
  -2   8 -11 2325.17   71.39
  -2   8 -11 2429.56   68.49
   3  -8  11  404.46   34.80
  -3   8 -11  438.26   28.10
   3   8  11  393.86   18.40
  -3   8 -11  402.26   25.40
   4  -8  11   38.70   13.90
  -4   8 -11   54.29   12.20
   4   8  11   40.70    7.70
  -4   8 -11   47.00   16.60
  -4   8 -11   56.79   11.40
  -5  -8 -11    6.80    7.80
   5  -8  11   -4.70    9.30
  -5   8 -11    8.10    6.00
   5   8  11    9.40    5.60
  -5   8 -11    7.80    5.40
  -5   8 -11    7.90    6.60
  -6   8 -11  814.72   36.70
   6   8  11  718.73   35.30
  -6   8 -11  738.33   41.10
  -6   8 -11  768.12   56.79
  -7  -8 -11  205.48   34.60
  -7   8 -11  162.48   16.60
  -7   8 -11  153.08   29.50
   7   8  11  183.68   20.50
  -7   8 -11  177.68   17.30
  -7  -9  11   -6.90    5.70
  -7   9  11    8.30    9.80
  -7   9  11   19.20    8.10
  -6  -9  11  298.27   31.70
  -6   9  11  267.57   35.50
   5  -9 -11   28.80   11.00
  -5  -9  11   25.90   11.00
  -5   9  11   47.20   13.00
  -5   9  11   53.99   14.60
   5   9 -11   33.10   13.10
  -4  -9  11 3150.78  100.99
   4  -9 -11 3227.08   89.99
  -4   9  11 3217.98   79.69
  -4   9  11 3167.08  101.19
   3  -9 -11   72.79   12.90
  -3  -9  11   67.99   15.50
  -3   9  11   68.59   11.30
  -3   9  11   71.29   16.00
   3   9 -11   78.09   16.60
  -2  -9  11  288.27   26.40
  -2   9  11  247.18   14.40
   2   9 -11  288.37   25.70
  -2   9  11  232.08   22.60
   2   9 -11  223.88   26.60
  -1  -9  11  289.77   26.50
  -1   9  11  300.47   23.40
  -1   9  11  270.87   13.80
   1   9 -11  307.87   26.00
   1   9 -11  271.87   27.10
   0  -9  11 3497.85  100.19
   0   9 -11 3492.05  101.19
   0   9  11 3541.45   84.89
   0   9 -11 3567.74   95.19
   1  -9  11   67.99   15.80
   1   9  11   84.99   12.60
  -1   9 -11   80.89   16.20
  -1   9 -11   66.19   13.40
   2  -9  11   46.40   16.20
  -2   9 -11   52.69   11.80
  -2   9 -11   38.00   11.60
   2   9  11   30.30    7.90
   3  -9  11  447.86   38.10
   3   9  11  360.66   19.40
  -3   9 -11  364.56   27.50
  -3   9 -11  387.26   26.30
   4  -9  11 2052.29   85.09
  -4   9 -11 2191.18   69.89
   4   9  11 1985.40   53.89
  -4   9 -11 1988.70   64.09
   5  -9  11   90.69   21.90
  -5   9 -11  100.69   16.00
  -5   9 -11  101.09   17.50
  -5   9 -11   98.29   24.60
  -6  -9 -11   22.50   12.00
  -6   9 -11   48.70   12.50
  -6   9 -11   48.60   19.50
   6   9  11   45.40   10.60
  -6   9 -11   49.60   12.00
  -7 -10  11    3.10    7.60
  -7  10  11   -1.20    5.60
  -7  10  11  -11.70    9.80
  -6 -10  11   52.49   17.50
  -6  10  11   64.69   18.40
  -6  10  11   88.39   18.50
   5 -10 -11    1.10    6.20
  -5 -10  11    1.50    6.20
  -5  10  11    7.90    7.20
  -5  10  11   -5.60    5.90
  -4 -10  11  113.09   21.90
   4 -10 -11  115.09   18.60
   4  10 -11   92.39   21.80
  -4  10  11  100.79   20.00
  -4  10  11  105.99   15.90
   3 -10 -11   -0.10    6.20
  -3 -10  11   10.80    8.50
  -3  10  11    1.70    5.50
  -3  10  11   -1.30    4.90
   3  10 -11   -0.10    5.60
   3  10 -11    2.80    4.40
  -2 -10  11   64.69   14.70
  -2  10  11   53.09    9.60
   2  10 -11   45.70   15.30
  -2  10  11   32.90   10.80
   2  10 -11   60.39   15.90
  -1 -10  11   24.40    9.70
   1  10 -11    1.10    6.70
   1  10 -11   24.20   10.00
  -1  10  11   19.20    8.00
   0 -10  11   29.60   10.90
   0  10  11   28.70    8.80
   0  10 -11   16.80    9.30
   0  10 -11   43.20   14.90
   1 -10  11   23.00    9.60
   1  10  11   16.40    6.80
  -1  10 -11    8.80    7.60
  -1  10 -11   21.60    9.20
   2 -10  11   14.70    9.70
   2  10  11   -5.30    3.80
  -2  10 -11    1.10    5.90
  -2  10 -11   11.10    7.20
   2  10  11   -3.90    4.80
   3 -10  11   20.60   12.70
  -3  10 -11    8.60    8.40
  -3  10 -11    8.20    6.90
   3  10  11   11.40    6.00
   4 -10  11   21.00   10.70
  -4  10 -11   17.00    9.20
   4  10  11   21.90    7.40
  -4  10 -11    4.70    7.40
  -4  10 -11    8.40    9.80
  -5  10 -11    2.20    6.40
  -5  10 -11    4.70    7.50
   5  10  11    1.50    6.00
  -5  10 -11   -0.30    6.90
  -6  10 -11   13.60    8.80
  -6  10 -11   22.60   14.20
   6  10  11   11.60    9.30
  -6  10 -11   29.50   10.80
  -6 -11  11  163.48   26.90
   6 -11 -11  190.08   31.10
  -6  11  11  134.59   26.50
  -6  11  11  180.38   26.20
   5 -11 -11    0.90    8.00
  -5 -11  11    5.80   10.00
  -5  11  11   31.70   12.50
  -4 -11  11 1909.41  118.79
   4 -11 -11 2241.68   74.59
  -4  11  11 2181.28   66.39
   4  11 -11 1943.31   81.79
  -4  11  11 2350.36   88.19
  -3 -11  11   -5.20    4.70
   3 -11 -11   -4.90    5.60
   3  11 -11   -2.40    8.50
  -3  11  11   -9.70    4.50
  -3  11  11    1.50    5.80
  -2 -11  11   74.29   18.30
  -2  11  11   46.10   14.30
   2  11 -11  100.79   23.40
  -2  11  11   92.69   13.30
  -1 -11  11  315.17   29.50
   1  11 -11  311.47   30.80
  -1  11  11  294.07   25.50
   1  11 -11  296.07   27.00
   0 -11  11 3049.09   97.49
   0  11 -11 3101.79  100.09
   0  11 -11 2972.20   91.19
   0  11  11 2895.61   82.59
  -1  11 -11   26.40   11.10
   1  11  11   15.20    7.00
  -1  11 -11    9.60    6.80
  -2  11 -11   -3.10    5.00
   2  11  11    7.60    5.10
  -2  11 -11  -13.30    4.90
   2  11  11    4.70    4.70
   3 -11  11  125.49   24.40
  -3  11 -11  143.59   21.30
   3  11  11  104.09   14.90
  -3  11 -11  118.99   20.50
   3  11  11  147.79   15.80
   4  11  11 1125.39   43.20
  -4  11 -11 1121.19   67.79
  -4  11 -11 1150.78   50.79
  -4  11 -11 1109.29   53.49
  -5  11 -11   42.90   10.40
   5  11  11   30.00   11.30
  -5  11 -11   61.39   21.50
  -5  11 -11   49.70   13.20
   6  11  11   31.00   10.50
  -6  11 -11  -13.70    8.50
  -6  11 -11   30.50   10.70
  -6  11 -11    1.90    9.90
  -6 -12  11 1299.17   68.19
   6 -12 -11 1119.49   60.59
  -6  12  11 1218.08   70.19
  -6  12  11 1374.96   60.59
   5 -12 -11  105.79   22.20
  -5 -12  11  112.39   21.40
  -5  12  11  177.68   28.40
  -5  12  11  161.18   23.70
   4 -12 -11  107.59   18.30
  -4 -12  11   95.19   21.10
  -4  12  11  138.59   19.90
   4  12 -11   96.09   22.60
  -4  12  11  122.09   24.70
   3  12 -11    4.50    8.30
   3  12 -11    8.10    9.50
  -3  12  11    5.60    6.70
  -3  12  11   -8.60    4.90
  -2 -12  11 1687.33   72.39
  -2  12  11 1558.64   75.79
  -2  12  11 1664.83   68.39
   2  12 -11 1596.94   77.49
  -1 -12  11  135.29   23.50
   1  12 -11  205.08   31.80
  -1  12  11  129.79   21.10
   0 -12  11  411.96   34.70
   0  12 -11  414.86   36.00
   0  12 -11  453.05   33.20
   0  12  11  417.66   29.70
  -1  12 -11   28.80   10.00
   1  12  11   40.50   11.20
  -1  12 -11   73.39   17.30
   2  12  11 1783.32   56.99
   2  12  11 1680.33   66.49
  -2  12 -11 1737.43   72.59
  -2  12 -11 1660.03   65.99
   3  12  11  268.57   36.20
   3  12  11  222.58   19.80
  -3  12 -11  244.38   25.10
  -3  12 -11  251.47   27.10
  -4  12 -11   97.49   17.70
   4  12  11   84.99   14.90
  -4  12 -11   74.19   17.30
  -4  12 -11   80.49   22.60
   5  12  11   -2.20    7.20
  -5  12 -11    9.00   10.20
  -5  12 -11   21.60    9.60
  -5  12 -11    9.90    8.20
   6 -13 -11   -1.00   12.70
  -6 -13  11   11.20    8.80
  -6  13  11   19.20   16.00
  -6  13  11    3.90    8.80
   5 -13 -11  106.49   21.10
  -5 -13  11   76.99   20.40
  -5  13  11  130.19   25.40
  -5  13  11   78.19   16.80
   4 -13 -11    6.60   10.70
  -4 -13  11    9.20    9.20
  -4  13  11    9.20    7.90
   4  13 -11    9.00    9.70
  -4  13  11   23.90    9.30
  -3 -13  11  565.84   43.00
  -3  13  11  541.95   31.40
   3  13 -11  586.44   49.10
  -3  13  11  491.15   39.60
  -2 -13  11    8.30    8.50
  -2  13  11   14.20    7.70
   2  13 -11   14.80   11.10
   2  13 -11   14.20    9.60
  -2  13  11    4.10    8.10
  -1 -13  11  296.27   31.10
  -1  13  11  280.37   27.10
   1  13 -11  301.77   32.20
   1  13 -11  310.87   32.80
   0  13  11   25.60    9.10
   0  13 -11   34.10   13.00
   1  13  11  387.96   28.60
  -1  13 -11  341.57   32.80
   2  13  11   65.39   13.40
  -2  13 -11   53.09   16.40
   2  13  11   66.99   14.80
   3  13  11  451.45   29.20
  -3  13 -11  457.95   38.20
   3  13  11  415.66   30.90
   4  13  11   -2.40    7.70
   4  13  11    5.90    7.00
  -4  13 -11   10.20    8.70
  -4  13 -11   -9.90    6.10
  -5  13 -11  207.68   30.30
  -5  13 -11  152.48   31.40
   5  13  11  154.28   21.70
  -5  13 -11  263.77   26.10
   5 -14 -11  211.58   29.20
  -5 -14  11  146.19   25.40
  -5  14  11  223.48   23.70
  -5  14  11  203.58   35.40
   5  14 -11  201.38   38.10
  -4 -14  11   79.89   22.00
   4 -14 -11   49.60   15.30
  -4  14  11   57.69   14.50
   4  14 -11   60.89   19.80
  -4  14  11   69.19   18.20
  -3 -14  11  165.58   29.30
  -3  14  11  199.98   20.70
   3  14 -11  249.78   38.30
  -3  14  11  210.08   30.50
  -2 -14  11 1087.49   60.69
   2  14 -11 1162.08   67.79
  -2  14  11 1124.79   47.30
  -2  14  11 1190.88   60.99
  -1 -14  11   56.89   17.10
  -1  14  11   33.10   13.00
   1  14 -11   51.09   15.30
   1  14 -11   39.40   15.20
   0  14  11    5.10    6.20
   0  14 -11    0.10    7.60
   0  14 -11   32.40   11.00
  -1  14 -11  302.97   29.60
  -1  14 -11  304.07   32.30
   1  14  11  350.46   28.40
   1  14  11  354.06   26.80
   2  14  11 1186.68   50.09
  -2  14 -11 1096.89   74.89
  -2  14 -11 1194.28   58.59
   2  14  11 1221.48   53.09
   3  14  11   18.90    7.90
  -3  14 -11   12.80    8.60
  -3  14 -11   18.70   10.40
   3  14  11   -7.20    6.40
   4  14  11    1.60    7.30
  -4  14 -11   -5.50   11.20
  -4  14 -11    1.40   11.30
   4  14  11    9.70    8.40
  -4  14 -11   15.40   11.00
  -4 -15  11  546.65   45.20
  -4  15  11  568.74   47.30
  -4  15  11  480.15   33.70
   4  15 -11  475.85   49.00
  -3 -15  11  732.83   51.59
  -3  15  11  618.04   48.00
   3  15 -11  551.74   50.89
  -3  15  11  666.13   38.50
  -2 -15  11   20.10   10.90
  -2  15  11   42.80   16.40
   2  15 -11   65.39   19.90
   1  15 -11   35.60   13.50
  -1  15  11   52.99   15.10
   0  15  11  519.65   37.70
   0  15 -11  701.23   50.79
   1  15  11  401.26   30.10
   1  15  11  377.56   31.30
  -1  15 -11  430.96   39.00
   2  15  11   48.20   13.40
  -2  15 -11   46.40   17.10
   2  15  11   24.60   10.30
  -3  15 -11   34.10   12.00
   3  15  11    1.00    9.00
   3  15  11   26.60   11.50
  -3 -16  11  436.66   41.50
   3  16 -11  434.56   46.30
  -3  16  11  522.55   43.90
  -3  16  11  522.45   35.20
  -2 -16  11   -1.70    7.00
   2  16 -11   12.30   11.20
   1  16 -11 1063.09   65.49
  -1  16  11  986.40   56.09
   0  16  11   59.09   16.40
   0  16 -11   47.70   16.00
   0  16  11   64.59   15.20
   1  16  11  701.23   43.70
  -1  16 -11  665.53   51.59
   1  16  11  612.84   39.30
   2  16  11   34.70   11.40
   2  16  11   33.70   13.90
  -2  16 -11   42.30   17.30
  -2  17  11   14.10    9.60
   2  17 -11   15.80   12.50
   1  17 -11   54.29   18.30
  -1  17  11   83.49   26.70
   0  17 -11  234.28   37.30
   0  17  11  237.78   27.70
   1  17  11   72.59   19.10
  -1  17 -11   47.70   16.30
  -8   0  12   10.70   10.30
  -8   0  12   31.30   12.80
   7   0 -12 1428.26   69.09
  -7   0  12 1286.17   61.49
  -7   0  12 1401.96   69.59
   6   0 -12  347.97   31.20
  -6   0  12  484.45   33.40
  -6   0  12  471.75   37.10
   5   0 -12 2018.20   73.29
  -5   0  12 2104.59   77.49
  -4   0  12   32.90   10.70
   4   0 -12   23.20    8.60
   3   0 -12 1905.41   58.89
  -3   0  12 1956.40   65.29
   2   0 -12  959.60   34.20
  -1   0  12 2545.15   65.99
   0   0  12   36.80    8.10
   0   0 -12   56.69    6.10
   1   0  12  560.24   22.40
  -1   0 -12  592.94   24.50
   2   0  12 1619.94   41.70
  -2   0 -12 1584.54   49.40
   2   0  12 1575.34   44.10
  -3   0 -12 2212.98   66.69
   3   0  12 2110.99   54.69
   4   0  12    8.30    5.10
  -4   0 -12    2.40    6.00
   5   0  12  148.29   19.40
  -5   0 -12  137.59   24.20
   6   0  12  593.24   35.40
  -6   0 -12  604.74   43.70
   7   0  12 1492.45   63.69
  -7   0 -12 1639.14   77.99
  -8  -1  12   45.00   16.50
  -8  -1  12   57.39   16.40
  -8   1  12   58.09   16.40
  -8   1  12   48.10   16.00
   7  -1 -12  464.85   39.20
  -7  -1  12  467.65   38.80
  -7  -1  12  444.86   35.90
   7   1 -12  371.46   38.70
  -7   1  12  460.35   39.40
  -7   1  12  417.76   33.20
   6  -1 -12  128.19   23.10
  -6  -1  12  148.89   26.70
  -6   1  12  120.39   22.30
  -6   1  12  130.19   20.90
  -5  -1  12  649.64   41.20
   5  -1 -12  619.34   38.30
  -5   1  12  581.04   32.40
  -5   1  12  592.34   39.40
   5   1 -12  652.53   39.60
   4  -1 -12  121.19   18.20
  -4  -1  12  120.59   20.00
  -4   1  12  144.79   21.40
   4   1 -12  150.58   17.40
  -3  -1  12  531.25   32.60
   3  -1 -12  531.15   28.60
   3   1 -12  548.65   29.90
  -3   1  12  514.95   31.80
  -2  -1  12  132.59   15.50
   2   1 -12  147.69   13.80
  -2   1  12  144.79   15.90
  -1  -1  12  268.97   19.70
   1   1 -12  255.27   13.90
  -1   1  12  235.68   17.50
   1   1 -12  283.77   15.10
   0  -1  12  124.89   12.80
   0   1  12  108.29   10.60
   1  -1  12  525.15   23.40
  -1  -1 -12  525.65   20.80
   1   1  12  497.85   19.30
  -1   1 -12  496.55   24.30
  -2  -1 -12  135.29   13.10
   2  -1  12  129.59   12.90
   2  -1  12  119.19   11.90
  -2   1 -12  146.99   25.20
   2   1  12  108.99    9.60
   2   1  12  127.59    9.20
  -3  -1 -12  255.97   20.60
   3  -1  12  247.18   18.00
  -3   1 -12  271.57   22.50
   3   1  12  256.37   15.10
  -4  -1 -12  141.19   22.00
   4  -1  12  115.29   15.80
  -4   1 -12  125.99   22.70
   4   1  12  105.99   13.80
   5  -1  12  729.53   37.20
  -5  -1 -12  851.81   46.60
   5   1  12  780.62   35.20
  -5   1 -12  767.02   46.10
   6  -1  12   84.39   17.10
  -6  -1 -12   85.79   21.40
   6   1  12  108.79   17.90
  -6   1 -12   87.99   22.30
  -7  -1 -12  137.09   30.00
  -7   1 -12  140.49   28.60
   7   1  12  127.49   21.10
  -8  -2  12  175.08   30.60
  -8  -2  12  183.18   29.80
  -8   2  12  161.48   26.70
  -8   2  12  151.58   27.20
   7  -2 -12  220.78   26.20
  -7  -2  12  187.08   28.20
  -7   2  12  254.27   29.10
  -7   2  12  251.27   26.00
   6  -2 -12  208.98   23.80
  -6  -2  12  205.68   31.30
  -6   2  12  177.78   19.60
  -6   2  12  246.78   27.90
  -5  -2  12  636.14   41.40
   5  -2 -12  692.53   40.30
  -5   2  12  659.03   33.60
   5   2 -12  753.32   43.30
  -5   2  12  675.23   42.40
  -4  -2  12   43.40   12.60
   4  -2 -12   55.89   13.30
   4   2 -12   57.59   12.70
  -4   2  12   72.89   15.50
  -3  -2  12   67.99   14.30
   3  -2 -12   92.59   14.30
   3   2 -12   86.99   15.00
  -3   2  12   90.59   16.80
   2  -2 -12  657.83   24.50
  -2  -2  12  656.43   34.30
  -2   2  12  631.14   31.90
   2   2 -12  681.23   30.60
  -1  -2  12  904.71   37.90
   1   2 -12  977.10   34.10
  -1   2  12  980.80   35.90
   0  -2  12   79.59   12.90
   0   2  12   69.49   10.10
   1  -2  12  292.97   18.70
  -1  -2 -12  288.37   13.70
  -1   2 -12  355.26   21.60
   1   2  12  297.47   13.30
  -2  -2 -12  428.06   22.00
   2  -2  12  473.55   26.70
   2  -2  12  467.65   24.40
  -2   2 -12  424.26   26.30
  -3  -2 -12 1472.75   50.29
   3  -2  12 1511.05   50.39
   3   2  12 1431.96   36.00
  -3   2 -12 1492.65   56.69
  -4  -2 -12    3.60    8.20
  -4   2 -12   -0.70    6.30
   4   2  12    4.00    4.00
  -5  -2 -12   53.19   15.60
   5  -2  12   49.99   12.10
  -5   2 -12   51.09   16.70
   5   2  12   54.79   10.80
   6  -2  12  255.77   24.30
  -6  -2 -12  226.98   26.50
   6   2  12  225.08   21.00
  -6   2 -12  308.47   47.80
   7  -2  12  602.54   40.80
  -7  -2 -12  582.84   45.40
   7   2  12  530.15   35.10
  -7   2 -12  714.23   72.59
  -8  -3  12   57.59   18.50
  -8   3  12   73.19   18.20
  -8   3  12   85.59   28.20
   7  -3 -12 1015.80   58.09
  -7  -3  12 1022.30   58.69
  -7   3  12 1027.10   60.09
  -7   3  12 1074.59   52.69
   6  -3 -12   41.10   11.70
  -6  -3  12    7.70    8.10
  -6   3  12    1.20    7.80
  -6   3  12    6.80    7.90
   5  -3 -12 1614.04   63.29
  -5  -3  12 1662.43   68.29
  -5   3  12 1498.35   65.09
  -5   3  12 1560.54   52.59
   5   3 -12 1441.66   62.49
  -4  -3  12   44.80   13.40
   4   3 -12   78.09   15.20
  -4   3  12  102.89   13.50
  -4   3  12   90.49   18.90
   3  -3 -12 1547.45   49.30
  -3  -3  12 1463.35   57.59
  -3   3  12 1495.45   56.59
   3   3 -12 1671.53   63.99
   2  -3 -12    5.00    3.20
  -2  -3  12    8.90    6.10
   2   3 -12   -1.30    3.90
  -2   3  12    5.80    5.20
  -1  -3  12 1094.59   44.10
   1   3 -12 1136.79   40.70
   1   3 -12 1103.79   37.30
  -1   3  12 1059.79   37.70
   0  -3  12  515.55   27.30
   0   3  12  481.65   20.70
   0   3 -12  500.55   20.10
   0   3 -12  514.85   20.90
   1  -3  12 2000.40   57.29
   2  -3  12  101.39   16.10
   2  -3  12  120.29   16.40
  -2  -3 -12   97.59   10.70
  -2   3 -12  111.19   18.00
  -3  -3 -12  553.04   29.20
   3  -3  12  540.95   30.90
  -3   3 -12  538.05   34.00
   4  -3  12  573.94   33.30
  -4  -3 -12  573.64   33.90
   4   3  12  570.44   22.70
  -4   3 -12  476.95   55.19
   5  -3  12 1481.35   58.59
  -5  -3 -12 1464.25   61.79
   5   3  12 1423.96   45.90
  -5   3 -12 1412.06   65.79
   6  -3  12  229.98   24.90
  -6  -3 -12  267.67   28.10
  -6   3 -12  263.87   30.50
   6   3  12  281.87   21.80
   7  -3  12   78.99   18.70
  -7  -3 -12   83.89   20.10
  -7   3 -12   58.09   19.80
   7   3  12   88.19   17.00
  -8  -4  12  600.74   47.10
  -8   4  12  537.55   46.50
   7  -4 -12  260.27   29.90
  -7  -4  12  180.78   27.20
  -7   4  12  271.37   26.40
  -7   4  12  263.07   30.60
  -6  -4  12    3.10    7.40
   6  -4 -12   -0.20    7.90
  -6   4  12   -2.70    5.50
   6   4 -12  -12.90    8.40
  -6   4  12   -1.90    6.10
  -5  -4  12   81.39   17.90
   5  -4 -12   92.69   18.30
  -5   4  12   99.19   20.30
  -5   4  12  109.19   16.90
   5   4 -12   72.79   14.70
  -4  -4  12 1055.39   51.49
   4  -4 -12  939.51   44.10
  -4   4  12  995.00   34.20
   4   4 -12 1039.20   49.50
  -4   4  12 1006.20   49.60
  -3  -4  12  319.77   26.90
   3  -4 -12  323.07   21.00
   3   4 -12  312.77   24.90
  -3   4  12  316.17   25.50
   2  -4 -12    9.20    3.50
  -2  -4  12    6.70    6.30
   2   4 -12   10.80    7.10
   2   4 -12    9.90    6.00
  -2   4  12    7.10    6.00
  -1  -4  12  102.19   16.60
   1   4 -12  113.59   16.50
   1   4 -12   82.29   12.80
  -1   4  12   99.99   11.70
   0  -4  12 1698.53   61.29
   0   4 -12 1621.04   47.00
   0   4 -12 1576.34   44.60
   0   4  12 1638.24   42.40
   1  -4  12  962.60   39.10
  -1   4 -12  884.51   27.10
  -1   4 -12  927.61   28.60
   2  -4  12    8.20    7.80
   2  -4  12   15.20   11.30
  -2  -4 -12   20.20    6.50
  -2   4 -12    4.30    6.30
  -3  -4 -12  181.18   17.00
   3  -4  12  158.18   18.20
  -3   4 -12  176.58   24.80
   4  -4  12 1017.70   47.60
  -4  -4 -12 1082.39   47.20
   4   4  12 1038.10   30.60
  -4   4 -12 1070.49   53.89
   5  -4  12  598.54   38.00
  -5  -4 -12  592.84   38.20
   5   4  12  617.44   27.80
  -5   4 -12  571.94   41.50
   6  -4  12    2.20    9.10
  -6  -4 -12   26.30   12.20
   6   4  12    2.90    6.40
  -6   4 -12    5.10    9.00
  -7  -4 -12   66.09   18.40
  -7   4 -12   54.69   19.70
   7   4  12   59.39   15.40
  -8  -5  12    7.90   10.70
  -8   5  12   -8.20    8.40
  -8   5  12    1.70    9.40
   7  -5 -12  506.25   40.20
  -7  -5  12  477.15   40.00
  -7   5  12  556.54   37.30
  -7   5  12  504.85   41.90
   6  -5 -12  842.82   48.10
  -6  -5  12  970.60   81.99
  -6   5  12  798.02   40.50
  -6   5  12  952.00   54.89
   6   5 -12  936.51   52.79
   5  -5 -12   52.49   15.20
  -5  -5  12   55.39   15.60
  -5   5  12   81.19   18.10
   5   5 -12   60.79   15.40
  -5   5  12   45.20   10.70
  -4  -5  12  104.69   19.40
   4  -5 -12  118.99   17.70
  -4   5  12  105.69   13.80
  -4   5  12  111.99   19.10
   4   5 -12   92.19   17.40
  -3  -5  12 1520.05   60.69
   3  -5 -12 1611.64   49.10
   3   5 -12 1643.34   60.29
  -3   5  12 1542.95   58.49
  -2  -5  12  782.52   40.10
   2   5 -12  712.83   40.70
  -2   5  12  718.83   35.40
   2   5 -12  757.62   48.60
  -1  -5  12   13.80    7.50
   1   5 -12   23.80    8.00
  -1   5  12   18.20    6.60
   1   5 -12   27.40    8.80
   0  -5  12  227.98   20.50
   0   5 -12  239.68   17.50
   0   5 -12  249.48   18.90
   0   5  12  227.38   14.50
   1  -5  12 1247.08   48.10
  -1   5 -12 1191.78   39.00
  -1   5 -12 1241.18   37.90
   2  -5  12 1537.55   61.79
  -2  -5 -12 1536.35   43.80
   2  -5  12 1652.83   57.69
  -2   5 -12 1535.25   41.10
  -2   5 -12 1564.14   40.00
  -2   5 -12 1551.74   60.49
  -3  -5 -12    4.10    5.40
   3  -5  12   19.30    8.30
  -4  -5 -12  593.34   35.00
   4  -5  12  645.54   38.70
  -4   5 -12  638.54   42.30
   4   5  12  648.44   22.50
  -5  -5 -12  613.84   38.90
   5  -5  12  587.74   39.20
   5   5  12  655.43   27.90
  -5   5 -12  638.94   45.60
  -6  -5 -12  331.97   31.30
   6  -5  12  345.17   32.10
   6   5  12  251.57   20.90
  -6   5 -12  307.77   34.00
  -7  -5 -12   95.39   23.50
   7   5  12   87.29   16.60
  -7   5 -12   56.79   18.30
  -8  -6  12   19.60   12.90
  -8   6  12   30.70   10.90
  -8   6  12   33.90   14.90
  -7  -6  12  355.36   35.10
   7  -6 -12  341.77   33.40
  -7   6  12  351.56   36.40
  -7   6  12  358.46   29.70
  -6  -6  12   51.79   15.20
   6  -6 -12   80.69   17.10
   6   6 -12   62.09   18.00
  -6   6  12   44.70   11.40
  -6   6  12   53.79   14.10
   5  -6 -12  145.29   22.00
  -5  -6  12  143.19   21.80
  -5   6  12  183.48   28.10
  -5   6  12  167.58   16.90
   4  -6 -12  362.36   25.90
  -4  -6  12  374.56   31.10
  -4   6  12  364.26   19.80
   4   6 -12  380.96   30.30
  -4   6  12  330.07   28.70
  -3  -6  12  632.84   38.80
   3  -6 -12  707.83   30.60
  -3   6  12  783.42   40.90
   3   6 -12  660.93   38.50
  -2  -6  12  229.28   23.10
   2   6 -12  196.48   20.20
  -2   6  12  196.28   23.10
   2   6 -12  252.47   25.10
  -1  -6  12 1048.50   46.60
  -1   6  12 1051.29   39.30
   1   6 -12 1050.69   47.10
   1   6 -12 1078.79   43.40
   0  -6  12  252.07   22.50
   0   6 -12  262.97   22.00
   0   6  12  224.08   15.40
   0   6 -12  220.88   18.10
   1  -6  12  439.46   29.50
  -1   6 -12  452.25   25.40
  -1   6 -12  457.85   24.00
   1   6  12  441.86   16.90
   2  -6  12  347.77   27.40
   2  -6  12  320.77   29.40
  -2   6 -12  331.77   19.40
  -2   6 -12  346.67   20.60
  -3  -6 -12 1152.98   43.60
   3  -6  12 1028.80   51.89
  -3   6 -12 1063.49   35.30
  -3   6 -12 1056.59   53.89
  -3   6 -12 1083.99   34.50
  -4  -6 -12  296.27   24.50
   4  -6  12  338.27   28.40
  -4   6 -12  321.17   16.50
  -4   6 -12  292.67   16.10
  -4   6 -12  275.47   29.00
   4   6  12  300.67   14.70
  -5  -6 -12  309.17   27.80
   5  -6  12  323.37   30.30
   5   6  12  269.87   17.70
   6  -6  12  105.39   22.60
  -6  -6 -12  108.79   23.70
   6   6  12   98.99   15.60
  -6   6 -12   62.29   18.00
  -7  -6 -12  264.57   31.10
   7   6  12  296.47   24.40
  -7   6 -12  216.38   35.30
   7  -7 -12    8.90   12.80
  -7  -7  12   32.50   14.90
  -7   7  12    7.50    7.90
  -7   7  12   15.50   10.60
   6  -7 -12 1800.32   73.29
  -6  -7  12 1805.92   78.59
  -6   7  12 1867.71   64.69
  -6   7  12 1767.02  101.19
  -5  -7  12  195.78   28.40
   5  -7 -12  214.98   22.20
  -5   7  12  177.18   17.10
  -5   7  12  185.98   26.50
  -4  -7  12    4.70    6.10
   4  -7 -12   12.00    7.60
  -4   7  12   19.20    6.50
  -4   7  12   18.40    9.30
   4   7 -12    2.10    6.60
  -3  -7  12    5.70    5.90
   3  -7 -12    3.30    4.80
   3   7 -12   10.50    6.70
  -3   7  12   -0.10    5.30
  -2  -7  12 3516.15   98.59
  -2   7  12 3344.07   89.59
   2   7 -12 3353.96  103.49
   2   7 -12 3461.85   94.49
  -1  -7  12  377.86   28.70
  -1   7  12  360.36   23.40
   1   7 -12  370.06   26.00
   1   7 -12  336.97   27.60
   0  -7  12  148.99   20.70
   0   7 -12  157.18   17.70
   0   7 -12  176.78   17.30
   0   7  12  142.69   13.20
   1  -7  12   46.10   13.20
  -1   7 -12   45.40    9.80
  -1   7 -12   60.59   12.40
   1   7  12   73.69    7.80
   2  -7  12 2234.28   84.09
  -2   7 -12 2375.76   79.69
  -2   7 -12 2310.77   62.59
   3  -7  12  844.92   49.30
  -3   7 -12  794.62   47.80
  -3   7 -12  903.21   39.40
  -3   7 -12  900.91   34.60
  -4  -7 -12  310.07   25.20
   4  -7  12  261.77   27.60
  -4   7 -12  292.97   30.80
  -4   7 -12  295.17   19.40
  -4   7 -12  304.07   18.80
   4   7  12  293.97   15.20
   5  -7  12   59.29   15.30
  -5  -7 -12   43.10   12.80
  -5   7 -12   66.39   10.40
  -5   7 -12   66.69   19.50
   5   7  12   69.49   11.20
  -5   7 -12   63.89   10.40
  -6  -7 -12 1549.94   74.49
  -6   7 -12 1618.44   82.09
   6   7  12 1460.95   50.69
  -6   7 -12 1557.94   41.10
  -7  -7 -12  663.33   48.70
  -7   7 -12  635.04   53.09
   7   7  12  621.14   36.00
  -7  -8  12   26.40   14.80
  -7   8  12    1.10    8.20
  -7   8  12   26.70   10.60
   6  -8 -12   27.20   11.40
  -6   8  12   47.90   12.30
  -6   8  12   48.20   15.70
   5  -8 -12  171.68   23.30
  -5  -8  12  193.38   29.00
  -5   8  12  179.88   27.80
   5   8 -12  185.48   29.20
  -5   8  12  210.88   18.80
  -4  -8  12 1679.93   69.79
   4  -8 -12 1440.36   66.49
  -4   8  12 1540.95   66.49
  -4   8  12 1547.25   45.70
   3  -8 -12   60.29   11.00
  -3  -8  12   42.90   13.90
   3   8 -12   52.39   14.70
  -3   8  12   51.79    7.90
  -3   8  12   44.10   13.30
  -2  -8  12   79.29   17.90
  -2   8  12  101.49   17.00
   2   8 -12  108.39   20.40
   2   8 -12   83.99   17.00
  -1  -8  12  551.84   35.90
   1   8 -12  599.64   38.20
   1   8 -12  533.75   32.70
  -1   8  12  541.55   30.10
   0  -8  12 1122.39   51.49
   0   8 -12 1260.07   52.79
   0   8 -12 1148.89   47.40
   0   8  12 1189.18   41.20
   1  -8  12   21.80   10.40
  -1   8 -12    7.30    6.40
   1   8  12   24.30    6.60
   2  -8  12  332.77   32.50
   2   8  12  330.17   16.60
  -2   8 -12  306.57   23.80
  -2   8 -12  313.07   22.60
   3  -8  12  468.05   38.20
  -3   8 -12  494.55   39.20
   3   8  12  471.15   19.20
  -3   8 -12  547.05   28.70
  -3   8 -12  538.25   30.10
   4  -8  12  787.22   62.99
   4   8  12  804.62   27.80
  -4   8 -12  702.83   49.00
  -4   8 -12  750.02   35.10
  -4   8 -12  810.82   34.60
   5  -8  12   55.29   15.20
  -5  -8 -12   53.09   15.40
   5   8  12   74.29   11.20
  -5   8 -12   73.19   20.00
  -5   8 -12   52.69   10.30
  -5   8 -12   76.59   12.70
  -6  -8 -12  254.67   41.10
  -6   8 -12  238.58   37.70
  -6   8 -12  277.47   18.60
   6   8  12  261.07   20.70
  -6   8 -12  321.07   20.70
  -7  -9  12   -5.20   11.90
  -7   9  12    7.60    8.60
  -7   9  12   12.40    7.50
  -6  -9  12  399.66   36.70
  -6   9  12  462.25   40.10
  -6   9  12  347.57   27.50
   5  -9 -12   84.99   16.30
  -5  -9  12   65.59   15.60
  -5   9  12   87.09   15.40
   5   9 -12  100.69   23.00
  -5   9  12   51.69   15.80
  -4  -9  12  133.19   23.80
  -4   9  12  116.29   15.30
  -4   9  12  100.49   18.90
  -3  -9  12   33.30   11.90
   3  -9 -12   46.50   10.10
   3   9 -12   34.20   11.30
  -3   9  12   30.30    6.90
  -3   9  12   44.00   13.20
   3   9 -12    7.00    8.00
  -2  -9  12  507.25   35.70
  -2   9  12  520.35   33.70
   2   9 -12  552.14   35.80
   2   9 -12  487.95   38.50
  -1  -9  12   20.50   10.20
   1   9 -12    2.10    6.90
   1   9 -12   18.00    8.80
   0  -9  12   12.80    8.20
   0   9 -12   -1.30    6.00
   0   9  12    0.30    4.40
   0   9 -12   -1.10    4.80
   1  -9  12   43.90   12.10
   1   9  12   21.20    6.90
  -1   9 -12   15.80    8.70
  -1   9 -12   24.10    9.00
   2  -9  12  377.36   36.70
   2   9  12  408.46   21.00
  -2   9 -12  416.86   27.50
  -2   9 -12  474.75   31.10
   3  -9  12  160.98   28.40
   3   9  12  127.19   11.80
  -3   9 -12  160.38   18.80
  -3   9 -12  152.88   17.00
   4  -9  12    0.20    8.20
  -4   9 -12    0.10    5.00
   4   9  12    4.50    4.80
  -4   9 -12    3.70    6.10
  -4   9 -12    0.60    8.80
   5   9  12    6.60    5.30
  -5   9 -12    2.80    7.50
  -5   9 -12   -1.30    6.00
  -5   9 -12   -2.70    6.50
  -6   9 -12  124.19   27.30
  -6   9 -12  172.08   17.80
   6   9  12  230.78   19.40
  -7 -10  12   17.60    9.90
  -7  10  12   47.00   14.60
  -7  10  12   43.00   15.60
  -6 -10  12   -5.70    6.50
  -6  10  12    1.90   10.00
   5 -10 -12   62.39   15.70
  -5 -10  12   61.59   17.50
  -5  10  12   68.49   18.10
  -5  10  12   96.29   16.40
   4 -10 -12 2493.15   85.19
  -4 -10  12 2469.35  110.59
   4  10 -12 2322.57   87.99
  -4  10  12 2361.46   87.89
  -4  10  12 2396.46   81.99
   3 -10 -12  185.48   17.20
  -3 -10  12  194.78   29.50
  -3  10  12  220.78   15.60
  -3  10  12  237.28   25.40
   3  10 -12  241.38   35.70
  -2 -10  12   27.60   10.40
   2  10 -12   49.00   11.90
  -2  10  12   45.00   13.10
   2  10 -12   20.30   10.20
  -1 -10  12   70.39   15.70
   1  10 -12   59.39   15.10
   1  10 -12  113.19   18.60
  -1  10  12   83.19   15.50
   0 -10  12 2824.52   92.69
   0  10 -12 3026.90   88.59
   0  10  12 2834.32   77.39
   0  10 -12 2904.01   93.29
   1 -10  12  389.46   32.80
  -1  10 -12  463.25   31.20
  -1  10 -12  488.45   34.20
   1  10  12  452.35   25.30
  -2  10 -12  272.37   25.10
   2  10  12  275.97   18.90
  -2  10 -12  264.77   23.50
   3 -10  12  133.79   28.50
  -3  10 -12  151.18   20.20
  -3  10 -12  121.59   20.20
   3  10  12  124.09   12.60
  -4  10 -12 1213.38   69.29
  -4  10 -12 1439.86   53.69
   4  10  12 1217.78   41.70
  -4  10 -12 1351.46   55.19
  -5  10 -12  721.03   36.90
  -5  10 -12  667.83   37.50
   5  10  12  670.83   31.50
  -5  10 -12  700.93   54.19
  -6  10 -12  529.85   49.00
  -6  10 -12  446.46   29.20
  -6  10 -12  489.95   30.30
   6  10  12  453.95   28.30
  -6 -11  12  894.11   56.49
  -6  11  12  764.82   42.00
  -6  11  12  923.81   60.09
  -5 -11  12  101.19   19.30
   5 -11 -12  176.88   24.80
  -5  11  12  133.39   25.40
  -5  11  12  182.68   19.10
  -4 -11  12   -0.70    6.70
   4 -11 -12   17.50    8.20
  -4  11  12   -1.90    5.30
  -3 -11  12    5.70    6.50
   3  11 -12  -15.30    5.60
  -3  11  12    0.20    5.90
  -3  11  12   -9.90    5.80
   3  11 -12    6.70   11.60
  -2 -11  12  886.61   50.59
  -2  11  12  789.82   28.80
   2  11 -12  844.22   53.79
  -2  11  12  807.52   45.20
  -1 -11  12  239.78   26.60
  -1  11  12  256.27   24.20
   1  11 -12  272.97   29.00
   1  11 -12  286.97   26.30
   0 -11  12    1.50    8.80
   0  11 -12   17.00    9.60
   0  11 -12    8.10    8.30
   0  11  12   15.60    7.10
  -1  11 -12  -14.90    5.60
  -1  11 -12    0.80    6.50
   1  11  12   -1.30    4.60
  -2  11 -12  675.53   38.30
  -2  11 -12  662.83   40.80
   2  11  12  648.84   31.30
   2  11  12  593.44   29.10
   3 -11  12  403.56   63.19
   3  11  12  329.97   20.90
  -3  11 -12  285.37   26.80
  -3  11 -12  293.67   25.10
   3  11  12  314.57   23.10
  -4  11 -12   -8.90    6.40
   4  11  12    3.10    7.90
  -4  11 -12    9.00    9.40
  -4  11 -12   -7.00    6.40
  -5  11 -12   29.90   10.60
   5  11  12   38.50    9.60
  -5  11 -12   23.20   11.20
  -5  11 -12   27.70   14.40
  -6 -12  12   13.30   11.10
   6 -12 -12   13.90   12.30
  -6  12  12    5.70    8.20
  -6  12  12   -0.40    9.10
  -5 -12  12  307.47   33.70
   5 -12 -12  307.97   29.20
  -5  12  12  348.37   34.80
  -5  12  12  305.87   25.20
  -4 -12  12  396.46   35.80
   4 -12 -12  387.26   30.00
  -4  12  12  431.26   37.40
  -4  12  12  436.36   26.90
   4  12 -12  375.46   41.00
  -3 -12  12   -4.70    7.10
  -3  12  12  -13.60    6.20
   3  12 -12    5.20    8.90
  -2 -12  12   52.19   16.80
  -2  12  12   59.39   15.40
   2  12 -12   31.80   14.70
   2  12 -12   58.99   17.70
  -2  12  12   74.39   11.90
  -1 -12  12  362.56   33.10
   1  12 -12  374.16   34.50
  -1  12  12  301.87   27.40
   0 -12  12  563.94   40.50
   0  12 -12  483.35   34.40
   0  12 -12  532.65   40.10
   0  12  12  491.85   32.50
  -1  12 -12   11.80    7.40
  -1  12 -12    5.30    7.70
   1  12  12    5.20    5.90
  -2  12 -12  223.48   24.80
   2  12  12  207.98   18.70
  -2  12 -12  210.78   22.40
   2  12  12  189.48   18.40
  -3  12 -12  273.47   25.50
  -3  12 -12  304.87   29.10
   3  12  12  281.77   21.50
   3  12  12  271.67   22.60
   4  12  12  250.27   20.90
  -4  12 -12  267.27   27.10
  -4  12 -12  312.47   46.90
  -4  12 -12  288.87   25.60
  -5  12 -12   57.89   22.20
   5  12  12   58.99   12.50
  -5  12 -12   63.09   15.90
  -5  12 -12   25.10   12.60
  -5 -13  12   87.19   21.60
   5 -13 -12   48.30   15.40
  -5  13  12   84.49   16.30
  -5  13  12   49.20   17.40
  -4 -13  12   90.79   21.10
   4 -13 -12   96.99   16.30
   4  13 -12   95.89   26.50
  -4  13  12   69.39   18.40
  -4  13  12   76.49   15.10
  -3 -13  12   40.10   14.00
   3  13 -12   64.59   19.50
  -3  13  12   70.49   12.50
  -3  13  12   29.70   12.30
  -2 -13  12 1906.21   80.39
  -2  13  12 1815.62   73.79
   2  13 -12 1658.33  105.29
  -2  13  12 1827.22   67.39
   2  13 -12 1828.82   78.09
  -1 -13  12   95.39   20.50
  -1  13  12  142.29   23.00
   1  13 -12  128.39   21.10
   1  13 -12  114.99   24.10
   0 -13  12  131.39   23.50
   0  13  12  122.59   20.10
   0  13 -12   99.19   20.30
   1  13  12  123.49   19.50
  -1  13 -12  104.29   21.30
  -2  13 -12 1290.07   63.79
   2  13  12 1295.87   52.09
   2  13  12 1294.17   49.60
   3  13  12  394.36   27.40
   3  13  12  404.26   28.80
  -3  13 -12  398.96   35.10
   4  13  12   76.29   15.30
  -4  13 -12   60.89   21.50
  -4  13 -12   45.70   15.10
   4  13  12   67.89   14.60
  -5 -14  12  144.19   26.40
   5 -14 -12  152.58   25.00
   5  14 -12   88.89   23.10
  -4 -14  12  222.38   35.40
  -4  14  12  168.98   31.50
  -4  14  12  186.28   19.50
   4  14 -12  155.18   30.60
  -3 -14  12  566.34   44.00
  -3  14  12  553.74   43.30
   3  14 -12  585.54   49.99
  -3  14  12  544.45   31.20
  -2 -14  12   -7.20    8.00
  -2  14  12  -15.20    7.00
   2  14 -12    9.60   10.40
  -2  14  12    1.10    7.10
  -1 -14  12  509.45   41.80
   1  14 -12  536.85   43.90
  -1  14  12  530.05   38.20
   0  14 -12  665.73   44.70
   0  14 -12  614.84   48.70
   0  14  12  572.74   37.80
   1  14  12  421.36   29.40
  -1  14 -12  509.25   38.00
   1  14  12  468.15   33.10
  -1  14 -12  420.06   70.99
  -2  14 -12   30.10   11.10
   2  14  12   28.90    9.90
   2  14  12   16.60    9.10
  -2  14 -12    1.30    7.30
  -3  14 -12  329.97   34.00
  -3  14 -12  356.36   32.20
   3  14  12  322.07   26.90
   3  14  12  345.47   25.60
  -4  14 -12  463.85   38.10
   4  14  12  400.26   28.80
   4  14  12  429.36   33.60
  -4  14 -12  381.46   35.50
  -4  14 -12  418.86   45.80
  -4 -15  12   99.59   21.70
  -4  15  12  120.29   24.70
  -4  15  12  139.89   31.40
   4  15 -12   91.89   26.50
  -3 -15  12  825.02   56.09
  -3  15  12  796.12   54.19
  -3  15  12  780.12   39.30
   3  15 -12  871.41   62.19
  -2 -15  12  203.98   30.80
  -2  15  12  270.57   30.00
  -2  15  12  232.68   21.60
   2  15 -12  194.18   32.30
   1  15 -12   27.30   12.80
  -1  15  12   57.99   14.90
   0  15 -12  148.79   28.00
   0  15  12  202.78   27.70
   1  15  12  956.00   47.10
   1  15  12  939.41   49.10
  -1  15 -12  934.61   58.79
   2  15  12  146.29   21.50
   2  15  12  175.08   24.90
  -2  15 -12  137.89   27.20
  -3  15 -12   16.40   12.90
   3  15  12   43.90   11.10
   3  15  12   28.20   11.50
  -3  16  12   11.10   11.50
  -2 -16  12   -5.60    8.40
   2  16 -12    4.90   12.50
  -2  16  12    5.40   10.20
   1  16 -12   14.50   12.10
  -1  16  12   22.30   12.10
   0  16 -12  360.36   39.80
   0  16  12  381.06   33.20
   1  16  12  155.78   22.50
   1  16  12   95.29   18.40
  -1  16 -12  122.69   24.60
   2  16  12   33.00   10.50
   2  16  12    4.70    9.90
  -2  16 -12   38.60   14.00
  -8   0  13    7.20    9.30
  -8   0  13  -12.80    7.00
  -7   0  13    2.10    8.10
  -7   0  13    6.40    7.90
   7   0 -13  -14.60   10.60
  -6   0  13   -2.30    4.00
   6   0 -13    3.10    5.90
   5   0 -13  -10.90    6.60
  -5   0  13    3.80    5.70
   4   0 -13   -6.60    3.70
  -4   0  13   -3.40    4.50
  -3   0  13   -0.80    4.20
   3   0 -13    1.30    4.60
  -2   0  13    3.40    4.80
   2   0 -13    2.00    3.50
  -1   0  13    2.40    4.30
   0   0 -13    1.00    2.80
   0   0  13   -1.30    3.10
   1   0  13    4.50    3.80
  -1   0 -13  -11.00    3.70
   2   0  13   -3.10    3.30
   2   0  13    7.30    4.60
  -2   0 -13    7.70    5.60
  -3   0 -13    3.70    5.30
  -4   0 -13    4.60    5.80
   4   0  13   -1.40    3.90
   5   0  13    6.00    5.90
  -5   0 -13   -6.90    4.80
   6   0  13    6.40    6.50
  -6   0 -13    3.20   10.40
  -7   0 -13   -2.90    7.30
   7   0  13    9.10    8.80
  -8  -1  13   18.20   12.60
  -8  -1  13   12.80   10.80
  -8   1  13   29.10   11.60
  -8   1  13   29.30   15.30
  -7  -1  13  195.48   31.20
   7  -1 -13  173.08   30.00
  -7   1  13  141.19   25.90
  -7   1  13  184.98   27.70
   6  -1 -13  558.24   39.40
  -6  -1  13  524.75   40.20
  -6   1  13  631.54   43.40
  -6   1  13  601.04   36.50
  -5  -1  13 2152.18   79.99
   5  -1 -13 2129.89   75.39
   5   1 -13 2218.78   77.79
  -5   1  13 2190.38   80.59
   4  -1 -13  224.88   21.40
  -4  -1  13  268.97   25.50
  -4   1  13  259.57   24.90
   4   1 -13  284.07   24.50
  -3  -1  13   98.19   18.00
   3  -1 -13  113.99   16.10
  -3   1  13   95.99   17.30
   3   1 -13   86.69   14.50
   2  -1 -13 1463.35   40.60
  -2  -1  13 1561.04   54.99
   2   1 -13 1538.05   46.10
  -2   1  13 1476.05   52.39
   2   1 -13 1459.05   49.30
  -1  -1  13 2619.34   70.09
  -1   1  13 2706.93   68.29
   1   1 -13 2511.85   52.39
   1   1 -13 2520.65   52.19
   0  -1  13  252.47   17.70
   0   1  13  244.08   16.00
   0   1 -13  210.08   14.20
  -1  -1 -13    0.00    3.30
   1  -1  13    9.20    5.00
  -1   1 -13    3.60    4.90
   1   1  13    5.70    3.90
   2  -1  13  897.81   37.10
  -2  -1 -13  991.20   36.10
   2  -1  13  976.20   34.80
   2   1  13  947.61   31.50
   2   1  13  960.40   28.60
  -2   1 -13 1021.20   40.50
  -3  -1 -13 1878.41   59.89
   3  -1  13 1888.81   55.89
   3   1  13 1903.01   48.60
  -3   1 -13 1927.31   63.99
   4  -1  13  409.96   25.10
  -4  -1 -13  419.06   29.90
   4   1  13  358.86   20.90
  -4   1 -13  395.76   30.40
  -5  -1 -13   10.90    8.30
   5  -1  13   24.40    7.40
   5   1  13   18.90    7.40
  -5   1 -13   32.80   12.30
  -6  -1 -13  300.87   30.60
   6  -1  13  279.77   25.60
   6   1  13  303.77   24.50
  -6   1 -13  225.48   37.00
  -7  -1 -13 1248.38   67.59
   7  -1  13 1231.48   58.39
  -7   1 -13 1163.78   66.99
   7   1  13 1219.38   55.29
  -8  -2  13   70.39   19.60
  -8   2  13   77.89   22.60
  -8   2  13   65.39   18.60
   7  -2 -13 1067.09   60.09
  -7  -2  13 1092.99   61.99
  -7   2  13 1142.39   54.29
  -7   2  13 1174.68   63.99
  -6  -2  13  213.88   30.90
   6  -2 -13  215.98   24.60
  -6   2  13  229.08   26.60
  -6   2  13  251.27   23.00
   5  -2 -13  443.86   32.40
  -5  -2  13  428.06   34.20
   5   2 -13  414.76   32.20
  -5   2  13  459.95   35.40
  -5   2  13  403.36   25.50
  -4  -2  13  295.87   27.10
   4  -2 -13  275.37   30.30
   4   2 -13  280.07   24.60
  -4   2  13  290.97   26.70
   3  -2 -13 1840.22   54.79
  -3  -2  13 1668.13   62.89
   3   2 -13 1792.12   59.29
  -3   2  13 1762.52   62.69
  -2  -2  13  524.15   31.40
   2  -2 -13  521.85   19.70
   2   2 -13  532.25   30.10
  -2   2  13  569.64   46.30
   2   2 -13  539.05   27.10
  -1  -2  13  161.98   23.00
   1   2 -13  155.18   11.90
   1   2 -13  161.28   12.60
  -1   2  13  167.48   15.20
   0  -2  13  238.88   18.50
   0   2  13  243.78   15.80
   1  -2  13 1574.94   47.90
  -1  -2 -13 1522.45   36.00
   1   2  13 1517.75   37.50
  -1   2 -13 1539.95   49.70
   2  -2  13  670.73   30.70
   2  -2  13  711.83   34.80
  -2  -2 -13  692.13   28.50
   2   2  13  691.13   20.80
   2   2  13  692.13   22.90
  -2   2 -13  707.03   34.60
   3  -2  13  136.79   15.20
  -3  -2 -13  129.69   18.30
  -3   2 -13  113.79   19.50
   3   2  13  100.89   11.30
  -4  -2 -13  292.17   24.60
   4  -2  13  256.97   21.90
   4   2  13  287.67   17.30
  -4   2 -13  320.87   51.59
   5  -2  13 1037.60   46.40
  -5  -2 -13  972.20   50.29
  -5   2 -13 1029.90   54.59
   5   2  13 1021.10   39.40
  -6  -2 -13  503.15   39.40
   6  -2  13  520.55   35.60
  -6   2 -13  549.45   43.10
   6   2  13  501.65   30.90
  -7  -2 -13    9.40   12.50
   7  -2  13    2.20    7.70
  -7   2 -13    5.50    7.90
   7   2  13   10.80    9.00
  -8  -3  13  370.06   37.60
  -8   3  13  322.07   35.90
  -7  -3  13    2.00    8.80
   7  -3 -13   21.60   11.00
  -7   3  13   15.40    8.30
  -7   3  13   27.60   12.40
   6  -3 -13  228.78   25.90
  -6  -3  13  307.77   50.39
  -6   3  13  308.17   31.20
  -6   3  13  264.87   22.80
  -5  -3  13   36.10   12.20
   5  -3 -13   43.00   11.90
  -5   3  13   51.69   13.60
  -5   3  13   57.39   11.30
   5   3 -13   51.99   14.00
  -4  -3  13  651.63   40.30
   4  -3 -13  694.93   37.30
   4   3 -13  673.63   38.70
  -4   3  13  660.93   40.20
  -3  -3  13  422.36   30.70
   3  -3 -13  439.76   24.20
   3   3 -13  442.36   28.50
  -3   3  13  436.76   30.20
  -2  -3  13  338.37   25.90
   2   3 -13  335.97   27.60
   2   3 -13  334.97   22.40
  -1  -3  13  109.69   17.30
  -1   3  13   61.99   10.80
   1   3 -13   91.89   12.30
   1   3 -13   86.59   12.60
   0  -3  13  136.69   16.10
   0   3 -13  135.09    9.80
   0   3 -13  146.29    9.80
   0   3  13  158.58   12.40
   1  -3  13  297.87   21.30
   1   3  13  304.67   13.60
  -1   3 -13  290.37   21.70
   2  -3  13  204.38   18.00
  -2  -3 -13  183.28   14.10
   2  -3  13  172.88   18.60
  -2   3 -13  223.28   20.40
   3  -3  13   26.20    9.40
  -3  -3 -13   24.20    9.50
  -3   3 -13   21.40    9.50
   4  -3  13  112.29   17.30
  -4  -3 -13  112.39   19.40
   4   3  13  111.89   10.00
  -4   3 -13  139.39   23.20
  -5  -3 -13  382.16   30.70
   5  -3  13  412.96   30.10
  -5   3 -13  358.96   33.30
   5   3  13  385.86   22.50
   6  -3  13  251.67   24.90
  -6  -3 -13  237.78   26.90
  -6   3 -13  184.48   32.70
   6   3  13  228.28   20.60
  -7  -3 -13   -1.80    7.70
   7  -3  13   24.80   11.00
   7   3  13   11.90    8.50
  -8  -4  13  225.58   36.30
  -8   4  13  249.97   38.50
  -7  -4  13 1231.28   65.49
   7  -4 -13 1051.99   59.69
  -7   4  13 1084.39   51.69
  -7   4  13 1066.89   62.19
   6  -4 -13    2.50    6.70
  -6  -4  13    6.90    6.50
   6   4 -13   -0.70    6.00
  -6   4  13    2.70    6.60
  -6   4  13    6.60    7.30
   5  -4 -13    4.50    9.20
  -5  -4  13   -2.00    7.40
  -5   4  13    1.30    5.30
  -5   4  13    3.10    6.00
   5   4 -13   13.20    6.90
  -4  -4  13  493.85   35.60
   4  -4 -13  523.15   31.10
  -4   4  13  548.85   36.60
   4   4 -13  585.34   36.10
   3  -4 -13 2007.60   55.49
  -3  -4  13 1912.91   69.49
   3   4 -13 2116.99   68.59
  -3   4  13 2047.90   68.89
  -2  -4  13  105.99   18.00
   2   4 -13  138.19   15.30
   2   4 -13  139.99   21.20
  -1  -4  13    9.10    6.80
   1   4 -13   22.50    7.30
   1   4 -13    7.70    5.40
  -1   4  13   14.60    6.10
   0  -4  13  620.24   32.70
   0   4  13  619.24   24.80
   0   4 -13  685.83   27.00
   1  -4  13 2109.29   63.29
   2  -4  13   13.10    8.70
   2  -4  13    5.50    7.00
  -2  -4 -13   11.10    5.00
  -2   4 -13   18.70    9.20
  -3  -4 -13  134.99   18.40
   3  -4  13  107.09   18.40
  -3   4 -13  108.19   19.90
   4  -4  13  841.92   43.50
  -4  -4 -13  792.32   39.80
  -4   4 -13  815.92   47.50
   4   4  13  784.12   25.60
   5  -4  13  623.94   38.90
  -5  -4 -13  714.63   41.80
  -5   4 -13  677.03   46.10
   5   4  13  725.03   29.80
   6  -4  13  232.68   37.00
  -6  -4 -13  253.77   28.20
  -6   4 -13  285.77   32.00
   6   4  13  258.47   21.20
  -7  -4 -13   71.79   20.20
  -7   4 -13   67.09   20.50
   7   4  13   69.79   15.40
  -7  -5  13  237.28   34.20
   7  -5 -13  277.57   37.50
  -7   5  13  258.37   25.30
  -7   5  13  311.87   33.80
   6  -5 -13   21.40    9.70
  -6  -5  13   -4.80    8.90
   6   5 -13   11.70   12.40
  -6   5  13   22.70    8.70
  -6   5  13   40.20   18.20
   5  -5 -13  303.47   26.80
  -5  -5  13  328.07   30.90
  -5   5  13  389.26   32.90
  -5   5  13  363.26   22.30
  -4  -5  13 1109.49   54.59
   4  -5 -13 1085.29   45.50
  -4   5  13 1125.49   53.69
   4   5 -13 1117.69   52.49
  -4   5  13 1047.80   32.90
   3  -5 -13  255.37   17.60
  -3  -5  13  246.28   24.80
   3   5 -13  316.87   25.20
  -3   5  13  271.47   24.20
  -2  -5  13   24.60    9.70
  -2   5  13    8.40    6.30
   2   5 -13   20.30   10.00
  -1  -5  13  879.21   42.10
  -1   5  13  910.11   36.20
   1   5 -13  874.31   39.60
   1   5 -13  897.81   37.40
   0  -5  13 1190.28   48.30
   0   5 -13 1283.77   43.30
   0   5 -13 1249.57   41.00
   0   5  13 1247.98   37.50
   1  -5  13  802.52   38.70
  -1   5 -13  773.12   28.90
   2  -5  13    8.20    6.70
   2  -5  13   11.60    7.40
  -2   5 -13   -1.80    5.00
  -2   5 -13    0.80    2.60
  -3  -5 -13  672.03   31.70
   3  -5  13  654.13   39.50
   4  -5  13  822.12   45.50
  -4  -5 -13  826.92   40.80
  -4   5 -13  825.72   48.90
  -5  -5 -13  398.96   31.70
   5  -5  13  347.07   30.70
  -5   5 -13  378.06   42.10
   5   5  13  380.96   20.70
   6  -5  13  -15.40    7.60
  -6  -5 -13    8.90    9.20
  -6   5 -13   -9.60    5.90
   6   5  13   -4.70    5.10
  -7  -5 -13  332.77   34.70
   7   5  13  287.87   25.50
  -7   5 -13  331.27   37.70
   7  -6 -13  308.07   30.60
  -7  -6  13  273.77   31.60
  -7   6  13  285.67   25.60
  -7   6  13  242.58   36.20
   6  -6 -13 1189.28   58.59
  -6  -6  13 1263.67   64.39
  -6   6  13 1284.17   50.69
  -6   6  13 1405.86   73.79
  -5  -6  13  436.06   36.00
   5  -6 -13  430.76   31.90
  -5   6  13  401.76   24.10
  -5   6  13  409.66   34.80
   4  -6 -13  780.62   37.40
  -4  -6  13  784.92   46.00
  -4   6  13  727.63   43.20
   4   6 -13  757.82   44.00
  -4   6  13  683.53   25.40
   3  -6 -13  117.49   11.80
  -3  -6  13   96.59   18.60
   3   6 -13  126.89   20.40
  -3   6  13  137.49   20.80
  -2  -6  13 1917.91   69.19
  -2   6  13 1923.31   63.09
   2   6 -13 1947.01   72.39
   2   6 -13 1959.80   65.19
  -1  -6  13  774.12   40.60
  -1   6  13  798.02   34.40
   1   6 -13  761.52   38.90
   1   6 -13  711.53   35.10
   0  -6  13  992.10   45.10
   0   6 -13  926.91   41.10
   0   6  13  924.01   32.80
   0   6 -13  975.20   38.50
   1  -6  13   31.00   10.50
   1   6  13   10.00    3.50
  -1   6 -13    5.30    4.70
  -1   6 -13    5.40    5.20
   2  -6  13  863.71   49.00
   2  -6  13  941.91   45.20
  -2   6 -13  862.71   31.70
  -2   6 -13  883.41   31.10
   3  -6  13  801.72   46.50
  -3  -6 -13  811.22   35.30
  -3   6 -13  759.22   25.40
  -3   6 -13  754.52   24.60
  -3   6 -13  708.53   44.50
  -4  -6 -13  812.52   40.30
   4  -6  13  805.32   47.00
  -4   6 -13  775.22   48.80
  -5  -6 -13   58.19   16.20
  -5   6 -13   79.69   19.70
   5   6  13   88.49    9.90
  -6  -6 -13  329.87   31.90
   6  -6  13  268.57   42.90
  -6   6 -13  356.76   36.90
   6   6  13  344.07   22.50
   7  -7 -13   24.50   16.30
  -7  -7  13   21.10   11.30
  -7   7  13   10.40    7.10
  -7   7  13   16.20   10.60
  -6  -7  13  175.08   26.20
   6  -7 -13  209.98   24.40
  -6   7  13  240.08   34.70
  -6   7  13  260.57   22.60
  -5  -7  13  213.68   39.70
   5  -7 -13  260.27   25.50
  -5   7  13  305.47   20.90
  -5   7  13  307.57   30.70
   5   7 -13  263.57   29.60
  -4  -7  13   38.60   13.90
   4  -7 -13   50.09   11.20
   4   7 -13   37.10   12.30
  -4   7  13   21.10   10.00
  -4   7  13   22.00    6.40
  -3  -7  13    7.20    7.80
   3  -7 -13    3.90    4.10
  -3   7  13   -6.00    3.90
   3   7 -13   15.80    6.10
  -2  -7  13  360.06   29.70
   2   7 -13  385.66   32.00
  -2   7  13  370.96   26.80
   2   7 -13  380.36   28.50
  -1  -7  13  929.21   46.30
  -1   7  13  941.31   39.00
   1   7 -13  976.20   46.50
   1   7 -13  992.50   43.40
   0  -7  13   -2.10    5.40
   0   7 -13   -1.40    5.30
   0   7 -13   11.20    6.50
   0   7  13    5.60    5.30
   1  -7  13   10.10    7.50
  -1   7 -13    2.90    4.30
  -1   7 -13    5.10    5.10
   1   7  13    5.00    3.10
   2  -7  13  220.58   30.70
   2  -7  13  223.08   23.20
  -2   7 -13  223.58   17.20
  -2   7 -13  272.27   20.10
   3  -7  13  665.73   44.40
  -3   7 -13  606.44   42.30
  -3   7 -13  657.83   27.60
  -3   7 -13  689.33   29.00
   4  -7  13   22.10   10.70
  -4  -7 -13   27.00    9.70
  -4   7 -13   30.20   13.60
  -4   7 -13   21.80    6.10
   5  -7  13   34.50   12.50
  -5  -7 -13   26.80   11.10
  -5   7 -13   14.10   10.40
   5   7  13   35.80    7.70
  -6   7 -13  232.58   36.10
   6   7  13  235.68   19.50
  -7  -8  13   20.00   12.20
  -7   8  13    6.80    8.90
  -7   8  13   16.80    9.90
   6  -8 -13  770.92   46.10
  -6  -8  13  729.33   49.70
  -6   8  13  833.12   40.20
  -6   8  13  806.32   52.69
   5  -8 -13  354.16   27.80
  -5  -8  13  328.07   32.60
  -5   8  13  360.96   23.10
  -5   8  13  301.57   31.30
   5   8 -13  358.16   32.80
  -4  -8  13  222.08   25.90
   4  -8 -13  178.98   18.90
  -4   8  13  216.48   14.60
  -4   8  13  224.38   25.10
  -3  -8  13   83.99   17.40
   3   8 -13   78.29   16.30
  -3   8  13   87.99   18.00
   3   8 -13   59.09   17.90
  -2  -8  13  954.60   49.30
  -2   8  13  943.01   44.30
   2   8 -13 1013.50   48.10
   2   8 -13 1027.50   53.99
  -1  -8  13  541.45   36.10
   1   8 -13  544.05   35.80
  -1   8  13  524.05   30.10
   1   8 -13  601.54   34.70
   0  -8  13  414.96   32.00
   0   8 -13  517.95   30.60
   0   8  13  458.05   24.90
   0   8 -13  514.15   32.60
   1  -8  13   24.10   10.20
  -1   8 -13   26.40    9.20
  -1   8 -13   25.30    9.50
   1   8  13   22.70    6.00
   2   8  13  713.13   23.90
  -2   8 -13  667.13   32.40
  -2   8 -13  652.83   33.80
   3  -8  13  578.94   42.90
  -3   8 -13  562.14   29.80
  -3   8 -13  612.64   29.30
  -3   8 -13  629.74   44.30
   4  -8  13  366.06   33.80
  -4   8 -13  295.97   33.60
  -4   8 -13  344.97   20.90
   4   8  13  324.77   16.50
  -4   8 -13  347.47   22.20
   5  -8  13    8.80   16.50
  -5  -8 -13    6.80    7.60
  -5   8 -13    7.30    5.40
  -5   8 -13   20.30   11.70
  -5   8 -13   -1.60    5.20
   5   8  13   -2.70    4.70
  -6  -8 -13  639.24   43.80
  -6   8 -13  563.94   49.40
   6   8  13  541.35   29.50
  -7  -9  13  268.97   37.40
  -7   9  13  248.98   24.90
  -7   9  13  293.07   34.00
  -6  -9  13  353.16   35.40
   6  -9 -13  274.87   29.50
  -6   9  13  320.27   34.80
  -6   9  13  329.37   25.80
   5  -9 -13   67.79   16.20
  -5  -9  13   51.19   15.40
  -5   9  13   73.59   18.10
  -5   9  13  105.19   15.50
   4  -9 -13 1235.78   48.80
  -4  -9  13 1317.27   69.99
  -4   9  13 1227.48   60.59
  -4   9  13 1248.78   38.10
   3  -9 -13  791.22   37.80
  -3  -9  13  741.93   45.70
  -3   9  13  754.62   44.00
   3   9 -13  734.93   43.90
   3   9 -13  749.42   51.19
  -2  -9  13  483.55   35.40
  -2   9  13  550.44   34.50
   2   9 -13  532.65   39.80
   2   9 -13  481.15   34.60
  -1  -9  13   65.39   15.60
  -1   9  13   55.19   12.50
   1   9 -13   48.80   13.80
   1   9 -13   94.49   18.60
   0  -9  13 1034.50   51.99
   0   9 -13 1107.39   51.49
   0   9 -13 1079.19   47.90
   0   9  13 1102.09   42.10
   1  -9  13 1004.00   51.19
   1   9  13  941.41   34.40
  -1   9 -13  926.21   44.90
  -1   9 -13  923.01   42.40
  -2   9 -13  651.23   33.70
   2   9  13  623.14   25.10
  -2   9 -13  626.14   35.50
   3  -9  13   23.90   11.80
  -3   9 -13   21.20    9.00
   3   9  13   27.70    6.10
  -3   9 -13   32.10   12.40
   4  -9  13  785.72   52.69
   4   9  13  722.23   27.20
  -4   9 -13  791.32   35.40
  -4   9 -13  661.53   49.50
  -4   9 -13  781.72   36.70
  -5   9 -13  677.33   32.20
   5   9  13  693.73   29.50
  -5   9 -13  699.73   31.70
  -5   9 -13  622.54   49.80
  -6   9 -13  738.23   57.49
   6   9  13  755.02   35.40
  -6   9 -13  743.53   31.40
  -6   9 -13  814.92   31.80
  -6 -10  13    3.80   10.20
  -6  10  13   28.10   11.10
  -6  10  13   12.10   12.50
   5 -10 -13   -3.00    7.70
  -5 -10  13    0.90    7.30
  -5  10  13   16.60   14.00
  -5  10  13   -8.40    5.90
  -4 -10  13   -7.20    4.40
   4 -10 -13    7.50    8.40
  -4  10  13   -6.10    7.80
  -4  10  13    6.70    6.40
   4  10 -13   -0.40    9.00
  -3 -10  13    7.40    8.40
   3  10 -13    0.20    8.60
  -2 -10  13   52.69   15.90
   2  10 -13   54.69   13.60
   2  10 -13   41.30   14.20
  -2  10  13   47.10   14.40
  -1 -10  13   28.70   11.50
   1  10 -13   12.60   10.10
   1  10 -13   17.50    8.20
  -1  10  13   14.70    8.20
   0 -10  13    5.30    6.60
   0  10 -13   10.30    8.10
   0  10 -13   -5.00    4.30
   0  10  13    4.20    5.20
   1 -10  13   11.10    9.10
  -1  10 -13   -1.70    7.50
  -1  10 -13    9.60    7.80
   1  10  13   12.50    6.40
  -2  10 -13    3.80    6.80
   2  10  13    2.60    4.40
  -2  10 -13   -2.30    5.90
   3 -10  13   38.20   15.50
   3  10  13   24.60    7.60
  -3  10 -13   47.30   12.40
  -3  10 -13   31.90   10.70
   3  10  13   26.70    8.00
   4  10  13   17.60    6.90
  -4  10 -13   34.40   10.50
  -4  10 -13    9.00    9.50
  -4  10 -13   14.40    7.80
  -5  10 -13   70.59   14.00
   5  10  13   73.29   11.70
  -5  10 -13   51.69   10.60
  -5  10 -13   73.09   20.90
  -6 -11  13  175.68   27.10
  -6  11  13  216.58   23.30
  -6  11  13  178.98   33.50
  -5 -11  13  125.89   23.50
   5 -11 -13  155.78   23.30
  -5  11  13  122.99   25.80
  -5  11  13  194.68   18.40
  -4 -11  13  542.45   41.90
   4 -11 -13  543.65   33.00
  -4  11  13  513.25   40.10
  -4  11  13  534.95   28.00
   4  11 -13  498.75   45.80
  -3 -11  13  329.57   31.50
  -3  11  13  325.77   30.00
   3  11 -13  260.87   29.10
  -3  11  13  262.07   15.60
   3  11 -13  301.27   34.50
  -2 -11  13  284.57   30.00
  -2  11  13  349.47   29.80
   2  11 -13  427.26   37.40
  -1 -11  13   22.90   11.70
  -1  11  13   44.70   12.30
   1  11 -13   49.90   15.50
   1  11 -13   32.40   11.60
   0 -11  13  831.32   49.00
   0  11  13  755.62   37.70
   0  11 -13  761.42   46.50
   0  11 -13  803.92   43.90
  -1  11 -13  658.23   41.60
   1  11  13  593.74   31.00
  -1  11 -13  674.13   39.50
   2  11  13  827.72   35.30
   2  11  13  804.72   33.10
  -2  11 -13  811.52   42.10
  -2  11 -13  786.52   44.40
   3  11  13   11.70    6.00
  -3  11 -13   33.40   10.20
  -3  11 -13   13.40    7.80
   3  11  13   11.30    6.20
  -4  11 -13  453.15   32.10
   4  11  13  475.35   29.10
  -4  11 -13  526.15   32.10
  -4  11 -13  492.35   45.60
   5  11  13  766.82   34.30
  -5  11 -13  739.93   57.59
  -5  11 -13  760.92   40.50
  -5  11 -13  805.12   39.10
  -5 -12  13  461.05   40.80
   5 -12 -13  540.95   37.20
  -5  12  13  509.55   43.80
  -5  12  13  545.55   31.00
   4 -12 -13  310.27   25.70
  -4 -12  13  267.47   30.60
  -4  12  13  352.16   22.10
  -4  12  13  282.67   31.80
   4  12 -13  397.86   42.30
  -3 -12  13   11.20   12.10
   3  12 -13    7.90   10.10
  -3  12  13   17.30    7.40
  -3  12  13    9.40    8.50
  -2 -12  13 1023.30   57.29
   2  12 -13 1006.60   54.59
   2  12 -13 1017.90   60.09
  -2  12  13 1066.79   53.69
   1  12 -13  737.03   48.50
  -1  12  13  711.93   41.20
   0 -12  13  580.94   44.20
   0  12  13  542.85   33.80
   0  12 -13  584.54   41.80
  -1  12 -13   17.70   11.40
   1  12  13   21.90    8.30
  -1  12 -13   14.20    8.50
  -2  12 -13  912.01   46.60
   2  12  13  928.21   40.20
  -2  12 -13  978.50   52.09
   2  12  13  917.91   38.50
   3  12  13  492.95   28.30
  -3  12 -13  619.44   40.60
  -3  12 -13  561.44   35.70
   3  12  13  582.14   31.20
   4  12  13  276.17   21.10
  -4  12 -13  303.67   25.30
  -4  12 -13  307.57   28.40
  -4  12 -13  266.07   44.10
   4  12  13  286.87   25.30
  -5 -13  13  473.95   42.70
   5 -13 -13  517.75   37.80
  -5  13  13  494.65   30.70
   5  13 -13  530.45   50.89
  -5  13  13  509.85   44.60
  -4 -13  13    3.80    7.60
  -4  13  13   31.90   14.60
   4  13 -13   -3.50   12.90
  -4  13  13   -9.20    7.00
  -3 -13  13   15.70   10.90
  -3  13  13   23.70   12.00
   3  13 -13   17.20   11.90
  -3  13  13   34.10   11.40
  -2 -13  13   86.69   20.60
  -2  13  13   85.79   12.10
   2  13 -13   76.39   19.70
  -2  13  13  105.39   19.70
  -1 -13  13  422.86   37.20
  -1  13  13  424.46   33.20
  -1  13  13  399.36   21.30
   1  13 -13  383.16   41.80
   1  13 -13  461.25   36.50
   0 -13  13  151.98   26.30
   0  13 -13  172.58   29.20
   0  13 -13  175.58   25.40
   0  13  13  166.58   23.80
  -1  13 -13   24.90   12.90
   1  13  13   38.90   11.10
  -2  13 -13   40.90   14.00
   2  13  13   50.29   12.60
   2  13  13   33.90   10.70
  -3  13 -13  324.97   31.30
   3  13  13  246.28   22.40
   3  13  13  386.96   26.90
  -4  13 -13  108.69   26.90
  -4  13 -13  136.19   23.00
   4  13  13  141.39   18.60
   4  13  13  163.48   23.40
  -4 -14  13  396.66   39.10
  -4  14  13  403.26   39.30
   4  14 -13  362.76   42.30
  -4  14  13  384.26   26.00
  -3 -14  13  218.78   35.20
   3  14 -13  281.17   43.30
  -3  14  13  202.48   18.70
  -3  14  13  233.18   35.00
  -2 -14  13  470.45   41.50
  -2  14  13  494.95   38.50
   2  14 -13  575.14   47.70
  -1 -14  13  172.38   27.60
  -1  14  13  215.58   24.40
   1  14 -13  164.78   28.80
   0  14 -13  723.33   50.39
   0  14  13  760.52   43.50
  -1  14 -13  180.78   26.80
  -1  14 -13  205.68   30.00
   1  14  13  180.08   24.50
   2  14  13   65.29   14.70
  -2  14 -13   53.29   15.80
  -2  14 -13   56.19   17.60
   2  14  13   92.09   14.90
   3  14  13  342.07   26.10
  -3  14 -13  359.56   29.50
  -3  14 -13  358.16   34.00
   3  14  13  407.26   29.30
  -3 -15  13  194.08   31.20
  -3  15  13  142.39   25.90
  -3  15  13  171.98   18.20
   3  15 -13  143.69   28.80
  -2 -15  13   37.10   14.60
  -2  15  13   23.40   11.20
   2  15 -13   38.40   17.60
  -2  15  13   35.40   11.00
  -1 -15  13  173.68   29.40
  -1  15  13  200.38   28.20
   1  15 -13  174.08   29.80
   0  15  13  635.94   41.30
   0  15 -13  624.14   48.40
  -1  15 -13  352.26   35.90
   1  15  13  328.47   28.10
   1  15  13  242.88   24.20
   2  15  13    8.60   10.70
   2  15  13   17.10    8.70
  -2  15 -13    2.60    9.20
   1  16 -13    0.80    9.10
  -1  16  13   10.70   10.50
   0  16  13  260.77   29.10
   0  16 -13  230.48   35.20
  -8   0  14  603.84   48.50
  -7   0  14    1.20    5.90
   6   0 -14  -13.60    8.30
  -5   0  14 2566.04   89.79
   5   0 -14 2534.45   84.19
   4   0 -14  986.90   45.30
  -4   0  14  961.90   49.30
  -3   0  14   24.80   10.20
   3   0 -14   21.90    7.80
   2   0 -14 1087.69   36.50
   2   0 -14 1000.30   35.20
  -2   0  14 1022.20   44.30
  -1   0  14 2888.41   75.29
   0   0 -14 1012.90   28.70
   0   0  14 1072.99   38.00
   1   0  14  384.76   20.50
  -1   0 -14  360.66   19.10
  -2   0 -14  313.37   22.70
   2   0  14  264.07   19.10
   2   0  14  317.07   18.30
   3   0  14 1427.26   45.50
  -3   0 -14 1439.76   52.99
   4   0  14 1543.65   50.49
  -4   0 -14 1586.34   61.39
  -5   0 -14  255.67   26.60
   5   0  14  240.48   20.10
   6   0  14  221.78   21.90
  -6   0 -14  197.28   30.10
   7   0  14  614.44   61.69
  -7   0 -14  772.62   53.09
  -8  -1  14   22.60   13.70
  -8   1  14   28.80   13.10
  -8   1  14   30.70   13.10
  -7  -1  14  312.87   34.00
  -7   1  14  375.86   31.00
  -7   1  14  369.06   35.80
  -6  -1  14   71.19   21.00
   6  -1 -14   67.89   16.80
  -6   1  14   65.99   26.60
  -5  -1  14    0.30    6.20
   5   1 -14  -13.60    5.50
  -5   1  14    8.10    7.40
   4  -1 -14  114.79   18.10
  -4  -1  14  122.69   19.90
  -4   1  14  151.38   23.80
   4   1 -14  128.99   19.90
  -3  -1  14  923.21   45.50
   3  -1 -14  848.62   36.10
   3   1 -14  965.20   40.20
  -3   1  14  914.91   44.60
   2  -1 -14  422.06   17.80
   2  -1 -14  398.76   18.50
  -2  -1  14  424.76   28.50
   2   1 -14  405.96   21.70
  -2   1  14  443.46   28.10
   2   1 -14  386.06   23.20
  -1  -1  14   94.09   17.30
  -1   1  14  100.59   14.80
   0  -1  14    3.30    4.70
   0   1 -14   -2.70    4.50
   0   1  14    0.10    3.40
  -1  -1 -14  482.35   19.70
   1  -1  14  491.75   24.60
  -1   1 -14  457.55   23.70
   1   1  14  472.75   21.20
  -2  -1 -14  523.65   25.70
   2  -1  14  506.95   25.50
   2  -1  14  517.95   28.80
  -2   1 -14  507.25   28.10
   2   1  14  527.05   21.60
   2   1  14  509.85   24.00
   3  -1  14    2.00    5.50
  -3  -1 -14   -0.50    5.70
   3   1  14   14.90    5.60
  -3   1 -14   10.20    7.00
  -4  -1 -14  119.69   20.70
   4   1  14   98.79   13.80
  -4   1 -14   95.49   19.50
   5  -1  14  274.77   23.10
  -5  -1 -14  297.57   27.90
   5   1  14  321.37   30.30
  -5   1 -14  283.47   28.40
   6  -1  14  226.18   23.40
  -6   1 -14  310.87   31.90
   6   1  14  221.58   21.60
  -7  -1 -14   38.70   15.20
   7  -1  14   17.80   12.40
  -7   1 -14   44.30   17.60
   7   1  14   80.19   15.40
  -8  -2  14    1.30    8.40
  -8   2  14  -14.80    5.80
   7  -2 -14   25.50   12.20
  -7  -2  14   17.40   10.50
  -7   2  14    5.20    7.60
  -7   2  14   44.10   16.20
  -6  -2  14  353.76   34.00
   6  -2 -14  359.46   30.90
  -6   2  14  216.18   49.30
   5  -2 -14  887.01   45.80
  -5  -2  14  903.81   51.49
  -5   2  14  877.01   50.19
   5   2 -14  938.81   48.70
  -4  -2  14   15.40    7.90
   4  -2 -14    0.50    8.50
  -4   2  14   10.90    7.50
   4   2 -14   18.90    8.20
  -3  -2  14  583.34   36.60
   3  -2 -14  650.53   29.40
  -3   2  14  598.24   35.70
   3   2 -14  583.14   31.90
  -2  -2  14  518.75   32.10
   2   2 -14  559.74   27.10
   2   2 -14  495.55   28.70
  -2   2  14  532.45   30.60
  -1  -2  14  639.34   33.10
   1   2 -14  570.44   22.10
   1   2 -14  598.24   22.20
  -1   2  14  584.84   29.20
   0  -2  14  263.27   20.00
   0   2  14  233.48   16.00
   1  -2  14  510.85   26.80
  -1   2 -14  609.74   32.50
   1   2  14  575.84   22.00
   2  -2  14  373.26   23.20
   2  -2  14  312.77   24.00
  -2  -2 -14  363.66   20.00
   2   2  14  304.27   25.40
   2   2  14  322.27   14.80
  -2   2 -14  325.17   23.50
  -3  -2 -14  265.27   20.60
   3  -2  14  259.17   21.80
   3   2  14  244.58   14.10
  -3   2 -14  274.47   23.90
   4  -2  14  281.67   22.70
  -4  -2 -14  314.37   25.20
  -4   2 -14  288.57   27.30
   4   2  14  285.27   17.40
   5  -2  14  350.26   27.70
  -5  -2 -14  323.97   29.20
  -5   2 -14  335.57   31.30
   5   2  14  379.46   23.30
   6  -2  14  128.59   20.80
  -6  -2 -14  115.79   30.20
   6   2  14  117.49   17.60
  -6   2 -14  151.08   29.10
   7  -2  14  138.19   23.00
   7   2  14   81.19   17.50
  -7  -3  14 1126.49   63.59
   7  -3 -14 1042.60   59.89
  -7   3  14 1183.18   54.19
  -7   3  14 1120.69   63.99
  -6  -3  14  556.24   42.20
   6  -3 -14  431.76   34.80
  -6   3  14  397.06   59.79
  -6   3  14  492.55   31.00
   6   3 -14  518.65   39.90
   5  -3 -14   29.10   10.60
  -5  -3  14   25.30   12.20
   5   3 -14   56.99   13.80
  -5   3  14   43.10   13.40
  -4  -3  14  287.47   27.20
   4  -3 -14  329.77   24.60
   4   3 -14  367.46   28.80
  -4   3  14  291.17   27.20
  -3  -3  14 1488.65   60.59
   3  -3 -14 1434.46   44.70
  -3   3  14 1488.85   58.19
   3   3 -14 1521.75   55.19
  -2  -3  14 1628.44   59.89
   2   3 -14 1610.94   51.89
  -2   3  14 1679.03   57.09
   2   3 -14 1632.84   60.59
  -1  -3  14   11.50    7.30
  -1   3  14   11.10    5.80
   1   3 -14   20.40    6.30
   1   3 -14   16.70    5.80
   0  -3  14  356.16   24.40
   0   3  14  366.46   19.70
   1  -3  14 1430.76   65.09
   1   3  14 1411.66   36.20
  -1   3 -14 1524.55   52.19
   2  -3  14 1827.52   66.89
  -2  -3 -14 1785.12   47.10
   2  -3  14 1617.84   65.89
  -2   3 -14 1733.03   60.39
   3  -3  14  157.98   21.20
  -3  -3 -14  158.38   20.30
  -3   3 -14  169.18   24.40
   4  -3  14  347.67   27.10
  -4  -3 -14  402.16   28.20
  -4   3 -14  309.27   28.80
   4   3  14  393.96   18.60
  -5  -3 -14  527.95   36.00
   5  -3  14  496.05   33.90
  -5   3 -14  494.45   38.50
   5   3  14  490.25   25.50
   6  -3  14 1140.89   61.59
  -6  -3 -14 1212.18   64.49
   6   3  14 1229.28   47.40
  -6   3 -14 1243.08   66.69
   7  -4 -14  149.88   25.40
  -7  -4  14  148.59   28.20
  -7   4  14  137.89   21.70
  -7   4  14  138.79   26.90
   6  -4 -14  308.47   29.60
  -6  -4  14  356.06   34.50
  -6   4  14  357.26   25.80
   6   4 -14  352.06   34.00
  -6   4  14  442.86   39.50
   5  -4 -14  443.76   31.70
  -5  -4  14  481.65   37.50
   5   4 -14  386.96   31.30
  -5   4  14  425.36   30.50
  -5   4  14  438.06   35.80
  -4  -4  14  655.93   41.60
   4  -4 -14  684.43   35.00
   4   4 -14  709.43   40.70
  -4   4  14  662.03   41.30
  -3  -4  14  228.38   23.40
   3  -4 -14  192.88   14.70
   3   4 -14  181.18   19.30
  -3   4  14  181.58   20.20
  -2  -4  14  474.05   32.00
   2   4 -14  530.75   29.20
   2   4 -14  471.85   30.90
  -2   4  14  470.15   29.00
  -1  -4  14  459.15   29.90
   1   4 -14  447.56   23.90
   1   4 -14  470.25   25.50
  -1   4  14  419.36   24.50
   0  -4  14  601.34   32.70
   0   4 -14  570.84   23.00
   0   4 -14  559.24   22.20
   0   4  14  578.14   24.80
   1  -4  14  506.35   29.50
   1   4  14  444.46   17.50
   2  -4  14  369.56   26.50
   2  -4  14  378.86   30.10
  -2  -4 -14  346.27   18.10
  -2   4 -14  374.26   28.10
   3  -4  14  238.38   23.80
  -3  -4 -14  247.08   19.10
  -3   4 -14  212.58   22.80
   4  -4  14  308.47   27.30
  -4  -4 -14  315.57   25.10
  -4   4 -14  358.96   31.80
  -5  -4 -14  519.75   35.90
   5  -4  14  511.55   36.00
  -5   4 -14  567.54   42.80
   5   4  14  525.25   24.90
  -6  -4 -14  128.29   25.50
   6  -4  14   79.39   19.10
   6   4  14   91.79   15.20
  -6   4 -14  126.29   26.30
   7  -5 -14  387.66   34.10
  -7  -5  14  345.57   36.10
  -7   5  14  344.97   28.40
  -7   5  14  302.47   34.50
  -6  -5  14   41.00   14.00
   6  -5 -14   57.29   15.50
   6   5 -14   78.29   17.90
  -6   5  14   47.80   14.60
  -6   5  14   52.69   11.90
  -5  -5  14  328.97   31.70
   5  -5 -14  273.87   25.40
  -5   5  14  353.96   32.30
  -5   5  14  298.37   20.10
   4  -5 -14 1086.69   44.00
  -4  -5  14 1196.68   57.59
  -4   5  14 1144.59   55.19
   4   5 -14 1085.79   52.79
   3  -5 -14  131.49   13.90
  -3  -5  14  113.79   18.60
   3   5 -14  158.88   22.30
  -3   5  14   99.49   17.70
  -2  -5  14    8.00    7.30
  -2   5  14    8.40    6.10
   2   5 -14   16.80    9.30
   2   5 -14   20.00    9.60
  -1  -5  14 1279.57   52.49
  -1   5  14 1247.58   44.20
   1   5 -14 1269.17   44.80
   1   5 -14 1235.08   46.80
   0  -5  14  744.03   38.20
   0   5  14  705.03   27.80
   0   5 -14  713.53   28.90
   0   5 -14  700.13   29.70
   1  -5  14   31.90   10.70
  -1   5 -14   28.10    6.20
   1   5  14   26.60    5.10
  -1   5 -14   26.60    5.60
   2  -5  14  182.38   23.90
   2  -5  14  183.18   21.70
  -2   5 -14  171.48   25.20
  -3  -5 -14 1051.49   40.00
   3  -5  14 1041.70   52.89
  -3   5 -14 1014.10   51.89
  -4  -5 -14  422.56   28.90
   4  -5  14  434.16   32.90
  -4   5 -14  393.36   34.00
  -5  -5 -14   20.20   10.90
   5  -5  14   25.80   13.70
  -5   5 -14   33.40   14.30
   5   5  14   48.20    9.30
  -6  -5 -14  138.59   28.70
   6  -5  14  154.58   27.30
  -6   5 -14  308.07   43.50
   6   5  14  203.88   18.20
   7  -6 -14    0.20    9.80
  -7  -6  14    2.60    7.90
  -7   6  14   -0.10    5.80
  -7   6  14   13.20    9.60
   6  -6 -14   12.90   10.50
  -6  -6  14   13.30    9.80
  -6   6  14    9.20    9.20
  -6   6  14   18.30    8.70
  -5  -6  14  610.44   62.39
   5  -6 -14  727.23   40.20
  -5   6  14  677.83   45.30
  -5   6  14  603.74   27.70
  -4  -6  14  426.06   34.80
   4  -6 -14  486.35   28.30
  -4   6  14  498.35   36.20
   4   6 -14  433.46   33.40
   3  -6 -14    0.60    3.30
  -3  -6  14    2.10    4.50
   3   6 -14    0.80    6.70
   3   6 -14   -3.00    5.30
  -3   6  14   11.40    6.00
  -2  -6  14   17.90    9.80
   2   6 -14   15.70    7.60
   2   6 -14   10.70    7.80
  -2   6  14   17.30    8.40
  -1  -6  14  894.91   44.60
  -1   6  14  870.41   36.90
   1   6 -14  830.82   38.00
   1   6 -14  807.62   39.50
   0  -6  14  782.22   40.60
   0   6 -14  767.22   33.10
   0   6 -14  699.43   50.09
   0   6  14  719.53   29.20
   1  -6  14   42.30   11.50
  -1   6 -14   55.19    9.70
   1   6  14   58.79    7.80
  -1   6 -14   50.09    9.40
   2  -6  14   37.50   11.40
  -2   6 -14   26.40    5.60
  -2   6 -14   21.70    5.30
   3  -6  14  824.62   48.30
  -3   6 -14  796.12   47.60
   4  -6  14  429.66   35.80
  -4  -6 -14  443.16   29.40
  -4   6 -14  459.45   37.80
  -5  -6 -14   -4.30    6.00
   5  -6  14    6.80   10.80
   5   6  14   -5.90    3.70
  -5   6 -14    6.80    7.30
  -6   6 -14   10.20    9.30
   6   6  14   -4.50    5.90
   7  -7 -14   19.00   15.30
  -7  -7  14   12.20   13.00
  -7   7  14   39.00   11.40
  -7   7  14   51.09   16.50
   6  -7 -14  380.96   33.40
  -6  -7  14  469.25   40.50
  -6   7  14  445.06   39.10
  -6   7  14  403.76   26.70
   5  -7 -14  816.32   43.30
  -5  -7  14  948.51   54.59
  -5   7  14  815.92   32.50
  -5   7  14  813.92   50.69
   5   7 -14  828.52   50.19
   4  -7 -14  880.81   38.40
  -4  -7  14  991.00   53.39
   4   7 -14  826.42   47.00
  -4   7  14  869.11   48.70
  -3  -7  14   68.69   16.40
   3  -7 -14  108.69    9.50
   3   7 -14   97.39   22.30
  -3   7  14  123.19   21.10
   3   7 -14   90.59   16.30
  -2  -7  14  702.33   41.70
   2   7 -14  682.63   42.40
   2   7 -14  713.63   38.90
  -2   7  14  690.33   37.30
  -1  -7  14 1186.78   53.79
  -1   7  14 1248.58   46.10
   1   7 -14 1175.78   50.89
   1   7 -14 1230.28   49.30
   0  -7  14 1370.66   57.39
   0   7 -14 1301.47   48.20
   0   7  14 1433.76   44.40
   0   7 -14 1342.37   50.79
   1  -7  14  454.25   32.10
  -1   7 -14  375.06   24.50
  -1   7 -14  413.06   23.90
   1   7  14  387.96   18.20
   2  -7  14  443.66   33.50
  -2   7 -14  451.85   22.90
  -2   7 -14  446.76   23.60
   3  -7  14  828.52   52.19
  -3   7 -14  982.00   54.39
  -3   7 -14  852.41   33.50
  -3   7 -14  825.62   28.90
  -4  -7 -14  786.12   39.80
   4  -7  14  710.73   59.39
  -4   7 -14  663.83   69.29
   5  -7  14  246.38   33.50
  -5  -7 -14  261.17   25.60
   5   7  14  217.78   15.20
  -5   7 -14  199.58   33.50
  -6  -7 -14  134.99   29.70
  -6   7 -14   87.69   22.60
   6   7  14  114.79   15.80
  -6  -8  14  601.24   45.90
   6  -8 -14  536.05   37.50
  -6   8  14  610.64   46.40
  -6   8  14  583.04   32.00
  -5  -8  14  101.19   21.80
   5  -8 -14   51.59   13.90
  -5   8  14   96.29   13.20
  -5   8  14   78.19   19.40
   5   8 -14   43.60   14.90
   4  -8 -14  133.39   15.70
  -4  -8  14   97.89   20.40
  -4   8  14  112.89   21.30
  -3  -8  14  511.95   37.70
   3   8 -14  480.45   40.00
   3   8 -14  493.95   35.30
  -3   8  14  519.95   35.90
  -2  -8  14  674.53   41.80
  -2   8  14  698.33   38.00
   2   8 -14  647.04   38.60
   2   8 -14  584.74   40.60
  -1  -8  14   26.80   10.30
  -1   8  14   28.50   10.90
   1   8 -14   23.50    9.20
   1   8 -14   47.50   12.90
   0  -8  14   25.40   11.00
   0   8  14   16.90    6.70
   0   8 -14   20.30    9.00
   0   8 -14   18.70    8.80
   1  -8  14  659.33   40.80
  -1   8 -14  588.64   32.70
   1   8  14  616.14   25.50
  -1   8 -14  633.84   32.40
  -2   8 -14  366.96   23.00
  -2   8 -14  323.17   22.90
   3  -8  14   14.00   19.20
  -3   8 -14   18.10   11.60
  -3   8 -14   11.80    5.80
   4  -8  14   22.50   11.60
  -4   8 -14    4.30    4.60
  -4   8 -14   -3.90    4.10
  -4   8 -14    1.20    9.80
   5   8  14  516.45   23.80
  -5   8 -14  607.24   55.69
   6  -9 -14  176.78   26.20
  -6  -9  14  169.08   28.00
  -6   9  14  210.58   19.70
  -6   9  14  182.28   31.80
  -5  -9  14  141.89   27.00
   5  -9 -14  179.18   23.90
  -5   9  14  170.08   18.40
  -4  -9  14  106.99   21.60
   4  -9 -14  143.19   16.20
  -4   9  14  152.08   24.60
   4   9 -14  148.89   25.50
  -3  -9  14   67.69   14.90
   3   9 -14   52.79   16.10
  -3   9  14   77.59   16.80
   3   9 -14   76.69   19.50
  -2  -9  14    7.40    8.40
   2   9 -14   27.80   11.50
  -2   9  14   14.80    7.90
   2   9 -14   18.50    9.00
  -1  -9  14  217.68   25.30
  -1   9  14  264.87   22.80
   1   9 -14  262.47   24.90
   1   9 -14  247.58   25.30
   0  -9  14  146.89   22.00
   0   9  14  166.38   16.10
   0   9 -14  195.18   20.30
   0   9 -14  176.18   20.30
   1  -9  14   55.89   14.70
   1   9  14   51.69    9.40
  -1   9 -14   66.89   15.10
  -1   9 -14   69.89   13.90
  -2   9 -14  130.39   21.70
  -2   9 -14  123.09   18.80
   2   9  14  116.09   10.80
   3  -9  14   63.19   19.60
  -3   9 -14   61.69   12.70
  -3   9 -14   54.19   19.90
  -3   9 -14   59.59   12.50
   3   9  14   70.49    8.10
  -4   9 -14  102.89   25.40
  -4   9 -14  100.79   14.70
  -4   9 -14  101.99   14.00
  -5   9 -14  113.89   12.60
  -5   9 -14   88.19   24.20
   5   9  14   72.89   10.90
  -6 -10  14  675.23   50.59
   6 -10 -14  652.33   42.70
  -6  10  14  614.44   33.60
  -6  10  14  675.93   50.59
  -5 -10  14    6.00    8.20
   5 -10 -14    1.20    9.10
  -5  10  14   24.10   10.80
  -5  10  14    7.30   11.60
  -4 -10  14  294.17   31.20
   4 -10 -14  266.07   22.50
   4  10 -14  306.57   44.90
  -4  10  14  311.77   31.40
   4  10 -14  303.07   35.50
  -3 -10  14 1263.97   68.09
  -3  10  14 1249.07   59.09
   3  10 -14 1291.87   68.89
  -2 -10  14 1246.18   60.49
   2  10 -14 1303.27   58.89
   2  10 -14 1158.38   61.29
  -2  10  14 1175.28   53.69
  -1 -10  14   35.90   12.20
   1  10 -14   61.49   14.10
   1  10 -14   42.80   13.00
  -1  10  14   27.60   10.30
   0 -10  14  260.17   27.60
   0  10 -14  304.37   26.70
   0  10  14  304.27   22.40
   0  10 -14  301.87   28.00
   1 -10  14 1305.37   62.19
   1  10  14 1258.97   43.70
  -1  10 -14 1297.67   55.99
  -1  10 -14 1270.07   52.69
  -2  10 -14 1254.07   50.89
  -2  10 -14 1293.37   54.49
   2  10  14 1318.57   41.50
   3  10  14  190.58   15.00
  -3  10 -14  195.78   19.40
  -3  10 -14  143.09   26.80
  -3  10 -14  205.78   20.80
   3  10  14  218.78   14.80
  -4  10 -14  257.37   22.30
  -4  10 -14  270.37   39.80
  -4  10 -14  277.27   22.10
   4  10  14  293.87   17.40
  -5  10 -14  846.22   36.40
  -5  10 -14  767.62   34.60
  -5  10 -14  888.11   61.29
  -5 -11  14  295.57   33.60
   5 -11 -14  294.07   27.20
  -5  11  14  301.07   20.70
  -5  11  14  313.07   34.10
   4 -11 -14  214.78   20.20
  -4 -11  14  278.47   30.80
   4  11 -14  322.57   38.00
  -4  11  14  258.27   29.50
  -4  11  14  217.48   14.50
  -3 -11  14  127.69   23.60
  -3  11  14   86.99   20.00
   3  11 -14  117.19   33.20
   3  11 -14  112.99   21.30
  -2 -11  14  273.37   29.80
  -2  11  14  240.78   25.60
   2  11 -14  259.47   29.80
  -1 -11  14  246.98   27.80
   1  11 -14  302.37   27.90
   1  11 -14  253.77   27.40
  -1  11  14  269.67   24.30
   0 -11  14  412.16   34.70
   0  11 -14  344.47   29.00
   0  11  14  369.16   26.40
   0  11 -14  365.16   31.80
   1 -11  14  184.78   27.40
   1  11  14  179.08   17.60
  -1  11 -14  172.08   23.10
  -1  11 -14  171.58   25.10
  -2  11 -14  161.88   23.30
   2  11  14  159.68   15.60
   2  11  14  140.69   14.20
  -2  11 -14  195.58   20.30
  -3  11 -14  209.98   22.10
  -3  11 -14  250.87   23.90
   3  11  14  215.18   17.10
   3  11  14  231.28   16.90
  -4  11 -14  344.77   26.40
   4  11  14  301.97   21.90
   4  11  14  297.07   19.20
  -4  11 -14  316.07   25.20
  -4  11 -14  321.97   37.50
  -5 -12  14  121.59   25.70
   5 -12 -14  140.69   23.50
   5  12 -14  124.09   26.70
  -5  12  14  176.08   28.70
  -5  12  14  167.28   16.90
  -4 -12  14   12.50   11.70
  -4  12  14   26.10    7.10
  -4  12  14   15.30   14.60
   4  12 -14   46.60   19.10
  -3 -12  14  158.98   27.80
   3  12 -14  218.08   35.90
  -3  12  14  251.07   27.40
  -2 -12  14  356.46   34.30
   2  12 -14  293.57   45.90
  -2  12  14  322.77   29.70
   2  12 -14  298.97   30.70
  -1 -12  14    6.50   10.80
   1  12 -14   20.20   12.10
  -1  12  14   16.50    9.50
   0  12 -14   -8.20    6.00
   0  12 -14   -6.50    6.20
   0  12  14   15.20    8.50
  -1  12 -14  258.07   25.60
  -1  12 -14  235.58   26.30
   1  12  14  236.28   21.10
   2  12  14  215.38   19.10
  -2  12 -14  274.47   26.00
   2  12  14  329.17   22.70
  -2  12 -14  263.97   27.40
  -3  12 -14    3.10    7.30
   3  12  14    9.80    6.00
  -3  12 -14   -9.30    8.60
   3  12  14    4.80    7.00
   4  12  14   63.59   12.90
  -4  12 -14   40.30   13.00
  -4  12 -14   30.70   11.90
   4  12  14   30.20   10.30
  -4  12 -14    5.00    9.20
  -4 -13  14  630.34   48.50
  -4  13  14  619.74   47.60
  -4  13  14  599.34   30.70
   4  13 -14  669.03   55.49
  -3 -13  14    8.70   12.10
  -3  13  14   26.80   13.60
   3  13 -14    8.90   10.00
  -2 -13  14  283.37   31.60
   2  13 -14  223.18   33.90
  -2  13  14  273.77   27.40
  -1 -13  14  901.91   55.69
   1  13 -14  878.91   57.39
  -1  13  14  877.41   47.40
   1  13 -14  953.00   54.09
   0 -13  14 1064.19   60.79
   0  13 -14  993.80   56.99
   0  13  14 1048.60   49.30
   0  13 -14 1048.30   54.49
  -1  13 -14   64.39   16.50
   1  13  14   89.39   16.30
   2  13  14  144.39   19.80
  -2  13 -14   89.99   19.40
   2  13  14   78.09   14.20
   3  13  14  606.34   32.20
  -3  13 -14  663.23   42.10
   3  13  14  607.54   33.40
  -3 -14  14   11.90   12.40
  -3  14  14   21.30    9.40
   3  14 -14   33.90   14.40
  -3  14  14   18.80   12.30
  -2 -14  14   18.80   10.50
  -2  14  14   29.10   11.40
   2  14 -14   14.70   11.40
  -1 -14  14  496.05   42.10
  -1  14  14  448.96   34.90
   1  14 -14  375.76   37.30
   0  14 -14  830.42   53.39
   0  14  14  805.12   45.50
  -1  14 -14    7.00   12.40
   1  14  14   -3.10    8.00
  -1  14 -14   44.40   14.40
  -2  14 -14   10.80   11.80
   2  14  14   11.60    7.90
  -2  14 -14  -10.00    8.30
  -2 -15  14   70.09   19.40
  -2  15  14  118.59   14.00
   2  15 -14  102.19   23.20
  -2  15  14  104.49   21.10
  -1 -15  14  322.87   35.60
  -1  15  14  315.47   30.60
   1  15 -14  293.87   41.00
  -1  15  14  307.47   20.00
   0  15  14  499.15   36.80
   0  15 -14  488.25   42.50
   1  15  14  235.68   24.50
  -1  15 -14  174.78   29.70
   1  15  14  262.67   25.30
  -6   0  15   -3.30    7.60
   5   0 -15    6.50    7.70
  -5   0  15   -1.30    5.40
  -4   0  15   19.20    9.50
   4   0 -15    2.40    5.40
   3   0 -15   -2.70    4.40
  -3   0  15    7.00    7.00
   2   0 -15    2.80    3.30
   2   0 -15    6.60    4.00
  -2   0  15   -1.70    5.10
  -1   0  15   -0.80    4.40
   0   0  15   -0.30    3.90
   0   0 -15   10.70    3.60
   1   0  15   -4.00    3.40
  -1   0 -15    9.30    4.90
   2   0  15    3.30    4.10
   3   0  15   -6.20    3.80
  -3   0 -15    1.80    5.50
  -4   0 -15   -7.90    6.40
   4   0  15    0.80    3.70
  -5   0 -15   -6.30    5.50
   5   0  15   12.20    5.80
   6   0  15   15.70    7.60
  -6   0 -15    6.40    9.40
  -7  -1  15  154.48   28.90
  -7   1  15  226.78   34.50
  -6  -1  15  138.59   24.60
  -6   1  15  119.09   21.80
   5  -1 -15 1110.09   52.29
  -5  -1  15 1160.18   58.69
  -5   1  15 1167.98   58.89
   5   1 -15 1079.79   52.89
   4  -1 -15  875.31   49.00
  -4  -1  15  826.92   46.50
  -4   1  15  803.12   45.70
   4   1 -15  810.92   41.20
   3  -1 -15  737.13   32.10
  -3  -1  15  823.22   43.50
   3   1 -15  793.42   36.00
  -3   1  15  746.43   41.00
  -2  -1  15   20.60    8.50
   2   1 -15   46.30   10.50
   2   1 -15   29.20    7.20
  -2   1  15   25.00    8.80
  -1  -1  15 1026.90   42.90
  -1   1  15 1034.30   41.70
   0  -1  15 1372.96   46.90
   0   1 -15 1322.17   38.80
   0   1  15 1360.46   44.10
   1  -1  15  907.61   35.60
  -1  -1 -15  906.41   27.60
  -1   1 -15  965.60   35.40
   1   1  15  896.81   31.80
   2  -1  15   16.00    6.60
  -2  -1 -15   23.70    8.10
   2   1  15   28.80    7.10
  -2   1 -15   18.80    7.60
  -3  -1 -15  311.97   23.10
   3  -1  15  286.37   22.20
  -3   1 -15  345.07   25.70
   3   1  15  283.77   18.20
  -4  -1 -15 1482.75   57.89
   4  -1  15 1509.55   53.29
   4   1  15 1475.85   46.90
  -4   1 -15 1349.47   69.19
  -5  -1 -15  394.26   32.50
   5  -1  15  447.56   29.40
   5   1  15  456.35   26.90
  -5   1 -15  412.46   34.20
  -6  -1 -15    7.80    8.00
   6  -1  15  -15.90    7.40
   6   1  15    2.20    8.10
  -6   1 -15   -4.50    6.20
  -7  -2  15  760.12   53.09
  -7   2  15  785.62   53.19
   6  -2 -15  687.43   43.10
  -6  -2  15  667.43   47.20
   6   2 -15  696.63   51.99
  -6   2  15  732.23   48.70
   5  -2 -15  124.99   20.10
  -5  -2  15   89.09   17.80
  -5   2  15  120.59   22.80
   5   2 -15  126.79   21.40
  -4  -2  15   -5.10    5.20
   4  -2 -15    6.20    6.40
  -4   2  15    8.90    8.20
   4   2 -15   16.10    8.10
  -3  -2  15  745.13   42.40
   3  -2 -15  821.82   32.10
   3   2 -15  849.02   38.90
  -3   2  15  906.41   44.90
  -2  -2  15 1348.27   54.49
  -2   2  15 1320.27   51.29
   2   2 -15 1373.66   46.70
   2   2 -15 1367.36   43.60
  -1  -2  15   10.40    6.60
  -1   2  15    8.40    5.20
   0  -2  15    0.40    3.40
   0   2 -15   -7.20    4.30
   0   2  15    6.00    4.60
   1  -2  15  630.04   30.80
  -1   2 -15  685.73   41.40
   1   2  15  679.03   25.50
  -2  -2 -15 2544.15   61.29
   2  -2  15 2620.44   70.29
   2   2  15 2487.65   54.39
  -2   2 -15 2430.56   72.49
   3  -2  15  187.38   19.40
  -3  -2 -15  160.08   16.80
   3   2  15  186.68   13.30
  -3   2 -15  159.08   23.80
  -4  -2 -15  192.78   20.30
   4  -2  15  180.88   20.40
   4   2  15  186.88   14.60
  -4   2 -15  188.68   22.10
   5  -2  15  420.36   30.60
  -5  -2 -15  429.96   33.30
  -5   2 -15  359.16   33.10
   5   2  15  416.86   24.80
   6  -2  15 1037.40   52.49
  -6  -2 -15 1171.08   60.99
   6   2  15 1054.79   45.20
  -6   2 -15 1149.89   62.49
  -7  -3  15  109.19   23.50
   7  -3 -15  229.08   40.30
  -7   3  15  189.78   30.50
  -7   3  15  209.18   21.90
   6  -3 -15  253.37   26.90
  -6  -3  15  197.08   29.20
  -6   3  15  241.88   28.60
   6   3 -15  278.07   31.00
  -5  -3  15   93.89   18.30
   5  -3 -15   72.19   16.00
   5   3 -15   88.79   18.40
  -5   3  15  103.39   21.20
   4  -3 -15   -6.80    5.20
  -4  -3  15    2.60    6.40
  -4   3  15    2.70    7.30
   4   3 -15    3.20    7.70
  -3  -3  15  309.07   27.70
   3   3 -15  295.87   23.80
  -3   3  15  287.37   25.40
  -2  -3  15  872.81   43.60
  -2   3  15  847.12   40.20
   2   3 -15  817.72   35.00
  -1  -3  15  182.98   19.50
   1   3 -15  162.48   12.70
   1   3 -15  177.38   13.90
  -1   3  15  157.28   15.70
   0  -3  15   23.00    8.60
   0   3  15   10.90    5.20
   1  -3  15  719.93   34.70
  -1   3 -15  766.22   36.60
   1   3  15  717.63   25.30
  -2  -3 -15  434.96   20.60
   2  -3  15  444.96   28.00
  -2   3 -15  440.86   29.40
  -3  -3 -15   36.10   10.70
   3  -3  15   25.60    9.90
  -3   3 -15   31.70   12.10
   4  -3  15   18.00   10.70
  -4  -3 -15   49.60   13.30
  -4   3 -15   57.49   15.80
   4   3  15   44.70    7.70
  -5  -3 -15  325.17   28.40
   5  -3  15  345.67   28.80
  -5   3 -15  337.67   32.10
   5   3  15  324.87   20.50
   6  -3  15   75.99   16.50
  -6  -3 -15   60.49   20.50
   6   3  15   58.79   13.00
  -6   3 -15   34.10   14.50
  -7  -4  15  356.16   37.00
   7  -4 -15  306.07   33.80
  -7   4  15  363.46   30.70
  -7   4  15  347.27   36.30
   6  -4 -15  448.96   34.20
  -6  -4  15  507.45   41.30
  -6   4  15  351.06   35.10
   6   4 -15  458.85   38.80
   5  -4 -15  343.67   27.70
  -5  -4  15  311.77   34.60
  -5   4  15  323.97   31.60
   5   4 -15  312.87   30.40
  -4  -4  15  206.48   23.50
   4  -4 -15  218.38   19.70
  -4   4  15  198.18   22.90
   4   4 -15  178.48   21.00
   3  -4 -15  189.88   12.70
  -3  -4  15  191.68   22.70
   3   4 -15  211.18   23.60
  -3   4  15  223.28   22.90
   3   4 -15  176.78   19.50
  -2  -4  15 1424.16   58.09
   2   4 -15 1388.56   49.30
   2   4 -15 1456.45   54.69
  -2   4  15 1440.56   53.79
  -1  -4  15  661.73   36.70
  -1   4  15  678.83   32.00
   1   4 -15  668.53   29.60
   1   4 -15  646.34   28.10
   0  -4  15  107.19   17.00
   0   4 -15  102.89    8.50
   0   4  15  108.59   11.80
   0   4 -15  105.69    8.50
   1  -4  15  119.99   18.30
  -1   4 -15  117.99   19.30
   1   4  15  124.99   10.00
   2  -4  15 2065.99   67.29
  -2  -4 -15 1911.61   47.30
  -2   4 -15 2082.89   70.19
  -3  -4 -15  598.84   29.60
   3  -4  15  606.84   38.80
  -3   4 -15  504.75   41.90
  -4  -4 -15   40.70   12.30
   4  -4  15   43.20   11.90
  -4   4 -15   37.10   13.90
  -5  -4 -15   16.70    9.30
   5  -4  15   35.10   11.50
  -5   4 -15   19.20   12.60
   5   4  15   44.20    8.50
   6  -4  15 1060.19   56.09
  -6   4 -15 1026.30   61.59
   6   4  15 1022.10   41.60
   7  -5 -15  -10.30   12.60
  -7  -5  15   10.40    7.90
  -7   5  15   34.30   14.60
  -6  -5  15  139.09   26.60
   6  -5 -15  155.48   23.60
  -6   5  15  139.09   27.10
  -6   5  15  184.98   18.70
   5  -5 -15  976.40   46.70
  -5  -5  15 1016.10   57.29
  -5   5  15  826.52   50.59
  -4  -5  15  769.42   47.20
   4  -5 -15  843.42   36.80
   4   5 -15  862.51   45.70
  -4   5  15  975.60   50.79
  -3  -5  15    2.70    6.40
  -3   5  15    5.10    6.20
   3   5 -15   -7.60    5.20
   3   5 -15    1.60    6.40
  -2  -5  15  258.67   25.00
  -2   5  15  240.18   21.50
   2   5 -15  225.98   22.50
  -1  -5  15  703.83   39.40
   1   5 -15  714.93   32.40
   1   5 -15  798.72   36.30
  -1   5  15  712.43   33.40
   0  -5  15 1196.98   50.29
   0   5 -15 1054.99   35.90
   0   5  15 1077.39   36.80
   0   5 -15 1121.09   36.20
   1  -5  15   14.50    7.80
   1   5  15    7.80    4.00
   2  -5  15  133.09   20.40
  -2   5 -15  106.49   20.20
   3  -5  15  932.51   51.29
  -3  -5 -15  843.02   39.30
  -3   5 -15  896.61   48.60
  -4  -5 -15  473.65   29.90
   4  -5  15  487.05   35.70
  -4   5 -15  459.75   37.00
   5  -5  15   32.20   14.90
  -5  -5 -15   43.90   13.70
   5   5  15   51.59    8.60
  -5   5 -15   30.40   12.90
  -6   5 -15   88.49   23.00
   6   5  15   62.59   13.40
  -7  -6  15   95.89   23.30
   7  -6 -15   90.09   18.40
  -7   6  15   96.19   24.60
   6  -6 -15   10.60   10.40
  -6  -6  15    3.30    7.60
  -6   6  15   -4.50    7.20
  -5  -6  15  573.64   42.40
   5  -6 -15  486.45   32.60
   5   6 -15  504.65   40.30
  -5   6  15  592.74   42.60
   4  -6 -15  967.90   38.90
  -4  -6  15  979.80   54.29
   4   6 -15  916.61   50.29
  -4   6  15 1020.60   52.79
  -3  -6  15  199.08   23.50
  -3   6  15  235.88   23.70
   3   6 -15  254.67   23.70
   3   6 -15  260.27   27.30
  -2  -6  15   15.70    8.70
   2   6 -15   10.90    6.40
   2   6 -15   10.60    8.20
  -2   6  15    0.70    4.30
  -1  -6  15 1519.75   60.99
  -1   6  15 1496.45   51.29
   1   6 -15 1555.84   55.49
   1   6 -15 1616.54   53.69
   0  -6  15  715.93   40.10
   0   6 -15  789.02   36.00
   0   6  15  722.83   29.90
   0   6 -15  759.72   32.10
   1  -6  15  755.02   41.00
   1   6  15  704.03   24.60
  -1   6 -15  725.73   27.60
   2  -6  15   15.40    9.60
  -2   6 -15   33.20   11.90
   3  -6  15  854.71   50.69
  -3   6 -15  884.91   50.29
  -4  -6 -15  227.08   21.90
   4  -6  15  262.97   29.70
  -4   6 -15  265.47   29.30
  -5  -6 -15  645.34   39.30
   5  -6  15  602.44   43.10
  -5   6 -15  553.54   45.10
   6   6  15  108.69   15.50
   6  -7 -15  117.99   21.00
  -6  -7  15  175.08   28.70
  -6   7  15  115.39   23.60
  -6   7  15  169.28   15.80
  -5  -7  15  137.29   25.80
   5  -7 -15  165.28   18.70
  -5   7  15  145.39   12.50
  -5   7  15  129.89   23.40
   5   7 -15  151.58   25.20
   4  -7 -15  280.67   20.20
  -4  -7  15  308.97   49.50
  -4   7  15  255.87   28.30
  -3  -7  15  275.07   28.30
   3   7 -15  278.17   26.00
  -3   7  15  278.87   26.10
   3   7 -15  267.77   30.20
  -2  -7  15  182.98   21.60
  -2   7  15  116.79   18.90
   2   7 -15  125.29   19.20
   2   7 -15  149.88   23.60
  -1  -7  15   50.69   13.30
  -1   7  15   38.70   10.80
   1   7 -15   72.09   15.60
   1   7 -15   44.40   11.80
   0  -7  15  171.68   24.00
   0   7  15  195.78   15.80
   0   7 -15  190.78   17.50
   0   7 -15  160.98   17.00
   1  -7  15  358.86   29.50
  -1   7 -15  324.77   23.00
   1   7  15  343.47   17.40
  -1   7 -15  319.67   20.10
   2  -7  15  101.99   20.60
  -2   7 -15   73.09   10.60
  -2   7 -15   48.20   14.80
   3  -7  15   27.70   12.60
  -3   7 -15   13.20    8.40
   4  -7  15  127.29   23.60
  -4   7 -15  144.89   26.70
  -5  -7 -15  171.08   25.80
  -5   7 -15  143.19   27.80
  -6  -8  15   74.69   18.40
   6  -8 -15  102.59   19.10
  -6   8  15  133.19   17.20
  -6   8  15  139.09   24.60
   5  -8 -15  593.84   35.20
  -5  -8  15  620.74   46.10
  -4  -8  15  529.55   40.40
   4  -8 -15  505.45   26.50
   4   8 -15  517.65   44.30
  -4   8  15  551.44   39.40
  -3  -8  15  411.96   34.60
  -3   8  15  450.75   33.60
   3   8 -15  383.76   32.30
   3   8 -15  397.56   36.70
  -2  -8  15   71.59   16.80
  -2   8  15   48.30   13.40
   2   8 -15   56.89   16.10
   2   8 -15   66.19   14.90
  -1  -8  15  517.25   36.70
  -1   8  15  532.45   30.90
   1   8 -15  483.55   33.50
   1   8 -15  492.85   31.70
   0  -8  15  625.04   40.70
   0   8  15  677.83   30.90
   0   8 -15  671.03   35.20
   0   8 -15  674.23   36.40
   1  -8  15  701.73   43.20
   1   8  15  690.63   27.10
  -1   8 -15  646.24   33.30
  -1   8 -15  669.33   32.40
  -2   8 -15   83.49   15.70
  -2   8 -15  130.69   14.20
   3  -8  15  361.06   35.80
  -3   8 -15  379.16   19.80
  -3   8 -15  401.66   23.70
  -3   8 -15  383.36   36.00
   4  -8  15  404.36   44.60
  -4   8 -15  469.65   40.70
  -5   8 -15  982.90   62.09
   6  -9 -15  779.62   45.00
  -6  -9  15  946.41   60.29
  -6   9  15  913.21   37.40
  -6   9  15  828.72   55.79
  -5  -9  15  162.88   27.70
   5  -9 -15  264.77   24.10
  -5   9  15  212.08   30.60
   4  -9 -15   66.99   11.90
  -4  -9  15   46.00   16.50
   4   9 -15   34.80   14.90
  -4   9  15   51.59   15.50
   4   9 -15   72.19   25.90
  -3  -9  15  975.00   69.99
   3   9 -15  930.61   57.29
  -3   9  15 1087.59   53.69
  -2  -9  15 1353.56   62.89
   2   9 -15 1317.97   58.29
  -2   9  15 1305.27   55.49
   2   9 -15 1319.97   62.69
  -1  -9  15  419.36   34.40
   1   9 -15  452.95   32.00
  -1   9  15  469.35   29.80
   1   9 -15  419.96   32.50
   0  -9  15   12.30    7.80
   0   9 -15   14.80    8.80
   0   9 -15    8.80    8.70
   0   9  15   32.90    8.80
   1  -9  15  761.42   46.80
  -1   9 -15  853.71   39.80
   1   9  15  916.01   33.70
  -1   9 -15  879.21   42.00
  -2   9 -15  784.92   37.10
  -2   9 -15  817.92   36.60
   3  -9  15 1030.30   75.29
  -3   9 -15  997.00   37.40
  -3   9 -15 1014.10   39.00
  -3   9 -15  966.30   58.29
  -4   9 -15   24.10   13.00
  -4   9 -15    9.80    5.40
  -4   9 -15   -0.30    5.10
  -5   9 -15  546.75   47.50
   5 -10 -15    2.20    9.30
  -5 -10  15   18.30   10.60
  -5  10  15    9.00    7.90
  -4 -10  15   -5.20    6.20
   4 -10 -15    4.70    7.10
  -4  10  15   18.90   11.20
   4  10 -15   14.40   12.40
  -3 -10  15   13.30   10.40
   3  10 -15   50.79   14.60
  -3  10  15   29.00   11.30
   3  10 -15   50.79   14.90
  -2 -10  15    5.50   10.70
   2  10 -15   11.80    8.80
  -2  10  15   12.60    8.10
   2  10 -15   22.40   10.40
  -1 -10  15    7.80    6.90
   1  10 -15   -8.10    3.90
   1  10 -15   18.90    9.20
   0 -10  15   21.10   10.50
   0  10 -15   18.60    9.40
   0  10 -15   39.80   11.40
   0  10  15   25.70    9.80
   1 -10  15   12.10    9.20
  -1  10 -15   14.30    8.80
  -1  10 -15   22.60   10.40
   1  10  15   31.20    8.50
   2  10  15   -4.90    3.40
  -2  10 -15    2.10    6.70
  -2  10 -15    0.70    4.70
   3  10  15    1.40    4.60
  -3  10 -15   -1.80    7.00
   3  10  15   -5.60    3.50
  -3  10 -15   -7.50    5.60
  -3  10 -15    0.60    8.40
  -4  10 -15   63.29   12.00
  -4  10 -15   33.20   15.30
  -4  10 -15   71.99   13.30
   4  10  15   61.09    9.20
   5 -11 -15   72.19   17.50
  -5 -11  15   76.59   18.50
  -5  11  15   81.79   21.30
   5  11 -15   42.40   15.60
  -4 -11  15    9.00   10.60
  -4  11  15  -14.40    6.40
   4  11 -15   -8.90   10.90
  -3 -11  15  907.81   54.49
   3  11 -15  763.12   49.10
  -3  11  15  817.82   48.40
   3  11 -15  884.11   58.09
  -2 -11  15  766.82   49.99
  -2  11  15  761.72   44.00
   2  11 -15  730.53   49.40
  -1 -11  15  297.37   31.10
   1  11 -15  280.47   26.80
   1  11 -15  299.47   29.80
  -1  11  15  271.87   25.10
   0 -11  15    0.30    9.20
   0  11  15   27.80    9.20
   0  11 -15   21.80    9.60
   0  11 -15    8.00    9.40
   1 -11  15  746.13   63.59
  -1  11 -15  698.13   41.50
   1  11  15  626.84   31.70
  -1  11 -15  718.23   40.40
   2  11  15  624.94   28.70
  -2  11 -15  584.24   36.90
  -2  11 -15  617.14   36.20
  -3  11 -15  358.66   26.30
  -3  11 -15  359.16   27.40
   3  11  15  281.87   18.30
  -3  11 -15  324.37   37.10
   3  11  15  349.27   20.80
  -4  11 -15   51.39   13.40
  -4  11 -15   59.29   13.10
  -4  11 -15   72.49   22.80
   4  11  15   53.09   10.90
   4  11  15   53.29    9.00
  -4 -12  15  661.53   48.70
   4  12 -15  598.84   52.29
  -4  12  15  600.34   45.10
  -3 -12  15  378.36   37.00
  -3  12  15  504.55   38.80
   3  12 -15  392.86   40.00
  -2 -12  15   97.09   20.90
  -2  12  15  117.99   20.10
   2  12 -15  115.29   23.60
   2  12 -15   78.39   20.30
  -1 -12  15  418.76   37.30
   1  12 -15  342.17   33.00
   1  12 -15  383.46   39.60
  -1  12  15  355.36   29.50
   0 -12  15  590.24   44.00
   0  12 -15  627.94   42.40
   0  12  15  632.74   35.90
  -1  12 -15  778.72   46.30
   1  12  15  812.42   38.30
  -1  12 -15  720.23   43.20
  -2  12 -15    3.20    8.70
   2  12  15  -11.80    6.90
   2  12  15   10.10    6.70
  -2  12 -15    7.20    9.70
  -3  12 -15  327.77   27.20
  -3  12 -15  369.06   29.50
   3  12  15  332.67   22.20
   3  12  15  283.67   24.90
  -3 -13  15   39.30   15.50
  -3  13  15   53.09   15.10
   3  13 -15   71.29   21.10
  -2 -13  15    9.50    9.60
  -2  13  15    2.10    6.80
   2  13 -15   11.50    8.60
  -1 -13  15  213.38   32.60
  -1  13  15  204.38   23.90
   1  13 -15  139.39   25.60
   1  13 -15  157.98   25.80
   0 -13  15  414.86   38.30
   0  13 -15  469.05   74.59
   0  13 -15  404.56   35.50
   0  13  15  427.96   31.20
   1  13  15  125.69   18.80
  -1  13 -15   95.89   20.80
   2  13  15   -2.90    6.20
  -2  13 -15   -0.60    7.00
  -2 -14  15  103.99   22.90
   2  14 -15  141.39   26.90
  -2  14  15  115.29   22.90
  -1 -14  15  490.55   43.10
   1  14 -15  542.45   44.10
  -1  14  15  521.85   38.30
   0  14 -15  454.15   39.60
   0  14  15  452.95   33.70
  -1  14 -15   83.29   19.30
   1  14  15   62.59   14.20
  -1  14 -15   21.20   17.70
  -7   0  16  650.03   48.80
  -6   0  16   15.20    8.50
  -5   0  16  153.18   24.70
  -4   0  16 2154.38   79.29
   4   0 -16 2089.39   67.79
  -3   0  16 1182.98   53.49
   3   0 -16 1199.48   45.80
   3   0 -16 1138.29   41.20
  -2   0  16  390.56   28.50
  -1   0  16  416.76   27.00
   0   0  16 1959.10   58.09
  -1   0 -16  662.93   25.80
   1   0  16  684.43   29.90
   2   0  16  215.18   16.50
   3   0  16  271.87   21.50
  -3   0 -16  285.67   23.00
  -4   0 -16 2012.40   80.19
  -5   0 -16  181.18   28.20
   5   0  16  184.68   19.20
   6   0  16  460.35   32.10
  -6   0 -16  501.95   39.90
  -7  -1  16   99.29   21.80
  -7   1  16  103.09   23.90
  -6  -1  16  157.08   27.20
  -6   1  16  123.69   22.50
   5  -1 -16   -2.30    8.10
  -5  -1  16   10.70    8.30
   5   1 -16   -4.00    7.40
  -5   1  16    8.50    7.70
   4  -1 -16  133.49   19.80
  -4  -1  16  116.09   21.90
  -4   1  16  107.89   21.00
   4   1 -16  117.59   19.60
   3  -1 -16    4.90    5.50
   3  -1 -16   20.70    7.50
  -3  -1  16   19.00    9.10
   3   1 -16   11.50    7.90
   3   1 -16   19.20    7.00
  -2  -1  16  164.28   18.80
  -2   1  16  159.68   18.80
   2   1 -16  153.88   11.80
   2   1 -16  178.98   12.20
  -1  -1  16  126.09   18.00
  -1   1  16  161.98   16.90
   1   1 -16  141.59   10.60
   0  -1  16  126.69   17.10
   0   1  16  115.79   13.10
   0   1 -16  135.39   11.80
   1  -1  16   57.59   11.50
  -1  -1 -16   76.09    8.90
   1   1  16   91.59   12.50
  -1   1 -16   75.39   12.20
   2  -1  16  816.72   35.10
  -2  -1 -16  799.72   31.50
   2   1  16  760.62   29.40
  -2   1 -16  793.42   35.80
  -3  -1 -16   21.50    8.70
   3   1  16   43.00    9.60
  -3   1 -16   44.10   12.70
  -4  -1 -16  336.07   26.70
   4  -1  16  279.07   23.20
   4   1  16  316.47   21.10
  -4   1 -16  299.57   27.10
  -5  -1 -16  104.79   20.30
   5  -1  16   93.19   17.30
  -5   1 -16   89.19   20.00
   5   1  16  133.79   18.00
  -6  -1 -16  327.37   31.80
   6  -1  16  326.37   27.90
  -6   1 -16  347.67   33.90
   6   1  16  318.57   25.70
  -7  -2  16  309.27   34.90
  -7   2  16  272.47   32.50
   6  -2 -16   22.40    9.40
  -6  -2  16   -3.30    9.30
   6   2 -16    0.50   10.20
  -6   2  16   15.40   11.00
  -5  -2  16    5.30    9.10
   5  -2 -16    2.20    7.80
   5   2 -16   10.00    8.00
  -5   2  16   39.10   12.80
  -4  -2  16  639.84   41.80
   4  -2 -16  604.44   32.20
  -4   2  16  607.24   39.90
   4   2 -16  534.65   34.20
  -3  -2  16  394.06   31.40
   3  -2 -16  404.26   21.30
   3  -2 -16  446.86   24.60
  -3   2  16  434.36   31.20
   3   2 -16  359.56   27.60
   3   2 -16  425.66   26.70
  -2  -2  16    3.60    5.90
   2   2 -16   -0.60    4.70
  -2   2  16   -1.30    5.40
   2   2 -16   13.50    5.10
  -1  -2  16   49.40   11.70
  -1   2  16   45.20   15.30
   0  -2  16  909.41   39.70
   0   2  16  885.31   34.70
   0   2 -16  836.92   33.40
   1  -2  16  679.93   33.60
  -1   2 -16  716.63   32.80
   1   2  16  747.53   28.10
  -2  -2 -16   -7.00    4.50
   2   2  16    1.10    3.40
  -2   2 -16   27.20    9.70
  -3  -2 -16   82.49   14.50
   3  -2  16   58.89   14.80
   3   2  16   56.89   10.00
  -3   2 -16   44.20   12.80
   4  -2  16  600.94   35.40
  -4  -2 -16  523.65   33.00
   4   2  16  567.94   26.00
  -4   2 -16  624.84   39.80
   5  -2  16  203.38   26.10
  -5  -2 -16  293.27   27.50
  -5   2 -16  279.47   29.00
  -6  -2 -16   22.60   10.80
   6   2  16   26.60    9.80
  -6   2 -16   19.90   12.30
  -7  -3  16  406.96   39.50
  -7   3  16  347.67   36.50
  -6  -3  16 1231.38   65.89
   6  -3 -16 1209.28   57.49
   6   3 -16 1214.18   61.09
  -6   3  16 1239.48   65.59
   5  -3 -16  302.67   26.40
  -5  -3  16  254.57   36.50
  -5   3  16  257.57   28.80
   5   3 -16  222.78   24.90
  -4  -3  16  227.98   26.00
   4  -3 -16  157.88   17.20
  -4   3  16  213.88   29.90
   4   3 -16  198.68   21.50
  -3  -3  16  313.87   28.50
  -3   3  16  363.06   29.30
   3   3 -16  379.96   31.80
   3   3 -16  378.66   29.60
  -2  -3  16 2265.97   76.19
  -2   3  16 2230.28   71.19
   2   3 -16 2317.07   68.39
   2   3 -16 2334.17   62.59
  -1  -3  16  417.86   29.30
  -1   3  16  435.56   27.70
   0  -3  16  407.96   27.40
   0   3  16  393.36   22.30
   1  -3  16  183.28   18.30
  -1   3 -16  166.68   17.60
   1   3  16  197.88   13.50
  -2  -3 -16 1799.02   45.10
   2  -3  16 1881.61   62.29
  -2   3 -16 1842.92   63.29
   2   3  16 1776.72   41.90
   3  -3  16  327.97   27.60
  -3  -3 -16  255.57   19.70
  -3   3 -16  250.77   24.90
  -4  -3 -16  418.16   28.50
   4  -3  16  379.76   29.90
   4   3  16  396.56   19.70
  -4   3 -16  361.86   31.40
   5  -3  16  138.59   22.20
  -5  -3 -16  115.59   21.40
  -5   3 -16  114.29   31.50
   5   3  16  116.39   12.60
  -7  -4  16   86.79   21.60
   7  -4 -16   78.19   17.70
  -7   4  16   81.39   21.00
   6  -4 -16  322.17   28.40
  -6  -4  16  337.27   33.50
   6   4 -16  324.17   43.70
  -6   4  16  322.77   33.40
   5  -4 -16  711.83   39.50
  -5  -4  16  737.83   48.00
  -5   4  16  703.13   46.80
  -4  -4  16  173.38   27.20
   4  -4 -16  167.98   16.20
   4   4 -16  148.19   22.40
  -4   4  16  149.88   24.30
  -3  -4  16   25.60   11.40
  -3   4  16   16.00    9.30
   3   4 -16   14.60    8.70
   3   4 -16   22.50   10.00
  -2  -4  16  661.33   39.80
  -2   4  16  585.44   34.10
   2   4 -16  562.94   29.80
   2   4 -16  603.64   32.60
  -1  -4  16  924.41   45.20
  -1   4  16 1011.10   40.90
   1   4 -16  916.81   33.50
   1   4 -16  975.30   33.60
   0  -4  16  241.28   22.10
   0   4  16  215.58   16.50
   1  -4  16   -6.30    5.10
   1   4  16    4.90    3.50
  -1   4 -16    0.40    5.70
   2  -4  16  186.48   20.80
  -2   4 -16  184.88   20.90
   3  -4  16  559.74   38.70
  -3  -4 -16  545.85   33.00
  -3   4 -16  560.14   37.40
   4  -4  16    6.50    9.50
  -4  -4 -16    8.50    8.20
  -4   4 -16   16.10    9.60
  -5  -4 -16   32.00   11.70
   5  -4  16   21.30   16.80
   5   4  16   23.80    6.80
  -5   4 -16   27.20   11.90
   6  -5 -16  359.76   30.80
  -6  -5  16  367.76   36.70
  -6   5  16  294.47   33.50
   5  -5 -16  445.86   30.20
  -5  -5  16  472.95   39.00
  -5   5  16  507.35   39.80
  -4  -5  16   80.89   19.10
   4  -5 -16  108.09   14.80
   4   5 -16  111.99   20.20
  -3  -5  16  180.68   26.30
   3   5 -16  146.29   24.40
   3   5 -16  218.18   21.70
  -3   5  16  154.28   23.20
  -2  -5  16  626.44   39.10
   2   5 -16  608.44   35.00
   2   5 -16  606.84   37.80
  -2   5  16  570.64   34.10
  -1  -5  16  597.64   37.00
  -1   5  16  602.14   31.30
   1   5 -16  576.24   27.90
   1   5 -16  550.94   41.80
   0  -5  16   25.80    9.60
   0   5  16   38.80    8.40
   0   5 -16   44.70    7.70
   0   5 -16   44.00    7.20
   1  -5  16  646.64   37.60
   1   5  16  636.64   23.70
   2  -5  16  656.73   38.70
  -2   5 -16  596.44   44.40
  -3  -5 -16  494.35   29.30
   3  -5  16  496.85   37.40
  -3   5 -16  424.56   33.90
  -4  -5 -16    8.20    7.50
   4  -5  16   16.20   11.10
  -4   5 -16   -2.80    7.80
   5  -5  16  578.94   42.40
  -5  -5 -16  604.44   38.10
  -5   5 -16  604.24   45.30
   6  -6 -16   37.90   14.00
  -6  -6  16   52.49   15.50
  -6   6  16   26.30   12.10
   5  -6 -16  406.16   28.40
  -5  -6  16  343.97   33.80
   5   6 -16  333.27   32.50
  -5   6  16  333.57   36.80
   4  -6 -16  682.53   29.20
  -4   6  16  637.64   42.50
   4   6 -16  598.44   39.10
  -3  -6  16   72.99   15.40
  -3   6  16   69.69   15.90
   3   6 -16   73.59   18.10
   3   6 -16   85.49   16.20
  -2  -6  16   44.40   13.50
   2   6 -16   60.49   14.00
  -2   6  16   67.29   14.50
   2   6 -16   50.79   12.70
  -1  -6  16  212.88   23.00
   1   6 -16  204.18   18.50
   1   6 -16  219.88   19.80
  -1   6  16  236.08   32.10
   0  -6  16  744.53   41.80
   0   6 -16  758.92   31.30
   0   6 -16  712.93   29.40
   0   6  16  712.23   30.10
   1  -6  16   38.20   12.70
   1   6  16   47.60    7.60
   2  -6  16  133.29   21.60
  -2   6 -16  156.58   25.70
   3  -6  16  250.67   29.40
  -3   6 -16  242.98   26.80
  -4  -6 -16  377.36   26.20
   4  -6  16  361.56   33.80
  -4   6 -16  407.86   42.60
  -5  -6 -16   32.90   13.40
  -5   6 -16   12.80   12.30
   6  -7 -16   20.10   11.60
  -6  -7  16    8.60    8.20
  -6   7  16    0.80    9.60
  -5  -7  16  305.87   32.20
   5  -7 -16  342.07   26.00
  -5   7  16  292.47   41.10
   5   7 -16  310.47   33.20
  -4  -7  16  678.33   46.60
  -4   7  16  681.83   44.10
   4   7 -16  678.23   48.60
  -3  -7  16 1283.97   61.79
   3   7 -16 1284.17   62.69
  -3   7  16 1266.37   57.39
   3   7 -16 1183.88   54.89
  -2  -7  16    1.40    5.70
   2   7 -16    1.50    6.30
   2   7 -16    8.90    7.30
  -2   7  16    6.40    5.20
  -1  -7  16  258.77   26.10
   1   7 -16  273.67   23.30
  -1   7  16  231.48   20.40
   1   7 -16  272.27   21.80
   0  -7  16  402.16   31.90
   0   7 -16  387.16   24.60
   0   7 -16  424.46   25.00
   0   7  16  377.16   22.40
   1  -7  16 1389.16   60.19
  -1   7 -16 1282.77   40.10
   1   7  16 1355.36   38.60
  -1   7 -16 1319.37   41.50
   2  -7  16   31.40   11.30
  -2   7 -16   33.30   12.60
   3  -7  16  158.28   25.70
  -3   7 -16  136.39   25.50
   4  -7  16  294.37   39.20
  -4   7 -16  235.28   35.70
  -5  -7 -16 1939.41   70.99
  -5   7 -16 1927.21   87.69
  -6  -8  16  380.16   37.60
   6  -8 -16  285.27   27.50
  -6   8  16  276.97   32.90
  -6   8  16  295.57   21.80
  -5  -8  16  418.86   38.10
  -5   8  16  419.86   37.50
  -4  -8  16  196.38   30.00
  -4   8  16  169.98   27.90
   4   8 -16  253.37   33.70
   4   8 -16  197.08   31.10
  -3  -8  16  340.77   50.19
   3   8 -16  377.46   35.30
  -3   8  16  325.07   28.50
   3   8 -16  326.77   29.50
  -2  -8  16  471.25   36.60
  -2   8  16  483.25   32.50
   2   8 -16  523.55   35.00
   2   8 -16  488.35   35.80
  -1  -8  16  565.84   39.80
  -1   8  16  564.64   32.40
   1   8 -16  626.14   35.40
   1   8 -16  556.54   35.20
   0  -8  16  170.98   24.20
   0   8 -16  167.88   18.20
   0   8  16  183.88   16.60
   1  -8  16  398.36   33.40
  -1   8 -16  387.96   24.40
  -1   8 -16  395.06   23.70
   1   8  16  402.36   20.40
  -2   8 -16  153.08   26.10
  -2   8 -16  159.28   13.70
  -2   8 -16  190.98   15.10
  -3   8 -16  838.02   52.99
  -4   8 -16  148.89   28.90
  -5  -9  16   30.20   13.30
   5  -9 -16   34.30   10.60
  -5   9  16   18.10   13.30
  -4  -9  16  236.08   35.30
   4   9 -16  205.88   30.90
   4   9 -16  183.08   33.20
  -4   9  16  229.98   26.00
  -3  -9  16  196.38   31.20
  -3   9  16  253.57   25.70
   3   9 -16  270.17   30.30
   2   9 -16    3.10    6.80
   2   9 -16    1.00    7.00
  -2   9  16    1.10    6.40
  -1  -9  16   65.79   16.90
   1   9 -16   63.29   15.10
  -1   9  16   56.09   13.50
   1   9 -16   82.79   18.20
   0  -9  16  138.59   23.70
   0   9 -16  166.38   19.00
   0   9  16  126.49   17.10
   0   9 -16  189.68   20.10
   1  -9  16  241.08   27.20
   1   9  16  230.08   16.50
  -1   9 -16  210.88   20.40
  -2   9 -16   -2.60    5.30
  -2   9 -16   10.40    6.00
  -3   9 -16   98.39   12.10
  -3   9 -16   73.49   21.20
  -3   9 -16   88.59   11.70
  -4   9 -16   36.30   14.60
  -5 -10  16  840.22   55.09
   5 -10 -16  756.62   38.10
   5  10 -16  740.83   58.89
  -5  10  16  819.22   54.19
  -4 -10  16   70.09   18.20
  -4  10  16   12.80   11.00
   4  10 -16   45.00   17.70
  -3 -10  16  697.73   47.50
   3  10 -16  688.83   52.19
   3  10 -16  752.72   46.40
  -3  10  16  715.83   44.60
  -2 -10  16  594.54   43.00
  -2  10  16  591.24   37.50
   2  10 -16  566.84   41.00
  -1 -10  16 1457.15   72.49
   1  10 -16 1598.24   64.19
  -1  10  16 1785.72   62.59
   1  10 -16 1743.73   69.79
   0 -10  16  104.69   23.90
   0  10  16   94.69   24.30
   0  10 -16  163.58   22.80
   0  10 -16  107.59   18.50
   1 -10  16  357.06   36.30
  -1  10 -16  326.27   26.80
  -1  10 -16  324.07   25.70
   1  10  16  287.67   19.90
  -2  10 -16  681.13   34.70
   2  10  16  687.03   27.30
  -2  10 -16  619.64   33.90
  -3  10 -16 1712.13   81.79
  -3  10 -16 1705.93   53.99
  -3  10 -16 1721.13   52.99
  -4  10 -16  114.39   19.00
  -4  10 -16  116.99   13.40
  -4  10 -16   77.39   21.70
  -4 -11  16  100.99   21.20
   4  11 -16  100.09   23.60
  -4  11  16  134.79   24.30
  -3 -11  16  438.76   38.60
   3  11 -16  536.05   43.90
  -3  11  16  419.76   35.20
  -2 -11  16  -10.70    6.00
   2  11 -16   -6.40    9.10
  -2  11  16   17.60    9.40
   2  11 -16   16.40   10.10
  -1 -11  16   48.10   15.40
  -1  11  16   39.50   11.70
   1  11 -16   29.90   10.70
   1  11 -16   17.30    9.80
   0 -11  16  192.78   29.90
   0  11 -16  152.98   24.00
   0  11 -16  145.59   23.00
   0  11  16  182.18   18.90
   1 -11  16  571.34   42.80
  -1  11 -16  601.54   37.90
   1  11  16  546.05   29.30
  -1  11 -16  577.74   35.20
  -2  11 -16   -3.50    7.90
   2  11  16    6.00    5.60
  -2  11 -16   14.50    8.00
  -3  11 -16   40.70   17.20
  -3  11 -16   49.40   11.60
   3  11  16   55.29    9.10
   3  11  16   48.80    8.40
  -3  11 -16   31.10   11.60
  -3 -12  16  215.98   33.90
  -3  12  16  246.18   26.60
   3  12 -16  200.58   32.30
  -2 -12  16   25.30   11.40
  -2  12  16   34.60   11.50
   2  12 -16   37.50   18.00
   2  12 -16   37.80   11.80
  -1 -12  16  144.49   24.80
  -1  12  16  103.59   19.00
   1  12 -16  154.78   24.30
   1  12 -16  151.08   25.50
   0 -12  16  276.67   32.10
   0  12  16  324.37   25.70
   0  12 -16  310.67   29.80
  -1  12 -16  215.08   23.20
   1  12  16  157.68   17.60
  -1  12 -16  145.29   22.00
  -2  12 -16   13.90    9.10
  -2  12 -16   -8.30    8.00
   2  12  16    7.30    7.30
  -2 -13  16   27.40   13.40
  -2  13  16   11.10   10.00
   2  13 -16    9.50   10.70
  -1 -13  16  149.29   27.40
  -1  13  16  158.08   23.50
   1  13 -16  170.58   29.10
   0 -13  16  262.57   35.90
   0  13  16  287.57   25.30
   0  13 -16  303.67   32.30
   0  13 -16  251.87   29.00
  -1  13 -16  947.51   51.89
   1  13  16  839.42   42.20
  -6   0  17    6.40    8.00
  -5   0  17    5.60    9.90
   5   0 -17   12.40    9.50
  -4   0  17    3.70    8.00
  -3   0  17   -2.30    4.50
   3   0 -17  -10.30    4.20
   3   0 -17    7.00    5.70
  -1   0  17  -13.10    4.60
   0   0  17    3.90    5.40
  -1   0 -17    0.30    4.40
   1   0  17    0.00    4.00
   2   0  17    7.10    4.30
   3   0  17    4.90    5.30
  -3   0 -17    2.30    6.30
  -4   0 -17    3.40    7.80
   4   0  17   -2.60    6.50
  -5   0 -17   12.60    8.50
   5   0  17   -5.60    8.00
  -6  -1  17  302.87   33.30
   6  -1 -17  221.68   29.80
  -6   1  17  319.27   33.90
  -5  -1  17   67.49   16.00
   5  -1 -17   94.49   18.00
   5   1 -17   75.19   15.60
   4  -1 -17 1630.94   55.59
  -4  -1  17 1676.63   70.89
  -4   1  17 1661.43   69.79
   4   1 -17 1598.64   58.99
  -3  -1  17  383.06   31.30
   3  -1 -17  378.56   18.90
   3  -1 -17  370.56   19.80
   3   1 -17  392.06   23.80
  -3   1  17  398.06   31.30
  -2  -1  17  831.92   43.20
  -2   1  17  902.51   43.90
  -1  -1  17   10.10    6.80
  -1   1  17    1.70    5.60
   0  -1  17 1234.98   47.20
   0   1  17 1129.49   42.70
   0   1 -17 1159.68   34.30
   1  -1  17  335.67   33.90
   1   1  17  251.77   17.90
  -1   1 -17  275.17   18.50
   2  -1  17 1142.29   43.80
  -2  -1 -17 1142.59   38.00
   2   1  17 1117.29   37.80
  -2   1 -17 1188.08   44.20
  -3  -1 -17    3.40    6.40
   3  -1  17    9.60    6.90
  -3   1 -17    2.60    6.00
   4  -1  17  792.12   41.50
  -4  -1 -17  813.32   41.90
   4   1  17  804.02   35.90
  -4   1 -17  867.91   45.30
   5  -1  17   13.50   11.40
  -5  -1 -17    7.50    9.50
  -5   1 -17   23.80   12.90
   5   1  17   42.70   10.80
   6  -2 -17  593.84   40.20
  -6  -2  17  619.64   46.90
   6   2 -17  646.54   42.90
  -6   2  17  569.44   44.20
   5  -2 -17  226.98   23.60
  -5  -2  17  187.98   30.30
   5   2 -17  218.78   23.70
  -5   2  17  228.08   48.60
   4  -2 -17  600.24   31.00
  -4  -2  17  735.23   46.10
  -4   2  17  697.03   43.70
   4   2 -17  624.64   36.70
  -3  -2  17   58.99   14.80
  -3   2  17   90.99   18.10
   3   2 -17  130.99   19.50
   3   2 -17   86.19   14.70
  -2  -2  17  735.33   41.10
   2   2 -17  732.33   27.00
   2   2 -17  774.12   28.30
  -2   2  17  747.63   39.60
  -1  -2  17  309.57   25.10
  -1   2  17  296.87   23.10
   0  -2  17 1198.98   48.40
   0   2  17 1332.27   45.10
   0   2 -17 1238.98   40.90
   1  -2  17  244.68   21.20
   1   2  17  250.97   16.90
  -1   2 -17  268.77   19.90
   2  -2  17  562.54   31.80
  -2  -2 -17  569.74   23.30
   2   2  17  529.85   23.30
  -2   2 -17  549.15   31.50
   3  -2  17   69.79   15.50
  -3  -2 -17   81.59   14.10
  -3   2 -17  119.99   20.60
   4  -2  17 1186.88   53.59
  -4  -2 -17 1208.58   50.59
   4   2  17 1221.28   41.80
  -4   2 -17 1234.88   57.09
  -5  -2 -17   56.09   14.70
   5  -2  17   35.00   11.70
   5   2  17   53.09   11.00
  -6  -3  17   62.49   17.70
   6  -3 -17   24.40   12.30
  -6   3  17    8.20   12.30
   6   3 -17   24.80   14.10
  -5  -3  17  387.36   35.50
   5  -3 -17  432.26   30.40
   5   3 -17  429.56   33.60
  -4  -3  17   17.50   10.30
   4  -3 -17   30.30    8.50
   4   3 -17   23.20   10.70
  -4   3  17   36.90   13.70
  -3  -3  17   52.59   14.80
   3   3 -17   26.90    9.80
  -3   3  17   43.40   12.60
   3   3 -17   33.60   11.40
  -2  -3  17    7.90    7.00
   2   3 -17    3.50    4.50
  -2   3  17   10.40    6.00
   2   3 -17    4.60    4.20
  -1  -3  17  636.84   36.90
  -1   3  17  668.93   33.90
   0  -3  17  114.29   18.30
   0   3  17  110.59   14.90
   0   3 -17  148.29   15.30
   1  -3  17    7.80    6.80
  -1   3 -17   17.10    7.60
   1   3  17    6.00    4.50
   2  -3  17    0.60    5.20
   2   3  17    1.40    3.30
  -2   3 -17    8.60    7.20
   3  -3  17  533.45   36.40
  -3  -3 -17  436.06   25.00
   4  -3  17   45.60   13.80
  -4  -3 -17   57.89   13.70
  -4   3 -17   61.19   18.20
   5  -3  17   12.00    8.20
  -5  -3 -17   11.30    9.10
   5   3  17    8.70    6.10
  -5   3 -17   -2.00    8.90
   6  -4 -17  814.22   45.20
  -6  -4  17  865.31   55.69
  -6   4  17  896.11   56.39
   5  -4 -17  312.77   25.70
  -5  -4  17  294.07   32.20
  -5   4  17  257.87   50.39
  -4  -4  17  426.26   36.60
   4  -4 -17  432.96   22.90
   4   4 -17  418.06   31.00
  -4   4  17  429.76   34.80
  -3  -4  17   24.50   10.30
   3   4 -17   29.90   11.10
   3   4 -17   33.70   11.40
  -3   4  17   46.90   13.90
  -2  -4  17 1086.69   52.59
  -2   4  17 1130.89   49.00
   2   4 -17 1128.29   43.10
   2   4 -17 1036.90   40.10
  -1  -4  17  231.28   23.30
  -1   4  17  236.88   20.50
   1   4 -17  221.98   13.70
   1   4 -17  234.98   14.00
   0  -4  17  753.62   40.10
   0   4  17  754.62   31.80
   1  -4  17  213.78   21.60
  -1   4 -17  205.18   20.50
   1   4  17  205.98   14.10
   2  -4  17  722.93   39.70
  -2   4 -17  637.84   37.80
  -3  -4 -17  107.79   15.70
  -3   4 -17   77.39   19.20
   4  -4  17  438.06   34.40
  -4  -4 -17  428.16   28.60
  -4   4 -17  447.66   36.00
   5  -4  17  118.19   19.90
  -5  -4 -17  205.88   27.70
   5   4  17  185.08   14.40
  -5   4 -17  148.49   27.80
   6  -5 -17  475.15   33.10
  -6  -5  17  401.46   38.30
  -6   5  17  375.66   36.90
  -5  -5  17  579.64   44.10
   5  -5 -17  709.33   38.20
  -5   5  17  604.94   45.60
  -4  -5  17  234.28   27.60
   4   5 -17  197.18   29.50
   4   5 -17  202.38   24.10
  -4   5  17  232.98   26.40
  -3  -5  17   59.29   15.10
   3   5 -17   65.19   15.30
  -3   5  17   71.29   15.60
   3   5 -17   88.99   19.30
  -2  -5  17  291.57   27.80
   2   5 -17  304.97   23.70
  -2   5  17  337.97   26.50
   2   5 -17  306.17   23.20
  -1  -5  17  814.32   44.60
  -1   5  17  878.41   39.00
   1   5 -17  868.71   33.50
   1   5 -17  819.22   32.00
   0  -5  17  332.97   27.50
   0   5  17  239.48   18.20
   1  -5  17   74.49   17.20
   1   5  17   85.89   10.90
  -1   5 -17   73.79   16.00
   2  -5  17  383.06   30.60
  -2   5 -17  371.16   30.40
  -3   5 -17  437.96   34.50
   4  -5  17   61.39   19.70
  -4  -5 -17   85.49   15.50
  -4   5 -17   43.90   17.30
  -5  -5 -17  133.69   23.00
   5  -5  17   87.89   22.40
  -5   5 -17  104.29   21.90
   6  -6 -17  146.49   22.70
  -6  -6  17  164.98   28.90
  -6   6  17  170.58   31.80
   5  -6 -17   82.29   15.00
  -5  -6  17   73.29   18.10
   5   6 -17   73.69   16.40
  -5   6  17   45.80   14.30
  -4  -6  17   36.60   12.30
   4   6 -17   31.40   10.90
  -4   6  17   25.40   10.40
   4   6 -17   36.60   15.50
  -3  -6  17 1244.38   60.99
   3   6 -17 1265.77   54.39
   3   6 -17 1187.88   58.29
  -3   6  17 1275.17   56.99
  -2  -6  17  145.69   22.30
   2   6 -17  175.98   19.60
  -2   6  17  178.38   20.00
   2   6 -17  151.18   17.70
  -1  -6  17    5.60    7.20
   1   6 -17   15.90    7.30
   1   6 -17   13.30    6.60
  -1   6  17   11.40    6.10
   0  -6  17   26.80   11.20
   0   6 -17   38.00    7.40
   0   6  17   19.40    7.10
   1  -6  17 1522.15   62.99
   1   6  17 1545.95   41.80
   2  -6  17  130.29   21.00
  -2   6 -17  144.69   25.10
  -3   6 -17   10.80   11.00
   4  -6  17   36.40   15.20
  -4   6 -17    9.10    9.10
   5  -7 -17  147.39   17.50
  -5  -7  17  120.29   23.20
  -5   7  17  127.79   25.40
  -4  -7  17  440.46   37.30
   4   7 -17  388.26   37.50
  -4   7  17  343.57   32.40
  -3  -7  17   60.79   23.10
   3   7 -17   78.39   17.30
  -3   7  17   75.09   17.00
   3   7 -17   87.79   19.20
  -2  -7  17   29.50   12.30
  -2   7  17   21.10    8.90
   2   7 -17   26.20   11.70
   2   7 -17    3.20    7.90
  -1  -7  17  117.29   20.80
  -1   7  17  110.39   16.80
   1   7 -17  111.59   25.60
   1   7 -17  126.99   18.70
   0  -7  17  470.65   35.20
   0   7 -17  483.65   31.40
   0   7 -17  435.56   23.80
   0   7  17  464.55   25.20
   1  -7  17    1.90    7.40
   1   7  17    6.20    4.00
   2  -7  17  132.69   22.50
  -2   7 -17   98.19   20.90
  -3   7 -17  106.89   36.20
  -4   7 -17  330.47   33.80
   5  -8 -17   37.80   11.80
  -5  -8  17   22.90   11.00
  -5   8  17   40.70   14.40
   5   8 -17   57.49   18.30
  -4  -8  17  454.75   38.80
   4   8 -17  406.56   48.40
  -4   8  17  454.85   36.40
   4   8 -17  422.26   36.30
  -3  -8  17 1241.08   63.29
   3   8 -17 1229.38   57.69
   3   8 -17 1350.36   65.59
  -3   8  17 1309.77   59.59
  -2  -8  17    2.70    8.70
  -2   8  17    7.80    6.40
   2   8 -17   15.30    7.50
   2   8 -17    9.50    8.00
  -1  -8  17    0.00    5.70
   1   8 -17    0.90    6.50
   1   8 -17    1.10    6.00
  -1   8  17    6.10    6.30
   0  -8  17  282.87   28.80
   0   8 -17  259.87   21.60
   0   8  17  268.67   20.00
   0   8 -17  254.67   20.50
   1  -8  17  937.81   52.99
  -1   8 -17 1020.10   35.90
   1   8  17 1077.49   35.40
  -2   8 -17   -8.70    6.10
  -3   8 -17   14.80   10.40
  -4   8 -17  231.58   35.30
   5  -9 -17 1382.96   47.90
  -5  -9  17 1464.75   74.39
  -5   9  17 1547.05   74.29
   5   9 -17 1497.75   82.69
  -4  -9  17  302.87   32.90
   4   9 -17  231.68   36.40
  -4   9  17  278.27   30.50
   4   9 -17  338.97   35.50
  -3  -9  17   48.80   16.70
  -3   9  17   20.40    9.90
   3   9 -17   47.30   16.30
  -2  -9  17  278.17   28.20
   2   9 -17  242.18   24.70
   2   9 -17  201.28   23.50
  -2   9  17  225.48   24.20
   1   9 -17 1989.40   71.99
   1   9 -17 2077.39   70.59
  -1   9  17 2052.39   67.59
   0  -9  17  207.38   30.10
   0   9 -17  163.18   18.80
   0   9  17  143.59   15.60
   0   9 -17  128.19   19.30
   1  -9  17   41.60   14.00
  -1   9 -17   33.00    9.80
  -1   9 -17   48.50   10.60
   1   9  17   46.00    9.40
  -2   9 -17  169.58   29.00
  -2   9 -17  163.38   18.80
  -2   9 -17  142.39   13.80
  -3   9 -17 2120.69   90.19
  -4 -10  17   -7.20    7.40
   4  10 -17   10.10   10.70
  -4  10  17   -4.40    7.40
  -3 -10  17   15.90    9.40
  -3  10  17   -1.70    7.50
   3  10 -17   -5.60    8.80
   3  10 -17  -24.00    9.40
  -2 -10  17   17.30    9.00
   2  10 -17    1.10    8.20
   2  10 -17    4.30   10.20
  -2  10  17   15.40    9.20
  -1 -10  17   10.40   11.00
   1  10 -17   52.89   11.90
  -1  10  17   19.80    9.40
   1  10 -17   29.80   10.60
   0 -10  17    0.50    8.60
   0  10 -17   11.20    8.80
   0  10  17   -3.30    5.30
   0  10 -17   15.30    9.30
   1 -10  17   38.40   13.70
  -1  10 -17   70.69   13.40
   1  10  17   35.80    9.50
  -1  10 -17   35.40   11.10
  -2  10 -17   27.00    9.30
  -2  10 -17   15.90    8.70
   2  10  17   23.10    6.50
  -3  10 -17    6.00    9.80
  -3  10 -17   12.00    7.10
  -3  10 -17   19.30   12.00
  -3 -11  17   47.50   17.30
   3  11 -17   38.20   15.80
  -3  11  17   59.29   15.50
  -2 -11  17   13.20   11.50
  -2  11  17   45.80   12.30
   2  11 -17   -1.60   15.30
   2  11 -17   18.70   13.00
  -1 -11  17 1389.76   69.89
   1  11 -17 1077.79   54.19
   1  11 -17 1482.45   65.69
  -1  11  17 1432.26   57.89
   0 -11  17  141.69   24.70
   0  11 -17  127.59   18.70
   0  11  17  149.49   20.40
   0  11 -17   92.89   18.70
   1 -11  17   14.10   10.30
   1  11  17    1.80    5.10
  -1  11 -17   -4.30    6.00
  -1  11 -17    3.50    8.40
  -2  11 -17  -15.50    8.20
  -2  11 -17   18.70    9.10
   2  11  17   21.10    6.70
  -2 -12  17    8.50   10.60
  -2  12  17  -18.00    6.70
   2  12 -17   -4.90    8.70
  -1 -12  17    5.50    8.70
   1  12 -17   -8.70    9.50
  -1  12  17   -0.80    6.80
   0 -12  17  101.79   21.90
   0  12  17  168.68   19.10
   0  12 -17  113.39   20.00
  -1  12 -17 1200.08   53.19
   1  12  17 1245.48   47.70
  -1  12 -17 1161.28   54.99
  -6   0  18 1318.47   70.19
   5   0 -18    6.80   10.10
  -5   0  18   -4.30    8.00
  -4   0  18  564.74   40.70
   4   0 -18  606.64   32.30
  -3   0  18  320.87   29.40
   3   0 -18  333.67   17.30
   3   0 -18  336.27   16.80
  -2   0  18 2899.01   87.89
  -1   0  18   72.49   14.10
   0   0  18  321.77   23.50
   2   0  18 3506.85   84.69
  -3   0 -18    5.40    6.50
  -4   0 -18  204.38   26.80
   4   0  18  186.58   21.10
  -6  -1  18  136.59   26.90
   6  -1 -18  125.79   24.60
  -6   1  18  130.89   26.00
  -5  -1  18   85.99   19.50
   5  -1 -18  104.49   18.40
  -5   1  18   77.49   17.00
   5   1 -18   62.19   15.60
   4  -1 -18  451.65   26.60
  -4  -1  18  507.65   38.60
  -4   1  18  494.55   38.10
   4   1 -18  501.55   32.10
   4   1 -18  499.35   33.80
  -3  -1  18    7.30    8.20
   3   1 -18   10.30    6.40
  -3   1  18   22.40    9.70
   3   1 -18   12.60    6.30
  -2  -1  18  110.99   19.70
  -2   1  18   94.19   17.70
  -1  -1  18   25.10   10.50
  -1   1  18   41.00   11.50
   0  -1  18  468.25   29.10
   0   1  18  468.75   27.30
   1  -1  18   71.99   13.30
  -1   1 -18   74.69   11.10
   1   1  18   93.39   13.40
   2  -1  18   70.49   13.60
  -2  -1 -18   85.59   12.20
  -2   1 -18   82.09   13.60
   2   1  18   71.19   11.80
  -3  -1 -18   55.09   12.90
  -3   1 -18   61.39   14.30
   4  -1  18  507.05   34.40
  -4  -1 -18  474.75   31.60
   4   1  18  543.25   35.90
  -4   1 -18  501.15   34.20
   6  -2 -18  281.67   28.90
  -6  -2  18  291.27   32.40
  -6   2  18  320.97   33.10
   6   2 -18  285.57   30.90
   5  -2 -18  359.26   28.00
  -5  -2  18  368.26   35.20
   5   2 -18  290.47   28.50
  -5   2  18  314.67   31.90
   4  -2 -18  431.36   23.80
  -4  -2  18  380.96   34.40
   4   2 -18  452.35   33.60
  -4   2  18  395.76   34.00
   4   2 -18  447.46   30.10
  -3  -2  18    5.10    6.70
   3   2 -18    2.40    5.70
  -3   2  18    3.90    6.50
  -2  -2  18  417.66   32.10
  -2   2  18  417.26   30.40
  -1  -2  18  211.18   22.20
  -1   2  18  236.28   20.90
   1   2 -18  229.58   15.50
   0  -2  18  309.47   24.60
   0   2  18  290.67   22.10
   0   2 -18  305.87   19.00
   1  -2  18   36.30   10.70
  -1   2 -18   44.80   11.30
   1   2  18   51.89    9.60
   2  -2  18  714.23   36.90
  -2   2 -18  687.33   35.10
   2   2  18  659.93   27.50
  -3  -2 -18  106.99   15.90
  -3   2 -18   87.39   17.90
  -4  -2 -18   57.39   14.50
   4  -2  18   91.59   16.30
   4   2  18   83.69   12.60
  -4   2 -18   71.39   17.70
  -6  -3  18  311.17   35.00
   6  -3 -18  284.67   27.60
  -6   3  18  281.87   33.20
   6   3 -18  337.27   33.80
  -5  -3  18  238.08   34.50
   5  -3 -18  192.38   20.80
  -5   3  18  216.28   30.20
   5   3 -18  223.88   26.40
   4   3 -18 1164.98   56.89
   4   3 -18 1286.07   53.39
  -4   3  18 1199.18   59.59
  -3  -3  18    9.80    7.70
   3   3 -18  -11.20    5.80
  -3   3  18    2.40    7.20
   3   3 -18   -1.30    6.40
  -2  -3  18  398.06   31.30
   2   3 -18  407.76   20.00
  -2   3  18  386.46   28.60
  -1  -3  18   46.10   13.00
  -1   3  18   21.70    8.40
   0  -3  18 2565.34   78.59
   0   3 -18 2538.75   69.09
   0   3  18 2578.14   68.39
   1  -3  18   -0.70    4.60
  -1   3 -18   -2.00    6.70
   1   3  18    1.20    3.80
   2  -3  18  140.49   20.70
   2   3  18  150.98   11.80
  -2   3 -18  160.38   22.30
  -3   3 -18   35.70   12.00
  -4  -3 -18 1674.03   58.19
   4  -3  18 1675.63   70.19
   4   3  18 1651.43   48.60
  -4   3 -18 1887.41   72.99
   5  -4 -18  633.54   42.80
  -5  -4  18  632.74   47.30
  -5   4  18  715.43   48.70
  -4  -4  18   -3.40    5.90
   4   4 -18    0.20    7.70
  -4   4  18   -3.20    8.00
   4   4 -18   19.60   10.20
  -3  -4  18   34.20   12.60
   3   4 -18   34.20   10.80
  -3   4  18   47.70   12.50
   3   4 -18   52.39   12.90
  -2  -4  18   14.80    8.70
   2   4 -18   25.30    7.30
  -2   4  18   23.00    9.70
  -1  -4  18  795.82   43.50
  -1   4  18  794.82   37.90
   0  -4  18    4.30    6.00
   0   4  18   -2.50    4.80
   0   4 -18    7.20    6.90
   1  -4  18  233.78   22.80
  -1   4 -18  216.58   21.20
   1   4  18  242.58   15.90
   2  -4  18  110.39   20.00
  -2   4 -18  140.79   22.50
  -3  -4 -18  479.55   23.50
  -3   4 -18  513.25   36.30
  -4  -4 -18   -5.70    5.90
   4  -4  18    2.60   22.80
  -4   4 -18   -2.70    6.40
   5  -5 -18   -2.80    6.80
  -5  -5  18    5.00    8.20
  -5   5  18  -10.30    6.30
   5   5 -18   11.40   11.90
  -4  -5  18  344.27   33.60
   4   5 -18  414.86   30.80
   4   5 -18  366.66   34.00
  -4   5  18  372.06   33.30
  -3  -5  18  697.73   45.30
   3   5 -18  718.63   41.10
   3   5 -18  694.93   37.40
  -3   5  18  671.03   41.30
  -2  -5  18  186.68   28.30
   2   5 -18  191.38   18.70
   2   5 -18  208.58   18.30
  -2   5  18  213.28   21.90
  -1  -5  18   20.70    9.90
   1   5 -18    7.70    4.70
  -1   5  18    6.20    5.80
   1   5 -18    3.60    5.40
   0  -5  18  426.86   31.50
   0   5  18  419.16   24.30
   1  -5  18  854.61   45.60
   1   5  18  820.92   29.90
  -1   5 -18  830.72   43.60
   2  -5  18  107.19   20.70
  -2   5 -18  100.69   19.70
  -3   5 -18  126.19   23.90
  -4  -5 -18  256.07   21.10
   4  -5  18  205.88   32.10
  -4   5 -18  240.78   28.00
   5  -6 -18   52.09   11.60
  -5  -6  18   76.59   20.60
  -5   6  18   49.90   16.10
   5   6 -18   81.89   17.00
  -4  -6  18  100.49   21.10
   4   6 -18  110.89   20.60
   4   6 -18  108.09   22.10
  -4   6  18   89.69   18.80
  -3  -6  18   98.19   19.60
   3   6 -18  119.29   19.30
  -3   6  18  161.18   19.10
   3   6 -18   83.29   17.80
  -2  -6  18  437.26   35.10
   2   6 -18  465.25   30.00
   2   6 -18  466.15   30.10
  -2   6  18  399.46   30.00
  -1  -6  18   57.99   15.60
   1   6 -18   79.99   12.20
  -1   6  18   48.10   12.30
   0  -6  18  142.49   22.90
   0   6  18  125.49   16.60
   1  -6  18   14.30    9.80
   1   6  18    5.40    4.50
  -1   6 -18   21.90   10.70
   2  -6  18  630.44   40.40
  -2   6 -18  622.34   41.00
  -3   6 -18   90.49   20.60
  -4   6 -18  106.89   24.40
   5  -7 -18   44.60   10.30
  -5  -7  18   11.30   10.20
   5   7 -18   24.40   12.40
  -5   7  18   31.70   12.70
  -4  -7  18   53.09   16.80
   4   7 -18   62.89   19.10
  -4   7  18   67.89   17.90
  -3  -7  18 1802.72   77.29
  -3   7  18 1676.13   68.59
   3   7 -18 1779.72   72.29
   3   7 -18 1772.72   66.19
  -2  -7  18   31.80   15.80
   2   7 -18   41.80   12.20
   2   7 -18   54.29   12.90
  -2   7  18   73.09   15.60
  -1  -7  18  295.17   28.50
   1   7 -18  251.97   19.60
  -1   7  18  226.48   21.10
   1   7 -18  259.47   21.10
   0  -7  18   93.09   20.00
   0   7 -18   98.39   11.20
   0   7  18   77.89   12.60
   0   7 -18   65.49   10.90
   1  -7  18 1491.65   65.69
   1   7  18 1466.35   42.20
   2  -7  18   -3.10    7.10
  -2   7 -18   -6.00    6.50
  -3   7 -18  389.66   34.80
  -4  -8  18  165.78   27.00
   4   8 -18  221.28   29.50
   4   8 -18  252.57   37.50
  -4   8  18  192.38   32.40
  -3  -8  18   62.89   15.80
   3   8 -18   63.29   16.10
  -3   8  18   69.79   16.50
   3   8 -18   48.40   15.60
  -2  -8  18   31.90   10.90
  -2   8  18   65.29   15.00
   2   8 -18   40.40   11.80
   2   8 -18   50.79   12.10
  -1  -8  18  896.61   72.69
   1   8 -18  697.73   36.00
  -1   8  18  752.32   38.20
   1   8 -18  776.52   39.10
   0  -8  18  158.78   25.00
   0   8  18  152.78   14.90
   0   8 -18  134.39   15.00
   0   8 -18  154.98   18.10
   1  -8  18  120.19   23.20
   1   8  18  124.29   11.70
  -2   8 -18   27.50   16.40
  -3   8 -18  768.62   51.69
  -4  -9  18   87.39   20.10
  -4   9  18   77.89   19.70
   4   9 -18  107.49   25.60
  -3  -9  18  273.07   31.00
  -3   9  18  244.18   26.90
   3   9 -18  233.78   32.00
  -2  -9  18    1.40    7.60
  -2   9  18    7.10    8.60
   2   9 -18   -4.00    8.30
   2   9 -18    9.10   10.00
  -1  -9  18   50.79   15.50
  -1   9  18   25.40    9.50
   1   9 -18   33.00   11.10
   1   9 -18   29.60   11.50
   0  -9  18   56.09   17.30
   0   9 -18   83.79   15.00
   0   9 -18   96.49   18.20
   1  -9  18  183.48   28.30
  -1   9 -18  197.48   16.90
   1   9  18  190.38   15.40
  -1   9 -18  207.78   16.70
  -2   9 -18   11.60   10.50
  -3 -10  18  183.78   29.20
  -3  10  18  253.27   27.50
   3  10 -18  272.57   36.50
   3  10 -18  181.58   25.30
  -2 -10  18   31.10   12.80
  -2  10  18   42.90   13.00
   2  10 -18   44.30   13.10
   2  10 -18   17.00   14.30
  -1 -10  18 1970.20   84.29
  -1  10  18 2112.59   70.89
   1  10 -18 2108.59   75.59
   1  10 -18 2138.99   73.29
   0 -10  18   13.40   10.80
   0  10 -18   22.00    8.20
   0  10 -18   -3.20    9.50
   0  10  18   18.30    7.60
   1 -10  18  378.46   36.80
   1  10  18  395.66   22.70
  -1  10 -18  358.36   25.20
  -2  10 -18   13.10    7.00
  -2  10 -18    7.20   11.60
  -2 -11  18   14.50   12.80
   2  11 -18  -20.70    7.70
  -2  11  18    5.10    8.10
   2  11 -18    0.40   11.40
  -1 -11  18  120.09   24.10
  -1  11  18  137.79   21.10
   1  11 -18  105.59   18.40
   1  11 -18  115.49   20.90
   0 -11  18  132.29   24.40
   0  11 -18  123.09   19.70
   0  11  18  117.09   18.90
   0  11 -18  113.69   19.60
   1 -11  18  674.53   48.70
   1  11  18  724.13   32.80
  -1  11 -18  663.73   35.60
  -1  11 -18  596.64   35.60
  -5   0  19   -2.80    8.50
   5   0 -19  -16.20    8.60
   4   0 -19    3.20    6.10
   4   0 -19    8.30    7.80
  -4   0  19    4.90    8.20
  -3   0  19    4.10    7.80
  -2   0  19    1.10    6.30
  -1   0  19    3.50    5.40
   0   0  19    6.80    5.30
   1   0  19   12.50    6.20
  -2   0 -19  -14.70    5.80
  -3   0 -19    6.70    6.70
  -4   0 -19    9.30    8.80
  -5  -1  19    4.70    9.80
   5  -1 -19   14.10    8.80
   5   1 -19   29.00   10.90
  -5   1  19   22.00    9.80
   4  -1 -19   60.29   12.60
  -4  -1  19   32.90   19.50
   4  -1 -19   62.89   10.60
   4   1 -19   64.19   14.00
   4   1 -19   58.29   12.10
  -4   1  19   53.19   15.50
  -3  -1  19   16.20    9.40
  -3   1  19   17.90    9.90
  -2  -1  19 2446.16   82.19
  -2   1  19 2519.05   81.59
  -1  -1  19    9.80    8.60
  -1   1  19   24.00    9.70
   0  -1  19    7.80    7.00
   0   1  19   19.30    7.70
   1  -1  19   40.90   11.10
   1   1  19   37.00   11.50
  -2  -1 -19 2018.00   49.10
   2  -1  19 2135.09   65.89
  -2   1 -19 1979.30   58.69
   2   1  19 2045.70   58.59
  -3  -1 -19    1.80    7.40
  -3   1 -19    9.00    8.40
  -4  -1 -19   22.70   11.00
  -4   1 -19   43.70   12.40
  -5  -2  19   24.20   12.30
   5  -2 -19   62.99   18.60
  -5   2  19   64.29   17.10
   5   2 -19   22.80   12.00
  -4  -2  19 1568.14   71.39
  -4   2  19 1471.05   67.89
   4   2 -19 1565.54   61.49
   4   2 -19 1529.65   55.59
  -3  -2  19   -2.30    7.40
   3   2 -19   -0.80    4.80
   3   2 -19   -2.00    4.50
  -3   2  19    3.70    6.70
  -2  -2  19   -0.30    6.20
  -2   2  19   13.90    8.30
  -1  -2  19    6.70    6.50
  -1   2  19    8.00    5.80
   1   2 -19   25.60    6.50
   0  -2  19 1599.14   59.39
   0   2 -19 1560.04   44.50
   0   2  19 1568.54   53.09
   1  -2  19    7.50    7.00
   1   2  19    8.80    5.90
  -1   2 -19   17.20    8.00
   2  -2  19   28.60    9.60
  -2   2 -19   32.90   10.50
   2   2  19   24.50    6.90
  -3  -2 -19   59.59   13.70
  -3   2 -19   27.00   10.40
  -4  -2 -19 1229.48   48.80
  -4   2 -19 1213.98   56.19
   5  -3 -19  282.27   22.90
  -5  -3  19  331.07   34.00
   5   3 -19  374.26   31.20
  -5   3  19  327.17   33.30
  -4  -3  19    9.90    9.00
   4   3 -19   12.60   10.20
  -4   3  19   -6.00    8.80
   4   3 -19  -18.40    6.40
  -3  -3  19  160.28   25.10
   3   3 -19  167.98   16.80
   3   3 -19  176.48   17.40
  -3   3  19  162.48   23.60
  -2  -3  19    9.30    8.40
  -2   3  19   20.50    8.40
  -1  -3  19  251.37   24.10
  -1   3  19  228.88   21.50
   1   3 -19  206.58   17.60
   0  -3  19   18.30    9.10
   0   3  19   -0.60    6.60
   0   3 -19    7.10    7.20
   1  -3  19  336.07   26.80
   1   3  19  384.26   21.40
  -1   3 -19  347.57   24.40
   2  -3  19   81.99   15.80
   2   3  19   89.29   10.20
  -2   3 -19  118.19   19.20
  -3  -3 -19  168.58   15.30
  -3   3 -19  202.58   27.40
  -5  -4  19   -2.10    6.10
   5  -4 -19   21.50    8.40
   5   4 -19    6.90    9.60
  -5   4  19    8.30    9.20
  -4  -4  19 1118.89   60.49
   4   4 -19 1030.20   48.40
  -4   4  19 1080.29   56.89
   4   4 -19 1122.19   55.29
  -3  -4  19   44.40   15.90
   3   4 -19   51.79   12.40
   3   4 -19   27.00   10.30
  -3   4  19   32.70   12.40
  -2  -4  19   -1.80    7.10
   2   4 -19    7.50    4.90
  -2   4  19   -8.00    4.90
  -1  -4  19   69.89   16.50
  -1   4  19   89.19   16.00
   0  -4  19 1685.43   64.89
   0   4 -19 1682.43   57.69
   0   4  19 1662.43   54.59
   1  -4  19   45.60   13.10
   1   4  19   59.39    9.90
  -1   4 -19   48.60   13.20
   2  -4  19  -12.10    7.20
  -2   4 -19   39.30   14.40
   2   4  19   10.80    5.40
  -3   4 -19   99.49   19.80
  -4  -5  19    4.40    9.90
  -4   5  19    6.40    8.70
   4   5 -19  -10.30    9.40
   4   5 -19    7.50    8.60
  -3  -5  19  153.28   24.40
   3   5 -19  210.08   21.60
  -3   5  19  197.38   22.30
   3   5 -19  181.58   20.20
  -2  -5  19  466.05   36.20
   2   5 -19  486.55   26.90
  -2   5  19  471.05   32.60
   2   5 -19  504.05   25.70
  -1  -5  19  300.37   28.10
  -1   5  19  262.17   22.00
   0  -5  19   25.90   11.40
   0   5  19   20.70    7.60
   0   5 -19   37.90   11.70
   1  -5  19  311.07   27.70
  -1   5 -19  293.67   26.10
   1   5  19  317.87   18.50
   2  -5  19  566.54   38.20
  -2   5 -19  554.64   36.90
  -3   5 -19  251.67   27.00
  -4  -6  19   58.39   18.00
   4   6 -19   73.99   16.90
  -4   6  19   97.49   27.00
   4   6 -19   58.19   17.50
  -3  -6  19 1231.78   63.49
  -3   6  19 1202.68   57.19
   3   6 -19 1127.79   50.09
   3   6 -19 1265.37   55.39
   2   6 -19    4.40    6.90
  -2   6  19   17.70    8.00
   2   6 -19    8.80    7.00
  -1  -6  19  605.64   40.80
  -1   6  19  597.44   33.50
   1   6 -19  551.64   23.80
   0  -6  19   69.39   16.50
   0   6  19   77.69   13.00
   1  -6  19  690.73   43.00
  -1   6 -19  733.03   43.00
   1   6  19  707.93   27.70
   2  -6  19   -8.20    6.90
  -2   6 -19    0.10    6.80
  -4  -7  19  -10.10    8.90
  -4   7  19   25.60    9.80
   4   7 -19    0.10   10.80
  -3  -7  19   -0.40    9.30
   3   7 -19   20.70    9.20
   3   7 -19   17.80   11.10
  -3   7  19   15.60    9.40
  -2  -7  19  433.36   36.00
   2   7 -19  395.56   27.90
  -2   7  19  408.96   31.00
   2   7 -19  432.06   30.00
  -1  -7  19   42.40   17.40
  -1   7  19   39.30   11.10
   1   7 -19   42.40   10.00
   1   7 -19   41.80    9.20
   0  -7  19   18.90    9.50
   0   7  19   17.70    6.70
   1  -7  19   91.19   20.60
  -1   7 -19   68.99   17.50
   1   7  19   88.69   10.30
   2  -7  19  415.96   34.30
  -2   7 -19  386.16   34.80
  -3  -8  19  613.94   44.70
   3   8 -19  502.45   34.50
  -3   8  19  526.75   38.00
   3   8 -19  545.35   38.60
  -2  -8  19    8.30   10.50
   2   8 -19   -5.00    8.10
  -2   8  19   -2.30    7.30
   2   8 -19   21.20   10.60
  -1  -8  19  496.35   39.30
   1   8 -19  509.55   29.50
  -1   8  19  473.75   30.60
   0   8 -19  101.99   13.00
   0   8 -19  102.79   15.10
   1  -8  19  708.53   61.19
   1   8  19  586.74   26.30
  -2   8 -19   -3.40    7.00
  -2  -9  19   -0.30    7.10
   2   9 -19   29.20    9.90
   2   9 -19   -8.30    7.50
  -2   9  19   12.70    8.10
  -1  -9  19  987.50   57.59
   1   9 -19 1049.09   46.60
   1   9 -19  988.50   44.20
  -1   9  19  970.30   45.30
   0  -9  19   22.10   10.80
   0   9  19   -2.60    6.40
   0   9 -19    8.40    8.20
   0   9 -19   20.80    8.80
   1  -9  19 1068.29   59.69
   1   9  19  999.30   36.20
  -1 -10  19    6.30   11.70
   1  10 -19   13.90    8.50
   1  10 -19   16.30   10.20
  -1  10  19    0.70    8.00
  -4   0  20   84.69   18.00
  -3   0  20   11.90   10.30
  -2   0  20 2672.83   86.99
  -1   0  20   44.60   11.40
   0   0  20  194.48   20.00
   1   0  20   40.30   11.10
  -2   0 -20 1237.48   38.20
   2   0  20 1295.87   48.40
  -3   0 -20   81.79   15.40
  -4  -1  20  534.15   41.20
  -4   1  20  491.55   39.20
   4   1 -20  521.25   28.70
   4   1 -20  544.45   28.30
  -3  -1  20   32.90   11.50
  -3   1  20   40.20   11.80
  -2  -1  20   27.20   12.10
  -2   1  20   22.00    8.90
  -1  -1  20    1.20    5.50
  -1   1  20    0.50    6.10
   0  -1  20  466.75   31.00
   0   1  20  480.75   29.20
   1  -1  20   98.29   16.80
   1   1  20   53.19   11.70
   2  -1  20   11.00    9.10
  -2   1 -20   25.30    9.90
   2   1  20   14.60    8.30
  -3  -1 -20   22.00    8.80
  -3   1 -20   35.70   11.00
  -4  -2  20   88.79   20.00
   4   2 -20   64.19   14.00
   4   2 -20   96.09   16.90
  -4   2  20   63.79   17.70
  -3  -2  20   77.29   17.20
  -3   2  20   85.19   17.60
  -2  -2  20  487.65   35.50
  -2   2  20  511.05   34.50
  -1  -2  20   19.10    9.00
  -1   2  20   28.10    9.50
   0  -2  20  199.48   21.20
   0   2  20  151.28   16.80
   1  -2  20  205.68   21.40
   1   2  20  174.58   20.30
   2  -2  20  366.76   28.80
   2   2  20  383.26   22.30
  -2   2 -20  373.36   24.80
  -3  -2 -20   24.00    7.90
  -3   2 -20    8.80    8.80
  -4  -3  20 1422.96   69.89
  -4   3  20 1528.35   70.19
   4   3 -20 1563.44   59.89
   4   3 -20 1347.87   53.19
  -3  -3  20  -17.80    6.80
   3   3 -20    7.00    6.50
  -3   3  20    2.70    8.40
   3   3 -20   13.20    5.80
  -2  -3  20  169.08   24.90
  -2   3  20  159.98   23.50
  -1  -3  20   -3.80    6.00
  -1   3  20  -10.10    5.60
   1   3 -20    5.40    7.20
   0  -3  20 1330.57   56.39
   0   3 -20 1387.76   65.39
   0   3  20 1338.17   48.70
   1  -3  20    7.40    8.10
   1   3  20   17.60    6.40
  -1   3 -20   15.40    7.50
   2  -3  20  265.47   25.10
  -2   3 -20  250.67   21.60
   2   3  20  220.28   15.90
  -3   3 -20   -0.80    9.00
  -4  -4  20   10.30    9.70
  -4   4  20   -8.40    7.90
   4   4 -20    2.00   10.30
   4   4 -20  -13.90    8.30
  -3  -4  20  489.65   38.70
   3   4 -20  434.56   25.80
   3   4 -20  510.85   27.90
  -3   4  20  470.05   35.60
  -2  -4  20  227.78   26.70
  -2   4  20  278.47   25.60
  -1  -4  20  250.47   25.60
  -1   4  20  244.48   22.20
   1   4 -20  236.78   20.20
   0  -4  20   24.10    8.80
   0   4 -20   48.90   11.70
   0   4  20   42.00    8.80
   1  -4  20  612.84   38.60
  -1   4 -20  624.54   34.40
   1   4  20  645.64   28.10
   2  -4  20   81.99   17.60
   2   4  20  111.39   11.20
  -2   4 -20  105.69   32.90
  -3  -5  20   49.00   15.80
   3   5 -20   48.00   12.20
  -3   5  20   49.60   13.70
  -2  -5  20  141.69   27.10
  -2   5  20  155.28   22.40
  -1  -5  20  654.33   41.70
  -1   5  20  594.94   33.90
   0  -5  20  425.66   33.60
   0   5  20  488.75   27.60
   0   5 -20  430.46   29.90
   1  -5  20   27.30   11.70
   1   5  20   23.80    7.40
   2  -5  20  159.38   25.00
  -2   5 -20  184.48   26.40
  -3  -6  20   90.79   21.90
  -3   6  20   81.39   17.40
   3   6 -20   83.69   16.60
   3   6 -20  118.49   18.70
  -2  -6  20  698.63   46.10
   2   6 -20  653.33   30.40
   2   6 -20  629.54   30.30
  -2   6  20  676.93   40.00
  -1   6  20   51.69   13.20
   0  -6  20  164.28   25.30
   0   6 -20  174.58   25.60
   0   6  20  116.59   16.70
   1  -6  20   89.19   18.60
  -1   6 -20  122.79   22.30
   1   6  20   97.79   12.40
   2  -6  20  595.54   42.60
  -2   6 -20  612.54   40.20
  -2  -7  20   18.70   10.30
   2   7 -20    0.40    8.20
  -2   7  20   -2.20    6.20
  -1  -7  20 1383.86   66.19
  -1   7  20 1414.26   54.69
   0  -7  20   35.10   13.10
   0   7  20   28.00    9.30
  -1   7 -20  222.88   25.50
   1   7  20  232.58   16.10
  -1  -8  20  174.58   29.30
   1   8 -20  147.19   16.50
   1   8 -20  162.78   16.80
  -1   8  20  141.99   19.70
   0  -8  20  102.09   19.60
   0   8  20  118.09   16.60
  -3   0  21   -1.80    8.70
  -2   0  21    4.50    6.50
  -1   0  21   -2.50    5.80
   0   0  21    5.10    7.00
   1   0  21   15.00    6.90
   2   0  21    4.70    6.50
  -3   1  21   15.20   10.20
  -2  -1  21  768.52   44.90
  -2   1  21  675.83   41.50
  -1  -1  21  319.57   28.10
  -1   1  21  387.36   29.40
   0  -1  21  742.63   39.60
   0   1  21  646.64   35.60
   1  -1  21    9.60    6.70
   1   1  21   14.80    6.80
   2  -1  21  307.07   25.80
   2   1  21  356.06   24.20
  -3  -2  21  105.19   20.50
  -3   2  21  113.09   20.90
  -2  -2  21  488.65   36.20
  -2   2  21  446.16   33.40
  -1  -2  21   34.40   11.20
  -1   2  21   25.00   10.70
   0  -2  21  638.04   38.00
   0   2  21  635.54   33.90
   1  -2  21  220.18   22.40
   1   2  21  206.88   18.30
  -1   2 -21  219.58   16.80
  -3  -3  21  478.65   38.90
  -3   3  21  480.35   36.50
  -2  -3  21   34.80   12.60
  -2   3  21   13.50   10.90
  -1  -3  21  -13.70    6.20
  -1   3  21   14.70    7.40
   0  -3  21   67.79   14.70
   0   3 -21   66.09   11.90
   0   3  21   61.89   13.20
   1  -3  21  402.96   30.90
  -1   3 -21  345.57   23.20
  -2  -4  21  825.32   49.40
  -2   4  21  888.41   46.50
  -1  -4  21   73.29   15.60
   1   4 -21   83.89   13.50
  -1   4  21   66.29   13.30
   0  -4  21  423.16   33.20
   0   4  21  491.65   28.70
   0   4 -21  405.66   26.20
   1  -4  21  117.19   20.70
  -1   4 -21  146.09   21.10
   1   4  21  141.79   14.00
  -2  -5  21  424.36   36.10
  -2   5  21  318.47   27.90
  -1  -5  21   83.99   21.80
   1   5 -21   96.29   17.30
  -1   5  21   72.49   15.00
   0  -5  21  202.78   23.50
   0   5 -21  188.88   19.60
   0   5  21  172.68   18.00
   0   0   0    0.00    0.00
;
_shelx_hkl_checksum              18417
_shelx_fab_file
;
    2    0    0     -4.37      0.00
    3    0    0      6.76      0.00
    4    0    0      0.01      0.00
    5    0    0      0.89      0.00
    6    0    0     -0.43      0.00
    7    0    0     -2.41      0.00
    8    0    0      2.79      0.00
    9    0    0      0.39      0.00
    2    1    0     -2.48      0.00
    3    1    0      0.34      0.00
    4    1    0      1.16      0.00
    5    1    0     -1.61      0.00
    6    1    0      0.85      0.00
    7    1    0     -1.38      0.00
    8    1    0     -0.44      0.00
    9    1    0     -0.02      0.00
    1    2    0      6.26      0.00
    2    2    0     -1.61      0.00
    3    2    0      1.12      0.00
    4    2    0      2.25      0.00
    5    2    0      0.52      0.00
    6    2    0     -0.54      0.00
    7    2    0      0.15      0.00
    8    2    0      0.78      0.00
    9    2    0      0.11      0.00
    2    3    0      1.68      0.00
    3    3    0      0.17      0.00
    4    3    0      0.29      0.00
    5    3    0     -0.33      0.00
    6    3    0     -0.36      0.00
    7    3    0     -2.03      0.00
    8    3    0      0.12      0.00
    9    3    0     -0.43      0.00
    1    4    0      1.63      0.00
    2    4    0      0.52      0.00
    3    4    0     -2.52      0.00
    4    4    0      1.63      0.00
    5    4    0      1.42      0.00
    6    4    0     -0.13      0.00
    7    4    0      0.69      0.00
    8    4    0     -0.96      0.00
    9    4    0      0.00      0.00
    1    5    0      0.28      0.00
    2    5    0      5.58      0.00
    3    5    0      0.53      0.00
    4    5    0     -2.53      0.00
    5    5    0      1.12      0.00
    6    5    0     -0.54      0.00
    7    5    0     -1.02      0.00
    8    5    0     -0.80      0.00
    9    5    0     -0.62      0.00
    0    6    0     -5.38      0.00
    1    6    0     -1.60      0.00
    2    6    0      0.73      0.00
    3    6    0     -1.81      0.00
    4    6    0     -0.68      0.00
    5    6    0      0.48      0.00
    6    6    0      0.09      0.00
    7    6    0     -0.24      0.00
    8    6    0     -0.21      0.00
    9    6    0     -1.53      0.00
    1    7    0     -2.92      0.00
    2    7    0      3.96      0.00
    3    7    0      1.78      0.00
    4    7    0     -1.87      0.00
    5    7    0     -0.35      0.00
    6    7    0      0.06      0.00
    7    7    0      0.00      0.00
    8    7    0     -1.84      0.00
    9    7    0     -1.49      0.00
    0    8    0     -2.87      0.00
    1    8    0     -4.29      0.00
    2    8    0     -1.61      0.00
    3    8    0     -1.04      0.00
    4    8    0     -0.16      0.00
    5    8    0      0.24      0.00
    6    8    0      0.53      0.00
    7    8    0     -0.46      0.00
    8    8    0      1.17      0.00
    9    8    0     -1.42      0.00
    1    9    0     -0.73      0.00
    2    9    0      0.59      0.00
    3    9    0      1.41      0.00
    4    9    0     -0.03      0.00
    5    9    0     -0.39      0.00
    6    9    0      1.75      0.00
    7    9    0      0.16      0.00
    8    9    0     -2.35      0.00
    0   10    0     -3.94      0.00
    1   10    0     -3.23      0.00
    2   10    0     -0.13      0.00
    3   10    0     -0.50      0.00
    4   10    0      1.24      0.00
    5   10    0      0.36      0.00
    6   10    0      2.49      0.00
    7   10    0      0.09      0.00
    8   10    0     -0.01      0.00
    1   11    0      0.72      0.00
    2   11    0     -0.77      0.00
    3   11    0     -0.24      0.00
    4   11    0     -0.56      0.00
    5   11    0      0.19      0.00
    6   11    0      1.22      0.00
    7   11    0      0.55      0.00
    8   11    0     -1.37      0.00
    0   12    0     -1.44      0.00
    1   12    0     -0.31      0.00
    2   12    0      1.88      0.00
    3   12    0      0.70      0.00
    4   12    0      1.26      0.00
    5   12    0     -0.71      0.00
    6   12    0      2.28      0.00
    7   12    0     -0.98      0.00
    1   13    0      1.28      0.00
    2   13    0     -1.39      0.00
    3   13    0     -1.26      0.00
    4   13    0     -0.86      0.00
    5   13    0     -1.04      0.00
    6   13    0     -0.65      0.00
    7   13    0     -0.06      0.00
    0   14    0     -2.92      0.00
    1   14    0      0.60      0.00
    2   14    0      2.85      0.00
    3   14    0      0.91      0.00
    4   14    0      0.45      0.00
    5   14    0     -1.88      0.00
    6   14    0     -0.99      0.00
    7   14    0     -0.97      0.00
    1   15    0     -1.64      0.00
    2   15    0     -1.67      0.00
    3   15    0     -0.21      0.00
    4   15    0     -1.12      0.00
    5   15    0      0.51      0.00
    6   15    0     -1.59      0.00
    0   16    0     -2.53      0.00
    1   16    0      2.30      0.00
    2   16    0      2.98      0.00
    3   16    0      0.88      0.00
    4   16    0     -1.59      0.00
    5   16    0     -2.10      0.00
    1   17    0     -5.50      0.00
    2   17    0     -1.06      0.00
    3   17    0      0.65      0.00
    4   17    0     -2.42      0.00
    5   17    0      2.83      0.00
    0   18    0      2.21      0.00
    1   18    0      0.99      0.00
    2   18    0      0.87      0.00
    3   18    0      0.99      0.00
    4   18    0     -1.57      0.00
    1   19    0     -2.62      0.00
    2   19    0     -1.27      0.00
    3   19    0     -0.91      0.00
    0   20    0      1.22      0.00
    1   20    0     -1.27      0.00
   -9    1    1      1.88      0.00
   -8    1    1      1.38      0.00
   -7    1    1     -0.71      0.00
   -6    1    1      0.06      0.00
   -5    1    1      0.54      0.00
   -4    1    1      1.83      0.00
   -3    1    1      4.01      0.00
    1    1    1      0.85      0.00
    2    1    1      1.23      0.00
    3    1    1      4.39      0.00
    4    1    1      0.32      0.00
    5    1    1      1.38      0.00
    6    1    1     -1.58      0.00
    7    1    1     -1.53      0.00
    8    1    1      2.32      0.00
    9    1    1     -0.49      0.00
   -9    2    1     -0.30      0.00
   -8    2    1      0.29      0.00
   -7    2    1      0.74      0.00
   -6    2    1     -0.45      0.00
   -5    2    1      1.44      0.00
   -4    2    1     -2.47      0.00
   -3    2    1      2.26      0.00
   -2    2    1     -3.39      0.00
    1    2    1      8.52      0.00
    2    2    1     -5.73      0.00
    3    2    1      1.28      0.00
    4    2    1     -0.42      0.00
    5    2    1     -0.69      0.00
    6    2    1      0.75      0.00
    7    2    1     -2.92      0.00
    8    2    1      0.16      0.00
    9    2    1     -0.61      0.00
   -9    3    1      0.54      0.00
   -8    3    1     -0.39      0.00
   -7    3    1      1.04      0.00
   -6    3    1     -0.58      0.00
   -5    3    1      1.70      0.00
   -4    3    1      1.80      0.00
   -3    3    1     -1.72      0.00
   -2    3    1      0.92      0.00
   -1    3    1      1.90      0.00
    2    3    1     -1.41      0.00
    3    3    1     -0.89      0.00
    4    3    1      2.21      0.00
    5    3    1     -0.10      0.00
    6    3    1     -0.35      0.00
    7    3    1      0.79      0.00
    8    3    1     -0.37      0.00
    9    3    1      0.27      0.00
   -9    4    1      0.33      0.00
   -8    4    1      0.03      0.00
   -7    4    1      1.13      0.00
   -6    4    1      0.05      0.00
   -5    4    1     -1.51      0.00
   -4    4    1      0.83      0.00
   -3    4    1      0.32      0.00
   -2    4    1     -5.77      0.00
    1    4    1      0.00      0.00
    2    4    1      3.08      0.00
    3    4    1     -0.14      0.00
    4    4    1     -1.46      0.00
    5    4    1      1.04      0.00
    6    4    1     -0.93      0.00
    7    4    1     -1.72      0.00
    8    4    1      0.27      0.00
    9    4    1     -0.35      0.00
   -9    5    1     -0.46      0.00
   -8    5    1     -0.85      0.00
   -7    5    1      0.39      0.00
   -6    5    1      0.10      0.00
   -5    5    1      1.25      0.00
   -4    5    1     -1.00      0.00
   -3    5    1     -1.80      0.00
   -2    5    1      3.62      0.00
   -1    5    1     -1.07      0.00
    0    5    1     -8.46      0.00
    1    5    1      1.57      0.00
    2    5    1     -1.16      0.00
    3    5    1     -1.83      0.00
    4    5    1      0.28      0.00
    5    5    1      0.87      0.00
    6    5    1      0.31      0.00
    7    5    1     -0.03      0.00
    8    5    1     -0.97      0.00
    9    5    1     -0.33      0.00
   -9    6    1      1.18      0.00
   -8    6    1      1.36      0.00
   -7    6    1      0.23      0.00
   -6    6    1     -0.38      0.00
   -5    6    1     -0.94      0.00
   -4    6    1      2.10      0.00
   -3    6    1     -2.04      0.00
   -2    6    1     -4.08      0.00
   -1    6    1      0.36      0.00
    0    6    1     -5.13      0.00
    1    6    1     -3.46      0.00
    2    6    1      5.16      0.00
    3    6    1      0.07      0.00
    4    6    1     -2.82      0.00
    5    6    1     -0.02      0.00
    6    6    1     -0.55      0.00
    7    6    1     -0.08      0.00
    8    6    1     -1.02      0.00
    9    6    1     -0.61      0.00
   -9    7    1     -1.50      0.00
   -8    7    1      0.29      0.00
   -7    7    1      0.11      0.00
   -6    7    1      0.21      0.00
   -5    7    1     -0.38      0.00
   -4    7    1     -0.94      0.00
   -3    7    1     -1.20      0.00
   -2    7    1      1.11      0.00
   -1    7    1     -1.48      0.00
    0    7    1     -2.84      0.00
    1    7    1     -3.17      0.00
    2    7    1     -1.24      0.00
    3    7    1     -0.99      0.00
    4    7    1     -0.32      0.00
    5    7    1      0.86      0.00
    6    7    1      0.10      0.00
    7    7    1     -0.44      0.00
    8    7    1      0.66      0.00
    9    7    1     -2.00      0.00
   -9    8    1      1.07      0.00
   -8    8    1      1.87      0.00
   -7    8    1      0.05      0.00
   -6    8    1     -0.41      0.00
   -5    8    1      0.84      0.00
   -4    8    1      0.83      0.00
   -3    8    1     -1.51      0.00
   -2    8    1     -2.08      0.00
   -1    8    1      1.04      0.00
    0    8    1     -3.41      0.00
    1    8    1     -2.57      0.00
    2    8    1      1.81      0.00
    3    8    1      1.34      0.00
    4    8    1     -1.37      0.00
    5    8    1     -0.53      0.00
    6    8    1      0.83      0.00
    7    8    1      1.03      0.00
    8    8    1     -1.47      0.00
   -8    9    1     -0.30      0.00
   -7    9    1     -0.49      0.00
   -6    9    1      1.31      0.00
   -5    9    1      0.55      0.00
   -4    9    1      1.22      0.00
   -3    9    1     -0.22      0.00
   -2    9    1     -0.49      0.00
   -1    9    1     -2.11      0.00
    0    9    1     -3.31      0.00
    1    9    1     -5.34      0.00
    2    9    1     -1.58      0.00
    3    9    1     -0.32      0.00
    4    9    1      0.09      0.00
    5    9    1      0.63      0.00
    6    9    1      0.59      0.00
    7    9    1      0.14      0.00
    8    9    1      1.59      0.00
   -8   10    1      2.16      0.00
   -7   10    1     -0.17      0.00
   -6   10    1     -1.87      0.00
   -5   10    1     -0.04      0.00
   -4   10    1      0.42      0.00
   -3   10    1      0.69      0.00
   -2   10    1      0.24      0.00
   -1   10    1     -1.04      0.00
    0   10    1     -0.18      0.00
    1   10    1      0.02      0.00
    2   10    1     -1.16      0.00
    3   10    1      1.36      0.00
    4   10    1     -0.60      0.00
    5   10    1      0.58      0.00
    6   10    1      1.36      0.00
    7   10    1      0.75      0.00
    8   10    1     -1.87      0.00
   -8   11    1     -0.95      0.00
   -7   11    1     -0.74      0.00
   -6   11    1      2.09      0.00
   -5   11    1      0.09      0.00
   -4   11    1      1.80      0.00
   -3   11    1      0.78      0.00
   -2   11    1      2.53      0.00
   -1   11    1     -0.46      0.00
    0   11    1     -2.17      0.00
    1   11    1     -1.45      0.00
    2   11    1      0.46      0.00
    3   11    1     -0.31      0.00
    4   11    1      0.04      0.00
    5   11    1     -0.63      0.00
    6   11    1      2.41      0.00
    7   11    1      0.02      0.00
    8   11    1     -0.12      0.00
   -7   12    1     -0.56      0.00
   -6   12    1     -1.12      0.00
   -5   12    1     -1.17      0.00
   -4   12    1      0.23      0.00
   -3   12    1      0.90      0.00
   -2   12    1      0.82      0.00
   -1   12    1     -0.91      0.00
    0   12    1      1.28      0.00
    1   12    1      0.77      0.00
    2   12    1     -1.11      0.00
    3   12    1     -0.60      0.00
    4   12    1     -1.39      0.00
    5   12    1     -1.04      0.00
    6   12    1     -1.00      0.00
    7   12    1      0.06      0.00
   -7   13    1     -1.15      0.00
   -6   13    1      0.05      0.00
   -5   13    1     -1.24      0.00
   -4   13    1      0.65      0.00
   -3   13    1      1.54      0.00
   -2   13    1      2.39      0.00
   -1   13    1     -0.33      0.00
    0   13    1     -0.76      0.00
    1   13    1      0.34      0.00
    2   13    1      1.27      0.00
    3   13    1      0.47      0.00
    4   13    1      0.58      0.00
    5   13    1     -1.08      0.00
    6   13    1      1.10      0.00
    7   13    1     -1.30      0.00
   -7   14    1      0.13      0.00
   -6   14    1      0.43      0.00
   -5   14    1     -0.48      0.00
   -4   14    1      0.06      0.00
   -3   14    1      1.00      0.00
   -2   14    1      1.67      0.00
   -1   14    1     -0.62      0.00
    0   14    1      1.26      0.00
    1   14    1      0.61      0.00
    2   14    1     -2.26      0.00
    3   14    1     -1.01      0.00
    4   14    1     -0.99      0.00
    5   14    1     -1.60      0.00
    6   14    1     -1.47      0.00
   -6   15    1     -2.33      0.00
   -5   15    1     -2.13      0.00
   -4   15    1     -1.26      0.00
   -3   15    1      1.40      0.00
   -2   15    1      3.37      0.00
   -1   15    1      0.04      0.00
    0   15    1     -3.11      0.00
    1   15    1      2.82      0.00
    2   15    1      2.38      0.00
    3   15    1     -0.02      0.00
    4   15    1      0.46      0.00
    5   15    1     -1.49      0.00
    6   15    1     -0.84      0.00
   -5   16    1     -1.72      0.00
   -4   16    1      1.22      0.00
   -3   16    1     -0.74      0.00
   -2   16    1      1.98      0.00
   -1   16    1      3.15      0.00
    0   16    1     -1.16      0.00
    1   16    1     -4.10      0.00
    2   16    1     -0.26      0.00
    3   16    1      0.09      0.00
    4   16    1     -1.51      0.00
    5   16    1      1.91      0.00
   -5   17    1     -2.63      0.00
   -4   17    1     -1.90      0.00
   -3   17    1      0.78      0.00
   -2   17    1      1.12      0.00
   -1   17    1      2.20      0.00
    0   17    1      0.46      0.00
    1   17    1      2.41      0.00
    2   17    1      1.45      0.00
    3   17    1      1.28      0.00
    4   17    1     -1.30      0.00
    5   17    1     -0.79      0.00
   -4   18    1      1.28      0.00
   -3   18    1      0.32      0.00
   -2   18    1      1.15      0.00
   -1   18    1      2.05      0.00
    0   18    1     -0.91      0.00
    1   18    1     -4.73      0.00
    2   18    1     -0.05      0.00
    3   18    1     -0.09      0.00
    4   18    1     -2.09      0.00
   -3   19    1     -0.54      0.00
   -2   19    1      0.45      0.00
   -1   19    1     -0.09      0.00
    0   19    1      2.04      0.00
    1   19    1     -0.24      0.00
    2   19    1      1.38      0.00
    3   19    1      1.53      0.00
    0   20    1      0.27      0.00
   -9    0    2      3.51      0.00
   -8    0    2      0.90      0.00
   -7    0    2     -0.02      0.00
   -6    0    2     -0.16      0.00
   -5    0    2      0.34      0.00
   -4    0    2      3.48      0.00
   -3    0    2      2.83      0.00
   -2    0    2    -18.28      0.00
    1    0    2     -7.49      0.00
    2    0    2      2.89      0.00
    3    0    2      3.16      0.00
    4    0    2      0.30      0.00
    5    0    2      3.31      0.00
    6    0    2     -2.92      0.00
    7    0    2     -1.51      0.00
    8    0    2      1.91      0.00
    9    0    2     -0.15      0.00
   -9    1    2     -0.49      0.00
   -8    1    2     -0.03      0.00
   -7    1    2     -0.58      0.00
   -6    1    2     -0.49      0.00
   -5    1    2      0.55      0.00
   -4    1    2     -2.09      0.00
   -3    1    2      4.02      0.00
    2    1    2     -5.76      0.00
    3    1    2      0.92      0.00
    4    1    2     -1.75      0.00
    5    1    2      0.26      0.00
    6    1    2      0.77      0.00
    7    1    2     -2.24      0.00
    8    1    2      0.27      0.00
    9    1    2     -0.47      0.00
   -9    2    2      1.89      0.00
   -8    2    2      0.79      0.00
   -7    2    2      0.66      0.00
   -6    2    2     -1.01      0.00
   -5    2    2      1.22      0.00
   -4    2    2      1.95      0.00
   -3    2    2      0.13      0.00
   -2    2    2     -5.78      0.00
   -1    2    2      3.44      0.00
    1    2    2      4.17      0.00
    2    2    2     -0.85      0.00
    3    2    2      1.66      0.00
    4    2    2      1.31      0.00
    5    2    2      0.42      0.00
    6    2    2     -1.01      0.00
    7    2    2     -0.15      0.00
    8    2    2      0.26      0.00
    9    2    2      0.68      0.00
   -9    3    2     -0.61      0.00
   -8    3    2     -0.81      0.00
   -7    3    2      0.52      0.00
   -6    3    2     -0.46      0.00
   -5    3    2     -1.44      0.00
   -4    3    2     -1.07      0.00
   -3    3    2      4.06      0.00
   -2    3    2     -7.47      0.00
    1    3    2     -3.93      0.00
    2    3    2     -2.98      0.00
    3    3    2      0.00      0.00
    4    3    2     -1.55      0.00
    5    3    2      1.35      0.00
    6    3    2      0.18      0.00
    7    3    2     -2.31      0.00
    8    3    2      0.69      0.00
    9    3    2     -0.52      0.00
   -9    4    2      0.41      0.00
   -8    4    2     -0.30      0.00
   -7    4    2      0.37      0.00
   -6    4    2     -0.03      0.00
   -5    4    2      1.60      0.00
   -4    4    2     -1.68      0.00
   -3    4    2     -1.10      0.00
   -2    4    2      5.17      0.00
   -1    4    2     -3.08      0.00
    1    4    2      7.94      0.00
    2    4    2     -2.62      0.00
    3    4    2     -0.61      0.00
    4    4    2      0.46      0.00
    5    4    2     -0.37      0.00
    6    4    2      0.52      0.00
    7    4    2      0.38      0.00
    8    4    2     -1.21      0.00
    9    4    2      1.20      0.00
   -9    5    2      0.43      0.00
   -8    5    2      0.17      0.00
   -7    5    2      0.61      0.00
   -6    5    2     -0.78      0.00
   -5    5    2     -1.99      0.00
   -4    5    2      1.58      0.00
   -3    5    2     -0.80      0.00
   -2    5    2     -3.93      0.00
   -1    5    2     -4.74      0.00
    0    5    2     -8.66      0.00
    1    5    2     -4.42      0.00
    2    5    2      4.29      0.00
    3    5    2     -0.88      0.00
    4    5    2     -1.52      0.00
    5    5    2      1.15      0.00
    6    5    2     -0.20      0.00
    7    5    2     -0.40      0.00
    8    5    2      0.19      0.00
    9    5    2      0.16      0.00
   -9    6    2     -1.00      0.00
   -8    6    2     -0.34      0.00
   -7    6    2      0.96      0.00
   -6    6    2      0.46      0.00
   -5    6    2      0.20      0.00
   -4    6    2     -2.25      0.00
   -3    6    2     -0.43      0.00
   -2    6    2      4.51      0.00
   -1    6    2     -0.84      0.00
    0    6    2     -4.09      0.00
    1    6    2      0.57      0.00
    2    6    2     -1.60      0.00
    3    6    2     -1.09      0.00
    4    6    2     -0.40      0.00
    5    6    2      1.02      0.00
    6    6    2      0.86      0.00
    7    6    2     -0.40      0.00
    8    6    2     -0.85      0.00
    9    6    2     -0.44      0.00
   -9    7    2      0.88      0.00
   -8    7    2      0.46      0.00
   -7    7    2     -0.40      0.00
   -6    7    2      0.14      0.00
   -5    7    2      0.30      0.00
   -4    7    2      1.79      0.00
   -3    7    2     -1.81      0.00
   -2    7    2     -1.57      0.00
   -1    7    2     -0.45      0.00
    0    7    2     -7.46      0.00
    1    7    2     -2.91      0.00
    2    7    2      2.97      0.00
    3    7    2     -0.53      0.00
    4    7    2     -2.18      0.00
    5    7    2     -0.75      0.00
    6    7    2      0.32      0.00
    7    7    2      1.58      0.00
    8    7    2     -0.58      0.00
    9    7    2     -0.73      0.00
   -9    8    2     -0.53      0.00
   -8    8    2     -0.55      0.00
   -7    8    2      0.09      0.00
   -6    8    2      0.39      0.00
   -5    8    2      0.38      0.00
   -4    8    2      0.50      0.00
   -3    8    2      0.26      0.00
   -2    8    2      1.08      0.00
   -1    8    2      0.95      0.00
    0    8    2     -2.34      0.00
    1    8    2     -4.54      0.00
    2    8    2     -1.01      0.00
    3    8    2      0.37      0.00
    4    8    2      0.17      0.00
    5    8    2      1.25      0.00
    6    8    2     -0.78      0.00
    7    8    2     -0.18      0.00
    8    8    2      1.51      0.00
   -8    9    2      1.22      0.00
   -7    9    2     -0.25      0.00
   -6    9    2     -0.47      0.00
   -5    9    2      0.94      0.00
   -4    9    2      1.63      0.00
   -3    9    2      1.17      0.00
   -2    9    2     -0.22      0.00
   -1    9    2     -0.80      0.00
    0    9    2     -2.95      0.00
    1    9    2     -0.82      0.00
    2    9    2     -1.09      0.00
    3    9    2      1.08      0.00
    4    9    2     -1.63      0.00
    5    9    2      0.64      0.00
    6    9    2      0.74      0.00
    7    9    2      1.50      0.00
    8    9    2     -0.99      0.00
   -8   10    2     -1.55      0.00
   -7   10    2     -0.96      0.00
   -6   10    2      0.43      0.00
   -5   10    2      0.59      0.00
   -4   10    2      1.43      0.00
   -3   10    2      1.18      0.00
   -2   10    2      2.43      0.00
   -1   10    2      1.99      0.00
    0   10    2     -1.90      0.00
    1   10    2     -3.19      0.00
    2   10    2      0.32      0.00
    3   10    2      0.28      0.00
    4   10    2     -0.89      0.00
    5   10    2     -0.55      0.00
    6   10    2      0.07      0.00
    7   10    2     -0.05      0.00
    8   10    2      1.01      0.00
   -8   11    2      1.12      0.00
   -7   11    2     -0.18      0.00
   -6   11    2     -1.67      0.00
   -5   11    2     -1.73      0.00
   -4   11    2      0.45      0.00
   -3   11    2      1.05      0.00
   -2   11    2      0.57      0.00
   -1   11    2     -1.05      0.00
    0   11    2      1.39      0.00
    1   11    2      0.52      0.00
    2   11    2     -1.38      0.00
    3   11    2      0.54      0.00
    4   11    2     -1.53      0.00
    5   11    2      0.80      0.00
    6   11    2     -1.11      0.00
    7   11    2      0.33      0.00
    8   11    2     -1.57      0.00
   -7   12    2     -0.88      0.00
   -6   12    2      0.27      0.00
   -5   12    2     -0.66      0.00
   -4   12    2      0.51      0.00
   -3   12    2      1.54      0.00
   -2   12    2      2.67      0.00
   -1   12    2      1.30      0.00
    0   12    2      0.37      0.00
    1   12    2     -0.74      0.00
    2   12    2      0.72      0.00
    3   12    2     -0.08      0.00
    4   12    2     -1.30      0.00
    5   12    2     -0.75      0.00
    6   12    2      1.41      0.00
    7   12    2     -0.93      0.00
   -7   13    2     -0.49      0.00
   -6   13    2     -0.54      0.00
   -5   13    2     -1.94      0.00
   -4   13    2     -1.00      0.00
   -3   13    2      1.07      0.00
   -2   13    2      1.01      0.00
   -1   13    2     -0.47      0.00
    0   13    2      2.85      0.00
    1   13    2      0.88      0.00
    2   13    2     -2.03      0.00
    3   13    2     -0.57      0.00
    4   13    2     -1.40      0.00
    5   13    2     -1.15      0.00
    6   13    2     -1.53      0.00
    7   13    2     -1.04      0.00
   -7   14    2      0.20      0.00
   -6   14    2     -1.54      0.00
   -5   14    2     -0.84      0.00
   -4   14    2     -0.87      0.00
   -3   14    2      1.67      0.00
   -2   14    2      2.01      0.00
   -1   14    2     -0.94      0.00
    0   14    2     -0.58      0.00
    1   14    2      1.09      0.00
    2   14    2      0.78      0.00
    3   14    2     -0.20      0.00
    4   14    2      0.78      0.00
    5   14    2     -0.79      0.00
    6   14    2      0.67      0.00
   -6   15    2      0.48      0.00
   -5   15    2     -0.67      0.00
   -4   15    2     -0.32      0.00
   -3   15    2      0.93      0.00
   -2   15    2      2.28      0.00
   -1   15    2      1.29      0.00
    0   15    2      0.61      0.00
    1   15    2     -0.79      0.00
    2   15    2     -1.39      0.00
    3   15    2     -0.50      0.00
    4   15    2     -0.41      0.00
    5   15    2      0.00      0.00
    6   15    2     -0.69      0.00
   -5   16    2     -1.88      0.00
   -4   16    2     -1.49      0.00
   -3   16    2      0.88      0.00
   -2   16    2      1.45      0.00
   -1   16    2      0.60      0.00
    0   16    2     -0.88      0.00
    1   16    2      3.59      0.00
    2   16    2      0.94      0.00
    3   16    2      0.29      0.00
    4   16    2      0.42      0.00
    5   16    2     -0.67      0.00
   -5   17    2     -1.07      0.00
   -4   17    2     -0.27      0.00
   -3   17    2     -0.12      0.00
   -2   17    2      1.43      0.00
   -1   17    2      1.53      0.00
    0   17    2     -2.52      0.00
    1   17    2     -3.76      0.00
    2   17    2      1.58      0.00
    3   17    2     -0.15      0.00
    4   17    2     -1.26      0.00
    5   17    2      2.41      0.00
   -4   18    2     -0.57      0.00
   -3   18    2     -1.16      0.00
   -2   18    2     -0.35      0.00
   -1   18    2      2.35      0.00
    0   18    2      1.43      0.00
    1   18    2      1.11      0.00
    2   18    2      0.90      0.00
    3   18    2      2.32      0.00
    4   18    2     -0.55      0.00
   -3   19    2      1.10      0.00
   -2   19    2     -0.90      0.00
   -1   19    2     -0.70      0.00
    0   19    2     -0.28      0.00
    1   19    2     -2.61      0.00
    2   19    2      0.72      0.00
    3   19    2     -0.05      0.00
    0   20    2      1.07      0.00
   -9    1    3      3.00      0.00
   -8    1    3      1.05      0.00
   -7    1    3      0.65      0.00
   -6    1    3     -1.81      0.00
   -5    1    3      0.59      0.00
   -4    1    3      4.32      0.00
   -3    1    3     -0.50      0.00
   -2    1    3    -13.56      0.00
   -1    1    3      6.70      0.00
    1    1    3     -5.11      0.00
    2    1    3     -0.74      0.00
    3    1    3      0.67      0.00
    4    1    3      1.94      0.00
    5    1    3      2.57      0.00
    6    1    3     -2.25      0.00
    7    1    3     -0.88      0.00
    8    1    3      0.03      0.00
    9    1    3      1.10      0.00
   -9    2    3     -0.86      0.00
   -8    2    3     -1.56      0.00
   -7    2    3     -0.42      0.00
   -6    2    3     -0.84      0.00
   -5    2    3     -1.85      0.00
   -4    2    3     -1.33      0.00
   -3    2    3      7.29      0.00
   -2    2    3     -9.48      0.00
   -1    2    3    -16.12      0.00
    0    2    3      7.86      0.00
    2    2    3     -4.86      0.00
    3    2    3     -0.04      0.00
    4    2    3     -3.35      0.00
    5    2    3      1.96      0.00
    6    2    3      0.44      0.00
    7    2    3     -2.38      0.00
    8    2    3      0.72      0.00
    9    2    3     -0.44      0.00
   -9    3    3      1.21      0.00
   -8    3    3      1.40      0.00
   -7    3    3     -0.35      0.00
   -6    3    3     -0.63      0.00
   -5    3    3      1.01      0.00
   -4    3    3     -1.04      0.00
   -3    3    3     -0.23      0.00
   -2    3    3      1.66      0.00
   -1    3    3     -6.30      0.00
    0    3    3     -0.84      0.00
    1    3    3      9.08      0.00
    2    3    3     -3.31      0.00
    3    3    3      1.30      0.00
    4    3    3      0.82      0.00
    5    3    3     -0.46      0.00
    6    3    3      0.78      0.00
    7    3    3     -0.12      0.00
    8    3    3     -1.10      0.00
    9    3    3      2.01      0.00
   -9    4    3     -0.71      0.00
   -8    4    3     -1.21      0.00
   -7    4    3      1.43      0.00
   -6    4    3     -0.80      0.00
   -5    4    3     -2.62      0.00
   -4    4    3      1.11      0.00
   -3    4    3      2.48      0.00
   -2    4    3     -5.03      0.00
   -1    4    3     -8.11      0.00
    0    4    3     -5.45      0.00
    1    4    3     -6.12      0.00
    2    4    3      0.89      0.00
    3    4    3     -1.10      0.00
    4    4    3     -0.92      0.00
    5    4    3      2.28      0.00
    6    4    3      0.78      0.00
    7    4    3     -0.62      0.00
    8    4    3      0.96      0.00
    9    4    3      0.24      0.00
   -9    5    3     -0.17      0.00
   -8    5    3      0.00      0.00
   -7    5    3      0.35      0.00
   -6    5    3      1.14      0.00
   -5    5    3      0.42      0.00
   -4    5    3     -3.49      0.00
   -3    5    3      0.69      0.00
   -2    5    3      5.70      0.00
   -1    5    3     -4.30      0.00
    0    5    3     -4.36      0.00
    1    5    3      5.21      0.00
    2    5    3     -2.08      0.00
    3    5    3     -0.83      0.00
    4    5    3     -0.69      0.00
    5    5    3      0.28      0.00
    6    5    3      1.72      0.00
    7    5    3     -0.41      0.00
    8    5    3     -1.58      0.00
    9    5    3      1.73      0.00
   -9    6    3      0.26      0.00
   -8    6    3     -0.67      0.00
   -7    6    3      0.10      0.00
   -6    6    3      0.11      0.00
   -5    6    3     -0.32      0.00
   -4    6    3      2.05      0.00
   -3    6    3     -1.12      0.00
   -2    6    3     -0.52      0.00
   -1    6    3     -2.52      0.00
    0    6    3     -9.01      0.00
    1    6    3     -3.38      0.00
    2    6    3      3.18      0.00
    3    6    3     -1.46      0.00
    4    6    3     -0.89      0.00
    5    6    3      0.28      0.00
    6    6    3      1.04      0.00
    7    6    3      1.07      0.00
    8    6    3      0.28      0.00
    9    6    3      0.07      0.00
   -9    7    3     -1.00      0.00
   -8    7    3     -0.46      0.00
   -7    7    3      1.06      0.00
   -6    7    3      0.50      0.00
   -5    7    3      0.59      0.00
   -4    7    3     -0.82      0.00
   -3    7    3      1.12      0.00
   -2    7    3      3.57      0.00
   -1    7    3      0.89      0.00
    0    7    3     -1.74      0.00
    1    7    3     -1.58      0.00
    2    7    3     -1.01      0.00
    3    7    3     -0.22      0.00
    4    7    3      0.00      0.00
    5    7    3      1.25      0.00
    6    7    3      0.03      0.00
    7    7    3     -0.85      0.00
    8    7    3      0.08      0.00
    9    7    3     -0.28      0.00
   -9    8    3      0.10      0.00
   -8    8    3     -0.85      0.00
   -7    8    3     -0.73      0.00
   -6    8    3      0.72      0.00
   -5    8    3      1.19      0.00
   -4    8    3      2.71      0.00
   -3    8    3      0.74      0.00
   -2    8    3      1.07      0.00
   -1    8    3     -0.54      0.00
    0    8    3     -6.16      0.00
    1    8    3     -0.75      0.00
    2    8    3      0.04      0.00
    3    8    3     -0.67      0.00
    4    8    3     -1.79      0.00
    5    8    3     -0.45      0.00
    6    8    3      0.44      0.00
    7    8    3      1.84      0.00
    8    8    3     -0.27      0.00
   -8    9    3     -1.54      0.00
   -7    9    3     -0.79      0.00
   -6    9    3     -0.28      0.00
   -5    9    3      0.91      0.00
   -4    9    3      0.76      0.00
   -3    9    3      1.19      0.00
   -2    9    3      2.48      0.00
   -1    9    3      5.41      0.00
    0    9    3     -1.73      0.00
    1    9    3     -3.47      0.00
    2    9    3      1.65      0.00
    3    9    3      1.16      0.00
    4    9    3     -0.26      0.00
    5    9    3     -0.20      0.00
    6    9    3     -2.10      0.00
    7    9    3     -0.72      0.00
    8    9    3      1.55      0.00
   -8   10    3      0.55      0.00
   -7   10    3      0.11      0.00
   -6   10    3     -0.94      0.00
   -5   10    3     -0.27      0.00
   -4   10    3      1.87      0.00
   -3   10    3      1.56      0.00
   -2   10    3      0.37      0.00
   -1   10    3     -0.68      0.00
    0   10    3      0.01      0.00
    1   10    3      0.54      0.00
    2   10    3     -1.87      0.00
    3   10    3      0.53      0.00
    4   10    3     -1.79      0.00
    5   10    3      1.58      0.00
    6   10    3     -1.50      0.00
    7   10    3      0.50      0.00
    8   10    3     -1.05      0.00
   -8   11    3     -1.28      0.00
   -7   11    3     -0.79      0.00
   -6   11    3     -0.73      0.00
   -5   11    3     -0.44      0.00
   -4   11    3     -0.04      0.00
   -3   11    3      1.20      0.00
   -2   11    3      3.26      0.00
   -1   11    3      4.61      0.00
    0   11    3      0.11      0.00
    1   11    3     -1.24      0.00
    2   11    3      1.92      0.00
    3   11    3      0.17      0.00
    4   11    3     -2.33      0.00
    5   11    3     -0.87      0.00
    6   11    3      0.01      0.00
    7   11    3     -1.24      0.00
    8   11    3      0.11      0.00
   -7   12    3      0.20      0.00
   -6   12    3     -0.51      0.00
   -5   12    3     -2.42      0.00
   -4   12    3     -0.89      0.00
   -3   12    3      0.31      0.00
   -2   12    3      0.26      0.00
   -1   12    3     -0.26      0.00
    0   12    3      2.65      0.00
    1   12    3      0.60      0.00
    2   12    3     -1.04      0.00
    3   12    3     -0.01      0.00
    4   12    3     -1.32      0.00
    5   12    3      0.93      0.00
    6   12    3     -2.12      0.00
    7   12    3     -0.80      0.00
   -7   13    3      0.64      0.00
   -6   13    3     -0.59      0.00
   -5   13    3     -0.16      0.00
   -4   13    3     -0.63      0.00
   -3   13    3      1.18      0.00
   -2   13    3      1.30      0.00
   -1   13    3      1.39      0.00
    0   13    3      0.86      0.00
    1   13    3     -1.48      0.00
    2   13    3      0.95      0.00
    3   13    3     -0.35      0.00
    4   13    3     -1.04      0.00
    5   13    3      0.19      0.00
    6   13    3      1.15      0.00
    7   13    3     -0.79      0.00
   -7   14    3     -0.30      0.00
   -6   14    3      0.84      0.00
   -5   14    3     -0.60      0.00
   -4   14    3     -1.20      0.00
   -3   14    3      2.38      0.00
   -2   14    3      1.04      0.00
   -1   14    3      1.05      0.00
    0   14    3      3.22      0.00
    1   14    3      0.47      0.00
    2   14    3     -1.94      0.00
    3   14    3      0.07      0.00
    4   14    3     -0.43      0.00
    5   14    3      0.27      0.00
    6   14    3     -0.16      0.00
   -6   15    3     -1.26      0.00
   -5   15    3      0.11      0.00
   -4   15    3     -1.33      0.00
   -3   15    3      1.08      0.00
   -2   15    3      0.71      0.00
   -1   15    3     -1.56      0.00
    0   15    3     -0.14      0.00
    1   15    3      1.72      0.00
    2   15    3      0.07      0.00
    3   15    3     -0.23      0.00
    4   15    3      0.85      0.00
    5   15    3     -1.00      0.00
    6   15    3      0.57      0.00
   -5   16    3      0.28      0.00
   -4   16    3     -1.16      0.00
   -3   16    3      1.44      0.00
   -2   16    3      2.43      0.00
   -1   16    3      1.11      0.00
    0   16    3     -1.28      0.00
    1   16    3     -0.78      0.00
    2   16    3      0.93      0.00
    3   16    3     -0.55      0.00
    4   16    3      0.17      0.00
    5   16    3      0.78      0.00
   -5   17    3     -1.22      0.00
   -4   17    3     -0.05      0.00
   -3   17    3     -1.88      0.00
   -2   17    3     -0.59      0.00
   -1   17    3      1.69      0.00
    0   17    3     -0.22      0.00
    1   17    3      2.35      0.00
    2   17    3      0.34      0.00
    3   17    3      1.51      0.00
    4   17    3      0.11      0.00
   -4   18    3     -1.47      0.00
   -3   18    3      0.96      0.00
   -2   18    3     -1.16      0.00
   -1   18    3     -0.83      0.00
    0   18    3     -1.79      0.00
    1   18    3     -1.86      0.00
    2   18    3      2.19      0.00
    3   18    3      0.02      0.00
    4   18    3     -0.67      0.00
   -3   19    3     -1.47      0.00
   -2   19    3      0.38      0.00
   -1   19    3      1.53      0.00
    0   19    3      0.58      0.00
    1   19    3      0.36      0.00
    2   19    3      0.95      0.00
   -9    0    4      2.62      0.00
   -8    0    4      0.74      0.00
   -7    0    4      1.05      0.00
   -6    0    4     -3.12      0.00
   -5    0    4      0.57      0.00
   -4    0    4      6.04      0.00
   -3    0    4     -3.33      0.00
   -2    0    4    -11.48      0.00
   -1    0    4      7.26      0.00
    1    0    4     -7.94      0.00
    2    0    4     -2.75      0.00
    3    0    4     -2.05      0.00
    4    0    4      3.97      0.00
    5    0    4      1.89      0.00
    6    0    4     -2.72      0.00
    7    0    4     -0.88      0.00
    8    0    4     -0.66      0.00
    9    0    4      1.17      0.00
   -9    1    4     -0.25      0.00
   -8    1    4     -1.40      0.00
   -7    1    4     -0.33      0.00
   -6    1    4     -0.67      0.00
   -5    1    4     -1.63      0.00
   -4    1    4     -0.21      0.00
   -3    1    4      4.80      0.00
   -2    1    4     -7.28      0.00
   -1    1    4     -4.07      0.00
    0    1    4      8.32      0.00
    1    1    4     -5.59      0.00
    2    1    4     -1.51      0.00
    3    1    4     -0.37      0.00
    4    1    4     -2.71      0.00
    5    1    4      1.89      0.00
    6    1    4     -0.34      0.00
    7    1    4     -1.18      0.00
    8    1    4      0.54      0.00
    9    1    4     -0.07      0.00
   -9    2    4      1.77      0.00
   -8    2    4      1.89      0.00
   -7    2    4     -0.48      0.00
   -6    2    4     -1.70      0.00
   -5    2    4      0.64      0.00
   -4    2    4      1.95      0.00
   -3    2    4     -0.97      0.00
   -2    2    4     -4.01      0.00
   -1    2    4     -4.31      0.00
    1    2    4      1.71      0.00
    2    2    4     -3.96      0.00
    3    2    4      0.52      0.00
    4    2    4      2.25      0.00
    5    2    4      0.67      0.00
    6    2    4     -0.01      0.00
    7    2    4     -0.94      0.00
    8    2    4     -0.76      0.00
    9    2    4      1.51      0.00
   -9    3    4     -1.10      0.00
   -8    3    4     -2.10      0.00
   -7    3    4      1.56      0.00
   -6    3    4     -1.16      0.00
   -5    3    4     -3.00      0.00
   -4    3    4      1.14      0.00
   -3    3    4      5.33      0.00
   -2    3    4     -7.70      0.00
   -1    3    4     -5.50      0.00
    0    3    4      3.57      0.00
    1    3    4     -7.05      0.00
    2    3    4     -1.07      0.00
    3    3    4     -1.16      0.00
    4    3    4     -2.57      0.00
    5    3    4      2.95      0.00
    6    3    4      0.62      0.00
    7    3    4     -0.88      0.00
    8    3    4      1.29      0.00
    9    3    4      0.42      0.00
   -9    4    4      0.72      0.00
   -8    4    4      1.05      0.00
   -7    4    4     -1.01      0.00
   -6    4    4      1.35      0.00
   -5    4    4     -0.03      0.00
   -4    4    4     -2.79      0.00
   -3    4    4      1.55      0.00
   -2    4    4      3.37      0.00
   -1    4    4     -9.27      0.00
    0    4    4     -1.19      0.00
    1    4    4      6.28      0.00
    2    4    4     -2.74      0.00
    3    4    4      0.22      0.00
    4    4    4     -0.08      0.00
    5    4    4      0.18      0.00
    6    4    4      2.29      0.00
    7    4    4     -0.66      0.00
    8    4    4     -1.48      0.00
    9    4    4      2.21      0.00
   -9    5    4     -0.56      0.00
   -8    5    4     -1.11      0.00
   -7    5    4      1.54      0.00
   -6    5    4     -0.06      0.00
   -5    5    4     -0.85      0.00
   -4    5    4      2.07      0.00
   -3    5    4      0.72      0.00
   -2    5    4     -0.51      0.00
   -1    5    4     -2.93      0.00
    0    5    4     -6.95      0.00
    1    5    4     -3.99      0.00
    2    5    4      1.90      0.00
    3    5    4     -1.74      0.00
    4    5    4     -0.23      0.00
    5    5    4      1.47      0.00
    6    5    4      1.56      0.00
    7    5    4      0.59      0.00
    8    5    4      1.24      0.00
    9    5    4      0.35      0.00
   -9    6    4     -0.69      0.00
   -8    6    4     -0.22      0.00
   -7    6    4      0.81      0.00
   -6    6    4      1.09      0.00
   -5    6    4      0.21      0.00
   -4    6    4     -2.02      0.00
   -3    6    4      2.36      0.00
   -2    6    4      4.03      0.00
   -1    6    4     -2.57      0.00
    0    6    4     -0.57      0.00
    1    6    4      0.88      0.00
    2    6    4     -1.48      0.00
    3    6    4     -1.14      0.00
    4    6    4     -0.66      0.00
    5    6    4      1.11      0.00
    6    6    4      1.34      0.00
    7    6    4     -1.57      0.00
    8    6    4     -0.97      0.00
    9    6    4      1.50      0.00
   -9    7    4     -0.26      0.00
   -8    7    4     -1.87      0.00
   -7    7    4     -0.30      0.00
   -6    7    4      0.97      0.00
   -5    7    4      0.85      0.00
   -4    7    4      2.28      0.00
   -3    7    4      0.47      0.00
   -2    7    4      2.91      0.00
   -1    7    4     -0.64      0.00
    0    7    4     -6.72      0.00
    1    7    4     -0.86      0.00
    2    7    4      1.41      0.00
    3    7    4     -1.63      0.00
    4    7    4     -0.72      0.00
    5    7    4     -1.03      0.00
    6    7    4      1.18      0.00
    7    7    4      1.11      0.00
    8    7    4     -0.05      0.00
   -8    8    4     -1.00      0.00
   -7    8    4     -0.20      0.00
   -6    8    4      0.22      0.00
   -5    8    4      0.90      0.00
   -4    8    4     -0.12      0.00
   -3    8    4      1.15      0.00
   -2    8    4      3.01      0.00
   -1    8    4      5.20      0.00
    0    8    4     -1.48      0.00
    1    8    4     -1.91      0.00
    2    8    4      1.79      0.00
    3    8    4      0.50      0.00
    4    8    4      0.18      0.00
    5    8    4     -0.11      0.00
    6    8    4     -2.14      0.00
    7    8    4     -1.44      0.00
    8    8    4      1.02      0.00
   -8    9    4     -0.80      0.00
   -7    9    4     -0.29      0.00
   -6    9    4     -0.11      0.00
   -5    9    4      0.98      0.00
   -4    9    4      2.67      0.00
   -3    9    4      1.47      0.00
   -2    9    4      1.58      0.00
   -1    9    4      0.76      0.00
    0    9    4     -1.86      0.00
    1    9    4      1.14      0.00
    2    9    4     -1.25      0.00
    3    9    4     -0.11      0.00
    4    9    4     -1.42      0.00
    5    9    4      0.19      0.00
    6    9    4     -1.26      0.00
    7    9    4      0.42      0.00
    8    9    4     -0.22      0.00
   -8   10    4     -1.39      0.00
   -7   10    4     -1.02      0.00
   -6   10    4     -0.56      0.00
   -5   10    4      0.01      0.00
   -4   10    4     -0.55      0.00
   -3   10    4      0.06      0.00
   -2   10    4      3.10      0.00
   -1   10    4      7.28      0.00
    0   10    4     -1.01      0.00
    1   10    4     -0.82      0.00
    2   10    4      3.62      0.00
    3   10    4      0.64      0.00
    4   10    4     -1.47      0.00
    5   10    4     -1.26      0.00
    6   10    4     -1.58      0.00
    7   10    4     -1.76      0.00
    8   10    4      0.76      0.00
   -8   11    4      0.62      0.00
   -7   11    4      1.04      0.00
   -6   11    4     -0.65      0.00
   -5   11    4     -0.67      0.00
   -4   11    4      0.50      0.00
   -3   11    4     -0.42      0.00
   -2   11    4     -0.34      0.00
   -1   11    4     -0.17      0.00
    0   11    4      1.83      0.00
    1   11    4      0.50      0.00
    2   11    4     -0.68      0.00
    3   11    4      0.14      0.00
    4   11    4     -0.64      0.00
    5   11    4      1.38      0.00
    6   11    4     -2.73      0.00
    7   11    4     -0.41      0.00
   -7   12    4      0.80      0.00
   -6   12    4     -0.50      0.00
   -5   12    4     -0.47      0.00
   -4   12    4     -0.21      0.00
   -3   12    4      0.03      0.00
   -2   12    4      2.00      0.00
   -1   12    4      4.04      0.00
    0   12    4      0.17      0.00
    1   12    4     -1.30      0.00
    2   12    4      2.44      0.00
    3   12    4     -0.41      0.00
    4   12    4     -1.94      0.00
    5   12    4      0.78      0.00
    6   12    4      0.99      0.00
    7   12    4     -1.05      0.00
   -7   13    4      0.12      0.00
   -6   13    4      1.66      0.00
   -5   13    4     -0.83      0.00
   -4   13    4     -0.99      0.00
   -3   13    4      1.42      0.00
   -2   13    4     -0.71      0.00
   -1   13    4      0.86      0.00
    0   13    4      2.94      0.00
    1   13    4      0.05      0.00
    2   13    4     -0.62      0.00
    3   13    4      0.56      0.00
    4   13    4     -0.30      0.00
    5   13    4      1.51      0.00
    6   13    4     -0.83      0.00
    7   13    4     -1.34      0.00
   -6   14    4     -0.35      0.00
   -5   14    4      1.12      0.00
   -4   14    4     -0.92      0.00
   -3   14    4      1.08      0.00
   -2   14    4      0.37      0.00
   -1   14    4     -0.47      0.00
    0   14    4      0.40      0.00
    1   14    4     -1.41      0.00
    2   14    4      0.90      0.00
    3   14    4     -0.35      0.00
    4   14    4     -0.21      0.00
    5   14    4      0.07      0.00
    6   14    4      1.29      0.00
   -6   15    4      1.36      0.00
   -5   15    4      1.27      0.00
   -4   15    4     -0.79      0.00
   -3   15    4      3.16      0.00
   -2   15    4      1.43      0.00
   -1   15    4      1.31      0.00
    0   15    4      1.60      0.00
    1   15    4      0.37      0.00
    2   15    4     -0.27      0.00
    3   15    4      0.13      0.00
    4   15    4      0.59      0.00
    5   15    4      0.43      0.00
    6   15    4      0.64      0.00
   -5   16    4      0.22      0.00
   -4   16    4     -0.54      0.00
   -3   16    4     -1.30      0.00
   -2   16    4     -0.92      0.00
   -1   16    4     -1.56      0.00
    0   16    4     -0.59      0.00
    1   16    4      1.48      0.00
    2   16    4     -0.11      0.00
    3   16    4      0.27      0.00
    4   16    4      0.20      0.00
    5   16    4     -1.71      0.00
   -5   17    4      0.01      0.00
   -4   17    4     -1.55      0.00
   -3   17    4      1.82      0.00
   -2   17    4      1.33      0.00
   -1   17    4     -0.62      0.00
    0   17    4     -1.38      0.00
    1   17    4      0.07      0.00
    2   17    4      2.34      0.00
    3   17    4     -0.52      0.00
    4   17    4      0.22      0.00
   -4   18    4      0.99      0.00
   -3   18    4     -3.56      0.00
   -2   18    4      0.27      0.00
   -1   18    4      1.51      0.00
    0   18    4     -1.25      0.00
    1   18    4      1.41      0.00
    2   18    4      0.73      0.00
    3   18    4      1.65      0.00
   -2   19    4     -2.17      0.00
   -1   19    4     -0.11      0.00
    0   19    4     -0.34      0.00
    1   19    4     -0.59      0.00
    2   19    4      1.43      0.00
   -9    1    5      1.55      0.00
   -8    1    5      0.87      0.00
   -7    1    5      0.52      0.00
   -6    1    5     -2.79      0.00
   -5    1    5      0.89      0.00
   -4    1    5      4.09      0.00
   -3    1    5     -3.85      0.00
   -2    1    5     -4.42      0.00
   -1    1    5      2.00      0.00
    0    1    5      2.28      0.00
    1    1    5     -3.91      0.00
    2    1    5     -4.82      0.00
    3    1    5     -2.22      0.00
    4    1    5      4.35      0.00
    5    1    5     -0.33      0.00
    6    1    5     -1.52      0.00
    7    1    5     -0.51      0.00
    8    1    5     -0.46      0.00
    9    1    5      0.43      0.00
   -9    2    5     -0.60      0.00
   -8    2    5     -1.90      0.00
   -7    2    5      1.17      0.00
   -6    2    5     -1.22      0.00
   -5    2    5     -2.41      0.00
   -4    2    5      1.53      0.00
   -3    2    5      4.31      0.00
   -2    2    5     -9.17      0.00
   -1    2    5      0.13      0.00
    0    2    5      7.67      0.00
    1    2    5     -6.25      0.00
    2    2    5      0.32      0.00
    3    2    5     -1.34      0.00
    4    2    5     -2.78      0.00
    5    2    5      3.43      0.00
    6    2    5     -0.63      0.00
    7    2    5     -0.64      0.00
    8    2    5      1.22      0.00
    9    2    5      0.59      0.00
   -9    3    5      1.10      0.00
   -8    3    5      1.12      0.00
   -7    3    5     -1.54      0.00
   -6    3    5      0.55      0.00
   -5    3    5      0.13      0.00
   -4    3    5     -0.19      0.00
   -3    3    5      1.44      0.00
   -2    3    5     -0.39      0.00
   -1    3    5     -9.07      0.00
    0    3    5      3.56      0.00
    1    3    5      2.01      0.00
    2    3    5     -4.05      0.00
    3    3    5      0.16      0.00
    4    3    5      0.88      0.00
    5    3    5      0.62      0.00
    6    3    5      1.64      0.00
    7    3    5     -0.81      0.00
    8    3    5     -0.75      0.00
    9    3    5      0.80      0.00
   -9    4    5     -0.97      0.00
   -8    4    5     -0.93      0.00
   -7    4    5      2.10      0.00
   -6    4    5     -0.79      0.00
   -5    4    5     -1.32      0.00
   -4    4    5      2.14      0.00
   -3    4    5      2.23      0.00
   -2    4    5     -2.13      0.00
   -1    4    5     -1.51      0.00
    0    4    5     -1.89      0.00
    1    4    5     -3.59      0.00
    2    4    5      0.76      0.00
    3    4    5     -1.84      0.00
    4    4    5     -1.40      0.00
    5    4    5      2.11      0.00
    6    4    5      0.96      0.00
    7    4    5      0.29      0.00
    8    4    5      1.94      0.00
    9    4    5      0.69      0.00
   -9    5    5      0.18      0.00
   -8    5    5     -0.08      0.00
   -7    5    5     -0.09      0.00
   -6    5    5      1.38      0.00
   -5    5    5     -0.45      0.00
   -4    5    5     -1.53      0.00
   -3    5    5      3.39      0.00
   -2    5    5      2.18      0.00
   -1    5    5     -5.87      0.00
    0    5    5      1.58      0.00
    1    5    5      1.31      0.00
    2    5    5     -2.15      0.00
    3    5    5     -1.07      0.00
    4    5    5     -0.81      0.00
    5    5    5      1.44      0.00
    6    5    5      1.92      0.00
    7    5    5     -1.52      0.00
    8    5    5     -1.40      0.00
    9    5    5      1.57      0.00
   -9    6    5     -0.37      0.00
   -8    6    5     -1.34      0.00
   -7    6    5      0.64      0.00
   -6    6    5      0.48      0.00
   -5    6    5      0.19      0.00
   -4    6    5      1.01      0.00
   -3    6    5      0.84      0.00
   -2    6    5      3.47      0.00
   -1    6    5     -0.21      0.00
    0    6    5     -5.09      0.00
    1    6    5     -1.24      0.00
    2    6    5      2.13      0.00
    3    6    5     -2.09      0.00
    4    6    5     -0.61      0.00
    5    6    5     -0.95      0.00
    6    6    5      1.34      0.00
    7    6    5      0.64      0.00
    8    6    5      0.54      0.00
   -9    7    5     -0.59      0.00
   -8    7    5     -0.51      0.00
   -7    7    5      0.43      0.00
   -6    7    5      0.35      0.00
   -5    7    5      0.17      0.00
   -4    7    5     -0.77      0.00
   -3    7    5      1.85      0.00
   -2    7    5      2.34      0.00
   -1    7    5      2.13      0.00
    0    7    5     -0.22      0.00
    1    7    5     -0.33      0.00
    2    7    5      0.70      0.00
    3    7    5     -0.53      0.00
    4    7    5     -0.27      0.00
    5    7    5      0.54      0.00
    6    7    5     -1.15      0.00
    7    7    5     -1.96      0.00
    8    7    5      0.11      0.00
   -8    8    5     -1.35      0.00
   -7    8    5     -0.28      0.00
   -6    8    5      0.35      0.00
   -5    8    5      0.80      0.00
   -4    8    5      1.24      0.00
   -3    8    5      1.28      0.00
   -2    8    5      3.33      0.00
   -1    8    5      1.70      0.00
    0    8    5     -2.48      0.00
    1    8    5      1.71      0.00
    2    8    5      0.28      0.00
    3    8    5     -0.34      0.00
    4    8    5     -1.15      0.00
    5    8    5     -1.49      0.00
    6    8    5      0.18      0.00
    7    8    5     -0.01      0.00
    8    8    5     -0.28      0.00
   -8    9    5     -0.96      0.00
   -7    9    5     -0.99      0.00
   -6    9    5      0.86      0.00
   -5    9    5      0.25      0.00
   -4    9    5     -1.11      0.00
   -3    9    5     -1.22      0.00
   -2    9    5      2.37      0.00
   -1    9    5      7.20      0.00
    0    9    5     -1.98      0.00
    1    9    5      0.11      0.00
    2    9    5      3.91      0.00
    3    9    5      0.26      0.00
    4    9    5     -0.34      0.00
    5    9    5     -1.80      0.00
    6    9    5     -2.16      0.00
    7    9    5     -1.47      0.00
    8    9    5      1.02      0.00
   -8   10    5      0.65      0.00
   -7   10    5      0.25      0.00
   -6   10    5     -0.75      0.00
   -5   10    5      1.51      0.00
   -4   10    5      1.40      0.00
   -3   10    5     -0.44      0.00
   -2   10    5     -0.13      0.00
   -1   10    5      0.97      0.00
    0   10    5      1.41      0.00
    1   10    5      0.73      0.00
    2   10    5     -0.37      0.00
    3   10    5      0.67      0.00
    4   10    5     -0.05      0.00
    5   10    5      0.11      0.00
    6   10    5     -2.09      0.00
    7   10    5      0.03      0.00
    8   10    5     -0.02      0.00
   -8   11    5     -0.82      0.00
   -7   11    5      0.33      0.00
   -6   11    5      0.11      0.00
   -5   11    5     -0.42      0.00
   -4   11    5     -0.08      0.00
   -3   11    5     -1.71      0.00
   -2   11    5      2.19      0.00
   -1   11    5      4.45      0.00
    0   11    5     -0.95      0.00
    1   11    5      0.46      0.00
    2   11    5      3.11      0.00
    3   11    5     -0.25      0.00
    4   11    5     -1.32      0.00
    5   11    5      0.04      0.00
    6   11    5      0.64      0.00
    7   11    5     -1.45      0.00
   -7   12    5      0.84      0.00
   -6   12    5      0.84      0.00
   -5   12    5      0.26      0.00
   -4   12    5      0.05      0.00
   -3   12    5     -0.57      0.00
   -2   12    5     -1.16      0.00
   -1   12    5      0.02      0.00
    0   12    5      1.83      0.00
    1   12    5     -0.24      0.00
    2   12    5      0.72      0.00
    3   12    5      0.85      0.00
    4   12    5      0.66      0.00
    5   12    5      1.05      0.00
    6   12    5     -1.40      0.00
    7   12    5     -0.45      0.00
   -7   13    5      1.44      0.00
   -6   13    5      0.12      0.00
   -5   13    5      0.48      0.00
   -4   13    5      0.28      0.00
   -3   13    5      0.05      0.00
   -2   13    5      1.29      0.00
   -1   13    5      1.37      0.00
    0   13    5     -0.29      0.00
    1   13    5     -1.36      0.00
    2   13    5      2.43      0.00
    3   13    5     -0.26      0.00
    4   13    5     -0.19      0.00
    5   13    5      1.57      0.00
    6   13    5      1.83      0.00
   -6   14    5      2.39      0.00
   -5   14    5      1.03      0.00
   -4   14    5      0.00      0.00
   -3   14    5      2.15      0.00
   -2   14    5     -1.03      0.00
   -1   14    5      1.20      0.00
    0   14    5      1.68      0.00
    1   14    5     -0.43      0.00
    2   14    5     -0.07      0.00
    3   14    5      1.06      0.00
    4   14    5      0.39      0.00
    5   14    5      1.29      0.00
    6   14    5      0.17      0.00
   -6   15    5     -0.06      0.00
   -5   15    5      0.91      0.00
   -4   15    5     -0.94      0.00
   -3   15    5      0.75      0.00
   -2   15    5     -0.88      0.00
   -1   15    5     -2.08      0.00
    0   15    5      0.07      0.00
    1   15    5     -0.49      0.00
    2   15    5      0.74      0.00
    3   15    5     -0.18      0.00
    4   15    5     -0.25      0.00
    5   15    5     -1.08      0.00
   -5   16    5      1.36      0.00
   -4   16    5     -0.95      0.00
   -3   16    5      2.57      0.00
   -2   16    5      2.16      0.00
   -1   16    5     -0.55      0.00
    0   16    5      0.51      0.00
    1   16    5      0.55      0.00
    2   16    5      1.33      0.00
    3   16    5     -0.28      0.00
    4   16    5      0.82      0.00
    5   16    5     -0.84      0.00
   -4   17    5      0.30      0.00
   -3   17    5     -3.78      0.00
   -2   17    5     -0.43      0.00
   -1   17    5     -1.23      0.00
    0   17    5     -1.92      0.00
    1   17    5      1.50      0.00
    2   17    5      0.31      0.00
    3   17    5      0.11      0.00
    4   17    5      0.01      0.00
   -3   18    5      1.19      0.00
   -2   18    5      0.64      0.00
   -1   18    5     -0.17      0.00
    0   18    5      0.08      0.00
    1   18    5      0.27      0.00
    2   18    5      2.26      0.00
    3   18    5      0.03      0.00
   -2   19    5      1.76      0.00
   -1   19    5      0.37      0.00
    0   19    5     -1.15      0.00
    1   19    5      1.35      0.00
    2   19    5      0.93      0.00
   -9    0    6      0.77      0.00
   -8    0    6      0.38      0.00
   -7    0    6      1.15      0.00
   -6    0    6     -2.40      0.00
   -5    0    6      1.19      0.00
   -4    0    6      2.77      0.00
   -3    0    6     -5.48      0.00
   -2    0    6     -0.72      0.00
   -1    0    6      3.85      0.00
    0    0    6      0.94      0.00
    1    0    6     -2.67      0.00
    2    0    6     -6.16      0.00
    3    0    6     -2.84      0.00
    4    0    6      5.12      0.00
    5    0    6     -2.39      0.00
    6    0    6     -1.41      0.00
    7    0    6      0.79      0.00
    8    0    6     -0.20      0.00
    9    0    6     -0.31      0.00
   -9    1    6     -0.37      0.00
   -8    1    6     -0.78      0.00
   -7    1    6      0.79      0.00
   -6    1    6     -0.60      0.00
   -5    1    6     -0.92      0.00
   -4    1    6      1.44      0.00
   -3    1    6      1.06      0.00
   -2    1    6     -5.74      0.00
   -1    1    6      2.06      0.00
    0    1    6      3.72      0.00
    1    1    6     -3.35      0.00
    2    1    6      1.22      0.00
    3    1    6     -1.29      0.00
    4    1    6     -0.73      0.00
    5    1    6      2.25      0.00
    6    1    6     -0.89      0.00
    7    1    6     -0.05      0.00
    8    1    6      0.58      0.00
    9    1    6      0.37      0.00
   -9    2    6      0.69      0.00
   -8    2    6      0.20      0.00
   -7    2    6     -0.79      0.00
   -6    2    6     -0.54      0.00
   -5    2    6      0.65      0.00
   -4    2    6      1.42      0.00
   -3    2    6     -0.60      0.00
   -2    2    6     -1.36      0.00
   -1    2    6     -3.09      0.00
    0    2    6      4.64      0.00
    1    2    6     -1.35      0.00
    2    2    6     -5.39      0.00
    3    2    6     -1.22      0.00
    4    2    6      2.11      0.00
    5    2    6     -0.27      0.00
    6    2    6     -0.02      0.00
    7    2    6      0.20      0.00
    8    2    6     -0.03      0.00
    9    2    6     -0.58      0.00
   -9    3    6     -0.98      0.00
   -8    3    6     -0.27      0.00
   -7    3    6      1.60      0.00
   -6    3    6     -1.16      0.00
   -5    3    6     -1.06      0.00
   -4    3    6      2.48      0.00
   -3    3    6      1.79      0.00
   -2    3    6     -4.64      0.00
   -1    3    6      0.76      0.00
    0    3    6      2.06      0.00
    1    3    6     -3.21      0.00
    2    3    6      1.37      0.00
    3    3    6     -1.98      0.00
    4    3    6     -1.61      0.00
    5    3    6      2.85      0.00
    6    3    6     -0.25      0.00
    7    3    6     -0.03      0.00
    8    3    6      1.98      0.00
    9    3    6      0.74      0.00
   -9    4    6      0.42      0.00
   -8    4    6     -0.43      0.00
   -7    4    6     -0.91      0.00
   -6    4    6      0.95      0.00
   -5    4    6     -0.44      0.00
   -4    4    6      0.09      0.00
   -3    4    6      3.97      0.00
   -2    4    6     -0.10      0.00
   -1    4    6     -6.14      0.00
    0    4    6      4.28      0.00
    1    4    6      0.18      0.00
    2    4    6     -3.60      0.00
    3    4    6     -0.65      0.00
    4    4    6     -1.11      0.00
    5    4    6      1.67      0.00
    6    4    6      1.52      0.00
    7    4    6     -0.79      0.00
    8    4    6     -1.07      0.00
    9    4    6      0.32      0.00
   -9    5    6     -0.24      0.00
   -8    5    6     -0.08      0.00
   -7    5    6      0.70      0.00
   -6    5    6     -0.45      0.00
   -5    5    6     -0.46      0.00
   -4    5    6      0.30      0.00
   -3    5    6      1.14      0.00
   -2    5    6      2.90      0.00
   -1    5    6      0.43      0.00
    0    5    6     -2.46      0.00
    1    5    6     -0.38      0.00
    2    5    6      2.41      0.00
    3    5    6     -2.23      0.00
    4    5    6     -1.48      0.00
    5    5    6     -0.68      0.00
    6    5    6      0.69      0.00
    7    5    6      0.72      0.00
    8    5    6      1.26      0.00
   -9    6    6     -0.03      0.00
   -8    6    6     -0.09      0.00
   -7    6    6      0.89      0.00
   -6    6    6     -0.22      0.00
   -5    6    6     -0.49      0.00
   -4    6    6     -0.21      0.00
   -3    6    6      2.80      0.00
   -2    6    6      0.55      0.00
   -1    6    6     -0.41      0.00
    0    6    6      0.83      0.00
    1    6    6      0.38      0.00
    2    6    6     -0.74      0.00
    3    6    6     -0.70      0.00
    4    6    6     -0.99      0.00
    5    6    6      1.60      0.00
    6    6    6     -0.46      0.00
    7    6    6     -1.48      0.00
    8    6    6     -0.74      0.00
   -9    7    6     -0.21      0.00
   -8    7    6     -0.84      0.00
   -7    7    6      0.25      0.00
   -6    7    6      0.06      0.00
   -5    7    6     -0.53      0.00
   -4    7    6     -1.38      0.00
   -3    7    6      1.31      0.00
   -2    7    6      3.90      0.00
   -1    7    6      2.09      0.00
    0    7    6     -1.79      0.00
    1    7    6      1.88      0.00
    2    7    6      1.94      0.00
    3    7    6     -0.73      0.00
    4    7    6     -2.03      0.00
    5    7    6     -2.26      0.00
    6    7    6      1.03      0.00
    7    7    6      0.03      0.00
    8    7    6     -0.29      0.00
   -8    8    6     -0.48      0.00
   -7    8    6      0.16      0.00
   -6    8    6      1.13      0.00
   -5    8    6      0.00      0.00
   -4    8    6     -1.30      0.00
   -3    8    6     -1.34      0.00
   -2    8    6      0.81      0.00
   -1    8    6      5.21      0.00
    0    8    6     -1.91      0.00
    1    8    6      0.96      0.00
    2    8    6      3.00      0.00
    3    8    6     -0.03      0.00
    4    8    6      0.18      0.00
    5    8    6     -1.20      0.00
    6    8    6     -1.91      0.00
    7    8    6     -0.67      0.00
    8    8    6      0.54      0.00
   -8    9    6      0.65      0.00
   -7    9    6     -0.70      0.00
   -6    9    6     -0.02      0.00
   -5    9    6      1.50      0.00
   -4    9    6      0.35      0.00
   -3    9    6      0.51      0.00
   -2    9    6      0.23      0.00
   -1    9    6      1.78      0.00
    0    9    6      0.91      0.00
    1    9    6      1.21      0.00
    2    9    6      0.22      0.00
    3    9    6      1.27      0.00
    4    9    6     -0.83      0.00
    5    9    6     -0.87      0.00
    6    9    6     -0.12      0.00
    7    9    6      0.28      0.00
    8    9    6      0.18      0.00
   -8   10    6     -0.49      0.00
   -7   10    6     -0.14      0.00
   -6   10    6      1.64      0.00
   -5   10    6      0.02      0.00
   -4   10    6     -0.90      0.00
   -3   10    6     -2.98      0.00
   -2   10    6      1.55      0.00
   -1   10    6      3.86      0.00
    0   10    6     -1.68      0.00
    1   10    6      1.41      0.00
    2   10    6      2.72      0.00
    3   10    6     -0.17      0.00
    4   10    6     -0.55      0.00
    5   10    6     -1.60      0.00
    6   10    6      0.19      0.00
    7   10    6     -0.89      0.00
   -7   11    6     -0.53      0.00
   -6   11    6     -0.28      0.00
   -5   11    6      2.14      0.00
   -4   11    6      0.89      0.00
   -3   11    6     -0.96      0.00
   -2   11    6     -0.62      0.00
   -1   11    6      0.05      0.00
    0   11    6      2.25      0.00
    1   11    6     -0.26      0.00
    2   11    6      1.41      0.00
    3   11    6      1.53      0.00
    4   11    6      1.39      0.00
    5   11    6     -0.19      0.00
    6   11    6     -0.59      0.00
    7   11    6      0.70      0.00
   -7   12    6      1.17      0.00
   -6   12    6      0.22      0.00
   -5   12    6     -0.20      0.00
   -4   12    6      0.91      0.00
   -3   12    6     -1.80      0.00
   -2   12    6      1.79      0.00
   -1   12    6      0.75      0.00
    0   12    6     -0.55      0.00
    1   12    6      0.40      0.00
    2   12    6      2.19      0.00
    3   12    6     -0.04      0.00
    4   12    6      0.47      0.00
    5   12    6      1.07      0.00
    6   12    6      1.81      0.00
    7   12    6     -0.29      0.00
   -7   13    6      0.05      0.00
   -6   13    6      1.26      0.00
   -5   13    6      0.69      0.00
   -4   13    6      0.67      0.00
   -3   13    6     -0.10      0.00
   -2   13    6     -1.31      0.00
   -1   13    6      0.11      0.00
    0   13    6      0.71      0.00
    1   13    6     -0.50      0.00
    2   13    6      0.96      0.00
    3   13    6      1.70      0.00
    4   13    6      0.72      0.00
    5   13    6      1.53      0.00
    6   13    6     -0.18      0.00
   -6   14    6      0.40      0.00
   -5   14    6     -0.01      0.00
   -4   14    6     -0.38      0.00
   -3   14    6      1.49      0.00
   -2   14    6      0.06      0.00
   -1   14    6     -0.46      0.00
    0   14    6     -0.02      0.00
    1   14    6     -0.48      0.00
    2   14    6      2.23      0.00
    3   14    6      0.44      0.00
    4   14    6      0.57      0.00
    5   14    6      0.56      0.00
    6   14    6      1.54      0.00
   -6   15    6      1.26      0.00
   -5   15    6      1.64      0.00
   -4   15    6     -0.66      0.00
   -3   15    6      1.13      0.00
   -2   15    6      0.05      0.00
   -1   15    6     -0.51      0.00
    0   15    6      0.18      0.00
    1   15    6     -0.62      0.00
    2   15    6      0.19      0.00
    3   15    6      0.47      0.00
    4   15    6      0.46      0.00
    5   15    6      0.43      0.00
   -5   16    6      0.12      0.00
   -4   16    6     -0.50      0.00
   -3   16    6     -0.67      0.00
   -2   16    6     -1.46      0.00
   -1   16    6     -1.72      0.00
    0   16    6     -0.85      0.00
    1   16    6      0.83      0.00
    2   16    6      0.46      0.00
    3   16    6     -0.48      0.00
    4   16    6     -0.29      0.00
    5   16    6     -1.16      0.00
   -4   17    6     -0.78      0.00
   -3   17    6      1.80      0.00
   -2   17    6      2.32      0.00
   -1   17    6     -1.17      0.00
    0   17    6      1.08      0.00
    1   17    6      0.33      0.00
    2   17    6      2.27      0.00
    3   17    6     -0.40      0.00
    4   17    6      0.44      0.00
   -3   18    6     -3.59      0.00
   -2   18    6      1.26      0.00
   -1   18    6     -1.49      0.00
    0   18    6     -2.01      0.00
    1   18    6      1.98      0.00
    2   18    6      0.37      0.00
    3   18    6     -0.52      0.00
   -2   19    6      0.89      0.00
   -1   19    6      1.01      0.00
    0   19    6      0.12      0.00
    1   19    6     -0.05      0.00
   -9    1    7      0.02      0.00
   -8    1    7      0.19      0.00
   -7    1    7      0.13      0.00
   -6    1    7     -0.58      0.00
   -5    1    7      0.79      0.00
   -4    1    7      0.64      0.00
   -3    1    7     -3.05      0.00
   -2    1    7      1.23      0.00
   -1    1    7      0.89      0.00
    0    1    7      1.50      0.00
    1    1    7      0.17      0.00
    2    1    7     -6.84      0.00
    3    1    7     -1.49      0.00
    4    1    7      3.23      0.00
    5    1    7     -1.92      0.00
    6    1    7      0.05      0.00
    7    1    7      1.61      0.00
    8    1    7     -0.04      0.00
    9    1    7     -0.66      0.00
   -9    2    7     -1.18      0.00
   -8    2    7      0.40      0.00
   -7    2    7      1.18      0.00
   -6    2    7     -0.81      0.00
   -5    2    7     -0.26      0.00
   -4    2    7      2.79      0.00
   -3    2    7     -0.40      0.00
   -2    2    7     -5.01      0.00
   -1    2    7      2.43      0.00
    0    2    7      2.05      0.00
    1    2    7     -2.68      0.00
    2    2    7      2.13      0.00
    3    2    7     -2.29      0.00
    4    2    7      0.09      0.00
    5    2    7      2.24      0.00
    6    2    7     -0.79      0.00
    7    2    7      0.03      0.00
    8    2    7      1.27      0.00
    9    2    7      0.37      0.00
   -9    3    7     -0.07      0.00
   -8    3    7     -0.88      0.00
   -7    3    7     -1.30      0.00
   -6    3    7      0.27      0.00
   -5    3    7     -0.47      0.00
   -4    3    7      0.78      0.00
   -3    3    7      3.22      0.00
   -2    3    7     -0.91      0.00
   -1    3    7     -3.49      0.00
    0    3    7      5.32      0.00
    1    3    7      0.07      0.00
    2    3    7     -4.69      0.00
    3    3    7     -0.48      0.00
    4    3    7     -0.92      0.00
    5    3    7      1.26      0.00
    6    3    7      0.51      0.00
    7    3    7      0.31      0.00
    8    3    7     -0.20      0.00
   -9    4    7     -0.34      0.00
   -8    4    7      1.14      0.00
   -7    4    7      0.27      0.00
   -6    4    7     -0.66      0.00
   -5    4    7     -0.29      0.00
   -4    4    7      0.94      0.00
   -3    4    7      0.56      0.00
   -2    4    7      1.09      0.00
   -1    4    7      0.90      0.00
    0    4    7      0.19      0.00
    1    4    7      0.34      0.00
    2    4    7      2.74      0.00
    3    4    7     -2.02      0.00
    4    4    7     -1.41      0.00
    5    4    7      0.01      0.00
    6    4    7      0.17      0.00
    7    4    7      0.38      0.00
    8    4    7      1.67      0.00
   -9    5    7      0.07      0.00
   -8    5    7      0.15      0.00
   -7    5    7      0.33      0.00
   -6    5    7     -0.79      0.00
   -5    5    7     -0.82      0.00
   -4    5    7      0.85      0.00
   -3    5    7      3.62      0.00
   -2    5    7     -0.80      0.00
   -1    5    7     -1.98      0.00
    0    5    7      1.77      0.00
    1    5    7      0.81      0.00
    2    5    7     -2.40      0.00
    3    5    7     -0.24      0.00
    4    5    7     -1.99      0.00
    5    5    7      1.95      0.00
    6    5    7     -0.01      0.00
    7    5    7     -0.61      0.00
    8    5    7     -0.72      0.00
   -9    6    7      0.38      0.00
   -8    6    7      0.12      0.00
   -7    6    7      0.44      0.00
   -6    6    7     -0.58      0.00
   -5    6    7     -1.45      0.00
   -4    6    7     -2.80      0.00
   -3    6    7      1.00      0.00
   -2    6    7      3.94      0.00
   -1    6    7      2.35      0.00
    0    6    7     -0.55      0.00
    1    6    7      2.66      0.00
    2    6    7      3.33      0.00
    3    6    7     -1.09      0.00
    4    6    7     -2.72      0.00
    5    6    7     -2.43      0.00
    6    6    7      0.94      0.00
    7    6    7      0.66      0.00
    8    6    7     -0.07      0.00
   -8    7    7      0.47      0.00
   -7    7    7      1.58      0.00
   -6    7    7     -0.10      0.00
   -5    7    7     -0.02      0.00
   -4    7    7     -0.31      0.00
   -3    7    7     -0.63      0.00
   -2    7    7     -1.22      0.00
   -1    7    7      2.74      0.00
    0    7    7     -1.97      0.00
    1    7    7      1.08      0.00
    2    7    7      1.57      0.00
    3    7    7      0.08      0.00
    4    7    7      0.17      0.00
    5    7    7      0.20      0.00
    6    7    7     -1.58      0.00
    7    7    7      0.34      0.00
    8    7    7     -0.09      0.00
   -8    8    7      0.51      0.00
   -7    8    7     -0.07      0.00
   -6    8    7      0.26      0.00
   -5    8    7     -0.70      0.00
   -4    8    7     -1.80      0.00
   -3    8    7      1.55      0.00
   -2    8    7      0.14      0.00
   -1    8    7      1.87      0.00
    0    8    7      0.51      0.00
    1    8    7      1.88      0.00
    2    8    7      1.18      0.00
    3    8    7      1.00      0.00
    4    8    7     -2.74      0.00
    5    8    7     -0.84      0.00
    6    8    7      1.13      0.00
    7    8    7      0.23      0.00
    8    8    7      0.03      0.00
   -8    9    7     -0.44      0.00
   -7    9    7      0.84      0.00
   -6    9    7      2.18      0.00
   -5    9    7      0.44      0.00
   -4    9    7     -1.65      0.00
   -3    9    7     -2.73      0.00
   -2    9    7      0.52      0.00
   -1    9    7      3.57      0.00
    0    9    7     -2.20      0.00
    1    9    7      1.52      0.00
    2    9    7      2.46      0.00
    3    9    7      0.40      0.00
    4    9    7      0.17      0.00
    5    9    7     -1.99      0.00
    6    9    7     -0.08      0.00
    7    9    7      0.30      0.00
   -8   10    7      1.38      0.00
   -7   10    7     -2.25      0.00
   -6   10    7      0.41      0.00
   -5   10    7      2.00      0.00
   -4   10    7      0.94      0.00
   -3   10    7      0.59      0.00
   -2   10    7     -0.92      0.00
   -1   10    7      0.68      0.00
    0   10    7      2.36      0.00
    1   10    7     -0.27      0.00
    2   10    7      1.35      0.00
    3   10    7      1.59      0.00
    4   10    7      0.54      0.00
    5   10    7     -0.39      0.00
    6   10    7      0.86      0.00
    7   10    7      1.29      0.00
   -7   11    7      0.70      0.00
   -6   11    7      0.74      0.00
   -5   11    7     -0.10      0.00
   -4   11    7     -0.23      0.00
   -3   11    7     -2.45      0.00
   -2   11    7      1.52      0.00
   -1   11    7      0.03      0.00
    0   11    7      0.00      0.00
    1   11    7      0.88      0.00
    2   11    7      1.02      0.00
    3   11    7      0.22      0.00
    4   11    7      0.14      0.00
    5   11    7     -0.99      0.00
    6   11    7      1.04      0.00
    7   11    7     -0.48      0.00
   -7   12    7     -1.25      0.00
   -6   12    7     -0.42      0.00
   -5   12    7      1.01      0.00
   -4   12    7      1.24      0.00
   -3   12    7     -0.45      0.00
   -2   12    7      0.34      0.00
   -1   12    7     -0.68      0.00
    0   12    7      1.72      0.00
    1   12    7      0.26      0.00
    2   12    7      1.98      0.00
    3   12    7      1.99      0.00
    4   12    7      1.57      0.00
    5   12    7      1.06      0.00
    6   12    7      0.57      0.00
   -7   13    7      0.38      0.00
   -6   13    7      0.16      0.00
   -5   13    7     -1.26      0.00
   -4   13    7     -0.09      0.00
   -3   13    7     -0.10      0.00
   -2   13    7      0.85      0.00
   -1   13    7     -0.53      0.00
    0   13    7     -0.38      0.00
    1   13    7      0.25      0.00
    2   13    7      2.20      0.00
    3   13    7      1.04      0.00
    4   13    7      1.52      0.00
    5   13    7      0.25      0.00
    6   13    7      1.20      0.00
   -6   14    7      0.19      0.00
   -5   14    7      0.81      0.00
   -4   14    7     -0.27      0.00
   -3   14    7     -1.08      0.00
   -2   14    7     -0.84      0.00
   -1   14    7     -0.89      0.00
    0   14    7     -0.91      0.00
    1   14    7     -0.63      0.00
    2   14    7     -0.24      0.00
    3   14    7      1.24      0.00
    4   14    7      0.39      0.00
    5   14    7      2.75      0.00
    6   14    7     -0.19      0.00
   -5   15    7     -1.05      0.00
   -4   15    7     -0.54      0.00
   -3   15    7      1.85      0.00
   -2   15    7     -1.85      0.00
   -1   15    7      0.14      0.00
    0   15    7     -0.66      0.00
    1   15    7      0.90      0.00
    2   15    7      1.44      0.00
    3   15    7      0.85      0.00
    4   15    7      0.26      0.00
    5   15    7     -0.02      0.00
   -5   16    7      0.93      0.00
   -4   16    7     -2.14      0.00
   -3   16    7      0.95      0.00
   -2   16    7      0.76      0.00
   -1   16    7     -1.59      0.00
    0   16    7     -0.08      0.00
    1   16    7     -0.66      0.00
    2   16    7      0.77      0.00
    3   16    7     -0.58      0.00
    4   16    7      0.65      0.00
   -4   17    7     -0.11      0.00
   -3   17    7     -1.68      0.00
   -2   17    7     -0.33      0.00
   -1   17    7     -1.01      0.00
    0   17    7     -1.52      0.00
    1   17    7      1.73      0.00
    2   17    7     -0.08      0.00
    3   17    7     -0.66      0.00
   -3   18    7      1.07      0.00
   -2   18    7      1.38      0.00
   -1   18    7      0.16      0.00
    0   18    7      0.90      0.00
    1   18    7      0.29      0.00
    2   18    7      2.41      0.00
   -1   19    7     -1.79      0.00
    0   19    7     -0.92      0.00
   -9    0    8     -0.19      0.00
   -8    0    8      0.63      0.00
   -7    0    8     -0.23      0.00
   -6    0    8      0.25      0.00
   -5    0    8      0.66      0.00
   -4    0    8     -0.63      0.00
   -3    0    8     -2.88      0.00
   -2    0    8      3.79      0.00
   -1    0    8      0.32      0.00
    0    0    8     -0.48      0.00
    1    0    8      2.55      0.00
    2    0    8     -7.24      0.00
    3    0    8     -0.62      0.00
    4    0    8      2.51      0.00
    5    0    8     -1.95      0.00
    6    0    8      1.90      0.00
    7    0    8      1.84      0.00
    8    0    8     -0.08      0.00
   -9    1    8     -1.04      0.00
   -8    1    8      0.64      0.00
   -7    1    8      0.79      0.00
   -6    1    8     -0.67      0.00
   -5    1    8      0.09      0.00
   -4    1    8      1.83      0.00
   -3    1    8     -1.69      0.00
   -2    1    8     -2.39      0.00
   -1    1    8      2.04      0.00
    0    1    8      0.73      0.00
    1    1    8     -1.09      0.00
    2    1    8      1.43      0.00
    3    1    8     -1.41      0.00
    4    1    8      1.05      0.00
    5    1    8      0.32      0.00
    6    1    8     -0.24      0.00
    7    1    8      0.07      0.00
    8    1    8      0.51      0.00
   -9    2    8     -0.23      0.00
   -8    2    8     -0.51      0.00
   -7    2    8     -0.84      0.00
   -6    2    8      0.08      0.00
   -5    2    8     -0.68      0.00
   -4    2    8      0.16      0.00
   -3    2    8      0.98      0.00
   -2    2    8      0.76      0.00
   -1    2    8     -1.17      0.00
    0    2    8      3.42      0.00
    1    2    8      1.76      0.00
    2    2    8     -4.99      0.00
    3    2    8     -0.19      0.00
    4    2    8      0.36      0.00
    5    2    8      0.18      0.00
    6    2    8      0.78      0.00
    7    2    8      1.15      0.00
    8    2    8      0.15      0.00
   -9    3    8     -0.90      0.00
   -8    3    8      1.65      0.00
   -7    3    8      0.48      0.00
   -6    3    8     -0.49      0.00
   -5    3    8      0.23      0.00
   -4    3    8      2.11      0.00
   -3    3    8     -1.48      0.00
   -2    3    8     -1.02      0.00
   -1    3    8      1.82      0.00
    0    3    8      1.32      0.00
    1    3    8     -0.13      0.00
    2    3    8      2.74      0.00
    3    3    8     -1.85      0.00
    4    3    8      0.19      0.00
    5    3    8     -0.09      0.00
    6    3    8     -0.01      0.00
    7    3    8      0.03      0.00
    8    3    8      1.71      0.00
   -9    4    8     -0.20      0.00
   -8    4    8      0.01      0.00
   -7    4    8     -0.55      0.00
   -6    4    8     -1.03      0.00
   -5    4    8     -1.68      0.00
   -4    4    8      1.13      0.00
   -3    4    8      3.82      0.00
   -2    4    8     -1.39      0.00
   -1    4    8     -2.50      0.00
    0    4    8      3.61      0.00
    1    4    8      1.49      0.00
    2    4    8     -2.70      0.00
    3    4    8      0.49      0.00
    4    4    8     -2.13      0.00
    5    4    8      1.88      0.00
    6    4    8      0.08      0.00
    7    4    8     -0.34      0.00
    8    4    8      0.35      0.00
   -9    5    8      0.67      0.00
   -8    5    8      0.80      0.00
   -7    5    8      0.39      0.00
   -6    5    8     -0.21      0.00
   -5    5    8     -0.79      0.00
   -4    5    8     -1.96      0.00
   -3    5    8      0.22      0.00
   -2    5    8      3.26      0.00
   -1    5    8      1.74      0.00
    0    5    8      0.59      0.00
    1    5    8      2.88      0.00
    2    5    8      3.52      0.00
    3    5    8     -0.83      0.00
    4    5    8     -2.12      0.00
    5    5    8     -2.25      0.00
    6    5    8      0.96      0.00
    7    5    8      0.61      0.00
    8    5    8      0.37      0.00
   -8    6    8      1.56      0.00
   -7    6    8      1.17      0.00
   -6    6    8     -1.18      0.00
   -5    6    8     -0.24      0.00
   -4    6    8      1.03      0.00
   -3    6    8      0.38      0.00
   -2    6    8     -2.18      0.00
   -1    6    8     -0.10      0.00
    0    6    8     -1.68      0.00
    1    6    8      0.91      0.00
    2    6    8     -0.03      0.00
    3    6    8      0.26      0.00
    4    6    8     -0.27      0.00
    5    6    8      0.82      0.00
    6    6    8     -0.98      0.00
    7    6    8      0.75      0.00
    8    6    8      0.13      0.00
   -8    7    8      0.38      0.00
   -7    7    8      1.33      0.00
   -6    7    8     -0.32      0.00
   -5    7    8     -2.02      0.00
   -4    7    8     -3.19      0.00
   -3    7    8      1.49      0.00
   -2    7    8      0.72      0.00
   -1    7    8      1.96      0.00
    0    7    8      0.58      0.00
    1    7    8      2.95      0.00
    2    7    8      2.56      0.00
    3    7    8      0.43      0.00
    4    7    8     -3.43      0.00
    5    7    8     -0.92      0.00
    6    7    8      1.05      0.00
    7    7    8      0.30      0.00
    8    7    8     -0.16      0.00
   -8    8    8     -0.07      0.00
   -7    8    8      2.32      0.00
   -6    8    8      0.99      0.00
   -5    8    8      1.08      0.00
   -4    8    8     -0.86      0.00
   -3    8    8     -1.81      0.00
   -2    8    8     -0.77      0.00
   -1    8    8      2.59      0.00
    0    8    8     -3.11      0.00
    1    8    8      0.82      0.00
    2    8    8      2.29      0.00
    3    8    8      0.91      0.00
    4    8    8      1.05      0.00
    5    8    8     -0.94      0.00
    6    8    8     -0.47      0.00
    7    8    8      1.25      0.00
   -8    9    8      0.78      0.00
   -7    9    8     -1.30      0.00
   -6    9    8      1.12      0.00
   -5    9    8     -0.44      0.00
   -4    9    8      0.34      0.00
   -3    9    8      2.01      0.00
   -2    9    8     -1.95      0.00
   -1    9    8      1.26      0.00
    0    9    8      1.50      0.00
    1    9    8      0.29      0.00
    2    9    8      1.12      0.00
    3    9    8      0.65      0.00
    4    9    8     -1.39      0.00
    5    9    8      0.37      0.00
    6    9    8      1.08      0.00
    7    9    8      0.66      0.00
   -8   10    8     -0.11      0.00
   -7   10    8      1.27      0.00
   -6   10    8      1.10      0.00
   -5   10    8      0.49      0.00
   -4   10    8     -1.66      0.00
   -3   10    8     -1.01      0.00
   -2   10    8      1.07      0.00
   -1   10    8      0.84      0.00
    0   10    8      0.04      0.00
    1   10    8      0.52      0.00
    2   10    8      0.93      0.00
    3   10    8      1.19      0.00
    4   10    8     -0.36      0.00
    5   10    8     -1.71      0.00
    6   10    8      0.41      0.00
    7   10    8     -0.15      0.00
   -7   11    8     -2.61      0.00
   -6   11    8      0.01      0.00
   -5   11    8      0.60      0.00
   -4   11    8      1.76      0.00
   -3   11    8      1.03      0.00
   -2   11    8      0.80      0.00
   -1   11    8     -0.37      0.00
    0   11    8      2.35      0.00
    1   11    8      0.51      0.00
    2   11    8      1.85      0.00
    3   11    8      0.95      0.00
    4   11    8      1.73      0.00
    5   11    8      0.32      0.00
    6   11    8      1.29      0.00
    7   11    8      0.87      0.00
   -7   12    8      0.39      0.00
   -6   12    8     -0.07      0.00
   -5   12    8     -1.51      0.00
   -4   12    8     -0.95      0.00
   -3   12    8     -1.23      0.00
   -2   12    8      0.96      0.00
   -1   12    8     -1.12      0.00
    0   12    8     -0.03      0.00
    1   12    8     -0.29      0.00
    2   12    8      1.18      0.00
    3   12    8      0.94      0.00
    4   12    8      0.83      0.00
    5   12    8     -1.48      0.00
    6   12    8     -0.09      0.00
   -6   13    8     -1.37      0.00
   -5   13    8      0.05      0.00
   -4   13    8      0.70      0.00
   -3   13    8     -1.46      0.00
   -2   13    8      0.48      0.00
   -1   13    8     -1.63      0.00
    0   13    8      0.12      0.00
    1   13    8      0.68      0.00
    2   13    8      0.39      0.00
    3   13    8      1.69      0.00
    4   13    8      1.55      0.00
    5   13    8      3.80      0.00
    6   13    8      0.12      0.00
   -6   14    8      0.62      0.00
   -5   14    8     -2.57      0.00
   -4   14    8     -0.42      0.00
   -3   14    8      1.10      0.00
   -2   14    8     -1.28      0.00
   -1   14    8      0.23      0.00
    0   14    8     -1.81      0.00
    1   14    8      0.78      0.00
    2   14    8      1.91      0.00
    3   14    8      2.06      0.00
    4   14    8      0.94      0.00
    5   14    8     -0.24      0.00
   -5   15    8      0.74      0.00
   -4   15    8     -2.27      0.00
   -3   15    8     -0.99      0.00
   -2   15    8     -0.41      0.00
   -1   15    8     -1.44      0.00
    0   15    8     -1.85      0.00
    1   15    8     -0.84      0.00
    2   15    8     -0.97      0.00
    3   15    8     -0.06      0.00
    4   15    8      1.16      0.00
    5   15    8      3.45      0.00
   -5   16    8     -0.61      0.00
   -4   16    8      0.19      0.00
   -3   16    8      0.39      0.00
   -2   16    8     -1.83      0.00
   -1   16    8      1.21      0.00
    0   16    8     -1.71      0.00
    1   16    8      1.76      0.00
    2   16    8      0.29      0.00
    3   16    8      1.07      0.00
    4   16    8     -0.08      0.00
   -4   17    8     -2.10      0.00
   -3   17    8      1.69      0.00
   -2   17    8     -0.01      0.00
   -1   17    8      0.14      0.00
    0   17    8     -0.09      0.00
    1   17    8      0.15      0.00
    2   17    8      1.62      0.00
    3   17    8     -0.96      0.00
   -2   18    8      0.74      0.00
   -1   18    8     -0.97      0.00
    0   18    8     -0.99      0.00
    1   18    8      0.98      0.00
    2   18    8     -0.31      0.00
   -9    1    9      0.34      0.00
   -8    1    9     -0.07      0.00
   -7    1    9     -0.58      0.00
   -6    1    9      0.39      0.00
   -5    1    9     -0.07      0.00
   -4    1    9     -0.90      0.00
   -3    1    9     -0.56      0.00
   -2    1    9      3.46      0.00
   -1    1    9     -0.62      0.00
    0    1    9      1.29      0.00
    1    1    9      2.70      0.00
    2    1    9     -4.38      0.00
    3    1    9     -0.08      0.00
    4    1    9      0.61      0.00
    5    1    9     -0.75      0.00
    6    1    9      2.43      0.00
    7    1    9      1.11      0.00
    8    1    9      0.43      0.00
   -9    2    9     -1.21      0.00
   -8    2    9      1.68      0.00
   -7    2    9      0.97      0.00
   -6    2    9     -1.21      0.00
   -5    2    9      0.29      0.00
   -4    2    9      1.83      0.00
   -3    2    9     -3.71      0.00
   -2    2    9     -1.23      0.00
   -1    2    9      2.51      0.00
    0    2    9      1.26      0.00
    1    2    9     -0.12      0.00
    2    2    9      2.03      0.00
    3    2    9     -0.77      0.00
    4    2    9      1.67      0.00
    5    2    9     -1.34      0.00
    6    2    9      0.28      0.00
    7    2    9     -0.16      0.00
    8    2    9      1.26      0.00
   -9    3    9      0.18      0.00
   -8    3    9     -0.28      0.00
   -7    3    9      0.28      0.00
   -6    3    9     -1.13      0.00
   -5    3    9     -2.27      0.00
   -4    3    9      0.76      0.00
   -3    3    9      2.44      0.00
   -2    3    9     -1.03      0.00
   -1    3    9     -1.79      0.00
    0    3    9      4.60      0.00
    1    3    9      1.91      0.00
    2    3    9     -1.40      0.00
    3    3    9      0.73      0.00
    4    3    9     -0.91      0.00
    5    3    9      1.19      0.00
    6    3    9      0.10      0.00
    7    3    9     -0.26      0.00
    8    3    9      0.97      0.00
   -9    4    9      0.30      0.00
   -8    4    9      0.56      0.00
   -7    4    9      0.65      0.00
   -6    4    9      0.40      0.00
   -5    4    9      0.18      0.00
   -4    4    9     -0.32      0.00
   -3    4    9     -1.33      0.00
   -2    4    9      1.36      0.00
   -1    4    9      1.05      0.00
    0    4    9      1.06      0.00
    1    4    9      1.46      0.00
    2    4    9      2.41      0.00
    3    4    9      0.09      0.00
    4    4    9     -0.52      0.00
    5    4    9     -2.08      0.00
    6    4    9      0.88      0.00
    7    4    9      0.01      0.00
    8    4    9      1.14      0.00
   -8    5    9      1.72      0.00
   -7    5    9      0.19      0.00
   -6    5    9     -1.44      0.00
   -5    5    9     -1.41      0.00
   -4    5    9      1.63      0.00
   -3    5    9      1.31      0.00
   -2    5    9     -2.22      0.00
   -1    5    9     -1.94      0.00
    0    5    9      0.82      0.00
    1    5    9      1.07      0.00
    2    5    9     -0.36      0.00
    3    5    9      0.74      0.00
    4    5    9     -0.40      0.00
    5    5    9      1.02      0.00
    6    5    9     -0.49      0.00
    7    5    9     -0.16      0.00
    8    5    9      1.23      0.00
   -8    6    9     -0.26      0.00
   -7    6    9      1.94      0.00
   -6    6    9     -0.04      0.00
   -5    6    9     -0.90      0.00
   -4    6    9     -2.96      0.00
   -3    6    9      0.90      0.00
   -2    6    9      1.52      0.00
   -1    6    9      1.06      0.00
    0    6    9      0.46      0.00
    1    6    9      2.98      0.00
    2    6    9      2.78      0.00
    3    6    9      0.64      0.00
    4    6    9     -2.43      0.00
    5    6    9     -1.59      0.00
    6    6    9      1.02      0.00
    7    6    9      0.07      0.00
    8    6    9     -0.28      0.00
   -8    7    9      0.78      0.00
   -7    7    9      1.63      0.00
   -6    7    9     -0.19      0.00
   -5    7    9      1.20      0.00
   -4    7    9      0.73      0.00
   -3    7    9     -1.03      0.00
   -2    7    9     -1.10      0.00
   -1    7    9      0.73      0.00
    0    7    9     -3.24      0.00
    1    7    9      0.02      0.00
    2    7    9      1.62      0.00
    3    7    9      0.57      0.00
    4    7    9      1.81      0.00
    5    7    9     -0.29      0.00
    6    7    9     -0.61      0.00
    7    7    9      1.47      0.00
   -8    8    9      0.31      0.00
   -7    8    9      1.20      0.00
   -6    8    9      0.35      0.00
   -5    8    9     -1.73      0.00
   -4    8    9     -0.75      0.00
   -3    8    9      1.68      0.00
   -2    8    9     -1.95      0.00
   -1    8    9      1.64      0.00
    0    8    9      0.80      0.00
    1    8    9      1.53      0.00
    2    8    9      1.89      0.00
    3    8    9      0.01      0.00
    4    8    9     -2.14      0.00
    5    8    9      0.64      0.00
    6    8    9      0.00      0.00
    7    8    9     -0.13      0.00
   -8    9    9     -0.80      0.00
   -7    9    9      2.48      0.00
   -6    9    9      0.41      0.00
   -5    9    9      1.44      0.00
   -4    9    9     -1.36      0.00
   -3    9    9      0.61      0.00
   -2    9    9      0.45      0.00
   -1    9    9      1.34      0.00
    0    9    9     -1.05      0.00
    1    9    9     -0.26      0.00
    2    9    9      1.70      0.00
    3    9    9      2.12      0.00
    4    9    9      0.18      0.00
    5    9    9     -0.48      0.00
    6    9    9     -0.11      0.00
    7    9    9      0.07      0.00
   -7   10    9     -1.38      0.00
   -6   10    9      1.09      0.00
   -5   10    9     -0.86      0.00
   -4   10    9      1.73      0.00
   -3   10    9      1.78      0.00
   -2   10    9     -0.50      0.00
   -1   10    9      0.71      0.00
    0   10    9      1.21      0.00
    1   10    9      0.58      0.00
    2   10    9      0.79      0.00
    3   10    9     -0.74      0.00
    4   10    9      0.62      0.00
    5   10    9     -0.17      0.00
    6   10    9      0.81      0.00
    7   10    9      0.22      0.00
   -7   11    9      0.72      0.00
   -6   11    9      0.02      0.00
   -5   11    9     -0.80      0.00
   -4   11    9     -1.74      0.00
   -3   11    9     -0.04      0.00
   -2   11    9      0.38      0.00
   -1   11    9     -0.56      0.00
    0   11    9      0.26      0.00
    1   11    9     -1.10      0.00
    2   11    9      0.91      0.00
    3   11    9      1.54      0.00
    4   11    9     -0.39      0.00
    5   11    9     -1.54      0.00
    6   11    9     -0.72      0.00
   -7   12    9     -0.56      0.00
   -6   12    9     -1.15      0.00
   -5   12    9     -0.25      0.00
   -4   12    9      1.66      0.00
   -3   12    9     -0.11      0.00
   -2   12    9      1.37      0.00
   -1   12    9     -1.74      0.00
    0   12    9      0.97      0.00
    1   12    9      1.36      0.00
    2   12    9      0.40      0.00
    3   12    9      0.82      0.00
    4   12    9      2.56      0.00
    5   12    9      2.11      0.00
    6   12    9      0.53      0.00
   -6   13    9      0.79      0.00
   -5   13    9     -3.06      0.00
   -4   13    9     -0.49      0.00
   -3   13    9     -0.64      0.00
   -2   13    9     -0.43      0.00
   -1   13    9     -0.95      0.00
    0   13    9     -2.47      0.00
    1   13    9     -0.43      0.00
    2   13    9      1.79      0.00
    3   13    9      1.56      0.00
    4   13    9      0.80      0.00
    5   13    9     -1.35      0.00
   -6   14    9     -1.37      0.00
   -5   14    9      0.27      0.00
   -4   14    9     -0.74      0.00
   -3   14    9     -2.13      0.00
   -2   14    9      0.24      0.00
   -1   14    9     -1.74      0.00
    0   14    9     -1.32      0.00
    1   14    9     -0.12      0.00
    2   14    9     -1.07      0.00
    3   14    9      1.13      0.00
    4   14    9      2.52      0.00
    5   14    9      5.14      0.00
   -5   15    9     -1.83      0.00
   -4   15    9      0.88      0.00
   -3   15    9      0.08      0.00
   -2   15    9     -1.73      0.00
   -1   15    9      1.07      0.00
    0   15    9     -2.64      0.00
    1   15    9      1.59      0.00
    2   15    9      0.86      0.00
    3   15    9      2.64      0.00
    4   15    9     -0.22      0.00
   -4   16    9     -2.39      0.00
   -3   16    9      0.57      0.00
   -2   16    9     -0.19      0.00
   -1   16    9      0.50      0.00
    0   16    9     -1.81      0.00
    1   16    9      0.04      0.00
    2   16    9     -0.34      0.00
    3   16    9     -0.78      0.00
    4   16    9      2.30      0.00
   -3   17    9     -1.01      0.00
   -2   17    9     -0.09      0.00
   -1   17    9      1.24      0.00
    0   17    9     -1.43      0.00
    1   17    9      0.85      0.00
    2   17    9     -0.08      0.00
    3   17    9      0.86      0.00
   -2   18    9     -0.83      0.00
   -1   18    9      2.04      0.00
    0   18    9     -0.32      0.00
    1   18    9      1.33      0.00
   -9    0   10      1.11      0.00
   -8    0   10     -0.74      0.00
   -7    0   10     -0.74      0.00
   -6    0   10      1.34      0.00
   -5    0   10      0.57      0.00
   -4    0   10     -1.86      0.00
   -3    0   10     -0.02      0.00
   -2    0   10      4.14      0.00
   -1    0   10     -0.26      0.00
    0    0   10      1.26      0.00
    1    0   10      2.10      0.00
    2    0   10     -1.81      0.00
    3    0   10     -0.32      0.00
    4    0   10     -0.28      0.00
    5    0   10     -1.04      0.00
    6    0   10      2.77      0.00
    7    0   10      0.84      0.00
    8    0   10      1.12      0.00
   -9    1   10     -0.61      0.00
   -8    1   10      1.48      0.00
   -7    1   10      0.70      0.00
   -6    1   10     -1.40      0.00
   -5    1   10      0.37      0.00
   -4    1   10      0.28      0.00
   -3    1   10     -3.19      0.00
   -2    1   10     -0.08      0.00
   -1    1   10      1.68      0.00
    0    1   10      0.91      0.00
    1    1   10      0.18      0.00
    2    1   10      0.87      0.00
    3    1   10      0.50      0.00
    4    1   10      1.33      0.00
    5    1   10     -1.47      0.00
    6    1   10      0.43      0.00
    7    1   10     -0.49      0.00
    8    1   10      0.49      0.00
   -9    2   10      0.91      0.00
   -8    2   10     -0.70      0.00
   -7    2   10      1.46      0.00
   -6    2   10     -0.72      0.00
   -5    2   10     -1.24      0.00
   -4    2   10     -0.19      0.00
   -3    2   10      0.70      0.00
   -2    2   10      0.52      0.00
   -1    2   10     -0.77      0.00
    0    2   10      3.49      0.00
    1    2   10      1.54      0.00
    2    2   10      0.01      0.00
    3    2   10      0.12      0.00
    4    2   10     -0.28      0.00
    5    2   10     -0.33      0.00
    6    2   10      0.69      0.00
    7    2   10      0.10      0.00
    8    2   10      0.94      0.00
   -8    3   10      0.51      0.00
   -7    3   10      1.03      0.00
   -6    3   10     -0.37      0.00
   -5    3   10      0.42      0.00
   -4    3   10     -0.19      0.00
   -3    3   10     -3.39      0.00
   -2    3   10      0.35      0.00
   -1    3   10      1.35      0.00
    0    3   10      1.37      0.00
    1    3   10      0.20      0.00
    2    3   10      1.25      0.00
    3    3   10      1.77      0.00
    4    3   10      1.18      0.00
    5    3   10     -2.24      0.00
    6    3   10      0.67      0.00
    7    3   10     -0.55      0.00
    8    3   10      1.21      0.00
   -8    4   10      0.93      0.00
   -7    4   10      1.64      0.00
   -6    4   10     -1.85      0.00
   -5    4   10     -2.11      0.00
   -4    4   10      1.72      0.00
   -3    4   10      0.91      0.00
   -2    4   10     -2.38      0.00
   -1    4   10     -1.82      0.00
    0    4   10      3.27      0.00
    1    4   10      1.02      0.00
    2    4   10      0.66      0.00
    3    4   10      0.89      0.00
    4    4   10     -0.05      0.00
    5    4   10      0.73      0.00
    6    4   10     -0.86      0.00
    7    4   10     -0.94      0.00
    8    4   10      1.61      0.00
   -8    5   10     -2.02      0.00
   -7    5   10      1.50      0.00
   -6    5   10      0.93      0.00
   -5    5   10      0.30      0.00
   -4    5   10     -1.92      0.00
   -3    5   10      0.54      0.00
   -2    5   10      1.13      0.00
   -1    5   10     -0.34      0.00
    0    5   10      0.23      0.00
    1    5   10      1.20      0.00
    2    5   10      1.37      0.00
    3    5   10      2.05      0.00
    4    5   10     -0.91      0.00
    5    5   10     -1.67      0.00
    6    5   10      1.13      0.00
    7    5   10     -0.53      0.00
    8    5   10      0.16      0.00
   -8    6   10      1.21      0.00
   -7    6   10     -0.05      0.00
   -6    6   10     -0.25      0.00
   -5    6   10      0.18      0.00
   -4    6   10      1.67      0.00
   -3    6   10     -0.47      0.00
   -2    6   10     -0.66      0.00
   -1    6   10     -0.50      0.00
    0    6   10     -1.14      0.00
    1    6   10      0.35      0.00
    2    6   10      0.76      0.00
    3    6   10      0.25      0.00
    4    6   10      1.84      0.00
    5    6   10     -0.10      0.00
    6    6   10     -0.17      0.00
    7    6   10      0.65      0.00
   -8    7   10     -0.62      0.00
   -7    7   10      2.00      0.00
   -6    7   10     -0.13      0.00
   -5    7   10     -0.53      0.00
   -4    7   10     -1.74      0.00
   -3    7   10      1.03      0.00
   -2    7   10     -0.85      0.00
   -1    7   10      0.71      0.00
    0    7   10      0.02      0.00
    1    7   10      1.99      0.00
    2    7   10      2.43      0.00
    3    7   10      0.57      0.00
    4    7   10     -1.36      0.00
    5    7   10     -0.21      0.00
    6    7   10     -0.39      0.00
    7    7   10     -0.41      0.00
   -8    8   10     -0.83      0.00
   -7    8   10      1.77      0.00
   -6    8   10     -0.21      0.00
   -5    8   10      1.89      0.00
   -4    8   10     -0.05      0.00
   -3    8   10      0.73      0.00
   -2    8   10      0.61      0.00
   -1    8   10      1.11      0.00
    0    8   10     -1.86      0.00
    1    8   10     -0.81      0.00
    2    8   10      2.03      0.00
    3    8   10      1.34      0.00
    4    8   10      1.45      0.00
    5    8   10      0.32      0.00
    6    8   10     -0.34      0.00
    7    8   10      0.38      0.00
   -7    9   10      0.91      0.00
   -6    9   10      0.76      0.00
   -5    9   10     -1.33      0.00
   -4    9   10      0.33      0.00
   -3    9   10      0.48      0.00
   -2    9   10     -1.75      0.00
   -1    9   10      1.48      0.00
    0    9   10     -0.15      0.00
    1    9   10      1.04      0.00
    2    9   10      1.05      0.00
    3    9   10     -1.20      0.00
    4    9   10     -0.37      0.00
    5    9   10     -0.08      0.00
    6    9   10     -0.61      0.00
    7    9   10     -0.34      0.00
   -7   10   10      1.68      0.00
   -6   10   10     -0.33      0.00
   -5   10   10      0.55      0.00
   -4   10   10     -1.08      0.00
   -3   10   10      1.68      0.00
   -2   10   10     -0.60      0.00
   -1   10   10      0.17      0.00
    0   10   10     -0.29      0.00
    1   10   10     -1.81      0.00
    2   10   10      1.49      0.00
    3   10   10      2.69      0.00
    4   10   10     -0.70      0.00
    5   10   10      0.45      0.00
    6   10   10     -0.66      0.00
   -7   11   10      0.69      0.00
   -6   11   10      0.16      0.00
   -5   11   10     -0.37      0.00
   -4   11   10      1.27      0.00
   -3   11   10      0.86      0.00
   -2   11   10      0.63      0.00
   -1   11   10     -0.86      0.00
    0   11   10     -0.10      0.00
    1   11   10      1.19      0.00
    2   11   10     -0.89      0.00
    3   11   10     -0.49      0.00
    4   11   10      1.65      0.00
    5   11   10     -0.47      0.00
    6   11   10      0.58      0.00
   -6   12   10      1.01      0.00
   -5   12   10     -2.27      0.00
   -4   12   10     -0.21      0.00
   -3   12   10     -0.79      0.00
   -2   12   10     -0.36      0.00
   -1   12   10     -1.07      0.00
    0   12   10     -2.39      0.00
    1   12   10     -1.43      0.00
    2   12   10      1.72      0.00
    3   12   10      1.30      0.00
    4   12   10      0.49      0.00
    5   12   10     -1.08      0.00
    6   12   10     -0.86      0.00
   -6   13   10     -1.33      0.00
   -5   13   10      0.57      0.00
   -4   13   10      0.77      0.00
   -3   13   10     -1.35      0.00
   -2   13   10      0.94      0.00
   -1   13   10     -1.88      0.00
    0   13   10     -0.22      0.00
    1   13   10      0.22      0.00
    2   13   10     -0.85      0.00
    3   13   10      1.41      0.00
    4   13   10      3.08      0.00
    5   13   10      3.18      0.00
   -5   14   10     -2.60      0.00
   -4   14   10      1.53      0.00
   -3   14   10     -1.17      0.00
   -2   14   10     -0.41      0.00
   -1   14   10     -0.75      0.00
    0   14   10     -2.84      0.00
    1   14   10      0.67      0.00
    2   14   10      1.48      0.00
    3   14   10      2.05      0.00
    4   14   10      0.00      0.00
    5   14   10     -0.09      0.00
   -5   15   10     -0.18      0.00
   -4   15   10     -1.35      0.00
   -3   15   10     -1.20      0.00
   -2   15   10      1.09      0.00
   -1   15   10     -0.13      0.00
    0   15   10     -1.61      0.00
    1   15   10     -0.35      0.00
    2   15   10     -0.93      0.00
    3   15   10      0.64      0.00
    4   15   10      3.06      0.00
   -4   16   10      1.07      0.00
   -3   16   10     -2.12      0.00
   -2   16   10     -0.04      0.00
   -1   16   10      1.18      0.00
    0   16   10     -1.36      0.00
    1   16   10      1.06      0.00
    2   16   10      0.28      0.00
    3   16   10      1.84      0.00
   -3   17   10      0.91      0.00
   -2   17   10      0.09      0.00
   -1   17   10      2.36      0.00
    0   17   10     -1.12      0.00
    1   17   10      1.39      0.00
    2   17   10      0.22      0.00
   -8    1   11     -1.20      0.00
   -7    1   11      0.76      0.00
   -6    1   11      2.59      0.00
   -5    1   11      0.11      0.00
   -4    1   11     -1.59      0.00
   -3    1   11      0.81      0.00
   -2    1   11      1.89      0.00
   -1    1   11     -0.05      0.00
    0    1   11      1.89      0.00
    1    1   11      1.43      0.00
    2    1   11      1.26      0.00
    3    1   11     -0.49      0.00
    4    1   11     -0.45      0.00
    5    1   11     -1.41      0.00
    6    1   11      1.05      0.00
    7    1   11      0.59      0.00
    8    1   11      1.01      0.00
   -8    2   11      1.65      0.00
   -7    2   11      0.64      0.00
   -6    2   11     -1.08      0.00
   -5    2   11      1.07      0.00
   -4    2   11     -1.38      0.00
   -3    2   11     -3.93      0.00
   -2    2   11      0.97      0.00
   -1    2   11      1.53      0.00
    0    2   11      1.53      0.00
    1    2   11     -0.46      0.00
    2    2   11      0.46      0.00
    3    2   11      2.42      0.00
    4    2   11      1.36      0.00
    5    2   11     -2.08      0.00
    6    2   11      0.59      0.00
    7    2   11     -1.32      0.00
    8    2   11      0.32      0.00
   -8    3   11      0.10      0.00
   -7    3   11      3.60      0.00
   -6    3   11     -2.03      0.00
   -5    3   11     -1.23      0.00
   -4    3   11      1.35      0.00
   -3    3   11     -0.27      0.00
   -2    3   11     -1.98      0.00
   -1    3   11     -1.11      0.00
    0    3   11      3.07      0.00
    1    3   11      0.77      0.00
    2    3   11      1.61      0.00
    3    3   11      0.27      0.00
    4    3   11      0.00      0.00
    5    3   11     -0.63      0.00
    6    3   11     -1.11      0.00
    7    3   11     -0.44      0.00
   -8    4   11     -2.93      0.00
   -7    4   11      0.89      0.00
   -6    4   11      1.04      0.00
   -5    4   11      0.19      0.00
   -4    4   11     -1.70      0.00
   -3    4   11     -0.29      0.00
   -2    4   11      0.67      0.00
   -1    4   11     -0.32      0.00
    0    4   11      0.89      0.00
    1    4   11     -0.84      0.00
    2    4   11      0.33      0.00
    3    4   11      3.82      0.00
    4    4   11      0.46      0.00
    5    4   11     -0.87      0.00
    6    4   11      0.99      0.00
    7    4   11     -0.97      0.00
   -8    5   11      0.98      0.00
   -7    5   11      0.43      0.00
   -6    5   11     -0.67      0.00
   -5    5   11     -0.48      0.00
   -4    5   11      2.04      0.00
   -3    5   11     -0.81      0.00
   -2    5   11     -1.09      0.00
   -1    5   11     -0.90      0.00
    0    5   11      1.15      0.00
    1    5   11      1.06      0.00
    2    5   11      0.00      0.00
    3    5   11      0.42      0.00
    4    5   11      0.91      0.00
    5    5   11      0.13      0.00
    6    5   11     -0.21      0.00
    7    5   11     -0.08      0.00
   -8    6   11     -3.00      0.00
   -7    6   11      0.78      0.00
   -6    6   11      0.36      0.00
   -5    6   11      0.27      0.00
   -4    6   11     -1.83      0.00
   -3    6   11      1.70      0.00
   -2    6   11     -0.05      0.00
   -1    6   11     -0.74      0.00
    0    6   11     -0.37      0.00
    1    6   11      0.88      0.00
    2    6   11      1.52      0.00
    3    6   11      2.20      0.00
    4    6   11     -0.37      0.00
    5    6   11     -0.30      0.00
    6    6   11      0.47      0.00
    7    6   11     -0.65      0.00
   -8    7   11     -0.34      0.00
   -7    7   11     -0.56      0.00
   -6    7   11      0.49      0.00
   -5    7   11      1.06      0.00
   -4    7   11      0.55      0.00
   -3    7   11     -0.30      0.00
   -2    7   11      1.26      0.00
   -1    7   11      0.77      0.00
    0    7   11     -1.13      0.00
    1    7   11      0.11      0.00
    2    7   11      1.04      0.00
    3    7   11     -0.28      0.00
    4    7   11      1.81      0.00
    5    7   11      0.08      0.00
    6    7   11      0.69      0.00
    7    7   11      0.73      0.00
   -7    8   11      0.96      0.00
   -6    8   11      0.09      0.00
   -5    8   11     -0.33      0.00
   -4    8   11     -1.42      0.00
   -3    8   11     -0.53      0.00
   -2    8   11     -1.51      0.00
   -1    8   11      0.81      0.00
    0    8   11     -1.11      0.00
    1    8   11      1.37      0.00
    2    8   11      2.21      0.00
    3    8   11     -0.35      0.00
    4    8   11     -0.25      0.00
    5    8   11     -0.15      0.00
    6    8   11     -1.26      0.00
    7    8   11     -0.01      0.00
   -7    9   11      1.45      0.00
   -6    9   11     -0.66      0.00
   -5    9   11      1.42      0.00
   -4    9   11     -0.15      0.00
   -3    9   11      1.42      0.00
   -2    9   11     -0.58      0.00
   -1    9   11      0.81      0.00
    0    9   11     -1.02      0.00
    1    9   11     -2.20      0.00
    2    9   11      2.15      0.00
    3    9   11      1.69      0.00
    4    9   11     -0.02      0.00
    5    9   11      1.61      0.00
    6    9   11     -0.40      0.00
   -7   10   11      1.81      0.00
   -6   10   11      0.63      0.00
   -5   10   11     -0.28      0.00
   -4   10   11     -0.73      0.00
   -3   10   11      0.20      0.00
   -2   10   11     -0.77      0.00
   -1   10   11      0.11      0.00
    0   10   11     -1.37      0.00
    1   10   11      0.82      0.00
    2   10   11     -0.75      0.00
    3   10   11     -0.56      0.00
    4   10   11      0.03      0.00
    5   10   11     -0.90      0.00
    6   10   11      0.02      0.00
   -6   11   11      0.71      0.00
   -5   11   11     -0.57      0.00
   -4   11   11      0.76      0.00
   -3   11   11      0.25      0.00
   -2   11   11     -1.13      0.00
   -1   11   11     -0.12      0.00
    0   11   11     -2.15      0.00
    1   11   11     -2.15      0.00
    2   11   11      1.75      0.00
    3   11   11      2.04      0.00
    4   11   11      0.06      0.00
    5   11   11      0.70      0.00
    6   11   11     -0.36      0.00
   -6   12   11     -0.39      0.00
   -5   12   11      1.10      0.00
   -4   12   11      0.38      0.00
   -3   12   11      0.66      0.00
   -2   12   11      0.70      0.00
   -1   12   11     -1.30      0.00
    0   12   11     -0.39      0.00
    1   12   11      0.26      0.00
    2   12   11     -1.86      0.00
    3   12   11      0.99      0.00
    4   12   11      1.35      0.00
    5   12   11     -0.09      0.00
   -6   13   11      1.73      0.00
   -5   13   11     -2.43      0.00
   -4   13   11      1.92      0.00
   -3   13   11     -1.51      0.00
   -2   13   11      0.74      0.00
   -1   13   11     -1.07      0.00
    0   13   11     -2.73      0.00
    1   13   11      0.08      0.00
    2   13   11      1.78      0.00
    3   13   11      0.98      0.00
    4   13   11      0.99      0.00
    5   13   11     -0.16      0.00
   -5   14   11      0.52      0.00
   -4   14   11     -0.35      0.00
   -3   14   11     -1.36      0.00
   -2   14   11      1.64      0.00
   -1   14   11     -0.66      0.00
    0   14   11     -0.37      0.00
    1   14   11     -1.09      0.00
    2   14   11     -0.61      0.00
    3   14   11      1.13      0.00
    4   14   11      2.38      0.00
   -4   15   11      1.68      0.00
   -3   15   11     -2.63      0.00
   -2   15   11      0.67      0.00
   -1   15   11     -0.67      0.00
    0   15   11     -0.22      0.00
    1   15   11      0.90      0.00
    2   15   11      0.93      0.00
    3   15   11      1.42      0.00
   -3   16   11     -0.39      0.00
   -2   16   11      2.04      0.00
   -1   16   11      0.58      0.00
    0   16   11     -1.05      0.00
    1   16   11      0.39      0.00
    2   16   11     -0.51      0.00
   -2   17   11      1.27      0.00
   -1   17   11      1.10      0.00
    0   17   11     -0.33      0.00
    1   17   11     -0.14      0.00
   -8    0   12     -0.94      0.00
   -7    0   12      0.17      0.00
   -6    0   12      8.74      0.00
   -5    0   12      0.13      0.00
   -4    0   12     -1.72      0.00
   -3    0   12      1.87      0.00
   -2    0   12      1.42      0.00
   -1    0   12     -0.18      0.00
    0    0   12      0.74      0.00
    1    0   12      1.98      0.00
    2    0   12      1.84      0.00
    3    0   12     -0.65      0.00
    4    0   12     -0.02      0.00
    5    0   12     -1.67      0.00
    6    0   12      0.68      0.00
    7    0   12      0.64      0.00
   -8    1   12      1.80      0.00
   -7    1   12     -0.45      0.00
   -6    1   12     -0.31      0.00
   -5    1   12      1.62      0.00
   -4    1   12     -1.49      0.00
   -3    1   12     -2.01      0.00
   -2    1   12      1.09      0.00
   -1    1   12      0.77      0.00
    0    1   12      0.65      0.00
    1    1   12     -0.99      0.00
    2    1   12     -0.09      0.00
    3    1   12      0.85      0.00
    4    1   12      0.26      0.00
    5    1   12     -1.18      0.00
    6    1   12      0.32      0.00
    7    1   12     -1.28      0.00
   -8    2   12     -0.05      0.00
   -7    2   12      2.67      0.00
   -6    2   12      1.98      0.00
   -5    2   12     -0.22      0.00
   -4    2   12      0.48      0.00
   -3    2   12      0.00      0.00
   -2    2   12     -0.75      0.00
   -1    2   12     -0.85      0.00
    0    2   12      1.53      0.00
    1    2   12      1.33      0.00
    2    2   12      2.09      0.00
    3    2   12     -0.29      0.00
    4    2   12      0.16      0.00
    5    2   12     -1.62      0.00
    6    2   12     -0.36      0.00
    7    2   12      0.24      0.00
   -8    3   12     -1.04      0.00
   -7    3   12     -0.03      0.00
   -6    3   12      0.83      0.00
   -5    3   12      0.82      0.00
   -4    3   12     -2.38      0.00
   -3    3   12     -1.30      0.00
   -2    3   12      1.05      0.00
   -1    3   12      0.35      0.00
    0    3   12      1.34      0.00
    1    3   12     -2.50      0.00
    2    3   12      0.29      0.00
    3    3   12      3.27      0.00
    4    3   12      0.58      0.00
    5    3   12     -0.50      0.00
    6    3   12      0.97      0.00
    7    3   12     -1.47      0.00
   -8    4   12      0.83      0.00
   -7    4   12      1.74      0.00
   -6    4   12     -2.13      0.00
   -5    4   12      0.02      0.00
   -4    4   12      2.28      0.00
   -3    4   12     -1.55      0.00
   -2    4   12     -1.67      0.00
   -1    4   12     -1.36      0.00
    0    4   12      1.75      0.00
    1    4   12      1.25      0.00
    2    4   12      0.02      0.00
    3    4   12      0.69      0.00
    4    4   12      0.05      0.00
    5    4   12     -0.16      0.00
    6    4   12     -0.53      0.00
    7    4   12      0.21      0.00
   -8    5   12     -4.71      0.00
   -7    5   12     -0.16      0.00
   -6    5   12      0.69      0.00
   -5    5   12     -0.64      0.00
   -4    5   12     -1.60      0.00
   -3    5   12      1.99      0.00
   -2    5   12      0.05      0.00
   -1    5   12     -0.85      0.00
    0    5   12      0.40      0.00
    1    5   12     -1.11      0.00
    2    5   12      0.84      0.00
    3    5   12      3.49      0.00
    4    5   12      0.29      0.00
    5    5   12      1.13      0.00
    6    5   12      1.41      0.00
    7    5   12     -0.72      0.00
   -8    6   12      0.04      0.00
   -7    6   12     -1.84      0.00
   -6    6   12      0.96      0.00
   -5    6   12      0.28      0.00
   -4    6   12      0.79      0.00
   -3    6   12     -1.26      0.00
   -2    6   12      0.67      0.00
   -1    6   12     -0.18      0.00
    0    6   12      0.30      0.00
    1    6   12      1.31      0.00
    2    6   12     -0.93      0.00
    3    6   12     -0.61      0.00
    4    6   12      0.39      0.00
    5    6   12      0.27      0.00
    6    6   12      1.74      0.00
    7    6   12      0.83      0.00
   -7    7   12     -0.77      0.00
   -6    7   12     -0.17      0.00
   -5    7   12     -0.02      0.00
   -4    7   12     -1.72      0.00
   -3    7   12      0.73      0.00
   -2    7   12     -0.18      0.00
   -1    7   12     -0.44      0.00
    0    7   12     -1.20      0.00
    1    7   12      1.16      0.00
    2    7   12      1.80      0.00
    3    7   12      0.84      0.00
    4    7   12      0.09      0.00
    5    7   12      0.07      0.00
    6    7   12     -0.20      0.00
    7    7   12      0.20      0.00
   -7    8   12     -0.56      0.00
   -6    8   12      0.13      0.00
   -5    8   12      0.71      0.00
   -4    8   12     -0.56      0.00
   -3    8   12     -0.53      0.00
   -2    8   12      0.42      0.00
   -1    8   12      0.95      0.00
    0    8   12     -1.14      0.00
    1    8   12     -1.16      0.00
    2    8   12      1.65      0.00
    3    8   12     -1.20      0.00
    4    8   12      0.48      0.00
    5    8   12      0.67      0.00
    6    8   12      0.95      0.00
   -7    9   12      0.89      0.00
   -6    9   12      0.57      0.00
   -5    9   12      0.08      0.00
   -4    9   12     -2.16      0.00
   -3    9   12     -0.36      0.00
   -2    9   12     -0.73      0.00
   -1    9   12      0.29      0.00
    0    9   12     -1.82      0.00
    1    9   12      0.64      0.00
    2    9   12      0.97      0.00
    3    9   12     -0.11      0.00
    4    9   12     -0.18      0.00
    5    9   12     -0.04      0.00
    6    9   12     -0.89      0.00
   -7   10   12      0.77      0.00
   -6   10   12     -0.02      0.00
   -5   10   12      0.63      0.00
   -4   10   12      0.99      0.00
   -3   10   12      0.07      0.00
   -2   10   12     -1.35      0.00
   -1   10   12      1.21      0.00
    0   10   12     -1.86      0.00
    1   10   12     -2.76      0.00
    2   10   12      2.15      0.00
    3   10   12      0.97      0.00
    4   10   12     -0.39      0.00
    5   10   12      1.68      0.00
    6   10   12     -0.11      0.00
   -6   11   12      0.14      0.00
   -5   11   12      0.85      0.00
   -4   11   12     -1.40      0.00
   -3   11   12      2.09      0.00
   -2   11   12     -0.25      0.00
   -1   11   12     -0.57      0.00
    0   11   12     -0.63      0.00
    1   11   12      0.10      0.00
    2   11   12     -1.84      0.00
    3   11   12      1.32      0.00
    4   11   12     -0.66      0.00
    5   11   12     -0.66      0.00
   -6   12   12      1.64      0.00
   -5   12   12     -1.24      0.00
   -4   12   12      2.08      0.00
   -3   12   12     -0.83      0.00
   -2   12   12      0.99      0.00
   -1   12   12      0.35      0.00
    0   12   12     -2.72      0.00
    1   12   12     -0.32      0.00
    2   12   12      1.16      0.00
    3   12   12      0.81      0.00
    4   12   12      1.20      0.00
    5   12   12      0.27      0.00
   -5   13   12      1.07      0.00
   -4   13   12     -0.46      0.00
   -3   13   12      0.57      0.00
   -2   13   12      0.95      0.00
   -1   13   12     -0.41      0.00
    0   13   12      0.25      0.00
    1   13   12     -1.07      0.00
    2   13   12     -1.22      0.00
    3   13   12      0.68      0.00
    4   13   12      0.20      0.00
   -5   14   12     -1.36      0.00
   -4   14   12      1.59      0.00
   -3   14   12     -1.93      0.00
   -2   14   12      1.42      0.00
   -1   14   12     -1.21      0.00
    0   14   12     -0.03      0.00
    1   14   12      0.94      0.00
    2   14   12      1.09      0.00
    3   14   12      0.45      0.00
    4   14   12      0.31      0.00
   -4   15   12     -0.84      0.00
   -3   15   12     -0.84      0.00
   -2   15   12      2.28      0.00
   -1   15   12     -0.98      0.00
    0   15   12     -0.31      0.00
    1   15   12     -1.01      0.00
    2   15   12     -0.46      0.00
    3   15   12      0.07      0.00
   -3   16   12     -3.40      0.00
   -2   16   12      1.10      0.00
   -1   16   12     -0.26      0.00
    0   16   12      1.09      0.00
    1   16   12      0.20      0.00
    2   16   12      0.84      0.00
   -8    1   13      0.33      0.00
   -7    1   13      0.86      0.00
   -6    1   13     11.09      0.00
   -5    1   13     -0.17      0.00
   -4    1   13      0.18      0.00
   -3    1   13      1.39      0.00
   -2    1   13     -0.10      0.00
   -1    1   13     -1.25      0.00
    0    1   13     -0.27      0.00
    1    1   13      2.07      0.00
    2    1   13      1.52      0.00
    3    1   13     -0.66      0.00
    4    1   13      0.78      0.00
    5    1   13     -1.37      0.00
    6    1   13      0.68      0.00
    7    1   13      0.19      0.00
   -8    2   13      0.97      0.00
   -7    2   13     -1.88      0.00
   -6    2   13      1.12      0.00
   -5    2   13      2.50      0.00
   -4    2   13     -2.30      0.00
   -3    2   13     -1.01      0.00
   -2    2   13      1.29      0.00
   -1    2   13      0.44      0.00
    0    2   13      0.12      0.00
    1    2   13     -3.33      0.00
    2    2   13      0.24      0.00
    3    2   13      0.20      0.00
    4    2   13     -0.36      0.00
    5    2   13     -0.84      0.00
    6    2   13      0.82      0.00
    7    2   13     -1.62      0.00
   -8    3   13      1.26      0.00
   -7    3   13      1.17      0.00
   -6    3   13     -0.96      0.00
   -5    3   13      0.48      0.00
   -4    3   13      2.18      0.00
   -3    3   13     -1.23      0.00
   -2    3   13     -1.26      0.00
   -1    3   13     -1.65      0.00
    0    3   13      1.25      0.00
    1    3   13      1.48      0.00
    2    3   13      1.29      0.00
    3    3   13      0.67      0.00
    4    3   13      0.52      0.00
    5    3   13     -0.49      0.00
    6    3   13      0.16      0.00
    7    3   13      0.42      0.00
   -8    4   13     -3.40      0.00
   -7    4   13     -0.41      0.00
   -6    4   13      0.81      0.00
   -5    4   13     -0.72      0.00
   -4    4   13     -1.75      0.00
   -3    4   13      0.77      0.00
   -2    4   13     -0.14      0.00
   -1    4   13     -0.31      0.00
    0    4   13      0.59      0.00
    1    4   13     -3.38      0.00
    2    4   13      1.44      0.00
    3    4   13      2.15      0.00
    4    4   13      0.20      0.00
    5    4   13      1.63      0.00
    6    4   13      1.88      0.00
    7    4   13     -0.65      0.00
   -7    5   13     -1.87      0.00
   -6    5   13     -0.69      0.00
   -5    5   13      0.57      0.00
   -4    5   13      1.52      0.00
   -3    5   13     -1.23      0.00
   -2    5   13     -0.42      0.00
   -1    5   13     -1.20      0.00
    0    5   13      1.62      0.00
    1    5   13      1.20      0.00
    2    5   13     -1.38      0.00
    3    5   13      0.60      0.00
    4    5   13     -0.86      0.00
    5    5   13      0.95      0.00
    6    5   13      1.47      0.00
    7    5   13      0.91      0.00
   -7    6   13     -1.29      0.00
   -6    6   13     -0.73      0.00
   -5    6   13     -1.06      0.00
   -4    6   13     -1.30      0.00
   -3    6   13      1.69      0.00
   -2    6   13      0.25      0.00
   -1    6   13     -0.89      0.00
    0    6   13     -0.38      0.00
    1    6   13      0.05      0.00
    2    6   13      0.54      0.00
    3    6   13      1.37      0.00
    4    6   13     -0.05      0.00
    5    6   13      1.32      0.00
    6    6   13      1.34      0.00
   -7    7   13     -2.31      0.00
   -6    7   13      1.21      0.00
   -5    7   13     -0.19      0.00
   -4    7   13     -0.92      0.00
   -3    7   13     -1.33      0.00
   -2    7   13      0.62      0.00
   -1    7   13      0.04      0.00
    0    7   13     -0.27      0.00
    1    7   13      0.08      0.00
    2    7   13     -0.27      0.00
    3    7   13     -2.42      0.00
    4    7   13     -0.43      0.00
    5    7   13     -0.01      0.00
    6    7   13      2.38      0.00
   -7    8   13     -0.78      0.00
   -6    8   13      0.16      0.00
   -5    8   13      0.14      0.00
   -4    8   13     -1.63      0.00
   -3    8   13      0.87      0.00
   -2    8   13      1.07      0.00
   -1    8   13     -0.23      0.00
    0    8   13     -1.34      0.00
    1    8   13      1.04      0.00
    2    8   13      0.61      0.00
    3    8   13     -0.19      0.00
    4    8   13      0.19      0.00
    5    8   13      0.14      0.00
    6    8   13     -0.81      0.00
   -7    9   13     -0.47      0.00
   -6    9   13     -0.32      0.00
   -5    9   13      0.03      0.00
   -4    9   13     -0.63      0.00
   -3    9   13     -1.59      0.00
   -2    9   13     -0.40      0.00
   -1    9   13      1.58      0.00
    0    9   13     -1.66      0.00
    1    9   13     -2.06      0.00
    2    9   13      2.29      0.00
    3    9   13     -2.04      0.00
    4    9   13     -0.16      0.00
    5    9   13      0.47      0.00
    6    9   13      0.47      0.00
   -6   10   13      0.45      0.00
   -5   10   13      0.53      0.00
   -4   10   13     -1.86      0.00
   -3   10   13      2.49      0.00
   -2   10   13     -0.17      0.00
   -1   10   13      0.04      0.00
    0   10   13     -0.36      0.00
    1   10   13     -0.10      0.00
    2   10   13     -0.29      0.00
    3   10   13      1.37      0.00
    4   10   13     -0.19      0.00
    5   10   13      0.61      0.00
   -6   11   13      0.73      0.00
   -5   11   13     -0.26      0.00
   -4   11   13      1.36      0.00
   -3   11   13     -0.93      0.00
   -2   11   13      0.51      0.00
   -1   11   13      2.04      0.00
    0   11   13     -2.18      0.00
    1   11   13     -1.10      0.00
    2   11   13      0.82      0.00
    3   11   13     -0.29      0.00
    4   11   13      0.14      0.00
    5   11   13      0.69      0.00
   -5   12   13      0.51      0.00
   -4   12   13     -1.14      0.00
   -3   12   13      2.80      0.00
   -2   12   13     -0.41      0.00
   -1   12   13     -0.35      0.00
    0   12   13      0.79      0.00
    1   12   13     -0.68      0.00
    2   12   13     -1.47      0.00
    3   12   13      1.37      0.00
    4   12   13     -1.25      0.00
   -5   13   13     -1.22      0.00
   -4   13   13      0.97      0.00
   -3   13   13     -0.88      0.00
   -2   13   13      1.93      0.00
   -1   13   13     -0.19      0.00
    0   13   13     -1.18      0.00
    1   13   13      1.05      0.00
    2   13   13     -0.51      0.00
    3   13   13     -0.06      0.00
    4   13   13      1.05      0.00
   -4   14   13     -0.93      0.00
   -3   14   13     -0.09      0.00
   -2   14   13      0.99      0.00
   -1   14   13     -0.87      0.00
    0   14   13      0.10      0.00
    1   14   13     -1.14      0.00
    2   14   13     -0.84      0.00
    3   14   13     -1.05      0.00
   -3   15   13     -1.97      0.00
   -2   15   13      0.48      0.00
   -1   15   13     -1.09      0.00
    0   15   13      1.40      0.00
    1   15   13      0.45      0.00
    2   15   13      0.89      0.00
   -1   16   13     -2.09      0.00
    0   16   13     -0.07      0.00
   -8    0   14      0.42      0.00
   -7    0   14      0.76      0.00
   -6    0   14     16.59      0.00
   -5    0   14     -0.24      0.00
   -4    0   14      0.74      0.00
   -3    0   14      1.81      0.00
   -2    0   14     -0.15      0.00
   -1    0   14     -2.16      0.00
    0    0   14     -2.11      0.00
    1    0   14      1.80      0.00
    2    0   14      0.27      0.00
    3    0   14     -0.82      0.00
    4    0   14      1.06      0.00
    5    0   14     -0.65      0.00
    6    0   14      1.38      0.00
    7    0   14     -0.14      0.00
   -8    1   14      0.58      0.00
   -7    1   14     -2.48      0.00
   -6    1   14      1.02      0.00
   -5    1   14      2.32      0.00
   -4    1   14     -1.08      0.00
   -3    1   14      0.03      0.00
   -2    1   14      0.82      0.00
   -1    1   14      0.37      0.00
    0    1   14     -0.91      0.00
    1    1   14     -1.96      0.00
    2    1   14      0.11      0.00
    3    1   14     -1.28      0.00
    4    1   14     -0.47      0.00
    5    1   14     -0.83      0.00
    6    1   14      0.33      0.00
    7    1   14     -0.81      0.00
   -8    2   14      1.43      0.00
   -7    2   14      0.18      0.00
   -6    2   14      5.43      0.00
   -5    2   14      0.44      0.00
   -4    2   14      1.70      0.00
   -3    2   14     -0.02      0.00
   -2    2   14     -0.61      0.00
   -1    2   14     -1.85      0.00
    0    2   14     -0.53      0.00
    1    2   14      1.70      0.00
    2    2   14      1.75      0.00
    3    2   14      0.06      0.00
    4    2   14      1.43      0.00
    5    2   14     -0.22      0.00
    6    2   14      1.20      0.00
    7    2   14      0.05      0.00
   -7    3   14     -1.67      0.00
   -6    3   14      1.07      0.00
   -5    3   14      1.17      0.00
   -4    3   14     -1.51      0.00
   -3    3   14      0.17      0.00
   -2    3   14      0.03      0.00
   -1    3   14      0.17      0.00
    0    3   14     -0.91      0.00
    1    3   14     -4.27      0.00
    2    3   14      2.02      0.00
    3    3   14     -1.00      0.00
    4    3   14     -0.35      0.00
    5    3   14      0.19      0.00
    6    3   14      1.64      0.00
   -7    4   14     -1.79      0.00
   -6    4   14     -2.71      0.00
   -5    4   14      0.96      0.00
   -4    4   14      2.02      0.00
   -3    4   14     -0.52      0.00
   -2    4   14     -0.69      0.00
   -1    4   14     -1.27      0.00
    0    4   14      2.02      0.00
    1    4   14      0.68      0.00
    2    4   14      0.82      0.00
    3    4   14      1.54      0.00
    4    4   14     -0.03      0.00
    5    4   14      1.22      0.00
    6    4   14      1.01      0.00
   -7    5   14     -0.16      0.00
   -6    5   14     -1.15      0.00
   -5    5   14     -1.47      0.00
   -4    5   14     -1.38      0.00
   -3    5   14      0.54      0.00
   -2    5   14     -0.62      0.00
   -1    5   14     -0.78      0.00
    0    5   14     -0.39      0.00
    1    5   14     -2.00      0.00
    2    5   14      0.74      0.00
    3    5   14      0.40      0.00
    4    5   14     -0.35      0.00
    5    5   14      1.75      0.00
    6    5   14      2.02      0.00
   -7    6   14     -2.55      0.00
   -6    6   14      0.70      0.00
   -5    6   14      0.29      0.00
   -4    6   14      0.21      0.00
   -3    6   14      0.18      0.00
   -2    6   14     -0.02      0.00
   -1    6   14     -0.35      0.00
    0    6   14      1.51      0.00
    1    6   14     -0.36      0.00
    2    6   14     -1.13      0.00
    3    6   14     -0.89      0.00
    4    6   14     -1.53      0.00
    5    6   14      0.87      0.00
    6    6   14      1.84      0.00
   -7    7   14     -1.06      0.00
   -6    7   14     -1.20      0.00
   -5    7   14     -0.30      0.00
   -4    7   14     -1.13      0.00
   -3    7   14      1.67      0.00
   -2    7   14      1.60      0.00
   -1    7   14     -1.07      0.00
    0    7   14     -0.45      0.00
    1    7   14      1.08      0.00
    2    7   14     -2.02      0.00
    3    7   14     -0.25      0.00
    4    7   14     -0.53      0.00
    5    7   14      0.30      0.00
    6    7   14      0.31      0.00
   -6    8   14      0.16      0.00
   -5    8   14     -0.65      0.00
   -4    8   14     -1.81      0.00
   -3    8   14     -1.51      0.00
   -2    8   14      0.62      0.00
   -1    8   14      0.71      0.00
    0    8   14     -1.03      0.00
    1    8   14     -0.87      0.00
    2    8   14      0.99      0.00
    3    8   14     -3.12      0.00
    4    8   14     -0.06      0.00
    5    8   14     -0.92      0.00
   -6    9   14      0.37      0.00
   -5    9   14      0.84      0.00
   -4    9   14     -0.80      0.00
   -3    9   14      2.61      0.00
   -2    9   14      1.42      0.00
   -1    9   14      0.12      0.00
    0    9   14      0.10      0.00
    1    9   14      0.54      0.00
    2    9   14     -0.94      0.00
    3    9   14      0.38      0.00
    4    9   14      1.28      0.00
    5    9   14      0.53      0.00
   -6   10   14     -0.44      0.00
   -5   10   14     -0.67      0.00
   -4   10   14     -0.58      0.00
   -3   10   14     -2.29      0.00
   -2   10   14      0.27      0.00
   -1   10   14      2.37      0.00
    0   10   14     -1.55      0.00
    1   10   14     -1.07      0.00
    2   10   14      1.42      0.00
    3   10   14     -2.16      0.00
    4   10   14      0.06      0.00
    5   10   14      0.23      0.00
   -5   11   14      0.27      0.00
   -4   11   14     -0.84      0.00
   -3   11   14      3.41      0.00
   -2   11   14     -1.24      0.00
   -1   11   14     -0.39      0.00
    0   11   14      1.20      0.00
    1   11   14     -0.76      0.00
    2   11   14     -0.66      0.00
    3   11   14      2.17      0.00
    4   11   14     -0.04      0.00
   -5   12   14     -0.89      0.00
   -4   12   14      0.08      0.00
   -3   12   14     -0.97      0.00
   -2   12   14      1.37      0.00
   -1   12   14      1.07      0.00
    0   12   14     -1.50      0.00
    1   12   14      0.50      0.00
    2   12   14     -1.99      0.00
    3   12   14     -0.83      0.00
    4   12   14      0.29      0.00
   -4   13   14     -0.70      0.00
   -3   13   14      0.96      0.00
   -2   13   14     -0.63      0.00
   -1   13   14     -0.74      0.00
    0   13   14      0.44      0.00
    1   13   14     -0.64      0.00
    2   13   14     -1.01      0.00
    3   13   14     -0.28      0.00
   -3   14   14     -0.62      0.00
   -2   14   14      0.32      0.00
   -1   14   14     -1.06      0.00
    0   14   14      0.08      0.00
    1   14   14      0.59      0.00
    2   14   14     -1.08      0.00
   -2   15   14      0.52      0.00
   -1   15   14     -1.69      0.00
    0   15   14     -0.09      0.00
    1   15   14     -0.15      0.00
   -7    1   15      0.57      0.00
   -6    1   15     11.21      0.00
   -5    1   15      0.19      0.00
   -4    1   15      0.75      0.00
   -3    1   15      1.26      0.00
   -2    1   15      0.17      0.00
   -1    1   15     -2.49      0.00
    0    1   15     -2.51      0.00
    1    1   15      1.46      0.00
    2    1   15      0.38      0.00
    3    1   15      0.04      0.00
    4    1   15      1.26      0.00
    5    1   15      0.08      0.00
    6    1   15      1.30      0.00
   -7    2   15     -3.01      0.00
   -6    2   15      1.25      0.00
   -5    2   15      2.45      0.00
   -4    2   15     -0.80      0.00
   -3    2   15      0.68      0.00
   -2    2   15      0.61      0.00
   -1    2   15      0.81      0.00
    0    2   15     -2.10      0.00
    1    2   15     -2.37      0.00
    2    2   15      1.49      0.00
    3    2   15     -2.17      0.00
    4    2   15     -0.20      0.00
    5    2   15     -1.07      0.00
    6    2   15      0.71      0.00
   -7    3   15     -1.37      0.00
   -6    3   15     -1.74      0.00
   -5    3   15      1.04      0.00
   -4    3   15      1.61      0.00
   -3    3   15      0.00      0.00
   -2    3   15     -0.58      0.00
   -1    3   15     -1.29      0.00
    0    3   15      0.29      0.00
    1    3   15      0.84      0.00
    2    3   15      2.44      0.00
    3    3   15      1.15      0.00
    4    3   15      1.44      0.00
    5    3   15      0.90      0.00
    6    3   15      0.89      0.00
   -7    4   15      0.44      0.00
   -6    4   15     -0.72      0.00
   -5    4   15     -0.28      0.00
   -4    4   15     -1.07      0.00
   -3    4   15     -0.19      0.00
   -2    4   15     -0.66      0.00
   -1    4   15     -0.03      0.00
    0    4   15     -1.49      0.00
    1    4   15     -2.97      0.00
    2    4   15      2.09      0.00
    3    4   15     -1.14      0.00
    4    4   15     -0.34      0.00
    5    4   15      0.29      0.00
    6    4   15      1.65      0.00
   -7    5   15     -1.76      0.00
   -6    5   15     -1.50      0.00
   -5    5   15      0.92      0.00
   -4    5   15      1.38      0.00
   -3    5   15      1.44      0.00
   -2    5   15     -0.74      0.00
   -1    5   15      0.16      0.00
    0    5   15      2.37      0.00
    1    5   15     -1.29      0.00
    2    5   15      0.49      0.00
    3    5   15      0.74      0.00
    4    5   15     -0.96      0.00
    5    5   15      1.59      0.00
    6    5   15      0.42      0.00
   -7    6   15      0.04      0.00
   -6    6   15     -2.15      0.00
   -5    6   15     -0.57      0.00
   -4    6   15     -1.64      0.00
   -3    6   15      0.58      0.00
   -2    6   15      0.27      0.00
   -1    6   15     -1.55      0.00
    0    6   15     -0.42      0.00
    1    6   15     -0.27      0.00
    2    6   15     -2.86      0.00
    3    6   15      0.10      0.00
    4    6   15     -1.47      0.00
    5    6   15      0.50      0.00
    6    6   15      1.03      0.00
   -6    7   15      0.70      0.00
   -5    7   15      0.31      0.00
   -4    7   15     -0.75      0.00
   -3    7   15      1.10      0.00
   -2    7   15      0.70      0.00
   -1    7   15      0.67      0.00
    0    7   15      0.42      0.00
    1    7   15     -1.16      0.00
    2    7   15     -0.47      0.00
    3    7   15     -1.44      0.00
    4    7   15     -0.69      0.00
    5    7   15     -0.38      0.00
   -6    8   15     -0.93      0.00
   -5    8   15      1.10      0.00
   -4    8   15     -0.65      0.00
   -3    8   15      2.15      0.00
   -2    8   15      1.69      0.00
   -1    8   15     -0.92      0.00
    0    8   15      0.60      0.00
    1    8   15      1.32      0.00
    2    8   15     -4.04      0.00
    3    8   15      0.21      0.00
    4    8   15      0.64      0.00
    5    8   15     -0.16      0.00
   -6    9   15     -0.75      0.00
   -5    9   15     -0.85      0.00
   -4    9   15     -1.81      0.00
   -3    9   15     -1.85      0.00
   -2    9   15      1.03      0.00
   -1    9   15      1.24      0.00
    0    9   15     -1.26      0.00
    1    9   15     -0.35      0.00
    2    9   15      1.17      0.00
    3    9   15     -1.81      0.00
    4    9   15      0.93      0.00
    5    9   15     -0.76      0.00
   -5   10   15      1.21      0.00
   -4   10   15     -0.27      0.00
   -3   10   15      2.25      0.00
   -2   10   15     -0.83      0.00
   -1   10   15     -0.39      0.00
    0   10   15      1.09      0.00
    1   10   15     -0.29      0.00
    2   10   15     -1.35      0.00
    3   10   15      1.69      0.00
    4   10   15      2.14      0.00
   -5   11   15     -1.04      0.00
   -4   11   15     -0.84      0.00
   -3   11   15     -2.39      0.00
   -2   11   15      0.28      0.00
   -1   11   15      1.65      0.00
    0   11   15     -0.95      0.00
    1   11   15      0.08      0.00
    2   11   15     -1.29      0.00
    3   11   15     -1.54      0.00
    4   11   15      0.29      0.00
   -4   12   15     -0.26      0.00
   -3   12   15      1.10      0.00
   -2   12   15     -2.27      0.00
   -1   12   15     -1.14      0.00
    0   12   15      0.54      0.00
    1   12   15     -1.02      0.00
    2   12   15     -0.38      0.00
    3   12   15      1.30      0.00
   -3   13   15     -0.61      0.00
   -2   13   15      0.19      0.00
   -1   13   15     -0.52      0.00
    0   13   15     -0.46      0.00
    1   13   15      0.24      0.00
    2   13   15     -3.18      0.00
   -2   14   15      0.16      0.00
   -1   14   15     -0.82      0.00
    0   14   15     -0.23      0.00
    1   14   15      0.34      0.00
   -7    0   16      0.88      0.00
   -6    0   16      9.33      0.00
   -5    0   16     -0.66      0.00
   -4    0   16     -0.79      0.00
   -3    0   16      2.32      0.00
   -2    0   16      1.28      0.00
   -1    0   16     -2.99      0.00
    0    0   16     -1.73      0.00
    1    0   16      1.21      0.00
    2    0   16     -0.50      0.00
    3    0   16      1.76      0.00
    4    0   16      0.77      0.00
    5    0   16      0.16      0.00
    6    0   16      0.50      0.00
   -7    1   16     -1.92      0.00
   -6    1   16      1.06      0.00
   -5    1   16      1.52      0.00
   -4    1   16     -0.41      0.00
   -3    1   16      0.51      0.00
   -2    1   16      0.61      0.00
   -1    1   16      0.62      0.00
    0    1   16     -1.50      0.00
    1    1   16     -0.17      0.00
    2    1   16      0.38      0.00
    3    1   16     -0.93      0.00
    4    1   16      0.21      0.00
    5    1   16     -0.80      0.00
    6    1   16      0.02      0.00
   -7    2   16     -0.52      0.00
   -6    2   16      1.43      0.00
   -5    2   16      0.56      0.00
   -4    2   16      0.44      0.00
   -3    2   16      0.98      0.00
   -2    2   16      0.14      0.00
   -1    2   16     -2.09      0.00
    0    2   16     -1.24      0.00
    1    2   16      1.21      0.00
    2    2   16      1.26      0.00
    3    2   16      1.30      0.00
    4    2   16      1.61      0.00
    5    2   16      0.27      0.00
    6    2   16      0.34      0.00
   -7    3   16     -0.14      0.00
   -6    3   16      0.30      0.00
   -5    3   16      0.99      0.00
   -4    3   16     -0.42      0.00
   -3    3   16      0.28      0.00
   -2    3   16      0.59      0.00
   -1    3   16      1.02      0.00
    0    3   16     -2.13      0.00
    1    3   16     -1.50      0.00
    2    3   16      2.25      0.00
    3    3   16     -1.40      0.00
    4    3   16      0.10      0.00
    5    3   16     -1.00      0.00
   -7    4   16     -0.88      0.00
   -6    4   16     -3.28      0.00
   -5    4   16      0.91      0.00
   -4    4   16      1.70      0.00
   -3    4   16      0.93      0.00
   -2    4   16     -1.45      0.00
   -1    4   16     -0.34      0.00
    0    4   16      0.89      0.00
    1    4   16     -0.90      0.00
    2    4   16      1.90      0.00
    3    4   16      0.85      0.00
    4    4   16      0.48      0.00
    5    4   16      0.93      0.00
   -6    5   16     -1.49      0.00
   -5    5   16     -0.54      0.00
   -4    5   16     -1.36      0.00
   -3    5   16     -0.17      0.00
   -2    5   16      0.43      0.00
   -1    5   16     -0.63      0.00
    0    5   16     -0.89      0.00
    1    5   16     -1.58      0.00
    2    5   16     -0.62      0.00
    3    5   16      0.52      0.00
    4    5   16     -1.30      0.00
    5    5   16     -0.13      0.00
   -6    6   16      0.32      0.00
   -5    6   16      1.06      0.00
   -4    6   16      0.76      0.00
   -3    6   16      2.22      0.00
   -2    6   16     -0.47      0.00
   -1    6   16      1.27      0.00
    0    6   16      1.23      0.00
    1    6   16     -2.02      0.00
    2    6   16     -0.30      0.00
    3    6   16     -0.04      0.00
    4    6   16     -0.89      0.00
    5    6   16      0.73      0.00
   -6    7   16     -1.91      0.00
   -5    7   16      0.72      0.00
   -4    7   16     -1.26      0.00
   -3    7   16      1.05      0.00
   -2    7   16      0.63      0.00
   -1    7   16     -1.85      0.00
    0    7   16      0.60      0.00
    1    7   16      0.53      0.00
    2    7   16     -4.83      0.00
    3    7   16      1.61      0.00
    4    7   16     -1.22      0.00
    5    7   16      0.07      0.00
   -6    8   16      0.04      0.00
   -5    8   16      0.38      0.00
   -4    8   16     -1.14      0.00
   -3    8   16      0.88      0.00
   -2    8   16      1.70      0.00
   -1    8   16      0.68      0.00
    0    8   16     -0.84      0.00
    1    8   16     -0.45      0.00
    2    8   16     -0.23      0.00
    3    8   16      0.38      0.00
    4    8   16      0.63      0.00
   -5    9   16      1.89      0.00
   -4    9   16     -0.72      0.00
   -3    9   16      0.71      0.00
   -2    9   16     -0.61      0.00
   -1    9   16     -1.05      0.00
    0    9   16      1.03      0.00
    1    9   16      0.74      0.00
    2    9   16     -3.45      0.00
    3    9   16      1.68      0.00
    4    9   16      2.14      0.00
   -5   10   16     -0.65      0.00
   -4   10   16     -1.03      0.00
   -3   10   16     -2.34      0.00
   -2   10   16      0.63      0.00
   -1   10   16      1.03      0.00
    0   10   16     -1.04      0.00
    1   10   16      0.16      0.00
    2   10   16     -0.36      0.00
    3   10   16     -0.49      0.00
    4   10   16      1.37      0.00
   -4   11   16     -0.51      0.00
   -3   11   16     -0.17      0.00
   -2   11   16     -3.21      0.00
   -1   11   16     -1.25      0.00
    0   11   16      0.20      0.00
    1   11   16     -1.14      0.00
    2   11   16     -0.42      0.00
    3   11   16      1.51      0.00
   -3   12   16     -1.74      0.00
   -2   12   16     -0.23      0.00
   -1   12   16      0.47      0.00
    0   12   16      0.01      0.00
    1   12   16     -0.07      0.00
    2   12   16     -2.87      0.00
   -2   13   16     -0.94      0.00
   -1   13   16     -0.81      0.00
    0   13   16     -0.62      0.00
    1   13   16     -0.26      0.00
   -6    1   17      2.83      0.00
   -5    1   17     -1.63      0.00
   -4    1   17     -1.31      0.00
   -3    1   17      2.59      0.00
   -2    1   17      1.29      0.00
   -1    1   17     -2.85      0.00
    0    1   17      0.81      0.00
    1    1   17      0.74      0.00
    2    1   17     -0.37      0.00
    3    1   17      3.25      0.00
    4    1   17      1.09      0.00
    5    1   17     -0.05      0.00
   -6    2   17      1.44      0.00
   -5    2   17      1.12      0.00
   -4    2   17     -0.53      0.00
   -3    2   17      0.09      0.00
   -2    2   17      1.15      0.00
   -1    2   17      0.63      0.00
    0    2   17     -1.94      0.00
    1    2   17      0.25      0.00
    2    2   17      0.75      0.00
    3    2   17     -0.77      0.00
    4    2   17      0.37      0.00
    5    2   17     -0.80      0.00
   -6    3   17     -2.74      0.00
   -5    3   17      0.55      0.00
   -4    3   17      1.82      0.00
   -3    3   17      0.76      0.00
   -2    3   17     -1.15      0.00
   -1    3   17     -1.64      0.00
    0    3   17     -0.27      0.00
    1    3   17      0.05      0.00
    2    3   17      1.03      0.00
    3    3   17      1.03      0.00
    4    3   17      1.24      0.00
    5    3   17     -0.24      0.00
   -6    4   17     -0.21      0.00
   -5    4   17     -0.54      0.00
   -4    4   17     -0.34      0.00
   -3    4   17      0.03      0.00
   -2    4   17      2.28      0.00
   -1    4   17      0.79      0.00
    0    4   17     -0.86      0.00
    1    4   17     -1.26      0.00
    2    4   17      1.52      0.00
    3    4   17      0.40      0.00
    4    4   17     -0.55      0.00
    5    4   17     -0.63      0.00
   -6    5   17     -0.86      0.00
   -5    5   17      0.56      0.00
   -4    5   17      1.94      0.00
   -3    5   17      0.62      0.00
   -2    5   17     -2.05      0.00
   -1    5   17      0.30      0.00
    0    5   17      0.42      0.00
    1    5   17     -1.66      0.00
    2    5   17      0.56      0.00
    3    5   17     -0.20      0.00
    4    5   17     -0.24      0.00
    5    5   17      0.45      0.00
   -6    6   17     -1.15      0.00
   -5    6   17     -0.39      0.00
   -4    6   17     -0.63      0.00
   -3    6   17      0.55      0.00
   -2    6   17      1.89      0.00
   -1    6   17     -1.00      0.00
    0    6   17      0.46      0.00
    1    6   17     -1.08      0.00
    2    6   17     -1.68      0.00
    3    6   17      2.77      0.00
    4    6   17     -1.73      0.00
   -5    7   17      0.91      0.00
   -4    7   17     -0.14      0.00
   -3    7   17      1.53      0.00
   -2    7   17      0.72      0.00
   -1    7   17      0.87      0.00
    0    7   17     -0.51      0.00
    1    7   17     -0.84      0.00
    2    7   17     -0.80      0.00
    3    7   17      1.08      0.00
    4    7   17     -0.29      0.00
   -5    8   17      1.48      0.00
   -4    8   17     -0.64      0.00
   -3    8   17      0.11      0.00
   -2    8   17     -0.35      0.00
   -1    8   17     -1.63      0.00
    0    8   17      1.04      0.00
    1    8   17      0.47      0.00
    2    8   17     -3.15      0.00
    3    8   17      2.77      0.00
    4    8   17      0.30      0.00
   -5    9   17      0.39      0.00
   -4    9   17     -0.55      0.00
   -3    9   17     -0.11      0.00
   -2    9   17      1.81      0.00
   -1    9   17      0.08      0.00
    0    9   17     -1.51      0.00
    1    9   17      0.04      0.00
    2    9   17     -0.71      0.00
    3    9   17      1.48      0.00
   -4   10   17     -1.25      0.00
   -3   10   17     -1.38      0.00
   -2   10   17     -2.92      0.00
   -1   10   17     -1.25      0.00
    0   10   17      0.23      0.00
    1   10   17     -0.29      0.00
    2   10   17     -1.19      0.00
    3   10   17      1.46      0.00
   -3   11   17     -2.08      0.00
   -2   11   17      0.28      0.00
   -1   11   17      0.79      0.00
    0   11   17     -0.22      0.00
    1   11   17     -0.05      0.00
    2   11   17     -1.82      0.00
   -2   12   17     -2.63      0.00
   -1   12   17     -0.83      0.00
    0   12   17     -1.00      0.00
    1   12   17     -0.75      0.00
   -6    0   18      1.58      0.00
   -5    0   18     -4.30      0.00
   -4    0   18     -2.30      0.00
   -3    0   18      3.33      0.00
   -2    0   18      1.18      0.00
   -1    0   18     -2.79      0.00
    0    0   18      3.81      0.00
    2    0   18     -0.81      0.00
    3    0   18      4.37      0.00
    4    0   18      1.05      0.00
   -6    1   18      1.53      0.00
   -5    1   18      0.57      0.00
   -4    1   18     -0.64      0.00
   -3    1   18     -0.29      0.00
   -2    1   18      0.66      0.00
   -1    1   18     -0.45      0.00
    0    1   18     -1.19      0.00
    1    1   18      0.43      0.00
    2    1   18     -0.30      0.00
    3    1   18     -0.52      0.00
    4    1   18      0.16      0.00
   -6    2   18     -0.77      0.00
   -5    2   18     -1.30      0.00
   -4    2   18      1.06      0.00
   -3    2   18      1.94      0.00
   -2    2   18      0.09      0.00
   -1    2   18     -2.01      0.00
    0    2   18      1.40      0.00
    1    2   18     -0.19      0.00
    2    2   18     -0.40      0.00
    3    2   18      2.29      0.00
    4    2   18      1.35      0.00
   -6    3   18      0.99      0.00
   -5    3   18     -0.28      0.00
   -4    3   18     -0.30      0.00
   -3    3   18     -0.24      0.00
   -2    3   18      2.80      0.00
   -1    3   18      0.53      0.00
    0    3   18     -0.92      0.00
    1    3   18     -0.21      0.00
    2    3   18      1.26      0.00
    3    3   18     -0.62      0.00
    4    3   18     -0.18      0.00
   -5    4   18      0.35      0.00
   -4    4   18      3.61      0.00
   -3    4   18     -0.22      0.00
   -2    4   18     -2.06      0.00
   -1    4   18     -0.95      0.00
    0    4   18     -0.37      0.00
    1    4   18     -0.68      0.00
    2    4   18      0.55      0.00
    3    4   18     -0.41      0.00
    4    4   18      0.49      0.00
   -5    5   18     -1.64      0.00
   -4    5   18      0.36      0.00
   -3    5   18      0.53      0.00
   -2    5   18      4.62      0.00
   -1    5   18      0.62      0.00
    0    5   18      0.76      0.00
    1    5   18     -1.57      0.00
    2    5   18      1.72      0.00
    3    5   18      2.03      0.00
    4    5   18     -1.11      0.00
   -5    6   18      0.04      0.00
   -4    6   18      0.90      0.00
   -3    6   18     -0.61      0.00
   -2    6   18     -1.06      0.00
   -1    6   18      0.22      0.00
    0    6   18     -0.63      0.00
    1    6   18     -0.41      0.00
    2    6   18     -0.16      0.00
    3    6   18     -0.11      0.00
    4    6   18     -0.32      0.00
   -5    7   18      0.23      0.00
   -4    7   18      0.75      0.00
   -3    7   18      0.38      0.00
   -2    7   18      2.08      0.00
   -1    7   18     -0.97      0.00
    0    7   18      0.96      0.00
    1    7   18     -0.86      0.00
    2    7   18      0.10      0.00
    3    7   18      3.08      0.00
   -4    8   18     -0.37      0.00
   -3    8   18      0.64      0.00
   -2    8   18      1.65      0.00
   -1    8   18     -0.27      0.00
    0    8   18     -1.65      0.00
    1    8   18      0.15      0.00
    2    8   18     -0.87      0.00
    3    8   18      1.69      0.00
   -4    9   18     -0.50      0.00
   -3    9   18     -1.03      0.00
   -2    9   18     -1.39      0.00
   -1    9   18     -1.22      0.00
    0    9   18      0.52      0.00
    1    9   18     -0.14      0.00
    2    9   18     -0.66      0.00
   -3   10   18     -0.77      0.00
   -2   10   18      1.42      0.00
   -1   10   18     -0.05      0.00
    0   10   18     -0.91      0.00
    1   10   18     -0.06      0.00
    2   10   18     -1.59      0.00
   -2   11   18     -2.88      0.00
   -1   11   18     -0.58      0.00
    0   11   18     -0.66      0.00
    1   11   18     -0.29      0.00
   -5    1   19     -4.02      0.00
   -4    1   19     -0.69      0.00
   -3    1   19      2.99      0.00
   -2    1   19      0.47      0.00
   -1    1   19     -1.57      0.00
    0    1   19      3.34      0.00
    1    1   19     -1.22      0.00
    2    1   19     -0.90      0.00
    3    1   19      2.69      0.00
    4    1   19      1.13      0.00
   -5    2   19      0.28      0.00
   -4    2   19     -0.66      0.00
   -3    2   19     -0.32      0.00
   -2    2   19      1.84      0.00
   -1    2   19     -0.75      0.00
    0    2   19     -1.15      0.00
    1    2   19      0.33      0.00
    2    2   19      0.04      0.00
    3    2   19     -1.62      0.00
    4    2   19     -0.09      0.00
   -5    3   19      0.11      0.00
   -4    3   19      4.02      0.00
   -3    3   19      0.93      0.00
   -2    3   19     -0.41      0.00
   -1    3   19     -0.47      0.00
    0    3   19      0.00      0.00
    1    3   19     -0.24      0.00
    2    3   19     -0.08      0.00
    3    3   19      0.01      0.00
   -5    4   19     -1.58      0.00
   -4    4   19      0.22      0.00
   -3    4   19      0.18      0.00
   -2    4   19      4.81      0.00
   -1    4   19      1.07      0.00
    0    4   19      0.59      0.00
    1    4   19     -0.87      0.00
    2    4   19      2.29      0.00
    3    4   19     -0.31      0.00
   -4    5   19      2.78      0.00
   -3    5   19     -1.52      0.00
   -2    5   19     -1.48      0.00
   -1    5   19     -0.36      0.00
    0    5   19     -0.82      0.00
    1    5   19      0.18      0.00
    2    5   19      0.49      0.00
    3    5   19     -1.09      0.00
   -4    6   19      1.17      0.00
   -3    6   19      0.47      0.00
   -2    6   19      4.88      0.00
   -1    6   19      0.27      0.00
    0    6   19      1.15      0.00
    1    6   19     -1.41      0.00
    2    6   19      2.71      0.00
   -4    7   19     -0.21      0.00
   -3    7   19     -1.00      0.00
   -2    7   19      0.38      0.00
   -1    7   19     -0.52      0.00
    0    7   19     -1.49      0.00
    1    7   19      0.81      0.00
    2    7   19     -0.33      0.00
   -3    8   19     -0.12      0.00
   -2    8   19      1.13      0.00
   -1    8   19     -0.82      0.00
    0    8   19      0.44      0.00
    1    8   19     -0.68      0.00
    2    8   19      1.17      0.00
   -2    9   19      1.62      0.00
   -1    9   19     -0.79      0.00
    0    9   19     -1.19      0.00
    1    9   19      0.24      0.00
   -1   10   19     -0.47      0.00
   -4    0   20     -1.27      0.00
   -3    0   20      3.53      0.00
   -2    0   20      0.28      0.00
   -1    0   20     -0.76      0.00
    0    0   20      2.67      0.00
    1    0   20     -0.88      0.00
    2    0   20     -1.09      0.00
    3    0   20      1.28      0.00
   -4    1   20     -0.38      0.00
   -3    1   20      0.19      0.00
   -2    1   20      0.87      0.00
   -1    1   20     -0.85      0.00
    0    1   20     -0.70      0.00
    1    1   20      0.35      0.00
    2    1   20     -0.31      0.00
    3    1   20     -1.23      0.00
   -4    2   20      1.86      0.00
   -3    2   20      2.41      0.00
   -2    2   20      0.82      0.00
   -1    2   20      0.37      0.00
    0    2   20      0.54      0.00
    1    2   20      0.08      0.00
    2    2   20     -0.75      0.00
    3    2   20      0.14      0.00
   -4    3   20     -0.20      0.00
   -3    3   20      0.16      0.00
   -2    3   20      2.83      0.00
   -1    3   20      0.40      0.00
    0    3   20     -0.37      0.00
    1    3   20      0.04      0.00
    2    3   20      0.89      0.00
    3    3   20     -2.13      0.00
   -4    4   20      3.61      0.00
   -3    4   20     -0.16      0.00
   -2    4   20     -0.27      0.00
   -1    4   20      0.53      0.00
    0    4   20     -0.98      0.00
    1    4   20      0.57      0.00
    2    4   20      0.45      0.00
   -3    5   20      0.15      0.00
   -2    5   20      4.44      0.00
   -1    5   20      1.08      0.00
    0    5   20      0.93      0.00
    1    5   20     -1.07      0.00
    2    5   20      2.53      0.00
   -3    6   20     -1.80      0.00
   -2    6   20     -0.46      0.00
   -1    6   20     -0.56      0.00
    0    6   20     -1.10      0.00
    1    6   20      0.96      0.00
    2    6   20      0.02      0.00
   -2    7   20      2.77      0.00
   -1    7   20     -0.29      0.00
    0    7   20      0.47      0.00
    1    7   20     -0.66      0.00
   -1    8   20     -0.92      0.00
    0    8   20     -1.22      0.00
   -3    1   21      3.47      0.00
   -2    1   21      0.76      0.00
   -1    1   21      0.32      0.00
    0    1   21      0.71      0.00
    1    1   21      0.87      0.00
    2    1   21     -1.23      0.00
   -3    2   21      0.61      0.00
   -2    2   21      1.25      0.00
   -1    2   21     -0.30      0.00
    0    2   21     -0.68      0.00
    1    2   21      0.46      0.00
   -3    3   21      1.36      0.00
   -2    3   21      0.98      0.00
   -1    3   21      1.28      0.00
    0    3   21     -0.96      0.00
    1    3   21      1.20      0.00
   -2    4   21      1.90      0.00
   -1    4   21      1.20      0.00
    0    4   21     -0.24      0.00
    1    4   21     -0.58      0.00
   -2    5   21     -0.49      0.00
   -1    5   21      0.18      0.00
    0    5   21     -0.69      0.00
    1    0    0      6.73      0.00
    1    1    0     15.63      0.00
    0    2    0     52.73      0.00
    1    3    0     15.54      0.00
    0    4    0     -6.03      0.00
    6   16    0     -1.61      0.00
   -2    1    1    -10.17      0.00
   -1    1    1     10.64      0.00
    0    1    1     80.70      0.00
   -1    2    1    -28.16      0.00
    0    2    1      1.13      0.00
    0    3    1     10.41      0.00
    1    3    1      6.62      0.00
   -1    4    1    -11.26      0.00
    0    4    1     -4.90      0.00
    9    8    1     -1.36      0.00
   -8   12    1      0.43      0.00
    7   14    1     -0.63      0.00
   -6   16    1      1.05      0.00
    6   16    1     -1.36      0.00
   -1   20    1      0.28      0.00
    1   20    1     -1.91      0.00
   -1    0    2     13.29      0.00
    0    0    2     60.53      0.00
   -2    1    2     -4.71      0.00
   -1    1    2    -18.44      0.00
    0    1    2      4.86      0.00
    1    1    2     -0.90      0.00
    0    2    2     25.52      0.00
   -1    3    2    -20.80      0.00
    0    3    2     -1.47      0.00
    0    4    2     -6.86      0.00
   -8   12    2     -0.50      0.00
    7   14    2     -0.74      0.00
   -6   16    2     -1.49      0.00
   -1   20    2     -0.76      0.00
    1   20    2     -0.31      0.00
    0    1    3     20.91      0.00
    1    2    3     -7.58      0.00
   -6   16    3      0.27      0.00
    5   17    3     -0.43      0.00
    3   19    3      2.17      0.00
    0   20    3      0.32      0.00
    0    0    4      6.95      0.00
    0    2    4      2.98      0.00
   -9    8    4     -0.49      0.00
   -7   14    4      1.35      0.00
    4   18    4      0.10      0.00
   -3   19    4      0.67      0.00
    9    6    5     -0.13      0.00
    7   13    5      0.22      0.00
    6   15    5      0.70      0.00
   -5   17    5      0.14      0.00
   -4   18    5     -0.20      0.00
   -8   11    6      1.34      0.00
    9    3    7     -0.54      0.00
    8    9    7      0.41      0.00
    7   12    7      0.51      0.00
   -6   15    7      0.39      0.00
    4   17    7      0.17      0.00
    3   18    7     -0.17      0.00
    1   19    7      1.48      0.00
   -9    6    8      0.35      0.00
    8    8    8     -0.09      0.00
   -3   18    8     -1.06      0.00
   -9    5    9      0.33      0.00
    8    7    9      0.01      0.00
    6   13    9     -0.63      0.00
   -9    3   10     -0.20      0.00
   -8    9   10     -0.10      0.00
    7   10   10     -0.55      0.00
   -1   18   10      0.98      0.00
    0   18   10     -0.64      0.00
    8    3   11      0.82      0.00
   -8    8   11     -0.11      0.00
   -7   11   11      0.64      0.00
    4   15   11     -0.93      0.00
    3   16   11      0.40      0.00
   -8    7   12     -1.45      0.00
    0   17   12     -0.17      0.00
   -8    5   13      0.39      0.00
   -2   16   13      1.24      0.00
    1   16   13     -0.35      0.00
   -8    3   14     -1.15      0.00
    7    3   14     -0.75      0.00
   -7    8   14     -1.49      0.00
    6    8   14      1.23      0.00
   -4   13   15     -0.59      0.00
    3   13   15     -0.13      0.00
   -3   14   15     -0.28      0.00
    6    3   16      0.68      0.00
    5    8   16     -0.70      0.00
   -4   12   16     -0.52      0.00
   -3   13   16     -0.52      0.00
    5    6   17      0.25      0.00
   -3   12   17     -1.24      0.00
    1    0   18     -0.64      0.00
    5    0   18      0.06      0.00
    5    1   18     -0.17      0.00
    5    2   18     -0.57      0.00
   -6    4   18     -1.36      0.00
    3    9   18      1.81      0.00
    4    3   19      0.99      0.00
    4    4   19     -0.66      0.00
   -5    5   19     -0.07      0.00
    3    6   19      1.88      0.00
    3    7   19      0.23      0.00
   -3    9   19      0.20      0.00
   -2   10   19     -1.41      0.00
    0   10   19     -0.05      0.00
    3    4   20     -1.19      0.00
   -4    5   20      0.22      0.00
   -3    7   20      0.00      0.00
   -2    8   20      0.99      0.00
    2    2   21     -0.20      0.00
    2    3   21     -0.32      0.00
   -3    4   21     -0.03      0.00
    1    5   21      0.56      0.00
   -1    6   21      0.22      0.00
    0    6   21      0.39      0.00
   -1    0   22      0.17      0.00
    0    0   22      0.77      0.00
   -1    1   22     -0.42      0.00
    0    1   22     -0.11      0.00
   -1    2   22      0.70      0.00
    0    0    0      0.00      0.00
# SQUEEZE RESULTS (Version =  40618)
# Note: Data are Listed for all Voids in the P1 Unit Cell
# i.e. Centre of Gravity, Solvent Accessible Volume,
# Recovered number of Electrons in the Void and
# Details about the Squeezed Material
loop_
  _platon_squeeze_void_nr
  _platon_squeeze_void_average_x
  _platon_squeeze_void_average_y
  _platon_squeeze_void_average_z
  _platon_squeeze_void_volume
  _platon_squeeze_void_count_electrons
  _platon_squeeze_void_content
   1 -0.030  0.000  0.000       250        49 ' '
   2 -0.034  0.500  0.500       250        49 ' '
# Missing Reflections Below sin(th)/lambda = 0.25
loop_
  _platon_missing_refln_index_h
  _platon_missing_refln_index_k
  _platon_missing_refln_index_l
  _platon_missing_refln_theta
    1    0    0     2.694
    1    1    0     2.998
    0    2    0     2.632
    1    3    0     4.783
    0    4    0     5.269
   -2    1    1     5.591
   -1    1    1     3.152
    0    1    1     1.787
   -1    2    1     3.891
    0    2    1     2.896
    0    3    1     4.131
    1    3    1     4.987
   -1    4    1     6.001
    0    4    1     5.407
   -1    0    2     3.474
    0    0    2     2.418
   -2    1    2     5.884
   -1    1    2     3.715
    0    1    2     2.753
    1    1    2     3.986
    0    2    2     3.575
   -1    3    2     5.264
    0    3    2     4.633
    0    4    2     5.800
    0    1    3     3.860
    1    2    3     5.382
    0    0    4     4.840
    0    2    4     5.512
_platon_squeeze_void_probe_radius                  1.20
_platon_squeeze_details
)
TITL du               P 1 21/c 1   R = 0.02
CELL    7.5852   15.4780   16.9013     90.00     94.58     90.00
SPGR P21/c
# Solvent Accessible Volume =       501
# Electrons Found in S.A.V. =        96
# Note: Atoms in Void are Labelled as Cxxx and Qxxx for all Others
C101 0.756 0.382 0.472 !       2.29 eA-3
C102 0.347 0.595 0.601 !       2.25 eA-3
C103 0.898 0.448 0.588 !       1.99 eA-3
C104 0.777 0.455 0.519 !       1.95 eA-3
C105 0.325 0.654 0.560 !       1.58 eA-3
C106 0.319 0.059-0.005 !       1.23 eA-3
C107 0.974 0.563 0.404 !       1.10 eA-3
C108 1.000 0.500 0.500 !       0.95 eA-3
C109 0.871 0.457 0.467 !       0.92 eA-3
C110 0.461 0.067 0.989 !       0.92 eA-3
C111 0.909 0.498 0.533 !       0.91 eA-3
C112 0.789 0.037 0.976 !       0.85 eA-3
C113 0.915 0.920 0.956 !       0.81 eA-3
Q114 0.086 0.158 0.390 !       0.79 eA-3
C115 0.342 0.948 0.955 !       0.79 eA-3
C116 0.375 0.490 0.466 !       0.79 eA-3
C117 0.405 0.528 0.518 !       0.75 eA-3
C118 0.844 0.988 0.921 !       0.75 eA-3
Q119 0.932 0.157 0.907 !       0.74 eA-3
Q120 0.100 0.920 0.308 !       0.73 eA-3
C121 0.974 0.924 0.846 !       0.72 eA-3
Q122 0.824 0.158 0.934 !       0.72 eA-3
C123 0.900 0.560 0.514 !       0.72 eA-3
Q124 0.901 0.147 0.157 !       0.71 eA-3
Q125 0.849 0.394 0.379 !       0.70 eA-3
C126 0.427 0.936 0.054 !       0.70 eA-3
Q127 0.816 0.102 0.435 !       0.69 eA-3
Q128 0.960 0.562 0.625 !       0.69 eA-3
Q129 0.560 0.184 0.191 !       0.67 eA-3
Q130 0.841 0.087 0.143 !       0.66 eA-3
Q131 0.374 0.429 0.454 !       0.66 eA-3
Q132 0.337 0.657 0.496 !       0.66 eA-3
Q133 0.507 0.892 0.145 !       0.64 eA-3
C134 1.011 0.387 0.585 !       0.64 eA-3
C135 0.287 1.001 0.113 !       0.64 eA-3
C136 0.936 0.984 0.953 !       0.64 eA-3
Q137 0.340 0.722 0.496 !       0.63 eA-3
C138 0.500 1.000 0.000 !       0.62 eA-3
Q139 0.846 0.038 0.284 !       0.62 eA-3
Q140 0.876 0.982 0.611 !       0.61 eA-3
Q141 0.165 0.926 0.415 !       0.61 eA-3
Q142 0.504 1.002 0.155 !       0.61 eA-3
Q143 0.319 0.717 0.079 !       0.61 eA-3
Q144 0.905 0.158 0.842 !       0.60 eA-3
Q145 0.847 0.628 0.324 !       0.59 eA-3
C146 0.382 0.535 0.577 !       0.59 eA-3
Q147 0.059 0.327 0.443 !       0.59 eA-3
Q148 0.252 0.466 0.680 !       0.59 eA-3
Q149 0.354 0.489 0.717 !       0.58 eA-3
Q150 0.786 0.271 0.467 !       0.58 eA-3
Q151 0.883 0.455 0.216 !       0.58 eA-3
C152 0.840 0.982 0.979 !       0.58 eA-3
Q153 0.373 0.873 0.169 !       0.57 eA-3
Q154 0.907 0.381 0.035 !       0.57 eA-3
Q155 0.255 0.596 0.235 !       0.56 eA-3
Q156 0.461 0.483 0.188 !       0.56 eA-3
Q157 0.277 0.486 0.392 !       0.56 eA-3
Q158 0.379 0.657 0.100 !       0.56 eA-3
Q159 0.343 0.725 0.922 !       0.56 eA-3
Q160 0.594 0.251 0.455 !       0.56 eA-3
Q161 0.060 0.458 0.216 !       0.56 eA-3
C162 0.430 0.530 0.610 !       0.56 eA-3
Q163 0.847 0.141 0.794 !       0.56 eA-3
Q164 0.434 0.935 0.167 !       0.56 eA-3
C165 0.310 0.481 0.550 !       0.56 eA-3
Q166 0.318 0.057 0.275 !       0.56 eA-3
C167 0.531 0.489 0.442 !       0.56 eA-3
Q168 0.369 0.659 0.440 !       0.55 eA-3
Q169 0.531 0.298 0.562 !       0.55 eA-3
Q170 0.964 0.564 0.124 !       0.55 eA-3
Q171 0.874 0.969 0.377 !       0.55 eA-3
Q172 0.290 0.873 0.281 !       0.54 eA-3
C173 0.022 0.618 0.389 !       0.54 eA-3
Q174 0.249 0.876 0.610 !       0.54 eA-3
Q175 0.019 0.794 0.141 !       0.54 eA-3
Q176 0.999 0.494 0.140 !       0.54 eA-3
Q177 0.308 0.063 0.219 !       0.53 eA-3
Q178 0.028 0.863 0.145 !       0.53 eA-3
Q179 0.992 0.027 0.780 !       0.53 eA-3
Q180 0.466 0.236 0.912 !       0.53 eA-3
Q181 0.563 0.182 0.959 !       0.53 eA-3
Q182 0.503 0.894 0.780 !       0.53 eA-3
Q183 0.783 0.910 0.118 !       0.52 eA-3
Q184 0.307 0.952 0.420 !       0.52 eA-3
Q185 0.855 0.460 0.282 !       0.52 eA-3
Q186 0.280 0.118 0.986 !       0.52 eA-3
Q187 0.750 0.780 0.112 !       0.52 eA-3
Q188 0.841 0.092 0.837 !       0.51 eA-3
Q189 0.844 0.972 0.200 !       0.51 eA-3
Q190 0.752 0.625 0.470 !       0.51 eA-3
C191 0.942 0.392 0.466 !       0.51 eA-3
Q192 0.367 0.867 0.237 !       0.51 eA-3
Q193 0.035 0.862 0.519 !       0.51 eA-3
Q194 0.317 0.473 0.139 !       0.50 eA-3
Q195 0.851 0.732 0.281 !       0.50 eA-3
Q196 0.283 0.236 0.406 !       0.50 eA-3
Q197 0.507 0.953 0.583 !       0.50 eA-3
Q198 0.880 0.987 0.315 !       0.50 eA-3
Q199 0.618 0.885 0.848 !       0.50 eA-3
)
;
_shelx_fab_checksum              93202
loop_
_space_group_symop_operation_xyz
'x, y, z'
'-x, y+1/2, -z+1/2'
'-x, -y, -z'
'x, -y-1/2, z-1/2'
loop_
_atom_site_label
_atom_site_type_symbol
_atom_site_fract_x
_atom_site_fract_y
_atom_site_fract_z
_atom_site_U_iso_or_equiv
_atom_site_adp_type
_atom_site_occupancy
_atom_site_site_symmetry_order
_atom_site_calc_flag
_atom_site_refinement_flags_posn
_atom_site_refinement_flags_adp
_atom_site_refinement_flags_occupancy
_atom_site_disorder_assembly
_atom_site_disorder_group
Eu1 Eu -0.86606(2) 0.94891(2) 0.59219(2) 0.00691(4) Uani 1 1 d . . . . .
Eu2 Eu -0.62596(2) 1.10270(2) 0.46060(2) 0.00683(5) Uani 1 1 d . . . . .
N1 N -0.8807(4) 1.0563(2) 0.70632(17) 0.0154(6) Uani 1 1 d . . . . .
N2 N -0.5699(4) 1.2158(2) 0.56962(16) 0.0136(6) Uani 1 1 d . . . . .
O1 O -0.5787(3) 1.00917(15) 0.57214(12) 0.0086(5) Uani 1 1 d . . . . .
H1 H -0.531103 1.042088 0.620093 0.010 Uiso 1 1 calc R . . . .
O2 O -0.9070(3) 1.07687(16) 0.51358(12) 0.0089(5) Uani 1 1 d . . . . .
H2 H -0.940007 1.126667 0.547087 0.011 Uiso 1 1 calc R . . . .
O3 O -1.1643(3) 0.98740(17) 0.62678(13) 0.0136(5) Uani 1 1 d . . . . .
O4 O -1.3479(3) 1.06803(19) 0.69409(14) 0.0198(6) Uani 1 1 d . . . . .
O5 O -0.9506(4) 0.80700(19) 0.62923(15) 0.0248(6) Uani 1 1 d . . . . .
O6 O -0.7857(3) 1.23155(17) 0.42828(14) 0.0163(6) Uani 1 1 d . . . . .
O7 O -0.3147(3) 1.13980(17) 0.49470(13) 0.0134(5) Uani 1 1 d . . . . .
O8 O -0.1052(3) 1.20651(19) 0.57356(15) 0.0206(6) Uani 1 1 d . . . . .
O9 O -0.6919(3) 0.90135(18) 0.70786(13) 0.0159(5) Uani 1 1 d . . . . .
O10 O -0.5673(3) 1.14263(19) 0.33122(14) 0.0214(6) Uani 1 1 d . . . . .
C1 C -1.0389(4) 1.0856(2) 0.7252(2) 0.0139(7) Uani 1 1 d . . . . .
C2 C -1.0598(5) 1.1492(3) 0.7810(2) 0.0157(8) Uani 1 1 d . . . . .
H2A H -1.174358 1.169293 0.790851 0.019 Uiso 1 1 calc R . . . .
C3 C -0.9108(5) 1.3168(3) 0.3222(2) 0.0155(8) Uani 1 1 d . . . . .
C4 C -0.7473(5) 1.1496(3) 0.8078(2) 0.0218(9) Uani 1 1 d . . . . .
H4 H -0.643062 1.169256 0.837222 0.026 Uiso 1 1 calc R . . . .
C5 C -0.7381(5) 1.0872(3) 0.7498(2) 0.0201(8) Uani 1 1 d . . . . .
H5 H -0.625120 1.064864 0.740152 0.024 Uiso 1 1 calc R . . . .
C6 C -1.1986(4) 1.0439(3) 0.6793(2) 0.0147(8) Uani 1 1 d . . . . .
C7 C -0.9179(4) 1.2411(2) 0.37956(19) 0.0137(7) Uani 1 1 d . . . . .
C8 C -0.4026(4) 1.2334(2) 0.59637(19) 0.0134(7) Uani 1 1 d . . . . .
C9 C -0.3580(5) 1.2854(3) 0.6614(2) 0.0161(8) Uani 1 1 d . . . . .
H9 H -0.237900 1.298756 0.676792 0.019 Uiso 1 1 calc R . . . .
C10 C -0.5054(4) 0.8179(2) 0.79570(19) 0.0140(7) Uani 1 1 d . . . . .
C11 C -0.6668(5) 1.3024(3) 0.6747(2) 0.0211(9) Uani 1 1 d . . . . .
H11 H -0.762272 1.326015 0.700720 0.025 Uiso 1 1 calc R . . . .
C12 C -0.7002(5) 1.2530(3) 0.6078(2) 0.0194(8) Uani 1 1 d . . . . .
H12 H -0.819380 1.244625 0.587514 0.023 Uiso 1 1 calc R . . . .
C13 C -0.2597(4) 1.1917(3) 0.5510(2) 0.0145(7) Uani 1 1 d . . . . .
C14 C -0.5461(4) 0.8637(2) 0.71818(19) 0.0135(7) Uani 1 1 d . . . . .
loop_
_atom_site_aniso_label
_atom_site_aniso_U_11
_atom_site_aniso_U_22
_atom_site_aniso_U_33
_atom_site_aniso_U_23
_atom_site_aniso_U_13
_atom_site_aniso_U_12
Eu1 0.00591(8) 0.00806(9) 0.00672(8) 0.00050(6) 0.00021(5) 0.00003(6)
Eu2 0.00587(8) 0.00785(9) 0.00678(8) 0.00019(6) 0.00051(5) 0.00009(6)
N1 0.0098(14) 0.0174(18) 0.0189(15) -0.0061(13) -0.0002(11) 0.0008(12)
N2 0.0113(14) 0.0146(18) 0.0143(14) -0.0023(12) -0.0026(11) 0.0022(12)
O1 0.0098(11) 0.0066(13) 0.0090(11) -0.0011(9) -0.0021(8) -0.0017(9)
O2 0.0099(11) 0.0088(13) 0.0076(10) -0.0016(9) -0.0010(8) 0.0000(9)
O3 0.0076(11) 0.0210(16) 0.0124(12) -0.0068(10) 0.0021(9) -0.0014(10)
O4 0.0096(12) 0.0308(18) 0.0192(13) -0.0119(11) 0.0023(9) 0.0001(11)
O5 0.0283(15) 0.0194(17) 0.0249(14) 0.0073(12) -0.0103(11) -0.0100(12)
O6 0.0143(12) 0.0190(16) 0.0153(12) 0.0052(10) -0.0014(9) 0.0043(11)
O7 0.0083(11) 0.0181(15) 0.0143(12) -0.0073(10) 0.0033(9) -0.0014(10)
O8 0.0089(12) 0.0260(17) 0.0270(14) -0.0152(12) 0.0016(10) -0.0004(11)
O9 0.0122(12) 0.0222(16) 0.0132(12) 0.0073(10) 0.0019(9) 0.0010(11)
O10 0.0239(14) 0.0272(18) 0.0150(12) 0.0097(11) 0.0138(10) 0.0091(12)
C1 0.0139(17) 0.012(2) 0.0151(17) 0.0011(14) -0.0042(13) -0.0003(14)
C2 0.0150(17) 0.015(2) 0.0168(17) -0.0017(14) 0.0002(13) 0.0001(15)
C3 0.0151(17) 0.018(2) 0.0141(16) 0.0028(14) 0.0064(13) -0.0007(15)
C4 0.0135(17) 0.027(3) 0.0240(19) -0.0093(17) -0.0005(14) -0.0019(16)
C5 0.0099(16) 0.027(2) 0.0241(19) -0.0086(17) 0.0067(14) -0.0017(16)
C6 0.0107(16) 0.018(2) 0.0143(17) -0.0044(14) -0.0018(13) 0.0011(15)
C7 0.0144(16) 0.014(2) 0.0131(16) 0.0017(14) 0.0046(13) 0.0003(15)
C8 0.0118(16) 0.014(2) 0.0142(16) -0.0017(14) 0.0022(13) -0.0007(14)
C9 0.0135(17) 0.015(2) 0.0187(18) -0.0028(15) -0.0055(13) -0.0038(15)
C10 0.0148(17) 0.016(2) 0.0110(16) 0.0039(14) 0.0019(13) 0.0005(15)
C11 0.0153(18) 0.021(2) 0.026(2) -0.0115(17) 0.0001(15) -0.0003(16)
C12 0.0127(17) 0.024(2) 0.0214(18) -0.0083(16) -0.0016(14) -0.0006(16)
C13 0.0114(16) 0.016(2) 0.0160(17) -0.0058(14) 0.0014(13) -0.0004(14)
C14 0.0169(17) 0.011(2) 0.0118(16) 0.0036(13) -0.0017(13) -0.0040(14)
loop_
_atom_type_symbol
_atom_type_description
_atom_type_scat_dispersion_real
_atom_type_scat_dispersion_imag
_atom_type_scat_source
C C 0.0033 0.0016 'International Tables Vol C Tables 4.2.6.8 and 6.1.1.4'
H H 0.0000 0.0000 'International Tables Vol C Tables 4.2.6.8 and 6.1.1.4'
N N 0.0061 0.0033 'International Tables Vol C Tables 4.2.6.8 and 6.1.1.4'
O O 0.0106 0.0060 'International Tables Vol C Tables 4.2.6.8 and 6.1.1.4'
Eu Eu -0.1578 3.6682 'International Tables Vol C Tables 4.2.6.8 and 6.1.1.4'
loop_
_geom_angle_atom_site_label_1
_geom_angle_atom_site_label_2
_geom_angle_atom_site_label_3
_geom_angle
_geom_angle_site_symmetry_1
_geom_angle_site_symmetry_3
Eu1 Eu1 Eu2 109.777(6) 3_376 3_476
Eu1 Eu1 Eu2 57.940(5) 3_376 3_376
Eu2 Eu1 Eu1 61.698(5) . 3_376
Eu2 Eu1 Eu2 119.638(5) . 3_376
Eu2 Eu1 Eu2 145.007(6) 3_376 3_476
Eu2 Eu1 Eu2 59.731(5) . 3_476
N1 Eu1 Eu1 106.67(7) . 3_376
N1 Eu1 Eu2 113.40(6) . 3_476
N1 Eu1 Eu2 94.91(7) . .
N1 Eu1 Eu2 101.58(6) . 3_376
O1 Eu1 Eu1 98.56(5) . 3_376
O1 Eu1 Eu2 36.97(5) . .
O1 Eu1 Eu2 34.51(6) . 3_476
O1 Eu1 Eu2 156.35(5) . 3_376
O1 Eu1 N1 87.07(8) . .
O1 Eu1 O3 142.89(9) . .
O1 Eu1 O7 65.58(8) . 3_476
O2 Eu1 Eu1 35.62(5) . 3_376
O2 Eu1 Eu1 35.24(6) 3_376 3_376
O2 Eu1 Eu2 87.76(5) . 3_376
O2 Eu1 Eu2 90.96(5) 3_376 .
O2 Eu1 Eu2 34.68(5) 3_376 3_376
O2 Eu1 Eu2 115.21(5) 3_376 3_476
O2 Eu1 Eu2 97.13(5) . 3_476
O2 Eu1 Eu2 37.52(5) . .
O2 Eu1 N1 126.52(8) 3_376 .
O2 Eu1 N1 82.47(9) . .
O2 Eu1 O1 71.43(8) . .
O2 Eu1 O1 123.85(7) 3_376 .
O2 Eu1 O2 70.86(9) . 3_376
O2 Eu1 O3 81.37(8) . .
O2 Eu1 O3 66.44(7) 3_376 .
O2 Eu1 O7 100.46(8) . 3_476
O2 Eu1 O7 82.31(7) 3_376 3_476
O3 Eu1 Eu1 70.24(5) . 3_376
O3 Eu1 Eu2 118.61(6) . .
O3 Eu1 Eu2 177.32(6) . 3_476
O3 Eu1 Eu2 37.37(5) . 3_376
O3 Eu1 N1 64.27(8) . .
O3 Eu1 O7 146.39(7) . 3_476
O5 Eu1 Eu1 116.58(6) . 3_376
O5 Eu1 Eu2 98.65(7) . 3_476
O5 Eu1 Eu2 151.36(7) . .
O5 Eu1 Eu2 66.23(6) . 3_376
O5 Eu1 N1 111.85(10) . .
O5 Eu1 O1 130.98(9) . .
O5 Eu1 O2 151.95(8) . .
O5 Eu1 O2 81.45(8) . 3_376
O5 Eu1 O3 83.62(10) . .
O5 Eu1 O7 79.63(9) . 3_476
O5 Eu1 O9 69.14(9) . .
O7 Eu1 Eu1 91.63(5) 3_476 3_376
O7 Eu1 Eu2 71.97(6) 3_476 .
O7 Eu1 Eu2 109.02(5) 3_476 3_376
O7 Eu1 Eu2 35.99(5) 3_476 3_476
O7 Eu1 N1 149.32(8) 3_476 .
O9 Eu1 Eu1 174.07(7) . 3_376
O9 Eu1 Eu2 125.90(6) . 3_376
O9 Eu1 Eu2 114.26(6) . .
O9 Eu1 Eu2 69.81(6) . 3_476
O9 Eu1 N1 68.72(9) . .
O9 Eu1 O1 77.75(8) . .
O9 Eu1 O2 150.57(9) . 3_376
O9 Eu1 O2 138.54(8) . .
O9 Eu1 O3 109.88(8) . .
O9 Eu1 O7 91.04(8) . 3_476
Eu1 Eu2 Eu1 145.005(6) 3_376 3_476
Eu1 Eu2 Eu1 120.268(5) . 3_476
Eu1 Eu2 Eu1 60.362(5) . 3_376
Eu1 Eu2 Eu2 62.293(5) . 3_476
Eu2 Eu2 Eu1 57.975(5) 3_476 3_476
Eu2 Eu2 Eu1 110.752(7) 3_476 3_376
N2 Eu2 Eu1 113.79(6) . 3_376
N2 Eu2 Eu1 101.19(6) . 3_476
N2 Eu2 Eu1 93.82(7) . .
N2 Eu2 Eu2 105.33(6) . 3_476
O1 Eu2 Eu1 115.72(5) 3_476 3_376
O1 Eu2 Eu1 91.81(5) 3_476 .
O1 Eu2 Eu1 34.52(5) 3_476 3_476
O1 Eu2 Eu1 97.93(5) . 3_376
O1 Eu2 Eu1 37.67(5) . .
O1 Eu2 Eu1 88.33(5) . 3_476
O1 Eu2 Eu2 36.20(5) . 3_476
O1 Eu2 Eu2 35.56(5) 3_476 3_476
O1 Eu2 N2 80.76(9) . .
O1 Eu2 N2 125.67(8) 3_476 .
O1 Eu2 O1 71.76(8) . 3_476
O1 Eu2 O2 71.76(7) . .
O1 Eu2 O3 81.70(8) 3_476 3_376
O1 Eu2 O3 100.17(8) . 3_376
O1 Eu2 O7 66.31(8) 3_476 .
O1 Eu2 O7 82.82(8) . .
O2 Eu2 Eu1 37.16(5) . .
O2 Eu2 Eu1 157.12(6) . 3_476
O2 Eu2 Eu1 34.73(5) . 3_376
O2 Eu2 Eu2 99.33(6) . 3_476
O2 Eu2 N2 86.95(8) . .
O2 Eu2 O1 124.67(8) . 3_476
O2 Eu2 O3 65.66(7) . 3_376
O2 Eu2 O7 144.55(7) . .
O3 Eu2 Eu1 36.46(5) 3_376 3_376
O3 Eu2 Eu1 71.72(6) 3_376 .
O3 Eu2 Eu1 108.56(5) 3_376 3_476
O3 Eu2 Eu2 91.05(6) 3_376 3_476
O3 Eu2 N2 150.25(8) 3_376 .
O6 Eu2 Eu1 69.43(6) . 3_376
O6 Eu2 Eu1 113.53(6) . .
O6 Eu2 Eu1 125.91(6) . 3_476
O6 Eu2 Eu2 173.26(6) . 3_476
O6 Eu2 N2 69.07(9) . .
O6 Eu2 O1 150.88(8) . 3_476
O6 Eu2 O1 137.27(8) . .
O6 Eu2 O2 76.97(8) . .
O6 Eu2 O3 92.49(8) . 3_376
O6 Eu2 O7 108.75(9) . .
O7 Eu2 Eu1 120.26(6) . .
O7 Eu2 Eu1 177.96(6) . 3_376
O7 Eu2 Eu1 36.77(5) . 3_476
O7 Eu2 Eu2 70.95(6) . 3_476
O7 Eu2 N2 64.42(8) . .
O7 Eu2 O3 145.33(8) . 3_376
O10 Eu2 Eu1 95.53(6) . 3_376
O10 Eu2 Eu1 147.25(7) . .
O10 Eu2 Eu1 66.05(6) . 3_476
O10 Eu2 Eu2 114.17(7) . 3_476
O10 Eu2 N2 117.31(10) . .
O10 Eu2 O1 150.36(9) . .
O10 Eu2 O1 78.62(8) . 3_476
O10 Eu2 O2 128.93(8) . .
O10 Eu2 O3 75.90(9) . 3_376
O10 Eu2 O6 72.30(9) . .
O10 Eu2 O7 84.65(8) . .
C1 N1 Eu1 119.5(2) . .
C1 N1 C5 116.4(3) . .
C5 N1 Eu1 124.2(2) . .
C8 N2 Eu2 118.8(2) . .
C8 N2 C12 117.4(3) . .
C12 N2 Eu2 123.4(2) . .
Eu1 O1 H1 110.7 . .
Eu2 O1 Eu1 105.35(8) . .
Eu2 O1 Eu1 110.97(9) 3_476 .
Eu2 O1 Eu2 108.24(8) . 3_476
Eu2 O1 H1 110.7 . .
Eu2 O1 H1 110.7 3_476 .
Eu1 O2 Eu1 109.15(9) . 3_376
Eu1 O2 Eu2 105.32(8) . .
Eu1 O2 H2 110.6 . .
Eu1 O2 H2 110.6 3_376 .
Eu2 O2 Eu1 110.60(8) . 3_376
Eu2 O2 H2 110.6 . .
Eu1 O3 Eu2 106.16(9) . 3_376
C6 O3 Eu1 124.8(2) . .
C6 O3 Eu2 129.1(2) . 3_376
C7 O5 Eu1 138.6(2) 3_376 .
C7 O6 Eu2 128.1(2) . .
Eu2 O7 Eu1 107.23(9) . 3_476
C13 O7 Eu1 128.0(2) . 3_476
C13 O7 Eu2 124.6(2) . .
C14 O9 Eu1 133.1(2) . .
C14 O10 Eu2 142.5(2) 3_476 .
N1 C1 C2 123.7(3) . .
N1 C1 C6 115.1(3) . .
C2 C1 C6 121.2(3) . .
C1 C2 H2A 120.6 . .
C1 C2 C3 118.8(3) . 4_586
C3 C2 H2A 120.6 4_586 .
C2 C3 C4 118.4(3) 4_585 4_585
C2 C3 C7 122.9(3) 4_585 .
C4 C3 C7 118.6(3) 4_585 .
C3 C4 H4 120.5 4_586 .
C5 C4 C3 119.0(3) . 4_586
C5 C4 H4 120.5 . .
N1 C5 C4 123.4(3) . .
N1 C5 H5 118.3 . .
C4 C5 H5 118.3 . .
O3 C6 C1 116.2(3) . .
O4 C6 O3 125.7(3) . .
O4 C6 C1 118.1(3) . .
O5 C7 O6 126.8(3) 3_376 .
O5 C7 C3 116.9(3) 3_376 .
O6 C7 C3 116.2(3) . .
N2 C8 C9 123.5(3) . .
N2 C8 C13 115.9(3) . .
C9 C8 C13 120.6(3) . .
C8 C9 H9 120.8 . .
C8 C9 C10 118.4(3) . 2_456
C10 C9 H9 120.8 2_456 .
C9 C10 C14 120.8(3) 2_446 .
C11 C10 C9 117.8(3) 2_446 2_446
C11 C10 C14 121.4(3) 2_446 .
C10 C11 H11 119.9 2_456 .
C12 C11 C10 120.1(3) . 2_456
C12 C11 H11 119.9 . .
N2 C12 C11 122.5(3) . .
N2 C12 H12 118.7 . .
C11 C12 H12 118.7 . .
O7 C13 C8 115.8(3) . .
O8 C13 O7 126.3(3) . .
O8 C13 C8 117.8(3) . .
O9 C14 C10 117.4(3) . .
O10 C14 O9 126.3(3) 3_476 .
O10 C14 C10 116.3(3) 3_476 .
loop_
_geom_bond_atom_site_label_1
_geom_bond_atom_site_label_2
_geom_bond_distance
_geom_bond_site_symmetry_2
Eu1 Eu1 3.9155(3) 3_376
Eu1 Eu2 3.8179(2) .
Eu1 Eu2 3.9663(2) 3_376
Eu1 Eu2 3.9868(2) 3_476
Eu1 N1 2.556(3) .
Eu1 O1 2.420(2) .
Eu1 O2 2.414(2) 3_376
Eu1 O2 2.391(2) .
Eu1 O3 2.454(2) .
Eu1 O5 2.386(3) .
Eu1 O7 2.499(2) 3_476
Eu1 O9 2.387(2) .
Eu2 Eu2 3.8892(3) 3_476
Eu2 N2 2.552(3) .
Eu2 O1 2.381(2) .
Eu2 O1 2.419(2) 3_476
Eu2 O2 2.411(2) .
Eu2 O3 2.507(2) 3_376
Eu2 O6 2.375(3) .
Eu2 O7 2.453(2) .
Eu2 O10 2.349(2) .
N1 C1 1.345(4) .
N1 C5 1.346(4) .
N2 C8 1.341(4) .
N2 C12 1.351(5) .
O1 H1 1.0000 .
O2 H2 1.0000 .
O3 C6 1.288(4) .
O4 C6 1.237(4) .
O5 C7 1.244(4) 3_376
O6 C7 1.254(4) .
O7 C13 1.289(4) .
O8 C13 1.225(4) .
O9 C14 1.251(4) .
O10 C14 1.249(4) 3_476
C1 C2 1.381(5) .
C1 C6 1.528(5) .
C2 H2A 0.9500 .
C2 C3 1.383(5) 4_586
C3 C4 1.384(5) 4_585
C3 C7 1.524(5) .
C4 H4 0.9500 .
C4 C5 1.382(5) .
C5 H5 0.9500 .
C8 C9 1.383(5) .
C8 C13 1.521(5) .
C9 H9 0.9500 .
C9 C10 1.404(5) 2_456
C10 C11 1.382(5) 2_446
C10 C14 1.499(4) .
C11 H11 0.9500 .
C11 C12 1.372(5) .
C12 H12 0.9500 .
