#------------------------------------------------------------------------------
#$Date: 2021-12-07 06:03:46 +0200 (Tue, 07 Dec 2021) $
#$Revision: 271237 $
#$URL: file:///home/coder/svn-repositories/cod/cif/1/56/49/1564911.cif $
#------------------------------------------------------------------------------
#
# This file is available in the Crystallography Open Database (COD),
# http://www.crystallography.net/
#
# All data on this site have been placed in the public domain by the
# contributors.
#
data_1564911
loop_
_publ_author_name
'Bara, Dominic'
'Meekel, Emily G.'
'Pakamor\.e, Ignas'
'Wilson, Claire'
'Ling, Sanliang'
'Forgan, Ross S.'
_publ_section_title
;
 Exploring and expanding the Fe-terephthalate metal-organic framework
 phase space by coordination and oxidation modulation.
;
_journal_issue                   12
_journal_name_full               'Materials horizons'
_journal_page_first              3377
_journal_page_last               3386
_journal_paper_doi               10.1039/d1mh01663f
_journal_volume                  8
_journal_year                    2021
_chemical_formula_moiety         'C8 H5 Fe1 O5'
_chemical_formula_sum            'C8 H5 Fe O5'
_chemical_formula_weight         236.97
_space_group_crystal_system      triclinic
_space_group_IT_number           2
_space_group_name_Hall           '-P 1'
_space_group_name_H-M_alt        'P -1'
_atom_sites_solution_hydrogens   mixed
_audit_block_doi                 10.5517/ccdc.csd.cc28394v
_audit_creation_date             2019-08-05
_audit_creation_method
;
Olex2 1.2
(compiled 2018.05.29 svn.r3508 for OlexSys, GUI svn.r5506)
;
_audit_update_record
;
2021-06-09 deposited with the CCDC.	2021-10-12 downloaded from the CCDC.
;
_cell_angle_alpha                117.292(6)
_cell_angle_beta                 94.188(7)
_cell_angle_gamma                103.254(6)
_cell_formula_units_Z            2
_cell_length_a                   6.8403(12)
_cell_length_b                   10.7142(18)
_cell_length_c                   10.7928(18)
_cell_measurement_reflns_used    2295
_cell_measurement_temperature    150
_cell_measurement_theta_max      28.166
_cell_measurement_theta_min      3.127
_cell_volume                     669.5(2)
_computing_cell_refinement       'SAINT V8.37A (Bruker-AXS, 2016)'
_computing_data_collection       'APEX3 Ver. 2016.9-0 (Bruker-AXS, 2016)'
_computing_data_reduction        'APEX3 Ver. 2016.9-0 (Bruker-AXS, 2016)'
_computing_molecular_graphics    'Olex2 (Dolomanov et al., 2009)'
_computing_publication_material  'Olex2 (Dolomanov et al., 2009)'
_computing_structure_refinement  'XL (Sheldrick, 2008)'
_computing_structure_solution    'SHELXT 2014/5 (Sheldrick, 2014)'
_diffrn_ambient_temperature      150
_diffrn_detector                 'charge integrating pixel array detector'
_diffrn_detector_area_resol_mean 7.4074
_diffrn_detector_type            'Bruker PHOTON II'
_diffrn_measured_fraction_theta_full 0.997
_diffrn_measured_fraction_theta_max 0.994
_diffrn_measurement_device       'four-circle diffractometer'
_diffrn_measurement_device_type  'Bruker D8 VENTURE'
_diffrn_measurement_method       '\f and \w scans'
_diffrn_radiation_collimation    'focusing mirrors'
_diffrn_radiation_monochromator  'multilayer mirror optics'
_diffrn_radiation_type           MoK\a
_diffrn_radiation_wavelength     0.71073
_diffrn_reflns_av_R_equivalents  0.0542
_diffrn_reflns_av_unetI/netI     0.0694
_diffrn_reflns_Laue_measured_fraction_full 0.997
_diffrn_reflns_Laue_measured_fraction_max 0.994
_diffrn_reflns_number            13960
_diffrn_reflns_point_group_measured_fraction_full 0.997
_diffrn_reflns_point_group_measured_fraction_max 0.994
_diffrn_reflns_theta_full        25.242
_diffrn_reflns_theta_max         28.252
_diffrn_reflns_theta_min         2.228
_diffrn_source                   'microfocus sealed tube'
_diffrn_source_type              'INCOATEC I\ms 3.0'
_diffrn_standards_number         0
_exptl_absorpt_coefficient_mu    1.119
_exptl_absorpt_correction_T_max  0.745687
_exptl_absorpt_correction_T_min  0.637354
_exptl_absorpt_correction_type   multi-scan
_exptl_absorpt_process_details
;
 TWINABS-2012/1 (Bruker,2012) was used for absorption correction.

Final HKLF 4 output contains 13960 reflections, Rint = 0.0542
 (7774 with I > 3sig(I), Rint = 0.0432)
;
_exptl_crystal_colour            yellow
_exptl_crystal_colour_primary    yellow
_exptl_crystal_density_diffrn    1.175
_exptl_crystal_description       column
_exptl_crystal_F_000             238
_exptl_crystal_size_max          0.16
_exptl_crystal_size_mid          0.04
_exptl_crystal_size_min          0.03
_refine_diff_density_max         0.917
_refine_diff_density_min         -0.548
_refine_diff_density_rms         0.108
_refine_ls_extinction_method     none
_refine_ls_goodness_of_fit_ref   1.040
_refine_ls_hydrogen_treatment    mixed
_refine_ls_matrix_type           full
_refine_ls_number_parameters     134
_refine_ls_number_reflns         3285
_refine_ls_number_restraints     0
_refine_ls_restrained_S_all      1.040
_refine_ls_R_factor_all          0.0826
_refine_ls_R_factor_gt           0.0599
_refine_ls_shift/su_max          0.000
_refine_ls_shift/su_mean         0.000
_refine_ls_structure_factor_coef Fsqd
_refine_ls_weighting_details
'w=1/[\s^2^(Fo^2^)+(0.0458P)^2^+2.1623P] where P=(Fo^2^+2Fc^2^)/3'
_refine_ls_weighting_scheme      calc
_refine_ls_wR_factor_gt          0.1295
_refine_ls_wR_factor_ref         0.1366
_reflns_Friedel_coverage         0.000
_reflns_number_gt                2479
_reflns_number_total             3285
_reflns_threshold_expression     'I > 2\s(I)'
_cod_data_source_file            d1mh01663f2.cif
_cod_data_source_block           MIL53_Fe_DMF
_cod_depositor_comments
'Adding full bibliography for 1564910--1564914.cif.'
_cod_original_formula_sum        'C8 H5 Fe1 O5'
_cod_database_code               1564911
_shelx_shelxl_version_number     2018/3
_shelx_space_group_comment
;
The symmetry employed for this shelxl refinement is uniquely defined
by the following loop, which should always be used as a source of
symmetry information in preference to the above space-group names.
They are only intended as comments.
;
_shelx_estimated_absorpt_t_max   0.967
_shelx_estimated_absorpt_t_min   0.841
_olex2_refinement_description
;
1. Fixed Uiso
 At 1.2 times of:
  All C(H) groups
2.a Aromatic/amide H refined with riding coordinates:
 C3(H3A), C4(H4), C3A(H3AA), C4A(H4A)
;
_shelx_res_file
;
TITL mo_em_01_75a_150k_0m_4_a.res in P-1
    mo_em_01_75a_150k_0m_4_sq.res
    created by SHELXL-2018/3 at 13:49:47 on 05-Aug-2019
REM Old TITL mo_EM_01_75A_150K_0m_4 in P-1
REM SHELXT solution in P-1
REM R1 0.182, Rweak 0.014, Alpha 0.051, Orientation as input
REM Formula found by SHELXT: C10 O6 Fe
CELL 0.71073 6.8403 10.7142 10.7928 117.292 94.188 103.254
ZERR 1 0.0012 0.0018 0.0018 0.006 0.007 0.006
LATT 1
SFAC C H Fe O
UNIT 16 10 2 10

L.S. 5 0 47
PLAN  20
SIZE 0.03 0.04 0.16
TEMP -123.15
BOND $H
list 4
ABIN
fmap 2 53
acta
REM <olex2.extras>
REM <HklSrc "%.\\mo_EM_01_75A_150K_0m_4_sq.hkl">
REM </olex2.extras>

WGHT    0.045800    2.162300
FVAR       0.90683
FE1   3    0.500000    0.500000    0.500000    10.50000    0.01573    0.00965 =
         0.01068    0.00021    0.00315   -0.00548
FE2   3    1.000000    0.500000    0.500000    10.50000    0.01682    0.00813 =
         0.01530   -0.00099    0.00750   -0.00532
O1    4    0.667486    0.690331    0.673538    11.00000    0.02088    0.01383 =
         0.01487   -0.00505    0.00085   -0.00516
O2    4    0.973580    0.649930    0.693218    11.00000    0.02267    0.01881 =
         0.01494   -0.00444    0.00611   -0.00019
O3    4    0.263038    0.511144    0.589715    11.00000    0.01898    0.01780 =
         0.01182    0.00094    0.00578   -0.00414
C1    1    0.850734    0.725370    0.735105    11.00000    0.02437    0.01526 =
         0.01172   -0.00212    0.00773   -0.00338
C2    1    0.929081    0.867858    0.873157    11.00000    0.01538    0.01706 =
         0.01901   -0.00354    0.00612   -0.00454
C3    1    0.801131    0.955901    0.924504    11.00000    0.01331    0.02921 =
         0.02250   -0.00359    0.00153   -0.00357
AFIX  43
H3A   2    0.665147    0.925482    0.872629    11.00000   -1.20000
AFIX   0
C4    1    0.871705    1.088241    1.051489    11.00000    0.01753    0.02422 =
         0.02564   -0.00814    0.00794    0.00144
AFIX  43
H4    2    0.784331    1.148427    1.086661    11.00000   -1.20000
AFIX   0
O1A   4    0.428184    0.622295    0.417795    11.00000    0.02602    0.02122 =
         0.02023    0.01097    0.00931    0.00095
O2A   4    1.135861    0.674711    0.470874    11.00000    0.02011    0.01786 =
         0.04038    0.01436    0.01021   -0.00164
C1A   1    0.317410    0.707916    0.455058    11.00000    0.01911    0.01828 =
         0.01986    0.00947    0.00273   -0.00463
C2A   1    0.411257    0.859889    0.477835    11.00000    0.01828    0.02349 =
         0.02352    0.01710   -0.00112   -0.00646
C3A   1    0.624081    0.916639    0.510435    11.00000    0.01822    0.02709 =
         0.04736    0.02479    0.00257    0.00049
AFIX  43
H3AA  2    0.707816    0.859840    0.517835    11.00000   -1.20000
AFIX   0
C4A   1    0.713095    1.057650    0.532114    11.00000    0.01587    0.03103 =
         0.04005    0.02517    0.00138   -0.00705
AFIX  43
H4A   2    0.858228    1.097324    0.553614    11.00000   -1.20000
AFIX   0
H3    2    0.301819    0.541497    0.677552    11.00000    0.01856
HKLF 4




REM  mo_em_01_75a_150k_0m_4_a.res in P-1
REM wR2 = 0.136576, GooF = S = 1.04026, Restrained GooF = 1.04026 for all data
REM R1 = 0.059934 for 2479 Fo > 4sig(Fo) and 0.082634 for all 3285 data
REM 134 parameters refined using 0 restraints

END

WGHT      0.0467      2.1690

REM Highest difference peak  0.917,  deepest hole -0.548,  1-sigma level  0.108
Q1    1   0.5042  0.5008  0.4038  11.00000  0.05    0.92
Q2    1   0.9966  0.4998  0.6007  11.00000  0.05    0.77
Q3    1   0.5109  0.5206  0.3359  11.00000  0.05    0.52
Q4    1   0.3812  0.6186  0.8793  11.00000  0.05    0.50
Q5    1   0.9403  0.6571  0.7590  11.00000  0.05    0.49
Q6    1   0.8932  0.8406  0.6055  11.00000  0.05    0.49
Q7    1   0.9808  1.1005  1.0591  11.00000  0.05    0.45
Q8    1   0.4678  0.5849  0.4745  11.00000  0.05    0.44
Q9    1   1.0933  0.5975  0.4964  11.00000  0.05    0.44
Q10   1   0.8787  0.4360  0.4608  11.00000  0.05    0.42
Q11   1   1.0555  0.4235  0.5350  11.00000  0.05    0.42
Q12   1   0.3852  0.8129  0.5063  11.00000  0.05    0.41
Q13   1   0.3097  0.7941  0.4426  11.00000  0.05    0.41
Q14   1   0.3525  0.8779  0.4227  11.00000  0.05    0.41
Q15   1   0.6567  0.6630  0.7373  11.00000  0.05    0.41
Q16   1   0.8909  0.8207  0.9449  11.00000  0.05    0.41
Q17   1   0.8671  0.7967  0.7824  11.00000  0.05    0.41
Q18   1   0.8861  0.4767  0.4238  11.00000  0.05    0.40
Q19   1   0.1937  0.4082  0.5511  11.00000  0.05    0.40
Q20   1   0.3879  0.6392  0.4965  11.00000  0.05    0.40
;
_shelx_res_checksum              8216
_shelx_fab_file
;
    1    0    0    -19.44      0.00
    2    0    0     -4.96      0.00
    3    0    0      3.94      0.00
    4    0    0     -4.43      0.00
    5    0    0      0.69      0.00
    6    0    0      0.34      0.00
    7    0    0     -0.51      0.00
    8    0    0      0.81      0.00
   -8    1    0     -1.68      0.00
   -7    1    0      2.06      0.00
   -6    1    0     -2.48      0.00
   -5    1    0     -0.42      0.00
   -4    1    0      1.37      0.00
   -3    1    0     -0.74      0.00
   -2    1    0      6.37      0.00
   -1    1    0     26.09      0.00
    1    1    0    -11.39      0.00
    2    1    0      3.46      0.00
    3    1    0     -1.93      0.00
    4    1    0      0.38      0.00
    5    1    0     -0.67      0.00
    6    1    0      1.89      0.00
    7    1    0     -2.03      0.00
    8    1    0      0.09      0.00
   -8    2    0      1.34      0.00
   -7    2    0     -1.86      0.00
   -6    2    0      2.16      0.00
   -5    2    0     -1.62      0.00
   -4    2    0      3.99      0.00
   -3    2    0     -0.41      0.00
   -2    2    0     -7.79      0.00
   -1    2    0     -1.07      0.00
    0    2    0     -6.63      0.00
    1    2    0      7.50      0.00
    2    2    0      7.32      0.00
    3    2    0     -4.11      0.00
    4    2    0      3.91      0.00
    5    2    0      0.06      0.00
    6    2    0     -3.68      0.00
    7    2    0      0.84      0.00
    8    2    0      0.16      0.00
   -9    3    0      1.49      0.00
   -8    3    0     -0.62      0.00
   -7    3    0      0.64      0.00
   -6    3    0     -1.93      0.00
   -5    3    0      2.95      0.00
   -4    3    0     -6.95      0.00
   -3    3    0      2.45      0.00
   -2    3    0      7.46      0.00
   -1    3    0     -8.46      0.00
    0    3    0      9.50      0.00
    1    3    0      2.77      0.00
    2    3    0     -8.07      0.00
    3    3    0      4.05      0.00
    4    3    0     -3.50      0.00
    5    3    0     -3.06      0.00
    6    3    0      3.16      0.00
    7    3    0     -0.63      0.00
   -9    4    0     -0.69      0.00
   -8    4    0      0.36      0.00
   -7    4    0     -1.13      0.00
   -6    4    0      0.85      0.00
   -5    4    0     -2.31      0.00
   -4    4    0      5.44      0.00
   -3    4    0     -2.71      0.00
   -2    4    0     -3.71      0.00
   -1    4    0      6.57      0.00
    0    4    0     -7.36      0.00
    1    4    0      1.39      0.00
    2    4    0     -0.73      0.00
    3    4    0      0.61      0.00
    4    4    0      0.18      0.00
    5    4    0      2.21      0.00
    6    4    0      0.26      0.00
    7    4    0     -0.63      0.00
   -9    5    0     -1.46      0.00
   -8    5    0     -0.22      0.00
   -7    5    0     -0.21      0.00
   -6    5    0      1.26      0.00
   -5    5    0      0.04      0.00
   -4    5    0     -2.72      0.00
   -3    5    0      0.93      0.00
   -2    5    0     -0.41      0.00
   -1    5    0     -4.39      0.00
    0    5    0      4.55      0.00
    1    5    0     -4.46      0.00
    2    5    0      3.63      0.00
    3    5    0     -2.01      0.00
    4    5    0      0.91      0.00
    5    5    0      1.92      0.00
    6    5    0     -2.96      0.00
   -8    6    0     -0.18      0.00
   -7    6    0      1.99      0.00
   -6    6    0     -1.37      0.00
   -5    6    0     -1.02      0.00
   -4    6    0      0.46      0.00
   -3    6    0     -1.37      0.00
   -2    6    0      2.81      0.00
   -1    6    0      0.74      0.00
    0    6    0     -0.33      0.00
    1    6    0      2.14      0.00
    2    6    0     -1.41      0.00
    3    6    0      1.60      0.00
    4    6    0      0.74      0.00
    5    6    0     -1.50      0.00
    6    6    0      1.66      0.00
   -8    7    0      0.07      0.00
   -7    7    0      2.62      0.00
   -6    7    0     -0.86      0.00
   -5    7    0      0.52      0.00
   -4    7    0      1.15      0.00
   -3    7    0     -0.20      0.00
   -2    7    0     -2.19      0.00
   -1    7    0      0.99      0.00
    0    7    0     -2.12      0.00
    1    7    0      0.02      0.00
    2    7    0     -0.01      0.00
    3    7    0     -0.88      0.00
    4    7    0     -1.38      0.00
    5    7    0      1.02      0.00
   -8    8    0      0.95      0.00
   -7    8    0     -1.47      0.00
   -6    8    0     -0.69      0.00
   -5    8    0      1.72      0.00
   -4    8    0     -1.34      0.00
   -3    8    0      0.62      0.00
   -2    8    0      1.85      0.00
   -1    8    0     -0.55      0.00
    0    8    0      1.68      0.00
    1    8    0     -0.88      0.00
    2    8    0      0.83      0.00
    3    8    0     -0.67      0.00
    4    8    0      1.45      0.00
    5    8    0     -0.05      0.00
   -8    9    0     -0.87      0.00
   -7    9    0      2.07      0.00
   -6    9    0     -0.59      0.00
   -5    9    0      0.46      0.00
   -4    9    0      0.95      0.00
   -3    9    0      0.20      0.00
   -2    9    0     -1.07      0.00
   -1    9    0      0.13      0.00
    0    9    0     -0.92      0.00
    1    9    0      0.17      0.00
    2    9    0     -1.80      0.00
    3    9    0      0.05      0.00
    4    9    0     -0.30      0.00
   -7   10    0      0.20      0.00
   -6   10    0     -0.15      0.00
   -5   10    0      1.52      0.00
   -4   10    0     -0.24      0.00
   -3   10    0     -1.49      0.00
   -2   10    0      0.36      0.00
   -1   10    0      0.40      0.00
    0   10    0     -1.15      0.00
    1   10    0     -1.12      0.00
    2   10    0      0.64      0.00
    3   10    0      0.03      0.00
   -6   11    0      0.81      0.00
   -5   11    0     -0.98      0.00
   -4   11    0     -0.15      0.00
   -3   11    0      0.94      0.00
   -2   11    0      0.29      0.00
   -1   11    0     -2.25      0.00
    0   11    0      0.54      0.00
    1   11    0      2.75      0.00
   -5   12    0     -0.78      0.00
   -4   12    0      1.50      0.00
   -3   12    0     -0.42      0.00
   -2   12    0      0.05      0.00
   -1   12    0      0.91      0.00
    0   12    0      0.14      0.00
    2  -13    1     -0.35      0.00
    3  -13    1     -0.75      0.00
   -1  -12    1     -2.96      0.00
    0  -12    1      0.26      0.00
    1  -12    1     -0.08      0.00
    2  -12    1     -0.07      0.00
    3  -12    1     -1.56      0.00
    4  -12    1      1.01      0.00
    5  -12    1     -0.01      0.00
   -2  -11    1     -0.20      0.00
   -1  -11    1      1.48      0.00
    0  -11    1      2.59      0.00
    2  -11    1     -0.12      0.00
    3  -11    1      1.21      0.00
    4  -11    1      1.22      0.00
    5  -11    1     -1.06      0.00
    6  -11    1      1.64      0.00
   -3  -10    1     -0.05      0.00
   -2  -10    1      0.52      0.00
   -1  -10    1      0.29      0.00
    0  -10    1     -2.36      0.00
    1  -10    1      0.87      0.00
    2  -10    1      1.59      0.00
    3  -10    1     -0.76      0.00
    4  -10    1     -0.09      0.00
    5  -10    1      0.75      0.00
    6  -10    1     -0.21      0.00
    7  -10    1      0.67      0.00
   -4   -9    1     -0.03      0.00
   -3   -9    1     -0.66      0.00
   -2   -9    1     -0.84      0.00
   -1   -9    1      0.40      0.00
    0   -9    1     -0.90      0.00
    1   -9    1     -1.18      0.00
    2   -9    1     -1.42      0.00
    3   -9    1      0.03      0.00
    4   -9    1      0.79      0.00
    5   -9    1      1.47      0.00
    6   -9    1      0.29      0.00
    7   -9    1     -0.63      0.00
    8   -9    1     -0.22      0.00
   -5   -8    1     -0.74      0.00
   -4   -8    1      0.89      0.00
   -3   -8    1      0.16      0.00
   -2   -8    1      1.46      0.00
   -1   -8    1     -1.83      0.00
    0   -8    1      2.23      0.00
    1   -8    1     -0.08      0.00
    2   -8    1      1.36      0.00
    3   -8    1      1.46      0.00
    4   -8    1     -1.24      0.00
    5   -8    1     -0.31      0.00
    6   -8    1      0.73      0.00
    7   -8    1     -1.57      0.00
    8   -8    1      0.30      0.00
   -6   -7    1     -0.38      0.00
   -5   -7    1      1.14      0.00
   -4   -7    1     -0.66      0.00
   -3   -7    1     -0.40      0.00
   -2   -7    1     -1.64      0.00
   -1   -7    1      1.79      0.00
    0   -7    1     -1.84      0.00
    1   -7    1      1.82      0.00
    2   -7    1     -1.76      0.00
    3   -7    1     -1.14      0.00
    4   -7    1      1.47      0.00
    5   -7    1      1.77      0.00
    6   -7    1     -0.07      0.00
    7   -7    1      0.54      0.00
    8   -7    1      0.12      0.00
   -6   -6    1      1.22      0.00
   -5   -6    1     -1.79      0.00
   -4   -6    1     -0.50      0.00
   -3   -6    1      1.38      0.00
   -2   -6    1     -1.52      0.00
   -1   -6    1      0.96      0.00
    0   -6    1      1.23      0.00
    1   -6    1     -1.83      0.00
    2   -6    1      3.86      0.00
    3   -6    1      0.74      0.00
    4   -6    1     -1.26      0.00
    5   -6    1      1.43      0.00
    6   -6    1     -2.77      0.00
    7   -6    1      1.00      0.00
    8   -6    1      0.14      0.00
   -7   -5    1      0.83      0.00
   -6   -5    1     -2.75      0.00
   -5   -5    1      1.60      0.00
   -4   -5    1      1.59      0.00
   -3   -5    1     -2.18      0.00
   -2   -5    1      4.23      0.00
   -1   -5    1     -3.00      0.00
    0   -5    1      3.59      0.00
    1   -5    1      1.14      0.00
    2   -5    1     -1.76      0.00
    3   -5    1      0.17      0.00
    4   -5    1     -0.09      0.00
    5   -5    1     -1.51      0.00
    6   -5    1      1.88      0.00
    7   -5    1      0.44      0.00
    8   -5    1      0.54      0.00
   -7   -4    1      0.35      0.00
   -6   -4    1      0.29      0.00
   -5   -4    1      1.30      0.00
   -4   -4    1      0.94      0.00
   -3   -4    1      1.26      0.00
   -2   -4    1     -0.29      0.00
   -1   -4    1      2.45      0.00
    0   -4    1    -10.38      0.00
    1   -4    1      5.47      0.00
    2   -4    1     -1.86      0.00
    3   -4    1     -3.04      0.00
    4   -4    1      4.76      0.00
    5   -4    1     -0.39      0.00
    6   -4    1     -0.25      0.00
    7   -4    1      0.67      0.00
    8   -4    1     -0.25      0.00
    9   -4    1     -1.38      0.00
   -7   -3    1     -0.96      0.00
   -6   -3    1      2.12      0.00
   -5   -3    1      0.93      0.00
   -4   -3    1     -3.77      0.00
   -3   -3    1      3.64      0.00
   -2   -3    1     -5.36      0.00
   -1   -3    1    -10.38      0.00
    0   -3    1     19.25      0.00
    1   -3    1     -9.59      0.00
    2   -3    1      5.31      0.00
    3   -3    1      5.66      0.00
    4   -3    1     -7.50      0.00
    5   -3    1      1.56      0.00
    6   -3    1     -0.51      0.00
    7   -3    1     -0.32      0.00
    8   -3    1     -0.21      0.00
   -8   -2    1     -0.28      0.00
   -7   -2    1      2.36      0.00
   -6   -2    1     -2.89      0.00
   -5   -2    1     -1.16      0.00
   -4   -2    1      3.26      0.00
   -3   -2    1     -1.63      0.00
   -2   -2    1     -0.27      0.00
   -1   -2    1     22.86      0.00
    0   -2    1    -16.19      0.00
    1   -2    1      2.28      0.00
    2   -2    1     -8.23      0.00
    3   -2    1     -6.31      0.00
    4   -2    1      5.93      0.00
    5   -2    1     -1.41      0.00
    6   -2    1      1.93      0.00
    7   -2    1     -1.57      0.00
    8   -2    1      0.80      0.00
   -8   -1    1      0.79      0.00
   -7   -1    1     -2.74      0.00
   -6   -1    1      2.46      0.00
   -5   -1    1     -0.01      0.00
   -4   -1    1      1.72      0.00
   -3   -1    1     -1.80      0.00
   -2   -1    1      4.15      0.00
   -1   -1    1     -6.38      0.00
    0   -1    1    -46.57      0.00
    1   -1    1     11.01      0.00
    2   -1    1      9.14      0.00
    3   -1    1      1.71      0.00
    4   -1    1      0.12      0.00
    5   -1    1      0.92      0.00
    6   -1    1     -3.21      0.00
    7   -1    1      2.61      0.00
    8   -1    1     -1.46      0.00
   -8    0    1      0.28      0.00
   -7    0    1      1.15      0.00
   -6    0    1     -0.77      0.00
   -5    0    1      1.78      0.00
   -4    0    1     -5.26      0.00
   -3    0    1      1.76      0.00
   -2    0    1      2.57      0.00
   -1    0    1    -35.83      0.00
    1    0    1      5.74      0.00
    2    0    1     -9.92      0.00
    3    0    1      3.17      0.00
    4    0    1     -2.07      0.00
    5    0    1     -0.77      0.00
    6    0    1      2.14      0.00
    7    0    1     -0.95      0.00
    8    0    1      0.51      0.00
   -8    1    1     -0.79      0.00
   -7    1    1      0.43      0.00
   -6    1    1     -1.08      0.00
   -5    1    1     -1.59      0.00
   -4    1    1      3.88      0.00
   -3    1    1     -2.31      0.00
   -2    1    1     -1.57      0.00
   -1    1    1     24.09      0.00
    0    1    1    -11.93      0.00
    1    1    1     -9.11      0.00
    2    1    1      0.85      0.00
    3    1    1     -0.76      0.00
    4    1    1     -0.54      0.00
    5    1    1      0.00      0.00
    6    1    1      1.22      0.00
    7    1    1     -0.23      0.00
    8    1    1     -0.26      0.00
   -9    2    1     -0.78      0.00
   -8    2    1      0.94      0.00
   -7    2    1     -1.13      0.00
   -6    2    1      2.08      0.00
   -5    2    1     -0.38      0.00
   -4    2    1     -0.25      0.00
   -3    2    1      2.32      0.00
   -2    2    1     -3.24      0.00
   -1    2    1     -7.15      0.00
    0    2    1      4.57      0.00
    1    2    1     -5.88      0.00
    2    2    1      9.65      0.00
    3    2    1     -4.62      0.00
    4    2    1      2.37      0.00
    5    2    1      2.36      0.00
    6    2    1     -3.00      0.00
    7    2    1     -0.90      0.00
   -9    3    1      0.61      0.00
   -8    3    1     -1.23      0.00
   -7    3    1      1.30      0.00
   -6    3    1     -2.60      0.00
   -5    3    1      2.96      0.00
   -4    3    1     -3.53      0.00
   -3    3    1     -0.83      0.00
   -2    3    1      5.17      0.00
   -1    3    1     -3.38      0.00
    0    3    1     -2.37      0.00
    1    3    1      8.32      0.00
    2    3    1     -7.06      0.00
    3    3    1      1.92      0.00
    4    3    1     -0.76      0.00
    5    3    1     -5.38      0.00
    6    3    1      2.57      0.00
    7    3    1     -0.21      0.00
   -9    4    1      0.72      0.00
   -8    4    1      0.90      0.00
   -7    4    1     -1.58      0.00
   -6    4    1      1.77      0.00
   -5    4    1     -2.70      0.00
   -4    4    1      4.16      0.00
   -3    4    1      0.30      0.00
   -2    4    1     -5.36      0.00
   -1    4    1      6.34      0.00
    0    4    1     -3.60      0.00
    1    4    1     -0.67      0.00
    2    4    1      0.35      0.00
    3    4    1     -0.06      0.00
    4    4    1     -1.23      0.00
    5    4    1      2.49      0.00
    6    4    1      0.55      0.00
    7    4    1     -0.20      0.00
   -9    5    1     -1.14      0.00
   -8    5    1     -0.41      0.00
   -7    5    1     -2.38      0.00
   -6    5    1      0.28      0.00
   -5    5    1      1.63      0.00
   -4    5    1     -3.28      0.00
   -3    5    1      0.51      0.00
   -2    5    1      2.37      0.00
   -1    5    1     -6.89      0.00
    0    5    1      2.78      0.00
    1    5    1     -2.75      0.00
    2    5    1      1.24      0.00
    3    5    1     -0.99      0.00
    4    5    1     -0.24      0.00
    5    5    1      0.81      0.00
    6    5    1     -2.02      0.00
   -8    6    1     -0.51      0.00
   -7    6    1      0.03      0.00
   -6    6    1      0.78      0.00
   -5    6    1     -2.38      0.00
   -4    6    1      1.63      0.00
   -3    6    1     -1.86      0.00
   -2    6    1     -0.69      0.00
   -1    6    1      2.06      0.00
    0    6    1     -0.76      0.00
    1    6    1      1.95      0.00
    2    6    1     -1.89      0.00
    3    6    1      1.06      0.00
    4    6    1      0.63      0.00
    5    6    1      0.34      0.00
    6    6    1      1.06      0.00
   -8    7    1     -0.73      0.00
   -7    7    1      1.54      0.00
   -6    7    1      0.45      0.00
   -5    7    1     -2.20      0.00
   -4    7    1     -0.20      0.00
   -3    7    1      0.84      0.00
   -2    7    1     -1.13      0.00
   -1    7    1      0.88      0.00
    0    7    1     -0.10      0.00
    1    7    1     -1.65      0.00
    2    7    1      1.58      0.00
    3    7    1      0.17      0.00
    4    7    1     -1.87      0.00
    5    7    1      0.87      0.00
   -8    8    1      0.38      0.00
   -7    8    1     -1.59      0.00
   -6    8    1     -1.62      0.00
   -5    8    1      1.82      0.00
   -4    8    1     -1.41      0.00
   -3    8    1      0.51      0.00
   -2    8    1      0.70      0.00
   -1    8    1     -0.91      0.00
    0    8    1      0.42      0.00
    1    8    1      0.33      0.00
    2    8    1      0.95      0.00
    3    8    1     -0.56      0.00
    4    8    1      1.84      0.00
   -7    9    1      2.83      0.00
   -6    9    1     -0.64      0.00
   -5    9    1     -0.58      0.00
   -4    9    1      0.40      0.00
   -3    9    1      0.73      0.00
   -2    9    1     -0.41      0.00
   -1    9    1      1.73      0.00
    0    9    1     -1.33      0.00
    2    9    1     -1.00      0.00
    3    9    1      0.81      0.00
   -7   10    1     -0.17      0.00
   -6   10    1      0.56      0.00
   -5   10    1      0.67      0.00
   -4   10    1     -0.25      0.00
   -3   10    1     -0.44      0.00
   -2   10    1      0.13      0.00
   -1   10    1      1.04      0.00
    0   10    1      0.93      0.00
    1   10    1     -0.72      0.00
    2   10    1      0.21      0.00
   -6   11    1     -0.18      0.00
   -5   11    1      0.42      0.00
   -4   11    1     -0.60      0.00
   -3   11    1      0.59      0.00
   -2   11    1      0.11      0.00
   -1   11    1     -1.73      0.00
    0   11    1     -0.18      0.00
    1   11    1      2.19      0.00
   -4   12    1      0.12      0.00
   -3   12    1     -0.22      0.00
   -2   12    1     -0.45      0.00
    1  -13    2      1.33      0.00
    2  -13    2      0.26      0.00
    3  -13    2      0.89      0.00
    4  -13    2     -0.42      0.00
   -1  -12    2     -1.46      0.00
    0  -12    2      0.24      0.00
    1  -12    2      0.55      0.00
    2  -12    2      0.35      0.00
    3  -12    2     -1.21      0.00
    4  -12    2     -1.98      0.00
    5  -12    2     -0.98      0.00
    6  -12    2     -0.32      0.00
   -3  -11    2      0.73      0.00
   -2  -11    2      0.55      0.00
   -1  -11    2      0.17      0.00
    0  -11    2      3.88      0.00
    1  -11    2     -0.99      0.00
    2  -11    2     -1.31      0.00
    3  -11    2     -0.52      0.00
    4  -11    2      0.07      0.00
    5  -11    2     -0.79      0.00
    6  -11    2      0.62      0.00
    7  -11    2     -0.75      0.00
   -4  -10    2     -0.32      0.00
   -3  -10    2      0.72      0.00
   -2  -10    2     -0.13      0.00
   -1  -10    2      0.98      0.00
    0  -10    2     -1.52      0.00
    1  -10    2      0.91      0.00
    2  -10    2      1.36      0.00
    3  -10    2     -0.17      0.00
    4  -10    2     -0.05      0.00
    5  -10    2     -1.00      0.00
    6  -10    2     -0.68      0.00
    7  -10    2      1.77      0.00
   -4   -9    2      0.31      0.00
   -3   -9    2     -0.85      0.00
   -2   -9    2     -0.01      0.00
   -1   -9    2      0.67      0.00
    0   -9    2     -0.13      0.00
    1   -9    2     -0.55      0.00
    2   -9    2     -0.22      0.00
    3   -9    2     -0.03      0.00
    4   -9    2      0.05      0.00
    5   -9    2      1.09      0.00
    6   -9    2      1.38      0.00
    7   -9    2     -1.10      0.00
    8   -9    2      0.23      0.00
   -5   -8    2     -0.87      0.00
   -4   -8    2      0.20      0.00
   -3   -8    2     -0.48      0.00
   -2   -8    2      1.76      0.00
   -1   -8    2     -1.93      0.00
    0   -8    2      1.12      0.00
    1   -8    2     -0.29      0.00
    2   -8    2     -0.88      0.00
    3   -8    2      1.66      0.00
    4   -8    2     -0.01      0.00
    5   -8    2     -1.34      0.00
    6   -8    2      0.49      0.00
    7   -8    2     -1.04      0.00
    8   -8    2     -0.22      0.00
   -6   -7    2      0.45      0.00
   -5   -7    2      0.41      0.00
   -4   -7    2     -0.19      0.00
   -3   -7    2      0.50      0.00
   -2   -7    2     -1.76      0.00
   -1   -7    2      2.28      0.00
    0   -7    2     -2.20      0.00
    1   -7    2      2.47      0.00
    2   -7    2     -0.95      0.00
    3   -7    2     -1.28      0.00
    4   -7    2      0.95      0.00
    5   -7    2      0.56      0.00
    6   -7    2      0.90      0.00
    7   -7    2      0.17      0.00
    8   -7    2     -0.22      0.00
   -6   -6    2      1.40      0.00
   -5   -6    2     -1.30      0.00
   -4   -6    2     -1.13      0.00
   -3   -6    2      0.49      0.00
   -2   -6    2     -0.50      0.00
   -1   -6    2     -2.58      0.00
    0   -6    2      3.49      0.00
    1   -6    2     -4.61      0.00
    2   -6    2      1.85      0.00
    3   -6    2      3.36      0.00
    4   -6    2     -3.15      0.00
    5   -6    2      1.82      0.00
    6   -6    2     -2.44      0.00
    7   -6    2     -0.29      0.00
    8   -6    2     -0.38      0.00
   -7   -5    2      0.25      0.00
   -6   -5    2     -2.45      0.00
   -5   -5    2      0.13      0.00
   -4   -5    2      1.56      0.00
   -3   -5    2     -2.78      0.00
   -2   -5    2      0.88      0.00
   -1   -5    2      1.96      0.00
    0   -5    2     -1.77      0.00
    1   -5    2      4.32      0.00
    2   -5    2     -1.55      0.00
    3   -5    2     -3.15      0.00
    4   -5    2      1.78      0.00
    5   -5    2     -1.72      0.00
    6   -5    2      1.59      0.00
    7   -5    2     -0.93      0.00
    8   -5    2      0.55      0.00
   -7   -4    2     -0.23      0.00
   -6   -4    2      0.88      0.00
   -5   -4    2     -0.03      0.00
   -4   -4    2     -0.22      0.00
   -3   -4    2      0.84      0.00
   -2   -4    2      1.51      0.00
   -1   -4    2      2.40      0.00
    0   -4    2     -9.91      0.00
    1   -4    2      2.62      0.00
    2   -4    2     -0.84      0.00
    3   -4    2     -1.31      0.00
    4   -4    2      2.01      0.00
    5   -4    2      0.95      0.00
    6   -4    2     -1.10      0.00
    7   -4    2      1.37      0.00
    8   -4    2     -0.39      0.00
   -8   -3    2      0.20      0.00
   -7   -3    2     -0.15      0.00
   -6   -3    2      0.66      0.00
   -5   -3    2      2.35      0.00
   -4   -3    2     -2.44      0.00
   -3   -3    2      1.08      0.00
   -2   -3    2     -0.26      0.00
   -1   -3    2    -20.52      0.00
    0   -3    2     23.37      0.00
    1   -3    2     -5.82      0.00
    2   -3    2      0.35      0.00
    3   -3    2      7.06      0.00
    4   -3    2     -4.56      0.00
    5   -3    2      0.17      0.00
    6   -3    2      0.79      0.00
    7   -3    2     -0.82      0.00
    8   -3    2      0.36      0.00
   -8   -2    2     -0.35      0.00
   -7   -2    2      2.35      0.00
   -6   -2    2     -1.25      0.00
   -5   -2    2     -2.10      0.00
   -4   -2    2      1.62      0.00
   -3   -2    2     -0.70      0.00
   -2   -2    2     -7.91      0.00
   -1   -2    2     30.42      0.00
    0   -2    2    -16.99      0.00
    1   -2    2     -0.27      0.00
    2   -2    2     -2.28      0.00
    3   -2    2     -9.54      0.00
    4   -2    2      3.68      0.00
    5   -2    2     -0.12      0.00
    6   -2    2      0.98      0.00
    7   -2    2     -0.63      0.00
    8   -2    2      0.10      0.00
   -8   -1    2      1.23      0.00
   -7   -1    2     -2.28      0.00
   -6   -1    2      1.31      0.00
   -5   -1    2      0.84      0.00
   -4   -1    2      1.80      0.00
   -3   -1    2      0.16      0.00
   -2   -1    2      3.17      0.00
   -1   -1    2     -1.20      0.00
    0   -1    2    -25.13      0.00
    1   -1    2     -5.74      0.00
    2   -1    2      7.80      0.00
    3   -1    2      3.01      0.00
    4   -1    2     -0.50      0.00
    5   -1    2      1.99      0.00
    6   -1    2     -4.03      0.00
    7   -1    2      1.78      0.00
    8   -1    2     -0.73      0.00
   -8    0    2     -1.01      0.00
   -7    0    2      2.79      0.00
   -6    0    2     -0.93      0.00
   -5    0    2      2.53      0.00
   -4    0    2     -4.42      0.00
   -3    0    2     -1.46      0.00
   -2    0    2      7.06      0.00
   -1    0    2    -21.47      0.00
    0    0    2      8.93      0.00
    1    0    2     17.91      0.00
    2    0    2     -9.08      0.00
    3    0    2      1.26      0.00
    4    0    2     -0.25      0.00
    5    0    2     -2.75      0.00
    6    0    2      2.85      0.00
    7    0    2     -0.49      0.00
    8    0    2     -0.08      0.00
   -8    1    2      0.42      0.00
   -7    1    2     -1.05      0.00
   -6    1    2     -0.08      0.00
   -5    1    2     -3.52      0.00
   -4    1    2      5.57      0.00
   -3    1    2     -0.41      0.00
   -2    1    2     -6.87      0.00
   -1    1    2     17.21      0.00
    0    1    2     -3.73      0.00
    1    1    2     -6.83      0.00
    2    1    2     -0.87      0.00
    3    1    2      0.24      0.00
    4    1    2     -1.14      0.00
    5    1    2      0.91      0.00
    6    1    2      0.21      0.00
    7    1    2      0.75      0.00
   -9    2    2     -0.05      0.00
   -8    2    2      0.80      0.00
   -7    2    2      0.45      0.00
   -6    2    2      0.91      0.00
   -5    2    2      2.02      0.00
   -4    2    2     -3.00      0.00
   -3    2    2      1.57      0.00
   -2    2    2      5.02      0.00
   -1    2    2    -10.60      0.00
    0    2    2      9.65      0.00
    1    2    2     -8.06      0.00
    2    2    2      6.59      0.00
    3    2    2     -1.62      0.00
    4    2    2      0.40      0.00
    5    2    2      2.90      0.00
    6    2    2     -0.97      0.00
    7    2    2     -0.85      0.00
   -9    3    2     -0.31      0.00
   -8    3    2     -1.03      0.00
   -7    3    2      1.30      0.00
   -6    3    2     -2.12      0.00
   -5    3    2      0.80      0.00
   -4    3    2      0.27      0.00
   -3    3    2     -1.28      0.00
   -2    3    2     -0.09      0.00
   -1    3    2      2.68      0.00
    0    3    2     -5.74      0.00
    1    3    2      7.28      0.00
    2    3    2     -3.61      0.00
    3    3    2      1.16      0.00
    4    3    2      1.56      0.00
    5    3    2     -4.79      0.00
    6    3    2      1.58      0.00
    7    3    2     -1.12      0.00
   -9    4    2      0.75      0.00
   -8    4    2      0.86      0.00
   -7    4    2     -0.19      0.00
   -6    4    2      1.39      0.00
   -5    4    2     -1.27      0.00
   -4    4    2      1.49      0.00
   -3    4    2      2.51      0.00
   -2    4    2     -5.20      0.00
   -1    4    2      5.58      0.00
    0    4    2      0.32      0.00
    1    4    2     -2.49      0.00
    2    4    2      2.28      0.00
    3    4    2     -0.31      0.00
    4    4    2     -1.76      0.00
    5    4    2      2.26      0.00
    6    4    2      0.14      0.00
   -8    5    2     -0.03      0.00
   -7    5    2     -2.06      0.00
   -6    5    2     -1.42      0.00
   -5    5    2      2.58      0.00
   -4    5    2     -2.78      0.00
   -3    5    2     -0.19      0.00
   -2    5    2      5.02      0.00
   -1    5    2     -5.16      0.00
    0    5    2      0.90      0.00
    1    5    2      1.09      0.00
    2    5    2     -0.18      0.00
    3    5    2      0.25      0.00
    4    5    2      0.74      0.00
    5    5    2     -1.12      0.00
    6    5    2     -0.10      0.00
   -8    6    2      0.70      0.00
   -7    6    2     -0.98      0.00
   -6    6    2      1.91      0.00
   -5    6    2     -1.41      0.00
   -4    6    2      1.96      0.00
   -3    6    2     -0.63      0.00
   -2    6    2     -3.39      0.00
   -1    6    2      2.47      0.00
    0    6    2     -0.66      0.00
    1    6    2      1.99      0.00
    2    6    2     -2.22      0.00
    3    6    2      0.95      0.00
    4    6    2      0.04      0.00
    5    6    2      0.47      0.00
   -8    7    2      0.36      0.00
   -7    7    2     -1.08      0.00
   -6    7    2      1.43      0.00
   -5    7    2     -2.20      0.00
   -4    7    2     -0.87      0.00
   -3    7    2      0.57      0.00
   -2    7    2      0.56      0.00
   -1    7    2     -0.73      0.00
    0    7    2      2.05      0.00
    1    7    2     -2.01      0.00
    2    7    2      1.30      0.00
    3    7    2      0.56      0.00
    4    7    2     -3.90      0.00
   -8    8    2     -0.08      0.00
   -7    8    2     -2.09      0.00
   -6    8    2     -1.45      0.00
   -5    8    2      0.96      0.00
   -4    8    2     -0.60      0.00
   -3    8    2      0.25      0.00
   -2    8    2      0.08      0.00
   -1    8    2     -0.99      0.00
    0    8    2      0.11      0.00
    1    8    2      0.25      0.00
    2    8    2     -0.49      0.00
    3    8    2     -1.10      0.00
    4    8    2      1.02      0.00
   -7    9    2      1.50      0.00
   -6    9    2      0.23      0.00
   -5    9    2     -0.06      0.00
   -4    9    2      0.09      0.00
   -3    9    2      0.27      0.00
   -2    9    2     -0.68      0.00
   -1    9    2      1.33      0.00
    0    9    2     -2.26      0.00
    1    9    2      0.14      0.00
    2    9    2     -0.37      0.00
    3    9    2      1.16      0.00
   -6   10    2      0.97      0.00
   -5   10    2     -0.33      0.00
   -4   10    2     -0.33      0.00
   -3   10    2      0.81      0.00
   -2   10    2      0.41      0.00
   -1   10    2      0.46      0.00
    0   10    2     -0.97      0.00
    1   10    2      0.48      0.00
   -5   11    2      0.77      0.00
   -4   11    2      0.08      0.00
   -3   11    2      0.78      0.00
   -2   11    2     -0.24      0.00
   -1   11    2      0.01      0.00
    0   11    2     -0.48      0.00
    0  -13    3     -1.61      0.00
    1  -13    3      0.01      0.00
    2  -13    3      0.00      0.00
    3  -13    3      0.64      0.00
    4  -13    3      2.01      0.00
    5  -13    3      0.01      0.00
   -2  -12    3     -0.52      0.00
   -1  -12    3     -0.50      0.00
    0  -12    3     -0.37      0.00
    1  -12    3      0.50      0.00
    2  -12    3      0.64      0.00
    3  -12    3      1.94      0.00
    4  -12    3     -1.22      0.00
    5  -12    3     -1.51      0.00
    6  -12    3      1.00      0.00
   -3  -11    3      0.29      0.00
   -2  -11    3      0.85      0.00
   -1  -11    3     -0.08      0.00
    0  -11    3      2.17      0.00
    1  -11    3     -0.05      0.00
    2  -11    3     -0.85      0.00
    3  -11    3     -0.49      0.00
    4  -11    3     -1.09      0.00
    5  -11    3     -0.58      0.00
    6  -11    3     -0.49      0.00
    7  -11    3     -0.49      0.00
   -4  -10    3     -0.27      0.00
   -3  -10    3      1.06      0.00
   -2  -10    3     -1.04      0.00
   -1  -10    3      0.24      0.00
    0  -10    3     -1.21      0.00
    1  -10    3      0.10      0.00
    2  -10    3     -0.30      0.00
    3  -10    3     -0.44      0.00
    4  -10    3     -0.35      0.00
    5  -10    3     -1.41      0.00
    6  -10    3     -1.97      0.00
    7  -10    3      0.46      0.00
   -5   -9    3      0.34      0.00
   -4   -9    3      0.08      0.00
   -3   -9    3      0.04      0.00
   -2   -9    3      0.45      0.00
   -1   -9    3      0.15      0.00
    0   -9    3      0.47      0.00
    1   -9    3     -0.31      0.00
    2   -9    3      1.00      0.00
    3   -9    3      0.05      0.00
    4   -9    3     -0.95      0.00
    5   -9    3     -0.57      0.00
    6   -9    3      1.65      0.00
    7   -9    3      0.38      0.00
    8   -9    3      0.52      0.00
   -5   -8    3     -0.38      0.00
   -4   -8    3      0.19      0.00
   -3   -8    3     -0.87      0.00
   -2   -8    3      1.16      0.00
   -1   -8    3     -1.12      0.00
    0   -8    3      0.08      0.00
    1   -8    3      0.21      0.00
    2   -8    3     -1.35      0.00
    3   -8    3      0.06      0.00
    4   -8    3      1.42      0.00
    5   -8    3     -0.28      0.00
    6   -8    3      0.14      0.00
    7   -8    3     -1.02      0.00
    8   -8    3     -0.02      0.00
   -6   -7    3     -0.13      0.00
   -5   -7    3      0.19      0.00
   -4   -7    3     -0.05      0.00
   -3   -7    3      0.80      0.00
   -2   -7    3     -1.23      0.00
   -1   -7    3      2.30      0.00
    0   -7    3     -2.48      0.00
    1   -7    3      1.53      0.00
    2   -7    3     -0.26      0.00
    3   -7    3     -0.99      0.00
    4   -7    3      0.32      0.00
    5   -7    3      1.02      0.00
    6   -7    3      0.64      0.00
    7   -7    3      0.73      0.00
    8   -7    3      0.23      0.00
   -7   -6    3      0.15      0.00
   -6   -6    3      1.59      0.00
   -5   -6    3     -0.13      0.00
   -4   -6    3     -0.77      0.00
   -3   -6    3      0.33      0.00
   -2   -6    3      2.46      0.00
   -1   -6    3     -5.93      0.00
    0   -6    3      6.68      0.00
    1   -6    3     -4.57      0.00
    2   -6    3     -0.15      0.00
    3   -6    3      5.38      0.00
    4   -6    3     -2.71      0.00
    5   -6    3      0.22      0.00
    6   -6    3     -1.16      0.00
    7   -6    3      0.46      0.00
    8   -6    3     -0.13      0.00
   -7   -5    3      1.22      0.00
   -6   -5    3     -1.27      0.00
   -5   -5    3     -1.19      0.00
   -4   -5    3      1.81      0.00
   -3   -5    3     -1.42      0.00
   -2   -5    3     -3.80      0.00
   -1   -5    3      9.78      0.00
    0   -5    3     -5.19      0.00
    1   -5    3      4.38      0.00
    2   -5    3      0.35      0.00
    3   -5    3     -5.35      0.00
    4   -5    3      1.64      0.00
    5   -5    3     -0.54      0.00
    6   -5    3      1.39      0.00
    7   -5    3     -0.82      0.00
    8   -5    3      0.00      0.00
   -7   -4    3     -1.79      0.00
   -6   -4    3      0.79      0.00
   -5   -4    3     -0.28      0.00
   -4   -4    3     -0.27      0.00
   -3   -4    3     -0.07      0.00
   -2   -4    3      4.33      0.00
   -1   -4    3      1.70      0.00
    0   -4    3     -6.18      0.00
    1   -4    3     -0.88      0.00
    2   -4    3     -0.23      0.00
    3   -4    3      1.71      0.00
    4   -4    3     -1.08      0.00
    5   -4    3      1.36      0.00
    6   -4    3     -1.33      0.00
    7   -4    3      0.26      0.00
    8   -4    3     -0.12      0.00
   -8   -3    3     -0.68      0.00
   -7   -3    3      0.00      0.00
   -6   -3    3     -0.70      0.00
   -5   -3    3      1.88      0.00
   -4   -3    3     -1.09      0.00
   -3   -3    3      0.41      0.00
   -2   -3    3      4.33      0.00
   -1   -3    3    -21.95      0.00
    0   -3    3     20.05      0.00
    1   -3    3      5.39      0.00
    2   -3    3     -3.68      0.00
    3   -3    3      5.48      0.00
    4   -3    3     -0.23      0.00
    5   -3    3     -2.08      0.00
    6   -3    3      1.84      0.00
    7   -3    3     -0.94      0.00
    8   -3    3      0.77      0.00
   -8   -2    3     -0.15      0.00
   -7   -2    3     -0.06      0.00
   -6   -2    3      1.20      0.00
   -5   -2    3     -3.10      0.00
   -4   -2    3      0.60      0.00
   -3   -2    3     -0.31      0.00
   -2   -2    3    -11.47      0.00
   -1   -2    3     28.32      0.00
    0   -2    3     -7.75      0.00
    1   -2    3     -5.58      0.00
    2   -2    3      3.00      0.00
    3   -2    3     -6.74      0.00
    4   -2    3     -0.61      0.00
    5   -2    3      2.02      0.00
    6   -2    3      1.08      0.00
    7   -2    3      0.44      0.00
    8   -2    3      0.07      0.00
   -8   -1    3      1.15      0.00
   -7   -1    3     -1.39      0.00
   -6   -1    3     -0.80      0.00
   -5   -1    3      0.73      0.00
   -4   -1    3      0.49      0.00
   -3   -1    3      1.45      0.00
   -2   -1    3      4.21      0.00
   -1   -1    3     -7.17      0.00
    0   -1    3      2.10      0.00
    1   -1    3    -11.53      0.00
    2   -1    3      4.38      0.00
    3   -1    3      3.10      0.00
    4   -1    3      0.33      0.00
    5   -1    3      2.84      0.00
    6   -1    3     -3.80      0.00
    7   -1    3      0.08      0.00
    8   -1    3     -0.30      0.00
   -8    0    3     -1.34      0.00
   -7    0    3      2.35      0.00
   -6    0    3     -0.37      0.00
   -5    0    3      2.49      0.00
   -4    0    3     -3.08      0.00
   -3    0    3     -2.73      0.00
   -2    0    3      4.03      0.00
   -1    0    3     -1.71      0.00
    0    0    3    -11.05      0.00
    1    0    3     18.83      0.00
    2    0    3     -3.47      0.00
    3    0    3      0.73      0.00
    4    0    3      1.68      0.00
    5    0    3     -3.70      0.00
    6    0    3      2.04      0.00
    7    0    3      0.50      0.00
    8    0    3     -0.46      0.00
   -8    1    3      0.37      0.00
   -7    1    3     -1.92      0.00
   -6    1    3      0.71      0.00
   -5    1    3     -4.77      0.00
   -4    1    3      4.28      0.00
   -3    1    3      2.91      0.00
   -2    1    3     -9.96      0.00
   -1    1    3      9.41      0.00
    0    1    3      2.99      0.00
    1    1    3     -4.99      0.00
    2    1    3     -0.37      0.00
    3    1    3      0.21      0.00
    4    1    3     -2.64      0.00
    5    1    3      1.41      0.00
    6    1    3     -1.09      0.00
    7    1    3      0.36      0.00
   -9    2    3      0.32      0.00
   -8    2    3      0.00      0.00
   -7    2    3      1.65      0.00
   -6    2    3     -1.09      0.00
   -5    2    3      3.77      0.00
   -4    2    3     -3.44      0.00
   -3    2    3     -3.64      0.00
   -2    2    3     12.27      0.00
   -1    2    3     -8.95      0.00
    0    2    3      5.50      0.00
    1    2    3     -3.59      0.00
    2    2    3      0.86      0.00
    3    2    3     -0.48      0.00
    4    2    3     -0.02      0.00
    5    2    3      1.49      0.00
    6    2    3      0.25      0.00
    7    2    3      0.25      0.00
   -8    3    3     -0.11      0.00
   -7    3    3      1.19      0.00
   -6    3    3     -0.60      0.00
   -5    3    3     -1.80      0.00
   -4    3    3      2.14      0.00
   -3    3    3      0.75      0.00
   -2    3    3     -3.46      0.00
   -1    3    3      2.79      0.00
    0    3    3     -3.77      0.00
    1    3    3      3.95      0.00
    2    3    3     -2.06      0.00
    3    3    3      0.97      0.00
    4    3    3      2.03      0.00
    5    3    3     -2.82      0.00
    6    3    3      0.47      0.00
   -8    4    3      0.54      0.00
   -7    4    3      0.92      0.00
   -6    4    3      1.11      0.00
   -5    4    3      0.16      0.00
   -4    4    3      0.01      0.00
   -3    4    3      2.00      0.00
   -2    4    3     -3.07      0.00
   -1    4    3      1.76      0.00
    0    4    3      2.65      0.00
    1    4    3     -4.84      0.00
    2    4    3      2.66      0.00
    3    4    3      0.19      0.00
    4    4    3     -2.29      0.00
    5    4    3      0.41      0.00
    6    4    3     -0.20      0.00
   -8    5    3     -0.80      0.00
   -7    5    3      1.25      0.00
   -6    5    3     -3.16      0.00
   -5    5    3      2.18      0.00
   -4    5    3     -1.31      0.00
   -3    5    3     -1.68      0.00
   -2    5    3      4.85      0.00
   -1    5    3     -2.27      0.00
    0    5    3     -2.53      0.00
    1    5    3      2.44      0.00
    2    5    3     -0.41      0.00
    3    5    3     -1.00      0.00
    4    5    3      2.01      0.00
    5    5    3     -0.54      0.00
   -8    6    3      0.35      0.00
   -7    6    3      0.21      0.00
   -6    6    3      1.43      0.00
   -5    6    3      0.03      0.00
   -4    6    3      1.54      0.00
   -3    6    3      0.78      0.00
   -2    6    3     -3.64      0.00
   -1    6    3      2.29      0.00
    0    6    3     -0.93      0.00
    1    6    3      1.39      0.00
    2    6    3     -1.58      0.00
    3    6    3      0.58      0.00
    4    6    3      2.99      0.00
    5    6    3     -1.08      0.00
   -8    7    3      1.44      0.00
   -7    7    3     -0.58      0.00
   -6    7    3      0.90      0.00
   -5    7    3      0.03      0.00
   -4    7    3     -1.17      0.00
   -3    7    3     -0.65      0.00
   -2    7    3      1.17      0.00
   -1    7    3     -2.13      0.00
    0    7    3      1.68      0.00
    1    7    3     -1.91      0.00
    2    7    3      1.01      0.00
    3    7    3      2.18      0.00
    4    7    3     -4.20      0.00
   -7    8    3     -1.51      0.00
   -6    8    3     -1.55      0.00
   -5    8    3     -0.47      0.00
   -4    8    3      0.64      0.00
   -3    8    3     -0.28      0.00
   -2    8    3      0.70      0.00
   -1    8    3     -0.84      0.00
    0    8    3      0.47      0.00
    1    8    3      0.71      0.00
    2    8    3     -0.66      0.00
    3    8    3     -2.18      0.00
   -6    9    3      0.32      0.00
   -5    9    3      0.44      0.00
   -4    9    3      0.30      0.00
   -3    9    3     -0.88      0.00
   -2    9    3     -0.71      0.00
   -1    9    3      0.81      0.00
    0    9    3      1.29      0.00
    1    9    3     -1.93      0.00
    2    9    3     -0.78      0.00
   -5   10    3     -0.23      0.00
   -4   10    3     -0.30      0.00
   -3   10    3      0.90      0.00
   -2   10    3      1.05      0.00
   -1   10    3     -0.66      0.00
    0   10    3     -2.96      0.00
   -3   11    3      0.04      0.00
   -1  -13    4     -0.36      0.00
    0  -13    4     -1.91      0.00
    1  -13    4     -1.02      0.00
    2  -13    4      0.04      0.00
    3  -13    4     -2.30      0.00
    4  -13    4      2.50      0.00
    5  -13    4      0.89      0.00
   -2  -12    4     -0.88      0.00
   -1  -12    4     -1.95      0.00
    0  -12    4      0.27      0.00
    1  -12    4      0.08      0.00
    2  -12    4     -0.20      0.00
    3  -12    4      1.18      0.00
    4  -12    4      1.32      0.00
    5  -12    4      0.55      0.00
    6  -12    4      1.39      0.00
   -3  -11    4     -0.67      0.00
   -2  -11    4      0.78      0.00
   -1  -11    4      0.78      0.00
    0  -11    4      1.02      0.00
    1  -11    4     -0.08      0.00
    2  -11    4     -0.04      0.00
    3  -11    4      1.17      0.00
    4  -11    4      0.63      0.00
    5  -11    4      0.74      0.00
    6  -11    4     -0.11      0.00
    7  -11    4      0.58      0.00
   -4  -10    4      0.62      0.00
   -3  -10    4      0.93      0.00
   -2  -10    4     -1.00      0.00
   -1  -10    4     -0.10      0.00
    0  -10    4     -1.15      0.00
    1  -10    4      0.28      0.00
    2  -10    4     -0.60      0.00
    3  -10    4     -0.53      0.00
    4  -10    4     -0.54      0.00
    5  -10    4     -0.18      0.00
    6  -10    4     -1.67      0.00
    7  -10    4     -1.75      0.00
   -5   -9    4      0.35      0.00
   -4   -9    4     -0.38      0.00
   -3   -9    4      0.10      0.00
   -2   -9    4      0.97      0.00
   -1   -9    4     -0.08      0.00
    0   -9    4      0.90      0.00
    1   -9    4     -1.29      0.00
    2   -9    4      0.47      0.00
    3   -9    4      1.18      0.00
    4   -9    4     -1.52      0.00
    5   -9    4     -1.95      0.00
    6   -9    4      0.83      0.00
    7   -9    4      0.50      0.00
    8   -9    4      0.23      0.00
   -6   -8    4     -0.45      0.00
   -5   -8    4     -0.39      0.00
   -4   -8    4      0.19      0.00
   -3   -8    4     -0.31      0.00
   -2   -8    4      0.24      0.00
   -1   -8    4      0.67      0.00
    0   -8    4     -0.69      0.00
    1   -8    4      1.43      0.00
    2   -8    4      0.29      0.00
    3   -8    4     -2.01      0.00
    4   -8    4      1.52      0.00
    5   -8    4     -0.91      0.00
    6   -8    4      0.29      0.00
    7   -8    4     -1.09      0.00
    8   -8    4     -0.17      0.00
   -6   -7    4     -0.88      0.00
   -5   -7    4      0.11      0.00
   -4   -7    4     -0.03      0.00
   -3   -7    4      0.81      0.00
   -2   -7    4      0.15      0.00
   -1   -7    4      1.29      0.00
    0   -7    4     -1.55      0.00
    1   -7    4     -0.16      0.00
    2   -7    4     -0.17      0.00
    3   -7    4      0.16      0.00
    4   -7    4     -0.83      0.00
    5   -7    4      1.92      0.00
    6   -7    4      0.42      0.00
    7   -7    4     -0.02      0.00
    8   -7    4      0.22      0.00
   -7   -6    4     -0.66      0.00
   -6   -6    4     -0.23      0.00
   -5   -6    4      1.06      0.00
   -4   -6    4     -0.55      0.00
   -3   -6    4      0.30      0.00
   -2   -6    4      3.67      0.00
   -1   -6    4     -8.76      0.00
    0   -6    4      6.84      0.00
    1   -6    4     -2.46      0.00
    2   -6    4     -1.27      0.00
    3   -6    4      4.56      0.00
    4   -6    4     -0.68      0.00
    5   -6    4     -1.58      0.00
    6   -6    4     -0.45      0.00
    7   -6    4      0.11      0.00
    8   -6    4      0.52      0.00
   -7   -5    4      2.29      0.00
   -6   -5    4     -0.12      0.00
   -5   -5    4     -1.63      0.00
   -4   -5    4      0.70      0.00
   -3   -5    4      1.22      0.00
   -2   -5    4     -7.85      0.00
   -1   -5    4     13.83      0.00
    0   -5    4     -4.34      0.00
    1   -5    4      2.49      0.00
    2   -5    4      2.51      0.00
    3   -5    4     -5.24      0.00
    4   -5    4      0.30      0.00
    5   -5    4     -0.15      0.00
    6   -5    4      1.18      0.00
    7   -5    4      1.33      0.00
    8   -5    4     -0.58      0.00
   -7   -4    4     -1.21      0.00
   -6   -4    4     -0.16      0.00
   -5   -4    4      0.44      0.00
   -4   -4    4      0.80      0.00
   -3   -4    4     -1.73      0.00
   -2   -4    4      6.46      0.00
   -1   -4    4     -0.40      0.00
    0   -4    4     -2.95      0.00
    1   -4    4     -4.97      0.00
    2   -4    4     -1.83      0.00
    3   -4    4      3.50      0.00
    4   -4    4     -1.79      0.00
    5   -4    4      1.76      0.00
    6   -4    4     -0.93      0.00
    7   -4    4     -0.42      0.00
    8   -4    4     -0.47      0.00
   -8   -3    4     -1.12      0.00
   -7   -3    4      1.34      0.00
   -6   -3    4     -1.35      0.00
   -5   -3    4      1.59      0.00
   -4   -3    4     -0.08      0.00
   -3   -3    4      0.62      0.00
   -2   -3    4      4.88      0.00
   -1   -3    4    -17.30      0.00
    0   -3    4      4.42      0.00
    1   -3    4     13.48      0.00
    2   -3    4     -4.01      0.00
    3   -3    4      1.27      0.00
    4   -3    4      3.75      0.00
    5   -3    4     -4.69      0.00
    6   -3    4      1.52      0.00
    7   -3    4     -1.03      0.00
    8   -3    4      0.55      0.00
   -8   -2    4      0.31      0.00
   -7   -2    4     -1.89      0.00
   -6   -2    4      2.35      0.00
   -5   -2    4     -2.82      0.00
   -4   -2    4      0.43      0.00
   -3   -2    4      0.99      0.00
   -2   -2    4    -11.01      0.00
   -1   -2    4     17.79      0.00
    0   -2    4      3.63      0.00
    1   -2    4     -7.80      0.00
    2   -2    4      3.07      0.00
    3   -2    4     -1.70      0.00
    4   -2    4     -4.60      0.00
    5   -2    4      2.38      0.00
    6   -2    4      1.02      0.00
    7   -2    4      1.21      0.00
    8   -2    4      0.38      0.00
   -8   -1    4      0.10      0.00
   -7   -1    4     -0.08      0.00
   -6   -1    4     -2.00      0.00
   -5   -1    4      1.38      0.00
   -4   -1    4      0.09      0.00
   -3   -1    4     -0.52      0.00
   -2   -1    4      7.61      0.00
   -1   -1    4    -12.93      0.00
    0   -1    4      6.69      0.00
    1   -1    4     -8.38      0.00
    2   -1    4     -0.75      0.00
    3   -1    4      0.23      0.00
    4   -1    4      0.99      0.00
    5   -1    4      2.11      0.00
    6   -1    4     -1.39      0.00
    7   -1    4     -0.78      0.00
   -8    0    4     -0.32      0.00
   -7    0    4      0.41      0.00
   -6    0    4      1.01      0.00
   -5    0    4      1.28      0.00
   -4    0    4     -1.74      0.00
   -3    0    4     -1.68      0.00
   -2    0    4     -1.76      0.00
   -1    0    4      7.12      0.00
    0    0    4    -13.97      0.00
    1    0    4      9.65      0.00
    2    0    4     -0.28      0.00
    3    0    4      0.33      0.00
    4    0    4      3.67      0.00
    5    0    4     -2.54      0.00
    6    0    4      1.32      0.00
    7    0    4      0.81      0.00
   -8    1    4      0.28      0.00
   -7    1    4     -1.84      0.00
   -6    1    4      1.86      0.00
   -5    1    4     -3.53      0.00
   -4    1    4      1.62      0.00
   -3    1    4      6.12      0.00
   -2    1    4     -8.94      0.00
   -1    1    4     -0.97      0.00
    0    1    4      6.99      0.00
    1    1    4     -3.05      0.00
    2    1    4      1.24      0.00
    3    1    4      0.61      0.00
    4    1    4     -3.30      0.00
    5    1    4      1.82      0.00
    6    1    4     -1.30      0.00
    7    1    4     -0.13      0.00
   -8    2    4     -1.19      0.00
   -7    2    4      1.23      0.00
   -6    2    4     -2.06      0.00
   -5    2    4      3.86      0.00
   -4    2    4     -1.46      0.00
   -3    2    4     -7.77      0.00
   -2    2    4     11.31      0.00
   -1    2    4     -3.02      0.00
    0    2    4     -1.56      0.00
    1    2    4      1.53      0.00
    2    2    4     -1.56      0.00
    3    2    4     -1.17      0.00
    4    2    4      0.62      0.00
    5    2    4      0.14      0.00
    6    2    4      0.39      0.00
   -8    3    4      0.06      0.00
   -7    3    4     -0.22      0.00
   -6    3    4      0.94      0.00
   -5    3    4     -2.83      0.00
   -4    3    4      1.83      0.00
   -3    3    4      2.34      0.00
   -2    3    4     -3.78      0.00
   -1    3    4      0.92      0.00
    0    3    4     -1.37      0.00
    1    3    4      2.18      0.00
    2    3    4     -1.56      0.00
    3    3    4     -0.77      0.00
    4    3    4      1.20      0.00
    5    3    4      0.27      0.00
    6    3    4     -0.58      0.00
   -8    4    4      0.56      0.00
   -7    4    4     -0.86      0.00
   -6    4    4      1.69      0.00
   -5    4    4      0.93      0.00
   -4    4    4     -0.56      0.00
   -3    4    4      0.57      0.00
   -2    4    4      0.51      0.00
   -1    4    4     -1.77      0.00
    0    4    4      4.54      0.00
    1    4    4     -4.89      0.00
    2    4    4      1.56      0.00
    3    4    4      1.43      0.00
    4    4    4     -1.41      0.00
    5    4    4     -2.17      0.00
   -8    5    4     -1.21      0.00
   -7    5    4      3.21      0.00
   -6    5    4     -2.19      0.00
   -5    5    4      0.09      0.00
   -4    5    4      0.26      0.00
   -3    5    4     -1.87      0.00
   -2    5    4      2.27      0.00
   -1    5    4      1.47      0.00
    0    5    4     -3.99      0.00
    1    5    4      1.51      0.00
    2    5    4      0.40      0.00
    3    5    4     -1.78      0.00
    4    5    4      0.13      0.00
    5    5    4      1.38      0.00
   -8    6    4     -1.16      0.00
   -7    6    4      0.95      0.00
   -6    6    4      0.30      0.00
   -5    6    4     -0.20      0.00
   -4    6    4      1.04      0.00
   -3    6    4      2.06      0.00
   -2    6    4     -1.67      0.00
   -1    6    4      2.01      0.00
    0    6    4     -0.16      0.00
    1    6    4      0.81      0.00
    2    6    4     -0.24      0.00
    3    6    4     -1.70      0.00
    4    6    4      4.88      0.00
   -7    7    4      0.58      0.00
   -6    7    4     -0.23      0.00
   -5    7    4      1.66      0.00
   -4    7    4     -1.19      0.00
   -3    7    4     -0.96      0.00
   -2    7    4      0.33      0.00
   -1    7    4     -1.10      0.00
    0    7    4      0.88      0.00
    1    7    4     -1.40      0.00
    2    7    4      0.09      0.00
    3    7    4      3.54      0.00
   -7    8    4     -0.65      0.00
   -6    8    4     -0.85      0.00
   -5    8    4     -1.28      0.00
   -4    8    4      0.51      0.00
   -3    8    4     -0.76      0.00
   -2    8    4      0.49      0.00
   -1    8    4     -0.38      0.00
    0    8    4     -0.68      0.00
    1    8    4      1.32      0.00
    2    8    4      1.06      0.00
   -6    9    4     -0.24      0.00
   -5    9    4     -0.24      0.00
   -4    9    4      0.06      0.00
   -3    9    4     -1.23      0.00
   -2    9    4     -0.25      0.00
   -1    9    4      0.31      0.00
    0    9    4      4.92      0.00
    1    9    4     -1.05      0.00
   -4   10    4      0.00      0.00
   -3   10    4      0.49      0.00
   -2   10    4      1.23      0.00
   -1   10    4     -0.70      0.00
    1  -14    5      1.49      0.00
    2  -14    5     -0.15      0.00
    3  -14    5      0.75      0.00
   -1  -13    5      2.13      0.00
    0  -13    5     -1.62      0.00
    1  -13    5     -0.62      0.00
    2  -13    5      0.52      0.00
    3  -13    5     -1.94      0.00
    4  -13    5     -0.06      0.00
    5  -13    5     -0.23      0.00
   -2  -12    5     -0.01      0.00
   -1  -12    5     -2.18      0.00
    0  -12    5     -0.37      0.00
    1  -12    5      0.32      0.00
    2  -12    5      0.08      0.00
    3  -12    5     -2.73      0.00
    4  -12    5      0.19      0.00
    5  -12    5      1.09      0.00
    6  -12    5      0.93      0.00
   -3  -11    5     -1.19      0.00
   -2  -11    5     -0.33      0.00
   -1  -11    5      0.10      0.00
    0  -11    5      0.20      0.00
    1  -11    5     -0.24      0.00
    2  -11    5     -0.30      0.00
    3  -11    5      0.61      0.00
    4  -11    5      1.86      0.00
    5  -11    5      1.76      0.00
    6  -11    5     -0.01      0.00
    7  -11    5      1.67      0.00
   -4  -10    5      1.01      0.00
   -3  -10    5      0.98      0.00
   -2  -10    5     -1.31      0.00
   -1  -10    5     -0.67      0.00
    0  -10    5     -0.73      0.00
    1  -10    5      0.70      0.00
    2  -10    5     -0.09      0.00
    3  -10    5     -1.46      0.00
    4  -10    5     -0.21      0.00
    5  -10    5      1.03      0.00
    6  -10    5     -0.17      0.00
    7  -10    5     -0.56      0.00
   -5   -9    5      0.38      0.00
   -4   -9    5     -0.42      0.00
   -3   -9    5     -1.28      0.00
   -2   -9    5      0.82      0.00
   -1   -9    5     -0.64      0.00
    0   -9    5      1.25      0.00
    1   -9    5     -1.66      0.00
    2   -9    5     -0.53      0.00
    3   -9    5      2.12      0.00
    4   -9    5     -0.36      0.00
    5   -9    5     -0.94      0.00
    6   -9    5     -0.06      0.00
    7   -9    5      0.07      0.00
   -6   -8    5      0.41      0.00
   -5   -8    5     -0.79      0.00
   -4   -8    5     -0.24      0.00
   -3   -8    5     -0.70      0.00
   -2   -8    5     -2.25      0.00
   -1   -8    5      2.06      0.00
    0   -8    5     -1.92      0.00
    1   -8    5      1.64      0.00
    2   -8    5      1.85      0.00
    3   -8    5     -3.53      0.00
    4   -8    5      1.09      0.00
    5   -8    5     -1.91      0.00
    6   -8    5     -0.44      0.00
    7   -8    5     -0.54      0.00
    8   -8    5     -0.31      0.00
   -6   -7    5      0.17      0.00
   -5   -7    5     -0.55      0.00
   -4   -7    5     -0.09      0.00
   -3   -7    5     -0.82      0.00
   -2   -7    5      2.33      0.00
   -1   -7    5     -0.40      0.00
    0   -7    5     -0.22      0.00
    1   -7    5     -1.06      0.00
    2   -7    5     -0.71      0.00
    3   -7    5      1.58      0.00
    4   -7    5     -0.31      0.00
    5   -7    5      1.34      0.00
    6   -7    5     -0.07      0.00
    7   -7    5      0.43      0.00
    8   -7    5     -0.24      0.00
   -7   -6    5     -0.99      0.00
   -6   -6    5     -0.86      0.00
   -5   -6    5      1.31      0.00
   -4   -6    5     -0.52      0.00
   -3   -6    5      0.13      0.00
   -2   -6    5      2.71      0.00
   -1   -6    5     -8.90      0.00
    0   -6    5      2.79      0.00
    1   -6    5      0.35      0.00
    2   -6    5     -1.26      0.00
    3   -6    5      2.10      0.00
    4   -6    5      1.50      0.00
    5   -6    5     -1.75      0.00
    6   -6    5     -0.43      0.00
    7   -6    5     -2.03      0.00
    8   -6    5      0.55      0.00
   -7   -5    5      2.10      0.00
   -6   -5    5      1.14      0.00
   -5   -5    5     -1.84      0.00
   -4   -5    5     -1.06      0.00
   -3   -5    5      2.80      0.00
   -2   -5    5     -9.96      0.00
   -1   -5    5     11.88      0.00
    0   -5    5     -0.49      0.00
    1   -5    5     -0.37      0.00
    2   -5    5      3.92      0.00
    3   -5    5     -3.04      0.00
    4   -5    5     -1.96      0.00
    5   -5    5     -0.56      0.00
    6   -5    5     -0.17      0.00
    7   -5    5      1.61      0.00
    8   -5    5     -0.02      0.00
   -7   -4    5     -0.28      0.00
   -6   -4    5     -1.37      0.00
   -5   -4    5      0.83      0.00
   -4   -4    5      1.06      0.00
   -3   -4    5     -3.31      0.00
   -2   -4    5      8.06      0.00
   -1   -4    5     -1.08      0.00
    0   -4    5      0.18      0.00
    1   -4    5     -5.26      0.00
    2   -4    5     -2.95      0.00
    3   -4    5      2.48      0.00
    4   -4    5     -0.91      0.00
    5   -4    5      1.78      0.00
    6   -4    5     -0.62      0.00
    7   -4    5      0.10      0.00
    8   -4    5     -0.83      0.00
   -8   -3    5     -1.13      0.00
   -7   -3    5      2.44      0.00
   -6   -3    5      0.05      0.00
   -5   -3    5      1.03      0.00
   -4   -3    5     -0.10      0.00
   -3   -3    5      0.64      0.00
   -2   -3    5      1.72      0.00
   -1   -3    5     -6.62      0.00
    0   -3    5     -9.56      0.00
    1   -3    5     12.27      0.00
    2   -3    5     -0.75      0.00
    3   -3    5     -2.13      0.00
    4   -3    5      5.51      0.00
    5   -3    5     -4.15      0.00
    6   -3    5      0.56      0.00
    7   -3    5     -0.45      0.00
    8   -3    5      0.05      0.00
   -8   -2    5      0.71      0.00
   -7   -2    5     -1.04      0.00
   -6   -2    5      1.92      0.00
   -5   -2    5     -2.49      0.00
   -4   -2    5      0.28      0.00
   -3   -2    5      2.31      0.00
   -2   -2    5     -7.65      0.00
   -1   -2    5      5.76      0.00
    0   -2    5     10.69      0.00
    1   -2    5     -6.93      0.00
    2   -2    5      1.25      0.00
    3   -2    5      2.53      0.00
    4   -2    5     -5.65      0.00
    5   -2    5      1.76      0.00
    6   -2    5     -0.61      0.00
    7   -2    5      0.75      0.00
   -8   -1    5     -1.02      0.00
   -7   -1    5      1.91      0.00
   -6   -1    5     -2.83      0.00
   -5   -1    5      2.41      0.00
   -4   -1    5      1.03      0.00
   -3   -1    5     -4.05      0.00
   -2   -1    5     10.77      0.00
   -1   -1    5     -9.17      0.00
    0   -1    5      2.03      0.00
    1   -1    5     -0.37      0.00
    2   -1    5     -1.30      0.00
    3   -1    5     -2.43      0.00
    4   -1    5      1.17      0.00
    5   -1    5      0.01      0.00
    6   -1    5      0.12      0.00
    7   -1    5     -0.29      0.00
   -8    0    5      0.63      0.00
   -7    0    5     -1.37      0.00
   -6    0    5      1.47      0.00
   -5    0    5     -0.67      0.00
   -4    0    5     -0.71      0.00
   -3    0    5      1.34      0.00
   -2    0    5     -6.19      0.00
   -1    0    5      9.96      0.00
    0    0    5     -8.80      0.00
    1    0    5      0.76      0.00
    2    0    5      0.42      0.00
    3    0    5      0.54      0.00
    4    0    5      2.82      0.00
    5    0    5     -1.77      0.00
    6    0    5      0.57      0.00
    7    0    5      0.56      0.00
   -8    1    5      0.38      0.00
   -7    1    5     -1.10      0.00
   -6    1    5      1.53      0.00
   -5    1    5     -1.17      0.00
   -4    1    5     -0.60      0.00
   -3    1    5      5.23      0.00
   -2    1    5     -3.48      0.00
   -1    1    5     -5.07      0.00
    0    1    5      7.03      0.00
    1    1    5     -3.23      0.00
    2    1    5      1.45      0.00
    3    1    5      0.86      0.00
    4    1    5     -3.00      0.00
    5    1    5      1.98      0.00
    6    1    5     -0.05      0.00
   -8    2    5     -0.90      0.00
   -7    2    5      1.36      0.00
   -6    2    5     -1.87      0.00
   -5    2    5      2.26      0.00
   -4    2    5      0.50      0.00
   -3    2    5     -6.23      0.00
   -2    2    5      5.04      0.00
   -1    2    5      3.90      0.00
    0    2    5     -5.69      0.00
    1    2    5      3.56      0.00
    2    2    5     -0.88      0.00
    3    2    5     -0.56      0.00
    4    2    5      1.54      0.00
    5    2    5     -0.20      0.00
    6    2    5     -0.12      0.00
   -8    3    5      0.33      0.00
   -7    3    5     -1.90      0.00
   -6    3    5      1.19      0.00
   -5    3    5     -2.74      0.00
   -4    3    5      0.69      0.00
   -3    3    5      3.07      0.00
   -2    3    5     -3.11      0.00
   -1    3    5     -0.53      0.00
    0    3    5      0.46      0.00
    1    3    5      1.68      0.00
    2    3    5     -0.70      0.00
    3    3    5     -1.63      0.00
    4    3    5     -0.72      0.00
    5    3    5      1.35      0.00
   -8    4    5      1.12      0.00
   -7    4    5     -2.94      0.00
   -6    4    5      0.66      0.00
   -5    4    5      1.79      0.00
   -4    4    5     -0.98      0.00
   -3    4    5     -0.95      0.00
   -2    4    5      2.03      0.00
   -1    4    5     -3.23      0.00
    0    4    5      4.72      0.00
    1    4    5     -2.44      0.00
    2    4    5      0.30      0.00
    3    4    5      0.52      0.00
    4    4    5     -0.02      0.00
    5    4    5     -2.51      0.00
   -8    5    5     -0.16      0.00
   -7    5    5      1.06      0.00
   -6    5    5      0.36      0.00
   -5    5    5     -1.09      0.00
   -4    5    5      0.18      0.00
   -3    5    5     -0.96      0.00
   -2    5    5     -1.45      0.00
   -1    5    5      2.82      0.00
    0    5    5     -2.67      0.00
    1    5    5      1.06      0.00
    2    5    5      0.73      0.00
    3    5    5     -0.84      0.00
    4    5    5     -1.12      0.00
   -7    6    5      1.51      0.00
   -6    6    5      0.49      0.00
   -5    6    5     -0.49      0.00
   -4    6    5     -0.17      0.00
   -3    6    5      2.33      0.00
   -2    6    5      0.10      0.00
   -1    6    5      0.51      0.00
    0    6    5      0.70      0.00
    1    6    5      0.41      0.00
    2    6    5      0.93      0.00
    3    6    5     -2.12      0.00
   -7    7    5      0.93      0.00
   -6    7    5     -0.92      0.00
   -5    7    5      1.47      0.00
   -4    7    5     -0.22      0.00
   -3    7    5     -0.03      0.00
   -2    7    5     -0.21      0.00
   -1    7    5      0.30      0.00
    0    7    5     -0.05      0.00
    1    7    5     -0.27      0.00
    2    7    5     -1.00      0.00
   -6    8    5      0.44      0.00
   -5    8    5     -0.43      0.00
   -4    8    5      0.05      0.00
   -3    8    5     -0.67      0.00
   -2    8    5     -0.96      0.00
   -1    8    5     -0.14      0.00
    0    8    5     -2.27      0.00
    1    8    5      0.65      0.00
   -5    9    5     -0.42      0.00
   -4    9    5     -0.15      0.00
   -3    9    5     -0.56      0.00
   -2    9    5     -0.10      0.00
   -1    9    5     -0.15      0.00
    1  -14    6      0.74      0.00
    2  -14    6      0.19      0.00
    3  -14    6      1.28      0.00
   -1  -13    6      1.93      0.00
    0  -13    6     -0.10      0.00
    1  -13    6      0.47      0.00
    2  -13    6      0.17      0.00
    3  -13    6      2.56      0.00
    4  -13    6     -1.15      0.00
    5  -13    6     -1.86      0.00
   -2  -12    6      0.98      0.00
   -1  -12    6      1.76      0.00
    0  -12    6     -0.16      0.00
    1  -12    6      0.42      0.00
    2  -12    6      1.22      0.00
    3  -12    6     -1.97      0.00
    4  -12    6     -0.78      0.00
    5  -12    6     -0.80      0.00
    6  -12    6      0.75      0.00
   -4  -11    6     -1.10      0.00
   -3  -11    6     -0.91      0.00
   -2  -11    6     -0.22      0.00
   -1  -11    6      0.93      0.00
    0  -11    6     -1.16      0.00
    1  -11    6      0.64      0.00
    2  -11    6      0.22      0.00
    3  -11    6      0.23      0.00
    4  -11    6      1.09      0.00
    5  -11    6      0.46      0.00
    6  -11    6     -0.38      0.00
   -4  -10    6      0.70      0.00
   -3  -10    6      2.20      0.00
   -2  -10    6     -0.62      0.00
   -1  -10    6     -1.11      0.00
    0  -10    6     -0.83      0.00
    1  -10    6      0.25      0.00
    2  -10    6     -0.13      0.00
    3  -10    6     -1.59      0.00
    4  -10    6     -0.38      0.00
    5  -10    6      1.14      0.00
    6  -10    6      0.87      0.00
    7  -10    6      1.13      0.00
   -5   -9    6      0.90      0.00
   -4   -9    6      0.67      0.00
   -3   -9    6     -0.85      0.00
   -2   -9    6      0.89      0.00
   -1   -9    6     -1.12      0.00
    0   -9    6      1.62      0.00
    1   -9    6     -0.66      0.00
    2   -9    6     -0.62      0.00
    3   -9    6      0.88      0.00
    4   -9    6      1.08      0.00
    5   -9    6      1.63      0.00
    6   -9    6      0.13      0.00
    7   -9    6      0.45      0.00
   -6   -8    6      0.75      0.00
   -5   -8    6     -0.04      0.00
   -4   -8    6     -0.03      0.00
   -3   -8    6      0.32      0.00
   -2   -8    6     -3.91      0.00
   -1   -8    6      2.90      0.00
    0   -8    6     -2.19      0.00
    1   -8    6      0.69      0.00
    2   -8    6      2.91      0.00
    3   -8    6     -3.38      0.00
    4   -8    6     -0.42      0.00
    5   -8    6     -0.03      0.00
    6   -8    6     -0.56      0.00
    7   -8    6     -0.75      0.00
   -6   -7    6      0.56      0.00
   -5   -7    6     -0.87      0.00
   -4   -7    6      0.69      0.00
   -3   -7    6     -2.82      0.00
   -2   -7    6      4.02      0.00
   -1   -7    6     -1.80      0.00
    0   -7    6      0.84      0.00
    1   -7    6     -1.35      0.00
    2   -7    6     -1.58      0.00
    3   -7    6      0.52      0.00
    4   -7    6      1.11      0.00
    5   -7    6      0.79      0.00
    6   -7    6     -0.61      0.00
    7   -7    6      2.17      0.00
   -7   -6    6     -1.91      0.00
   -6   -6    6     -0.04      0.00
   -5   -6    6      1.30      0.00
   -4   -6    6      0.05      0.00
   -3   -6    6      0.66      0.00
   -2   -6    6      1.45      0.00
   -1   -6    6     -5.15      0.00
    0   -6    6     -1.90      0.00
    1   -6    6      2.32      0.00
    2   -6    6      0.10      0.00
    3   -6    6     -0.22      0.00
    4   -6    6      3.35      0.00
    5   -6    6     -0.01      0.00
    6   -6    6      0.72      0.00
    7   -6    6     -1.64      0.00
   -7   -5    6      0.60      0.00
   -6   -5    6      2.45      0.00
   -5   -5    6     -1.66      0.00
   -4   -5    6     -1.24      0.00
   -3   -5    6      3.00      0.00
   -2   -5    6     -8.47      0.00
   -1   -5    6      6.08      0.00
    0   -5    6      4.14      0.00
    1   -5    6     -2.67      0.00
    2   -5    6      2.76      0.00
    3   -5    6      0.44      0.00
    4   -5    6     -3.72      0.00
    5   -5    6      0.16      0.00
    6   -5    6     -0.68      0.00
    7   -5    6     -0.42      0.00
   -7   -4    6     -1.08      0.00
   -6   -4    6     -2.34      0.00
   -5   -4    6      0.91      0.00
   -4   -4    6      1.55      0.00
   -3   -4    6     -3.71      0.00
   -2   -4    6      8.07      0.00
   -1   -4    6     -0.65      0.00
    0   -4    6      1.42      0.00
    1   -4    6     -2.76      0.00
    2   -4    6     -2.70      0.00
    3   -4    6     -0.45      0.00
    4   -4    6      0.13      0.00
    5   -4    6      0.59      0.00
    6   -4    6      0.07      0.00
    7   -4    6     -0.47      0.00
   -8   -3    6     -0.51      0.00
   -7   -3    6      0.41      0.00
   -6   -3    6      1.54      0.00
   -5   -3    6      0.81      0.00
   -4   -3    6     -1.38      0.00
   -3   -3    6      1.76      0.00
   -2   -3    6     -2.00      0.00
   -1   -3    6      3.88      0.00
    0   -3    6    -11.53      0.00
    1   -3    6      6.14      0.00
    2   -3    6      1.97      0.00
    3   -3    6     -1.90      0.00
    4   -3    6      3.65      0.00
    5   -3    6     -1.49      0.00
    6   -3    6      0.16      0.00
    7   -3    6      0.45      0.00
   -8   -2    6      0.82      0.00
   -7   -2    6     -1.37      0.00
   -6   -2    6      1.27      0.00
   -5   -2    6     -2.60      0.00
   -4   -2    6     -0.17      0.00
   -3   -2    6      2.93      0.00
   -2   -2    6     -4.14      0.00
   -1   -2    6     -3.58      0.00
    0   -2    6     10.51      0.00
    1   -2    6     -4.27      0.00
    2   -2    6     -0.82      0.00
    3   -2    6      3.80      0.00
    4   -2    6     -4.36      0.00
    5   -2    6      1.07      0.00
    6   -2    6     -1.10      0.00
    7   -2    6     -0.06      0.00
   -8   -1    6     -1.54      0.00
   -7   -1    6      2.75      0.00
   -6   -1    6     -2.59      0.00
   -5   -1    6      2.45      0.00
   -4   -1    6      1.77      0.00
   -3   -1    6     -7.21      0.00
   -2   -1    6      8.74      0.00
   -1   -1    6     -2.15      0.00
    0   -1    6     -2.30      0.00
    1   -1    6      2.93      0.00
    2   -1    6      0.08      0.00
    3   -1    6     -3.98      0.00
    4   -1    6      1.95      0.00
    5   -1    6     -0.66      0.00
    6   -1    6      0.73      0.00
    7   -1    6      0.00      0.00
   -8    0    6      0.90      0.00
   -7    0    6     -1.40      0.00
   -6    0    6      1.19      0.00
   -5    0    6     -2.02      0.00
   -4    0    6     -1.28      0.00
   -3    0    6      4.41      0.00
   -2    0    6     -5.75      0.00
   -1    0    6      4.03      0.00
    0    0    6     -0.99      0.00
    1    0    6     -1.19      0.00
    2    0    6      0.12      0.00
    3    0    6      1.92      0.00
    4    0    6      1.05      0.00
    5    0    6     -1.40      0.00
    6    0    6     -0.78      0.00
   -8    1    6     -0.11      0.00
   -7    1    6     -0.48      0.00
   -6    1    6     -0.68      0.00
   -5    1    6      0.64      0.00
   -4    1    6     -1.06      0.00
   -3    1    6      1.32      0.00
   -2    1    6      0.80      0.00
   -1    1    6     -5.78      0.00
    0    1    6      6.11      0.00
    1    1    6     -3.69      0.00
    2    1    6      1.06      0.00
    3    1    6      1.18      0.00
    4    1    6     -2.56      0.00
    5    1    6      1.09      0.00
    6    1    6      0.85      0.00
   -8    2    6     -0.67      0.00
   -7    2    6      2.56      0.00
   -6    2    6     -1.18      0.00
   -5    2    6      0.57      0.00
   -4    2    6      1.38      0.00
   -3    2    6     -2.90      0.00
   -2    2    6     -1.18      0.00
   -1    2    6      6.67      0.00
    0    2    6     -6.30      0.00
    1    2    6      2.33      0.00
    2    2    6      0.29      0.00
    3    2    6      0.00      0.00
    4    2    6      1.51      0.00
    5    2    6      1.54      0.00
   -8    3    6      0.30      0.00
   -7    3    6     -1.82      0.00
   -6    3    6      1.13      0.00
   -5    3    6     -2.19      0.00
   -4    3    6     -0.12      0.00
   -3    3    6      2.43      0.00
   -2    3    6     -0.70      0.00
   -1    3    6     -2.51      0.00
    0    3    6      0.74      0.00
    1    3    6      0.70      0.00
    2    3    6     -0.89      0.00
    3    3    6      0.51      0.00
    4    3    6     -0.81      0.00
    5    3    6     -0.01      0.00
   -8    4    6      1.03      0.00
   -7    4    6     -1.17      0.00
   -6    4    6     -1.27      0.00
   -5    4    6      1.64      0.00
   -4    4    6     -0.04      0.00
   -3    4    6     -1.86      0.00
   -2    4    6      2.23      0.00
   -1    4    6     -2.66      0.00
    0    4    6      2.06      0.00
    1    4    6     -1.35      0.00
    2    4    6     -0.22      0.00
    3    4    6     -0.69      0.00
    4    4    6     -0.53      0.00
   -7    5    6     -2.15      0.00
   -6    5    6      0.93      0.00
   -5    5    6     -0.90      0.00
   -4    5    6      0.27      0.00
   -3    5    6      0.16      0.00
   -2    5    6     -2.66      0.00
   -1    5    6      1.32      0.00
    0    5    6     -1.54      0.00
    1    5    6      0.57      0.00
    2    5    6      0.35      0.00
    3    5    6     -1.93      0.00
   -7    6    6      1.26      0.00
   -6    6    6      0.69      0.00
   -5    6    6      0.46      0.00
   -4    6    6     -1.22      0.00
   -3    6    6      1.54      0.00
   -2    6    6      0.91      0.00
   -1    6    6     -1.42      0.00
    0    6    6      0.80      0.00
    1    6    6     -0.27      0.00
    2    6    6      0.64      0.00
   -6    7    6     -0.69      0.00
   -5    7    6      0.40      0.00
   -4    7    6      0.72      0.00
   -3    7    6      0.59      0.00
   -2    7    6      0.30      0.00
   -1    7    6      1.26      0.00
    0    7    6     -0.69      0.00
    1    7    6      0.27      0.00
   -5    8    6      0.13      0.00
   -4    8    6     -0.07      0.00
   -3    8    6     -0.26      0.00
   -2    8    6     -1.05      0.00
   -1    8    6      0.27      0.00
    0    8    6     -1.42      0.00
    1  -14    7     -0.99      0.00
    2  -14    7      0.02      0.00
    3  -14    7     -0.72      0.00
   -1  -13    7     -2.40      0.00
    0  -13    7      0.45      0.00
    1  -13    7      0.30      0.00
    2  -13    7     -1.19      0.00
    3  -13    7      3.20      0.00
    4  -13    7     -0.84      0.00
   -3  -12    7      0.18      0.00
   -2  -12    7      0.27      0.00
   -1  -12    7      2.27      0.00
    0  -12    7      1.13      0.00
    1  -12    7     -0.30      0.00
    2  -12    7      0.70      0.00
    3  -12    7      1.02      0.00
    4  -12    7      0.88      0.00
    5  -12    7     -0.71      0.00
    6  -12    7      0.22      0.00
   -4  -11    7     -0.61      0.00
   -3  -11    7     -0.90      0.00
   -2  -11    7     -0.93      0.00
   -1  -11    7      2.66      0.00
    0  -11    7     -0.54      0.00
    1  -11    7      1.45      0.00
    2  -11    7      0.89      0.00
    3  -11    7      0.32      0.00
    4  -11    7      0.20      0.00
    5  -11    7     -2.18      0.00
    6  -11    7     -0.65      0.00
   -4  -10    7     -0.60      0.00
   -3  -10    7      1.25      0.00
   -2  -10    7      1.25      0.00
   -1  -10    7      0.04      0.00
    0  -10    7     -0.83      0.00
    1  -10    7     -0.44      0.00
    2  -10    7     -0.70      0.00
    3  -10    7      1.52      0.00
    4  -10    7     -0.89      0.00
    5  -10    7     -1.06      0.00
    6  -10    7      1.05      0.00
    7  -10    7      0.26      0.00
   -5   -9    7      0.35      0.00
   -4   -9    7      0.96      0.00
   -3   -9    7      0.35      0.00
   -2   -9    7      0.85      0.00
   -1   -9    7     -1.17      0.00
    0   -9    7      1.09      0.00
    1   -9    7      0.13      0.00
    2   -9    7     -0.79      0.00
    3   -9    7     -0.78      0.00
    4   -9    7      0.64      0.00
    5   -9    7      1.09      0.00
    6   -9    7      0.61      0.00
    7   -9    7      0.70      0.00
   -6   -8    7      0.44      0.00
   -5   -8    7      0.80      0.00
   -4   -8    7     -0.30      0.00
   -3   -8    7      2.17      0.00
   -2   -8    7     -3.94      0.00
   -1   -8    7      2.83      0.00
    0   -8    7     -0.99      0.00
    1   -8    7     -0.38      0.00
    2   -8    7      2.62      0.00
    3   -8    7     -0.23      0.00
    4   -8    7     -3.42      0.00
    5   -8    7      1.43      0.00
    6   -8    7      0.26      0.00
    7   -8    7     -1.51      0.00
   -6   -7    7     -0.61      0.00
   -5   -7    7     -0.87      0.00
   -4   -7    7      0.54      0.00
   -3   -7    7     -4.05      0.00
   -2   -7    7      4.59      0.00
   -1   -7    7     -2.46      0.00
    0   -7    7      0.73      0.00
    1   -7    7     -0.66      0.00
    2   -7    7     -2.12      0.00
    3   -7    7     -1.74      0.00
    4   -7    7      0.75      0.00
    5   -7    7     -0.62      0.00
    6   -7    7     -0.97      0.00
    7   -7    7      1.30      0.00
   -7   -6    7     -2.03      0.00
   -6   -6    7     -0.49      0.00
   -5   -6    7      0.82      0.00
   -4   -6    7     -0.04      0.00
   -3   -6    7      1.55      0.00
   -2   -6    7     -1.37      0.00
   -1   -6    7     -1.54      0.00
    0   -6    7     -4.28      0.00
    1   -6    7      1.89      0.00
    2   -6    7      1.34      0.00
    3   -6    7     -1.49      0.00
    4   -6    7      3.28      0.00
    5   -6    7      0.50      0.00
    6   -6    7      1.08      0.00
    7   -6    7      0.83      0.00
   -7   -5    7      0.29      0.00
   -6   -5    7      1.97      0.00
   -5   -5    7     -1.21      0.00
   -4   -5    7     -0.94      0.00
   -3   -5    7      0.92      0.00
   -2   -5    7     -4.22      0.00
   -1   -5    7     -0.18      0.00
    0   -5    7      6.28      0.00
    1   -5    7     -2.55      0.00
    2   -5    7      0.67      0.00
    3   -5    7      3.40      0.00
    4   -5    7     -3.64      0.00
    5   -5    7      0.49      0.00
    6   -5    7     -0.47      0.00
    7   -5    7     -0.57      0.00
   -7   -4    7     -1.14      0.00
   -6   -4    7     -2.78      0.00
   -5   -4    7      0.22      0.00
   -4   -4    7      2.45      0.00
   -3   -4    7     -3.82      0.00
   -2   -4    7      5.53      0.00
   -1   -4    7     -1.10      0.00
    0   -4    7     -0.04      0.00
    1   -4    7      0.36      0.00
    2   -4    7     -1.30      0.00
    3   -4    7     -3.83      0.00
    4   -4    7      1.73      0.00
    5   -4    7     -0.87      0.00
    6   -4    7      1.02      0.00
    7   -4    7     -1.53      0.00
   -7   -3    7     -0.23      0.00
   -6   -3    7      1.42      0.00
   -5   -3    7      1.81      0.00
   -4   -3    7     -2.26      0.00
   -3   -3    7      2.62      0.00
   -2   -3    7     -4.02      0.00
   -1   -3    7      7.61      0.00
    0   -3    7     -6.23      0.00
    1   -3    7     -0.34      0.00
    2   -3    7      1.06      0.00
    3   -3    7      0.34      0.00
    4   -3    7      0.83      0.00
    5   -3    7      0.50      0.00
    6   -3    7     -0.19      0.00
    7   -3    7      0.16      0.00
   -8   -2    7      1.33      0.00
   -7   -2    7     -2.17      0.00
   -6   -2    7      0.45      0.00
   -5   -2    7     -2.07      0.00
   -4   -2    7     -0.44      0.00
   -3   -2    7      2.60      0.00
   -2   -2    7      0.67      0.00
   -1   -2    7     -7.41      0.00
    0   -2    7      5.92      0.00
    1   -2    7     -0.18      0.00
    2   -2    7     -0.75      0.00
    3   -2    7      3.13      0.00
    4   -2    7     -1.94      0.00
    5   -2    7      0.33      0.00
    6   -2    7     -0.91      0.00
   -8   -1    7     -0.77      0.00
   -7   -1    7      1.39      0.00
   -6   -1    7     -1.21      0.00
   -5   -1    7      2.08      0.00
   -4   -1    7      2.63      0.00
   -3   -1    7     -6.24      0.00
   -2   -1    7      1.10      0.00
   -1   -1    7      5.16      0.00
    0   -1    7     -5.79      0.00
    1   -1    7      1.94      0.00
    2   -1    7      1.29      0.00
    3   -1    7     -4.08      0.00
    4   -1    7      2.51      0.00
    5   -1    7     -1.36      0.00
    6   -1    7      1.23      0.00
   -8    0    7      0.69      0.00
   -7    0    7     -0.61      0.00
   -6    0    7      1.94      0.00
   -5    0    7     -1.89      0.00
   -4    0    7     -2.27      0.00
   -3    0    7      3.45      0.00
   -2    0    7     -0.90      0.00
   -1    0    7     -3.06      0.00
    0    0    7      2.02      0.00
    1    0    7      0.07      0.00
    2    0    7     -1.34      0.00
    3    0    7      1.48      0.00
    4    0    7      0.19      0.00
    5    0    7     -0.59      0.00
    6    0    7     -0.70      0.00
   -8    1    7     -0.27      0.00
   -7    1    7      0.68      0.00
   -6    1    7     -1.87      0.00
   -5    1    7      1.59      0.00
   -4    1    7     -0.79      0.00
   -3    1    7     -1.48      0.00
   -2    1    7      3.58      0.00
   -1    1    7     -4.50      0.00
    0    1    7      4.44      0.00
    1    1    7     -2.56      0.00
    2    1    7      0.16      0.00
    3    1    7      1.70      0.00
    4    1    7     -0.91      0.00
    5    1    7      0.07      0.00
   -8    2    7     -0.67      0.00
   -7    2    7      2.31      0.00
   -6    2    7     -0.23      0.00
   -5    2    7     -0.41      0.00
   -4    2    7      1.18      0.00
   -3    2    7      0.52      0.00
   -2    2    7     -3.60      0.00
   -1    2    7      5.49      0.00
    0    2    7     -4.16      0.00
    1    2    7      0.56      0.00
    2    2    7      2.04      0.00
    3    2    7      0.01      0.00
    4    2    7     -0.25      0.00
   -7    3    7     -1.24      0.00
   -6    3    7      1.17      0.00
   -5    3    7     -0.77      0.00
   -4    3    7     -0.30      0.00
   -3    3    7      0.95      0.00
   -2    3    7      1.58      0.00
   -1    3    7     -2.74      0.00
    0    3    7      0.59      0.00
    1    3    7      0.64      0.00
    2    3    7     -1.06      0.00
    3    3    7      2.41      0.00
    4    3    7      0.63      0.00
   -7    4    7      1.44      0.00
   -6    4    7     -1.31      0.00
   -5    4    7      0.21      0.00
   -4    4    7      0.95      0.00
   -3    4    7     -2.61      0.00
   -2    4    7      1.62      0.00
   -1    4    7     -0.04      0.00
    0    4    7     -0.05      0.00
    1    4    7     -0.90      0.00
    2    4    7     -0.03      0.00
    3    4    7      1.08      0.00
   -7    5    7     -2.30      0.00
   -6    5    7      0.68      0.00
   -5    5    7     -1.04      0.00
   -4    5    7      0.72      0.00
   -3    5    7      0.71      0.00
   -2    5    7     -1.11      0.00
   -1    5    7      0.61      0.00
    0    5    7     -0.12      0.00
    1    5    7     -0.12      0.00
    2    5    7      0.42      0.00
    3    5    7     -3.50      0.00
   -6    6    7      0.07      0.00
   -5    6    7      0.80      0.00
   -4    6    7     -0.89      0.00
   -3    6    7      0.53      0.00
   -2    6    7      1.26      0.00
   -1    6    7     -1.74      0.00
    0    6    7      0.79      0.00
    1    6    7     -0.60      0.00
   -5    7    7     -0.11      0.00
   -4    7    7      0.53      0.00
   -3    7    7      0.58      0.00
   -2    7    7      0.28      0.00
   -1    7    7      1.19      0.00
    0    7    7     -0.36      0.00
    1  -14    8     -0.93      0.00
    2  -14    8      0.37      0.00
    3  -14    8     -2.22      0.00
   -1  -13    8     -3.54      0.00
    0  -13    8      0.18      0.00
    1  -13    8     -0.34      0.00
    2  -13    8     -1.58      0.00
    3  -13    8     -0.79      0.00
    4  -13    8     -2.09      0.00
   -2  -12    8      0.28      0.00
   -1  -12    8     -0.48      0.00
    0  -12    8      0.35      0.00
    1  -12    8     -0.86      0.00
    2  -12    8     -0.61      0.00
    3  -12    8      0.80      0.00
    4  -12    8      1.91      0.00
    5  -12    8      1.94      0.00
   -3  -11    8      0.55      0.00
   -2  -11    8     -2.56      0.00
   -1  -11    8      0.97      0.00
    0  -11    8     -0.08      0.00
    1  -11    8      0.09      0.00
    2  -11    8      0.23      0.00
    3  -11    8     -1.86      0.00
    4  -11    8     -0.09      0.00
    5  -11    8     -2.22      0.00
    6  -11    8     -1.01      0.00
   -4  -10    8     -1.14      0.00
   -3  -10    8     -1.54      0.00
   -2  -10    8      1.41      0.00
   -1  -10    8      0.11      0.00
    0  -10    8      0.05      0.00
    1  -10    8     -0.36      0.00
    2  -10    8     -0.86      0.00
    3  -10    8      3.35      0.00
    4  -10    8      0.47      0.00
    5  -10    8     -2.25      0.00
    6  -10    8      0.16      0.00
   -5   -9    8     -0.45      0.00
   -4   -9    8      0.25      0.00
   -3   -9    8      0.23      0.00
   -2   -9    8      0.46      0.00
   -1   -9    8     -0.22      0.00
    0   -9    8      0.15      0.00
    1   -9    8      0.21      0.00
    2   -9    8     -0.48      0.00
    3   -9    8     -0.53      0.00
    4   -9    8      1.71      0.00
    6   -9    8      0.29      0.00
   -5   -8    8      0.79      0.00
   -4   -8    8     -0.20      0.00
   -3   -8    8      3.05      0.00
   -2   -8    8     -3.84      0.00
   -1   -8    8      1.42      0.00
    0   -8    8      0.87      0.00
    1   -8    8     -0.72      0.00
    2   -8    8      0.63      0.00
    3   -8    8      4.04      0.00
    4   -8    8     -3.99      0.00
    6   -8    8      0.16      0.00
    7   -8    8     -0.71      0.00
   -6   -7    8     -0.55      0.00
   -5   -7    8     -0.28      0.00
   -4   -7    8     -0.11      0.00
   -3   -7    8     -4.25      0.00
   -2   -7    8      4.60      0.00
   -1   -7    8     -0.43      0.00
    0   -7    8     -0.30      0.00
    1   -7    8      1.07      0.00
    2   -7    8     -0.99      0.00
    3   -7    8     -2.22      0.00
    4   -7    8      0.88      0.00
    5   -7    8     -1.46      0.00
    6   -7    8     -0.33      0.00
    7   -7    8     -0.57      0.00
   -6   -6    8     -0.57      0.00
   -5   -6    8      0.42      0.00
   -4   -6    8     -0.87      0.00
   -3   -6    8      3.47      0.00
   -2   -6    8     -3.54      0.00
   -1   -6    8     -0.19      0.00
    0   -6    8     -3.66      0.00
    1   -6    8      1.13      0.00
    2   -6    8      0.98      0.00
    3   -6    8     -0.47      0.00
    4   -6    8      2.10      0.00
    5   -6    8      1.11      0.00
    6   -6    8     -0.06      0.00
    7   -6    8      1.16      0.00
   -7   -5    8      1.48      0.00
   -6   -5    8      1.21      0.00
   -5   -5    8     -0.51      0.00
   -4   -5    8     -0.03      0.00
   -3   -5    8     -0.92      0.00
   -2   -5    8     -0.56      0.00
   -1   -5    8     -3.24      0.00
    0   -5    8      5.61      0.00
    1   -5    8     -1.32      0.00
    2   -5    8     -0.66      0.00
    3   -5    8      4.87      0.00
    4   -5    8     -2.47      0.00
    5   -5    8     -0.09      0.00
    6   -5    8     -0.85      0.00
    7   -5    8      0.94      0.00
   -7   -4    8     -0.09      0.00
   -6   -4    8     -2.05      0.00
   -5   -4    8     -1.00      0.00
   -4   -4    8      2.38      0.00
   -3   -4    8     -2.98      0.00
   -2   -4    8      2.26      0.00
   -1   -4    8      0.40      0.00
    0   -4    8     -2.01      0.00
    1   -4    8      2.99      0.00
    2   -4    8      1.41      0.00
    3   -4    8     -5.30      0.00
    4   -4    8      2.69      0.00
    6   -4    8      1.07      0.00
   -7   -3    8      1.65      0.00
   -6   -3    8      0.76      0.00
   -5   -3    8      2.22      0.00
   -4   -3    8     -1.82      0.00
   -3   -3    8      2.36      0.00
   -2   -3    8     -3.83      0.00
   -1   -3    8      4.50      0.00
    0   -3    8     -0.10      0.00
    1   -3    8     -3.39      0.00
    2   -3    8     -1.46      0.00
    3   -3    8      1.27      0.00
    4   -3    8     -0.59      0.00
    6   -3    8     -0.16      0.00
   -7   -2    8     -0.91      0.00
   -6   -2    8     -0.35      0.00
   -5   -2    8     -1.46      0.00
   -4   -2    8     -0.12      0.00
   -3   -2    8      0.78      0.00
   -2   -2    8      4.64      0.00
   -1   -2    8     -6.46      0.00
    0   -2    8      2.82      0.00
    1   -2    8      0.67      0.00
    2   -2    8      0.08      0.00
    3   -2    8      0.96      0.00
    4   -2    8     -0.76      0.00
    5   -2    8      1.40      0.00
    6   -2    8     -0.59      0.00
   -7   -1    8     -0.04      0.00
   -6   -1    8     -0.32      0.00
   -5   -1    8      1.70      0.00
   -4   -1    8      2.74      0.00
   -3   -1    8     -0.82      0.00
   -2   -1    8     -5.46      0.00
   -1   -1    8      9.83      0.00
    0   -1    8     -5.36      0.00
    1   -1    8      1.06      0.00
    2   -1    8      2.23      0.00
    3   -1    8     -2.36      0.00
    4   -1    8      2.00      0.00
    5   -1    8     -1.74      0.00
    6   -1    8      0.47      0.00
   -7    0    8     -1.23      0.00
   -6    0    8      1.98      0.00
   -5    0    8     -1.16      0.00
   -4    0    8     -1.26      0.00
   -3    0    8      0.88      0.00
   -2    0    8      2.51      0.00
   -1    0    8     -4.45      0.00
    0    0    8      1.26      0.00
    1    0    8      1.03      0.00
    2    0    8     -1.69      0.00
    3    0    8      0.01      0.00
    4    0    8     -0.53      0.00
    5    0    8     -1.01      0.00
   -7    1    8      1.79      0.00
   -6    1    8     -1.42      0.00
   -5    1    8      1.57      0.00
   -4    1    8      0.23      0.00
   -3    1    8     -2.90      0.00
   -2    1    8      2.39      0.00
   -1    1    8     -0.78      0.00
    0    1    8      2.45      0.00
    1    1    8     -0.81      0.00
    2    1    8     -1.86      0.00
    3    1    8      0.76      0.00
    4    1    8      0.62      0.00
    5    1    8     -0.09      0.00
   -7    2    8      0.55      0.00
   -6    2    8      0.67      0.00
   -5    2    8     -0.74      0.00
   -4    2    8     -0.18      0.00
   -3    2    8      2.27      0.00
   -2    2    8     -2.82      0.00
   -1    2    8      3.17      0.00
    0    2    8     -0.80      0.00
    1    2    8     -0.60      0.00
    2    2    8      1.60      0.00
    3    2    8      0.03      0.00
    4    2    8     -1.42      0.00
   -7    3    8     -0.62      0.00
   -6    3    8      0.55      0.00
   -5    3    8      1.01      0.00
   -4    3    8     -0.58      0.00
   -3    3    8      0.62      0.00
   -2    3    8      1.89      0.00
   -1    3    8     -1.40      0.00
    0    3    8      0.62      0.00
    1    3    8      0.90      0.00
    2    3    8     -0.94      0.00
    3    3    8      1.49      0.00
   -6    4    8     -0.66      0.00
   -5    4    8     -0.41      0.00
   -4    4    8      0.84      0.00
   -3    4    8     -2.61      0.00
   -2    4    8     -0.83      0.00
   -1    4    8      1.11      0.00
    0    4    8     -1.11      0.00
    1    4    8      0.10      0.00
    2    4    8      0.07      0.00
   -6    5    8      0.71      0.00
   -5    5    8     -0.94      0.00
   -4    5    8     -0.11      0.00
   -3    5    8      0.38      0.00
   -2    5    8     -0.56      0.00
   -1    5    8      0.04      0.00
    0    5    8      0.67      0.00
    1    5    8      0.05      0.00
   -5    6    8      0.06      0.00
   -4    6    8      0.14      0.00
   -3    6    8     -0.34      0.00
   -2    6    8      0.58      0.00
   -1    6    8     -1.21      0.00
    0    6    8      0.45      0.00
   -1  -13    9     -1.37      0.00
    0  -13    9      0.09      0.00
    1  -13    9     -0.65      0.00
    2  -13    9     -0.04      0.00
    3  -13    9     -0.94      0.00
    4  -13    9     -2.54      0.00
   -2  -12    9      0.64      0.00
   -1  -12    9     -0.25      0.00
    0  -12    9      0.21      0.00
    1  -12    9      1.77      0.00
    2  -12    9      0.60      0.00
    3  -12    9      0.26      0.00
    4  -12    9      1.77      0.00
    5  -12    9      3.18      0.00
   -3  -11    9      2.28      0.00
   -2  -11    9     -1.38      0.00
   -1  -11    9      1.07      0.00
    0  -11    9     -0.09      0.00
    1  -11    9     -0.59      0.00
    2  -11    9     -0.61      0.00
    3  -11    9     -2.88      0.00
    4  -11    9     -0.55      0.00
    5  -11    9      0.13      0.00
   -4  -10    9     -0.14      0.00
   -3  -10    9     -1.47      0.00
   -2  -10    9      1.87      0.00
   -1  -10    9     -1.28      0.00
    0  -10    9      0.61      0.00
    1  -10    9      0.04      0.00
    2  -10    9     -0.81      0.00
    3  -10    9     -0.08      0.00
    4  -10    9      0.71      0.00
    5  -10    9     -0.05      0.00
    6  -10    9     -0.37      0.00
   -5   -9    9     -0.07      0.00
   -4   -9    9     -0.03      0.00
   -3   -9    9      0.60      0.00
   -2   -9    9      0.60      0.00
   -1   -9    9      0.86      0.00
    0   -9    9     -0.55      0.00
    1   -9    9     -0.51      0.00
    2   -9    9      0.55      0.00
    3   -9    9     -1.43      0.00
    4   -9    9      2.77      0.00
    5   -9    9     -0.35      0.00
    6   -9    9      0.28      0.00
   -5   -8    9      0.34      0.00
   -4   -8    9      1.15      0.00
   -3   -8    9      2.92      0.00
   -2   -8    9     -2.58      0.00
   -1   -8    9     -0.42      0.00
    0   -8    9      1.80      0.00
    1   -8    9     -0.65      0.00
    2   -8    9     -1.69      0.00
    3   -8    9      4.26      0.00
    4   -8    9     -2.13      0.00
    5   -8    9      1.08      0.00
    6   -8    9     -0.50      0.00
   -6   -7    9      0.08      0.00
   -5   -7    9      0.05      0.00
   -4   -7    9      0.45      0.00
   -3   -7    9     -3.09      0.00
   -2   -7    9      3.03      0.00
   -1   -7    9      2.17      0.00
    0   -7    9     -1.53      0.00
    1   -7    9      0.11      0.00
    2   -7    9      0.58      0.00
    3   -7    9     -3.24      0.00
    4   -7    9      0.80      0.00
    5   -7    9     -1.18      0.00
    6   -7    9      0.94      0.00
   -6   -6    9     -0.02      0.00
   -5   -6    9      0.45      0.00
   -4   -6    9     -1.84      0.00
   -3   -6    9      4.15      0.00
   -2   -6    9     -2.02      0.00
   -1   -6    9     -0.25      0.00
    0   -6    9     -2.34      0.00
    1   -6    9      0.89      0.00
    2   -6    9     -0.75      0.00
    3   -6    9      0.73      0.00
    4   -6    9      0.39      0.00
    5   -6    9      3.12      0.00
    6   -6    9     -0.37      0.00
   -6   -5    9      1.18      0.00
   -5   -5    9     -0.68      0.00
   -4   -5    9      1.07      0.00
   -3   -5    9     -0.78      0.00
   -2   -5    9      1.46      0.00
   -1   -5    9     -4.43      0.00
    0   -5    9      3.37      0.00
    1   -5    9     -0.54      0.00
    2   -5    9     -1.80      0.00
    3   -5    9      4.60      0.00
    4   -5    9     -2.05      0.00
    5   -5    9     -0.93      0.00
    6   -5    9     -0.74      0.00
   -7   -4    9     -0.61      0.00
   -6   -4    9     -0.68      0.00
   -5   -4    9     -1.00      0.00
   -4   -4    9      1.43      0.00
   -3   -4    9     -0.04      0.00
   -2   -4    9     -1.12      0.00
   -1   -4    9      3.44      0.00
    0   -4    9     -3.37      0.00
    1   -4    9      2.52      0.00
    2   -4    9      2.40      0.00
    3   -4    9     -4.15      0.00
    4   -4    9      0.41      0.00
    5   -4    9      0.03      0.00
    6   -4    9      0.49      0.00
   -7   -3    9      1.61      0.00
   -6   -3    9      0.52      0.00
   -5   -3    9      1.52      0.00
   -4   -3    9     -1.36      0.00
   -3   -3    9      1.06      0.00
   -2   -3    9     -0.94      0.00
   -1   -3    9     -0.49      0.00
    0   -3    9      2.93      0.00
    1   -3    9     -1.66      0.00
    2   -3    9     -3.36      0.00
    3   -3    9      0.67      0.00
    4   -3    9     -0.43      0.00
    5   -3    9      0.25      0.00
    6   -3    9      0.00      0.00
   -7   -2    9      0.18      0.00
   -6   -2    9     -0.62      0.00
   -5   -2    9     -1.38      0.00
   -4   -2    9     -0.30      0.00
   -3   -2    9     -0.29      0.00
   -2   -2    9      4.14      0.00
   -1   -2    9     -4.73      0.00
    0   -2    9      0.82      0.00
    1   -2    9     -1.66      0.00
    2   -2    9      0.05      0.00
    3   -2    9     -0.83      0.00
    4   -2    9     -0.92      0.00
    5   -2    9      1.81      0.00
   -7   -1    9     -0.36      0.00
   -6   -1    9      0.02      0.00
   -5   -1    9      0.57      0.00
   -4   -1    9      0.64      0.00
   -3   -1    9      2.77      0.00
   -2   -1    9     -7.38      0.00
   -1   -1    9      6.80      0.00
    0   -1    9     -2.29      0.00
    1   -1    9     -0.32      0.00
    2   -1    9      1.28      0.00
    3   -1    9     -1.45      0.00
    4   -1    9      0.12      0.00
    5   -1    9     -0.53      0.00
   -7    0    9     -1.91      0.00
   -6    0    9      0.39      0.00
   -5    0    9     -0.32      0.00
   -4    0    9     -0.12      0.00
   -3    0    9     -0.68      0.00
   -2    0    9      4.16      0.00
   -1    0    9     -3.71      0.00
    0    0    9      0.00      0.00
    1    0    9      1.63      0.00
    2    0    9     -0.53      0.00
    3    0    9     -0.54      0.00
    4    0    9     -0.73      0.00
   -7    1    9      1.58      0.00
   -6    1    9     -1.05      0.00
   -5    1    9      0.21      0.00
   -4    1    9      0.86      0.00
   -3    1    9     -1.75      0.00
   -2    1    9     -0.72      0.00
   -1    1    9      0.39      0.00
    0    1    9      0.18      0.00
    1    1    9      0.00      0.00
    2    1    9     -1.84      0.00
    3    1    9     -0.81      0.00
    4    1    9      0.98      0.00
   -7    2    9     -0.88      0.00
   -6    2    9      0.68      0.00
   -5    2    9     -1.18      0.00
   -4    2    9     -0.41      0.00
   -3    2    9      1.81      0.00
   -2    2    9     -1.88      0.00
   -1    2    9      0.27      0.00
    0    2    9      0.91      0.00
    1    2    9     -0.83      0.00
    2    2    9     -0.61      0.00
    3    2    9      0.28      0.00
   -6    3    9     -0.33      0.00
   -5    3    9      1.35      0.00
   -4    3    9     -0.76      0.00
   -3    3    9      0.16      0.00
   -2    3    9      2.35      0.00
   -1    3    9     -0.36      0.00
    0    3    9      0.53      0.00
    1    3    9      0.70      0.00
    2    3    9     -0.66      0.00
   -5    4    9     -0.10      0.00
   -4    4    9      0.66      0.00
   -3    4    9     -0.96      0.00
   -2    4    9     -1.57      0.00
   -1    4    9      0.42      0.00
    0    4    9     -1.10      0.00
    1    4    9      0.55      0.00
   -4    5    9     -0.89      0.00
   -3    5    9      0.10      0.00
   -2    5    9     -0.41      0.00
   -1    5    9     -0.17      0.00
    0    5    9      0.14      0.00
    0  -13   10     -0.36      0.00
    1  -13   10     -2.63      0.00
    2  -13   10     -0.29      0.00
    3  -13   10      1.12      0.00
   -2  -12   10     -0.36      0.00
   -1  -12   10     -1.27      0.00
    0  -12   10     -0.30      0.00
    1  -12   10      2.17      0.00
    2  -12   10      2.22      0.00
    3  -12   10      0.66      0.00
    4  -12   10      1.24      0.00
   -3  -11   10      0.58      0.00
   -2  -11   10     -1.54      0.00
   -1  -11   10      2.32      0.00
    0  -11   10      0.05      0.00
    1  -11   10      1.46      0.00
    2  -11   10     -0.22      0.00
    3  -11   10      0.12      0.00
    4  -11   10     -0.66      0.00
    5  -11   10      0.22      0.00
   -4  -10   10     -0.16      0.00
   -3  -10   10     -1.47      0.00
   -2  -10   10      2.56      0.00
   -1  -10   10     -0.97      0.00
    0  -10   10      0.59      0.00
    1  -10   10      1.17      0.00
    2  -10   10     -0.19      0.00
    3  -10   10     -1.73      0.00
    4  -10   10     -1.00      0.00
    5  -10   10      0.58      0.00
   -4   -9   10     -1.46      0.00
   -3   -9   10      1.02      0.00
   -2   -9   10      0.44      0.00
   -1   -9   10      0.01      0.00
    0   -9   10     -0.87      0.00
    1   -9   10     -0.81      0.00
    2   -9   10      1.13      0.00
    3   -9   10     -2.48      0.00
    4   -9   10     -0.24      0.00
    5   -9   10      0.34      0.00
   -5   -8   10     -0.20      0.00
   -4   -8   10      1.38      0.00
   -3   -8   10      0.60      0.00
   -2   -8   10     -0.63      0.00
   -1   -8   10     -0.51      0.00
    0   -8   10      2.02      0.00
    1   -8   10      0.80      0.00
    2   -8   10     -1.30      0.00
    3   -8   10      1.90      0.00
    4   -8   10     -0.58      0.00
    5   -8   10     -0.18      0.00
    6   -8   10     -0.54      0.00
   -5   -7   10     -0.40      0.00
   -4   -7   10      0.66      0.00
   -3   -7   10     -1.77      0.00
   -2   -7   10      0.23      0.00
   -1   -7   10      3.19      0.00
    0   -7   10     -1.61      0.00
    1   -7   10     -2.44      0.00
    2   -7   10      2.33      0.00
    3   -7   10     -3.78      0.00
    4   -7   10     -0.59      0.00
    5   -7   10     -2.35      0.00
    6   -7   10      0.96      0.00
   -6   -6   10     -0.10      0.00
   -5   -6   10      0.85      0.00
   -4   -6   10     -2.29      0.00
   -3   -6   10      1.46      0.00
   -2   -6   10      0.44      0.00
   -1   -6   10     -0.86      0.00
    0   -6   10     -1.06      0.00
    1   -6   10      0.72      0.00
    2   -6   10     -1.71      0.00
    3   -6   10      0.69      0.00
    4   -6   10     -0.99      0.00
    5   -6   10      3.23      0.00
   -6   -5   10      0.79      0.00
   -5   -5   10     -2.15      0.00
   -4   -5   10      0.81      0.00
   -3   -5   10     -2.24      0.00
   -2   -5   10      2.62      0.00
   -1   -5   10     -3.97      0.00
    0   -5   10      1.63      0.00
    1   -5   10      1.02      0.00
    2   -5   10     -0.83      0.00
    3   -5   10      4.02      0.00
    4   -5   10     -0.41      0.00
    5   -5   10     -0.98      0.00
   -6   -4   10      0.02      0.00
   -5   -4   10     -0.38      0.00
   -4   -4   10      0.13      0.00
   -3   -4   10      1.69      0.00
   -2   -4   10     -3.26      0.00
   -1   -4   10      4.47      0.00
    0   -4   10     -3.62      0.00
    1   -4   10      0.39      0.00
    2   -4   10      3.14      0.00
    3   -4   10     -0.27      0.00
    4   -4   10     -1.55      0.00
    5   -4   10     -0.57      0.00
   -6   -3   10      0.31      0.00
   -5   -3   10      0.78      0.00
   -4   -3   10     -0.34      0.00
   -3   -3   10     -1.55      0.00
   -2   -3   10      3.06      0.00
   -1   -3   10     -3.06      0.00
    0   -3   10      3.09      0.00
    1   -3   10      2.87      0.00
    2   -3   10     -2.86      0.00
    3   -3   10      0.56      0.00
    4   -3   10      0.67      0.00
    5   -3   10     -0.89      0.00
   -6   -2   10     -0.35      0.00
   -5   -2   10      0.16      0.00
   -4   -2   10     -0.63      0.00
   -3   -2   10      0.60      0.00
   -2   -2   10      1.59      0.00
   -1   -2   10     -0.61      0.00
    0   -2   10     -0.17      0.00
    1   -2   10     -0.96      0.00
    2   -2   10      0.93      0.00
    3   -2   10     -0.11      0.00
    4   -2   10      0.64      0.00
   -6   -1   10      0.80      0.00
   -5   -1   10     -0.92      0.00
   -4   -1   10     -1.88      0.00
   -3   -1   10      2.63      0.00
   -2   -1   10     -5.24      0.00
   -1   -1   10      1.61      0.00
    0   -1   10     -0.38      0.00
    1   -1   10     -2.16      0.00
    2   -1   10      0.40      0.00
    3   -1   10     -0.93      0.00
    4   -1   10     -0.29      0.00
   -6    0   10     -0.59      0.00
   -5    0   10      0.73      0.00
   -4    0   10      0.99      0.00
   -3    0   10     -2.41      0.00
   -2    0   10      4.17      0.00
   -1    0   10     -1.78      0.00
    0    0   10     -0.81      0.00
    1    0   10      2.44      0.00
    2    0   10      0.49      0.00
    3    0   10     -0.05      0.00
   -6    1   10     -0.30      0.00
   -5    1   10     -0.02      0.00
   -4    1   10     -0.64      0.00
   -3    1   10     -0.02      0.00
   -2    1   10     -0.89      0.00
   -1    1   10     -0.04      0.00
    0    1   10     -1.13      0.00
    1    1   10      0.07      0.00
    2    1   10      1.59      0.00
    3    1   10     -1.85      0.00
   -6    2   10      0.57      0.00
   -5    2   10     -1.21      0.00
   -4    2   10      0.25      0.00
   -3    2   10      1.86      0.00
   -2    2   10     -1.26      0.00
   -1    2   10     -0.80      0.00
    0    2   10      1.04      0.00
    1    2   10     -0.75      0.00
    2    2   10     -1.54      0.00
   -5    3   10      0.48      0.00
   -4    3   10      0.02      0.00
   -3    3   10     -1.21      0.00
   -2    3   10      2.67      0.00
   -1    3   10      0.54      0.00
    0    3   10      0.16      0.00
    1    3   10     -0.29      0.00
   -4    4   10      0.49      0.00
   -3    4   10      0.43      0.00
   -2    4   10      0.25      0.00
   -1    4   10     -0.27      0.00
    1  -13   11     -2.50      0.00
    2  -13   11     -1.02      0.00
   -1  -12   11     -2.49      0.00
    0  -12   11     -0.86      0.00
    1  -12   11     -2.44      0.00
    2  -12   11      1.58      0.00
    3  -12   11     -0.27      0.00
   -3  -11   11     -0.55      0.00
   -2  -11   11     -2.52      0.00
   -1  -11   11      0.41      0.00
    0  -11   11     -0.60      0.00
    1  -11   11      1.28      0.00
    2  -11   11     -0.38      0.00
    3  -11   11      1.28      0.00
    4  -11   11      0.26      0.00
   -3  -10   11     -1.69      0.00
   -2  -10   11      1.47      0.00
   -1  -10   11      1.03      0.00
    0  -10   11      0.24      0.00
    1  -10   11      1.00      0.00
    2  -10   11      0.81      0.00
    3  -10   11      1.66      0.00
    4  -10   11      0.72      0.00
   -4   -9   11     -2.33      0.00
   -3   -9   11      1.26      0.00
   -2   -9   11      0.31      0.00
   -1   -9   11     -1.88      0.00
    0   -9   11     -1.06      0.00
    1   -9   11     -0.16      0.00
    2   -9   11      0.12      0.00
    3   -9   11     -0.29      0.00
    4   -9   11     -1.79      0.00
    5   -9   11      0.13      0.00
   -5   -8   11     -0.01      0.00
   -4   -8   11      0.75      0.00
   -3   -8   11     -0.83      0.00
   -2   -8   11     -0.16      0.00
   -1   -8   11     -0.22      0.00
    0   -8   11      2.06      0.00
    1   -8   11      2.15      0.00
    2   -8   11      0.13      0.00
    3   -8   11      0.33      0.00
    4   -8   11      1.97      0.00
    5   -8   11     -1.10      0.00
   -5   -7   11     -0.01      0.00
   -4   -7   11      0.62      0.00
   -3   -7   11     -0.33      0.00
   -2   -7   11     -1.97      0.00
   -1   -7   11      4.09      0.00
    0   -7   11     -0.66      0.00
    1   -7   11     -3.15      0.00
    2   -7   11      3.55      0.00
    3   -7   11     -1.26      0.00
    4   -7   11     -0.01      0.00
    5   -7   11     -2.72      0.00
   -5   -6   11      2.09      0.00
   -4   -6   11     -1.15      0.00
   -3   -6   11     -0.65      0.00
   -2   -6   11      1.24      0.00
   -1   -6   11     -1.45      0.00
    0   -6   11     -0.27      0.00
    1   -6   11      0.09      0.00
    2   -6   11     -2.50      0.00
    3   -6   11     -0.09      0.00
    4   -6   11     -1.01      0.00
    5   -6   11      1.36      0.00
   -6   -5   11      0.19      0.00
   -5   -5   11     -2.36      0.00
   -4   -5   11      0.71      0.00
   -3   -5   11     -2.37      0.00
   -2   -5   11      1.73      0.00
   -1   -5   11     -1.92      0.00
    0   -5   11      0.80      0.00
    1   -5   11      1.39      0.00
    2   -5   11      0.08      0.00
    3   -5   11      1.35      0.00
    4   -5   11      1.33      0.00
    5   -5   11      0.41      0.00
   -6   -4   11      0.19      0.00
   -5   -4   11     -0.25      0.00
   -4   -4   11     -0.11      0.00
   -3   -4   11      0.18      0.00
   -2   -4   11     -3.91      0.00
   -1   -4   11      3.94      0.00
    0   -4   11     -2.42      0.00
    1   -4   11     -2.62      0.00
    2   -4   11      3.08      0.00
    3   -4   11      1.62      0.00
    4   -4   11     -0.71      0.00
   -6   -3   11     -0.07      0.00
   -5   -3   11     -0.62      0.00
   -4   -3   11      1.20      0.00
   -3   -3   11     -3.83      0.00
   -2   -3   11      5.18      0.00
   -1   -3   11     -3.68      0.00
    0   -3   11      0.53      0.00
    1   -3   11      3.56      0.00
    2   -3   11     -1.60      0.00
    3   -3   11      0.92      0.00
    4   -3   11      1.17      0.00
   -6   -2   11     -0.41      0.00
   -5   -2   11      2.29      0.00
   -4   -2   11      0.56      0.00
   -3   -2   11      2.33      0.00
   -2   -2   11     -1.12      0.00
   -1   -2   11      2.63      0.00
    0   -2   11      0.16      0.00
    1   -2   11      1.14      0.00
    2   -2   11      1.79      0.00
    3   -2   11      0.80      0.00
    4   -2   11      1.12      0.00
   -6   -1   11      1.19      0.00
   -5   -1   11     -0.92      0.00
   -4   -1   11     -2.32      0.00
   -3   -1   11      1.29      0.00
   -2   -1   11     -1.75      0.00
   -1   -1   11      0.16      0.00
    0   -1   11      0.89      0.00
    1   -1   11     -2.77      0.00
    2   -1   11      0.42      0.00
    3   -1   11     -0.83      0.00
   -5    0   11      0.38      0.00
   -4    0   11      2.67      0.00
   -3    0   11     -2.39      0.00
   -2    0   11      2.04      0.00
   -1    0   11      1.09      0.00
    0    0   11     -0.93      0.00
    1    0   11      1.97      0.00
    2    0   11     -1.20      0.00
   -5    1   11      0.97      0.00
   -4    1   11     -1.45      0.00
   -3    1   11      0.06      0.00
   -2    1   11     -0.62      0.00
   -1    1   11     -0.05      0.00
    0    1   11     -1.31      0.00
    1    1   11     -0.38      0.00
    2    1   11      3.84      0.00
   -4    2   11     -0.22      0.00
   -3    2   11      1.98      0.00
   -2    2   11     -1.35      0.00
   -1    2   11     -0.29      0.00
    0    2   11      0.93      0.00
   -3    3   11     -1.46      0.00
   -2    3   11      0.88      0.00
    0  -12   12      0.52      0.00
    1  -12   12     -3.86      0.00
    2  -12   12      1.32      0.00
   -2  -11   12     -1.18      0.00
   -1  -11   12     -1.19      0.00
    0  -11   12     -0.10      0.00
    1  -11   12     -0.04      0.00
    2  -11   12     -1.22      0.00
    3  -11   12     -1.87      0.00
   -3  -10   12      0.00      0.00
   -2  -10   12     -0.08      0.00
   -1  -10   12      2.00      0.00
    0  -10   12      0.24      0.00
    1  -10   12     -1.51      0.00
    2  -10   12      0.37      0.00
    3  -10   12      2.07      0.00
    4  -10   12      2.36      0.00
   -3   -9   12      1.22      0.00
   -2   -9   12      1.05      0.00
   -1   -9   12     -1.73      0.00
    0   -9   12     -1.30      0.00
    1   -9   12      0.18      0.00
    2   -9   12     -1.47      0.00
    3   -9   12      1.30      0.00
    4   -9   12     -0.75      0.00
   -4   -8   12     -0.03      0.00
   -3   -8   12      0.72      0.00
   -2   -8   12      0.07      0.00
   -1   -8   12     -1.62      0.00
    0   -8   12      1.53      0.00
    1   -8   12      0.87      0.00
    2   -8   12     -0.51      0.00
    3   -8   12     -2.67      0.00
    4   -8   12      2.96      0.00
   -4   -7   12      0.46      0.00
   -3   -7   12      1.91      0.00
   -2   -7   12     -2.69      0.00
   -1   -7   12      3.54      0.00
    0   -7   12     -0.42      0.00
    1   -7   12     -2.50      0.00
    2   -7   12      2.62      0.00
    3   -7   12      0.46      0.00
    4   -7   12      1.05      0.00
   -5   -6   12      2.47      0.00
   -4   -6   12      0.44      0.00
   -3   -6   12     -1.03      0.00
   -2   -6   12      1.06      0.00
   -1   -6   12     -1.36      0.00
    0   -6   12      0.21      0.00
    1   -6   12      0.26      0.00
    2   -6   12     -3.20      0.00
    3   -6   12      0.02      0.00
    4   -6   12     -0.75      0.00
   -5   -5   12     -0.66      0.00
   -4   -5   12     -0.34      0.00
   -3   -5   12      1.65      0.00
   -2   -5   12      0.24      0.00
   -1   -5   12     -0.57      0.00
    0   -5   12      0.29      0.00
    1   -5   12      0.20      0.00
    2   -5   12     -0.13      0.00
    3   -5   12     -1.81      0.00
    4   -5   12      0.10      0.00
   -5   -4   12     -0.48      0.00
   -4   -4   12      0.50      0.00
   -3   -4   12     -0.15      0.00
   -2   -4   12     -3.96      0.00
   -1   -4   12      2.57      0.00
    0   -4   12      0.19      0.00
    1   -4   12     -3.87      0.00
    2   -4   12      1.21      0.00
    3   -4   12     -0.51      0.00
   -5   -3   12     -1.94      0.00
   -4   -3   12      1.21      0.00
   -3   -3   12     -4.36      0.00
   -2   -3   12      4.17      0.00
   -1   -3   12     -2.31      0.00
    0   -3   12     -1.41      0.00
    1   -3   12      1.45      0.00
    2   -3   12     -1.45      0.00
    3   -3   12      0.39      0.00
   -5   -2   12      1.58      0.00
   -4   -2   12      0.67      0.00
   -3   -2   12      3.48      0.00
   -2   -2   12     -2.46      0.00
   -1   -2   12      1.45      0.00
    0   -2   12      0.24      0.00
    1   -2   12     -0.15      0.00
    2   -2   12      0.76      0.00
   -5   -1   12     -0.03      0.00
   -4   -1   12     -1.49      0.00
   -3   -1   12     -0.29      0.00
   -2   -1   12      0.09      0.00
   -1   -1   12     -0.95      0.00
    0   -1   12      1.35      0.00
    1   -1   12     -1.74      0.00
    2   -1   12      1.05      0.00
   -4    0   12      2.09      0.00
   -3    0   12     -0.80      0.00
   -2    0   12      0.31      0.00
   -1    0   12      1.71      0.00
    0    0   12     -0.24      0.00
    1    0   12      1.47      0.00
   -3    1   12      0.05      0.00
   -2    1   12     -0.84      0.00
   -1    1   12     -0.23      0.00
    0  -11   13      0.51      0.00
    1  -11   13      1.38      0.00
   -2  -10   13     -1.03      0.00
   -1  -10   13      0.80      0.00
    0  -10   13      0.71      0.00
    1  -10   13     -1.48      0.00
    2  -10   13      0.01      0.00
   -2   -9   13      0.86      0.00
   -1   -9   13      0.03      0.00
    0   -9   13     -0.93      0.00
    1   -9   13      1.29      0.00
    2   -9   13     -0.54      0.00
    3   -9   13      1.58      0.00
   -3   -8   13      0.96      0.00
   -2   -8   13      0.76      0.00
   -1   -8   13     -1.51      0.00
    0   -8   13      1.94      0.00
    1   -8   13     -0.26      0.00
    2   -8   13     -0.06      0.00
    3   -8   13     -3.94      0.00
   -3   -7   13      2.61      0.00
   -2   -7   13     -1.37      0.00
   -1   -7   13      1.59      0.00
    0   -7   13     -0.94      0.00
    1   -7   13     -1.42      0.00
    2   -7   13      1.19      0.00
    3   -7   13     -0.07      0.00
   -4   -6   13      1.45      0.00
   -3   -6   13     -1.43      0.00
   -2   -6   13      1.11      0.00
   -1   -6   13     -1.07      0.00
    0   -6   13      0.39      0.00
    1   -6   13      1.93      0.00
    2   -6   13     -2.23      0.00
    3   -6   13      1.63      0.00
   -4   -5   13     -2.11      0.00
   -3   -5   13      2.87      0.00
   -2   -5   13     -0.13      0.00
   -1   -5   13     -0.22      0.00
    0   -5   13      0.53      0.00
    1   -5   13     -0.11      0.00
    2   -5   13      0.56      0.00
   -4   -4   13     -0.10      0.00
   -3   -4   13      1.07      0.00
   -2   -4   13     -2.10      0.00
   -1   -4   13      0.44      0.00
    0   -4   13      1.28      0.00
    1   -4   13     -2.39      0.00
    2   -4   13     -0.01      0.00
   -4   -3   13      0.36      0.00
   -3   -3   13     -3.06      0.00
   -2   -3   13      1.67      0.00
   -1   -3   13     -0.54      0.00
    0   -3   13     -1.19      0.00
    1   -3   13      1.96      0.00
   -3   -2   13      2.85      0.00
   -2   -2   13     -1.61      0.00
   -1   -2   13      0.18      0.00
    0   -2   13      0.61      0.00
    1   -2   13     -1.37      0.00
   -3   -1   13     -1.22      0.00
   -2   -1   13      0.68      0.00
   -1   -1   13     -1.56      0.00
    0   -9   14     -1.28      0.00
   -1   -8   14     -0.12      0.00
    0   -8   14      2.22      0.00
    1   -8   14     -0.41      0.00
   -2   -7   14     -0.50      0.00
   -1   -7   14      0.63      0.00
    0   -7   14     -0.96      0.00
    1   -7   14     -0.73      0.00
   -2   -6   14      1.48      0.00
   -1   -6   14     -0.65      0.00
    0   -6   14     -0.61      0.00
    1   -6   14      1.93      0.00
   -2   -5   14     -0.26      0.00
   -1   -5   14     -0.04      0.00
    0   -5   14      0.86      0.00
   -2   -4   14      0.23      0.00
   -1   -4   14     -0.47      0.00
    0    1    0    -32.68      0.00
    1  -11    1     -1.87      0.00
    0    0    1     60.43      0.00
    1    9    1      1.35      0.00
    5    2    7      2.59      0.00
    5   -9    8     -1.11      0.00
    5   -8    8      1.20      0.00
    5   -4    8     -0.56      0.00
    5   -3    8      1.19      0.00
    0    0    0      0.00      0.00
# SQUEEZE RESULTS (Version = 260217)
# Note: Data are Listed for all Voids in the P1 Unit Cell
# i.e. Centre of Gravity, Solvent Accessible Volume,
# Recovered number of Electrons in the Void and
# Details about the Squeezed Material
loop_
  _platon_squeeze_void_nr
  _platon_squeeze_void_average_x
  _platon_squeeze_void_average_y
  _platon_squeeze_void_average_z
  _platon_squeeze_void_volume
  _platon_squeeze_void_count_electrons
  _platon_squeeze_void_content
   1  0.148  0.500  1.000       291        84 ' '
# Missing Reflections Below sin(th)/lambda = 0.25
loop_
  _platon_missing_refln_index_h
  _platon_missing_refln_index_k
  _platon_missing_refln_index_l
  _platon_missing_refln_theta
    0    1    0     2.240
    0    0    1     2.170
_platon_squeeze_void_probe_radius                  1.20
_platon_squeeze_details
)
TITL mo_em_01_75a_150k_0m_4_a.res in P-1
CELL    6.8403   10.7142   10.7928    117.29     94.19    103.25
SPGR P-1
# Solvent Accessible Volume =       291
# Electrons Found in S.A.V. =        84
# Note: Atoms in Void as Cxxx and Qxxx all others
Q101 0.625 0.367 0.130 !       8.28 eA-3
C102 0.459 0.384 0.097 !       5.07 eA-3
C103 0.670 0.678 0.028 !       4.98 eA-3
C104 0.854 0.669 0.078 !       2.78 eA-3
C105 0.634 0.780 0.154 !       2.72 eA-3
C106 0.775 0.626 0.081 !       2.09 eA-3
C107 0.542 0.831 0.137 !       2.01 eA-3
C108 0.135 0.405 0.001 !       2.01 eA-3
C109 0.195 0.449 0.063 !       2.00 eA-3
C110 0.734 0.566 0.173 !       1.93 eA-3
Q111 0.501 0.497 0.410 !       1.13 eA-3
C112 0.569 0.687 0.189 !       0.96 eA-3
C113 1.014 0.472 0.061 !       0.96 eA-3
C114 0.471 0.730 0.160 !       0.91 eA-3
C115 0.837 0.607 0.138 !       0.91 eA-3
Q116 0.159 0.294 0.110 !       0.91 eA-3
Q117 0.108 0.176 0.044 !       0.90 eA-3
C118 0.767 0.683 0.236 !       0.88 eA-3
C119 0.627 0.922 0.190 !       0.87 eA-3
Q120 0.374 0.487 0.132 !       0.86 eA-3
Q121 0.275 0.187 0.482 !       0.86 eA-3
C122 0.885 0.642 0.215 !       0.85 eA-3
Q123 0.091 0.155 0.406 !       0.83 eA-3
C124 0.776 0.910 0.218 !       0.83 eA-3
Q125 0.867 0.432 0.457 !       0.82 eA-3
Q126 0.363 0.267 0.036 !       0.82 eA-3
Q127 0.721 0.984 0.237 !       0.81 eA-3
Q128 0.908 0.736 0.299 !       0.80 eA-3
C129 0.487 0.901 0.219 !       0.80 eA-3
Q130 0.576 0.206 0.110 !       0.80 eA-3
Q131 1.004 0.534 0.382 !       0.80 eA-3
Q132 0.063 0.142 0.484 !       0.79 eA-3
Q133 0.428 0.880 0.291 !       0.79 eA-3
Q134 0.944 0.867 0.055 !       0.78 eA-3
Q135 0.501 0.485 0.219 !       0.77 eA-3
Q136 0.651 0.908 0.263 !       0.77 eA-3
Q137 0.870 0.886 0.302 !       0.77 eA-3
C138 0.770 0.483-0.002 !       0.76 eA-3
Q139 0.560 0.784 0.277 !       0.76 eA-3
Q140 0.987 0.655 0.299 !       0.75 eA-3
Q141 0.946 0.847 0.323 !       0.75 eA-3
Q142 0.871 0.814 0.414 !       0.75 eA-3
Q143 0.585 0.144 0.438 !       0.74 eA-3
Q144 0.510 0.708 0.463 !       0.72 eA-3
Q145 0.984 0.092 0.067 !       0.72 eA-3
Q146 0.247 0.379 0.197 !       0.72 eA-3
Q147 0.950 0.376 0.082 !       0.71 eA-3
Q148 0.386 0.434 0.172 !       0.71 eA-3
C149 0.528 0.460 0.050 !       0.71 eA-3
Q150 0.057 0.782 0.343 !       0.70 eA-3
Q151 0.998 0.482 0.409 !       0.70 eA-3
C152 0.848 0.469 0.034 !       0.69 eA-3
Q153 0.044 0.338 0.234 !       0.69 eA-3
Q154 0.152 0.302 0.199 !       0.69 eA-3
C155 0.528 0.762 0.013 !       0.69 eA-3
Q156 0.118 0.576 0.471 !       0.69 eA-3
Q157 0.772 0.518 0.344 !       0.68 eA-3
Q158 0.340 0.346 0.263 !       0.68 eA-3
Q159 0.330 0.800 0.450 !       0.68 eA-3
Q160 0.804 0.248 0.284 !       0.68 eA-3
Q161 0.311 0.574 0.349 !       0.68 eA-3
Q162 0.555 0.880 0.059 !       0.68 eA-3
Q163 0.335 0.358 0.124 !       0.67 eA-3
Q164 0.347 0.046 0.319 !       0.67 eA-3
Q165 0.651 0.263 0.050 !       0.67 eA-3
Q166 0.789 0.048 0.361 !       0.67 eA-3
C167 0.211 0.620 0.082 !       0.66 eA-3
Q168 0.755 0.199 0.025 !       0.66 eA-3
Q169 0.628 0.248 0.214 !       0.66 eA-3
Q170 0.689 0.306 0.174 !       0.65 eA-3
Q171 0.408 0.861 0.019 !       0.65 eA-3
C172 0.416 0.756 0.061 !       0.65 eA-3
C173 0.833 0.786 0.232 !       0.65 eA-3
Q174 0.732 0.826 0.250 !       0.65 eA-3
Q175 0.971 0.118 0.268 !       0.65 eA-3
C176 0.929 0.893 0.242 !       0.65 eA-3
Q177 0.068 0.922 0.134 !       0.64 eA-3
Q178 0.800 0.589 0.457 !       0.64 eA-3
Q179 0.065 0.093 0.171 !       0.64 eA-3
Q180 0.704 0.831 0.044 !       0.64 eA-3
C181 0.938 0.546 0.062 !       0.64 eA-3
Q182 0.467 0.933 0.136 !       0.64 eA-3
C183 0.400 0.627 0.127 !       0.64 eA-3
Q184 0.835 0.362 0.344 !       0.63 eA-3
Q185 0.623 0.493 0.451 !       0.63 eA-3
Q186 0.572 0.142 0.158 !       0.63 eA-3
Q187 0.715 0.402 0.382 !       0.63 eA-3
Q188 0.945 0.652 0.486 !       0.62 eA-3
Q189 0.345 0.893 0.230 !       0.62 eA-3
Q190 0.030 0.022 0.449 !       0.62 eA-3
Q191 0.342 0.380 0.380 !       0.62 eA-3
Q192 0.159 0.559 0.268 !       0.62 eA-3
Q193 0.397 0.782 0.489 !       0.62 eA-3
C194 0.412 0.809 0.166 !       0.61 eA-3
Q195 0.592 0.350 0.262 !       0.61 eA-3
Q196 0.439 0.999 0.011 !       0.61 eA-3
Q197 0.242 0.964 0.283 !       0.61 eA-3
Q198 0.276 0.155 0.018 !       0.61 eA-3
C199 0.967 0.649 0.199 !       0.60 eA-3
)
;
_shelx_fab_checksum              73318
_olex2_submission_special_instructions 'No special instructions were received'
loop_
_space_group_symop_operation_xyz
'x, y, z'
'-x, -y, -z'
loop_
_atom_site_label
_atom_site_type_symbol
_atom_site_fract_x
_atom_site_fract_y
_atom_site_fract_z
_atom_site_U_iso_or_equiv
_atom_site_adp_type
_atom_site_occupancy
_atom_site_site_symmetry_order
_atom_site_calc_flag
_atom_site_refinement_flags_posn
_atom_site_refinement_flags_adp
_atom_site_refinement_flags_occupancy
_atom_site_disorder_assembly
_atom_site_disorder_group
Fe1 Fe 0.500000 0.500000 0.500000 0.01572(19) Uani 1 2 d S T P . .
Fe2 Fe 1.000000 0.500000 0.500000 0.01766(19) Uani 1 2 d S T P . .
O1 O 0.6675(4) 0.6903(3) 0.6735(3) 0.0236(6) Uani 1 1 d . . . . .
O2 O 0.9736(4) 0.6499(3) 0.6932(3) 0.0251(6) Uani 1 1 d . . . . .
O3 O 0.2630(4) 0.5111(3) 0.5897(3) 0.0205(6) Uani 1 1 d . . . . .
C1 C 0.8507(6) 0.7254(4) 0.7351(4) 0.0222(8) Uani 1 1 d . . . . .
C2 C 0.9291(5) 0.8679(4) 0.8732(4) 0.0239(9) Uani 1 1 d . . . . .
C3 C 0.8011(6) 0.9559(5) 0.9245(4) 0.0304(10) Uani 1 1 d . . . . .
H3A H 0.665147 0.925482 0.872629 0.036 Uiso 1 1 calc R . . . .
C4 C 0.8717(6) 1.0882(4) 1.0515(4) 0.0316(10) Uani 1 1 d . . . . .
H4 H 0.784331 1.148427 1.086661 0.038 Uiso 1 1 calc R . . . .
O1A O 0.4282(4) 0.6223(3) 0.4178(3) 0.0230(6) Uani 1 1 d . . . . .
O2A O 1.1359(4) 0.6747(3) 0.4709(3) 0.0272(6) Uani 1 1 d . . . . .
C1A C 0.3174(6) 0.7079(4) 0.4551(4) 0.0210(8) Uani 1 1 d . . . . .
C2A C 0.4113(6) 0.8599(4) 0.4778(4) 0.0222(8) Uani 1 1 d . . . . .
C3A C 0.6241(6) 0.9166(5) 0.5104(5) 0.0296(9) Uani 1 1 d . . . . .
H3AA H 0.707816 0.859840 0.517835 0.036 Uiso 1 1 calc R . . . .
C4A C 0.7131(6) 1.0576(5) 0.5321(5) 0.0287(9) Uani 1 1 d . . . . .
H4A H 0.858228 1.097324 0.553614 0.034 Uiso 1 1 calc R . . . .
H3 H 0.302(6) 0.541(5) 0.678(5) 0.019(11) Uiso 1 1 d . . . . .
loop_
_atom_site_aniso_label
_atom_site_aniso_U_11
_atom_site_aniso_U_22
_atom_site_aniso_U_33
_atom_site_aniso_U_23
_atom_site_aniso_U_13
_atom_site_aniso_U_12
Fe1 0.0157(3) 0.0097(3) 0.0107(3) 0.0002(3) 0.0032(3) -0.0055(3)
Fe2 0.0168(4) 0.0081(3) 0.0153(4) -0.0010(3) 0.0075(3) -0.0053(3)
O1 0.0209(13) 0.0138(12) 0.0149(12) -0.0050(10) 0.0008(10) -0.0052(10)
O2 0.0227(13) 0.0188(13) 0.0149(12) -0.0044(10) 0.0061(10) -0.0002(11)
O3 0.0190(12) 0.0178(13) 0.0118(12) 0.0009(10) 0.0058(10) -0.0041(10)
C1 0.0244(18) 0.0153(17) 0.0117(16) -0.0021(14) 0.0077(14) -0.0034(14)
C2 0.0154(16) 0.0171(18) 0.0190(18) -0.0035(15) 0.0061(14) -0.0045(14)
C3 0.0133(16) 0.029(2) 0.023(2) -0.0036(17) 0.0015(15) -0.0036(15)
C4 0.0175(17) 0.024(2) 0.026(2) -0.0081(16) 0.0079(16) 0.0014(15)
O1A 0.0260(14) 0.0212(13) 0.0202(13) 0.0110(11) 0.0093(11) 0.0010(11)
O2A 0.0201(13) 0.0179(13) 0.0404(16) 0.0144(12) 0.0102(12) -0.0016(11)
C1A 0.0191(17) 0.0183(18) 0.0199(17) 0.0095(15) 0.0027(14) -0.0046(14)
C2A 0.0183(17) 0.0235(19) 0.0235(18) 0.0171(16) -0.0011(15) -0.0065(15)
C3A 0.0182(18) 0.027(2) 0.047(3) 0.025(2) 0.0026(18) 0.0005(16)
C4A 0.0159(17) 0.031(2) 0.040(2) 0.025(2) 0.0014(16) -0.0070(16)
loop_
_atom_type_symbol
_atom_type_description
_atom_type_scat_dispersion_real
_atom_type_scat_dispersion_imag
_atom_type_scat_source
C C 0.0033 0.0016 'International Tables Vol C Tables 4.2.6.8 and 6.1.1.4'
H H 0.0000 0.0000 'International Tables Vol C Tables 4.2.6.8 and 6.1.1.4'
Fe Fe 0.3463 0.8444 'International Tables Vol C Tables 4.2.6.8 and 6.1.1.4'
O O 0.0106 0.0060 'International Tables Vol C Tables 4.2.6.8 and 6.1.1.4'
loop_
_citation_id
_citation_doi
_citation_year
1 10.33774/chemrxiv-2021-lkt60 2021
loop_
_geom_angle_atom_site_label_1
_geom_angle_atom_site_label_2
_geom_angle_atom_site_label_3
_geom_angle
_geom_angle_site_symmetry_1
_geom_angle_site_symmetry_3
_geom_angle_publ_flag
O1 Fe1 O1 180.00(15) 2_666 . ?
O3 Fe1 O1 90.86(10) 2_666 . ?
O3 Fe1 O1 89.14(10) . . ?
O3 Fe1 O1 90.86(10) . 2_666 ?
O3 Fe1 O1 89.14(10) 2_666 2_666 ?
O3 Fe1 O3 180.0 . 2_666 ?
O3 Fe1 O1A 90.14(11) 2_666 2_666 ?
O3 Fe1 O1A 89.86(11) 2_666 . ?
O3 Fe1 O1A 89.86(11) . 2_666 ?
O3 Fe1 O1A 90.14(11) . . ?
O1A Fe1 O1 87.48(11) . . ?
O1A Fe1 O1 92.52(11) . 2_666 ?
O1A Fe1 O1 92.52(11) 2_666 . ?
O1A Fe1 O1 87.48(11) 2_666 2_666 ?
O1A Fe1 O1A 180.0 2_666 . ?
O2 Fe2 O2 180.0 . 2_766 ?
O2 Fe2 O2A 87.04(11) . . ?
O2 Fe2 O2A 92.96(11) 2_766 . ?
O2 Fe2 O2A 92.96(11) . 2_766 ?
O2 Fe2 O2A 87.04(11) 2_766 2_766 ?
O3 Fe2 O2 92.05(11) 2_666 . ?
O3 Fe2 O2 92.05(11) 1_655 2_766 ?
O3 Fe2 O2 87.95(11) 2_666 2_766 ?
O3 Fe2 O2 87.95(11) 1_655 . ?
O3 Fe2 O3 180.0 2_666 1_655 ?
O3 Fe2 O2A 89.36(11) 1_655 2_766 ?
O3 Fe2 O2A 90.64(11) 1_655 . ?
O3 Fe2 O2A 90.64(11) 2_666 2_766 ?
O3 Fe2 O2A 89.36(11) 2_666 . ?
O2A Fe2 O2A 180.0 . 2_766 ?
C1 O1 Fe1 128.6(2) . . ?
C1 O2 Fe2 133.8(3) . . ?
Fe1 O3 H3 109(3) . . ?
Fe2 O3 Fe1 123.73(14) 1_455 . ?
Fe2 O3 H3 126(3) 1_455 . ?
O1 C1 O2 125.9(3) . . ?
O1 C1 C2 117.2(3) . . ?
O2 C1 C2 116.8(3) . . ?
C3 C2 C1 119.5(4) . . ?
C3 C2 C4 120.2(3) . 2_777 ?
C4 C2 C1 120.3(3) 2_777 . ?
C2 C3 H3A 119.9 . . ?
C4 C3 C2 120.1(4) . . ?
C4 C3 H3A 119.9 . . ?
C2 C4 H4 120.2 2_777 . ?
C3 C4 C2 119.6(4) . 2_777 ?
C3 C4 H4 120.2 . . ?
C1A O1A Fe1 130.3(2) . . ?
C1A O2A Fe2 125.4(3) 1_655 . ?
O1A C1A C2A 116.4(3) . . ?
O2A C1A O1A 125.4(3) 1_455 . ?
O2A C1A C2A 118.2(4) 1_455 . ?
C3A C2A C1A 118.7(4) . . ?
C4A C2A C1A 120.3(3) 2_676 . ?
C4A C2A C3A 120.9(4) 2_676 . ?
C2A C3A H3AA 120.4 . . ?
C2A C3A C4A 119.3(4) . . ?
C4A C3A H3AA 120.3 . . ?
C2A C4A C3A 119.8(3) 2_676 . ?
C2A C4A H4A 120.1 2_676 . ?
C3A C4A H4A 120.1 . . ?
loop_
_geom_bond_atom_site_label_1
_geom_bond_atom_site_label_2
_geom_bond_distance
_geom_bond_site_symmetry_2
_geom_bond_publ_flag
Fe1 O1 2.023(2) . ?
Fe1 O1 2.023(2) 2_666 ?
Fe1 O3 1.947(2) 2_666 ?
Fe1 O3 1.947(2) . ?
Fe1 O1A 2.011(3) . ?
Fe1 O1A 2.011(3) 2_666 ?
Fe2 O2 2.019(2) . ?
Fe2 O2 2.019(2) 2_766 ?
Fe2 O3 1.931(3) 1_655 ?
Fe2 O3 1.931(3) 2_666 ?
Fe2 O2A 2.062(3) 2_766 ?
Fe2 O2A 2.062(3) . ?
O1 C1 1.260(5) . ?
O2 C1 1.263(5) . ?
O3 H3 0.85(4) . ?
C1 C2 1.503(5) . ?
C2 C3 1.390(6) . ?
C2 C4 1.390(5) 2_777 ?
C3 H3A 0.9500 . ?
C3 C4 1.389(5) . ?
C4 H4 0.9500 . ?
O1A C1A 1.266(5) . ?
O2A C1A 1.258(4) 1_655 ?
C1A C2A 1.501(5) . ?
C2A C3A 1.391(5) . ?
C2A C4A 1.391(6) 2_676 ?
C3A H3AA 0.9500 . ?
C3A C4A 1.393(5) . ?
C4A H4A 0.9500 . ?
