#------------------------------------------------------------------------------
#$Date: 2021-12-07 06:03:46 +0200 (Tue, 07 Dec 2021) $
#$Revision: 271237 $
#$URL: file:///home/coder/svn-repositories/cod/cif/1/56/49/1564910.cif $
#------------------------------------------------------------------------------
#
# This file is available in the Crystallography Open Database (COD),
# http://www.crystallography.net/
#
# All data on this site have been placed in the public domain by the
# contributors.
#
data_1564910
loop_
_publ_author_name
'Bara, Dominic'
'Meekel, Emily G.'
'Pakamor\.e, Ignas'
'Wilson, Claire'
'Ling, Sanliang'
'Forgan, Ross S.'
_publ_section_title
;
 Exploring and expanding the Fe-terephthalate metal-organic framework
 phase space by coordination and oxidation modulation.
;
_journal_issue                   12
_journal_name_full               'Materials horizons'
_journal_page_first              3377
_journal_page_last               3386
_journal_paper_doi               10.1039/d1mh01663f
_journal_volume                  8
_journal_year                    2021
_chemical_formula_moiety         Fe(III)2Fe(II)3(O)(C8H3O4Br)3(H2O)3
_chemical_formula_sum            'C24 H15 Br3 Fe3 O16'
_chemical_formula_weight         966.64
_space_group_crystal_system      tetragonal
_space_group_IT_number           141
_space_group_name_Hall           '-I 4bd 2'
_space_group_name_H-M_alt        'I 41/a m d :2'
_atom_sites_solution_primary     dual
_audit_block_doi                 10.5517/ccdc.csd.cc28395w
_audit_creation_date             2020-08-27
_audit_creation_method
;
Olex2 1.2
(compiled 2018.05.29 svn.r3508 for OlexSys, GUI svn.r5506)
;
_audit_update_record
;
2021-06-07 deposited with the CCDC.	2021-10-12 downloaded from the CCDC.
;
_cell_angle_alpha                90
_cell_angle_beta                 90
_cell_angle_gamma                90
_cell_formula_units_Z            8
_cell_length_a                   16.3069(11)
_cell_length_b                   16.3069(11)
_cell_length_c                   52.852(4)
_cell_measurement_reflns_used    8291
_cell_measurement_temperature    150(2)
_cell_measurement_theta_max      28.37
_cell_measurement_theta_min      2.30
_cell_volume                     14054.1(17)
_computing_cell_refinement       'SAINT V8.37A (Bruker-AXS, 2016)'
_computing_data_collection       'APEX3 Ver. 2016.9-0 (Bruker-AXS, 2016)'
_computing_data_reduction        'APEX3 Ver. 2016.9-0 (Bruker-AXS, 2016)'
_computing_molecular_graphics    'Olex2 (Dolomanov et al., 2009)'
_computing_publication_material  'Olex2 (Dolomanov et al., 2009)'
_computing_structure_refinement  'XL (Sheldrick, 2015b)'
_computing_structure_solution    'XT (Sheldrick, 2015a)'
_diffrn_ambient_temperature      150.15
_diffrn_detector                 'charge integrating pixel array detector'
_diffrn_detector_area_resol_mean 7.4074
_diffrn_detector_type            'Bruker PHOTON II'
_diffrn_measured_fraction_theta_full 0.998
_diffrn_measured_fraction_theta_max 0.995
_diffrn_measurement_device       'four-circle diffractometer'
_diffrn_measurement_device_type  'Bruker D8 VENTURE'
_diffrn_measurement_method       '\f and \w scans'
_diffrn_radiation_collimation    'focusing mirrors'
_diffrn_radiation_monochromator  'multilayer mirror optics'
_diffrn_radiation_type           MoK\a
_diffrn_radiation_wavelength     0.71073
_diffrn_reflns_av_R_equivalents  0.0818
_diffrn_reflns_av_unetI/netI     0.0596
_diffrn_reflns_Laue_measured_fraction_full 0.998
_diffrn_reflns_Laue_measured_fraction_max 0.995
_diffrn_reflns_limit_h_max       8
_diffrn_reflns_limit_h_min       -21
_diffrn_reflns_limit_k_max       15
_diffrn_reflns_limit_k_min       -21
_diffrn_reflns_limit_l_max       51
_diffrn_reflns_limit_l_min       -70
_diffrn_reflns_number            35038
_diffrn_reflns_point_group_measured_fraction_full 0.998
_diffrn_reflns_point_group_measured_fraction_max 0.995
_diffrn_reflns_theta_full        25.242
_diffrn_reflns_theta_max         28.409
_diffrn_reflns_theta_min         2.296
_diffrn_source                   'microfocus sealed tube'
_diffrn_source_type              'INCOATEC I\ms 3.0'
_diffrn_standards_number         0
_exptl_absorpt_coefficient_mu    2.350
_exptl_absorpt_correction_T_max  0.7457
_exptl_absorpt_correction_T_min  0.4874
_exptl_absorpt_correction_type   multi-scan
_exptl_absorpt_process_details
;
SADABS-2016/2 (Bruker,2016/2) was used for absorption correction. 
 wR2(int) was 0.1261 before and 0.0811 after correction. The Ratio 
 of minimum to maximum transmission is 0.6536. The \l/2 correction 
 factor is Not present.
;
_exptl_crystal_colour            red
_exptl_crystal_density_diffrn    0.914
_exptl_crystal_description       tablet
_exptl_crystal_F_000             3760
_exptl_crystal_size_max          0.33
_exptl_crystal_size_mid          0.3
_exptl_crystal_size_min          0.06
_refine_diff_density_max         1.096
_refine_diff_density_min         -0.728
_refine_diff_density_rms         0.116
_refine_ls_extinction_method     none
_refine_ls_goodness_of_fit_ref   1.047
_refine_ls_hydrogen_treatment    undef
_refine_ls_matrix_type           full
_refine_ls_number_parameters     160
_refine_ls_number_reflns         4705
_refine_ls_number_restraints     99
_refine_ls_restrained_S_all      1.111
_refine_ls_R_factor_all          0.1140
_refine_ls_R_factor_gt           0.0843
_refine_ls_shift/su_max          0.001
_refine_ls_shift/su_mean         0.000
_refine_ls_structure_factor_coef Fsqd
_refine_ls_weighting_details
'w=1/[\s^2^(Fo^2^)+(0.1523P)^2^+53.8512P] where P=(Fo^2^+2Fc^2^)/3'
_refine_ls_weighting_scheme      calc
_refine_ls_wR_factor_gt          0.2480
_refine_ls_wR_factor_ref         0.2759
_reflns_Friedel_coverage         0.000
_reflns_number_gt                3171
_reflns_number_total             4705
_reflns_threshold_expression     'I > 2\s(I)'
_cod_data_source_file            d1mh01663f2.cif
_cod_data_source_block           Fe_BDC_Br
_cod_depositor_comments
'Adding full bibliography for 1564910--1564914.cif.'
_cod_original_cell_volume        14054(2)
_cod_original_sg_symbol_H-M      'I 41/a m d'
_cod_database_code               1564910
_shelx_shelxl_version_number     2018/3
_shelx_space_group_comment
;
The symmetry employed for this shelxl refinement is uniquely defined
by the following loop, which should always be used as a source of
symmetry information in preference to the above space-group names.
They are only intended as comments.
;
_shelx_estimated_absorpt_t_max   0.872
_shelx_estimated_absorpt_t_min   0.511
_olex2_refinement_description
;
1. Restrained distances
 C4-C2 = C4-C3_$1 = C3_$1-C2_$1 = C6_$1-C2_$1 = C6_$1-C5 = C5-C2
 1.39 with sigma of 0.02
 Br2-C5 = Br2A-C5 = Br1A-C4 = Br1-C4 = Br3-C9 = Br3A-C9
 1.899 with sigma of 0.02
 C9A-C9_$2 = C9-C8 = C9A-C8
 1.39 with sigma of 0.02
2. Restrained planarity
 C2, C2_$1, C3_$1, C4, C5, C6_$1
 with sigma of 0.1
3. Uiso/Uaniso restraints and constraints
Br1 \\sim Br1A \\sim Br2 \\sim Br2A \\sim C2 \\sim C3 \\sim C4 \\sim C5 \\sim
C6: within 2A with sigma of 0.01 and sigma for terminal atoms of 0.02
Br3 \\sim Br3A \\sim C9 \\sim C9A: within 2A with sigma of 0.01 and sigma for
terminal atoms of 0.02
4. Others
 Fixed Sof: Br1(0.125) Br1A(0.125) Br2(0.125) Br2A(0.125) Br3(0.125)
 Br3A(0.125) C3(0.5) C4(0.5) C5(0.5) C6(0.5) C9(0.5) C9A(0.5)
;
_shelx_res_file
;
TITL mo_djb_07_18a_150k_0m_a.res in I4(1)/amd
    mo_djb_07_18a_150k_0m_sq.res
    created by SHELXL-2018/3 at 15:17:39 on 27-Aug-2020
REM Old TITL mo_DJB_07_18a_150K_0m in I4(1)/amd
REM SHELXT solution in I4(1)/amd
REM R1 0.259, Rweak 0.015, Alpha 0.062, Orientation as input
REM Formula found by SHELXT: C36 O16 Br2
CELL 0.71073 16.3069 16.3069 52.8518 90 90 90
ZERR 8 0.0011 0.0011 0.0043 0 0 0
LATT 2
SYMM 0.5-X,-Y,0.5+Z
SYMM 0.25-Y,0.75+X,0.25+Z
SYMM 0.25+Y,0.25-X,0.75+Z
SYMM 0.5-X,+Y,0.5-Z
SYMM +X,-Y,-Z
SYMM 0.25+Y,0.75+X,0.25-Z
SYMM 0.25-Y,0.25-X,0.75-Z
SFAC Br C Fe O H
UNIT 24 192 24 128 120
EQIV $1 0.75+Y,-0.75+X,0.75-Z
EQIV $2 +X,-Y,1-Z
DFIX 1.39 C4 C2 C4 C3_$1 C3_$1 C2_$1 C6_$1 C2_$1 C6_$1 C5 C5 C2
DFIX 1.899 Br2 C5 Br2A C5 Br1A C4 Br1 C4 Br3 C9 Br3A C9
DFIX 1.39 C9A C9_$2 C9 C8 C9A C8
FLAT C2 C2_$1 C3_$1 C4 C5 C6_$1
SIMU 0.01 0.02 2 Br1 > Br2A C2 > C6
SIMU 0.01 0.02 2 Br3 Br3A C9 C9A

L.S. 5 0 22
PLAN  15
SIZE 0.06 0.3 0.33
TEMP 0
FREE Br1A Br3
FREE Br1A Br3A
FREE C9 C9_$2
FREE C9 C9A
FREE C6 C3_$1
FREE C6 Br1A
FREE C6 Br1
FREE Br1 Br3
FREE Br1 Br3A
FREE C3 C5
FREE C3 Br2
FREE C3 Br2A
FREE C4 C6
FREE C4 C5_$1
FREE C9A C9A_$2
FREE C9A Br3A
FREE C9A Br3
MORE -1
ABIN
fmap 2 53
acta
REM <olex2.extras>
REM <HklSrc "%.\\mo_DJB_07_18a_150K_0m_sq.hkl">
REM </olex2.extras>

WGHT    0.152300   53.851196
FVAR       0.13269
PART 2
BR1   1    0.663021   -0.024210    0.429455    10.12500    0.17921    0.09696 =
         0.13567    0.04530    0.09929    0.05161
PART 0
PART 1
BR1A  1    0.719259    0.009383    0.437332    10.12500    0.19093    0.13904 =
         0.07236    0.00687    0.02733    0.11169
BR2   1    0.697760    0.139344    0.327907    10.12500    0.13362    0.13632 =
         0.06357    0.04810    0.04198    0.09931
PART 0
PART 2
BR2A  1    0.734240    0.174242    0.336172    10.12500    0.10674    0.07059 =
         0.09860    0.04529    0.05469    0.04892
PART 0
BR3   1    0.689003    0.043775    0.476243    10.12500    0.07162    0.11692 =
         0.13294    0.05943    0.01827    0.00652
BR3A  1    0.672225    0.006637    0.464283    10.12500    0.09276    0.11346 =
         0.12170    0.05300    0.04293    0.02869
FE1   3    0.500000    0.250000    0.378135    10.25000    0.02817    0.02997 =
         0.03449    0.00000    0.00000    0.00000
FE2   3    0.599832    0.250000    0.432795    10.50000    0.03038    0.03096 =
         0.03684    0.00000   -0.00201    0.00000
O1    4    0.500000    0.250000    0.415985    10.25000    0.02865    0.02568 =
         0.03297    0.00000    0.00000    0.00000
O2    4    0.591771    0.157517    0.376005    11.00000    0.04639    0.04966 =
         0.05715   -0.00879    0.00008    0.01621
O3    4    0.655665    0.162756    0.412849    11.00000    0.05565    0.06703 =
         0.06409   -0.02442   -0.01014    0.03406
O4    4    0.567814    0.162176    0.458100    11.00000    0.05240    0.07998 =
         0.07220    0.04662   -0.00739   -0.00652
O5    4    0.500000    0.250000    0.338584    10.25000    0.06793    0.08320 =
         0.04259    0.00000    0.00000    0.00000
O6    4    0.711227    0.250000    0.453750    10.50000    0.04687    0.08490 =
         0.06510    0.00000   -0.01839    0.00000
C1    2    0.645146    0.136810    0.390746    11.00000    0.03716    0.03777 =
         0.06286   -0.00513    0.00136    0.01064
C2    2    0.705852    0.071225    0.382649    11.00000    0.04902    0.05027 =
         0.06913   -0.00769    0.00341    0.01683
C3    2    0.704470    0.039220    0.358811    10.50000    0.06002
C4    2    0.730932    0.010613    0.400262    10.50000    0.06661
C5    2    0.735079    0.074476    0.357364    10.50000    0.07691
C6    2    0.763656    0.042667    0.400061    10.50000    0.06349
C7    2    0.500000    0.136220    0.464875    10.50000    0.06020    0.04890 =
         0.03901    0.00884    0.00000    0.00000
C8    2    0.500000    0.065368    0.482991    10.50000    0.07650    0.05599 =
         0.05025    0.02505    0.00000    0.00000
C9    2    0.575033    0.016320    0.485919    10.50000    0.08197
C9A   2    0.570436    0.047095    0.496051    10.50000    0.06827
HKLF 4




REM  mo_djb_07_18a_150k_0m_a.res in I4(1)/amd
REM wR2 = 0.275918, GooF = S = 1.04664, Restrained GooF = 1.11111 for all data
REM R1 = 0.084277 for 3171 Fo > 4sig(Fo) and 0.113981 for all 4705 data
REM 160 parameters refined using 99 restraints

END

WGHT      0.1523     53.8829

REM Highest difference peak  1.096,  deepest hole -0.728,  1-sigma level  0.116
Q1    1   0.6836  0.1033  0.5003  11.00000  0.05    1.10
Q2    1   0.5000  0.1859  0.3293  10.50000  0.05    0.87
Q3    1   0.7456  0.3169  0.4599  11.00000  0.05    0.86
Q4    1   0.7751  0.2042  0.3490  11.00000  0.05    0.73
Q5    1   0.6918  0.0886  0.4924  11.00000  0.05    0.69
Q6    1   0.6099 -0.0402  0.4100  11.00000  0.05    0.68
Q7    1   0.7525  0.1967  0.4539  11.00000  0.05    0.57
Q8    1   0.7700  0.2714  0.4512  11.00000  0.05    0.55
Q9    1   0.6342 -0.0225  0.4517  11.00000  0.05    0.50
Q10   1   0.7853  0.0711  0.3897  11.00000  0.05    0.47
Q11   1   0.6118 -0.0430  0.4209  11.00000  0.05    0.44
Q12   1   0.7357 -0.0413  0.4620  11.00000  0.05    0.44
Q13   1   0.6934 -0.0761  0.4541  11.00000  0.05    0.42
Q14   1   0.6913  0.2500  0.4567  10.50000  0.05    0.40
Q15   1   0.7240  0.0130  0.3884  11.00000  0.05    0.39
;
_shelx_res_checksum              134
_shelx_fab_file
;
    0    2    0    -72.58      0.00
    2    2    0    255.43      0.00
    0    4    0     34.40      0.00
    2    4    0    -54.00      0.00
    4    4    0     60.70      0.00
    0    6    0    -64.99      0.00
    2    6    0     37.84      0.00
    4    6    0    -23.65      0.00
    6    6    0      0.75      0.00
    0    8    0     32.53      0.00
    2    8    0    -21.03      0.00
    4    8    0      8.84      0.00
    6    8    0     -2.33      0.00
    8    8    0      4.74      0.00
    0   10    0    -25.74      0.00
    2   10    0     -0.08      0.00
    4   10    0     -6.09      0.00
    6   10    0      7.25      0.00
    8   10    0      1.27      0.00
   10   10    0     10.20      0.00
    0   12    0      8.11      0.00
    2   12    0     -1.23      0.00
    4   12    0      3.63      0.00
    6   12    0     -2.97      0.00
    8   12    0     10.68      0.00
   10   12    0     -3.93      0.00
   12   12    0      3.44      0.00
    0   14    0     -5.12      0.00
    2   14    0     -6.91      0.00
    4   14    0     -1.83      0.00
    6   14    0      2.39      0.00
    8   14    0     -5.72      0.00
   10   14    0      0.16      0.00
   12   14    0     -2.76      0.00
   14   14    0      3.26      0.00
    0   16    0     -5.91      0.00
    2   16    0     -0.94      0.00
    4   16    0     -8.87      0.00
    6   16    0     -6.37      0.00
    8   16    0     -3.31      0.00
   10   16    0     -2.86      0.00
   12   16    0      0.58      0.00
   14   16    0     -9.75      0.00
    0   18    0     -5.03      0.00
    2   18    0      3.63      0.00
    4   18    0      4.32      0.00
    6   18    0     -0.75      0.00
    8   18    0      0.43      0.00
   10   18    0      2.43      0.00
   12   18    0     -7.01      0.00
    0   20    0      0.89      0.00
    2   20    0      5.37      0.00
    4   20    0      1.55      0.00
    6   20    0      3.85      0.00
    8   20    0      3.84      0.00
    1    2    1     46.53      0.00
    0    3    1    -82.79      0.00
    2    3    1     86.12      0.00
    1    4    1     60.01      0.00
    3    4    1      2.52      0.00
    0    5    1     69.04      0.00
    2    5    1      2.26      0.00
    4    5    1     45.22      0.00
    1    6    1      0.86      0.00
    3    6    1      9.80      0.00
    5    6    1     -0.93      0.00
    0    7    1      9.18      0.00
    2    7    1     35.14      0.00
    4    7    1      6.19      0.00
    6    7    1     32.39      0.00
    1    8    1     -1.95      0.00
    3    8    1    -16.31      0.00
    5    8    1      7.55      0.00
    7    8    1     -4.28      0.00
    0    9    1     18.80      0.00
    2    9    1     -3.68      0.00
    4    9    1     11.76      0.00
    6    9    1     -5.43      0.00
    8    9    1      1.62      0.00
    1   10    1     -9.21      0.00
    3   10    1      5.55      0.00
    5   10    1     -1.01      0.00
    7   10    1     -7.48      0.00
    9   10    1      1.98      0.00
    0   11    1      4.00      0.00
    2   11    1      6.17      0.00
    4   11    1     -2.22      0.00
    6   11    1     -0.97      0.00
    8   11    1     -6.73      0.00
   10   11    1      8.15      0.00
    1   12    1     -2.09      0.00
    3   12    1      3.50      0.00
    5   12    1     -2.56      0.00
    7   12    1      8.67      0.00
    9   12    1      4.41      0.00
   11   12    1     -5.43      0.00
    0   13    1      1.72      0.00
    2   13    1     -4.49      0.00
    4   13    1     -4.52      0.00
    6   13    1      0.88      0.00
    8   13    1     10.02      0.00
   10   13    1     -1.75      0.00
   12   13    1      5.19      0.00
    1   14    1      2.97      0.00
    3   14    1     -2.74      0.00
    5   14    1     -0.59      0.00
    7   14    1     -1.42      0.00
    9   14    1     -4.43      0.00
   11   14    1      5.02      0.00
   13   14    1     -1.71      0.00
    0   15    1     -0.36      0.00
    2   15    1      1.12      0.00
    4   15    1      0.89      0.00
    6   15    1      1.46      0.00
    8   15    1      3.51      0.00
   10   15    1      1.17      0.00
   12   15    1     -4.29      0.00
   14   15    1      1.85      0.00
    1   16    1      0.19      0.00
    3   16    1     -3.20      0.00
    5   16    1      6.66      0.00
    7   16    1     -2.33      0.00
    9   16    1     -5.53      0.00
   11   16    1      2.03      0.00
   13   16    1      2.85      0.00
    0   17    1      3.78      0.00
    2   17    1      5.19      0.00
    4   17    1     -2.79      0.00
    6   17    1      3.19      0.00
    8   17    1     -2.26      0.00
   10   17    1     -3.14      0.00
   12   17    1     -3.58      0.00
    1   18    1      4.96      0.00
    3   18    1     -2.32      0.00
    5   18    1      2.96      0.00
    7   18    1      5.94      0.00
    9   18    1      3.86      0.00
   11   18    1     -3.06      0.00
    0   19    1      8.30      0.00
    2   19    1      0.68      0.00
    4   19    1     -1.67      0.00
    6   19    1      1.19      0.00
    8   19    1      4.59      0.00
   10   19    1     -1.89      0.00
    1   20    1     -1.82      0.00
    3   20    1      3.92      0.00
    5   20    1     -1.60      0.00
    7   20    1      2.30      0.00
    0   21    1     -0.22      0.00
    2   21    1     -2.89      0.00
    4   21    1     -0.09      0.00
    0    2    2   -103.94      0.00
    1    3    2     79.34      0.00
    3    3    2    106.90      0.00
    0    4    2     16.30      0.00
    2    4    2     21.23      0.00
    1    5    2     18.54      0.00
    3    5    2      7.92      0.00
    5    5    2     60.00      0.00
    0    6    2     57.78      0.00
    2    6    2      2.18      0.00
    4    6    2     -1.10      0.00
    1    7    2     13.31      0.00
    3    7    2     22.25      0.00
    5    7    2    -14.49      0.00
    7    7    2     10.24      0.00
    0    8    2      6.09      0.00
    2    8    2      7.13      0.00
    4    8    2     -0.27      0.00
    6    8    2     -2.16      0.00
    1    9    2     15.26      0.00
    3    9    2      5.55      0.00
    5    9    2      8.22      0.00
    7    9    2     -2.65      0.00
    9    9    2     -0.06      0.00
    0   10    2     -3.10      0.00
    2   10    2      1.25      0.00
    4   10    2      5.99      0.00
    6   10    2     -3.42      0.00
    8   10    2      0.15      0.00
    1   11    2      1.78      0.00
    3   11    2      2.87      0.00
    5   11    2      5.23      0.00
    7   11    2      5.13      0.00
    9   11    2      7.28      0.00
   11   11    2      7.26      0.00
    0   12    2      5.40      0.00
    2   12    2      0.48      0.00
    4   12    2     -0.05      0.00
    6   12    2     -0.16      0.00
    8   12    2      3.95      0.00
   10   12    2      0.89      0.00
    1   13    2     -4.61      0.00
    3   13    2     -0.89      0.00
    5   13    2      1.52      0.00
    7   13    2      7.38      0.00
    9   13    2      3.79      0.00
   11   13    2      0.87      0.00
   13   13    2      4.10      0.00
    0   14    2      4.26      0.00
    2   14    2      8.64      0.00
    4   14    2      0.77      0.00
    6   14    2     -2.21      0.00
    8   14    2      2.04      0.00
   10   14    2      1.60      0.00
   12   14    2     -2.45      0.00
    1   15    2     -1.52      0.00
    3   15    2      0.43      0.00
    5   15    2      1.09      0.00
    7   15    2      1.01      0.00
    9   15    2      1.43      0.00
   11   15    2      0.74      0.00
   13   15    2      0.04      0.00
   15   15    2      4.24      0.00
    0   16    2     -1.12      0.00
    2   16    2      5.13      0.00
    4   16    2     -3.38      0.00
    6   16    2     -2.17      0.00
    8   16    2     -2.24      0.00
   10   16    2      3.25      0.00
   12   16    2     -5.28      0.00
   14   16    2      4.68      0.00
    1   17    2      0.06      0.00
    3   17    2     -2.25      0.00
    5   17    2      0.49      0.00
    7   17    2     -0.85      0.00
    9   17    2      2.44      0.00
   11   17    2      3.99      0.00
   13   17    2      0.40      0.00
    0   18    2      3.92      0.00
    2   18    2     -0.74      0.00
    4   18    2      1.81      0.00
    6   18    2     -7.49      0.00
    8   18    2     -4.18      0.00
   10   18    2     -3.02      0.00
   12   18    2      7.10      0.00
    1   19    2      4.14      0.00
    3   19    2      2.64      0.00
    5   19    2      0.22      0.00
    7   19    2      2.37      0.00
    9   19    2     -1.35      0.00
    0   20    2      1.32      0.00
    2   20    2      0.04      0.00
    4   20    2     -0.02      0.00
    6   20    2     -4.61      0.00
    8   20    2      0.27      0.00
    1   21    2     -0.76      0.00
    3   21    2      1.68      0.00
    5   21    2      2.84      0.00
    1    2    3    -78.72      0.00
    0    3    3      3.04      0.00
    2    3    3     66.14      0.00
    1    4    3    -67.34      0.00
    3    4    3    -17.63      0.00
    0    5    3     91.34      0.00
    2    5    3     13.93      0.00
    4    5    3     39.58      0.00
    1    6    3      2.54      0.00
    3    6    3    -14.87      0.00
    5    6    3     -8.13      0.00
    0    7    3    -14.48      0.00
    2    7    3     35.26      0.00
    4    7    3      1.42      0.00
    6    7    3     13.86      0.00
    1    8    3      8.20      0.00
    3    8    3      3.70      0.00
    5    8    3     17.19      0.00
    7    8    3     11.70      0.00
    0    9    3     13.84      0.00
    2    9    3     -5.74      0.00
    4    9    3      2.49      0.00
    6    9    3      4.56      0.00
    8    9    3     11.44      0.00
    1   10    3      1.42      0.00
    3   10    3     13.73      0.00
    5   10    3      6.24      0.00
    7   10    3     -3.95      0.00
    9   10    3      9.15      0.00
    0   11    3    -14.07      0.00
    2   11    3     -3.13      0.00
    4   11    3      4.40      0.00
    6   11    3      7.04      0.00
    8   11    3     -3.13      0.00
   10   11    3      5.34      0.00
    1   12    3      1.02      0.00
    3   12    3      3.99      0.00
    5   12    3     -0.87      0.00
    7   12    3     -2.51      0.00
    9   12    3     -2.12      0.00
   11   12    3      0.14      0.00
    0   13    3     -5.37      0.00
    2   13    3      4.42      0.00
    4   13    3      7.57      0.00
    6   13    3      1.08      0.00
    8   13    3      9.58      0.00
   10   13    3     -0.13      0.00
   12   13    3      2.04      0.00
    1   14    3      8.22      0.00
    3   14    3     -0.56      0.00
    5   14    3     -0.37      0.00
    7   14    3      3.73      0.00
    9   14    3     -5.66      0.00
   11   14    3      1.75      0.00
   13   14    3      2.08      0.00
    0   15    3     -1.42      0.00
    2   15    3     -2.56      0.00
    4   15    3      1.65      0.00
    6   15    3     -0.05      0.00
    8   15    3     -1.82      0.00
   10   15    3      3.93      0.00
   12   15    3      3.26      0.00
   14   15    3      2.46      0.00
    1   16    3      0.49      0.00
    3   16    3      0.33      0.00
    5   16    3      8.17      0.00
    7   16    3      0.27      0.00
    9   16    3      1.26      0.00
   11   16    3      0.22      0.00
   13   16    3      4.44      0.00
    0   17    3     -2.63      0.00
    2   17    3     -1.31      0.00
    4   17    3     -0.16      0.00
    6   17    3     -2.64      0.00
    8   17    3     -6.03      0.00
   10   17    3     -0.07      0.00
   12   17    3     10.61      0.00
    1   18    3      4.98      0.00
    3   18    3      0.94      0.00
    5   18    3      7.13      0.00
    7   18    3     -1.20      0.00
    9   18    3     -4.81      0.00
   11   18    3      0.22      0.00
    0   19    3      1.92      0.00
    2   19    3     -1.87      0.00
    4   19    3      5.28      0.00
    6   19    3      2.16      0.00
    8   19    3     -2.36      0.00
   10   19    3      2.12      0.00
    1   20    3     -0.02      0.00
    3   20    3      0.00      0.00
    5   20    3     -9.56      0.00
    7   20    3      0.64      0.00
    0   21    3      4.24      0.00
    2   21    3      9.12      0.00
    4   21    3     -2.70      0.00
    0    2    4     62.86      0.00
    2    2    4    -99.57      0.00
    1    3    4    -18.81      0.00
    0    4    4    -93.22      0.00
    2    4    4     62.99      0.00
    4    4    4    -34.45      0.00
    1    5    4     -0.85      0.00
    3    5    4      9.80      0.00
    0    6    4    -10.73      0.00
    2    6    4    -48.16      0.00
    4    6    4     29.90      0.00
    6    6    4      8.86      0.00
    1    7    4      9.30      0.00
    3    7    4     -5.43      0.00
    5    7    4      6.98      0.00
    0    8    4    -16.04      0.00
    2    8    4     13.26      0.00
    4    8    4    -18.43      0.00
    6    8    4      6.65      0.00
    8    8    4      5.33      0.00
    1    9    4      3.58      0.00
    3    9    4     -2.98      0.00
    5    9    4     -4.06      0.00
    7    9    4     -1.78      0.00
    0   10    4     17.21      0.00
    2   10    4      4.08      0.00
    4   10    4      8.73      0.00
    6   10    4     -7.31      0.00
    8   10    4     -1.42      0.00
   10   10    4     -8.14      0.00
    1   11    4     -2.10      0.00
    3   11    4     -4.02      0.00
    5   11    4     -4.33      0.00
    7   11    4     -4.57      0.00
    9   11    4     -0.04      0.00
    0   12    4      7.58      0.00
    2   12    4      5.85      0.00
    4   12    4      0.27      0.00
    6   12    4      0.67      0.00
    8   12    4     -1.84      0.00
   10   12    4     -0.06      0.00
   12   12    4     -6.66      0.00
    1   13    4      2.11      0.00
    3   13    4     -2.46      0.00
    5   13    4      3.85      0.00
    7   13    4      2.22      0.00
    9   13    4     -0.08      0.00
   11   13    4      1.90      0.00
    0   14    4     -2.37      0.00
    2   14    4     -5.16      0.00
    4   14    4     -3.68      0.00
    6   14    4      0.47      0.00
    8   14    4      3.18      0.00
   10   14    4     -4.64      0.00
   12   14    4      0.29      0.00
   14   14    4     -2.91      0.00
    1   15    4      2.74      0.00
    3   15    4      4.70      0.00
    5   15    4     -2.79      0.00
    7   15    4      2.83      0.00
    9   15    4      0.24      0.00
   11   15    4      1.77      0.00
   13   15    4     -1.65      0.00
    0   16    4     -7.52      0.00
    2   16    4     -0.83      0.00
    4   16    4      2.48      0.00
    6   16    4      2.40      0.00
    8   16    4     -0.76      0.00
   10   16    4     -0.45      0.00
   12   16    4     -4.23      0.00
   14   16    4     -2.73      0.00
    1   17    4     -2.14      0.00
    3   17    4      1.37      0.00
    5   17    4      2.20      0.00
    7   17    4     -5.04      0.00
    9   17    4      5.60      0.00
   11   17    4      0.42      0.00
   13   17    4     -8.41      0.00
    0   18    4     -5.14      0.00
    2   18    4      3.22      0.00
    4   18    4     -1.20      0.00
    6   18    4     -1.98      0.00
    8   18    4      0.86      0.00
   10   18    4      6.22      0.00
   12   18    4      2.46      0.00
    1   19    4      2.20      0.00
    3   19    4     -0.14      0.00
    5   19    4     -6.10      0.00
    7   19    4     -2.50      0.00
    9   19    4     -2.31      0.00
    0   20    4     -4.05      0.00
    2   20    4     -1.14      0.00
    4   20    4      0.04      0.00
    6   20    4     -1.66      0.00
    8   20    4     -0.17      0.00
    1   21    4      2.79      0.00
    3   21    4      2.96      0.00
    5   21    4      0.23      0.00
    0    1    5    -12.02      0.00
    1    2    5    -83.09      0.00
    0    3    5     -9.56      0.00
    2    3    5    -13.66      0.00
    1    4    5      5.58      0.00
    3    4    5    -47.19      0.00
    0    5    5    -71.86      0.00
    2    5    5     -9.04      0.00
    4    5    5    -25.60      0.00
    1    6    5     10.43      0.00
    3    6    5    -12.18      0.00
    5    6    5     -4.04      0.00
    0    7    5     -4.55      0.00
    2    7    5    -21.79      0.00
    4    7    5     -5.35      0.00
    6    7    5    -11.71      0.00
    1    8    5      6.93      0.00
    3    8    5     -2.73      0.00
    5    8    5      1.77      0.00
    7    8    5     -1.03      0.00
    0    9    5      2.14      0.00
    2    9    5      1.82      0.00
    4    9    5     -7.67      0.00
    6    9    5      6.09      0.00
    8    9    5    -15.88      0.00
    1   10    5     -4.78      0.00
    3   10    5      1.62      0.00
    5   10    5     -7.96      0.00
    7   10    5     -3.75      0.00
    9   10    5      1.90      0.00
    0   11    5      2.15      0.00
    2   11    5     -6.58      0.00
    4   11    5      0.82      0.00
    6   11    5    -10.39      0.00
    8   11    5     -1.05      0.00
   10   11    5      1.55      0.00
    1   12    5      1.24      0.00
    3   12    5      0.79      0.00
    5   12    5     -0.73      0.00
    7   12    5     -1.87      0.00
    9   12    5      3.16      0.00
   11   12    5     -0.67      0.00
    0   13    5      1.79      0.00
    2   13    5      1.56      0.00
    4   13    5      0.48      0.00
    6   13    5     -2.57      0.00
    8   13    5      4.24      0.00
   10   13    5      2.36      0.00
   12   13    5      0.99      0.00
    1   14    5     -4.53      0.00
    3   14    5     -1.61      0.00
    5   14    5      5.60      0.00
    7   14    5      8.12      0.00
    9   14    5     -0.76      0.00
   11   14    5      0.26      0.00
   13   14    5     -2.41      0.00
    0   15    5      8.05      0.00
    2   15    5      5.60      0.00
    4   15    5     -0.11      0.00
    6   15    5      2.59      0.00
    8   15    5      4.04      0.00
   10   15    5     -4.03      0.00
   12   15    5      4.02      0.00
   14   15    5      0.46      0.00
    1   16    5     -4.14      0.00
    3   16    5     -1.14      0.00
    5   16    5      0.95      0.00
    7   16    5      3.95      0.00
    9   16    5     -0.17      0.00
   11   16    5      1.39      0.00
   13   16    5     -0.59      0.00
    0   17    5     -5.53      0.00
    2   17    5      2.35      0.00
    4   17    5     -6.36      0.00
    6   17    5     -1.87      0.00
    8   17    5     -3.28      0.00
   10   17    5     -2.67      0.00
   12   17    5     -8.02      0.00
    1   18    5     -5.18      0.00
    3   18    5     -5.00      0.00
    5   18    5      4.94      0.00
    7   18    5     -1.78      0.00
    9   18    5      4.34      0.00
   11   18    5      5.68      0.00
    0   19    5      5.48      0.00
    2   19    5     -6.65      0.00
    4   19    5      0.15      0.00
    6   19    5      1.09      0.00
    8   19    5     -4.66      0.00
   10   19    5     -5.06      0.00
    1   20    5     -1.98      0.00
    3   20    5      3.58      0.00
    5   20    5     -1.07      0.00
    7   20    5      5.32      0.00
    0   21    5      3.82      0.00
    2   21    5      3.50      0.00
    4   21    5     -3.13      0.00
    1    1    6    -30.73      0.00
    0    2    6    -39.90      0.00
    1    3    6     13.98      0.00
    3    3    6    -99.61      0.00
    0    4    6     18.42      0.00
    2    4    6     15.68      0.00
    1    5    6    -27.86      0.00
    3    5    6      5.13      0.00
    5    5    6    -61.70      0.00
    0    6    6     34.27      0.00
    2    6    6      7.21      0.00
    4    6    6      1.41      0.00
    1    7    6    -19.96      0.00
    3    7    6    -13.97      0.00
    5    7    6      7.45      0.00
    7    7    6     -9.13      0.00
    0    8    6      3.77      0.00
    2    8    6     -2.16      0.00
    4    8    6      0.38      0.00
    6    8    6      1.56      0.00
    1    9    6    -17.81      0.00
    3    9    6     -6.60      0.00
    5    9    6     -6.04      0.00
    7    9    6      8.06      0.00
    9    9    6      5.32      0.00
    0   10    6    -10.93      0.00
    2   10    6     -5.10      0.00
    4   10    6     -3.20      0.00
    6   10    6     -6.15      0.00
    8   10    6     -6.84      0.00
    1   11    6      3.75      0.00
    3   11    6      4.26      0.00
    5   11    6      2.29      0.00
    7   11    6      0.66      0.00
    9   11    6      1.97      0.00
   11   11    6     -7.31      0.00
    0   12    6     -2.97      0.00
    2   12    6     -6.21      0.00
    4   12    6     -5.02      0.00
    6   12    6     -5.83      0.00
    8   12    6      0.70      0.00
   10   12    6     -0.55      0.00
    1   13    6      5.63      0.00
    3   13    6      0.37      0.00
    5   13    6      2.69      0.00
    7   13    6     -2.65      0.00
    9   13    6     -3.94      0.00
   11   13    6     -0.51      0.00
   13   13    6     -1.13      0.00
    0   14    6     -5.78      0.00
    2   14    6     -4.81      0.00
    4   14    6     -6.70      0.00
    6   14    6     -4.36      0.00
    8   14    6      2.54      0.00
   10   14    6      3.66      0.00
   12   14    6      2.02      0.00
    1   15    6      3.23      0.00
    3   15    6      0.46      0.00
    5   15    6     -7.42      0.00
    7   15    6      0.33      0.00
    9   15    6     -1.94      0.00
   11   15    6     -0.42      0.00
   13   15    6     -0.39      0.00
   15   15    6      4.20      0.00
    0   16    6     -9.01      0.00
    2   16    6     -4.37      0.00
    4   16    6     -5.41      0.00
    6   16    6      2.32      0.00
    8   16    6      0.02      0.00
   10   16    6      0.04      0.00
   12   16    6     -1.07      0.00
   14   16    6     -0.96      0.00
    1   17    6     -3.01      0.00
    3   17    6     -2.91      0.00
    5   17    6      5.48      0.00
    7   17    6      0.78      0.00
    9   17    6      3.49      0.00
   11   17    6     -6.56      0.00
   13   17    6     -3.57      0.00
    0   18    6     -1.50      0.00
    2   18    6     -1.93      0.00
    4   18    6     -1.94      0.00
    6   18    6      0.32      0.00
    8   18    6      5.28      0.00
   10   18    6     -2.21      0.00
   12   18    6     -7.98      0.00
    1   19    6      4.73      0.00
    3   19    6      3.45      0.00
    5   19    6      1.41      0.00
    7   19    6      5.90      0.00
    9   19    6      0.39      0.00
    0   20    6      3.37      0.00
    2   20    6     -2.47      0.00
    4   20    6      6.33      0.00
    6   20    6     -2.19      0.00
    8   20    6      0.94      0.00
    1   21    6     -9.19      0.00
    3   21    6     -2.31      0.00
    5   21    6      3.65      0.00
    0    1    7     18.65      0.00
    1    2    7     -7.55      0.00
    0    3    7    -61.39      0.00
    2    3    7    -49.85      0.00
    1    4    7      8.63      0.00
    3    4    7     23.33      0.00
    0    5    7     -6.68      0.00
    2    5    7    -17.07      0.00
    4    5    7    -20.48      0.00
    1    6    7    -13.73      0.00
    3    6    7      0.47      0.00
    5    6    7     -7.02      0.00
    0    7    7    -13.45      0.00
    2    7    7     -0.91      0.00
    4    7    7    -16.32      0.00
    6    7    7    -15.39      0.00
    1    8    7    -17.26      0.00
    3    8    7    -15.88      0.00
    5    8    7      2.77      0.00
    7    8    7     -0.42      0.00
    0    9    7      1.63      0.00
    2    9    7     -7.50      0.00
    4    9    7      0.08      0.00
    6    9    7     10.75      0.00
    8    9    7     -4.42      0.00
    1   10    7     -9.07      0.00
    3   10    7      4.18      0.00
    5   10    7      0.37      0.00
    7   10    7    -10.09      0.00
    9   10    7     -7.10      0.00
    0   11    7     -6.22      0.00
    2   11    7     -1.01      0.00
    4   11    7      1.66      0.00
    6   11    7      1.16      0.00
    8   11    7     -0.42      0.00
   10   11    7     -0.25      0.00
    1   12    7     -4.56      0.00
    3   12    7     -3.20      0.00
    5   12    7     -7.69      0.00
    7   12    7     -8.19      0.00
    9   12    7      1.70      0.00
   11   12    7     -0.85      0.00
    0   13    7     -5.45      0.00
    2   13    7      0.91      0.00
    4   13    7      2.60      0.00
    6   13    7     -7.48      0.00
    8   13    7     -2.34      0.00
   10   13    7     -4.13      0.00
   12   13    7      1.93      0.00
    1   14    7      0.15      0.00
    3   14    7     -6.18      0.00
    5   14    7      4.43      0.00
    7   14    7     -1.00      0.00
    9   14    7      1.29      0.00
   11   14    7      2.56      0.00
   13   14    7      1.99      0.00
    0   15    7      1.86      0.00
    2   15    7     -0.64      0.00
    4   15    7     -0.64      0.00
    6   15    7      1.24      0.00
    8   15    7     -0.30      0.00
   10   15    7     -2.28      0.00
   12   15    7     -0.42      0.00
   14   15    7      1.02      0.00
    1   16    7      3.75      0.00
    3   16    7      1.83      0.00
    5   16    7      0.20      0.00
    7   16    7      5.79      0.00
    9   16    7     -4.19      0.00
   11   16    7      3.94      0.00
   13   16    7      7.59      0.00
    0   17    7     -0.52      0.00
    2   17    7      3.07      0.00
    4   17    7      4.50      0.00
    6   17    7      5.17      0.00
    8   17    7      2.26      0.00
   10   17    7     -3.28      0.00
   12   17    7      2.82      0.00
    1   18    7      0.49      0.00
    3   18    7      1.90      0.00
    5   18    7      6.50      0.00
    7   18    7     -5.64      0.00
    9   18    7      1.73      0.00
   11   18    7     -0.59      0.00
    0   19    7      1.17      0.00
    2   19    7     -3.81      0.00
    4   19    7      4.47      0.00
    6   19    7      8.17      0.00
    8   19    7     -3.12      0.00
   10   19    7      1.43      0.00
    1   20    7     -0.09      0.00
    3   20    7     -2.86      0.00
    5   20    7     -6.81      0.00
    7   20    7      2.97      0.00
    0   21    7     -7.17      0.00
    2   21    7      1.12      0.00
    4   21    7     -2.46      0.00
    0    0    8    112.53      0.00
    0    2    8     16.44      0.00
    2    2    8     39.75      0.00
    1    3    8    -75.27      0.00
    0    4    8      1.89      0.00
    2    4    8    -15.09      0.00
    4    4    8     -3.88      0.00
    1    5    8     -9.96      0.00
    3    5    8     -0.02      0.00
    0    6    8    -23.28      0.00
    2    6    8     -1.94      0.00
    4    6    8    -11.20      0.00
    6    6    8    -26.19      0.00
    1    7    8     16.70      0.00
    3    7    8     -4.92      0.00
    5    7    8      4.17      0.00
    0    8    8     -5.37      0.00
    2    8    8     -4.52      0.00
    4    8    8     -3.54      0.00
    6    8    8      3.38      0.00
    8    8    8     -5.02      0.00
    1    9    8     13.53      0.00
    3    9    8      4.64      0.00
    5    9    8      4.79      0.00
    7    9    8     -2.37      0.00
    0   10    8    -11.38      0.00
    2   10    8     -1.35      0.00
    4   10    8     -7.36      0.00
    6   10    8     -0.45      0.00
    8   10    8      5.57      0.00
   10   10    8      7.28      0.00
    1   11    8     -0.14      0.00
    3   11    8      0.76      0.00
    5   11    8      2.56      0.00
    7   11    8      0.45      0.00
    9   11    8     -6.10      0.00
    0   12    8     -9.08      0.00
    2   12    8     -9.38      0.00
    4   12    8     -2.60      0.00
    6   12    8     -0.73      0.00
    8   12    8      5.96      0.00
   10   12    8     -3.06      0.00
   12   12    8     -8.98      0.00
    1   13    8      5.05      0.00
    3   13    8     -2.99      0.00
    5   13    8     -0.64      0.00
    7   13    8     -0.22      0.00
    9   13    8     -2.91      0.00
   11   13    8     -2.66      0.00
    0   14    8      6.55      0.00
    2   14    8      2.52      0.00
    4   14    8      0.32      0.00
    6   14    8      0.53      0.00
    8   14    8     -2.84      0.00
   10   14    8     -3.20      0.00
   12   14    8     -1.77      0.00
   14   14    8      0.07      0.00
    1   15    8     -0.42      0.00
    3   15    8     -0.52      0.00
    5   15    8     -1.51      0.00
    7   15    8     -5.81      0.00
    9   15    8     -0.05      0.00
   11   15    8     -1.77      0.00
   13   15    8     -1.26      0.00
    0   16    8      5.95      0.00
    2   16    8      4.48      0.00
    4   16    8      0.07      0.00
    6   16    8     -3.11      0.00
    8   16    8     -3.07      0.00
   10   16    8     -2.95      0.00
   12   16    8      6.95      0.00
   14   16    8     -1.51      0.00
    1   17    8     -6.40      0.00
    3   17    8      3.30      0.00
    5   17    8     -2.51      0.00
    7   17    8     -1.78      0.00
    9   17    8      1.67      0.00
   11   17    8      9.29      0.00
   13   17    8     -8.51      0.00
    0   18    8     -3.49      0.00
    2   18    8      1.92      0.00
    4   18    8     -2.84      0.00
    6   18    8     -1.31      0.00
    8   18    8     -3.48      0.00
   10   18    8     -0.39      0.00
   12   18    8     -9.95      0.00
    1   19    8     -0.41      0.00
    3   19    8     -2.75      0.00
    5   19    8      3.00      0.00
    7   19    8      4.35      0.00
    9   19    8      1.57      0.00
    0   20    8     -1.46      0.00
    2   20    8     -0.03      0.00
    4   20    8     -0.19      0.00
    6   20    8     -7.60      0.00
    8   20    8      0.61      0.00
    1   21    8      0.18      0.00
    3   21    8      3.33      0.00
    5   21    8     -0.55      0.00
    0    1    9     37.76      0.00
    1    2    9    -26.96      0.00
    0    3    9      4.70      0.00
    2    3    9     13.89      0.00
    1    4    9     -7.49      0.00
    3    4    9    -12.84      0.00
    0    5    9     10.33      0.00
    2    5    9     26.69      0.00
    4    5    9     27.00      0.00
    1    6    9      6.77      0.00
    3    6    9    -21.19      0.00
    5    6    9     -9.01      0.00
    0    7    9     -7.29      0.00
    2    7    9     17.12      0.00
    4    7    9     10.20      0.00
    6    7    9     10.38      0.00
    1    8    9      9.23      0.00
    3    8    9     -6.07      0.00
    5    8    9    -12.10      0.00
    7    8    9     -9.04      0.00
    0    9    9      7.03      0.00
    2    9    9     -7.74      0.00
    4    9    9     -3.62      0.00
    6    9    9      9.95      0.00
    8    9    9      2.71      0.00
    1   10    9     -7.75      0.00
    3   10    9      1.90      0.00
    5   10    9      1.54      0.00
    7   10    9     -0.31      0.00
    9   10    9     -2.71      0.00
    0   11    9     -1.56      0.00
    2   11    9     -0.85      0.00
    4   11    9      3.59      0.00
    6   11    9     -5.86      0.00
    8   11    9     -8.50      0.00
   10   11    9      3.61      0.00
    1   12    9      1.99      0.00
    3   12    9     -0.75      0.00
    5   12    9      0.38      0.00
    7   12    9      4.40      0.00
    9   12    9      4.29      0.00
   11   12    9     -4.08      0.00
    0   13    9      4.06      0.00
    2   13    9      3.84      0.00
    4   13    9      2.05      0.00
    6   13    9     -6.58      0.00
    8   13    9      1.33      0.00
   10   13    9     -1.08      0.00
   12   13    9     -2.22      0.00
    1   14    9     -2.00      0.00
    3   14    9      0.26      0.00
    5   14    9      1.37      0.00
    7   14    9     -1.95      0.00
    9   14    9     -5.28      0.00
   11   14    9      0.10      0.00
   13   14    9      2.41      0.00
    0   15    9     -1.96      0.00
    2   15    9     -2.75      0.00
    4   15    9     -1.95      0.00
    6   15    9     -3.56      0.00
    8   15    9      2.23      0.00
   10   15    9      1.07      0.00
   12   15    9     -1.57      0.00
   14   15    9     -2.27      0.00
    1   16    9      2.03      0.00
    3   16    9      1.78      0.00
    5   16    9     -4.70      0.00
    7   16    9     -4.98      0.00
    9   16    9     -4.37      0.00
   11   16    9      1.96      0.00
   13   16    9     -0.84      0.00
    0   17    9     -7.94      0.00
    2   17    9      0.06      0.00
    4   17    9     -3.55      0.00
    6   17    9      0.52      0.00
    8   17    9     -1.92      0.00
   10   17    9     -2.50      0.00
   12   17    9      3.68      0.00
    1   18    9     -0.07      0.00
    3   18    9      2.58      0.00
    5   18    9     -2.15      0.00
    7   18    9     -5.21      0.00
    9   18    9      4.86      0.00
   11   18    9      4.83      0.00
    0   19    9      3.66      0.00
    2   19    9     -1.12      0.00
    4   19    9     -0.98      0.00
    6   19    9      0.49      0.00
    8   19    9     -4.18      0.00
   10   19    9     -0.26      0.00
    1   20    9     -0.06      0.00
    3   20    9      0.54      0.00
    5   20    9      1.82      0.00
    7   20    9      4.52      0.00
    0   21    9      1.67      0.00
    2   21    9      0.13      0.00
    4   21    9      0.35      0.00
    1    1   10    100.67      0.00
    0    2   10     25.06      0.00
    1    3   10     59.18      0.00
    3    3   10     33.36      0.00
    0    4   10     -4.60      0.00
    2    4   10      1.42      0.00
    1    5   10     13.44      0.00
    3    5   10     -1.70      0.00
    5    5   10     -6.10      0.00
    0    6   10     -6.72      0.00
    2    6   10     -9.30      0.00
    4    6   10     14.26      0.00
    1    7   10     -4.18      0.00
    3    7   10      4.44      0.00
    5    7   10     -8.38      0.00
    7    7   10     -2.64      0.00
    0    8   10      9.07      0.00
    2    8   10      6.10      0.00
    4    8   10     -7.27      0.00
    6    8   10     10.86      0.00
    1    9   10     -4.99      0.00
    3    9   10      0.88      0.00
    5    9   10      1.43      0.00
    7    9   10      0.53      0.00
    9    9   10      0.27      0.00
    0   10   10      7.92      0.00
    2   10   10      4.42      0.00
    4   10   10     10.45      0.00
    6   10   10      0.13      0.00
    8   10   10     -2.05      0.00
    1   11   10     -1.47      0.00
    3   11   10      1.56      0.00
    5   11   10     -1.24      0.00
    7   11   10      1.90      0.00
    9   11   10      2.16      0.00
   11   11   10      1.70      0.00
    0   12   10      2.57      0.00
    2   12   10      4.64      0.00
    4   12   10      4.54      0.00
    6   12   10      1.09      0.00
    8   12   10      1.40      0.00
   10   12   10      1.45      0.00
    1   13   10     -5.13      0.00
    3   13   10     -2.19      0.00
    5   13   10     -2.55      0.00
    7   13   10      1.85      0.00
    9   13   10      4.52      0.00
   11   13   10     -0.47      0.00
   13   13   10     -7.75      0.00
    0   14   10      1.96      0.00
    2   14   10     -1.17      0.00
    4   14   10     -4.03      0.00
    6   14   10      2.30      0.00
    8   14   10      3.13      0.00
   10   14   10     -2.16      0.00
   12   14   10      2.21      0.00
    1   15   10     -0.93      0.00
    3   15   10     -2.35      0.00
    5   15   10      1.80      0.00
    7   15   10     -2.41      0.00
    9   15   10      3.69      0.00
   11   15   10     -3.48      0.00
   13   15   10      0.00      0.00
   15   15   10      5.88      0.00
    0   16   10      8.01      0.00
    2   16   10      0.87      0.00
    4   16   10     -3.84      0.00
    6   16   10      3.00      0.00
    8   16   10      1.67      0.00
   10   16   10     -2.69      0.00
   12   16   10      0.99      0.00
   14   16   10      9.58      0.00
    1   17   10      0.86      0.00
    3   17   10     -1.57      0.00
    5   17   10     -7.99      0.00
    7   17   10     -1.17      0.00
    9   17   10     -3.79      0.00
   11   17   10      2.98      0.00
   13   17   10      1.03      0.00
    0   18   10     -4.67      0.00
    2   18   10     -0.10      0.00
    4   18   10     -0.29      0.00
    6   18   10     -5.24      0.00
    8   18   10      0.08      0.00
   10   18   10      4.01      0.00
    1   19   10      2.02      0.00
    3   19   10     -4.82      0.00
    5   19   10      5.36      0.00
    7   19   10     -2.63      0.00
    9   19   10     -0.20      0.00
    0   20   10      2.44      0.00
    2   20   10     -5.59      0.00
    4   20   10      1.68      0.00
    6   20   10     -0.01      0.00
    8   20   10     -0.27      0.00
    1   21   10     -1.95      0.00
    3   21   10      0.67      0.00
    0    1   11    -52.86      0.00
    1    2   11     21.50      0.00
    0    3   11      1.86      0.00
    2    3   11    -31.33      0.00
    1    4   11      2.10      0.00
    3    4   11      9.59      0.00
    0    5   11    -22.70      0.00
    2    5   11     -1.54      0.00
    4    5   11     13.00      0.00
    1    6   11      2.73      0.00
    3    6   11      8.21      0.00
    5    6   11      6.25      0.00
    0    7   11     13.46      0.00
    2    7   11      2.92      0.00
    4    7   11     -6.91      0.00
    6    7   11     -2.89      0.00
    1    8   11     -0.31      0.00
    3    8   11     13.50      0.00
    5    8   11     11.11      0.00
    7    8   11      7.45      0.00
    0    9   11     16.64      0.00
    2    9   11      4.51      0.00
    4    9   11     -9.29      0.00
    6    9   11      0.71      0.00
    8    9   11      0.25      0.00
    1   10   11      0.32      0.00
    3   10   11      6.50      0.00
    5   10   11      7.05      0.00
    7   10   11      0.79      0.00
    9   10   11      5.15      0.00
    0   11   11     -0.79      0.00
    2   11   11      0.27      0.00
    4   11   11      4.60      0.00
    6   11   11     -0.18      0.00
    8   11   11     -2.17      0.00
   10   11   11      1.81      0.00
    1   12   11      3.31      0.00
    3   12   11      4.34      0.00
    5   12   11      5.46      0.00
    7   12   11     -4.95      0.00
    9   12   11      0.99      0.00
   11   12   11      5.48      0.00
    0   13   11     -5.40      0.00
    2   13   11     -3.53      0.00
    4   13   11     -0.15      0.00
    6   13   11      2.32      0.00
    8   13   11      6.13      0.00
   10   13   11     -2.69      0.00
   12   13   11      0.42      0.00
    1   14   11      9.11      0.00
    3   14   11     -0.20      0.00
    5   14   11      1.78      0.00
    7   14   11      2.07      0.00
    9   14   11      0.82      0.00
   11   14   11      1.60      0.00
   13   14   11      3.15      0.00
    0   15   11     -3.13      0.00
    2   15   11      0.86      0.00
    4   15   11     -2.66      0.00
    6   15   11      1.19      0.00
    8   15   11      2.29      0.00
   10   15   11      1.08      0.00
   12   15   11      1.80      0.00
   14   15   11      3.55      0.00
    1   16   11      2.03      0.00
    3   16   11     -0.39      0.00
    5   16   11      4.16      0.00
    7   16   11     -2.23      0.00
    9   16   11      1.40      0.00
   11   16   11     -0.88      0.00
   13   16   11      1.29      0.00
    0   17   11     -3.99      0.00
    2   17   11     -5.47      0.00
    4   17   11     -0.70      0.00
    6   17   11     -1.50      0.00
    8   17   11     -2.59      0.00
   10   17   11     -6.35      0.00
   12   17   11      4.65      0.00
    1   18   11     -4.75      0.00
    3   18   11      4.38      0.00
    5   18   11     -3.00      0.00
    7   18   11      1.39      0.00
    9   18   11      2.27      0.00
   11   18   11      7.53      0.00
    0   19   11      0.16      0.00
    2   19   11     -0.76      0.00
    4   19   11     -7.62      0.00
    6   19   11     -3.18      0.00
    8   19   11     -4.49      0.00
   10   19   11      2.96      0.00
    1   20   11      7.71      0.00
    3   20   11     -2.27      0.00
    5   20   11      6.09      0.00
    7   20   11      5.30      0.00
    0   21   11     -2.55      0.00
    2   21   11     -0.95      0.00
    4   21   11      1.84      0.00
    0    0   12    -70.30      0.00
    0    2   12     40.62      0.00
    2    2   12     52.34      0.00
    1    3   12    -58.61      0.00
    0    4   12     61.31      0.00
    2    4   12     10.22      0.00
    4    4   12     32.29      0.00
    1    5   12     -5.76      0.00
    3    5   12     -5.14      0.00
    0    6   12     17.73      0.00
    2    6   12     27.16      0.00
    4    6   12      8.56      0.00
    6    6   12      3.93      0.00
    1    7   12     -5.27      0.00
    3    7   12     -5.88      0.00
    5    7   12     -1.36      0.00
    0    8   12     10.99      0.00
    2    8   12      7.56      0.00
    4    8   12     -1.31      0.00
    6    8   12     -0.19      0.00
    8    8   12      2.43      0.00
    1    9   12      5.72      0.00
    3    9   12     -6.92      0.00
    5    9   12     -1.74      0.00
    7    9   12     -1.65      0.00
    0   10   12     -5.02      0.00
    2   10   12      8.54      0.00
    4   10   12     -0.92      0.00
    6   10   12      4.38      0.00
    8   10   12      2.46      0.00
   10   10   12      0.75      0.00
    1   11   12     -2.29      0.00
    3   11   12     -2.92      0.00
    5   11   12     -1.39      0.00
    7   11   12     -3.57      0.00
    9   11   12     -6.08      0.00
    0   12   12     -1.79      0.00
    2   12   12     -1.46      0.00
    4   12   12      1.57      0.00
    6   12   12      1.55      0.00
    8   12   12      7.09      0.00
   10   12   12      1.38      0.00
   12   12   12     -1.12      0.00
    1   13   12     -1.36      0.00
    3   13   12     -4.42      0.00
    5   13   12      1.36      0.00
    7   13   12     -3.97      0.00
    9   13   12      0.24      0.00
   11   13   12     -0.13      0.00
    0   14   12     -0.04      0.00
    2   14   12      0.23      0.00
    4   14   12      2.18      0.00
    6   14   12      6.06      0.00
    8   14   12      3.05      0.00
   10   14   12      0.16      0.00
   12   14   12     -2.94      0.00
   14   14   12     -5.81      0.00
    1   15   12     -4.33      0.00
    3   15   12     -1.21      0.00
    5   15   12     -1.00      0.00
    7   15   12      2.62      0.00
    9   15   12      1.31      0.00
   11   15   12     -0.51      0.00
   13   15   12     -1.74      0.00
    0   16   12     -1.46      0.00
    2   16   12     -3.62      0.00
    4   16   12     -2.42      0.00
    6   16   12     -0.70      0.00
    8   16   12      0.70      0.00
   10   16   12     -0.41      0.00
   12   16   12     -1.78      0.00
   14   16   12      1.59      0.00
    1   17   12      2.66      0.00
    3   17   12     -1.79      0.00
    5   17   12      1.42      0.00
    7   17   12      3.71      0.00
    9   17   12     -1.77      0.00
   11   17   12      1.49      0.00
   13   17   12      4.00      0.00
    0   18   12     -7.46      0.00
    2   18   12      1.19      0.00
    4   18   12      1.98      0.00
    6   18   12     -2.40      0.00
    8   18   12      0.95      0.00
   10   18   12     -2.83      0.00
    1   19   12      1.71      0.00
    3   19   12      2.46      0.00
    5   19   12      2.14      0.00
    7   19   12     -1.02      0.00
    9   19   12      1.40      0.00
    0   20   12      5.48      0.00
    2   20   12      2.36      0.00
    4   20   12      3.19      0.00
    6   20   12      0.50      0.00
    1   21   12     -1.52      0.00
    3   21   12     -0.32      0.00
    0    1   13     22.39      0.00
    1    2   13     -4.97      0.00
    0    3   13     -0.27      0.00
    2    3   13     18.74      0.00
    1    4   13      4.28      0.00
    3    4   13      2.44      0.00
    0    5   13     24.31      0.00
    2    5   13     -1.52      0.00
    4    5   13      4.32      0.00
    1    6   13      8.04      0.00
    3    6   13     -9.15      0.00
    5    6   13     10.33      0.00
    0    7   13    -28.54      0.00
    2    7   13      0.41      0.00
    4    7   13    -10.75      0.00
    6    7   13     -3.23      0.00
    1    8   13      4.75      0.00
    3    8   13      3.95      0.00
    5    8   13      0.21      0.00
    7    8   13      3.50      0.00
    0    9   13     -1.67      0.00
    2    9   13     -4.86      0.00
    4    9   13      0.65      0.00
    6    9   13      4.85      0.00
    8    9   13     -3.92      0.00
    1   10   13      5.41      0.00
    3   10   13      1.51      0.00
    5   10   13     -5.79      0.00
    7   10   13     -4.92      0.00
    9   10   13      3.57      0.00
    0   11   13     -2.58      0.00
    2   11   13     -1.27      0.00
    4   11   13      1.89      0.00
    6   11   13      0.49      0.00
    8   11   13      0.38      0.00
   10   11   13      4.11      0.00
    1   12   13      2.97      0.00
    3   12   13      2.32      0.00
    5   12   13      0.59      0.00
    7   12   13      0.59      0.00
    9   12   13     -0.45      0.00
   11   12   13      0.88      0.00
    0   13   13     -4.73      0.00
    2   13   13     -2.56      0.00
    4   13   13      4.15      0.00
    6   13   13     -4.07      0.00
    8   13   13     -0.61      0.00
   10   13   13      2.29      0.00
   12   13   13      1.42      0.00
    1   14   13      5.81      0.00
    3   14   13      0.52      0.00
    5   14   13      4.37      0.00
    7   14   13      3.47      0.00
    9   14   13     -0.26      0.00
   11   14   13     -0.33      0.00
   13   14   13      2.95      0.00
    0   15   13     -0.36      0.00
    2   15   13      0.67      0.00
    4   15   13     -2.16      0.00
    6   15   13     -1.53      0.00
    8   15   13      1.07      0.00
   10   15   13     -2.21      0.00
   12   15   13     -2.19      0.00
   14   15   13     -2.51      0.00
    1   16   13      1.24      0.00
    3   16   13      9.21      0.00
    5   16   13      1.64      0.00
    7   16   13     -1.93      0.00
    9   16   13     -0.44      0.00
   11   16   13      1.27      0.00
   13   16   13     -2.70      0.00
    0   17   13      3.29      0.00
    2   17   13      2.54      0.00
    4   17   13      2.95      0.00
    6   17   13      2.30      0.00
    8   17   13      1.29      0.00
   10   17   13     -0.09      0.00
   12   17   13     -1.99      0.00
    1   18   13     -0.90      0.00
    3   18   13      5.48      0.00
    5   18   13     -2.02      0.00
    7   18   13     -0.99      0.00
    9   18   13     -0.41      0.00
   11   18   13      0.94      0.00
    0   19   13     -6.04      0.00
    2   19   13      5.46      0.00
    4   19   13      0.87      0.00
    6   19   13     -2.03      0.00
    8   19   13      1.44      0.00
    1   20   13     -0.33      0.00
    3   20   13     -1.32      0.00
    5   20   13     -1.82      0.00
    7   20   13     -1.38      0.00
    0   21   13      8.04      0.00
    2   21   13     -2.62      0.00
    4   21   13      2.32      0.00
    1    1   14     55.78      0.00
    0    2   14     -8.56      0.00
    1    3   14     29.91      0.00
    3    3   14     11.65      0.00
    0    4   14    -17.96      0.00
    2    4   14    -14.92      0.00
    1    5   14     15.03      0.00
    3    5   14      6.13      0.00
    5    5   14     -6.81      0.00
    0    6   14     -4.95      0.00
    2    6   14     -6.90      0.00
    4    6   14     11.08      0.00
    1    7   14     -6.09      0.00
    3    7   14      4.39      0.00
    5    7   14      4.75      0.00
    7    7   14     -8.80      0.00
    0    8   14      5.88      0.00
    2    8   14      5.39      0.00
    4    8   14      4.09      0.00
    6    8   14     19.19      0.00
    1    9   14     -1.05      0.00
    3    9   14     -1.17      0.00
    5    9   14     -7.30      0.00
    7    9   14      1.53      0.00
    9    9   14     -3.37      0.00
    0   10   14     -1.28      0.00
    2   10   14      5.65      0.00
    4   10   14      7.41      0.00
    6   10   14      3.70      0.00
    8   10   14      1.19      0.00
    1   11   14     -0.97      0.00
    3   11   14      3.36      0.00
    5   11   14     -3.26      0.00
    7   11   14     -0.40      0.00
    9   11   14     -1.39      0.00
   11   11   14     -0.40      0.00
    0   12   14      6.53      0.00
    2   12   14      2.77      0.00
    4   12   14      0.25      0.00
    6   12   14     -5.14      0.00
    8   12   14     -2.66      0.00
   10   12   14     -1.89      0.00
    1   13   14      2.92      0.00
    3   13   14      3.98      0.00
    5   13   14      1.85      0.00
    7   13   14      0.73      0.00
    9   13   14      3.57      0.00
   11   13   14     -1.06      0.00
   13   13   14     -6.11      0.00
    0   14   14      7.12      0.00
    2   14   14     -3.46      0.00
    4   14   14     -0.25      0.00
    6   14   14      1.21      0.00
    8   14   14     -3.73      0.00
   10   14   14     -4.57      0.00
   12   14   14      2.22      0.00
    1   15   14      1.01      0.00
    3   15   14      2.80      0.00
    5   15   14      5.04      0.00
    7   15   14      2.94      0.00
    9   15   14      3.63      0.00
   11   15   14     -3.72      0.00
   13   15   14     -2.57      0.00
   15   15   14      1.18      0.00
    0   16   14      1.26      0.00
    2   16   14      4.23      0.00
    4   16   14     -3.70      0.00
    6   16   14      3.09      0.00
    8   16   14      3.69      0.00
   10   16   14      1.20      0.00
   12   16   14     -3.50      0.00
   14   16   14      5.80      0.00
    1   17   14      4.29      0.00
    3   17   14     -3.88      0.00
    5   17   14      0.58      0.00
    7   17   14     -1.62      0.00
    9   17   14     -0.47      0.00
   11   17   14      1.79      0.00
    0   18   14     -5.32      0.00
    2   18   14     -5.22      0.00
    4   18   14      4.40      0.00
    6   18   14      0.49      0.00
    8   18   14      3.85      0.00
   10   18   14     -1.66      0.00
    1   19   14     -2.84      0.00
    3   19   14      1.60      0.00
    5   19   14     -1.35      0.00
    7   19   14      2.11      0.00
    9   19   14      3.95      0.00
    0   20   14      1.74      0.00
    2   20   14     -2.51      0.00
    4   20   14     -2.23      0.00
    6   20   14     -0.65      0.00
    1   21   14      1.29      0.00
    3   21   14     -1.30      0.00
    0    1   15      2.07      0.00
    1    2   15     -8.89      0.00
    0    3   15    -36.21      0.00
    2    3   15     14.32      0.00
    1    4   15     -9.43      0.00
    3    4   15     19.41      0.00
    0    5   15     11.70      0.00
    2    5   15     -5.22      0.00
    4    5   15     11.72      0.00
    1    6   15     -0.43      0.00
    3    6   15    -13.64      0.00
    5    6   15      2.61      0.00
    0    7   15     23.40      0.00
    2    7   15     14.82      0.00
    4    7   15      0.87      0.00
    6    7   15      2.59      0.00
    1    8   15    -10.42      0.00
    3    8   15      0.15      0.00
    5    8   15     -9.67      0.00
    7    8   15      4.97      0.00
    0    9   15     12.56      0.00
    2    9   15     -2.38      0.00
    4    9   15      2.36      0.00
    6    9   15      8.02      0.00
    8    9   15     -0.47      0.00
    1   10   15     -2.89      0.00
    3   10   15      4.40      0.00
    5   10   15      6.24      0.00
    7   10   15     -4.71      0.00
    9   10   15     -3.91      0.00
    0   11   15      0.16      0.00
    2   11   15      5.26      0.00
    4   11   15      0.11      0.00
    6   11   15     -1.37      0.00
    8   11   15     -1.64      0.00
   10   11   15     -1.45      0.00
    1   12   15      4.84      0.00
    3   12   15      2.11      0.00
    5   12   15      0.03      0.00
    7   12   15     -1.72      0.00
    9   12   15      1.41      0.00
   11   12   15     -2.13      0.00
    0   13   15      0.96      0.00
    2   13   15      2.77      0.00
    4   13   15      0.56      0.00
    6   13   15     -1.21      0.00
    8   13   15      2.27      0.00
   10   13   15     -0.91      0.00
   12   13   15      3.93      0.00
    1   14   15      0.37      0.00
    3   14   15     -4.88      0.00
    5   14   15      3.53      0.00
    7   14   15     -6.36      0.00
    9   14   15     -0.04      0.00
   11   14   15      3.23      0.00
   13   14   15      1.92      0.00
    0   15   15      6.33      0.00
    2   15   15      1.59      0.00
    4   15   15      0.47      0.00
    6   15   15      4.44      0.00
    8   15   15      2.55      0.00
   10   15   15      1.23      0.00
   12   15   15      3.82      0.00
   14   15   15      3.68      0.00
    1   16   15      1.04      0.00
    3   16   15      1.63      0.00
    5   16   15      0.81      0.00
    7   16   15      1.89      0.00
    9   16   15     -1.35      0.00
   11   16   15      3.27      0.00
   13   16   15      0.67      0.00
    0   17   15     -3.04      0.00
    2   17   15      2.92      0.00
    4   17   15      0.36      0.00
    6   17   15      0.44      0.00
    8   17   15      0.16      0.00
   10   17   15      0.72      0.00
   12   17   15     -1.13      0.00
    1   18   15     -0.17      0.00
    3   18   15     -4.04      0.00
    5   18   15     -2.43      0.00
    7   18   15     -0.63      0.00
    9   18   15      3.03      0.00
   11   18   15     -4.06      0.00
    0   19   15     -3.13      0.00
    2   19   15     -0.39      0.00
    4   19   15      0.14      0.00
    6   19   15      1.07      0.00
    8   19   15      1.75      0.00
    1   20   15     -0.88      0.00
    3   20   15      1.49      0.00
    5   20   15      1.33      0.00
    7   20   15      6.84      0.00
    0   21   15     -2.02      0.00
    2   21   15      0.18      0.00
    0    0   16    -75.07      0.00
    0    2   16     11.48      0.00
    2    2   16     -5.66      0.00
    1    3   16    -12.69      0.00
    0    4   16      3.81      0.00
    2    4   16     -1.20      0.00
    4    4   16    -14.23      0.00
    1    5   16    -11.16      0.00
    3    5   16      7.49      0.00
    0    6   16     23.00      0.00
    2    6   16     -0.92      0.00
    4    6   16      3.38      0.00
    6    6   16    -13.43      0.00
    1    7   16      4.86      0.00
    3    7   16     -2.02      0.00
    5    7   16      0.74      0.00
    0    8   16    -11.21      0.00
    2    8   16     -5.39      0.00
    4    8   16    -11.37      0.00
    6    8   16     -3.27      0.00
    8    8   16    -10.82      0.00
    1    9   16     10.42      0.00
    3    9   16      1.19      0.00
    5    9   16      7.40      0.00
    7    9   16     10.25      0.00
    0   10   16    -10.23      0.00
    2   10   16     -1.59      0.00
    4   10   16     -6.25      0.00
    6   10   16     -5.69      0.00
    8   10   16      2.26      0.00
   10   10   16      2.79      0.00
    1   11   16     -1.04      0.00
    3   11   16      5.38      0.00
    5   11   16      8.31      0.00
    7   11   16     -0.70      0.00
    9   11   16     -0.81      0.00
    0   12   16     -7.40      0.00
    2   12   16     -0.95      0.00
    4   12   16     -5.02      0.00
    6   12   16     -2.44      0.00
    8   12   16      3.55      0.00
   10   12   16      0.71      0.00
   12   12   16      0.97      0.00
    1   13   16      2.49      0.00
    3   13   16      3.49      0.00
    5   13   16     -0.25      0.00
    7   13   16     -1.08      0.00
    9   13   16     -0.27      0.00
   11   13   16     -0.19      0.00
    0   14   16     -0.67      0.00
    2   14   16     -4.71      0.00
    4   14   16     -3.36      0.00
    6   14   16      3.89      0.00
    8   14   16      0.83      0.00
   10   14   16      0.33      0.00
   12   14   16     -1.47      0.00
   14   14   16     -2.87      0.00
    1   15   16      8.93      0.00
    3   15   16     -2.48      0.00
    5   15   16      3.77      0.00
    7   15   16     -1.17      0.00
    9   15   16      0.83      0.00
   11   15   16      1.55      0.00
   13   15   16      6.50      0.00
    0   16   16     -7.74      0.00
    2   16   16     -3.54      0.00
    4   16   16      2.11      0.00
    6   16   16      0.98      0.00
    8   16   16      2.66      0.00
   10   16   16     -2.71      0.00
   12   16   16     -3.02      0.00
    1   17   16      6.28      0.00
    3   17   16      1.27      0.00
    5   17   16      1.16      0.00
    7   17   16      2.21      0.00
    9   17   16     -5.54      0.00
   11   17   16     -0.94      0.00
    0   18   16     -2.32      0.00
    2   18   16     -3.18      0.00
    4   18   16     -0.42      0.00
    6   18   16     -2.46      0.00
    8   18   16     -1.38      0.00
   10   18   16     -1.00      0.00
    1   19   16     -3.23      0.00
    3   19   16      1.78      0.00
    5   19   16      5.04      0.00
    7   19   16      3.34      0.00
    9   19   16     -3.34      0.00
    0   20   16      1.50      0.00
    2   20   16      3.22      0.00
    4   20   16     -2.52      0.00
    6   20   16     -4.89      0.00
    1   21   16      2.54      0.00
    3   21   16      3.64      0.00
    0    1   17    -20.81      0.00
    1    2   17      9.45      0.00
    0    3   17      3.12      0.00
    2    3   17    -18.54      0.00
    1    4   17    -34.23      0.00
    3    4   17     -4.94      0.00
    0    5   17     -0.67      0.00
    2    5   17     19.01      0.00
    4    5   17     -0.88      0.00
    1    6   17     -8.80      0.00
    3    6   17    -11.47      0.00
    5    6   17      0.16      0.00
    0    7   17      3.11      0.00
    2    7   17     -7.06      0.00
    4    7   17     -2.10      0.00
    6    7   17     -4.97      0.00
    1    8   17      1.89      0.00
    3    8   17     -4.41      0.00
    5    8   17    -11.53      0.00
    7    8   17    -10.30      0.00
    0    9   17     -1.89      0.00
    2    9   17      0.56      0.00
    4    9   17     -3.08      0.00
    6    9   17      8.05      0.00
    8    9   17      4.98      0.00
    1   10   17     -4.13      0.00
    3   10   17     -5.56      0.00
    5   10   17     -2.97      0.00
    7   10   17     -3.53      0.00
    9   10   17     -3.93      0.00
    0   11   17     -5.86      0.00
    2   11   17      0.94      0.00
    4   11   17      6.15      0.00
    6   11   17      3.27      0.00
    8   11   17     -2.35      0.00
   10   11   17      2.76      0.00
    1   12   17     -7.50      0.00
    3   12   17     -4.17      0.00
    5   12   17     -6.31      0.00
    7   12   17     -3.24      0.00
    9   12   17     -1.03      0.00
   11   12   17     -3.62      0.00
    0   13   17     -1.80      0.00
    2   13   17      3.28      0.00
    4   13   17      0.76      0.00
    6   13   17     -1.51      0.00
    8   13   17      3.76      0.00
   10   13   17      0.97      0.00
   12   13   17     -0.85      0.00
    1   14   17     -2.36      0.00
    3   14   17     -3.66      0.00
    5   14   17     -3.57      0.00
    7   14   17      1.75      0.00
    9   14   17     -3.32      0.00
   11   14   17      0.05      0.00
   13   14   17      2.01      0.00
    0   15   17      4.54      0.00
    2   15   17     -0.87      0.00
    4   15   17      6.05      0.00
    6   15   17     -0.25      0.00
    8   15   17     -1.38      0.00
   10   15   17      0.74      0.00
   12   15   17     -1.23      0.00
   14   15   17     -0.73      0.00
    1   16   17     -1.89      0.00
    3   16   17     -3.02      0.00
    5   16   17     -0.61      0.00
    7   16   17     -3.67      0.00
    9   16   17     -1.10      0.00
   11   16   17      3.29      0.00
   13   16   17      3.46      0.00
    0   17   17      2.59      0.00
    2   17   17      9.43      0.00
    4   17   17      1.58      0.00
    6   17   17      1.11      0.00
    8   17   17     -2.70      0.00
   10   17   17      2.22      0.00
   12   17   17      0.96      0.00
    1   18   17      0.42      0.00
    3   18   17      2.97      0.00
    5   18   17     -4.20      0.00
    7   18   17     -3.07      0.00
    9   18   17      1.33      0.00
   11   18   17     -1.22      0.00
    0   19   17      3.14      0.00
    2   19   17      1.60      0.00
    4   19   17      0.64      0.00
    6   19   17     -5.11      0.00
    8   19   17      2.85      0.00
    1   20   17      1.31      0.00
    3   20   17      5.01      0.00
    5   20   17     -2.41      0.00
    0   21   17      3.24      0.00
    2   21   17      0.54      0.00
    1    1   18     19.91      0.00
    0    2   18     -8.04      0.00
    1    3   18      5.15      0.00
    3    3   18    -11.82      0.00
    0    4   18    -14.28      0.00
    2    4   18    -19.86      0.00
    1    5   18     -0.43      0.00
    3    5   18      6.23      0.00
    5    5   18     -0.20      0.00
    0    6   18    -18.77      0.00
    2    6   18     -5.59      0.00
    4    6   18     -9.68      0.00
    1    7   18    -11.58      0.00
    3    7   18     -0.78      0.00
    5    7   18      2.74      0.00
    7    7   18     -8.58      0.00
    0    8   18     -1.56      0.00
    2    8   18    -11.24      0.00
    4    8   18     -1.41      0.00
    6    8   18      2.36      0.00
    1    9   18     -2.78      0.00
    3    9   18     -3.95      0.00
    5    9   18     -7.60      0.00
    7    9   18      0.88      0.00
    9    9   18     -5.93      0.00
    0   10   18    -10.02      0.00
    2   10   18     -2.77      0.00
    4   10   18     -4.53      0.00
    6   10   18     -1.49      0.00
    8   10   18     -3.11      0.00
    1   11   18     -3.84      0.00
    3   11   18     -0.43      0.00
    5   11   18     -3.85      0.00
    7   11   18     -3.03      0.00
    9   11   18      0.10      0.00
   11   11   18      3.62      0.00
    0   12   18     -6.87      0.00
    2   12   18     -7.13      0.00
    4   12   18      2.11      0.00
    6   12   18     -1.41      0.00
    8   12   18     -1.67      0.00
   10   12   18     -2.46      0.00
    1   13   18     -1.52      0.00
    3   13   18      2.01      0.00
    5   13   18     -3.48      0.00
    7   13   18     -0.39      0.00
    9   13   18      2.67      0.00
   11   13   18     -1.88      0.00
   13   13   18     -4.09      0.00
    0   14   18     -0.31      0.00
    2   14   18     -2.31      0.00
    4   14   18     -4.05      0.00
    6   14   18      1.00      0.00
    8   14   18      1.25      0.00
   10   14   18      0.72      0.00
   12   14   18     -1.26      0.00
    1   15   18      0.91      0.00
    3   15   18     -5.43      0.00
    5   15   18     -0.05      0.00
    7   15   18     -0.32      0.00
    9   15   18      1.70      0.00
   11   15   18     -2.38      0.00
   13   15   18     -3.44      0.00
    0   16   18      4.73      0.00
    2   16   18      0.53      0.00
    4   16   18      0.39      0.00
    6   16   18     -2.25      0.00
    8   16   18      1.40      0.00
   10   16   18      1.89      0.00
   12   16   18     -0.69      0.00
    1   17   18      0.62      0.00
    3   17   18      1.29      0.00
    5   17   18      4.59      0.00
    7   17   18      1.32      0.00
    9   17   18     -1.76      0.00
   11   17   18      1.21      0.00
    0   18   18      5.32      0.00
    2   18   18      4.07      0.00
    4   18   18      0.58      0.00
    6   18   18     -1.14      0.00
    8   18   18      1.42      0.00
   10   18   18      5.38      0.00
    1   19   18      0.29      0.00
    3   19   18      0.39      0.00
    5   19   18      0.15      0.00
    7   19   18     -1.28      0.00
    9   19   18      2.25      0.00
    0   20   18     -4.34      0.00
    2   20   18     -4.20      0.00
    4   20   18      2.97      0.00
    6   20   18      6.02      0.00
    1   21   18      2.73      0.00
    0    1   19     11.47      0.00
    1    2   19     -9.09      0.00
    0    3   19    -24.31      0.00
    2    3   19      5.90      0.00
    1    4   19     -3.93      0.00
    3    4   19      1.20      0.00
    0    5   19    -19.71      0.00
    2    5   19    -20.22      0.00
    4    5   19     -1.01      0.00
    1    6   19     -4.35      0.00
    3    6   19     -1.63      0.00
    5    6   19     -2.51      0.00
    0    7   19      0.30      0.00
    2    7   19     -2.39      0.00
    4    7   19     -1.78      0.00
    6    7   19      9.40      0.00
    1    8   19     -0.55      0.00
    3    8   19     -5.06      0.00
    5    8   19     -8.69      0.00
    7    8   19     -0.88      0.00
    0    9   19      8.91      0.00
    2    9   19     -6.50      0.00
    4    9   19     -3.26      0.00
    6    9   19     -1.41      0.00
    8    9   19      0.81      0.00
    1   10   19     -4.15      0.00
    3   10   19     -3.83      0.00
    5   10   19     -2.78      0.00
    7   10   19      4.68      0.00
    9   10   19      0.29      0.00
    0   11   19     -2.93      0.00
    2   11   19     -0.79      0.00
    4   11   19      1.13      0.00
    6   11   19      1.67      0.00
    8   11   19     -0.76      0.00
   10   11   19      0.02      0.00
    1   12   19     -0.64      0.00
    3   12   19     -1.68      0.00
    5   12   19      2.24      0.00
    7   12   19     -3.14      0.00
    9   12   19      1.78      0.00
   11   12   19      1.08      0.00
    0   13   19     -3.18      0.00
    2   13   19      2.76      0.00
    4   13   19      1.21      0.00
    6   13   19     -5.88      0.00
    8   13   19      0.23      0.00
   10   13   19      0.68      0.00
   12   13   19     -0.49      0.00
    1   14   19     -1.39      0.00
    3   14   19     -0.67      0.00
    5   14   19     -1.54      0.00
    7   14   19      0.41      0.00
    9   14   19     -2.89      0.00
   11   14   19      0.03      0.00
   13   14   19     -5.68      0.00
    0   15   19     -4.68      0.00
    2   15   19     -0.84      0.00
    4   15   19     -4.94      0.00
    6   15   19      2.44      0.00
    8   15   19     -0.22      0.00
   10   15   19     -4.91      0.00
   12   15   19     -3.23      0.00
   14   15   19      2.72      0.00
    1   16   19      3.61      0.00
    3   16   19     -2.48      0.00
    5   16   19      5.10      0.00
    7   16   19     -0.29      0.00
    9   16   19      3.50      0.00
   11   16   19      1.58      0.00
   13   16   19     -2.52      0.00
    0   17   19     -4.74      0.00
    2   17   19     -4.53      0.00
    4   17   19     -2.11      0.00
    6   17   19      0.94      0.00
    8   17   19     -2.04      0.00
   10   17   19      0.61      0.00
   12   17   19      1.90      0.00
    1   18   19      0.86      0.00
    3   18   19      5.87      0.00
    5   18   19      4.66      0.00
    7   18   19     -0.62      0.00
    9   18   19     -1.39      0.00
    0   19   19     -6.82      0.00
    2   19   19     -3.68      0.00
    4   19   19     -0.64      0.00
    6   19   19     -3.08      0.00
    8   19   19      5.48      0.00
    1   20   19      1.99      0.00
    3   20   19      2.05      0.00
    5   20   19     -0.28      0.00
    0    0   20      3.77      0.00
    0    2   20      1.48      0.00
    2    2   20     10.27      0.00
    1    3   20      7.74      0.00
    0    4   20     10.50      0.00
    2    4   20      0.91      0.00
    4    4   20     -5.06      0.00
    1    5   20     -1.72      0.00
    3    5   20     -0.49      0.00
    0    6   20     15.20      0.00
    2    6   20      0.71      0.00
    4    6   20      1.50      0.00
    6    6   20      3.14      0.00
    1    7   20      0.25      0.00
    3    7   20      3.89      0.00
    5    7   20     -1.81      0.00
    0    8   20     -2.64      0.00
    2    8   20     -2.78      0.00
    4    8   20     -2.18      0.00
    6    8   20      0.14      0.00
    8    8   20     -2.37      0.00
    1    9   20      0.94      0.00
    3    9   20     -7.93      0.00
    5    9   20      1.56      0.00
    7    9   20      4.60      0.00
    0   10   20     -1.91      0.00
    2   10   20      4.33      0.00
    4   10   20      1.82      0.00
    6   10   20     -3.68      0.00
    8   10   20      3.23      0.00
   10   10   20      3.64      0.00
    1   11   20     -1.95      0.00
    3   11   20      1.29      0.00
    5   11   20      1.44      0.00
    7   11   20     -2.00      0.00
    9   11   20     -1.78      0.00
    0   12   20      0.97      0.00
    2   12   20      5.29      0.00
    4   12   20     -1.41      0.00
    6   12   20      0.73      0.00
    8   12   20      3.18      0.00
   10   12   20      0.84      0.00
   12   12   20      0.99      0.00
    1   13   20     -7.26      0.00
    3   13   20     -1.52      0.00
    5   13   20     -0.79      0.00
    7   13   20     -6.65      0.00
    9   13   20     -3.22      0.00
   11   13   20     -2.29      0.00
    0   14   20      1.44      0.00
    2   14   20     -1.86      0.00
    4   14   20     -0.96      0.00
    6   14   20      2.10      0.00
    8   14   20      0.39      0.00
   10   14   20     -0.92      0.00
   12   14   20     -2.15      0.00
   14   14   20      1.87      0.00
    1   15   20     -5.07      0.00
    3   15   20     -9.84      0.00
    5   15   20     -4.01      0.00
    7   15   20     -0.86      0.00
    9   15   20     -2.32      0.00
   11   15   20     -1.54      0.00
   13   15   20      4.66      0.00
    0   16   20     -4.20      0.00
    2   16   20     -0.21      0.00
    4   16   20      2.30      0.00
    6   16   20      2.18      0.00
    8   16   20      2.14      0.00
   10   16   20     -1.48      0.00
   12   16   20     -1.85      0.00
    1   17   20     -1.10      0.00
    3   17   20     -3.03      0.00
    5   17   20      1.93      0.00
    7   17   20     -0.34      0.00
    9   17   20     -2.94      0.00
   11   17   20     -1.92      0.00
    0   18   20     -2.99      0.00
    2   18   20     -1.62      0.00
    4   18   20      0.41      0.00
    6   18   20     -1.59      0.00
    8   18   20     -0.11      0.00
   10   18   20      1.92      0.00
    1   19   20      0.93      0.00
    3   19   20     -3.27      0.00
    5   19   20     -3.28      0.00
    7   19   20      0.50      0.00
    0   20   20     -2.56      0.00
    2   20   20     -1.88      0.00
    4   20   20     -1.57      0.00
    6   20   20      0.84      0.00
    0    1   21      4.61      0.00
    1    2   21     20.54      0.00
    0    3   21      5.98      0.00
    2    3   21      9.64      0.00
    1    4   21     -8.57      0.00
    3    4   21      1.60      0.00
    0    5   21      3.91      0.00
    2    5   21      5.38      0.00
    4    5   21      6.58      0.00
    1    6   21     -4.11      0.00
    3    6   21      6.99      0.00
    5    6   21      9.89      0.00
    0    7   21      5.48      0.00
    2    7   21      7.61      0.00
    4    7   21     -3.67      0.00
    6    7   21      0.71      0.00
    1    8   21      0.86      0.00
    3    8   21      1.57      0.00
    5    8   21      4.08      0.00
    7    8   21     -5.58      0.00
    0    9   21     10.44      0.00
    2    9   21     -0.34      0.00
    4    9   21      1.28      0.00
    6    9   21     -1.72      0.00
    8    9   21     -1.43      0.00
    1   10   21      9.06      0.00
    3   10   21      5.29      0.00
    5   10   21      0.34      0.00
    7   10   21      4.82      0.00
    9   10   21     -1.15      0.00
    0   11   21     -6.99      0.00
    2   11   21      2.37      0.00
    4   11   21     -3.93      0.00
    6   11   21     -1.67      0.00
    8   11   21     -0.94      0.00
   10   11   21      2.11      0.00
    1   12   21      0.12      0.00
    3   12   21      2.28      0.00
    5   12   21      2.37      0.00
    7   12   21      0.41      0.00
    9   12   21     -0.08      0.00
   11   12   21     -4.27      0.00
    0   13   21     -3.38      0.00
    2   13   21     -3.59      0.00
    4   13   21     -0.02      0.00
    6   13   21     -1.76      0.00
    8   13   21      1.45      0.00
   10   13   21      1.89      0.00
   12   13   21      5.63      0.00
    1   14   21      2.85      0.00
    3   14   21      3.73      0.00
    5   14   21      0.69      0.00
    7   14   21     -1.10      0.00
    9   14   21     -3.65      0.00
   11   14   21      2.94      0.00
   13   14   21     -1.66      0.00
    0   15   21     -3.96      0.00
    2   15   21     -1.57      0.00
    4   15   21     -3.89      0.00
    6   15   21     -0.65      0.00
    8   15   21      1.72      0.00
   10   15   21      0.60      0.00
   12   15   21     -3.49      0.00
   14   15   21      1.17      0.00
    1   16   21      2.80      0.00
    3   16   21     -1.16      0.00
    5   16   21     -0.86      0.00
    7   16   21     -0.23      0.00
    9   16   21     -2.09      0.00
   11   16   21     -2.92      0.00
   13   16   21      6.00      0.00
    0   17   21      2.44      0.00
    2   17   21     -1.67      0.00
    4   17   21     -5.08      0.00
    6   17   21     -2.61      0.00
    8   17   21     -1.03      0.00
   10   17   21      4.35      0.00
   12   17   21      0.09      0.00
    1   18   21     -1.57      0.00
    3   18   21     -0.85      0.00
    5   18   21      0.71      0.00
    7   18   21     -2.06      0.00
    9   18   21     -4.16      0.00
    0   19   21     -3.37      0.00
    2   19   21     -2.89      0.00
    4   19   21      2.05      0.00
    6   19   21     -2.49      0.00
    8   19   21      0.95      0.00
    1   20   21      1.26      0.00
    3   20   21      4.68      0.00
    5   20   21     -7.34      0.00
    1    1   22     -0.11      0.00
    0    2   22     26.13      0.00
    1    3   22      5.17      0.00
    3    3   22      2.49      0.00
    0    4   22    -11.55      0.00
    2    4   22      9.32      0.00
    1    5   22     11.63      0.00
    3    5   22      7.84      0.00
    5    5   22      3.67      0.00
    0    6   22     18.14      0.00
    2    6   22      5.41      0.00
    4    6   22      4.12      0.00
    1    7   22     -6.09      0.00
    3    7   22      2.69      0.00
    5    7   22     -0.58      0.00
    7    7   22     -4.60      0.00
    0    8   22      5.06      0.00
    2    8   22     10.69      0.00
    4    8   22      5.22      0.00
    6    8   22      8.06      0.00
    1    9   22      3.89      0.00
    3    9   22     -5.76      0.00
    5    9   22     -1.03      0.00
    7    9   22     -0.89      0.00
    9    9   22     -3.95      0.00
    0   10   22      3.96      0.00
    2   10   22      1.40      0.00
    4   10   22     10.99      0.00
    6   10   22      5.99      0.00
    8   10   22     -3.12      0.00
    1   11   22     -0.88      0.00
    3   11   22      2.13      0.00
    5   11   22     -6.17      0.00
    7   11   22     -4.09      0.00
    9   11   22     -0.85      0.00
   11   11   22      4.73      0.00
    0   12   22      0.77      0.00
    2   12   22      5.74      0.00
    4   12   22      4.39      0.00
    6   12   22      3.27      0.00
    8   12   22      1.80      0.00
   10   12   22     -1.72      0.00
    1   13   22      1.87      0.00
    3   13   22     -0.55      0.00
    5   13   22     -6.09      0.00
    7   13   22     -0.97      0.00
    9   13   22      4.48      0.00
   11   13   22      0.00      0.00
   13   13   22      5.26      0.00
    0   14   22      4.57      0.00
    2   14   22     -3.05      0.00
    4   14   22      3.21      0.00
    6   14   22     -1.61      0.00
    8   14   22     -0.36      0.00
   10   14   22      3.25      0.00
   12   14   22     -1.58      0.00
    1   15   22      2.38      0.00
    3   15   22     -4.94      0.00
    5   15   22      0.07      0.00
    7   15   22      0.41      0.00
    9   15   22      0.97      0.00
   11   15   22      2.24      0.00
   13   15   22     -1.60      0.00
    0   16   22     -6.43      0.00
    2   16   22     -1.74      0.00
    4   16   22     -5.73      0.00
    6   16   22     -4.59      0.00
    8   16   22     -2.17      0.00
   10   16   22     -0.98      0.00
   12   16   22      0.53      0.00
    1   17   22      0.42      0.00
    3   17   22     -1.47      0.00
    5   17   22     -0.14      0.00
    7   17   22      2.23      0.00
    9   17   22     -0.57      0.00
   11   17   22      2.00      0.00
    0   18   22      1.75      0.00
    2   18   22     -0.57      0.00
    4   18   22     -3.26      0.00
    6   18   22     -3.19      0.00
    8   18   22     -2.35      0.00
   10   18   22      0.69      0.00
    1   19   22     -0.08      0.00
    3   19   22     -1.32      0.00
    5   19   22     -2.07      0.00
    7   19   22     -6.20      0.00
    0   20   22      0.75      0.00
    2   20   22     -3.82      0.00
    4   20   22     -1.59      0.00
    0    1   23     18.06      0.00
    1    2   23      1.03      0.00
    0    3   23      2.69      0.00
    2    3   23     -4.89      0.00
    1    4   23     11.29      0.00
    3    4   23     11.12      0.00
    0    5   23    -24.59      0.00
    2    5   23      0.74      0.00
    4    5   23     -4.10      0.00
    1    6   23     12.91      0.00
    3    6   23      7.26      0.00
    5    6   23      0.36      0.00
    0    7   23     -1.43      0.00
    2    7   23    -12.50      0.00
    4    7   23      2.00      0.00
    6    7   23      9.74      0.00
    1    8   23      6.88      0.00
    3    8   23      5.27      0.00
    5    8   23      3.81      0.00
    7    8   23      6.21      0.00
    0    9   23     -2.01      0.00
    2    9   23     -3.91      0.00
    4    9   23     -2.73      0.00
    6    9   23      2.82      0.00
    8    9   23     -1.63      0.00
    1   10   23      2.50      0.00
    3   10   23     -0.51      0.00
    5   10   23      0.41      0.00
    7   10   23      1.41      0.00
    9   10   23      1.21      0.00
    0   11   23     -0.20      0.00
    2   11   23     -3.93      0.00
    4   11   23      2.30      0.00
    6   11   23     -2.58      0.00
    8   11   23     -1.09      0.00
   10   11   23      1.48      0.00
    1   12   23      1.98      0.00
    3   12   23      3.07      0.00
    5   12   23     -0.92      0.00
    7   12   23     -0.49      0.00
    9   12   23      0.57      0.00
   11   12   23      2.54      0.00
    0   13   23     -7.97      0.00
    2   13   23      4.64      0.00
    4   13   23      0.27      0.00
    6   13   23     -0.34      0.00
    8   13   23      2.98      0.00
   10   13   23     -2.66      0.00
   12   13   23     -1.28      0.00
    1   14   23      3.36      0.00
    3   14   23     -0.04      0.00
    5   14   23      0.64      0.00
    7   14   23      0.70      0.00
    9   14   23     -3.32      0.00
   11   14   23      5.32      0.00
   13   14   23     -0.35      0.00
    0   15   23      1.50      0.00
    2   15   23     -1.05      0.00
    4   15   23     -1.55      0.00
    6   15   23      0.78      0.00
    8   15   23      1.56      0.00
   10   15   23     -1.93      0.00
   12   15   23     -1.62      0.00
   14   15   23      1.94      0.00
    1   16   23     -3.91      0.00
    3   16   23     -3.07      0.00
    5   16   23      1.91      0.00
    7   16   23     -2.97      0.00
    9   16   23     -2.48      0.00
   11   16   23     -4.86      0.00
   13   16   23     -0.18      0.00
    0   17   23     -0.40      0.00
    2   17   23      0.86      0.00
    4   17   23      0.46      0.00
    6   17   23      1.10      0.00
    8   17   23     -5.65      0.00
   10   17   23     -0.66      0.00
    1   18   23      2.31      0.00
    3   18   23      3.00      0.00
    5   18   23     -0.20      0.00
    7   18   23     -6.02      0.00
    9   18   23      0.69      0.00
    0   19   23     -1.43      0.00
    2   19   23      0.81      0.00
    4   19   23      4.26      0.00
    6   19   23     -2.39      0.00
    1   20   23      1.68      0.00
    3   20   23      2.48      0.00
    0    0   24     18.70      0.00
    0    2   24      3.09      0.00
    2    2   24     11.71      0.00
    1    3   24     -2.87      0.00
    0    4   24     13.60      0.00
    2    4   24      4.09      0.00
    4    4   24     13.82      0.00
    1    5   24     -7.89      0.00
    3    5   24    -10.59      0.00
    0    6   24      6.02      0.00
    2    6   24      4.40      0.00
    4    6   24     -6.04      0.00
    6    6   24      7.79      0.00
    1    7   24      0.07      0.00
    3    7   24      2.66      0.00
    5    7   24     -5.53      0.00
    0    8   24      5.54      0.00
    2    8   24      3.33      0.00
    4    8   24      0.68      0.00
    6    8   24     -1.34      0.00
    8    8   24      5.30      0.00
    1    9   24      0.99      0.00
    3    9   24     -8.52      0.00
    5    9   24     -0.46      0.00
    7    9   24      5.02      0.00
    0   10   24      0.05      0.00
    2   10   24     -0.53      0.00
    4   10   24      0.52      0.00
    6   10   24     -0.35      0.00
    8   10   24      1.54      0.00
   10   10   24      1.30      0.00
    1   11   24     -0.20      0.00
    3   11   24      2.11      0.00
    5   11   24      9.92      0.00
    7   11   24      1.62      0.00
    9   11   24     -4.70      0.00
    0   12   24      0.82      0.00
    2   12   24      0.80      0.00
    4   12   24     -1.76      0.00
    6   12   24     -1.62      0.00
    8   12   24      3.22      0.00
   10   12   24      2.87      0.00
   12   12   24     -0.28      0.00
    1   13   24      0.62      0.00
    3   13   24      9.88      0.00
    5   13   24      2.63      0.00
    7   13   24      0.72      0.00
    9   13   24     -0.73      0.00
   11   13   24     -3.33      0.00
    0   14   24      0.28      0.00
    2   14   24      2.40      0.00
    4   14   24     -1.97      0.00
    6   14   24     -2.80      0.00
    8   14   24      0.24      0.00
   10   14   24     -0.41      0.00
   12   14   24      1.83      0.00
   14   14   24      6.41      0.00
    1   15   24      0.79      0.00
    3   15   24      2.58      0.00
    5   15   24      9.28      0.00
    7   15   24     -3.08      0.00
    9   15   24     -1.47      0.00
   11   15   24     -0.25      0.00
   13   15   24     -1.78      0.00
    0   16   24      3.25      0.00
    2   16   24      0.50      0.00
    4   16   24      1.20      0.00
    6   16   24     -0.42      0.00
    8   16   24      0.73      0.00
   10   16   24      3.84      0.00
   12   16   24      1.46      0.00
    1   17   24      2.31      0.00
    3   17   24      2.86      0.00
    5   17   24      1.65      0.00
    7   17   24      1.29      0.00
    9   17   24     -1.59      0.00
   11   17   24     -1.27      0.00
    0   18   24     -3.05      0.00
    2   18   24      1.91      0.00
    4   18   24     -1.22      0.00
    6   18   24      2.14      0.00
    8   18   24     -1.11      0.00
    1   19   24      2.88      0.00
    3   19   24     -2.75      0.00
    5   19   24     -0.17      0.00
    7   19   24     -1.04      0.00
    0   20   24     -2.50      0.00
    2   20   24     -6.63      0.00
    4   20   24     -2.88      0.00
    0    1   25      3.15      0.00
    1    2   25      8.94      0.00
    0    3   25      4.37      0.00
    2    3   25      1.80      0.00
    1    4   25     -7.47      0.00
    3    4   25      1.45      0.00
    0    5   25     -5.01      0.00
    2    5   25     -1.59      0.00
    4    5   25      0.14      0.00
    1    6   25     -3.40      0.00
    3    6   25      5.97      0.00
    5    6   25      9.39      0.00
    0    7   25      9.52      0.00
    2    7   25     11.72      0.00
    4    7   25      0.09      0.00
    6    7   25     -3.84      0.00
    1    8   25     -5.18      0.00
    3    8   25     -4.21      0.00
    5    8   25      1.90      0.00
    7    8   25      4.16      0.00
    0    9   25      7.44      0.00
    2    9   25      4.10      0.00
    4    9   25     -0.68      0.00
    6    9   25     -1.44      0.00
    8    9   25      0.71      0.00
    1   10   25      2.34      0.00
    3   10   25      1.17      0.00
    5   10   25     -1.38      0.00
    7   10   25      2.05      0.00
    9   10   25      1.84      0.00
    0   11   25     -1.63      0.00
    2   11   25     -0.13      0.00
    4   11   25      6.94      0.00
    6   11   25      2.10      0.00
    8   11   25      0.34      0.00
   10   11   25      1.83      0.00
    1   12   25     -0.84      0.00
    3   12   25      1.64      0.00
    5   12   25      0.70      0.00
    7   12   25     -4.03      0.00
    9   12   25      0.12      0.00
   11   12   25      1.92      0.00
    0   13   25     -2.79      0.00
    2   13   25      5.74      0.00
    4   13   25      2.27      0.00
    6   13   25      0.66      0.00
    8   13   25      2.40      0.00
   10   13   25      2.66      0.00
   12   13   25      0.93      0.00
    1   14   25      0.71      0.00
    3   14   25      3.98      0.00
    5   14   25      0.69      0.00
    7   14   25      1.43      0.00
    9   14   25     -3.16      0.00
   11   14   25     -1.52      0.00
   13   14   25      2.97      0.00
    0   15   25      9.09      0.00
    2   15   25      2.26      0.00
    4   15   25     -4.32      0.00
    6   15   25      2.77      0.00
    8   15   25      4.76      0.00
   10   15   25      1.91      0.00
   12   15   25      1.02      0.00
    1   16   25      1.58      0.00
    3   16   25     -4.97      0.00
    5   16   25      0.88      0.00
    7   16   25      5.90      0.00
    9   16   25      1.83      0.00
   11   16   25     -1.61      0.00
    0   17   25     -0.47      0.00
    2   17   25     -1.89      0.00
    4   17   25      5.19      0.00
    6   17   25      6.65      0.00
    8   17   25     -0.36      0.00
   10   17   25     -1.14      0.00
    1   18   25     -2.44      0.00
    3   18   25     -0.80      0.00
    5   18   25      2.22      0.00
    7   18   25     -0.13      0.00
    9   18   25     -1.18      0.00
    0   19   25     -2.18      0.00
    2   19   25      0.95      0.00
    4   19   25      3.97      0.00
    6   19   25     -0.40      0.00
    1   20   25     -1.26      0.00
    3   20   25      2.70      0.00
    1    1   26    -13.04      0.00
    0    2   26      5.76      0.00
    1    3   26      5.89      0.00
    3    3   26      0.03      0.00
    0    4   26     -7.46      0.00
    2    4   26     -4.47      0.00
    1    5   26      1.37      0.00
    3    5   26      8.20      0.00
    5    5   26      5.48      0.00
    0    6   26     -1.11      0.00
    2    6   26     -0.50      0.00
    4    6   26      0.48      0.00
    1    7   26      2.26      0.00
    3    7   26      1.12      0.00
    5    7   26     -3.57      0.00
    7    7   26     -2.65      0.00
    0    8   26     -3.41      0.00
    2    8   26     -1.93      0.00
    4    8   26     -0.54      0.00
    6    8   26     -2.09      0.00
    1    9   26      8.47      0.00
    3    9   26     -0.11      0.00
    5    9   26      0.60      0.00
    7    9   26     -1.60      0.00
    9    9   26     -8.29      0.00
    0   10   26     -0.99      0.00
    2   10   26      0.04      0.00
    4   10   26     -3.23      0.00
    6   10   26      4.39      0.00
    8   10   26      2.17      0.00
    1   11   26      6.44      0.00
    3   11   26      3.50      0.00
    5   11   26      0.11      0.00
    7   11   26     -5.12      0.00
    9   11   26      1.42      0.00
   11   11   26     -1.74      0.00
    0   12   26      2.70      0.00
    2   12   26     -8.16      0.00
    4   12   26     -0.20      0.00
    6   12   26     -0.43      0.00
    8   12   26     -2.33      0.00
   10   12   26     -1.28      0.00
    1   13   26      1.17      0.00
    3   13   26      0.75      0.00
    5   13   26     -0.93      0.00
    7   13   26      2.93      0.00
    9   13   26      2.47      0.00
   11   13   26     -0.58      0.00
   13   13   26     -3.60      0.00
    0   14   26     -2.55      0.00
    2   14   26      1.25      0.00
    4   14   26     -0.85      0.00
    6   14   26      1.64      0.00
    8   14   26      5.07      0.00
   10   14   26      2.99      0.00
   12   14   26     -3.31      0.00
    1   15   26      4.15      0.00
    3   15   26      0.78      0.00
    5   15   26     -1.16      0.00
    7   15   26      2.28      0.00
    9   15   26      0.34      0.00
   11   15   26     -0.40      0.00
   13   15   26     -2.14      0.00
    0   16   26     -1.84      0.00
    2   16   26      0.91      0.00
    4   16   26      4.63      0.00
    6   16   26      4.48      0.00
    8   16   26      5.49      0.00
   10   16   26      2.70      0.00
   12   16   26      0.79      0.00
    1   17   26      4.70      0.00
    3   17   26     -1.41      0.00
    5   17   26     -1.73      0.00
    7   17   26      0.76      0.00
    9   17   26      3.72      0.00
   11   17   26      4.52      0.00
    0   18   26      2.29      0.00
    2   18   26      2.21      0.00
    4   18   26      1.04      0.00
    6   18   26      4.09      0.00
    8   18   26      1.26      0.00
    1   19   26     -0.90      0.00
    3   19   26     -0.78      0.00
    5   19   26      0.90      0.00
    7   19   26      0.19      0.00
    0   20   26      3.30      0.00
    2   20   26     -1.19      0.00
    0    1   27     25.69      0.00
    1    2   27    -10.21      0.00
    0    3   27      3.59      0.00
    2    3   27      9.40      0.00
    1    4   27     -8.80      0.00
    3    4   27      0.28      0.00
    0    5   27     -2.51      0.00
    2    5   27     -0.65      0.00
    4    5   27     11.44      0.00
    1    6   27      3.60      0.00
    3    6   27     -6.41      0.00
    5    6   27     -3.30      0.00
    0    7   27    -10.59      0.00
    2    7   27     -4.21      0.00
    4    7   27      0.01      0.00
    6    7   27      7.44      0.00
    1    8   27     -0.50      0.00
    3    8   27      0.17      0.00
    5    8   27      1.92      0.00
    7    8   27     -2.82      0.00
    0    9   27      7.85      0.00
    2    9   27     -3.49      0.00
    4    9   27     -3.75      0.00
    6    9   27      5.06      0.00
    8    9   27      3.10      0.00
    1   10   27      1.28      0.00
    3   10   27      2.03      0.00
    5   10   27     -4.98      0.00
    7   10   27     -1.43      0.00
    9   10   27     -0.19      0.00
    0   11   27     -5.92      0.00
    2   11   27      1.90      0.00
    4   11   27      0.53      0.00
    6   11   27     -0.09      0.00
    8   11   27     -0.03      0.00
   10   11   27     -0.30      0.00
    1   12   27      0.08      0.00
    3   12   27      1.66      0.00
    5   12   27      2.38      0.00
    7   12   27     -1.57      0.00
    9   12   27     -0.86      0.00
   11   12   27     -2.00      0.00
    0   13   27     -0.85      0.00
    2   13   27     -0.62      0.00
    4   13   27      2.04      0.00
    6   13   27     -3.08      0.00
    8   13   27      1.26      0.00
   10   13   27     -1.93      0.00
   12   13   27      1.40      0.00
    1   14   27      0.08      0.00
    3   14   27      2.50      0.00
    5   14   27      0.11      0.00
    7   14   27      1.89      0.00
    9   14   27     -1.04      0.00
   11   14   27      3.77      0.00
   13   14   27     -2.16      0.00
    0   15   27     -2.30      0.00
    2   15   27      2.91      0.00
    4   15   27     -1.88      0.00
    6   15   27     -1.21      0.00
    8   15   27      1.41      0.00
   10   15   27     -3.32      0.00
   12   15   27     -0.46      0.00
    1   16   27      1.32      0.00
    3   16   27     -2.18      0.00
    5   16   27      0.36      0.00
    7   16   27     -0.38      0.00
    9   16   27      1.36      0.00
   11   16   27      0.77      0.00
    0   17   27      1.93      0.00
    2   17   27     -4.02      0.00
    4   17   27     -2.17      0.00
    6   17   27      1.85      0.00
    8   17   27      0.96      0.00
   10   17   27      1.28      0.00
    1   18   27      0.72      0.00
    3   18   27      3.72      0.00
    5   18   27      5.38      0.00
    7   18   27      4.04      0.00
    9   18   27      8.52      0.00
    0   19   27     -3.50      0.00
    2   19   27     -1.60      0.00
    4   19   27      1.74      0.00
    6   19   27     -0.69      0.00
    1   20   27      1.38      0.00
    0    0   28    -13.11      0.00
    0    2   28      3.39      0.00
    2    2   28    -12.54      0.00
    1    3   28      0.45      0.00
    0    4   28     -1.07      0.00
    2    4   28      3.61      0.00
    4    4   28     -4.22      0.00
    1    5   28     -5.77      0.00
    3    5   28      3.36      0.00
    0    6   28     -6.22      0.00
    2    6   28    -11.94      0.00
    4    6   28     -6.35      0.00
    6    6   28     -5.84      0.00
    1    7   28      1.19      0.00
    3    7   28      2.83      0.00
    5    7   28     -0.38      0.00
    0    8   28     -4.83      0.00
    2    8   28      1.24      0.00
    4    8   28     -4.47      0.00
    6    8   28      0.99      0.00
    8    8   28      5.34      0.00
    1    9   28      0.21      0.00
    3    9   28     -5.16      0.00
    5    9   28      5.29      0.00
    7    9   28     -0.20      0.00
    0   10   28     -1.60      0.00
    2   10   28     -3.29      0.00
    4   10   28     -6.83      0.00
    6   10   28     -0.34      0.00
    8   10   28     -0.05      0.00
   10   10   28     -3.74      0.00
    1   11   28     -2.73      0.00
    3   11   28     -3.33      0.00
    5   11   28     -0.15      0.00
    7   11   28      5.39      0.00
    9   11   28     -4.80      0.00
    0   12   28     -0.82      0.00
    2   12   28     -2.84      0.00
    4   12   28     -0.59      0.00
    6   12   28     -6.07      0.00
    8   12   28      0.12      0.00
   10   12   28     -0.57      0.00
   12   12   28     -1.01      0.00
    1   13   28     -6.16      0.00
    3   13   28     -0.41      0.00
    5   13   28      0.25      0.00
    7   13   28     -6.69      0.00
    9   13   28     -2.25      0.00
   11   13   28      0.38      0.00
    0   14   28     -0.84      0.00
    2   14   28     -1.69      0.00
    4   14   28     -0.25      0.00
    6   14   28     -2.18      0.00
    8   14   28     -0.50      0.00
   10   14   28     -0.49      0.00
   12   14   28     -2.66      0.00
   14   14   28      2.64      0.00
    1   15   28     -2.98      0.00
    3   15   28     -0.12      0.00
    5   15   28      0.54      0.00
    7   15   28     -2.82      0.00
    9   15   28      1.25      0.00
   11   15   28     -0.70      0.00
   13   15   28     -0.13      0.00
    0   16   28     -4.69      0.00
    2   16   28      1.15      0.00
    4   16   28     -0.65      0.00
    6   16   28      1.08      0.00
    8   16   28     -3.03      0.00
   10   16   28     -0.60      0.00
   12   16   28      0.15      0.00
    1   17   28     -4.24      0.00
    3   17   28     -1.68      0.00
    5   17   28     -0.32      0.00
    7   17   28      0.51      0.00
    9   17   28     -0.23      0.00
    0   18   28      2.53      0.00
    2   18   28      1.97      0.00
    4   18   28     -1.26      0.00
    6   18   28     -2.91      0.00
    8   18   28     -1.62      0.00
    1   19   28      2.13      0.00
    3   19   28     -3.38      0.00
    5   19   28     -2.15      0.00
    0   20   28     -0.65      0.00
    0    1   29      4.06      0.00
    1    2   29      7.36      0.00
    0    3   29      5.45      0.00
    2    3   29     -4.11      0.00
    1    4   29     -4.79      0.00
    3    4   29      2.46      0.00
    0    5   29    -12.39      0.00
    2    5   29      3.25      0.00
    4    5   29     -4.18      0.00
    1    6   29     -4.44      0.00
    3    6   29     -2.37      0.00
    5    6   29      2.18      0.00
    0    7   29      1.87      0.00
    2    7   29     -1.26      0.00
    4    7   29      1.82      0.00
    6    7   29     -3.38      0.00
    1    8   29     -4.26      0.00
    3    8   29     -0.72      0.00
    5    8   29     -2.18      0.00
    7    8   29      0.45      0.00
    0    9   29     -4.99      0.00
    2    9   29     -5.49      0.00
    4    9   29     -4.70      0.00
    6    9   29     -2.36      0.00
    8    9   29     -2.20      0.00
    1   10   29     -0.63      0.00
    3   10   29     -4.76      0.00
    5   10   29     -0.79      0.00
    7   10   29     -0.32      0.00
    9   10   29      1.08      0.00
    0   11   29     -7.11      0.00
    2   11   29     -0.72      0.00
    4   11   29      1.65      0.00
    6   11   29      0.00      0.00
    8   11   29     -1.81      0.00
   10   11   29      1.35      0.00
    1   12   29     -4.41      0.00
    3   12   29      2.20      0.00
    5   12   29      0.83      0.00
    7   12   29      0.43      0.00
    9   12   29      2.28      0.00
   11   12   29      1.21      0.00
    0   13   29     -0.94      0.00
    2   13   29      1.67      0.00
    4   13   29     -0.34      0.00
    6   13   29     -3.38      0.00
    8   13   29      1.97      0.00
   10   13   29      1.49      0.00
   12   13   29      2.14      0.00
    1   14   29     -0.33      0.00
    3   14   29      1.00      0.00
    5   14   29      4.48      0.00
    7   14   29     -2.77      0.00
    9   14   29     -4.79      0.00
   11   14   29     -0.36      0.00
   13   14   29      3.24      0.00
    0   15   29      2.74      0.00
    2   15   29     -2.00      0.00
    4   15   29     -2.94      0.00
    6   15   29     -0.25      0.00
    8   15   29      0.62      0.00
   10   15   29      1.44      0.00
   12   15   29      0.58      0.00
    1   16   29      1.95      0.00
    3   16   29      0.48      0.00
    5   16   29     -2.49      0.00
    7   16   29     -0.26      0.00
    9   16   29     -3.15      0.00
   11   16   29     -1.85      0.00
    0   17   29      2.44      0.00
    2   17   29      0.04      0.00
    4   17   29     -0.61      0.00
    6   17   29      2.79      0.00
    8   17   29     -3.41      0.00
   10   17   29     -1.28      0.00
    1   18   29      2.73      0.00
    3   18   29      1.72      0.00
    5   18   29      0.19      0.00
    7   18   29     -1.76      0.00
    0   19   29     -1.14      0.00
    2   19   29      2.09      0.00
    4   19   29      4.89      0.00
    1    1   30     -7.45      0.00
    0    2   30     -0.30      0.00
    1    3   30      4.08      0.00
    3    3   30     -0.91      0.00
    0    4   30      4.34      0.00
    2    4   30     -4.14      0.00
    1    5   30     -5.42      0.00
    3    5   30      0.78      0.00
    5    5   30     -3.13      0.00
    0    6   30     -3.01      0.00
    2    6   30      1.12      0.00
    4    6   30      3.03      0.00
    1    7   30     -1.26      0.00
    3    7   30      4.74      0.00
    5    7   30     -2.52      0.00
    7    7   30     -2.71      0.00
    0    8   30     -7.71      0.00
    2    8   30     -2.78      0.00
    4    8   30      0.09      0.00
    6    8   30     -5.19      0.00
    1    9   30     -0.59      0.00
    3    9   30     -3.96      0.00
    5    9   30      2.71      0.00
    7    9   30     -0.41      0.00
    9    9   30     -0.81      0.00
    0   10   30     10.31      0.00
    2   10   30      0.74      0.00
    4   10   30     -0.26      0.00
    6   10   30      2.77      0.00
    8   10   30     -1.05      0.00
    1   11   30      1.43      0.00
    3   11   30     -2.11      0.00
    5   11   30      2.89      0.00
    7   11   30     -0.83      0.00
    9   11   30      1.75      0.00
   11   11   30      3.87      0.00
    0   12   30      1.99      0.00
    2   12   30     -0.92      0.00
    4   12   30     -3.09      0.00
    6   12   30      5.51      0.00
    8   12   30      0.09      0.00
   10   12   30      1.71      0.00
    1   13   30     -1.14      0.00
    3   13   30      3.41      0.00
    5   13   30     -4.37      0.00
    7   13   30     -0.36      0.00
    9   13   30      2.58      0.00
   11   13   30      0.40      0.00
   13   13   30     -2.68      0.00
    0   14   30     -1.43      0.00
    2   14   30     -0.68      0.00
    4   14   30      1.14      0.00
    6   14   30     -0.08      0.00
    8   14   30      0.15      0.00
   10   14   30     -1.07      0.00
   12   14   30      1.36      0.00
    1   15   30      7.98      0.00
    3   15   30     -1.95      0.00
    5   15   30     -3.51      0.00
    7   15   30      0.82      0.00
    9   15   30      1.52      0.00
   11   15   30     -4.00      0.00
    0   16   30     -0.30      0.00
    2   16   30     -1.47      0.00
    4   16   30     -3.49      0.00
    6   16   30     -0.72      0.00
    8   16   30      2.77      0.00
   10   16   30     -1.22      0.00
    1   17   30      0.50      0.00
    3   17   30      2.03      0.00
    5   17   30      2.55      0.00
    7   17   30     -1.98      0.00
    9   17   30     -3.67      0.00
    0   18   30     -6.72      0.00
    2   18   30     -1.37      0.00
    4   18   30      0.38      0.00
    6   18   30     -2.85      0.00
    8   18   30     -2.92      0.00
    1   19   30      1.48      0.00
    3   19   30      0.53      0.00
    5   19   30     -4.12      0.00
    0    1   31     -4.23      0.00
    1    2   31     -3.44      0.00
    0    3   31     14.54      0.00
    2    3   31     -2.26      0.00
    1    4   31      0.22      0.00
    3    4   31     -5.75      0.00
    0    5   31     -3.64      0.00
    2    5   31      1.57      0.00
    4    5   31      6.20      0.00
    1    6   31      6.34      0.00
    3    6   31      5.63      0.00
    5    6   31      2.20      0.00
    0    7   31      6.43      0.00
    2    7   31     -4.56      0.00
    4    7   31     -3.67      0.00
    6    7   31      0.70      0.00
    1    8   31     -2.88      0.00
    3    8   31     -1.31      0.00
    5    8   31     -2.24      0.00
    7    8   31     -0.15      0.00
    0    9   31      8.57      0.00
    2    9   31      5.57      0.00
    4    9   31     -1.73      0.00
    6    9   31      3.48      0.00
    8    9   31      1.85      0.00
    1   10   31     -4.58      0.00
    3   10   31      0.97      0.00
    5   10   31     -0.41      0.00
    7   10   31     -6.35      0.00
    9   10   31      1.07      0.00
    0   11   31      4.29      0.00
    2   11   31      7.88      0.00
    4   11   31     -0.36      0.00
    6   11   31      1.51      0.00
    8   11   31      1.91      0.00
   10   11   31      0.18      0.00
    1   12   31      2.21      0.00
    3   12   31      1.19      0.00
    5   12   31     -1.38      0.00
    7   12   31     -2.64      0.00
    9   12   31     -2.86      0.00
   11   12   31     -0.05      0.00
    0   13   31     -4.43      0.00
    2   13   31     -1.32      0.00
    4   13   31      0.30      0.00
    6   13   31     -2.49      0.00
    8   13   31      3.34      0.00
   10   13   31     -1.74      0.00
   12   13   31     -0.71      0.00
    1   14   31      0.49      0.00
    3   14   31      0.16      0.00
    5   14   31     -1.51      0.00
    7   14   31     -1.09      0.00
    9   14   31     -0.02      0.00
   11   14   31      4.05      0.00
   13   14   31      0.49      0.00
    0   15   31     -3.46      0.00
    2   15   31     -1.76      0.00
    4   15   31     -0.37      0.00
    6   15   31     -2.51      0.00
    8   15   31      0.04      0.00
   10   15   31     -4.98      0.00
   12   15   31      0.40      0.00
    1   16   31      0.72      0.00
    3   16   31      0.67      0.00
    5   16   31     -2.07      0.00
    7   16   31     -2.40      0.00
    9   16   31      3.23      0.00
   11   16   31     -1.32      0.00
    0   17   31      2.61      0.00
    2   17   31     -2.77      0.00
    4   17   31     -0.29      0.00
    6   17   31      1.54      0.00
    8   17   31     -0.23      0.00
    1   18   31      3.31      0.00
    3   18   31     -2.85      0.00
    5   18   31     -0.58      0.00
    7   18   31      2.50      0.00
    0   19   31     -3.89      0.00
    2   19   31      0.70      0.00
    4   19   31      3.10      0.00
    0    0   32    -19.68      0.00
    0    2   32     -0.72      0.00
    2    2   32     -9.77      0.00
    1    3   32     -5.68      0.00
    0    4   32      7.56      0.00
    2    4   32      1.66      0.00
    4    4   32      6.43      0.00
    1    5   32     -2.45      0.00
    3    5   32      1.63      0.00
    0    6   32      4.39      0.00
    2    6   32      2.46      0.00
    4    6   32     -5.76      0.00
    6    6   32      1.87      0.00
    1    7   32     -0.23      0.00
    3    7   32      2.08      0.00
    5    7   32     -3.07      0.00
    0    8   32     -6.13      0.00
    2    8   32      2.25      0.00
    4    8   32      5.52      0.00
    6    8   32      1.55      0.00
    8    8   32      2.13      0.00
    1    9   32      2.39      0.00
    3    9   32     -0.41      0.00
    5    9   32     -1.90      0.00
    7    9   32      0.63      0.00
    0   10   32     -4.35      0.00
    2   10   32     -2.14      0.00
    4   10   32     -5.92      0.00
    6   10   32     -0.72      0.00
    8   10   32      3.40      0.00
   10   10   32     -2.28      0.00
    1   11   32      4.43      0.00
    3   11   32     -2.28      0.00
    5   11   32      2.81      0.00
    7   11   32     -2.90      0.00
    9   11   32     -2.07      0.00
    0   12   32     -2.19      0.00
    2   12   32     -6.24      0.00
    4   12   32      0.56      0.00
    6   12   32      0.24      0.00
    8   12   32     -1.71      0.00
   10   12   32     -0.53      0.00
   12   12   32     -0.13      0.00
    1   13   32      0.46      0.00
    3   13   32      1.26      0.00
    5   13   32      0.12      0.00
    7   13   32      1.07      0.00
    9   13   32     -3.19      0.00
   11   13   32      3.90      0.00
    0   14   32     -8.91      0.00
    2   14   32      0.85      0.00
    4   14   32     -0.79      0.00
    6   14   32     -2.26      0.00
    8   14   32      1.95      0.00
   10   14   32      2.73      0.00
   12   14   32     -0.47      0.00
    1   15   32      0.08      0.00
    3   15   32      3.66      0.00
    5   15   32      6.85      0.00
    7   15   32     -1.67      0.00
    9   15   32      3.19      0.00
   11   15   32     -2.02      0.00
    0   16   32      1.79      0.00
    2   16   32     -3.34      0.00
    4   16   32     -4.41      0.00
    6   16   32     -0.38      0.00
    8   16   32      0.76      0.00
   10   16   32     -3.19      0.00
    1   17   32      0.41      0.00
    3   17   32     -4.25      0.00
    5   17   32      0.75      0.00
    7   17   32      6.16      0.00
    9   17   32     -2.26      0.00
    0   18   32     -3.27      0.00
    2   18   32     -2.68      0.00
    4   18   32      2.04      0.00
    6   18   32      0.12      0.00
    1   19   32     -1.23      0.00
    3   19   32      1.61      0.00
    0    1   33      8.69      0.00
    1    2   33      2.62      0.00
    0    3   33      4.34      0.00
    2    3   33      2.58      0.00
    1    4   33      0.48      0.00
    3    4   33      1.63      0.00
    0    5   33      0.69      0.00
    2    5   33      6.67      0.00
    4    5   33      0.65      0.00
    1    6   33    -10.01      0.00
    3    6   33     -1.35      0.00
    5    6   33     -1.60      0.00
    0    7   33     10.40      0.00
    2    7   33      1.90      0.00
    4    7   33      0.90      0.00
    6    7   33     -0.68      0.00
    1    8   33      7.02      0.00
    3    8   33     -0.44      0.00
    5    8   33      1.68      0.00
    7    8   33      1.44      0.00
    0    9   33     -2.31      0.00
    2    9   33     -1.57      0.00
    4    9   33     -3.29      0.00
    6    9   33      1.22      0.00
    8    9   33      1.28      0.00
    1   10   33      2.67      0.00
    3   10   33      2.05      0.00
    5   10   33     -1.32      0.00
    7   10   33      4.56      0.00
    9   10   33     -1.09      0.00
    0   11   33     -4.49      0.00
    2   11   33     -2.23      0.00
    4   11   33      1.38      0.00
    6   11   33     -1.60      0.00
    8   11   33      1.19      0.00
   10   11   33     -1.12      0.00
    1   12   33      5.09      0.00
    3   12   33      0.06      0.00
    5   12   33      6.08      0.00
    7   12   33     -0.55      0.00
    9   12   33      2.82      0.00
   11   12   33     -2.42      0.00
    0   13   33     -1.67      0.00
    2   13   33      1.32      0.00
    4   13   33     -0.58      0.00
    6   13   33     -2.58      0.00
    8   13   33     -0.44      0.00
   10   13   33      3.43      0.00
   12   13   33      1.79      0.00
    1   14   33     -1.13      0.00
    3   14   33      2.54      0.00
    5   14   33      2.44      0.00
    7   14   33     -1.30      0.00
    9   14   33     -3.12      0.00
   11   14   33     -0.37      0.00
   13   14   33     -1.26      0.00
    0   15   33     -0.05      0.00
    2   15   33     -2.56      0.00
    4   15   33     -1.88      0.00
    6   15   33      0.78      0.00
    8   15   33     -1.50      0.00
   10   15   33      2.05      0.00
   12   15   33      4.86      0.00
    1   16   33     -0.65      0.00
    3   16   33      3.58      0.00
    5   16   33     -1.33      0.00
    7   16   33      0.30      0.00
    9   16   33     -2.85      0.00
    0   17   33     -1.07      0.00
    2   17   33     -0.47      0.00
    4   17   33      0.67      0.00
    6   17   33     -0.65      0.00
    8   17   33     -2.71      0.00
    1   18   33      4.16      0.00
    3   18   33      1.17      0.00
    5   18   33      2.04      0.00
    0   19   33      1.37      0.00
    2   19   33      4.12      0.00
    1    1   34      3.04      0.00
    0    2   34      7.87      0.00
    1    3   34      4.43      0.00
    3    3   34      7.30      0.00
    0    4   34     -5.45      0.00
    2    4   34      0.13      0.00
    1    5   34     -4.20      0.00
    3    5   34      1.56      0.00
    5    5   34      2.16      0.00
    0    6   34      1.37      0.00
    2    6   34     -5.10      0.00
    4    6   34     -0.32      0.00
    1    7   34     -0.50      0.00
    3    7   34      7.96      0.00
    5    7   34      4.21      0.00
    7    7   34      4.60      0.00
    0    8   34     -2.62      0.00
    2    8   34     -2.39      0.00
    4    8   34      1.51      0.00
    6    8   34      0.09      0.00
    1    9   34     -2.83      0.00
    3    9   34     -2.40      0.00
    5    9   34      2.68      0.00
    7    9   34     -1.55      0.00
    9    9   34      1.12      0.00
    0   10   34      6.68      0.00
    2   10   34     -0.29      0.00
    4   10   34      1.35      0.00
    6   10   34     -0.13      0.00
    8   10   34     -1.09      0.00
    1   11   34     -6.21      0.00
    3   11   34     -0.89      0.00
    5   11   34      0.89      0.00
    7   11   34      1.09      0.00
    9   11   34      0.03      0.00
   11   11   34      1.27      0.00
    0   12   34     -2.83      0.00
    2   12   34      3.24      0.00
    4   12   34     -1.75      0.00
    6   12   34      3.77      0.00
    8   12   34     -1.31      0.00
   10   12   34     -1.73      0.00
    1   13   34     -2.58      0.00
    3   13   34     -2.13      0.00
    5   13   34     -0.24      0.00
    7   13   34     -1.89      0.00
    9   13   34      2.13      0.00
   11   13   34      2.40      0.00
   13   13   34     -4.16      0.00
    0   14   34      4.19      0.00
    2   14   34     -0.45      0.00
    4   14   34     -3.11      0.00
    6   14   34      1.50      0.00
    8   14   34     -3.16      0.00
   10   14   34     -5.64      0.00
   12   14   34     -2.67      0.00
    1   15   34     -0.47      0.00
    3   15   34      0.52      0.00
    5   15   34     -3.00      0.00
    7   15   34     -0.87      0.00
    9   15   34      3.04      0.00
   11   15   34     -0.83      0.00
    0   16   34     -3.43      0.00
    2   16   34      0.55      0.00
    4   16   34     -0.52      0.00
    6   16   34     -4.01      0.00
    8   16   34      0.53      0.00
   10   16   34     -0.23      0.00
    1   17   34      1.39      0.00
    3   17   34     -2.61      0.00
    5   17   34     -2.29      0.00
    7   17   34      0.35      0.00
    0   18   34     -0.44      0.00
    2   18   34     -1.58      0.00
    4   18   34      4.34      0.00
    6   18   34      3.14      0.00
    1   19   34      0.74      0.00
    0    1   35     -3.87      0.00
    1    2   35      0.89      0.00
    0    3   35      7.57      0.00
    2    3   35     -2.46      0.00
    1    4   35      2.15      0.00
    3    4   35     -4.66      0.00
    0    5   35     -3.18      0.00
    2    5   35     -4.01      0.00
    4    5   35      2.17      0.00
    1    6   35      2.07      0.00
    3    6   35      5.09      0.00
    5    6   35      4.68      0.00
    0    7   35      2.36      0.00
    2    7   35     -2.33      0.00
    4    7   35     -1.32      0.00
    6    7   35     -1.01      0.00
    1    8   35     -0.34      0.00
    3    8   35      0.88      0.00
    5    8   35     -4.01      0.00
    7    8   35     -1.40      0.00
    0    9   35      3.52      0.00
    2    9   35     -2.61      0.00
    4    9   35     -0.78      0.00
    6    9   35      6.05      0.00
    8    9   35     -0.50      0.00
    1   10   35      3.21      0.00
    3   10   35      3.30      0.00
    5   10   35     -1.00      0.00
    7   10   35     -2.57      0.00
    9   10   35     -0.91      0.00
    0   11   35     -1.75      0.00
    2   11   35      5.53      0.00
    4   11   35     -1.53      0.00
    6   11   35      1.09      0.00
    8   11   35      3.31      0.00
   10   11   35     -1.01      0.00
    1   12   35      5.05      0.00
    3   12   35      0.40      0.00
    5   12   35      0.94      0.00
    7   12   35     -1.21      0.00
    9   12   35      1.61      0.00
   11   12   35     -1.60      0.00
    0   13   35     -4.11      0.00
    2   13   35     -1.69      0.00
    4   13   35     -1.22      0.00
    6   13   35     -1.35      0.00
    8   13   35      4.35      0.00
   10   13   35     -2.50      0.00
   12   13   35     -1.69      0.00
    1   14   35      1.78      0.00
    3   14   35      2.20      0.00
    5   14   35     -1.05      0.00
    7   14   35     -2.35      0.00
    9   14   35      1.85      0.00
   11   14   35      5.89      0.00
    0   15   35      0.19      0.00
    2   15   35     -1.58      0.00
    4   15   35     -0.45      0.00
    6   15   35     -2.70      0.00
    8   15   35      1.85      0.00
   10   15   35      0.73      0.00
    1   16   35      3.96      0.00
    3   16   35     -2.51      0.00
    5   16   35     -1.58      0.00
    7   16   35      1.58      0.00
    9   16   35      5.77      0.00
    0   17   35     -5.22      0.00
    2   17   35      0.67      0.00
    4   17   35      0.52      0.00
    6   17   35      1.85      0.00
    8   17   35      0.07      0.00
    1   18   35      3.48      0.00
    3   18   35     -2.70      0.00
    5   18   35     -2.12      0.00
    0    0   36    -13.40      0.00
    0    2   36     -4.23      0.00
    2    2   36     -9.23      0.00
    1    3   36      0.91      0.00
    0    4   36      9.85      0.00
    2    4   36     -0.23      0.00
    4    4   36      0.55      0.00
    1    5   36     -6.75      0.00
    3    5   36      3.78      0.00
    0    6   36      5.10      0.00
    2    6   36      9.62      0.00
    4    6   36      2.58      0.00
    6    6   36      4.97      0.00
    1    7   36     -0.62      0.00
    3    7   36      2.81      0.00
    5    7   36     -7.98      0.00
    0    8   36     -5.82      0.00
    2    8   36     -1.66      0.00
    4    8   36      3.00      0.00
    6    8   36      2.40      0.00
    8    8   36      1.42      0.00
    1    9   36      1.30      0.00
    3    9   36     -2.00      0.00
    5    9   36      1.11      0.00
    7    9   36      4.06      0.00
    0   10   36     -4.00      0.00
    2   10   36     -2.50      0.00
    4   10   36     -0.93      0.00
    6   10   36     -5.54      0.00
    8   10   36      0.89      0.00
   10   10   36      7.06      0.00
    1   11   36      0.38      0.00
    3   11   36     -0.80      0.00
    5   11   36      3.97      0.00
    7   11   36     -0.55      0.00
    9   11   36     -1.22      0.00
    0   12   36     -2.19      0.00
    2   12   36      1.48      0.00
    4   12   36      0.10      0.00
    6   12   36      1.31      0.00
    8   12   36      3.21      0.00
   10   12   36      0.43      0.00
   12   12   36      2.40      0.00
    1   13   36     -2.84      0.00
    3   13   36      1.56      0.00
    5   13   36      3.23      0.00
    7   13   36      0.92      0.00
    9   13   36     -2.18      0.00
   11   13   36      2.09      0.00
    0   14   36     -5.73      0.00
    2   14   36      1.01      0.00
    4   14   36     -0.34      0.00
    6   14   36      6.21      0.00
    8   14   36      4.12      0.00
   10   14   36      3.48      0.00
   12   14   36      4.19      0.00
    1   15   36      2.73      0.00
    3   15   36     -4.84      0.00
    5   15   36      2.94      0.00
    7   15   36      1.95      0.00
    9   15   36     -2.56      0.00
   11   15   36     -7.48      0.00
    0   16   36     -1.43      0.00
    2   16   36     -4.60      0.00
    4   16   36      1.55      0.00
    6   16   36     -4.67      0.00
    8   16   36     -0.32      0.00
    1   17   36      1.69      0.00
    3   17   36     -2.87      0.00
    5   17   36     -3.99      0.00
    7   17   36     -1.47      0.00
    0   18   36     -1.36      0.00
    2   18   36     -3.90      0.00
    4   18   36     -6.61      0.00
    0    1   37      2.47      0.00
    1    2   37      2.13      0.00
    0    3   37     -1.46      0.00
    2    3   37     -0.94      0.00
    1    4   37      5.20      0.00
    3    4   37      8.59      0.00
    0    5   37      0.12      0.00
    2    5   37      0.68      0.00
    4    5   37      1.21      0.00
    1    6   37     -1.38      0.00
    3    6   37      1.96      0.00
    5    6   37      3.10      0.00
    0    7   37      2.20      0.00
    2    7   37     -1.66      0.00
    4    7   37     -7.51      0.00
    6    7   37     -0.08      0.00
    1    8   37      5.39      0.00
    3    8   37      7.71      0.00
    5    8   37      2.26      0.00
    7    8   37      2.41      0.00
    0    9   37      2.17      0.00
    2    9   37     -4.25      0.00
    4    9   37     -2.43      0.00
    6    9   37      1.08      0.00
    8    9   37      0.98      0.00
    1   10   37      4.06      0.00
    3   10   37     -5.84      0.00
    5   10   37     -0.61      0.00
    7   10   37      2.67      0.00
    9   10   37      0.20      0.00
    0   11   37      3.27      0.00
    2   11   37      0.54      0.00
    4   11   37      2.66      0.00
    6   11   37     -2.11      0.00
    8   11   37     -1.08      0.00
   10   11   37     -2.01      0.00
    1   12   37      4.61      0.00
    3   12   37     -0.62      0.00
    5   12   37      2.92      0.00
    7   12   37      0.72      0.00
    9   12   37     -0.75      0.00
   11   12   37     -2.31      0.00
    0   13   37      2.54      0.00
    2   13   37      6.93      0.00
    4   13   37      0.95      0.00
    6   13   37     -1.12      0.00
    8   13   37     -0.84      0.00
   10   13   37     -2.35      0.00
   12   13   37      0.60      0.00
    1   14   37     -1.72      0.00
    3   14   37      0.70      0.00
    5   14   37      0.20      0.00
    7   14   37     -1.63      0.00
    9   14   37      1.22      0.00
   11   14   37      2.53      0.00
    0   15   37      3.46      0.00
    2   15   37      6.05      0.00
    4   15   37      4.50      0.00
    6   15   37     -1.18      0.00
    8   15   37     -3.56      0.00
   10   15   37      1.28      0.00
    1   16   37      0.72      0.00
    3   16   37      1.06      0.00
    5   16   37      1.01      0.00
    7   16   37      1.24      0.00
    9   16   37      1.30      0.00
    0   17   37      3.36      0.00
    2   17   37      1.06      0.00
    4   17   37     -1.06      0.00
    6   17   37      0.91      0.00
    1   18   37      0.83      0.00
    3   18   37      4.70      0.00
    1    1   38      3.63      0.00
    0    2   38      3.98      0.00
    1    3   38      4.17      0.00
    3    3   38      5.68      0.00
    0    4   38     -2.98      0.00
    2    4   38      0.30      0.00
    1    5   38     -2.53      0.00
    3    5   38      1.69      0.00
    5    5   38      0.34      0.00
    0    6   38     -1.32      0.00
    2    6   38     -8.61      0.00
    4    6   38     -2.11      0.00
    1    7   38     -4.51      0.00
    3    7   38      0.59      0.00
    5    7   38      4.08      0.00
    7    7   38     -5.05      0.00
    0    8   38      8.30      0.00
    2    8   38      6.51      0.00
    4    8   38      0.41      0.00
    6    8   38     -5.51      0.00
    1    9   38     -5.44      0.00
    3    9   38     -2.18      0.00
    5    9   38     -5.43      0.00
    7    9   38      3.02      0.00
    9    9   38     -8.55      0.00
    0   10   38      1.82      0.00
    2   10   38     -0.69      0.00
    4   10   38      3.25      0.00
    6   10   38     -0.95      0.00
    8   10   38      2.25      0.00
    1   11   38     -2.44      0.00
    3   11   38     -1.45      0.00
    5   11   38     -2.11      0.00
    7   11   38    -10.30      0.00
    9   11   38      1.77      0.00
   11   11   38     -0.82      0.00
    0   12   38     -3.12      0.00
    2   12   38      1.89      0.00
    4   12   38      0.76      0.00
    6   12   38      4.49      0.00
    8   12   38     -4.22      0.00
   10   12   38     -5.38      0.00
    1   13   38      2.34      0.00
    3   13   38      2.59      0.00
    5   13   38     -3.30      0.00
    7   13   38     -2.17      0.00
    9   13   38      1.10      0.00
   11   13   38      3.47      0.00
    0   14   38     -6.27      0.00
    2   14   38      1.72      0.00
    4   14   38      1.04      0.00
    6   14   38      3.03      0.00
    8   14   38     -4.80      0.00
   10   14   38     -3.34      0.00
    1   15   38      0.81      0.00
    3   15   38      0.80      0.00
    5   15   38      4.35      0.00
    7   15   38      4.73      0.00
    9   15   38      0.94      0.00
    0   16   38     -3.62      0.00
    2   16   38     -4.70      0.00
    4   16   38      0.32      0.00
    6   16   38      0.29      0.00
    8   16   38      3.95      0.00
    1   17   38      0.36      0.00
    3   17   38      0.37      0.00
    5   17   38      3.52      0.00
    7   17   38     -1.58      0.00
    0   18   38     -3.97      0.00
    2   18   38     -2.53      0.00
    0    1   39      0.65      0.00
    1    2   39     -0.30      0.00
    0    3   39     -2.04      0.00
    2    3   39     -3.05      0.00
    1    4   39      4.06      0.00
    3    4   39     -2.90      0.00
    0    5   39      0.29      0.00
    2    5   39     -3.83      0.00
    4    5   39      0.80      0.00
    1    6   39     -0.05      0.00
    3    6   39     -2.08      0.00
    5    6   39     -2.30      0.00
    0    7   39      1.31      0.00
    2    7   39      0.74      0.00
    4    7   39      2.61      0.00
    6    7   39      6.31      0.00
    1    8   39     -2.82      0.00
    3    8   39      1.20      0.00
    5    8   39     -4.21      0.00
    7    8   39     -1.95      0.00
    0    9   39     -1.63      0.00
    2    9   39     -0.81      0.00
    4    9   39      1.67      0.00
    6    9   39      1.48      0.00
    8    9   39     -3.17      0.00
    1   10   39      1.33      0.00
    3   10   39     -1.47      0.00
    5   10   39     -3.57      0.00
    7   10   39      3.13      0.00
    9   10   39     -2.76      0.00
    0   11   39     -0.64      0.00
    2   11   39     -0.06      0.00
    4   11   39     -0.18      0.00
    6   11   39     -0.45      0.00
    8   11   39      0.49      0.00
   10   11   39     -2.90      0.00
    1   12   39     -2.79      0.00
    3   12   39     -3.69      0.00
    5   12   39      5.55      0.00
    7   12   39     -3.27      0.00
    9   12   39      3.96      0.00
   11   12   39     -1.31      0.00
    0   13   39      1.97      0.00
    2   13   39     -0.40      0.00
    4   13   39     -0.03      0.00
    6   13   39     -2.80      0.00
    8   13   39      4.43      0.00
   10   13   39      1.09      0.00
   12   13   39     -4.20      0.00
    1   14   39      0.78      0.00
    3   14   39     -0.81      0.00
    5   14   39     -0.65      0.00
    7   14   39      1.12      0.00
    9   14   39     -2.66      0.00
   11   14   39      3.67      0.00
    0   15   39     -6.76      0.00
    2   15   39      3.58      0.00
    4   15   39     -4.24      0.00
    6   15   39     -0.07      0.00
    8   15   39      2.26      0.00
   10   15   39      3.53      0.00
    1   16   39      4.04      0.00
    3   16   39     -0.14      0.00
    5   16   39     -1.07      0.00
    7   16   39      0.41      0.00
    0   17   39     -6.73      0.00
    2   17   39     -8.15      0.00
    4   17   39      0.97      0.00
    6   17   39     -0.13      0.00
    1   18   39      2.72      0.00
    0    0   40     -7.61      0.00
    0    2   40      0.76      0.00
    2    2   40     -4.57      0.00
    1    3   40      4.22      0.00
    0    4   40      5.81      0.00
    2    4   40      1.88      0.00
    4    4   40     -9.00      0.00
    1    5   40     -5.22      0.00
    3    5   40      3.70      0.00
    0    6   40      2.40      0.00
    2    6   40      1.37      0.00
    4    6   40      6.14      0.00
    6    6   40      4.35      0.00
    1    7   40      1.02      0.00
    3    7   40      0.75      0.00
    5    7   40     -2.52      0.00
    0    8   40     -9.89      0.00
    2    8   40     -4.84      0.00
    4    8   40     -0.40      0.00
    6    8   40     -0.99      0.00
    8    8   40     -4.52      0.00
    1    9   40      1.72      0.00
    3    9   40      1.72      0.00
    5    9   40     -1.11      0.00
    7    9   40      1.48      0.00
    0   10   40     -9.00      0.00
    2   10   40     -4.04      0.00
    4   10   40     -0.69      0.00
    6   10   40      0.10      0.00
    8   10   40      1.49      0.00
   10   10   40     -0.85      0.00
    1   11   40     -0.76      0.00
    3   11   40     -0.20      0.00
    5   11   40     -0.77      0.00
    7   11   40      0.28      0.00
    9   11   40      6.13      0.00
    0   12   40     -0.54      0.00
    2   12   40     -1.46      0.00
    4   12   40     -2.07      0.00
    6   12   40     -1.81      0.00
    8   12   40      1.03      0.00
   10   12   40      1.24      0.00
   12   12   40     -1.92      0.00
    1   13   40     -1.72      0.00
    3   13   40     -3.20      0.00
    5   13   40      4.30      0.00
    7   13   40      5.12      0.00
    9   13   40     -3.34      0.00
   11   13   40     -0.86      0.00
    0   14   40     -7.08      0.00
    2   14   40      1.11      0.00
    4   14   40     -0.38      0.00
    6   14   40     -2.86      0.00
    8   14   40     -0.73      0.00
   10   14   40      0.13      0.00
    1   15   40     -0.82      0.00
    3   15   40     -3.03      0.00
    5   15   40      2.54      0.00
    7   15   40     -0.82      0.00
    9   15   40     -2.33      0.00
    0   16   40     -2.21      0.00
    2   16   40      0.49      0.00
    4   16   40     -1.04      0.00
    6   16   40     -0.87      0.00
    8   16   40     -0.51      0.00
    1   17   40     -1.67      0.00
    3   17   40     -5.48      0.00
    5   17   40     -1.62      0.00
    0    1   41      1.48      0.00
    1    2   41     -4.39      0.00
    0    3   41     -3.61      0.00
    2    3   41     -5.64      0.00
    1    4   41     -1.29      0.00
    3    4   41     -0.53      0.00
    0    5   41     -4.08      0.00
    2    5   41      5.78      0.00
    4    5   41      0.46      0.00
    1    6   41     -1.96      0.00
    3    6   41      4.43      0.00
    5    6   41     -2.18      0.00
    0    7   41     14.83      0.00
    2    7   41      2.18      0.00
    4    7   41     -1.01      0.00
    6    7   41      0.78      0.00
    1    8   41     -1.84      0.00
    3    8   41     -1.33      0.00
    5    8   41      7.31      0.00
    7    8   41      2.27      0.00
    0    9   41      8.38      0.00
    2    9   41      1.63      0.00
    4    9   41     -0.77      0.00
    6    9   41      4.12      0.00
    8    9   41      1.43      0.00
    1   10   41      0.82      0.00
    3   10   41     -4.84      0.00
    5   10   41     -2.79      0.00
    7   10   41      2.83      0.00
    9   10   41     -3.12      0.00
    0   11   41      3.35      0.00
    2   11   41     -1.08      0.00
    4   11   41     -0.20      0.00
    6   11   41     -4.20      0.00
    8   11   41      1.64      0.00
   10   11   41     -0.14      0.00
    1   12   41      5.63      0.00
    3   12   41      0.83      0.00
    5   12   41      1.77      0.00
    7   12   41      0.75      0.00
    9   12   41     -1.62      0.00
   11   12   41     -5.27      0.00
    0   13   41     -6.58      0.00
    2   13   41      2.13      0.00
    4   13   41      3.17      0.00
    6   13   41     -3.98      0.00
    8   13   41     -2.08      0.00
   10   13   41     -1.46      0.00
   12   13   41      1.51      0.00
    1   14   41      4.24      0.00
    3   14   41      0.97      0.00
    5   14   41      1.64      0.00
    7   14   41     -1.17      0.00
    9   14   41      2.97      0.00
    0   15   41      1.02      0.00
    2   15   41      2.72      0.00
    4   15   41      0.32      0.00
    6   15   41      3.46      0.00
    8   15   41     -2.31      0.00
    1   16   41      5.27      0.00
    3   16   41      4.11      0.00
    5   16   41     -2.72      0.00
    7   16   41      0.17      0.00
    0   17   41      0.04      0.00
    2   17   41      1.09      0.00
    4   17   41     -3.69      0.00
    1    1   42     -0.90      0.00
    0    2   42     -1.45      0.00
    1    3   42      2.68      0.00
    3    3   42     -2.07      0.00
    0    4   42     -0.16      0.00
    2    4   42     -1.95      0.00
    1    5   42      2.04      0.00
    3    5   42      3.34      0.00
    5    5   42     -1.91      0.00
    0    6   42     -4.67      0.00
    2    6   42     -4.25      0.00
    4    6   42     -1.81      0.00
    1    7   42      3.59      0.00
    3    7   42     -1.86      0.00
    5    7   42     -0.55      0.00
    7    7   42     -0.45      0.00
    0    8   42      9.61      0.00
    2    8   42      2.28      0.00
    4    8   42      1.45      0.00
    6    8   42     -1.51      0.00
    1    9   42      4.24      0.00
    3    9   42      5.23      0.00
    5    9   42      2.37      0.00
    7    9   42      0.13      0.00
    9    9   42      0.45      0.00
    0   10   42     -6.72      0.00
    2   10   42      0.43      0.00
    4   10   42      0.16      0.00
    6   10   42     -3.39      0.00
    8   10   42     -0.54      0.00
    1   11   42      1.59      0.00
    3   11   42      3.38      0.00
    5   11   42     -3.84      0.00
    7   11   42      0.42      0.00
    9   11   42     -2.44      0.00
   11   11   42      2.70      0.00
    0   12   42     -0.69      0.00
    2   12   42      2.43      0.00
    4   12   42      0.05      0.00
    6   12   42     -2.40      0.00
    8   12   42     -1.37      0.00
   10   12   42     -2.23      0.00
    1   13   42      4.44      0.00
    3   13   42     -1.92      0.00
    5   13   42     -0.30      0.00
    7   13   42     -2.44      0.00
    9   13   42      2.25      0.00
   11   13   42     -0.98      0.00
    0   14   42      0.93      0.00
    2   14   42      0.58      0.00
    4   14   42     -1.14      0.00
    6   14   42      2.50      0.00
    8   14   42      0.00      0.00
   10   14   42     -2.67      0.00
    1   15   42      1.56      0.00
    3   15   42      1.11      0.00
    5   15   42      2.23      0.00
    7   15   42     -1.89      0.00
    9   15   42     -4.84      0.00
    0   16   42     -2.38      0.00
    2   16   42      1.77      0.00
    4   16   42      4.15      0.00
    6   16   42      1.45      0.00
    1   17   42      1.84      0.00
    3   17   42      1.66      0.00
    0    1   43      7.77      0.00
    1    2   43     -2.03      0.00
    0    3   43      0.16      0.00
    2    3   43      2.50      0.00
    1    4   43      1.08      0.00
    3    4   43     -0.37      0.00
    0    5   43     -4.43      0.00
    2    5   43     -1.98      0.00
    4    5   43     -1.21      0.00
    1    6   43     -4.54      0.00
    3    6   43      0.51      0.00
    5    6   43     -2.44      0.00
    0    7   43     -8.58      0.00
    2    7   43     -2.96      0.00
    4    7   43      2.72      0.00
    6    7   43      0.93      0.00
    1    8   43      6.22      0.00
    3    8   43      3.97      0.00
    5    8   43     -0.67      0.00
    7    8   43      0.68      0.00
    0    9   43     -0.86      0.00
    2    9   43     -3.08      0.00
    4    9   43     -0.37      0.00
    6    9   43      1.80      0.00
    8    9   43     -0.19      0.00
    1   10   43      1.53      0.00
    3   10   43     -3.55      0.00
    5   10   43      2.86      0.00
    7   10   43      0.84      0.00
    9   10   43      0.26      0.00
    0   11   43     -0.31      0.00
    2   11   43     -2.62      0.00
    4   11   43      0.82      0.00
    6   11   43      0.25      0.00
    8   11   43     -0.29      0.00
   10   11   43      0.85      0.00
    1   12   43     -2.06      0.00
    3   12   43     -4.52      0.00
    5   12   43     -0.83      0.00
    7   12   43     -1.40      0.00
    9   12   43      0.64      0.00
   11   12   43      3.27      0.00
    0   13   43      4.87      0.00
    2   13   43      2.63      0.00
    4   13   43      0.10      0.00
    6   13   43     -1.77      0.00
    8   13   43      2.33      0.00
   10   13   43     -0.11      0.00
    1   14   43     -0.91      0.00
    3   14   43      0.43      0.00
    5   14   43     -1.48      0.00
    7   14   43     -4.28      0.00
    9   14   43     -2.20      0.00
    0   15   43     -2.67      0.00
    2   15   43      4.96      0.00
    4   15   43      2.19      0.00
    6   15   43     -1.08      0.00
    8   15   43      0.61      0.00
    1   16   43      1.56      0.00
    3   16   43     -2.80      0.00
    5   16   43     -0.42      0.00
    0   17   43     -1.19      0.00
    2   17   43      0.86      0.00
    0    0   44     -0.77      0.00
    0    2   44      3.82      0.00
    2    2   44      5.03      0.00
    1    3   44     -1.81      0.00
    0    4   44      4.97      0.00
    2    4   44     -1.00      0.00
    4    4   44     -2.51      0.00
    1    5   44     -1.18      0.00
    3    5   44     -0.84      0.00
    0    6   44     -4.54      0.00
    2    6   44     -0.72      0.00
    4    6   44      0.15      0.00
    6    6   44      1.56      0.00
    1    7   44     -0.72      0.00
    3    7   44      0.54      0.00
    5    7   44     -6.93      0.00
    0    8   44     -5.16      0.00
    2    8   44     -2.97      0.00
    4    8   44     -1.32      0.00
    6    8   44     -3.02      0.00
    8    8   44     -2.17      0.00
    1    9   44     -0.32      0.00
    3    9   44     -4.70      0.00
    5    9   44     -0.17      0.00
    7    9   44      0.45      0.00
    0   10   44      0.08      0.00
    2   10   44      0.54      0.00
    4   10   44      1.51      0.00
    6   10   44      1.60      0.00
    8   10   44      0.41      0.00
   10   10   44      2.85      0.00
    1   11   44     -7.44      0.00
    3   11   44      0.26      0.00
    5   11   44      1.53      0.00
    7   11   44     -1.06      0.00
    9   11   44     -0.44      0.00
    0   12   44     -1.30      0.00
    2   12   44     -1.42      0.00
    4   12   44      0.13      0.00
    6   12   44     -1.72      0.00
    8   12   44      1.42      0.00
   10   12   44      2.23      0.00
   12   12   44      2.26      0.00
    1   13   44     -2.00      0.00
    3   13   44     -0.62      0.00
    5   13   44     -1.11      0.00
    7   13   44      1.59      0.00
    9   13   44      1.71      0.00
   11   13   44     -3.45      0.00
    0   14   44     -6.47      0.00
    2   14   44      0.76      0.00
    4   14   44     -1.94      0.00
    6   14   44     -3.08      0.00
    8   14   44      1.51      0.00
    1   15   44      3.01      0.00
    3   15   44     -7.42      0.00
    5   15   44      0.30      0.00
    7   15   44      4.87      0.00
    0   16   44      2.57      0.00
    2   16   44     -0.90      0.00
    4   16   44      0.41      0.00
    6   16   44      0.88      0.00
    1   17   44     -1.71      0.00
    0    1   45     -2.52      0.00
    1    2   45     -1.68      0.00
    0    3   45     -1.64      0.00
    2    3   45     -0.35      0.00
    1    4   45      6.63      0.00
    3    4   45      0.76      0.00
    0    5   45      0.33      0.00
    2    5   45      0.64      0.00
    4    5   45      1.07      0.00
    1    6   45     -1.87      0.00
    3    6   45      4.70      0.00
    5    6   45      2.54      0.00
    0    7   45     -0.46      0.00
    2    7   45      3.46      0.00
    4    7   45      1.53      0.00
    6    7   45      2.88      0.00
    1    8   45     -6.77      0.00
    3    8   45     -3.87      0.00
    5    8   45      1.52      0.00
    7    8   45      0.52      0.00
    0    9   45      6.08      0.00
    2    9   45     -2.15      0.00
    4    9   45      0.13      0.00
    6    9   45      2.23      0.00
    8    9   45     -1.08      0.00
    1   10   45      0.50      0.00
    3   10   45     -1.26      0.00
    5   10   45      2.12      0.00
    7   10   45      1.41      0.00
    9   10   45      3.50      0.00
    0   11   45     -4.93      0.00
    2   11   45     -3.67      0.00
    4   11   45      1.85      0.00
    6   11   45     -0.77      0.00
    8   11   45      0.32      0.00
   10   11   45      0.01      0.00
    1   12   45      2.65      0.00
    3   12   45      0.74      0.00
    5   12   45      1.23      0.00
    7   12   45      5.09      0.00
    9   12   45     -0.85      0.00
   11   12   45      3.45      0.00
    0   13   45     -7.67      0.00
    2   13   45     -3.00      0.00
    4   13   45      2.39      0.00
    6   13   45      0.32      0.00
    8   13   45      2.49      0.00
   10   13   45     -0.91      0.00
    1   14   45      2.74      0.00
    3   14   45     -1.31      0.00
    5   14   45      3.02      0.00
    7   14   45      3.40      0.00
    9   14   45      3.35      0.00
    0   15   45     -4.92      0.00
    2   15   45      3.65      0.00
    4   15   45     -1.14      0.00
    6   15   45     -0.12      0.00
    1   16   45      4.59      0.00
    3   16   45      5.30      0.00
    5   16   45     -0.28      0.00
    1    1   46      2.83      0.00
    0    2   46      6.04      0.00
    1    3   46      0.49      0.00
    3    3   46     -6.11      0.00
    0    4   46     -4.53      0.00
    2    4   46     -2.46      0.00
    1    5   46      2.86      0.00
    3    5   46      0.94      0.00
    5    5   46      1.21      0.00
    0    6   46     -2.57      0.00
    2    6   46     -3.73      0.00
    4    6   46      0.93      0.00
    1    7   46      7.67      0.00
    3    7   46     -0.36      0.00
    5    7   46     -1.36      0.00
    7    7   46      2.18      0.00
    0    8   46     -0.11      0.00
    2    8   46      4.30      0.00
    4    8   46     -0.48      0.00
    6    8   46     -3.84      0.00
    1    9   46      4.73      0.00
    3    9   46      7.65      0.00
    5    9   46      2.03      0.00
    7    9   46      5.12      0.00
    9    9   46     -4.07      0.00
    0   10   46      5.71      0.00
    2   10   46      1.23      0.00
    4   10   46     -3.68      0.00
    6   10   46     -3.15      0.00
    8   10   46      5.75      0.00
    1   11   46     -0.13      0.00
    3   11   46     -1.30      0.00
    5   11   46      0.26      0.00
    7   11   46     -2.23      0.00
    9   11   46     -1.72      0.00
   11   11   46     -4.21      0.00
    0   12   46     -3.87      0.00
    2   12   46      3.16      0.00
    4   12   46      2.13      0.00
    6   12   46      3.41      0.00
    8   12   46     -1.22      0.00
   10   12   46     -1.56      0.00
    1   13   46      0.88      0.00
    3   13   46     -0.45      0.00
    5   13   46     -1.14      0.00
    7   13   46     -3.13      0.00
    9   13   46     -1.10      0.00
    0   14   46     -0.83      0.00
    2   14   46     -1.40      0.00
    4   14   46      2.73      0.00
    6   14   46     -5.48      0.00
    8   14   46     -0.57      0.00
    1   15   46      0.83      0.00
    3   15   46      0.07      0.00
    5   15   46      1.71      0.00
    7   15   46      1.32      0.00
    0   16   46      2.55      0.00
    2   16   46      1.68      0.00
    4   16   46     -1.19      0.00
    0    1   47      3.30      0.00
    1    2   47     -5.58      0.00
    0    3   47     -0.27      0.00
    2    3   47      3.62      0.00
    1    4   47      1.02      0.00
    3    4   47      0.66      0.00
    0    5   47     -2.70      0.00
    2    5   47      1.67      0.00
    4    5   47      2.78      0.00
    1    6   47     -0.58      0.00
    3    6   47      1.12      0.00
    5    6   47     -1.41      0.00
    0    7   47     -5.98      0.00
    2    7   47     -1.18      0.00
    4    7   47      3.21      0.00
    6    7   47      1.42      0.00
    1    8   47      3.67      0.00
    3    8   47      3.27      0.00
    5    8   47      1.53      0.00
    7    8   47      1.23      0.00
    0    9   47      2.45      0.00
    2    9   47      1.30      0.00
    4    9   47      0.52      0.00
    6    9   47      3.06      0.00
    8    9   47      0.58      0.00
    1   10   47      1.69      0.00
    3   10   47     -3.00      0.00
    5   10   47      2.00      0.00
    7   10   47      1.19      0.00
    9   10   47      0.63      0.00
    0   11   47      1.71      0.00
    2   11   47     -1.09      0.00
    4   11   47      1.52      0.00
    6   11   47     -3.39      0.00
    8   11   47      2.00      0.00
   10   11   47      2.09      0.00
    1   12   47     -0.81      0.00
    3   12   47     -0.53      0.00
    5   12   47      2.49      0.00
    7   12   47     -2.40      0.00
    9   12   47     -2.22      0.00
   11   12   47      2.45      0.00
    0   13   47      0.55      0.00
    2   13   47      0.09      0.00
    4   13   47      0.42      0.00
    6   13   47     -0.18      0.00
    8   13   47     -1.95      0.00
    1   14   47     -4.81      0.00
    3   14   47     -0.72      0.00
    5   14   47      1.96      0.00
    7   14   47      0.31      0.00
    0   15   47     -5.03      0.00
    2   15   47     -0.03      0.00
    4   15   47      1.61      0.00
    6   15   47     -1.16      0.00
    1   16   47     -2.22      0.00
    3   16   47     -0.36      0.00
    0    0   48     -2.72      0.00
    0    2   48      1.82      0.00
    2    2   48      3.97      0.00
    1    3   48     -0.76      0.00
    0    4   48      3.96      0.00
    2    4   48      0.24      0.00
    4    4   48     -1.32      0.00
    1    5   48     -2.42      0.00
    3    5   48      1.27      0.00
    0    6   48      1.70      0.00
    2    6   48     -0.54      0.00
    4    6   48     -0.47      0.00
    6    6   48     -3.47      0.00
    1    7   48     -5.45      0.00
    3    7   48     -6.59      0.00
    5    7   48      0.13      0.00
    0    8   48      4.76      0.00
    2    8   48      4.73      0.00
    4    8   48     -1.14      0.00
    6    8   48     -0.69      0.00
    8    8   48     -0.43      0.00
    1    9   48     -0.21      0.00
    3    9   48     -1.87      0.00
    5    9   48     -4.76      0.00
    7    9   48     -2.16      0.00
    0   10   48      2.63      0.00
    2   10   48      2.46      0.00
    4   10   48      0.86      0.00
    6   10   48      1.95      0.00
    8   10   48     -0.42      0.00
   10   10   48     -3.42      0.00
    1   11   48      2.29      0.00
    3   11   48     -1.25      0.00
    5   11   48     -0.92      0.00
    7   11   48     -2.29      0.00
    9   11   48      7.48      0.00
    0   12   48     -3.68      0.00
    2   12   48     -3.67      0.00
    4   12   48     -0.02      0.00
    6   12   48     -1.44      0.00
    8   12   48     -2.91      0.00
   10   12   48     -1.10      0.00
    1   13   48      1.18      0.00
    3   13   48      2.59      0.00
    5   13   48      0.99      0.00
    7   13   48      5.40      0.00
    9   13   48      0.72      0.00
    0   14   48     -2.50      0.00
    2   14   48     -2.13      0.00
    4   14   48     -0.77      0.00
    6   14   48     -8.41      0.00
    1   15   48      3.66      0.00
    3   15   48     -0.56      0.00
    5   15   48     -1.04      0.00
    0   16   48     -0.55      0.00
    0    1   49     -3.51      0.00
    1    2   49      3.81      0.00
    0    3   49     -3.97      0.00
    2    3   49     -0.85      0.00
    1    4   49      3.95      0.00
    3    4   49     -0.38      0.00
    0    5   49      0.76      0.00
    2    5   49     -0.25      0.00
    4    5   49     -1.81      0.00
    1    6   49     -3.62      0.00
    3    6   49      1.48      0.00
    5    6   49      3.07      0.00
    0    7   49     -4.05      0.00
    2    7   49      0.63      0.00
    4    7   49      0.62      0.00
    6    7   49     -3.51      0.00
    1    8   49     -1.76      0.00
    3    8   49     -3.21      0.00
    5    8   49      0.67      0.00
    7    8   49     -5.59      0.00
    0    9   49     -7.03      0.00
    2    9   49     -5.43      0.00
    4    9   49     -2.86      0.00
    6    9   49      0.67      0.00
    8    9   49     -5.80      0.00
    1   10   49      5.08      0.00
    3   10   49      3.63      0.00
    5   10   49     -0.01      0.00
    7   10   49      4.89      0.00
    9   10   49     -1.99      0.00
    0   11   49     -0.87      0.00
    2   11   49     -5.46      0.00
    4   11   49      4.12      0.00
    6   11   49     -2.11      0.00
    8   11   49      2.99      0.00
   10   11   49     -1.68      0.00
    1   12   49      2.44      0.00
    3   12   49     -1.75      0.00
    5   12   49      0.27      0.00
    7   12   49      0.89      0.00
    9   12   49     -0.42      0.00
    0   13   49     -1.83      0.00
    2   13   49      5.22      0.00
    4   13   49     -3.80      0.00
    6   13   49      3.29      0.00
    8   13   49      1.91      0.00
    1   14   49     -1.32      0.00
    3   14   49      0.78      0.00
    5   14   49      1.57      0.00
    7   14   49      2.94      0.00
    0   15   49     -4.15      0.00
    2   15   49     -3.54      0.00
    4   15   49      1.48      0.00
    1    1   50     -0.30      0.00
    0    2   50      4.92      0.00
    1    3   50     -4.07      0.00
    3    3   50     -9.12      0.00
    0    4   50      3.82      0.00
    2    4   50      0.19      0.00
    1    5   50      1.14      0.00
    3    5   50     -2.64      0.00
    5    5   50     -3.46      0.00
    0    6   50     -2.31      0.00
    2    6   50      4.34      0.00
    4    6   50      2.86      0.00
    1    7   50      2.69      0.00
    3    7   50     -0.41      0.00
    5    7   50     -1.28      0.00
    7    7   50      0.19      0.00
    0    8   50     -3.84      0.00
    2    8   50     -1.99      0.00
    4    8   50      1.14      0.00
    6    8   50      1.09      0.00
    1    9   50      3.29      0.00
    3    9   50     -1.91      0.00
    5    9   50     -2.56      0.00
    7    9   50      4.57      0.00
    9    9   50     -4.18      0.00
    0   10   50      3.75      0.00
    2   10   50      1.67      0.00
    4   10   50     -6.02      0.00
    6   10   50     -0.65      0.00
    8   10   50     -4.24      0.00
    1   11   50     -1.37      0.00
    3   11   50     -0.82      0.00
    5   11   50     -0.16      0.00
    7   11   50      0.47      0.00
    9   11   50     -0.49      0.00
    0   12   50      4.05      0.00
    2   12   50      1.68      0.00
    4   12   50     -3.01      0.00
    6   12   50     -7.55      0.00
    8   12   50      2.96      0.00
    1   13   50     -0.24      0.00
    3   13   50      0.07      0.00
    5   13   50      4.08      0.00
    7   13   50     -1.74      0.00
    0   14   50     -2.49      0.00
    2   14   50     -1.49      0.00
    4   14   50      1.23      0.00
    6   14   50      0.79      0.00
    1   15   50     -1.68      0.00
    3   15   50      0.44      0.00
    0    1   51     -0.63      0.00
    1    2   51      3.31      0.00
    0    3   51      6.21      0.00
    2    3   51      3.41      0.00
    1    4   51     -2.84      0.00
    3    4   51     -0.28      0.00
    0    5   51     -2.49      0.00
    2    5   51      0.25      0.00
    4    5   51      1.33      0.00
    1    6   51     -4.88      0.00
    3    6   51     -0.52      0.00
    5    6   51      0.79      0.00
    0    7   51     -9.30      0.00
    2    7   51     -0.48      0.00
    4    7   51      0.88      0.00
    6    7   51     -2.09      0.00
    1    8   51     -1.56      0.00
    3    8   51     -0.02      0.00
    5    8   51      0.09      0.00
    7    8   51      0.37      0.00
    0    9   51      0.22      0.00
    2    9   51     -2.11      0.00
    4    9   51      4.51      0.00
    6    9   51      0.82      0.00
    8    9   51     -2.88      0.00
    1   10   51     -1.69      0.00
    3   10   51     -0.94      0.00
    5   10   51     -0.42      0.00
    7   10   51      2.01      0.00
    9   10   51      3.32      0.00
    0   11   51      1.93      0.00
    2   11   51      1.43      0.00
    4   11   51     -2.77      0.00
    6   11   51     -0.67      0.00
    8   11   51      1.58      0.00
   10   11   51     -2.14      0.00
    1   12   51     -5.46      0.00
    3   12   51     -0.71      0.00
    5   12   51      6.71      0.00
    7   12   51     -2.49      0.00
    9   12   51     -2.76      0.00
    0   13   51      2.31      0.00
    2   13   51     -0.81      0.00
    4   13   51     -0.97      0.00
    6   13   51     -0.90      0.00
    1   14   51     -0.29      0.00
    3   14   51     -0.77      0.00
    5   14   51     -1.29      0.00
    0   15   51     -5.17      0.00
    2   15   51     -3.90      0.00
    0    0   52      4.87      0.00
    0    2   52     -4.14      0.00
    2    2   52      0.92      0.00
    1    3   52     -0.93      0.00
    0    4   52      1.34      0.00
    2    4   52     -0.16      0.00
    4    4   52      3.24      0.00
    1    5   52     -2.67      0.00
    3    5   52      0.52      0.00
    0    6   52      3.96      0.00
    2    6   52      0.94      0.00
    4    6   52     -1.53      0.00
    6    6   52     -1.46      0.00
    1    7   52     -3.63      0.00
    3    7   52     -2.10      0.00
    5    7   52      1.26      0.00
    0    8   52     -2.51      0.00
    2    8   52      3.19      0.00
    4    8   52      2.70      0.00
    6    8   52     -0.18      0.00
    8    8   52      3.72      0.00
    1    9   52      2.79      0.00
    3    9   52     -0.79      0.00
    5    9   52      1.29      0.00
    7    9   52      1.26      0.00
    0   10   52      1.82      0.00
    2   10   52     -1.97      0.00
    4   10   52     -5.14      0.00
    6   10   52      3.57      0.00
    8   10   52     -2.08      0.00
   10   10   52     -0.40      0.00
    1   11   52      1.06      0.00
    3   11   52     -2.07      0.00
    5   11   52     -0.97      0.00
    7   11   52     -3.38      0.00
    9   11   52     -1.70      0.00
    0   12   52     -1.85      0.00
    2   12   52     -3.07      0.00
    4   12   52      2.80      0.00
    6   12   52     -5.20      0.00
    8   12   52      0.75      0.00
    1   13   52      3.87      0.00
    3   13   52     -0.77      0.00
    5   13   52     -4.86      0.00
    7   13   52     -4.94      0.00
    0   14   52      2.05      0.00
    2   14   52      0.73      0.00
    4   14   52     -1.16      0.00
    0    1   53     -4.71      0.00
    1    2   53      1.19      0.00
    0    3   53      8.53      0.00
    2    3   53      3.42      0.00
    1    4   53      2.59      0.00
    3    4   53     -0.78      0.00
    0    5   53      8.44      0.00
    2    5   53      4.43      0.00
    4    5   53      2.66      0.00
    1    6   53     -2.01      0.00
    3    6   53     -1.11      0.00
    5    6   53      3.43      0.00
    0    7   53     -2.34      0.00
    2    7   53      5.81      0.00
    4    7   53      1.09      0.00
    6    7   53     -0.81      0.00
    1    8   53     -1.22      0.00
    3    8   53     -1.18      0.00
    5    8   53      0.13      0.00
    7    8   53     -6.11      0.00
    0    9   53     -0.23      0.00
    2    9   53     -0.14      0.00
    4    9   53      4.32      0.00
    6    9   53     -2.43      0.00
    8    9   53     -3.64      0.00
    1   10   53     -1.66      0.00
    3   10   53      4.09      0.00
    5   10   53     -0.65      0.00
    7   10   53      3.25      0.00
    9   10   53      0.22      0.00
    0   11   53      2.08      0.00
    2   11   53      2.10      0.00
    4   11   53      0.76      0.00
    6   11   53     -0.13      0.00
    8   11   53      0.62      0.00
    1   12   53     -0.38      0.00
    3   12   53     -1.86      0.00
    5   12   53      1.06      0.00
    7   12   53      3.64      0.00
    0   13   53     -1.69      0.00
    2   13   53      0.75      0.00
    4   13   53     -1.38      0.00
    6   13   53      1.74      0.00
    1   14   53      3.09      0.00
    3   14   53      1.56      0.00
    1    1   54     -3.41      0.00
    0    2   54     -1.91      0.00
    1    3   54     -1.85      0.00
    3    3   54     -7.37      0.00
    0    4   54      5.09      0.00
    2    4   54      1.86      0.00
    1    5   54      3.38      0.00
    3    5   54      0.70      0.00
    5    5   54     -3.08      0.00
    0    6   54      3.29      0.00
    2    6   54      1.70      0.00
    4    6   54      0.79      0.00
    1    7   54      7.53      0.00
    3    7   54     -0.94      0.00
    5    7   54      0.73      0.00
    7    7   54     -0.30      0.00
    0    8   54     -5.35      0.00
    2    8   54      3.68      0.00
    4    8   54     -2.39      0.00
    6    8   54     -0.10      0.00
    1    9   54     -1.10      0.00
    3    9   54     -0.30      0.00
    5    9   54     -4.78      0.00
    7    9   54      3.39      0.00
    9    9   54     -2.39      0.00
    0   10   54      5.17      0.00
    2   10   54     -3.48      0.00
    4   10   54     -1.63      0.00
    6   10   54      0.16      0.00
    8   10   54     -1.31      0.00
    1   11   54      1.48      0.00
    3   11   54     -2.08      0.00
    5   11   54      3.40      0.00
    7   11   54      2.40      0.00
    0   12   54     -1.22      0.00
    2   12   54      0.95      0.00
    4   12   54     -5.06      0.00
    6   12   54     -3.24      0.00
    1   13   54     -1.66      0.00
    3   13   54      4.72      0.00
    5   13   54      0.50      0.00
    0   14   54      3.36      0.00
    0    1   55      2.22      0.00
    1    2   55     -3.10      0.00
    0    3   55      0.77      0.00
    2    3   55     -0.51      0.00
    1    4   55     -2.19      0.00
    3    4   55     -8.68      0.00
    0    5   55      1.35      0.00
    2    5   55      1.33      0.00
    4    5   55      0.50      0.00
    1    6   55     -2.65      0.00
    3    6   55      0.34      0.00
    5    6   55     -1.99      0.00
    0    7   55     -2.53      0.00
    2    7   55      2.32      0.00
    4    7   55      2.80      0.00
    6    7   55     -0.30      0.00
    1    8   55     -1.38      0.00
    3    8   55     -1.17      0.00
    5    8   55      1.42      0.00
    7    8   55      3.19      0.00
    0    9   55      0.03      0.00
    2    9   55      0.18      0.00
    4    9   55      3.58      0.00
    6    9   55      2.01      0.00
    8    9   55     -4.84      0.00
    1   10   55      0.50      0.00
    3   10   55      5.39      0.00
    5   10   55     -0.85      0.00
    7   10   55      3.43      0.00
    9   10   55      0.37      0.00
    0   11   55     -0.87      0.00
    2   11   55     -0.02      0.00
    4   11   55      1.24      0.00
    6   11   55      1.69      0.00
    8   11   55      0.45      0.00
    1   12   55     -1.07      0.00
    3   12   55     -1.24      0.00
    5   12   55      5.52      0.00
    0   13   55     -1.34      0.00
    2   13   55     -0.20      0.00
    4   13   55      0.50      0.00
    0    0   56     -4.04      0.00
    0    2   56     -4.58      0.00
    2    2   56     -1.67      0.00
    1    3   56     -1.18      0.00
    0    4   56     -0.55      0.00
    2    4   56     -0.23      0.00
    4    4   56      1.84      0.00
    1    5   56     -3.16      0.00
    3    5   56     -0.13      0.00
    0    6   56     -2.36      0.00
    2    6   56     -2.68      0.00
    4    6   56      1.30      0.00
    6    6   56      0.19      0.00
    1    7   56     -4.59      0.00
    3    7   56     -1.64      0.00
    5    7   56      1.27      0.00
    0    8   56      2.00      0.00
    2    8   56      1.79      0.00
    4    8   56     -1.55      0.00
    6    8   56      0.66      0.00
    8    8   56     -2.65      0.00
    1    9   56      4.06      0.00
    3    9   56     -3.82      0.00
    5    9   56      4.20      0.00
    7    9   56     -0.54      0.00
    0   10   56      4.16      0.00
    2   10   56      1.72      0.00
    4   10   56     -4.05      0.00
    6   10   56     -2.62      0.00
    8   10   56      1.34      0.00
    1   11   56     -0.25      0.00
    3   11   56      0.12      0.00
    5   11   56     -0.98      0.00
    7   11   56      2.57      0.00
    0   12   56      2.73      0.00
    2   12   56     -2.67      0.00
    4   12   56      3.50      0.00
    1   13   56     -1.78      0.00
    3   13   56      0.88      0.00
    0    1   57      4.84      0.00
    1    2   57     -2.53      0.00
    0    3   57      0.66      0.00
    2    3   57      1.86      0.00
    1    4   57     -2.72      0.00
    3    4   57     -7.16      0.00
    0    5   57      0.85      0.00
    2    5   57      1.37      0.00
    4    5   57      1.00      0.00
    1    6   57     -1.83      0.00
    3    6   57     -3.19      0.00
    5    6   57     -0.58      0.00
    0    7   57      2.42      0.00
    2    7   57      2.00      0.00
    4    7   57      2.03      0.00
    6    7   57     -4.62      0.00
    1    8   57     -3.99      0.00
    3    8   57      3.17      0.00
    5    8   57      1.77      0.00
    7    8   57     -1.44      0.00
    0    9   57     -0.15      0.00
    2    9   57      6.15      0.00
    4    9   57      3.83      0.00
    6    9   57      3.08      0.00
    8    9   57      0.56      0.00
    1   10   57      0.29      0.00
    3   10   57      2.15      0.00
    5   10   57      1.86      0.00
    7   10   57      3.08      0.00
    0   11   57      2.00      0.00
    2   11   57      0.46      0.00
    4   11   57      3.51      0.00
    6   11   57     -0.32      0.00
    1   12   57     -1.35      0.00
    3   12   57      2.48      0.00
    1    1   58     -5.49      0.00
    0    2   58     -3.42      0.00
    1    3   58      0.26      0.00
    3    3   58      3.84      0.00
    0    4   58      4.06      0.00
    2    4   58     -0.33      0.00
    1    5   58      6.25      0.00
    3    5   58      0.18      0.00
    5    5   58      2.15      0.00
    0    6   58      1.12      0.00
    2    6   58      1.77      0.00
    4    6   58     -1.85      0.00
    1    7   58     -4.40      0.00
    3    7   58      1.56      0.00
    5    7   58      1.54      0.00
    7    7   58      2.44      0.00
    0    8   58     -0.51      0.00
    2    8   58      3.46      0.00
    4    8   58      2.02      0.00
    6    8   58      0.17      0.00
    1    9   58     -2.84      0.00
    3    9   58     -7.64      0.00
    5    9   58     -1.37      0.00
    7    9   58     -3.82      0.00
    0   10   58      6.67      0.00
    2   10   58      3.84      0.00
    4   10   58     -1.42      0.00
    6   10   58     -0.83      0.00
    1   11   58      4.58      0.00
    3   11   58      2.12      0.00
    5   11   58    -11.14      0.00
    0   12   58      9.32      0.00
    2   12   58      0.30      0.00
    0    1   59      0.32      0.00
    1    2   59      1.46      0.00
    0    3   59      3.29      0.00
    2    3   59      0.60      0.00
    1    4   59     -2.33      0.00
    3    4   59     -3.16      0.00
    0    5   59      0.31      0.00
    2    5   59      4.33      0.00
    4    5   59      2.05      0.00
    1    6   59      2.53      0.00
    3    6   59     -3.71      0.00
    5    6   59     -0.16      0.00
    0    7   59      5.28      0.00
    2    7   59      1.75      0.00
    4    7   59      1.40      0.00
    6    7   59     -0.21      0.00
    1    8   59      0.85      0.00
    3    8   59      5.67      0.00
    5    8   59     -7.58      0.00
    7    8   59      2.81      0.00
    0    9   59     -3.53      0.00
    2    9   59      1.90      0.00
    4    9   59      1.82      0.00
    6    9   59      0.77      0.00
    1   10   59      3.18      0.00
    3   10   59     -3.22      0.00
    5   10   59      3.96      0.00
    0   11   59      3.66      0.00
    2   11   59     -0.48      0.00
    4   11   59     -2.20      0.00
    1   12   59     -3.66      0.00
    0    2   60     -0.27      0.00
    2    2   60      3.57      0.00
    1    3   60      0.58      0.00
    0    4   60      4.19      0.00
    2    4   60      3.60      0.00
    4    4   60      7.12      0.00
    1    5   60     -2.65      0.00
    3    5   60     -5.74      0.00
    0    6   60      7.55      0.00
    2    6   60      6.84      0.00
    4    6   60      2.00      0.00
    6    6   60      3.24      0.00
    1    7   60     -7.39      0.00
    3    7   60    -10.47      0.00
    5    7   60     -4.96      0.00
    0    8   60      3.20      0.00
    2    8   60     -0.30      0.00
    4    8   60      3.96      0.00
    6    8   60      1.18      0.00
    8    8   60     -0.06      0.00
    1    9   60     -8.87      0.00
    3    9   60     -6.81      0.00
    5    9   60      1.39      0.00
    7    9   60     -0.32      0.00
    0   10   60     -1.86      0.00
    2   10   60     -1.14      0.00
    4   10   60     -2.89      0.00
    1   11   60     -1.90      0.00
    3   11   60     -0.49      0.00
    0    1   61      6.66      0.00
    1    2   61     -0.85      0.00
    0    3   61     -1.56      0.00
    2    3   61     -0.49      0.00
    1    4   61      4.19      0.00
    3    4   61     -2.06      0.00
    0    5   61     -4.55      0.00
    2    5   61     -2.51      0.00
    4    5   61      1.01      0.00
    1    6   61     -1.59      0.00
    3    6   61      2.36      0.00
    5    6   61      1.14      0.00
    0    7   61     -3.69      0.00
    2    7   61     -2.57      0.00
    4    7   61      1.36      0.00
    6    7   61     -1.47      0.00
    1    8   61     -7.53      0.00
    3    8   61      0.35      0.00
    5    8   61      1.77      0.00
    7    8   61      0.18      0.00
    0    9   61     -0.59      0.00
    2    9   61      5.65      0.00
    4    9   61      4.07      0.00
    6    9   61      4.43      0.00
    1   10   61     -6.46      0.00
    3   10   61      2.94      0.00
    0   11   61      0.78      0.00
    1    1   62     -1.56      0.00
    0    2   62     -0.64      0.00
    1    3   62     -2.64      0.00
    3    3   62     -3.54      0.00
    0    4   62      1.20      0.00
    2    4   62      2.53      0.00
    1    5   62     -7.38      0.00
    3    5   62     -0.74      0.00
    5    5   62      1.56      0.00
    0    6   62     -0.72      0.00
    2    6   62      1.21      0.00
    4    6   62     -1.22      0.00
    1    7   62     -0.48      0.00
    3    7   62     -2.27      0.00
    5    7   62      2.00      0.00
    7    7   62      0.40      0.00
    0    8   62     -0.04      0.00
    2    8   62     -3.60      0.00
    4    8   62      0.88      0.00
    6    8   62     -5.28      0.00
    1    9   62      0.79      0.00
    3    9   62      3.75      0.00
    5    9   62      0.35      0.00
    0   10   62     -3.19      0.00
    2   10   62      0.54      0.00
    1    2   63     -2.46      0.00
    0    3   63     -4.31      0.00
    2    3   63     -4.74      0.00
    1    4   63     -0.59      0.00
    3    4   63     -3.83      0.00
    0    5   63      7.71      0.00
    2    5   63      4.12      0.00
    4    5   63      0.73      0.00
    1    6   63      1.41      0.00
    3    6   63     -4.71      0.00
    5    6   63     -3.46      0.00
    0    7   63      2.16      0.00
    2    7   63     10.01      0.00
    4    7   63      3.55      0.00
    6    7   63     -0.95      0.00
    1    8   63     -1.19      0.00
    3    8   63     -0.35      0.00
    5    8   63     -8.36      0.00
    0    9   63      6.89      0.00
    2    9   63     -1.04      0.00
    4    9   63     -1.80      0.00
    0    2   64      2.92      0.00
    2    2   64      3.96      0.00
    1    3   64      2.22      0.00
    0    4   64      1.16      0.00
    2    4   64      0.60      0.00
    4    4   64     -4.34      0.00
    1    5   64      1.15      0.00
    3    5   64     -2.50      0.00
    0    6   64     -0.01      0.00
    2    6   64     -3.86      0.00
    4    6   64     -0.70      0.00
    6    6   64      0.11      0.00
    1    7   64      4.63      0.00
    3    7   64     -9.24      0.00
    5    7   64     -8.52      0.00
    0    8   64      1.04      0.00
    2    8   64     -2.67      0.00
    4    8   64     -0.39      0.00
    1    9   64     -4.57      0.00
    1    2   65     -2.41      0.00
    0    3   65     -0.03      0.00
    2    3   65     -0.37      0.00
    1    4   65     -1.52      0.00
    3    4   65     -2.09      0.00
    0    5   65      3.00      0.00
    2    5   65      1.09      0.00
    4    5   65      0.56      0.00
    1    6   65      2.93      0.00
    3    6   65     -2.46      0.00
    5    6   65      2.58      0.00
    0    7   65     -4.19      0.00
    2    7   65      1.94      0.00
    4    7   65      1.16      0.00
    1    8   65     -7.15      0.00
    3    8   65      7.28      0.00
    0    2   66     -9.39      0.00
    1    3   66     -0.28      0.00
    3    3   66      2.23      0.00
    0    4   66     -2.85      0.00
    2    4   66     -0.20      0.00
    1    5   66     -2.61      0.00
    3    5   66      1.58      0.00
    5    5   66     -0.91      0.00
    0    6   66     -4.63      0.00
    2    6   66     -1.08      0.00
    4    6   66     12.14      0.00
    1    7   66     -2.39      0.00
    3    7   66     -7.20      0.00
    1    2   67     -1.75      0.00
    0    3   67     -4.94      0.00
    2    3   67     -1.15      0.00
    1    4   67     -0.75      0.00
    3    4   67      1.66      0.00
    0    5   67     -1.79      0.00
    2    5   67      4.00      0.00
    4    5   67      1.36      0.00
    1    6   67      2.95      0.00
    3    6   67     -2.83      0.00
    0    7   67      8.82      0.00
    2    2   68      1.86      0.00
    1    3   68      4.33      0.00
    0    4   68     -4.17      0.00
    2    4   68     -1.17      0.00
    4    4   68     -2.32      0.00
    1    5   68      1.30      0.00
    3    5   68      1.83      0.00
    0    6   68      7.14      0.00
    1    2   69      7.48      0.00
    0    3   69     -2.22      0.00
    2    3   69      1.36      0.00
    1    4   69      2.65      0.00
    1    3   70      1.33      0.00
    0    1    1     21.68      0.00
   15   16    1     -5.19      0.00
    9   20    1      1.84      0.00
    6   21    1     -0.07      0.00
    1    1    2    162.10      0.00
   11   19    2     -4.23      0.00
    0    1    3    135.50      0.00
   15   16    3      0.02      0.00
    9   20    3      2.00      0.00
    6   21    3      1.50      0.00
    0    0    4     23.68      0.00
   11   19    4      4.01      0.00
   15   16    5     -5.58      0.00
    9   20    5      0.98      0.00
    6   21    5     -2.33      0.00
    6   21    7     -0.28      0.00
   12   18   10     -2.68      0.00
    5   21   10     -6.18      0.00
   12   18   12     -2.45      0.00
    8   20   12     -1.59      0.00
    5   21   12     -5.04      0.00
   10   19   13      2.62      0.00
   13   17   14     -0.92      0.00
    8   20   14     -2.79      0.00
   10   19   15     -4.77      0.00
    4   21   15      1.95      0.00
   14   16   16      4.16      0.00
   13   17   16      4.51      0.00
    7   20   17      2.38      0.00
   15   15   18     -4.80      0.00
   14   16   18     -0.54      0.00
    3   21   18     -0.34      0.00
   11   18   19     -2.94      0.00
    7   20   19      5.90      0.00
    0   21   19     -5.46      0.00
    2   21   19     -0.75      0.00
    9   19   20     -0.43      0.00
    1   21   20     -3.03      0.00
    0   21   21      0.07      0.00
    6   20   22     -1.29      0.00
   12   17   23      2.57      0.00
    8   19   23      1.43      0.00
    5   20   23     -2.03      0.00
   10   18   24     -0.07      0.00
   14   15   25     -2.55      0.00
    4   20   26      1.56      0.00
    3   20   27      2.98      0.00
    2   20   28     -4.08      0.00
    6   19   29      1.44      0.00
    1   20   29     -0.44      0.00
   13   15   30     -3.65      0.00
   10   17   31      2.65      0.00
    5   19   32     -1.35      0.00
   11   16   33     -3.14      0.00
    7   18   33     -3.75      0.00
    4   19   33      3.85      0.00
    9   17   34     -2.85      0.00
    3   19   34      1.43      0.00
   13   14   35     -0.18      0.00
    0   19   35      1.56      0.00
    2   19   35     -3.58      0.00
   10   16   36      0.97      0.00
    6   18   36     -0.06      0.00
    8   17   37     -0.37      0.00
    5   18   37      0.33      0.00
   13   13   38     -5.46      0.00
   12   14   38     -0.40      0.00
   11   15   38      2.40      0.00
    4   18   38      2.76      0.00
    9   16   39      5.46      0.00
    3   18   39     -0.43      0.00
    0   18   40      2.79      0.00
    2   18   40     -4.84      0.00
   11   14   41      1.71      0.00
    5   17   42      0.92      0.00
    7   16   43      2.42      0.00
    4   17   43     -0.68      0.00
   10   14   44      0.93      0.00
    3   17   44      1.36      0.00
    8   15   45     -0.73      0.00
    0   17   45      3.97      0.00
   10   13   47      0.95      0.00
    8   14   48     -2.16      0.00
    2   16   48      0.18      0.00
   11   11   50     -2.07      0.00
   10   12   50      1.17      0.00
    8   13   51     -2.27      0.00
    1   15   52      0.79      0.00
    9   11   54      1.01      0.00
    2   14   54     -0.29      0.00
    7   12   55     -2.12      0.00
    6   12   56      2.43      0.00
    5   12   57      3.03      0.00
    0   13   57     -0.44      0.00
    2   13   57      2.60      0.00
    9    9   58     -4.11      0.00
    4   12   58     -3.84      0.00
    8    9   59     -3.11      0.00
    7   10   59     -0.53      0.00
    0    0   60     -2.55      0.00
    6   10   60     -0.09      0.00
    5   10   61      5.51      0.00
    2   11   61      0.56      0.00
    4   10   62     -5.13      0.00
    0    1   63     -7.94      0.00
    1   10   63     -2.46      0.00
    0    0   64     -9.80      0.00
    3    9   64     -2.97      0.00
    0    1   65      5.54      0.00
    0    9   65      3.18      0.00
    1    1   66      1.40      0.00
    0    8   66      3.71      0.00
    2    8   66      2.85      0.00
    0    1   67      1.83      0.00
    2    7   67      5.00      0.00
    0    0   68      9.79      0.00
    0    2   68     -1.73      0.00
    2    6   68      1.88      0.00
    0    1   69      0.75      0.00
    3    4   69     -2.58      0.00
    0    5   69      1.94      0.00
    2    5   69      3.33      0.00
    1    1   70      8.59      0.00
    0    2   70     -5.14      0.00
    0    4   70      0.17      0.00
    0    1   71      0.16      0.00
    0    0    0      0.00      0.00
# SQUEEZE RESULTS (Version = 130220)
# Note: Data are Listed for all Voids in the P1 Unit Cell
# i.e. Centre of Gravity, Solvent Accessible Volume,
# Recovered number of Electrons in the Void and
# Details about the Squeezed Material
loop_
  _platon_squeeze_void_nr
  _platon_squeeze_void_average_x
  _platon_squeeze_void_average_y
  _platon_squeeze_void_average_z
  _platon_squeeze_void_volume
  _platon_squeeze_void_count_electrons
  _platon_squeeze_void_content
   1 -0.176  0.657  0.052      7120       623 ' '
# Missing Reflections Below sin(th)/lambda = 0.25
loop_
  _platon_missing_refln_index_h
  _platon_missing_refln_index_k
  _platon_missing_refln_index_l
  _platon_missing_refln_theta
    0    1    1     1.307
    1    1    2     1.927
    0    1    3     1.702
    0    0    4     1.541
_platon_squeeze_void_probe_radius                  1.20
_platon_squeeze_details
)
TITL mo_djb_07_18a_150I 41/a m d   R = 0.11
CELL   16.3069   16.3069   52.8520     90.00     90.00     90.00
SPGR I41/amd
# Solvent Accessible Volume =      7067
# Electrons Found in S.A.V. =       621
# Note: Atoms in Void are Labelled as Cxxx and Qxxx for all Others
Q101 1.000 0.983 0.091 !       2.06 eA-3
C102 1.000 0.969 0.134 !       1.67 eA-3
C103 0.216 0.746 0.102 !       1.37 eA-3
Q104 0.500 0.744 0.117 !       1.35 eA-3
Q105 0.818 0.889 0.001 !       1.31 eA-3
C106 0.975 0.955 0.112 !       1.31 eA-3
Q107 0.935 1.004 0.288 !       1.14 eA-3
Q108 1.000 0.317 0.173 !       1.14 eA-3
Q109 0.156 0.644 0.006 !       1.13 eA-3
Q110 0.730 0.295 0.155 !       1.11 eA-3
Q111 0.386 0.549 0.413 !       1.09 eA-3
C112 1.000 0.582 0.090 !       1.03 eA-3
Q113 0.065 0.418 0.288 !       0.97 eA-3
Q114 1.000 0.260 0.211 !       0.96 eA-3
Q115 0.766 0.609 0.203 !       0.94 eA-3
Q116 0.926 0.436 0.275 !       0.91 eA-3
Q117 1.000 0.249 0.113 !       0.87 eA-3
C118 0.850 0.747 0.016 !       0.87 eA-3
Q119 0.234 0.094 0.363 !       0.81 eA-3
C120 1.000 0.477 0.182 !       0.79 eA-3
C121 0.890 0.202 0.382 !       0.76 eA-3
C122 1.000 0.106 0.355 !       0.75 eA-3
Q123 0.500 0.749 0.090 !       0.74 eA-3
Q124 0.413 0.544 0.081 !       0.73 eA-3
Q125 0.230 0.827 0.259 !       0.71 eA-3
C126 0.982 0.046 0.169 !       0.70 eA-3
Q127 0.252 0.962 0.143 !       0.69 eA-3
Q128 0.344 0.113 0.015 !       0.68 eA-3
Q129 0.684 0.028 0.145 !       0.67 eA-3
C130 0.513 0.528 0.003 !       0.66 eA-3
Q131 1.000 0.484 0.302 !       0.66 eA-3
Q132 0.187 0.252 0.039 !       0.64 eA-3
Q133 0.432 0.750 0.051 !       0.64 eA-3
C134 0.417 0.625 0.390 !       0.64 eA-3
Q135 0.361 0.089 0.031 !       0.64 eA-3
Q136 0.842 0.346 0.449 !       0.63 eA-3
Q137 1.000 0.255 0.090 !       0.62 eA-3
C138 0.400 0.169 0.103 !       0.61 eA-3
Q139 0.500 0.847 0.172 !       0.60 eA-3
Q140 0.801 0.404 0.274 !       0.59 eA-3
Q141 0.820 0.012 0.136 !       0.59 eA-3
C142 0.390 0.764 0.469 !       0.57 eA-3
Q143 0.315 0.533 0.118 !       0.57 eA-3
Q144 0.815 0.033 0.618 !       0.57 eA-3
Q145 0.500 0.085 0.110 !       0.56 eA-3
C146 0.963 0.754 0.023 !       0.55 eA-3
C147 0.418 0.747 0.477 !       0.55 eA-3
Q148 0.500 0.121 0.209 !       0.55 eA-3
Q149 0.834 0.059 0.278 !       0.54 eA-3
Q150 0.346 0.828 0.469 !       0.54 eA-3
Q151 0.207 0.919 0.875 !       0.54 eA-3
C152 0.840 0.753 0.430 !       0.54 eA-3
Q153 0.780 0.669 0.004 !       0.53 eA-3
Q154 0.375 0.280 0.422 !       0.53 eA-3
Q155 0.288 0.220 0.473 !       0.53 eA-3
Q156 0.183 0.944 0.200 !       0.53 eA-3
C157 0.218 0.244 0.230 !       0.52 eA-3
Q158 0.767 0.535 0.040 !       0.52 eA-3
C159 0.869 0.249 0.473 !       0.52 eA-3
Q160 0.317 0.549 0.137 !       0.51 eA-3
Q161 0.767 0.954 0.187 !       0.51 eA-3
Q162 0.443 1.000 0.077 !       0.51 eA-3
C163 1.000 0.068 0.203 !       0.50 eA-3
)
;
_shelx_fab_checksum              23393
_platon_squeeze_void_probe_radius 1.20
_olex2_submission_special_instructions 'No special instructions were received'
loop_
_space_group_symop_operation_xyz
'x, y, z'
'-x+1/2, -y, z+1/2'
'-y+1/4, x+3/4, z+1/4'
'y+1/4, -x+1/4, z+3/4'
'-x+1/2, y, -z+1/2'
'x, -y, -z'
'y+1/4, x+3/4, -z+1/4'
'-y+1/4, -x+1/4, -z+3/4'
'x+1/2, y+1/2, z+1/2'
'-x+1, -y+1/2, z+1'
'-y+3/4, x+5/4, z+3/4'
'y+3/4, -x+3/4, z+5/4'
'-x+1, y+1/2, -z+1'
'x+1/2, -y+1/2, -z+1/2'
'y+3/4, x+5/4, -z+3/4'
'-y+3/4, -x+3/4, -z+5/4'
'-x, -y, -z'
'x-1/2, y, -z-1/2'
'y-1/4, -x-3/4, -z-1/4'
'-y-1/4, x-1/4, -z-3/4'
'x-1/2, -y, z-1/2'
'-x, y, z'
'-y-1/4, -x-3/4, z-1/4'
'y-1/4, x-1/4, z-3/4'
'-x+1/2, -y+1/2, -z+1/2'
'x, y+1/2, -z'
'y+1/4, -x-1/4, -z+1/4'
'-y+1/4, x+1/4, -z-1/4'
'x, -y+1/2, z'
'-x+1/2, y+1/2, z+1/2'
'-y+1/4, -x-1/4, z+1/4'
'y+1/4, x+1/4, z-1/4'
loop_
_atom_site_label
_atom_site_type_symbol
_atom_site_fract_x
_atom_site_fract_y
_atom_site_fract_z
_atom_site_U_iso_or_equiv
_atom_site_adp_type
_atom_site_occupancy
_atom_site_site_symmetry_order
_atom_site_calc_flag
_atom_site_refinement_flags_posn
_atom_site_refinement_flags_adp
_atom_site_refinement_flags_occupancy
_atom_site_disorder_assembly
_atom_site_disorder_group
Br1 Br 0.6630(8) -0.0242(6) 0.4295(2) 0.137(4) Uani 0.125 1 d D U . A 2
Br1A Br 0.7193(8) 0.0094(7) 0.43733(15) 0.134(4) Uani 0.125 1 d D U . A 1
Br2 Br 0.6978(6) 0.1393(6) 0.32791(14) 0.111(3) Uani 0.125 1 d D U . B 1
Br2A Br 0.7342(6) 0.1742(5) 0.33617(17) 0.092(3) Uani 0.125 1 d D U . B 2
Br3 Br 0.6890(5) 0.0438(6) 0.4762(2) 0.107(3) Uani 0.125 1 d D U . . .
Br3A Br 0.6722(6) 0.0066(6) 0.46428(19) 0.109(3) Uani 0.125 1 d D U . . .
Fe1 Fe 0.500000 0.250000 0.37814(2) 0.0309(3) Uani 1 4 d S T P . .
Fe2 Fe 0.59983(5) 0.250000 0.43280(2) 0.0327(3) Uani 1 2 d S T P . .
O1 O 0.500000 0.250000 0.41599(10) 0.0291(11) Uani 1 4 d S T P . .
O2 O 0.5918(2) 0.1575(2) 0.37600(7) 0.0511(8) Uani 1 1 d . . . . .
O3 O 0.6557(2) 0.1628(2) 0.41285(7) 0.0623(11) Uani 1 1 d . . . . .
O4 O 0.5678(2) 0.1622(3) 0.45810(8) 0.0682(12) Uani 1 1 d . . . . .
O5 O 0.500000 0.250000 0.33858(14) 0.065(2) Uani 1 4 d S T P . .
O6 O 0.7112(3) 0.250000 0.45375(11) 0.0656(15) Uani 1 2 d S T P . .
C1 C 0.6451(3) 0.1368(3) 0.39075(10) 0.0459(11) Uani 1 1 d . . . . .
C2 C 0.7059(3) 0.0712(3) 0.38265(11) 0.0561(12) Uani 1 1 d D U . . .
C3 C 0.7045(7) 0.0392(6) 0.3588(2) 0.060(2) Uiso 0.5 1 d D U . . .
C4 C 0.7309(7) 0.0106(7) 0.40026(19) 0.067(3) Uiso 0.5 1 d D U . . .
C5 C 0.7351(8) 0.0745(7) 0.3574(2) 0.077(3) Uiso 0.5 1 d D U . . .
C6 C 0.7637(7) 0.0427(7) 0.4001(2) 0.063(3) Uiso 0.5 1 d D U . . .
C7 C 0.500000 0.1362(4) 0.46488(13) 0.0494(16) Uani 1 2 d S T P . .
C8 C 0.500000 0.0654(5) 0.48299(14) 0.061(2) Uani 1 2 d DS T P . .
C9 C 0.5750(7) 0.0163(9) 0.4859(3) 0.082(3) Uiso 0.5 1 d D U . . .
C9A C 0.5704(7) 0.0471(8) 0.4961(3) 0.068(3) Uiso 0.5 1 d D U . . .
loop_
_atom_site_aniso_label
_atom_site_aniso_U_11
_atom_site_aniso_U_22
_atom_site_aniso_U_33
_atom_site_aniso_U_23
_atom_site_aniso_U_13
_atom_site_aniso_U_12
Br1 0.179(9) 0.097(6) 0.136(7) 0.045(5) 0.099(7) 0.052(6)
Br1A 0.191(9) 0.139(7) 0.072(4) 0.007(4) 0.027(5) 0.112(7)
Br2 0.134(7) 0.136(7) 0.064(4) 0.048(4) 0.042(4) 0.099(6)
Br2A 0.107(5) 0.071(4) 0.099(5) 0.045(3) 0.055(4) 0.049(3)
Br3 0.072(4) 0.117(6) 0.133(6) 0.059(4) 0.018(4) 0.007(4)
Br3A 0.093(4) 0.113(5) 0.122(6) 0.053(4) 0.043(4) 0.029(4)
Fe1 0.0282(6) 0.0300(6) 0.0345(6) 0.000 0.000 0.000
Fe2 0.0304(4) 0.0310(4) 0.0368(5) 0.000 -0.0020(3) 0.000
O1 0.029(3) 0.026(2) 0.033(3) 0.000 0.000 0.000
O2 0.0464(18) 0.0497(19) 0.057(2) -0.0088(16) 0.0001(15) 0.0162(15)
O3 0.056(2) 0.067(2) 0.064(2) -0.0244(19) -0.0101(18) 0.0341(18)
O4 0.052(2) 0.080(3) 0.072(3) 0.047(2) -0.0074(19) -0.0065(19)
O5 0.068(5) 0.083(6) 0.043(4) 0.000 0.000 0.000
O6 0.047(3) 0.085(4) 0.065(3) 0.000 -0.018(3) 0.000
C1 0.037(2) 0.038(2) 0.063(3) -0.005(2) 0.001(2) 0.0106(18)
C2 0.049(2) 0.050(2) 0.069(3) -0.008(2) 0.003(2) 0.017(2)
C7 0.060(4) 0.049(4) 0.039(3) 0.009(3) 0.000 0.000
C8 0.077(5) 0.056(4) 0.050(4) 0.025(4) 0.000 0.000
loop_
_atom_type_symbol
_atom_type_description
_atom_type_scat_dispersion_real
_atom_type_scat_dispersion_imag
_atom_type_scat_source
Br Br -0.2901 2.4595 'International Tables Vol C Tables 4.2.6.8 and 6.1.1.4'
C C 0.0033 0.0016 'International Tables Vol C Tables 4.2.6.8 and 6.1.1.4'
Fe Fe 0.3463 0.8444 'International Tables Vol C Tables 4.2.6.8 and 6.1.1.4'
O O 0.0106 0.0060 'International Tables Vol C Tables 4.2.6.8 and 6.1.1.4'
H H 0.0000 0.0000 'International Tables Vol C Tables 4.2.6.8 and 6.1.1.4'
loop_
_citation_id
_citation_doi
_citation_year
1 10.33774/chemrxiv-2021-lkt60 2021
loop_
_geom_angle_atom_site_label_1
_geom_angle_atom_site_label_2
_geom_angle_atom_site_label_3
_geom_angle
_geom_angle_site_symmetry_1
_geom_angle_site_symmetry_3
_geom_angle_publ_flag
C5 Br2A Br2A 145.5(5) . 29 ?
Br3A Br3 C9 75.4(9) . . ?
Br3 Br3A C9 77.6(9) . . ?
O1 Fe1 O2 93.03(10) . 22_655 ?
O1 Fe1 O2 93.03(10) . . ?
O1 Fe1 O2 93.03(10) . 10_554 ?
O1 Fe1 O2 93.03(10) . 29 ?
O1 Fe1 O5 180.0 . . ?
O2 Fe1 O2 89.4(2) 22_655 . ?
O2 Fe1 O2 173.9(2) 22_655 29 ?
O2 Fe1 O2 173.9(2) 10_554 . ?
O2 Fe1 O2 90.3(2) 22_655 10_554 ?
O2 Fe1 O2 89.4(2) 29 10_554 ?
O2 Fe1 O2 90.3(2) 29 . ?
O5 Fe1 O2 86.97(10) . 29 ?
O5 Fe1 O2 86.97(10) . . ?
O5 Fe1 O2 86.97(10) . 22_655 ?
O5 Fe1 O2 86.97(10) . 10_554 ?
O1 Fe2 O3 98.50(15) . . ?
O1 Fe2 O3 98.50(15) . 29 ?
O1 Fe2 O4 95.16(15) . 29 ?
O1 Fe2 O4 95.16(15) . . ?
O1 Fe2 O6 177.3(2) . . ?
O3 Fe2 O3 91.2(3) . 29 ?
O3 Fe2 O4 166.30(16) 29 . ?
O3 Fe2 O4 166.30(16) . 29 ?
O3 Fe2 O4 87.84(19) 29 29 ?
O3 Fe2 O4 87.84(19) . . ?
O3 Fe2 O6 83.41(16) 29 . ?
O3 Fe2 O6 83.41(16) . . ?
O4 Fe2 O4 89.9(3) 29 . ?
O4 Fe2 O6 82.91(16) . . ?
O4 Fe2 O6 82.91(16) 29 . ?
Fe2 O1 Fe1 118.62(15) . . ?
Fe2 O1 Fe1 118.63(15) 10_554 . ?
Fe2 O1 Fe2 122.8(3) . 10_554 ?
C1 O2 Fe1 131.8(3) . . ?
C1 O3 Fe2 132.2(3) . . ?
C7 O4 Fe2 131.5(4) . . ?
O2 C1 O3 126.9(4) . . ?
O2 C1 C2 118.8(4) . . ?
O3 C1 C2 114.3(4) . . ?
C3 C2 C1 121.3(6) . . ?
C3 C2 C4 110.1(7) . . ?
C3 C2 C5 31.8(6) . . ?
C3 C2 C6 119.5(8) . . ?
C4 C2 C1 119.6(6) . . ?
C4 C2 C5 123.2(7) . . ?
C5 C2 C1 117.2(6) . . ?
C6 C2 C1 119.3(6) . . ?
C6 C2 C4 30.8(6) . . ?
C6 C2 C5 113.9(7) . . ?
C2 C3 C4 124.3(9) . 15_535 ?
C2 C3 C6 111.3(9) . 15_535 ?
C4 C3 C6 28.4(6) 15_535 15_535 ?
C2 C4 Br1 123.3(8) . . ?
C2 C4 Br1A 129.2(8) . . ?
C3 C4 Br1 117.2(8) 15_535 . ?
C3 C4 Br1A 113.5(8) 15_535 . ?
C3 C4 C2 115.2(8) 15_535 . ?
C2 C5 Br2 131.1(8) . . ?
C2 C5 Br2A 124.2(8) . . ?
C2 C5 C4 106.5(8) . 15_535 ?
C2 C5 C6 117.1(9) . 15_535 ?
C4 C5 Br2 112.6(8) 15_535 . ?
C4 C5 Br2A 129.2(8) 15_535 . ?
C6 C5 Br2 111.0(8) 15_535 . ?
C6 C5 Br2A 115.0(8) 15_535 . ?
C6 C5 C4 27.2(6) 15_535 15_535 ?
C2 C6 C5 120.6(9) . 15_535 ?
O4 C7 O4 126.7(7) . 22_655 ?
O4 C7 C8 116.6(3) . . ?
O4 C7 C8 116.6(3) 22_655 . ?
C9 C8 C7 119.1(6) . . ?
C9 C8 C7 119.1(6) 22_655 . ?
C9 C8 C9 112.7(12) 22_655 . ?
C9A C8 C7 119.2(6) 22_655 . ?
C9A C8 C7 119.2(6) . . ?
C9A C8 C9 29.8(7) . . ?
C9A C8 C9 29.8(7) 22_655 22_655 ?
C9A C8 C9 121.7(7) . 22_655 ?
C9A C8 C9 121.7(7) 22_655 . ?
C9A C8 C9A 113.6(12) 22_655 . ?
Br3A C9 Br3 26.9(4) . . ?
C8 C9 Br3 129.2(9) . . ?
C8 C9 Br3A 130.9(9) . . ?
C9A C9 Br3 113.0(9) 6_556 . ?
C9A C9 Br3A 112.2(9) 6_556 . ?
C9A C9 C8 115.2(10) 6_556 . ?
C8 C9A C9 123.0(11) . 6_556 ?
loop_
_geom_bond_atom_site_label_1
_geom_bond_atom_site_label_2
_geom_bond_distance
_geom_bond_site_symmetry_2
_geom_bond_publ_flag
Br1 C4 1.982(12) . ?
Br1A C4 1.969(12) . ?
Br2 C5 1.978(12) . ?
Br2A Br2A 2.471(15) 29 ?
Br2A C5 1.975(12) . ?
Br3 Br3A 0.917(13) . ?
Br3 C9 1.979(13) . ?
Br3A C9 1.961(13) . ?
Fe1 O1 2.000(6) . ?
Fe1 O2 2.128(3) 22_655 ?
Fe1 O2 2.128(3) . ?
Fe1 O2 2.128(3) 10_554 ?
Fe1 O2 2.128(3) 29 ?
Fe1 O5 2.090(7) . ?
Fe2 O1 1.855(3) . ?
Fe2 O3 1.991(3) 29 ?
Fe2 O3 1.991(3) . ?
Fe2 O4 2.028(3) 29 ?
Fe2 O4 2.028(3) . ?
Fe2 O6 2.128(5) . ?
O2 C1 1.216(6) . ?
O3 C1 1.254(6) . ?
O4 C7 1.237(5) . ?
C1 C2 1.519(6) . ?
C2 C3 1.364(11) . ?
C2 C4 1.418(11) . ?
C2 C5 1.420(11) . ?
C2 C6 1.397(11) . ?
C3 C4 1.404(13) 15_535 ?
C3 C6 1.569(16) 15_535 ?
C5 C6 1.421(13) 15_535 ?
C7 C8 1.501(9) . ?
C8 C9 1.470(12) . ?
C8 C9 1.470(12) 22_655 ?
C8 C9A 1.373(11) . ?
C8 C9A 1.373(11) 22_655 ?
C9 C9A 1.408(12) 6_556 ?
loop_
_platon_squeeze_void_nr
_platon_squeeze_void_average_x
_platon_squeeze_void_average_y
_platon_squeeze_void_average_z
_platon_squeeze_void_volume
_platon_squeeze_void_count_electrons
_platon_squeeze_void_content
1 -0.176 0.657 0.052 7120 623 ' '
