#------------------------------------------------------------------------------
#$Date: 2021-10-15 01:17:29 +0300 (Fri, 15 Oct 2021) $
#$Revision: 269954 $
#$URL: file:///home/coder/svn-repositories/cod/cif/1/56/49/1564927.cif $
#------------------------------------------------------------------------------
#
# This file is available in the Crystallography Open Database (COD),
# http://www.crystallography.net/
#
# All data on this site have been placed in the public domain by the
# contributors.
#
data_1564927
loop_
_publ_author_name
'Albalad, jorge'
'Peralta, Ricardo'
'Huxley, Michael'
'Tsoukatos, Steven'
'Shi, Zhaolin'
'Zhang, Yue-Biao'
'Evans, Jack D.'
'Sumby, Christopher J.'
'Doonan, Christian J.'
_publ_section_title
;
 Coordination Modulated On-Off Switching of Flexibility in a Metal-organic
 Framework
;
_journal_name_full               'Chemical Science'
_journal_paper_doi               10.1039/D1SC04712D
_journal_year                    2021
_chemical_formula_moiety         'C75 H66 Cu I Mn3 N12 O12'
_chemical_formula_sum            'C75 H66 Cu I Mn3 N12 O12'
_chemical_formula_weight         1682.65
_space_group_crystal_system      monoclinic
_space_group_IT_number           11
_space_group_name_Hall           '-P 2yb'
_space_group_name_H-M_alt        'P 1 21/m 1'
_atom_sites_solution_hydrogens   geom
_atom_sites_solution_primary     dual
_audit_creation_date             2021-02-27
_audit_creation_method
;
Olex2 1.3
(compiled 2020.11.12 svn.r5f609507 for OlexSys, GUI svn.r6272)
;
_audit_update_record
;
2021-07-30 deposited with the CCDC.	2021-10-11 downloaded from the CCDC.
;
_cell_angle_alpha                90
_cell_angle_beta                 94.47(2)
_cell_angle_gamma                90
_cell_formula_units_Z            2
_cell_length_a                   12.334(2)
_cell_length_b                   34.440(8)
_cell_length_c                   13.084(2)
_cell_measurement_reflns_used    438
_cell_measurement_temperature    150(2)
_cell_measurement_theta_max      15.8690
_cell_measurement_theta_min      3.5480
_cell_volume                     5541.0(18)
_computing_cell_refinement
;
CrysAlisPro, Agilent Technologies,
Version 1.171.37.35h (release 09-02-2015 CrysAlis171 .NET)
(compiled Feb  9 2015,16:26:32)
;
_computing_data_collection
;
CrysAlisPro, Agilent Technologies,
Version 1.171.37.35h (release 09-02-2015 CrysAlis171 .NET)
(compiled Feb  9 2015,16:26:32)
;
_computing_data_reduction
;
CrysAlisPro, Agilent Technologies,
Version 1.171.37.35h (release 09-02-2015 CrysAlis171 .NET)
(compiled Feb  9 2015,16:26:32)
;
_computing_molecular_graphics    'Olex2 1.3 (Dolomanov et al., 2009)'
_computing_publication_material  'Olex2 1.3 (Dolomanov et al., 2009)'
_computing_structure_refinement  'SHELXL 2018/3 (Sheldrick, 2015)'
_computing_structure_solution    'SHELXT  (Sheldrick, 2015)'
_diffrn_ambient_environment      N~2~
_diffrn_ambient_temperature      150(2)
_diffrn_detector                 'CCD plate'
_diffrn_detector_area_resol_mean 16.1695
_diffrn_detector_type            Eos
_diffrn_measured_fraction_theta_full 0.964
_diffrn_measured_fraction_theta_max 0.795
_diffrn_measurement_details
;
#__ type_ start__ end____ width___ exp.time_
  1 omega  -21.00   73.00   1.0000  160.0000
omega____ theta____ kappa____ phi______ frames
    -       16.0830   19.0000  -60.0000 94

#__ type_ start__ end____ width___ exp.time_
  2 omega  -22.00    9.00   1.0000  160.0000
omega____ theta____ kappa____ phi______ frames
    -      -16.5517  -99.0000   60.0000 31

#__ type_ start__ end____ width___ exp.time_
  3 omega  -42.00   19.00   1.0000  160.0000
omega____ theta____ kappa____ phi______ frames
    -      -16.5517   37.0000   60.0000 61
;
_diffrn_measurement_device       'four-circle diffractometer'
_diffrn_measurement_device_type  'Xcalibur, Eos'
_diffrn_measurement_method       '\w scans'
_diffrn_orient_matrix_UB_11      -0.0113669000
_diffrn_orient_matrix_UB_12      -0.0201634000
_diffrn_orient_matrix_UB_13      -0.0024374000
_diffrn_orient_matrix_UB_21      -0.0457639000
_diffrn_orient_matrix_UB_22      0.0029396000
_diffrn_orient_matrix_UB_23      0.0287922000
_diffrn_orient_matrix_UB_31      -0.0331926000
_diffrn_orient_matrix_UB_32      0.0028939000
_diffrn_orient_matrix_UB_33      -0.0461200000
_diffrn_radiation_monochromator  graphite
_diffrn_radiation_probe          x-ray
_diffrn_radiation_type           'Mo K\a'
_diffrn_radiation_wavelength     0.71073
_diffrn_reflns_av_R_equivalents  0.3740
_diffrn_reflns_av_unetI/netI     0.9529
_diffrn_reflns_Laue_measured_fraction_full 0.964
_diffrn_reflns_Laue_measured_fraction_max 0.795
_diffrn_reflns_limit_h_max       16
_diffrn_reflns_limit_h_min       -16
_diffrn_reflns_limit_k_max       25
_diffrn_reflns_limit_k_min       -44
_diffrn_reflns_limit_l_max       16
_diffrn_reflns_limit_l_min       -12
_diffrn_reflns_number            19217
_diffrn_reflns_point_group_measured_fraction_full 0.964
_diffrn_reflns_point_group_measured_fraction_max 0.795
_diffrn_reflns_theta_full        25.000
_diffrn_reflns_theta_max         28.139
_diffrn_reflns_theta_min         3.313
_diffrn_source                   'Enhance (Mo) X-ray Source'
_exptl_absorpt_coefficient_mu    0.848
_exptl_absorpt_correction_T_max  1.00000
_exptl_absorpt_correction_T_min  0.70290
_exptl_absorpt_correction_type   multi-scan
_exptl_absorpt_process_details
;
CrysAlisPro, Agilent Technologies,
Version 1.171.37.35h (release 09-02-2015 CrysAlis171 .NET)
(compiled Feb  9 2015,16:26:32)
Empirical absorption correction using spherical harmonics,
 implemented in SCALE3 ABSPACK scaling algorithm.
;
_exptl_crystal_colour            'clear yellowish colourless'
_exptl_crystal_colour_lustre     clear
_exptl_crystal_colour_modifier   yellowish
_exptl_crystal_colour_primary    colourless
_exptl_crystal_density_diffrn    1.009
_exptl_crystal_description       plate
_exptl_crystal_F_000             1706
_exptl_crystal_size_max          0.29
_exptl_crystal_size_mid          0.13
_exptl_crystal_size_min          0.04
_refine_diff_density_max         1.786
_refine_diff_density_min         -0.672
_refine_diff_density_rms         0.222
_refine_ls_extinction_method     none
_refine_ls_goodness_of_fit_ref   0.955
_refine_ls_hydrogen_treatment    constr
_refine_ls_matrix_type           full
_refine_ls_number_parameters     401
_refine_ls_number_reflns         10966
_refine_ls_number_restraints     494
_refine_ls_restrained_S_all      0.936
_refine_ls_R_factor_all          0.5056
_refine_ls_R_factor_gt           0.1917
_refine_ls_shift/su_max          0.003
_refine_ls_shift/su_mean         0.000
_refine_ls_structure_factor_coef Fsqd
_refine_ls_weighting_details
'w=1/[\s^2^(Fo^2^)+(0.1896P)^2^] where P=(Fo^2^+2Fc^2^)/3'
_refine_ls_weighting_scheme      calc
_refine_ls_wR_factor_gt          0.4391
_refine_ls_wR_factor_ref         0.5919
_reflns_Friedel_coverage         0.000
_reflns_number_gt                1682
_reflns_number_total             10966
_reflns_threshold_expression     'I > 2\s(I)'
_cod_data_source_file            d1sc04712d2.cif
_cod_data_source_block           cucl_nai_cyclohexane
_cod_original_cell_volume        5541(2)
_cod_database_code               1564927
_shelx_shelxl_version_number     2018/3
_chemical_oxdiff_formula         C25H30N4O4Cu1
_shelx_space_group_comment
;
The symmetry employed for this shelxl refinement is uniquely defined
by the following loop, which should always be used as a source of
symmetry information in preference to the above space-group names.
They are only intended as comments.
;
_reflns_odcompleteness_completeness 96.35
_reflns_odcompleteness_iscentric 1
_reflns_odcompleteness_theta     25.01
_olex2_refinement_description
;
1. Fixed Uiso
 At 1.2 times of:
  All C(H) groups, All C(H,H) groups
 At 1.5 times of:
  All C(H,H,H) groups
2. Restrained distances
 C65-C67
 1.45 with sigma of 0.02
 C74-C77
 1.45 with sigma of 0.02
 C44-C47
 1.45 with sigma of 0.02
3. Uiso/Uaniso restraints and constraints
C1 \\sim C13 \\sim C14 \\sim C15 \\sim C16 \\sim C17 \\sim C21 \\sim C22 \\sim
C23 \\sim C24 \\sim C25 \\sim C26 \\sim C27 \\sim C33 \\sim C34 \\sim C35 \\sim
C36 \\sim C37 \\sim C41 \\sim C42 \\sim C43 \\sim C44 \\sim C45 \\sim C46 \\sim
C47 \\sim C51 \\sim C63 \\sim C64 \\sim C65 \\sim C66 \\sim C67 \\sim C71 \\sim
C72 \\sim C73 \\sim C74 \\sim C75 \\sim C76 \\sim C77 \\sim N11 \\sim N12 \\sim
N31 \\sim N32 \\sim N61 \\sim N62 \\sim O28 \\sim O29 \\sim O48 \\sim O49 \\sim
O78 \\sim O79: within 2A with sigma of 0.04 and sigma for terminal atoms of
0.08 within 2A
Uanis(C13) \\sim Ueq, Uanis(C77) \\sim Ueq: with sigma of 0.1 and sigma for
terminal atoms of 0.2
4. Rigid body (RIGU) restrains
 C1, C13, C14, C15, C16, C17, C21, C22, C23, C24, C25, C26, C27, C33, C34, C35,
  C36, C37, C41, C42, C43, C44, C45, C46, C47, C51, C63, C64, C65, C66, C67,
 C71, C72, C73, C74, C75, C76, C77, N11, N12, N31, N32, N61, N62, O28, O29, O48,
  O49, O78, O79
 with sigma for 1-2 distances of 0.004 and sigma for 1-3 distances of 0.004
5.a Secondary CH2 refined with riding coordinates:
 C1(H1A,H1B), C51(H51A,H51B)
5.b Aromatic/amide H refined with riding coordinates:
 C22(H22), C23(H23), C25(H25), C26(H26), C42(H42), C43(H43), C45(H45),
 C46(H46), C72(H72), C73(H73), C75(H75), C76(H76)
5.c Idealised Me refined as rotating group:
 C16(H16A,H16B,H16C), C17(H17A,H17B,H17C), C36(H36A,H36B,H36C), C37(H37A,H37B,
 H37C), C66(H66A,H66B,H66C), C67(H67A,H67B,H67C)
;
_smtbx_masks_void_probe_radius   1.2
_smtbx_masks_void_truncation_radius 1.2
_shelx_res_file
;
TITL CuCl_NaI_Cyclohexane in P2(1)/m
    cucl_nai_cyclohexane.res
    created by SHELXL-2018/3 at 17:23:39 on 24-Feb-2021
CELL 0.71073 12.3343 34.44 13.0841 90 94.472 90
ZERR 2 0.0024 0.0082 0.0023 0 0.02 0
LATT 1
SYMM -X,0.5+Y,-Z
SFAC C H Cu I Mn N O
UNIT 150 132 2 2 6 24 24
SIMU $C $N $O
RIGU $C $N $O
ISOR C13 C16 C24 C25 C44 C45 C76 C77
DFIX 1.45 C65 C67
DFIX 1.45 C74 C77
DFIX 1.45 C44 C47

L.S. 20
PLAN  5 0 0
TEMP -173
CONF
ABIN
BOND $H
GRID
MORE -1
fmap 2 1 53
acta 50
MERG 2
REM <olex2.extras>
REM <HklSrc "%.\\CuCl_NaI_Cyclohexane.hkl">
REM </olex2.extras>

WGHT    0.189600
FVAR       0.26226
I1    4    0.891592    0.250000    0.887347    10.50000    0.07195    0.02557 =
         0.05593    0.00000    0.00910    0.00000
MN1   5    1.293800   -0.063891    1.391614    11.00000    0.02087    0.02949 =
         0.02213   -0.00284    0.00135    0.00712
C1    1    1.213929   -0.141334    1.259156    11.00000    0.02410    0.02748 =
         0.01214    0.00429    0.00196    0.01643
AFIX  23
H1A   2    1.194637   -0.166423    1.225564    11.00000   -1.20000
H1B   2    1.271805   -0.146265    1.314381    11.00000   -1.20000
AFIX   0
MN2   5    1.500000    0.000000    1.500000    10.50000    0.02119    0.03039 =
         0.02169    0.00656    0.00181    0.00159
CU3   3    0.919023    0.250000    1.075193    10.50000    0.04481    0.02805 =
         0.06156    0.00000   -0.00012    0.00000
N11   6    1.121608   -0.125908    1.302143    11.00000    0.02351    0.02827 =
         0.01851   -0.00424    0.00917   -0.00070
N12   6    1.136121   -0.098111    1.377566    11.00000    0.01745    0.02461 =
         0.00641    0.00286    0.00324    0.00709
C13   1    1.036413   -0.085855    1.401648    11.00000    0.02439    0.03542 =
         0.02598   -0.01409    0.00880    0.00967
C14   1    0.958467   -0.104249    1.345528    11.00000    0.02423    0.03855 =
         0.02803   -0.00873    0.01210    0.00065
C15   1    1.014081   -0.129137    1.277162    11.00000    0.02569    0.03727 =
         0.01128   -0.00913    0.00888   -0.00021
C16   1    1.034590   -0.053133    1.474640    11.00000    0.01562
AFIX 137
H16A  2    1.043039   -0.063109    1.544956    11.00000   -1.50000
H16B  2    0.965150   -0.039339    1.463820    11.00000   -1.50000
H16C  2    1.094372   -0.035262    1.463524    11.00000   -1.50000
AFIX   0
C17   1    0.972991   -0.160327    1.202585    11.00000    0.01628    0.04306 =
         0.07708   -0.03856   -0.00590    0.01091
AFIX 137
H17A  2    1.014717   -0.159564    1.141870    11.00000   -1.50000
H17B  2    0.895907   -0.155813    1.182069    11.00000   -1.50000
H17C  2    0.981713   -0.185820    1.235473    11.00000   -1.50000
AFIX   0
C21   1    0.841085   -0.100070    1.341582    11.00000    0.02762    0.02335 =
         0.03189    0.00128    0.01741   -0.00435
C22   1    0.773237   -0.131844    1.352078    11.00000    0.03740    0.03695 =
         0.04629   -0.00051   -0.00255   -0.01894
AFIX  43
H22   2    0.803115   -0.157268    1.356512    11.00000   -1.20000
AFIX   0
C23   1    0.659383   -0.126455    1.356203    11.00000    0.03503    0.04006 =
         0.02375    0.00478   -0.01086   -0.02720
AFIX  43
H23   2    0.611515   -0.148062    1.356302    11.00000   -1.20000
AFIX   0
C24   1    0.618421   -0.087186    1.360244    11.00000    0.02381
C25   1    0.681907   -0.056823    1.349267    11.00000    0.03261
AFIX  43
H25   2    0.652675   -0.031329    1.350862    11.00000   -1.20000
AFIX   0
C26   1    0.796589   -0.062425    1.334737    11.00000    0.02219    0.03190 =
         0.02830    0.00281   -0.00209    0.00274
AFIX  43
H26   2    0.841105   -0.040856    1.320741    11.00000   -1.20000
AFIX   0
C27   1    0.497026   -0.083348    1.372117    11.00000    0.01409
O28   7    0.433812   -0.111424    1.376711    11.00000    0.03036    0.02674 =
         0.05806   -0.00262   -0.00394   -0.00540
O29   7    0.468078   -0.048966    1.384010    11.00000    0.01141    0.06708 =
         0.03606    0.00851    0.00126    0.00664
N31   6    1.254353   -0.115017    1.184783    11.00000    0.03207    0.02941 =
         0.00782   -0.00458    0.00201    0.00762
N32   6    1.275496   -0.075786    1.216263    11.00000    0.01564
C33   1    1.304126   -0.058269    1.129446    11.00000    0.02531
C34   1    1.285364   -0.087062    1.045151    11.00000    0.02632
C35   1    1.266895   -0.121483    1.081120    11.00000    0.04151    0.01717 =
         0.01247   -0.00369    0.00660    0.00822
C36   1    1.345958   -0.017688    1.140087    11.00000    0.03239
AFIX 137
H36A  2    1.284661    0.000315    1.142355    11.00000   -1.50000
H36B  2    1.387390   -0.011341    1.081369    11.00000   -1.50000
H36C  2    1.393288   -0.015391    1.203522    11.00000   -1.50000
AFIX   0
C37   1    1.246891   -0.160641    1.031722    11.00000    0.06307    0.01313 =
         0.00372    0.00100   -0.00309    0.01623
AFIX 137
H37A  2    1.285758   -0.162248    0.969327    11.00000   -1.50000
H37B  2    1.168785   -0.164064    1.014130    11.00000   -1.50000
H37C  2    1.273125   -0.181069    1.079597    11.00000   -1.50000
AFIX   0
C41   1    1.300829   -0.076127    0.937394    11.00000    0.01553    0.03552 =
         0.03414    0.01200   -0.01003   -0.01170
C42   1    1.375347   -0.050650    0.907391    11.00000    0.02900    0.02403 =
         0.02137   -0.00608    0.00823   -0.00917
AFIX  43
H42   2    1.420356   -0.037070    0.957653    11.00000   -1.20000
AFIX   0
C43   1    1.386949   -0.044116    0.805591    11.00000    0.02519    0.02545 =
         0.01837   -0.00546    0.00983    0.00783
AFIX  43
H43   2    1.441137   -0.025990    0.789524    11.00000   -1.20000
AFIX   0
C44   1    1.328939   -0.060910    0.726075    11.00000    0.01523
C45   1    1.255804   -0.088796    0.760813    11.00000    0.01960
AFIX  43
H45   2    1.214306   -0.103860    0.711089    11.00000   -1.20000
AFIX   0
C46   1    1.241040   -0.095509    0.866996    11.00000    0.02149
AFIX  43
H46   2    1.188634   -0.113763    0.886327    11.00000   -1.20000
AFIX   0
C47   1    1.342255   -0.055731    0.616279    11.00000    0.02680
O48   7    1.288350   -0.074901    0.551781    11.00000    0.03090
O49   7    1.404088   -0.029299    0.600633    11.00000    0.04818
C51   1    0.873273    0.250000    1.313865    10.50000    0.04578    0.03409 =
         0.04590    0.00000    0.01639    0.00000
AFIX  23
H51A  2    0.795785    0.250000    1.287639    10.50000   -1.20000
H51B  2    0.877189    0.250000    1.389728    10.50000   -1.20000
AFIX   0
N61   6    0.928524    0.215772    1.276589    11.00000    0.05010    0.03450 =
         0.04664    0.00104    0.01534    0.00481
N62   6    0.944678    0.206653    1.179950    11.00000    0.03525    0.03747 =
         0.04210    0.00153    0.00726    0.00516
C63   1    0.998931    0.173480    1.186065    11.00000    0.04490    0.03420 =
         0.02922   -0.00722   -0.00021    0.00502
C64   1    1.021106    0.159633    1.278302    11.00000    0.03069    0.03518 =
         0.02812   -0.00814    0.00430    0.00410
C65   1    0.977778    0.184272    1.342287    11.00000    0.03497    0.03003 =
         0.03834   -0.00267    0.01692   -0.00021
C66   1    1.029920    0.158547    1.087761    11.00000    0.03046    0.05883 =
         0.02312    0.01027    0.00166    0.03267
AFIX 137
H66A  2    1.049178    0.180269    1.044308    11.00000   -1.50000
H66B  2    0.968756    0.144196    1.053619    11.00000   -1.50000
H66C  2    1.092579    0.141174    1.099525    11.00000   -1.50000
AFIX   0
C67   1    0.973411    0.187300    1.455071    11.00000    0.12396    0.02662 =
         0.04082   -0.00085    0.02891   -0.00145
AFIX 137
H67A  2    0.943094    0.163307    1.481302    11.00000   -1.50000
H67B  2    0.927274    0.209301    1.471071    11.00000   -1.50000
H67C  2    1.046981    0.191289    1.487293    11.00000   -1.50000
AFIX   0
C71   1    1.085403    0.125811    1.315447    11.00000    0.01992    0.03744 =
         0.02000   -0.00787    0.00905    0.00240
C72   1    1.180581    0.127222    1.371861    11.00000    0.02708    0.00911 =
         0.04788    0.00056   -0.00330   -0.00644
AFIX  43
H72   2    1.207329    0.151758    1.395482    11.00000   -1.20000
AFIX   0
C73   1    1.239063    0.095819    1.396142    11.00000    0.03974    0.01952 =
         0.03653   -0.00233    0.00196    0.00902
AFIX  43
H73   2    1.303450    0.098084    1.440554    11.00000   -1.20000
AFIX   0
C74   1    1.207245    0.059319    1.357212    11.00000    0.03485    0.01280 =
         0.04758    0.00330   -0.00560    0.01256
C75   1    1.117070    0.057571    1.292676    11.00000    0.02942
AFIX  43
H75   2    1.095343    0.033100    1.264514    11.00000   -1.20000
AFIX   0
C76   1    1.052208    0.091022    1.264457    11.00000    0.03185
AFIX  43
H76   2    0.991477    0.089921    1.215208    11.00000   -1.20000
AFIX   0
C77   1    1.267292    0.023978    1.393183    11.00000    0.02801    0.01243 =
         0.03848    0.00111    0.00159    0.01403
O78   7    1.366134    0.028498    1.427323    11.00000    0.02850    0.03233 =
         0.05712    0.00205   -0.00229    0.01712
O79   7    1.230129   -0.007894    1.369626    11.00000    0.06209    0.01144 =
         0.02658    0.01141    0.01366   -0.00031
HKLF 4




REM  CuCl_NaI_Cyclohexane in P2(1)/m
REM wR2 = 0.5919, GooF = S = 0.955, Restrained GooF = 0.936 for all data
REM R1 = 0.1917 for 1682 Fo > 4sig(Fo) and 0.5056 for all 10966 data
REM 401 parameters refined using 494 restraints

END

WGHT      0.1894      0.0000

REM Highest difference peak  1.786,  deepest hole -0.672,  1-sigma level  0.222
Q1    1   0.9828  0.0405  1.0212  11.00000  0.05    1.79
Q2    1   0.9958 -0.0249  1.0934  11.00000  0.05    1.59
Q3    1   0.9395  0.0136  1.0755  11.00000  0.05    1.49
Q4    1   1.6258 -0.0989  1.0841  11.00000  0.05    1.46
Q5    1   1.5567 -0.1431  0.9687  11.00000  0.05    1.32
;
_shelx_res_checksum              38188
_shelx_hkl_file
;
   0 -44  -2 14.0682 191.468   3
   0 -43  -1-129.631 80.6480   3
   0 -43  -2-151.069 213.744   3
   0 -43  -3 312.389 267.639   3
   0 -42  -1 256.580 158.164   3
   0 -42  -2-92.2358 209.405   3
   0 -42  -3 211.296 325.550   3
   0 -42  -4 295.113 213.510   3
   0 -41   0 19.3345 224.583   3
   0 -41  -1 6.00023 237.994   3
   0 -41  -2 25.7415 132.865   3
   0 -41  -3-51.9506 110.558   3
   0 -41  -4-146.482 210.223   3
   0 -40   0 186.169 192.187   3
   0 -40  -1-58.3558 259.440   3
   0 -40  -2-132.555 209.022   3
   0 -40  -3-43.4098 54.7959   3
   0 -40   3 139.784 426.117   1
   0 -40   4 256.834 313.027   1
   0 -40  -4 54.6582 81.3447   3
   0 -40  -5 654.151 424.659   3
   0 -39   0-113.679 220.077   3
   0 -39   1-0.05928 98.5115   3
   0 -39  -1 113.366 313.325   3
   0 -39  -2 234.700 225.056   3
   0 -39   3-50.9057 131.110   1
   0 -39  -3 266.152 264.899   3
   0 -39  -4 170.926 260.677   3
   0 -39   4-26.7732 337.300   1
   0 -39  -5-172.498 71.6904   3
   0 -39   5-41.2634 165.854   1
   0 -38   0 79.6258 260.069   3
   0 -38  -1 120.866 236.217   3
   0 -38   1 230.142 253.904   3
   0 -38  -2 114.268 168.168   3
   0 -38   3-66.5491 64.1586   1
   0 -38  -3 62.7108 205.097   3
   0 -38   4 51.9584 119.171   1
   0 -38  -4 446.001 324.853   3
   0 -38   5-14.5172 39.3184   1
   0 -38  -5-153.679 113.659   3
   0 -38   6 292.939 263.549   1
   0 -38   7-124.588 214.482   1
   0 -37   0 84.6819 145.718   3
   0 -37   1 217.157 180.153   3
   0 -37  -1 17.7264 170.889   3
   0 -37  -2 92.7060 279.975   3
   0 -37   2 82.4459 58.3724   3
   0 -37  -3-78.3391 149.637   3
   0 -37   4 200.443 380.227   1
   0 -37  -4-89.4377 220.486   3
   0 -37   5-135.332 234.424   1
   0 -37  -5 417.135 430.824   3
   0 -37   6-201.321 81.1734   1
   0 -37   7 224.467 290.296   1
   0 -37   8 32.5559 118.384   1
   0 -36   0 235.857 217.195   3
   0 -36  -1-147.499 273.359   3
   0 -36   1 214.731 193.214   3
   0 -36  -2 79.0567 206.979   3
   0 -36   2 76.8031 124.962   3
   0 -36  -3-167.203 142.634   3
   0 -36   4-355.547 383.228   1
   0 -36  -4-170.029 237.447   3
   0 -36   5 144.217 104.737   1
   0 -36  -5 397.271 361.355   3
   0 -36   6-159.597 363.391   1
   0 -36  -6-143.738 224.146   3
   0 -36   7 115.962 85.2673   1
   0 -36   8 251.448 215.941   1
   0 -36   9 185.849 281.150   1
   0 -35   0-181.151 194.893   3
   0 -35  -1-2.79908 155.183   3
   0 -35   1 47.3271 179.442   3
   0 -35  -2-75.7987 104.166   3
   0 -35   2 87.3293 185.145   3
   0 -35   3 113.424 61.6705   3
   0 -35  -3 197.144 188.995   3
   0 -35   4 189.493 208.172   1
   0 -35  -4-157.875 23.4081   3
   0 -35  -5 53.3035 104.180   3
   0 -35   5-86.5435 121.344   1
   0 -35  -6 233.076 307.911   3
   0 -35   6-18.7915 241.414   1
   0 -35   7 89.4916 230.573   1
   0 -35   8-70.9304 127.140   1
   0 -35   9 248.684 345.466   1
   0 -35  10-46.6600 156.064   1
   0 -34   0 217.749 192.944   3
   0 -34  -1 334.525 254.428   3
   0 -34   1 630.251 323.435   3
   0 -34  -2-42.0325 38.3132   3
   0 -34   2-42.7007 111.976   3
   0 -34   3 48.9802 161.324   3
   0 -34  -3-58.5314 95.4682   3
   0 -34  -4-29.3039 106.038   3
   0 -34   4 101.253 235.824   1
   0 -34   5 175.054 210.918   1
   0 -34  -5 402.034 299.924   3
   0 -34   6-79.8043 33.8030   1
   0 -34  -6-17.9527 100.948   3
   0 -34   7-114.212 186.377   1
   0 -34   8-135.366 188.589   1
   0 -34   9-2.08027 178.594   1
   0 -34  10-136.908 244.230   1
   0 -33   0-56.2765 204.079   3
   0 -33  -1 15.5044 122.282   3
   0 -33   1 21.2645 49.3423   3
   0 -33   2-9.46028 76.7784   3
   0 -33  -2 89.8443 246.320   3
   0 -33   3 269.805 215.487   3
   0 -33  -3 238.784 195.943   3
   0 -33  -4-157.743 148.836   3
   0 -33   4 142.837 225.767   1
   0 -33  -5 168.859 274.636   3
   0 -33   5 204.554 233.277   1
   0 -33  -6-67.1435 222.484   3
   0 -33   6 128.787 189.798   1
   0 -33   7 55.8928 270.923   1
   0 -33   8 438.280 360.179   1
   0 -33   9-239.556 254.305   1
   0 -33  10 19.3339 322.267   1
   0 -33  11-25.4889 288.233   1
   0 -32   0 1657.96 543.442   3
   0 -32  -1-72.5692 130.700   3
   0 -32   1 76.0991 105.124   3
   0 -32  -2 134.881 164.093   3
   0 -32   2-166.867 239.077   3
   0 -32   3 120.748 157.273   3
   0 -32  -3-215.404 235.632   3
   0 -32   4 136.910 211.452   1
   0 -32   4 300.600 228.543   3
   0 -32  -4 212.387 163.812   3
   0 -32  -5 175.896 128.519   3
   0 -32   5 299.140 359.002   1
   0 -32  -6-159.408 145.183   3
   0 -32   6-105.751 106.516   1
   0 -32   7-136.112 85.9308   1
   0 -32   8 114.832 258.215   1
   0 -32   9 21.5444 87.2196   1
   0 -32  10 181.128 273.037   1
   0 -32  11 201.546 248.679   1
   0 -31   0 25.2784 117.409   3
   0 -31   1 281.957 226.804   3
   0 -31  -1 1.65925 41.6721   3
   0 -31  -2 332.238 247.872   3
   0 -31   2 376.533 240.503   3
   0 -31  -3 0.74750 41.8673   3
   0 -31   3 239.026 218.099   3
   0 -31   4 125.464 112.619   3
   0 -31   4-43.3467 209.440   1
   0 -31  -4 83.4986 188.879   3
   0 -31   5 47.3265 96.2544   1
   0 -31  -5 60.6761 139.966   3
   0 -31   6 351.599 354.301   1
   0 -31  -6 108.427 184.702   3
   0 -31   7 212.675 205.655   1
   0 -31   8 84.8225 141.709   1
   0 -31   9 208.557 310.706   1
   0 -31  10 321.090 184.151   1
   0 -31  11 196.774 305.853   1
   0 -31  12-117.275 120.109   1
   0 -30   0 84.2302 122.971   3
   0 -30  -1 710.542 363.604   3
   0 -30   1 1047.29 408.408   3
   0 -30   2-141.416 141.252   3
   0 -30  -2-74.9748 144.972   3
   0 -30  -3-9.28695 121.414   3
   0 -30   3 25.0105 128.531   3
   0 -30  -4 140.020 158.932   3
   0 -30   4 123.486 189.545   1
   0 -30   4-42.1308 129.245   3
   0 -30   5 120.660 127.409   3
   0 -30  -5 172.068 215.225   3
   0 -30   5 207.533 179.259   1
   0 -30  -6-36.5002 27.0113   3
   0 -30   6 84.6597 143.172   1
   0 -30   7-124.851 150.197   1
   0 -30   8 45.1687 128.712   1
   0 -30   9 125.315 34.0886   1
   0 -30  10 43.2802 75.8511   1
   0 -30  11 103.446 96.5996   1
   0 -30  12 43.9898 314.576   1
   0 -29   0-22.8282 62.7962   3
   0 -29  -1-141.893 127.525   3
   0 -29   1 16.5053 121.076   3
   0 -29  -2 90.6315 139.747   3
   0 -29   2-23.7000 76.8892   3
   0 -29  -3-9.21488 57.7703   3
   0 -29   3-16.3301 73.7473   3
   0 -29  -4 34.1301 46.4495   3
   0 -29   4 72.4792 98.2885   3
   0 -29   4 135.962 127.975   1
   0 -29  -5 160.772 254.638   3
   0 -29   5 58.2027 82.8683   1
   0 -29   5 95.4606 136.713   3
   0 -29   6-43.2921 219.127   1
   0 -29  -6 245.163 212.653   3
   0 -29   7-36.2691 199.416   1
   0 -29   8-54.6335 127.283   1
   0 -29   9 465.328 361.079   1
   0 -29  10 69.8223 75.8591   1
   0 -29  11 163.994 317.629   1
   0 -29  12 4.87218 180.546   1
   0 -28   0 305.085 212.394   3
   0 -28   1-26.9422 101.412   3
   0 -28  -1 98.3453 159.837   3
   0 -28  -2 47.5100 73.8846   3
   0 -28   2 111.634 136.684   3
   0 -28  -3 144.729 136.145   3
   0 -28   3 212.432 164.951   3
   0 -28   4 122.691 199.559   1
   0 -28  -4 16.5073 159.626   3
   0 -28   4 151.074 133.538   3
   0 -28   5 306.993 179.677   3
   0 -28   5 188.425 273.164   1
   0 -28  -6 150.233 83.5488   3
   0 -28   6 174.012 159.191   1
   0 -28   7-218.193 227.570   1
   0 -28   8-118.281 181.019   1
   0 -28   9 251.403 252.487   1
   0 -28  10-8.07065 164.588   1
   0 -28  11 115.369 202.574   1
   0 -28  12 232.599 230.791   1
   0 -27   0-13.0243 62.4988   3
   0 -27  -1-59.1280 98.9510   3
   0 -27   1-81.1177 80.7044   3
   0 -27   2 65.9041 122.612   3
   0 -27  -2 19.5494 26.6903   3
   0 -27   3 92.8401 140.972   3
   0 -27  -3 34.9027 94.0097   3
   0 -27  -4 127.428 191.476   3
   0 -27   4 97.2975 93.8168   3
   0 -27   4-72.8278 93.9784   1
   0 -27  -5 28.8244 137.563   3
   0 -27   5 147.478 138.715   3
   0 -27   5 302.994 259.156   1
   0 -27   6 171.741 117.208   1
   0 -27   6 194.554 153.358   3
   0 -27  -6 473.245 313.693   3
   0 -27   7 124.041 141.086   1
   0 -27   8-285.448 288.775   1
   0 -27   9 261.209 289.810   1
   0 -27  10-56.8252 226.805   1
   0 -27  11 137.220 256.732   1
   0 -27  12 248.194 357.553   1
   0 -26   0 1397.10 397.328   3
   0 -26  -1 200.430 179.234   3
   0 -26   1 28.7449 32.8068   3
   0 -26  -2 148.805 58.6301   3
   0 -26   2 15.2199 63.5434   3
   0 -26  -3 27.0847 44.3125   3
   0 -26   3 146.343 141.819   3
   0 -26   4 1236.59 439.962   1
   0 -26   4 1063.03 332.715   3
   0 -26  -4 1053.59 408.841   3
   0 -26   5 281.087 174.999   3
   0 -26  -5 22.1258 114.061   3
   0 -26   5 209.979 182.642   1
   0 -26  -6 258.970 194.548   3
   0 -26   6 292.155 139.666   3
   0 -26   6 155.954 211.935   1
   0 -26   7-236.391 219.670   1
   0 -26   8 168.466 205.352   1
   0 -26   9-20.1141 152.385   1
   0 -26  10 300.116 365.616   1
   0 -26  11 23.3070 110.113   1
   0 -26  12 429.587 409.907   1
   0 -25   0 54.0466 66.8441   3
   0 -25  -1 114.080 177.642   3
   0 -25   1 127.918 101.202   3
   0 -25  -2 211.401 160.971   3
   0 -25   2-1.34005 15.6500   3
   0 -25  -3 184.460 151.282   3
   0 -25   3 204.671 184.862   3
   0 -25   4-102.631 95.1049   1
   0 -25   4 125.578 83.1262   3
   0 -25  -4 116.383 142.677   3
   0 -25   5-52.3130 176.191   1
   0 -25   5 38.3226 68.9898   3
   0 -25  -5 148.560 122.954   3
   0 -25   6 213.043 144.381   3
   0 -25  -6 167.097 168.773   3
   0 -25   6 247.394 199.955   1
   0 -25   7 8.32802 117.765   1
   0 -25   8-126.591 206.821   1
   0 -25   9 182.000 209.479   1
   0 -25  10 88.1739 184.881   1
   0 -25  11 182.745 270.216   1
   0 -25  12 218.646 291.078   1
   0 -24   0 751.055 271.463   3
   0 -24  -1 758.374 303.539   3
   0 -24   1 1010.54 332.530   3
   0 -24  -2 70.2731 108.519   3
   0 -24   2 62.2278 42.7535   3
   0 -24  -3 213.644 167.190   3
   0 -24   3 178.288 130.617   3
   0 -24   4 222.952 97.2040   1
   0 -24   4-11.9798 75.8990   3
   0 -24  -4 316.860 222.480   3
   0 -24   5 734.383 359.775   1
   0 -24   5 900.732 270.719   3
   0 -24  -5 668.642 314.340   3
   0 -24  -6-69.3917 136.638   3
   0 -24   6 23.7859 57.9753   3
   0 -24   6 137.720 142.552   1
   0 -24   7 164.175 129.175   3
   0 -24   7 37.5092 170.184   1
   0 -24   8 36.1853 130.331   1
   0 -24   9 188.835 238.204   1
   0 -24  10-25.3539 184.670   1
   0 -24  11 51.7775 48.6795   1
   0 -24  12 260.740 276.998   1
   0 -23   0 153.581 185.995   3
   0 -23   1 13.1614 68.6538   3
   0 -23  -1 123.789 178.687   3
   0 -23   2 442.430 179.624   3
   0 -23  -2 467.023 242.483   3
   0 -23   3-31.3874 101.608   3
   0 -23  -3-177.708 151.778   3
   0 -23   4 115.686 162.717   1
   0 -23  -4 18.8527 140.927   3
   0 -23   4 33.4502 133.283   3
   0 -23   5-45.7431 127.607   1
   0 -23  -5-8.93560 153.712   3
   0 -23   5 43.4226 96.2442   3
   0 -23   6 82.7549 99.0121   3
   0 -23   6 146.016 138.278   1
   0 -23  -6 212.522 80.4001   3
   0 -23   7 84.0065 86.4235   3
   0 -23   7 240.057 196.246   1
   0 -23   8 81.4456 224.203   1
   0 -23   9 105.737 199.066   1
   0 -23  10 434.655 338.020   1
   0 -23  11 212.503 155.704   1
   0 -23  12 284.145 200.282   1
   0 -22   0 1069.82 315.290   3
   0 -22  -1 298.262 156.498   3
   0 -22   1 479.978 180.609   3
   0 -22  -2-36.8088 80.2540   3
   0 -22   2-108.829 76.9476   3
   0 -22  -3-27.5467 78.5604   3
   0 -22   3 67.8635 90.0112   3
   0 -22   4 912.745 355.905   1
   0 -22   4 948.547 281.904   3
   0 -22  -4 1004.75 366.909   3
   0 -22  -5 143.216 130.835   3
   0 -22   5 31.8147 80.6536   1
   0 -22   5 79.8597 94.7295   3
   0 -22   6 594.258 200.897   3
   0 -22   6 287.009 209.340   1
   0 -22  -6 345.309 191.551   3
   0 -22   7-59.0461 119.406   1
   0 -22   7 117.358 119.364   3
   0 -22   8 192.656 171.404   1
   0 -22   9-238.625 192.997   1
   0 -22  10 265.715 314.795   1
   0 -22  11-149.898 114.220   1
   0 -22  12-54.2452 74.8250   1
   0 -21   0 95.0840 119.972   3
   0 -21   1 190.612 118.617   3
   0 -21  -1 364.534 173.609   3
   0 -21  -2 66.8625 93.6826   3
   0 -21   2-44.4785 68.6212   3
   0 -21   3 542.615 190.151   3
   0 -21  -3 480.174 257.261   3
   0 -21  -4 274.016 169.186   3
   0 -21   4 432.628 258.597   1
   0 -21   4 284.300 146.856   3
   0 -21   5 318.747 153.088   3
   0 -21  -5 385.207 206.932   3
   0 -21   5 226.978 67.5462   1
   0 -21   6-54.1833 101.371   1
   0 -21   6-36.1257 75.9685   3
   0 -21  -6 103.303 119.882   3
   0 -21   7-35.5499 143.864   1
   0 -21   8 98.7270 171.522   1
   0 -21   9 162.233 160.487   1
   0 -21  10 208.156 223.723   1
   0 -21  11 282.233 210.742   1
   0 -21  12-121.832 235.052   1
   0 -20   0 1256.54 326.836   3
   0 -20  -1 366.640 200.339   3
   0 -20   1 346.253 179.413   3
   0 -20   2 238.598 143.711   3
   0 -20  -2 178.399 136.528   3
   0 -20  -3 39.2169 87.3040   3
   0 -20   3 163.654 98.4400   3
   0 -20   4 163.814 108.200   1
   0 -20   4 194.267 103.195   3
   0 -20  -4 108.970 127.006   3
   0 -20  -5 621.831 292.913   3
   0 -20   5 712.659 213.313   3
   0 -20   5 690.271 291.125   1
   0 -20  -6 224.223 140.590   3
   0 -20  -6 67.1182 95.0549   2
   0 -20   6-38.1072 106.752   1
   0 -20   6 119.183 95.5200   3
   0 -20   7 216.263 123.903   1
   0 -20  -7-6.38072 127.524   2
   0 -20   8 438.908 272.678   1
   0 -20   9-14.6042 74.1082   1
   0 -20  10-80.5016 223.916   1
   0 -20  11 15.9222 53.1491   1
   0 -20  12-100.227 46.1779   1
   0 -19   0-25.0305 5.18873   3
   0 -19  -1 123.145 113.211   3
   0 -19   1 197.463 130.366   3
   0 -19   2 135.709 81.3585   3
   0 -19  -2-40.6754 86.0768   3
   0 -19   3 185.681 114.515   3
   0 -19  -3 219.487 157.884   3
   0 -19   4 89.3524 98.8377   3
   0 -19  -4 108.048 55.1774   3
   0 -19   4-60.8066 94.5592   1
   0 -19  -5 43.0477 101.179   3
   0 -19   5 74.9677 60.7451   3
   0 -19  -5 407.314 219.934   2
   0 -19   5 74.1557 137.498   1
   0 -19  -6 417.739 244.011   3
   0 -19  -6 824.258 281.564   2
   0 -19   6 593.356 267.810   1
   0 -19  -7-204.758 168.545   2
   0 -19   7 28.5961 139.076   1
   0 -19   8 181.185 164.951   1
   0 -19   9 131.128 163.770   1
   0 -19  10 30.9891 65.5156   1
   0 -19  11 138.364 202.040   1
   0 -19  12 147.628 80.2844   1
   0 -18   0 373.018 152.437   3
   0 -18   1 1263.40 314.427   3
   0 -18  -1 1268.80 330.292   3
   0 -18   2 34.7799 58.9448   3
   0 -18  -2 126.223 82.6293   3
   0 -18  -3 81.9720 92.0801   3
   0 -18   3 69.9714 97.8942   3
   0 -18   4 176.779 142.806   1
   0 -18  -4 145.391 81.2206   3
   0 -18   4 208.361 117.252   3
   0 -18  -5 545.932 218.695   2
   0 -18   5 166.559 44.7570   1
   0 -18   5 259.323 124.582   3
   0 -18  -5 69.8074 50.3326   3
   0 -18   6 808.697 320.221   1
   0 -18  -6 822.054 204.955   2
   0 -18  -6 966.812 359.168   3
   0 -18  -7 35.9211 71.1028   2
   0 -18   7 57.3301 103.843   1
   0 -18   8-41.9253 35.6152   1
   0 -18   9 403.319 251.737   1
   0 -18  10 131.715 155.177   1
   0 -18  11 7.58152 247.264   1
   0 -18  12 4.74807 167.384   1
   0 -17   0 97.7393 121.729   3
   0 -17   1 572.383 186.582   3
   0 -17  -1 468.285 204.200   3
   0 -17  -2 231.030 136.785   3
   0 -17   2 242.550 127.258   3
   0 -17  -3 71.4931 71.2717   3
   0 -17   3 33.2631 62.9142   3
   0 -17   4-39.7702 61.7018   3
   0 -17  -4 165.666 182.326   3
   0 -17   4 31.0577 45.7644   1
   0 -17  -5 372.079 185.508   2
   0 -17  -5 69.6189 49.5441   3
   0 -17   5 336.829 220.567   1
   0 -17   6 217.963 162.434   1
   0 -17  -6 284.952 108.770   2
   0 -17  -6 268.878 184.759   3
   0 -17   7 912.732 364.228   1
   0 -17   8-66.5962 166.646   1
   0 -17   9 166.329 155.937   1
   0 -17  10 33.1881 205.880   1
   0 -17  11 365.039 263.798   1
   0 -17  12 181.807 189.940   1
   0 -16   0 3906.29 510.678   3
   0 -16  -1 73.2653 57.6795   3
   0 -16   1 125.317 77.7452   3
   0 -16   2 175.653 101.825   3
   0 -16  -2-27.3445 52.6683   3
   0 -16  -3 53.1672 34.8073   3
   0 -16   3 80.0696 78.9762   3
   0 -16  -4 748.305 258.335   3
   0 -16   4 847.325 270.921   1
   0 -16   4 932.602 216.921   3
   0 -16  -5 1535.92 309.043   2
   0 -16  -5 1219.91 365.366   3
   0 -16   5 1345.17 389.816   1
   0 -16  -6-3.46700 90.9284   3
   0 -16  -6-117.870 151.574   2
   0 -16   6 46.1642 131.812   1
   0 -16   7 216.588 197.814   1
   0 -16   8 164.633 158.832   1
   0 -16   9 205.479 202.343   1
   0 -16  10 369.154 214.201   1
   0 -16  11 168.156 244.721   1
   0 -16  12 82.8387 170.757   1
   0 -15   0 98.9368 88.6021   3
   0 -15   1 132.995 69.6860   3
   0 -15  -1 110.831 75.9374   3
   0 -15  -2 155.705 132.937   3
   0 -15   2 77.6634 84.2071   3
   0 -15   3 103.291 81.4208   3
   0 -15  -3 212.591 169.505   3
   0 -15  -4 18.4923 77.7762   3
   0 -15   4 96.5051 90.2492   1
   0 -15  -5-91.6649 88.6718   3
   0 -15   5 28.7042 94.7502   1
   0 -15  -5 9.52207 26.2072   2
   0 -15  -6 468.054 226.177   3
   0 -15   6 616.758 261.394   1
   0 -15  -6 335.823 76.2355   2
   0 -15   7 500.120 211.170   1
   0 -15   8-99.2025 122.917   1
   0 -15   9-51.4021 74.3950   1
   0 -15  10 200.920 204.529   1
   0 -15  11 313.352 270.569   1
   0 -15  12 172.033 190.017   1
   0 -14   0 483.081 182.121   3
   0 -14   1 1031.81 225.167   3
   0 -14  -1 996.571 228.243   3
   0 -14   2 27.0096 14.4515   3
   0 -14  -2 98.6085 105.107   3
   0 -14  -3 39.1834 51.3524   3
   0 -14   3 107.185 81.7754   3
   0 -14   4 1272.35 313.055   1
   0 -14  -4 1077.27 312.174   3
   0 -14  -5 97.5882 51.2158   3
   0 -14  -5 170.806 46.6316   2
   0 -14   5 112.434 123.086   1
   0 -14   6 137.795 123.960   1
   0 -14  -6 59.3649 61.4577   2
   0 -14  -6 138.956 146.003   3
   0 -14   7 39.3378 144.464   1
   0 -14   8 120.775 83.4200   1
   0 -14   9 511.232 243.298   1
   0 -14  10 96.1706 161.132   1
   0 -14  11 165.371 164.796   1
   0 -14  12 256.738 275.241   1
   0 -13   0 15.3745 51.8497   3
   0 -13  -1 40.0710 50.4993   3
   0 -13   1 12.7216 54.1105   3
   0 -13   2 1026.75 223.720   3
   0 -13  -2 972.148 266.429   3
   0 -13  -3 0.88857 69.1065   3
   0 -13   3 89.9049 93.0767   1
   0 -13  -4 573.664 190.633   2
   0 -13   4 127.774 67.4723   1
   0 -13  -4 266.204 158.187   3
   0 -13  -5 329.211 180.826   3
   0 -13  -5 284.733 100.832   2
   0 -13   5 230.882 132.484   1
   0 -13   6 87.9784 97.6765   1
   0 -13   7 3.76404 52.2318   1
   0 -13   8 140.297 96.0235   1
   0 -13   9 162.953 161.781   1
   0 -13  10 52.8932 103.107   1
   0 -13  11-23.0798 106.641   1
   0 -13  12 456.053 306.430   1
   0 -12   0 3813.56 432.911   3
   0 -12  -1 1150.71 240.803   3
   0 -12   1 1121.79 221.997   3
   0 -12   2 926.296 202.632   3
   0 -12  -2 805.838 238.551   3
   0 -12   3 490.064 168.533   1
   0 -12  -3 578.988 204.769   3
   0 -12  -4 19.3805 38.4375   3
   0 -12   4 101.952 101.196   1
   0 -12  -4 86.6490 86.8458   2
   0 -12  -5 472.786 220.514   3
   0 -12  -5 146.612 78.7859   2
   0 -12   5 424.549 201.332   1
   0 -12   6 271.255 158.525   1
   0 -12   7 196.997 146.345   1
   0 -12   8 238.820 174.319   1
   0 -12   9 54.6656 102.248   1
   0 -12  10-32.8875 48.0182   1
   0 -12  11 265.919 240.695   1
   0 -12  12-77.4405 78.4712   1
   0 -12  13-136.019 87.6616   1
   0 -11   0 44.1480 70.5615   3
   0 -11  -1 183.044 93.4514   3
   0 -11   1 149.503 91.3336   3
   0 -11   2 54.0443 59.7884   3
   0 -11  -2 64.9688 68.9520   3
   0 -11  -3 368.228 160.477   3
   0 -11   3 344.056 168.764   1
   0 -11  -4 1135.67 208.331   2
   0 -11   4 1166.12 288.773   1
   0 -11  -4 1140.31 305.170   3
   0 -11  -5 125.993 75.3674   2
   0 -11  -5 295.393 167.693   3
   0 -11   5 128.920 121.231   1
   0 -11  -6 167.419 154.988   1
   0 -11   6-96.3461 111.083   1
   0 -11   7 623.325 253.277   1
   0 -11   8 127.735 121.197   1
   0 -11   9 6.64652 126.329   1
   0 -11  10 504.873 273.941   1
   0 -11  11 983.956 378.088   1
   0 -11  12 208.054 92.8888   1
   0 -11  13 48.1516 188.204   1
   0 -10   0 4402.17 426.466   3
   0 -10  -1 1624.05 278.320   3
   0 -10   1 1796.54 261.058   3
   0 -10   2 10.3069 36.4643   3
   0 -10  -2 4.50777 28.3499   3
   0 -10   3 324.464 142.010   1
   0 -10  -3 288.389 156.001   3
   0 -10   4 879.940 233.529   1
   0 -10  -4 549.225 191.095   3
   0 -10  -4 632.006 141.087   2
   0 -10  -5 132.339 68.9900   3
   0 -10   5 162.667 108.967   1
   0 -10  -6 1275.25 308.728   1
   0 -10   6 1100.04 304.268   1
   0 -10   7 157.603 152.306   1
   0 -10   8-103.875 123.277   1
   0 -10   9 141.765 135.189   1
   0 -10  10 258.061 200.946   1
   0 -10  11 54.1342 61.1725   1
   0 -10  12 99.6657 158.395   1
   0 -10  13-48.7441 122.622   1
   0  -9   0 28.2446 43.7211   3
   0  -9   1 441.088 122.013   3
   0  -9  -1 533.838 158.258   3
   0  -9  -2 1369.11 267.758   3
   0  -9  -3 813.257 182.370   2
   0  -9  -3 555.294 184.552   3
   0  -9   3 754.334 214.733   1
   0  -9   4 27.1950 95.0669   1
   0  -9  -4-8.98699 69.8301   2
   0  -9  -4-4.03211 65.9207   3
   0  -9   5-1.15224 101.410   1
   0  -9  -5 5.47475 70.0875   1
   0  -9   6 2870.19 467.559   1
   0  -9  -6 2990.09 475.736   1
   0  -9  -7 23.9046 112.004   1
   0  -9   7 59.0530 113.307   1
   0  -9   8 51.2924 27.4339   1
   0  -9   9 270.333 140.789   1
   0  -9  10 31.8962 125.093   1
   0  -9  11-3.96199 92.4340   1
   0  -9  12 650.495 359.693   1
   0  -9  13 10.4642 75.2258   1
   0  -8   0 715.405 151.759   3
   0  -8   1 3587.10 319.358   3
   0  -8  -1 3461.76 371.771   3
   0  -8  -2 33.9021 22.0839   3
   0  -8  -3 193.879 93.6509   2
   0  -8  -3 51.6003 21.9098   3
   0  -8   3 108.403 68.1884   1
   0  -8   4 242.754 109.147   1
   0  -8  -4 266.285 58.4583   2
   0  -8  -4 274.449 132.659   3
   0  -8  -5 4338.72 504.599   1
   0  -8   5 3904.94 507.496   1
   0  -8  -6 32.7845 88.0710   1
   0  -8   6-51.5252 87.1458   1
   0  -8   7 69.4828 52.4968   1
   0  -8  -7 92.9642 64.7603   1
   0  -8   8 54.2056 101.141   1
   0  -8   9 83.3735 46.3367   1
   0  -8  10-92.0388 146.217   1
   0  -8  11-20.9300 151.449   1
   0  -8  12 125.133 227.553   1
   0  -8  13 168.472 207.803   1
   0  -7   0 28.1517 51.8203   3
   0  -7  -1 3310.66 334.001   3
   0  -7   1 3571.48 291.833   3
   0  -7  -2 616.323 157.215   3
   0  -7   2 676.118 177.245   1
   0  -7  -3 626.136 121.291   2
   0  -7   3 633.719 177.432   1
   0  -7  -3 648.143 190.612   3
   0  -7  -4-17.3995 50.0883   3
   0  -7   4-36.7427 75.1437   1
   0  -7   5 237.865 107.966   1
   0  -7  -5 234.228 92.2002   1
   0  -7   6-82.1644 97.9400   1
   0  -7  -6 59.6740 78.6732   1
   0  -7  -7 75.4415 93.7950   1
   0  -7   7-38.3552 49.2063   1
   0  -7   8 0.02560 109.261   1
   0  -7   9-151.360 153.174   1
   0  -7  10-8.68708 24.5923   1
   0  -7  11 58.3342 52.4150   1
   0  -7  12 521.912 288.591   1
   0  -7  13 118.890 169.114   1
   0  -6   0 12937.6 542.805   3
   0  -6   1 373.726 92.8300   3
   0  -6  -1 350.219 116.545   3
   0  -6  -2 284.355 108.882   3
   0  -6   2 289.453 106.182   1
   0  -6   3 1306.55 236.597   1
   0  -6  -3 1044.51 136.568   2
   0  -6  -3 1150.49 244.745   3
   0  -6  -4 3580.53 407.365   1
   0  -6   4 3616.55 426.701   1
   0  -6  -5-32.1093 62.0053   1
   0  -6   5 27.2557 73.6382   1
   0  -6   6 1209.09 283.582   1
   0  -6  -6 1003.54 237.740   1
   0  -6   7-17.1303 20.4343   1
   0  -6  -7 62.1629 30.6343   1
   0  -6   8 149.707 135.968   1
   0  -6  -8 184.456 98.5684   1
   0  -6   9 26.1797 81.3771   1
   0  -6  10 3.76426 41.4880   1
   0  -6  11 86.9662 75.4562   1
   0  -6  12 283.969 249.466   1
   0  -6  13 119.874 179.760   1
   0  -5  -1 65.3438 33.8674   3
   0  -5  -2 183.191 85.8928   2
   0  -5   2-8.25787 43.4135   1
   0  -5  -2 29.8862 43.6947   3
   0  -5   3 1895.86 265.589   1
   0  -5  -3 1944.86 313.677   3
   0  -5   4 122.280 56.3737   1
   0  -5  -4 220.281 94.8227   1
   0  -5  -5 1979.97 309.665   1
   0  -5   5 1909.45 326.826   1
   0  -5  -6-31.3919 78.9045   1
   0  -5   6 49.1694 81.2102   1
   0  -5  -7 742.544 218.101   1
   0  -5   7 753.086 251.565   1
   0  -5   8 105.916 101.891   1
   0  -5  -8 61.4534 127.019   1
   0  -5   9 134.695 116.875   1
   0  -5  10 157.311 122.223   1
   0  -5  11 522.956 264.031   1
   0  -5  12 104.015 139.341   1
   0  -5  13 123.189 152.391   1
   0  -4  -2 1418.76 219.607   3
   0  -4   2 1476.05 194.612   1
   0  -4  -2 1387.83 131.757   2
   0  -4   3 3816.61 366.324   1
   0  -4  -3 3968.96 366.257   1
   0  -4  -4 73.8841 49.4634   1
   0  -4   4 70.9222 51.6407   1
   0  -4  -5 918.043 205.189   1
   0  -4   5 772.969 202.315   1
   0  -4   6 159.474 87.9312   1
   0  -4  -6 74.4040 64.9791   1
   0  -4  -7 20.4199 26.6749   1
   0  -4   7 1.75569 59.2988   1
   0  -4   8 224.814 138.317   1
   0  -4  -8 74.4863 52.0008   1
   0  -4   9-83.7365 49.1382   1
   0  -4  10 165.336 168.383   1
   0  -4  11-28.8150 88.8966   1
   0  -4  12 62.2580 141.267   1
   0  -4  13-2.11689 130.446   1
   0  -3   2 4917.03 342.877   1
   0  -3  -2 4545.61 368.203   3
   0  -3   3 672.499 150.556   1
   0  -3  -3 525.529 122.465   1
   0  -3  -4 123.869 37.1572   1
   0  -3   4 111.534 58.0419   1
   0  -3  -5 753.877 164.629   1
   0  -3   5 805.893 195.302   1
   0  -3  -6 3644.81 449.485   1
   0  -3   6 3618.02 461.048   1
   0  -3   7 95.6930 66.1241   1
   0  -3  -7 122.836 100.295   1
   0  -3  -8 31.2148 7.63144   1
   0  -3   8 93.0123 70.2544   1
   0  -3   9-74.2759 64.1371   1
   0  -3  10 671.552 267.957   1
   0  -3  11-131.678 113.238   1
   0  -3  12 122.237 115.056   1
   0  -3  13-66.1962 112.412   1
   0  -2   3 962.378 164.528   1
   0  -2  -3 994.681 168.694   1
   0  -2  -4 839.531 178.620   1
   0  -2   4 787.928 170.001   1
   0  -2  -5 2224.16 303.451   1
   0  -2   5 2159.31 314.439   1
   0  -2  -6 24.2669 19.2827   1
   0  -2   6-32.3003 45.1544   1
   0  -2   7 221.437 116.214   1
   0  -2  -7 203.570 112.192   1
   0  -2  -8 559.448 182.558   1
   0  -2   8 632.071 217.928   1
   0  -2   9 553.801 199.778   1
   0  -2  10-59.7786 43.7358   1
   0  -2  11 52.8834 54.1128   1
   0  -2  12 10.3533 62.1219   1
   0  -2  13 158.659 103.488   1
   0  -1   3 215.831 68.4728   1
   0  -1  -3 220.345 65.6117   1
   0  -1   4 6.82711 41.5232   1
   0  -1  -4-7.27858 10.6509   1
   0  -1   5 1186.31 231.325   1
   0  -1  -5 1095.00 197.166   1
   0  -1   6 189.040 88.7345   1
   0  -1  -6 157.159 96.2663   1
   0  -1   7 369.068 150.515   1
   0  -1  -7 338.996 119.404   1
   0  -1  -8 12.0150 19.7208   1
   0  -1   8 40.3177 106.257   1
   0  -1   9 170.308 126.663   1
   0  -1  10 23.5988 91.5144   1
   0  -1  11 257.373 189.664   1
   0  -1  12 99.7925 131.350   1
   0   0   3 4142.01 336.067   1
   0   0  -3 4323.80 335.634   1
   0   0   4 9893.57 595.378   1
   0   0  -4 9947.81 582.232   1
   0   0  -5 181.686 91.5553   1
   0   0   5 4.74798 68.2331   1
   0   0  -6 740.452 176.294   1
   0   0   6 704.347 195.009   1
   0   0   7 1425.68 303.990   1
   0   0   7 1735.12 357.541   3
   0   0  -7 1701.72 307.182   1
   0   0  -8 872.590 213.856   1
   0   0   8 757.579 217.324   1
   0   0   9 825.451 250.687   1
   0   0  10 489.983 210.037   1
   0   0  11 219.123 201.508   1
   0   0  12 32.5464 99.2156   1
   0   1  -3 206.082 70.5997   1
   0   1   3 262.155 76.2279   1
   0   1  -4 99.5315 60.8033   1
   0   1   4 75.4310 59.8336   1
   0   1   5 1334.13 267.112   3
   0   1   5 1236.69 228.069   1
   0   1  -5 1417.34 247.840   1
   0   1   6 159.911 78.3199   1
   0   1  -6 115.898 64.1336   1
   0   1   6 160.311 67.1084   3
   0   1   7 534.906 219.204   3
   0   1  -7 408.080 133.798   1
   0   1   7 314.019 113.262   1
   0   1  -8 14.6506 29.2669   1
   0   1   8-33.0475 75.0191   1
   0   1   9 114.738 72.8884   1
   0   1  10-10.2137 47.0498   1
   0   1  11 225.213 159.724   1
   0   1  12 200.156 131.558   1
   0   2   2 1190.52 181.334   3
   0   2   3 936.911 158.707   1
   0   2   3 977.669 183.940   3
   0   2  -3 1143.73 188.873   1
   0   2  -4 821.075 170.297   1
   0   2   4 905.755 207.455   3
   0   2   4 698.219 164.716   1
   0   2  -5 2382.70 322.569   1
   0   2   5 2054.31 308.972   1
   0   2   5 2241.68 360.789   3
   0   2  -6-70.0873 98.0720   1
   0   2   6-67.7765 94.1261   1
   0   2   6 70.7332 63.9224   3
   0   2  -7 187.669 93.5256   1
   0   2   7 122.058 55.4776   1
   0   2   8 539.869 178.003   1
   0   2  -8 623.621 200.701   1
   0   2   9 531.021 191.006   1
   0   2  10-62.6610 97.1839   1
   0   2  11 109.424 137.601   1
   0   3   2 4897.57 255.402   2
   0   3  -2 4982.48 331.278   1
   0   3   2 4645.76 373.473   3
   0   3   3 552.488 151.572   3
   0   3  -3 596.534 126.434   1
   0   3   4 141.847 81.0507   3
   0   3  -4 226.187 110.269   1
   0   3   4 142.382 58.4521   1
   0   3   5 661.190 174.573   1
   0   3   5 847.997 239.229   3
   0   3  -5 837.426 189.127   1
   0   3   6 3528.28 447.968   1
   0   3  -6 3774.08 450.336   1
   0   3   6 4024.17 529.361   3
   0   3   7 54.9959 96.4923   1
   0   3  -7-15.0155 79.3025   1
   0   3  -8 19.3961 59.6731   1
   0   3   8 25.7123 43.7482   1
   0   3   9-39.2508 87.0036   1
   0   4   2 1558.73 219.131   3
   0   4  -2 1643.91 204.702   1
   0   4   3 3891.69 406.350   3
   0   4  -3 3967.35 361.365   1
   0   4   3 3653.18 269.409   2
   0   4  -4-13.7804 37.0556   1
   0   4   4 55.1983 84.0713   3
   0   4  -5 764.680 192.248   1
   0   4   5 878.420 241.663   3
   0   4   6 191.664 126.883   3
   0   4  -6 154.463 103.171   1
   0   4  -7-30.8472 47.4613   1
   0   4  -8 120.154 55.4190   1
   0   5   2-92.3629 63.7403   3
   0   5   3 1892.25 292.877   3
   0   5  -3 1838.03 251.062   1
   0   5   3 1860.55 196.648   2
   0   5   4 37.7931 36.4124   2
   0   5   4 57.4336 23.5465   3
   0   5  -4 135.113 80.5587   1
   0   5   5 1872.22 255.482   2
   0   5   5 2052.04 367.720   3
   0   5  -5 1881.73 305.766   1
   0   5  -6 87.7538 100.280   1
   0   5  -7 675.116 225.496   1
   0   5  -8 50.4024 85.0594   1
   0   5  12-158.515 214.007   2
   0   6   0 13017.3 543.020   3
   0   6   1 411.709 108.254   3
   0   6   2 279.406 106.558   3
   0   6  -3 1158.41 208.208   1
   0   6   3 1117.83 234.536   3
   0   6   4 3527.19 449.562   3
   0   6   4 3252.50 307.760   2
   0   6  -4 3571.02 391.307   1
   0   6   5-27.6868 39.1614   3
   0   6  -5 2.46533 27.4368   1
   0   6   5 14.3361 12.5514   2
   0   6  -6 1184.91 261.448   1
   0   6   6 944.065 170.011   2
   0   6   7-118.536 112.833   2
   0   6  -7 23.2124 46.5766   1
   0   6   8 87.4157 55.0621   2
   0   6   9 15.1607 62.5655   2
   0   6  10-137.106 163.282   2
   0   6  11-244.743 175.336   2
   0   7   0 101.291 73.9730   3
   0   7   1 3591.12 345.735   3
   0   7   2 690.281 172.323   3
   0   7   3 720.490 196.077   3
   0   7   4 114.863 81.3361   3
   0   7  -4 73.8228 47.5601   1
   0   7  -5 145.627 100.510   1
   0   7   5 230.603 120.362   3
   0   7   5 205.578 83.6151   2
   0   7  -6 86.9080 86.2123   1
   0   7   6-83.6305 87.3343   2
   0   7   7-63.2581 94.4691   2
   0   7  -7 83.9762 96.8040   1
   0   7   8-34.0924 85.3699   2
   0   7   9-190.087 151.605   2
   0   7  10-267.051 210.974   2
   0   7  11-159.922 155.326   2
   0   8   0 781.101 146.981   3
   0   8   1 3408.00 353.415   3
   0   8   2 130.516 87.9496   3
   0   8   3 209.137 67.8197   3
   0   8   4 324.449 147.613   3
   0   8  -5 4445.10 504.277   1
   0   8   5 4097.07 395.878   2
   0   8  -6 156.845 120.728   1
   0   8   6 205.806 131.499   2
   0   8  -7 78.7817 96.5778   1
   0   8   7 78.8016 64.1319   2
   0   8   8-1.43814 30.7894   2
   0   8   9 42.7009 28.1285   2
   0   8  10-115.405 149.635   2
   0   8  11-47.8134 30.1075   2
   0   9   0 7.82304 13.2591   3
   0   9   1 537.625 148.183   3
   0   9   2 1459.41 255.015   3
   0   9   3 733.755 212.215   3
   0   9   4 113.088 94.1212   3
   0   9   6 2844.26 359.743   2
   0   9  -6 2704.24 443.107   1
   0   9   7 54.3531 85.1342   2
   0   9   8 135.315 114.441   2
   0   9   9 89.7699 48.7189   2
   0   9  10 139.464 39.1434   2
   0   9  11-43.1767 91.1678   2
   0  10   0 4313.46 409.664   3
   0  10   1 1976.59 299.011   3
   0  10   2 20.6365 24.5328   3
   0  10   3 291.001 149.463   3
   0  10   4 621.307 197.796   3
   0  10   8 114.729 132.097   2
   0  10   9 213.525 154.307   2
   0  10  10 203.006 172.180   2
   0  10  11-6.88914 87.8231   2
   0  11   0 42.7003 105.746   3
   0  11   1 231.648 122.795   3
   0  11   2 96.5144 95.2556   3
   0  11   3 415.364 169.515   3
   0  11  10 788.013 290.903   2
   0  12   0 3916.11 422.810   3
   0  12   1 1200.51 251.445   3
   0  12   2 1011.76 242.283   3
   0  12   3 393.346 159.655   3
   0  13   0 28.4131 48.0366   3
   0  13   1-43.3181 50.6853   3
   0  13   2 1177.87 288.236   3
   0  14   0 356.464 150.109   3
   0  14   1 1093.08 256.781   3
   0  14   2 59.0294 89.5322   3
   0  15   0 63.7086 93.1754   3
   0  15   1 198.120 119.649   3
   0  16   0 3978.54 498.825   3
   0  16   1 211.675 137.200   3
   0  17   0 119.134 107.492   3
   0  18   0 534.022 201.389   3
  -1 -44  -1 398.208 330.638   3
  -1 -44  -2-149.597 201.147   3
  -1 -43   0 96.2730 205.728   3
  -1 -43  -1 294.845 308.183   3
  -1 -43  -2 152.351 246.848   3
   1 -42  -1 182.470 215.160   3
  -1 -42   0 25.9929 151.554   3
  -1 -42  -1-118.177 126.588   3
  -1 -42  -2-217.822 124.771   3
  -1 -42  -3 245.541 291.729   3
   1 -41  -2 263.646 322.898   3
   1 -41  -1 25.2862 92.7370   3
  -1 -41   1-18.0112 166.683   3
  -1 -41   0 156.423 177.636   3
  -1 -41  -1 448.659 330.126   3
  -1 -41  -2 328.600 283.686   3
  -1 -41  -3 587.446 448.976   3
  -1 -41  -4-3.89169 308.537   3
  -1 -40   3 54.5117 284.814   1
  -1 -40   2-92.5593 220.822   1
   1 -40  -2 44.3290 254.284   3
  -1 -40   1 125.215 111.937   3
   1 -40  -1 28.8492 60.7066   3
   1 -40   0 231.908 162.687   3
  -1 -40   0-160.278 187.490   3
  -1 -40  -1-75.2820 106.586   3
  -1 -40  -2 99.4279 36.1565   3
  -1 -40  -3-1.01149 55.7250   3
  -1 -40  -4 260.047 255.203   3
   1 -40   4 386.844 396.729   1
  -1 -40  -5-119.331 111.045   3
  -1 -39   5 223.718 266.819   1
  -1 -39   4 61.9277 182.809   1
  -1 -39   3 12.2904 135.718   1
   1 -39  -3 13.7450 87.7948   3
  -1 -39   2-124.620 213.553   3
   1 -39  -2-156.257 249.383   3
  -1 -39   2 301.137 292.222   1
   1 -39  -1 201.415 205.715   3
  -1 -39   1 72.6700 241.593   3
  -1 -39   0 79.7649 190.436   3
   1 -39   0 30.5003 164.212   3
  -1 -39  -1-70.8115 172.151   3
  -1 -39  -2-65.9540 188.792   3
  -1 -39  -3 18.1986 194.815   3
  -1 -39  -4 198.030 315.878   3
   1 -39   4 273.046 380.123   1
  -1 -39  -5-172.907 55.4183   3
   1 -39   5 305.500 238.088   1
   1 -39   6-12.4487 85.0152   1
  -1 -38   6-324.119 350.542   1
  -1 -38   5-16.1038 279.064   1
  -1 -38   4 414.954 396.429   1
  -1 -38   3 163.861 122.902   1
   1 -38  -3-186.143 167.778   3
  -1 -38   2-120.796 149.731   1
  -1 -38   2 95.2380 196.706   3
   1 -38  -2 111.755 96.5001   3
  -1 -38   1 351.780 312.114   3
   1 -38  -1 529.833 306.815   3
   1 -38   0 99.0084 117.211   3
  -1 -38   0 190.463 177.622   3
  -1 -38  -1-8.55643 139.643   3
  -1 -38  -2-82.9020 238.963   3
  -1 -38  -3 111.084 216.692   3
  -1 -38  -4 284.936 291.645   3
   1 -38   4 103.867 178.874   1
  -1 -38  -5-344.921 282.515   3
   1 -38   5-201.372 320.287   1
  -1 -38  -6 305.730 365.722   3
   1 -38   6 170.724 149.006   1
   1 -38   7 19.0168 252.592   1
  -1 -37   7-55.0443 31.0665   1
  -1 -37   6 195.404 290.643   1
  -1 -37   5-10.0509 304.361   1
  -1 -37   4 65.7667 261.105   1
   1 -37  -3 221.585 206.652   3
  -1 -37   3 117.560 189.399   3
  -1 -37   3 40.0924 145.095   1
  -1 -37   2 252.431 228.888   3
   1 -37  -2-190.591 251.908   3
   1 -37  -1-0.58585 72.9068   3
  -1 -37   1-189.975 148.606   3
   1 -37   0 118.259 248.113   3
  -1 -37   0 70.7856 76.4254   3
  -1 -37  -1 57.7627 221.365   3
   1 -37   1 89.1357 142.659   3
  -1 -37  -2 60.8459 197.331   3
  -1 -37  -3-16.5221 78.5378   3
   1 -37   4 210.929 191.901   1
  -1 -37  -4 107.212 69.3830   3
  -1 -37  -5 76.1489 213.626   3
   1 -37   5-8.30535 117.732   1
  -1 -37  -6 145.901 320.205   3
   1 -37   6 168.573 106.692   1
  -1 -37  -7 261.629 321.280   3
   1 -37   7 345.784 324.132   1
   1 -37   8 39.3417 293.825   1
  -1 -36   8 57.3120 207.663   1
  -1 -36   7 78.4964 77.4680   1
  -1 -36   6 491.595 375.133   1
  -1 -36   5 268.573 350.523   1
  -1 -36   4 330.822 272.439   1
   1 -36  -3-65.4156 248.095   3
  -1 -36   3-9.36643 139.874   3
  -1 -36   3-126.458 278.130   1
   1 -36  -2 120.856 149.637   3
  -1 -36   2-43.7917 188.661   3
  -1 -36   1 57.3417 106.351   3
   1 -36  -1 163.671 246.676   3
   1 -36   0 185.474 213.918   3
  -1 -36   0-41.6263 159.429   3
  -1 -36  -1 188.724 195.647   3
   1 -36   1 35.7129 211.357   3
  -1 -36  -2 44.0218 135.606   3
  -1 -36  -3 20.8984 154.686   3
   1 -36   4 260.400 333.518   1
  -1 -36  -4 205.917 123.037   3
  -1 -36  -5-138.138 161.453   3
   1 -36   5-17.3336 144.195   1
  -1 -36  -6 77.9962 120.437   3
   1 -36   6-347.813 286.374   1
  -1 -36  -7 23.0144 150.882   3
   1 -36   7 89.3086 111.704   1
   1 -36   8-304.878 421.542   1
   1 -36   9-161.027 178.534   1
  -1 -35   9 142.797 373.993   1
  -1 -35   8 295.597 178.503   1
  -1 -35   7 126.625 110.471   1
  -1 -35   6 6.93153 194.844   1
  -1 -35   5 138.207 184.988   1
   1 -35  -4 89.5135 146.859   3
  -1 -35   4-298.238 264.003   1
   1 -35  -3-13.2443 132.771   3
  -1 -35   3-196.674 287.760   1
  -1 -35   3 93.9694 126.366   3
  -1 -35   2 107.717 116.555   3
   1 -35  -2-12.7506 150.361   3
  -1 -35   1 108.908 191.566   3
   1 -35  -1 31.3723 9.82508   3
   1 -35   0 216.067 227.001   3
  -1 -35   0-147.216 129.783   3
  -1 -35  -1 413.930 308.845   3
   1 -35   1 538.690 323.391   3
  -1 -35  -2 3.68599 212.648   3
   1 -35   2 105.925 199.304   3
  -1 -35  -3 6.45495 78.6920   3
  -1 -35  -4 221.990 129.519   3
   1 -35   5 509.312 442.276   1
  -1 -35  -5 546.760 420.806   3
   1 -35   6 334.037 283.658   1
  -1 -35  -6-165.500 224.110   3
  -1 -35  -7 277.600 349.735   3
   1 -35   7 157.444 320.429   1
   1 -35   8-108.868 195.962   1
   1 -35   9 195.884 292.353   1
   1 -35  10 191.101 367.335   1
  -1 -34  10 250.703 333.526   1
  -1 -34   9-72.5780 139.119   1
  -1 -34   8 34.0543 101.543   1
  -1 -34   7 16.2184 281.094   1
  -1 -34   6 93.0755 374.876   1
  -1 -34   5 145.947 247.461   1
  -1 -34   4-144.325 200.264   3
   1 -34  -4 135.484 259.105   3
  -1 -34   4 149.742 102.758   1
  -1 -34   3 29.0532 114.541   1
  -1 -34   3 20.3903 91.3826   3
   1 -34  -3 165.059 191.073   3
  -1 -34   2 166.888 100.434   3
   1 -34  -2 171.692 91.0097   3
  -1 -34   1 78.7998 104.262   3
   1 -34  -1 98.6446 95.1903   3
  -1 -34   0 519.756 350.136   3
   1 -34   0 424.023 275.779   3
   1 -34   1 8.04771 168.644   3
  -1 -34  -1 103.833 131.417   3
  -1 -34  -2-87.2654 217.078   3
   1 -34   2 35.9047 46.6242   3
  -1 -34  -3 48.6835 142.342   3
  -1 -34  -4-24.5013 115.357   3
  -1 -34  -5 89.0612 77.4347   3
   1 -34   5 187.735 207.621   1
  -1 -34  -6-239.796 166.049   3
   1 -34   6 185.551 333.372   1
   1 -34   7-8.28113 120.468   1
  -1 -34  -7 27.3584 91.3357   3
   1 -34   8 62.2399 140.753   1
   1 -34   9 56.8875 285.509   1
   1 -34  10 187.084 293.118   1
   1 -34  11 214.738 371.269   1
  -1 -33  11 107.032 107.008   1
  -1 -33  10 211.416 60.0089   1
  -1 -33   9 100.687 120.876   1
  -1 -33   8-95.3076 171.379   1
  -1 -33   7-178.383 294.565   1
  -1 -33   6 2.62030 101.292   1
  -1 -33   5 443.106 345.747   1
  -1 -33   4-43.0942 28.2779   3
   1 -33  -4 189.249 234.108   3
  -1 -33   3 28.4726 130.481   3
   1 -33  -3-104.940 156.328   3
  -1 -33   3-169.278 219.428   1
  -1 -33   2 33.8873 21.2555   3
   1 -33  -2-76.1822 127.383   3
   1 -33  -1 49.1392 184.111   3
  -1 -33   1-54.5655 79.0111   3
   1 -33   0 90.0704 124.494   3
  -1 -33   0 92.4343 116.147   3
  -1 -33  -1 55.7467 127.821   3
   1 -33   1-144.607 142.598   3
  -1 -33  -2-114.308 147.535   3
   1 -33   2 260.052 75.1836   3
  -1 -33  -3-241.513 228.273   3
   1 -33   3-36.2329 157.629   3
  -1 -33  -4 1.32582 161.901   3
   1 -33   5 281.250 355.336   1
  -1 -33  -5 262.489 287.320   3
   1 -33   6-191.881 76.7296   1
  -1 -33  -6 355.567 325.772   3
  -1 -33  -7 196.568 131.679   3
   1 -33   7 192.114 283.637   1
   1 -33   8-16.6688 164.060   1
   1 -33   9-47.7468 61.5642   1
   1 -33  10 207.764 171.951   1
   1 -33  11 109.014 269.861   1
  -1 -32  11 95.8389 195.558   1
  -1 -32  10 17.3098 255.759   1
  -1 -32   9-306.772 353.128   1
  -1 -32   8-113.021 185.551   1
  -1 -32   7 256.919 223.438   1
  -1 -32   6 26.9216 137.678   1
  -1 -32   5 37.4415 136.874   3
  -1 -32   5 682.898 454.230   1
  -1 -32   4 65.4962 92.3312   3
   1 -32  -4 149.894 143.905   3
  -1 -32   4 417.772 329.288   1
  -1 -32   3 269.161 197.278   1
  -1 -32   3 483.159 258.781   3
   1 -32  -3 598.290 321.716   3
   1 -32  -2-70.7428 98.5742   3
  -1 -32   2-144.400 158.611   3
   1 -32  -1 393.951 227.577   3
  -1 -32   1 395.348 241.621   3
  -1 -32   0 318.707 280.591   3
   1 -32   0 169.797 117.960   3
   1 -32   1-16.4046 110.907   3
  -1 -32  -1-19.5127 34.6674   3
  -1 -32  -2 50.4393 68.2201   3
   1 -32   2-32.0880 131.012   3
  -1 -32  -3 95.6706 135.808   3
   1 -32   3 374.678 237.603   3
  -1 -32  -4 351.525 264.879   3
  -1 -32  -5 206.915 254.938   3
   1 -32   5-5.65418 98.3863   1
   1 -32   6 45.8542 41.3984   1
  -1 -32  -6 196.702 227.878   3
  -1 -32  -7 412.231 323.758   3
   1 -32   7 421.904 328.923   1
  -1 -32  -8 3.98671 179.815   3
   1 -32   8 96.1167 241.836   1
   1 -32   9 111.438 200.042   1
   1 -32  10 293.945 236.116   1
   1 -32  11-87.1626 104.590   1
  -1 -31  12-391.718 367.929   1
  -1 -31  11 130.562 249.188   1
  -1 -31  10 52.7914 103.810   1
  -1 -31   9-15.1103 81.7518   1
  -1 -31   8 10.7776 169.157   1
  -1 -31   7 76.4000 78.4465   1
  -1 -31   6-36.3288 80.4938   1
  -1 -31   5 284.666 215.910   1
  -1 -31   5-91.2033 151.075   3
   1 -31  -4 44.9651 57.1687   3
  -1 -31   4-127.629 191.954   1
  -1 -31   4-87.2096 19.9469   3
  -1 -31   3 90.6339 106.651   3
   1 -31  -3 293.324 229.037   3
  -1 -31   3 374.505 269.702   1
   1 -31  -2 107.440 137.793   3
  -1 -31   2 103.143 152.164   3
  -1 -31   1 414.812 294.361   3
   1 -31  -1 253.175 257.187   3
   1 -31   0-29.4340 12.4906   3
  -1 -31   0 68.7601 156.833   3
   1 -31   1 81.7710 48.5199   3
  -1 -31  -1 47.9556 49.9729   3
  -1 -31  -2 68.1261 168.890   3
   1 -31   2 100.231 186.486   3
  -1 -31  -3 120.733 198.384   3
   1 -31   3 208.888 202.613   3
  -1 -31  -4 219.188 156.095   3
  -1 -31  -5 245.874 243.537   3
   1 -31   5 453.724 236.491   1
  -1 -31  -6 106.505 32.6883   3
   1 -31   6 90.2088 144.525   1
   1 -31   7 214.261 228.419   1
  -1 -31  -7 14.1202 81.3657   3
   1 -31   8 207.533 322.733   1
  -1 -31  -8-134.164 245.407   3
   1 -31   9 53.3352 245.861   1
   1 -31  10 217.986 197.818   1
   1 -31  11 79.9012 76.3998   1
  -1 -30  12 215.815 110.620   1
  -1 -30  11 85.1898 239.733   1
  -1 -30  10 240.263 90.6752   1
  -1 -30   9-208.118 356.845   1
  -1 -30   8 235.595 299.237   1
  -1 -30   7 64.3218 133.361   1
  -1 -30   6 115.189 150.186   1
  -1 -30   5 300.249 267.309   1
  -1 -30   5 449.577 228.641   3
  -1 -30   4-212.309 163.267   3
  -1 -30   4 86.4606 134.292   1
   1 -30  -4 47.9216 70.6208   3
   1 -30  -3 61.8882 114.129   3
  -1 -30   3 265.106 206.091   3
  -1 -30   3 193.966 175.162   1
   1 -30  -2 770.049 374.972   3
  -1 -30   2 471.546 212.412   3
  -1 -30   1 38.2258 67.0510   3
   1 -30  -1 233.940 190.758   3
  -1 -30   0 101.220 145.848   3
   1 -30   0 434.369 253.603   3
   1 -30   1 160.825 163.384   3
  -1 -30  -1 107.406 199.807   3
  -1 -30  -2 8.15212 153.666   3
   1 -30   2 89.4673 70.7354   3
   1 -30   3 103.709 102.647   3
  -1 -30  -3-92.8536 170.911   3
  -1 -30  -4-235.099 170.715   3
   1 -30   4 94.9608 65.9505   3
   1 -30   5 315.756 280.596   1
  -1 -30  -5-75.3591 238.611   3
   1 -30   6 128.828 205.101   1
  -1 -30  -6 18.2903 141.696   3
   1 -30   7 199.716 254.034   1
  -1 -30  -7 47.0264 110.880   3
   1 -30   8 372.430 343.164   1
  -1 -30  -8 172.432 168.278   3
   1 -30   9-26.3294 164.582   1
   1 -30  10 125.190 253.302   1
   1 -30  11 108.360 211.402   1
  -1 -29  13 406.973 333.608   1
  -1 -29  12 151.691 284.491   1
  -1 -29  11 125.428 312.374   1
  -1 -29  10 79.3122 84.2534   1
  -1 -29   9-44.8904 222.790   1
  -1 -29   8-125.718 145.884   1
  -1 -29   7-2.35189 140.916   1
  -1 -29   6 29.8068 45.8067   3
  -1 -29   6 76.2603 219.169   1
  -1 -29   5 116.491 148.005   3
  -1 -29   5-139.572 193.062   1
   1 -29  -5 27.7212 142.705   3
   1 -29  -4-33.9739 178.923   3
  -1 -29   4-22.5893 142.317   1
  -1 -29   4-87.8040 142.459   3
  -1 -29   3 65.9218 184.016   1
   1 -29  -3-36.5455 84.2885   3
  -1 -29   3-13.4834 117.914   3
   1 -29  -2-33.5920 86.2576   3
  -1 -29   2 164.648 168.797   3
   1 -29  -1 6.59695 105.479   3
  -1 -29   1-76.2136 85.9871   3
   1 -29   0 359.485 246.552   3
  -1 -29   0 370.477 223.597   3
   1 -29   1 105.085 184.673   3
  -1 -29  -1 28.4073 141.149   3
  -1 -29  -2-106.563 45.6624   3
   1 -29   2 16.4761 119.223   3
  -1 -29  -3-88.9715 105.535   3
   1 -29   3 110.242 152.121   3
  -1 -29  -4 216.589 219.164   3
   1 -29   4 105.515 78.5412   3
  -1 -29  -5 341.660 225.656   3
   1 -29   5 304.772 276.135   1
  -1 -29  -6 24.3167 109.275   3
   1 -29   6-158.540 229.725   1
  -1 -29  -7 177.918 151.617   3
   1 -29   7 374.470 315.847   1
  -1 -29  -8-16.1053 102.495   3
   1 -29   8-95.0363 223.010   1
   1 -29   9 168.382 314.593   1
   1 -29  10 218.704 213.728   1
   1 -29  11 114.225 182.542   1
  -1 -28  13 254.657 458.572   1
  -1 -28  12 494.936 410.913   1
  -1 -28  11 137.766 160.018   1
  -1 -28  10-303.617 303.824   1
  -1 -28   9 269.949 178.156   1
  -1 -28   8 182.287 234.637   1
  -1 -28   7 236.314 217.114   1
  -1 -28   6 57.5916 126.513   3
  -1 -28   6 99.0627 267.505   1
  -1 -28   5-36.3683 150.997   1
  -1 -28   5 97.4622 130.897   3
   1 -28  -5 197.191 202.306   3
  -1 -28   4 749.997 390.225   1
   1 -28  -4 783.705 385.502   3
  -1 -28   4 675.414 280.280   3
  -1 -28   3-4.06263 29.9501   3
   1 -28  -3-142.089 224.714   3
  -1 -28   3 73.7887 163.311   1
  -1 -28   2-9.36148 115.169   3
   1 -28  -2 15.4914 62.0554   3
  -1 -28   1 546.819 289.406   3
   1 -28  -1 580.885 305.996   3
   1 -28   0 26.6716 85.6142   3
  -1 -28   0 49.7310 64.6511   3
   1 -28   1 89.6818 106.865   3
  -1 -28  -1 437.745 266.852   3
   1 -28   2 19.1973 34.7620   3
  -1 -28  -2 123.289 236.674   3
   1 -28   3-5.08061 54.8627   3
  -1 -28  -3 118.967 81.1174   3
  -1 -28  -4 386.248 307.101   3
   1 -28   4 155.221 91.9658   3
  -1 -28  -5 284.567 233.079   3
   1 -28   5-10.8883 137.959   1
   1 -28   6 70.4508 52.7942   1
  -1 -28  -6 229.070 235.702   3
  -1 -28  -7 244.523 293.647   3
   1 -28   7-96.0123 75.5556   1
   1 -28   8-147.885 267.828   1
  -1 -28  -8 55.1614 171.483   3
   1 -28   9 8.50548 161.475   1
   1 -28  10 184.083 145.148   1
   1 -28  11 219.350 202.316   1
  -1 -27  13 189.513 240.022   1
  -1 -27  12 3.28087 76.0158   1
  -1 -27  11 63.7029 261.072   1
  -1 -27  10 120.220 249.327   1
  -1 -27   9 260.284 144.850   1
  -1 -27   8 202.062 259.795   1
  -1 -27   7 350.306 311.895   1
  -1 -27   6 113.686 202.018   1
  -1 -27   6-100.338 102.548   3
  -1 -27   5 135.399 152.054   3
   1 -27  -5 124.042 155.894   3
  -1 -27   5 249.305 180.605   1
   1 -27  -4 540.862 300.252   3
  -1 -27   4 394.171 226.331   3
  -1 -27   4 229.866 114.840   1
  -1 -27   3 172.197 200.274   1
   1 -27  -3-78.7139 131.542   3
  -1 -27   3 136.767 156.540   3
  -1 -27   2 23.7856 98.4291   3
   1 -27  -2 69.0998 18.3986   3
  -1 -27   1-47.8195 89.8411   3
   1 -27  -1 4.04196 25.8713   3
  -1 -27   0 84.4497 112.555   3
   1 -27   0 167.755 124.837   3
  -1 -27  -1 101.224 24.2345   3
   1 -27   1 59.2355 115.815   3
  -1 -27  -2 4.25487 148.104   3
   1 -27   2 65.1387 112.986   3
   1 -27   3 95.3746 104.886   3
  -1 -27  -3-117.574 196.243   3
  -1 -27  -4 157.942 248.882   3
   1 -27   4-46.5400 77.4114   3
   1 -27   5 210.755 213.449   1
   1 -27   5 93.3753 102.172   3
  -1 -27  -5 189.178 134.415   3
   1 -27   6 522.310 252.941   1
  -1 -27  -6 198.276 258.295   3
   1 -27   7-6.95485 83.8658   1
  -1 -27  -7 322.341 287.321   3
  -1 -27  -8-106.233 219.982   3
   1 -27   8 326.012 252.621   1
   1 -27   9 291.843 293.195   1
   1 -27  10 160.462 37.8042   1
   1 -27  11 25.2898 178.807   1
  -1 -26  13 35.0958 193.437   1
  -1 -26  12-187.839 234.497   1
  -1 -26  11-81.2995 241.388   1
  -1 -26  10 152.841 272.268   1
  -1 -26   9-5.06460 234.234   1
  -1 -26   8 30.8501 76.0537   1
  -1 -26   7 489.268 225.425   3
  -1 -26   7 508.518 303.921   1
  -1 -26   6-143.564 198.576   1
  -1 -26   6-1.52005 58.5601   3
   1 -26  -5 521.473 330.389   3
  -1 -26   5 457.799 277.276   1
  -1 -26   5 479.597 221.407   3
   1 -26  -4-73.9431 108.221   3
  -1 -26   4-14.8457 108.740   1
  -1 -26   4-62.8449 125.126   3
  -1 -26   3 5.77361 66.8713   3
   1 -26  -3 6.84529 114.456   3
  -1 -26   3 70.0663 144.585   1
  -1 -26   2 35.3197 97.8633   3
   1 -26  -2-30.5729 120.695   3
  -1 -26   1 118.894 158.468   3
   1 -26  -1-17.3557 101.140   3
  -1 -26   0 959.132 392.764   3
   1 -26   0 742.894 286.038   3
  -1 -26  -1-142.445 185.861   3
   1 -26   1-77.5639 144.679   3
   1 -26   2-22.2195 25.6407   3
  -1 -26  -2 141.680 177.417   3
  -1 -26  -3 319.448 196.624   3
   1 -26   3 456.024 193.990   3
  -1 -26  -4-80.7173 135.057   3
   1 -26   4-18.4612 68.1099   3
   1 -26   5 149.399 198.769   1
  -1 -26  -5 329.096 243.775   3
   1 -26   5 332.092 150.721   3
  -1 -26  -6 97.4192 196.714   3
   1 -26   6-28.3557 87.7049   1
   1 -26   7 102.735 24.0340   1
  -1 -26  -7-152.708 243.938   3
  -1 -26  -8-129.905 192.804   3
   1 -26   8-52.2219 163.742   1
   1 -26   9 155.366 228.974   1
   1 -26  10-59.3050 104.893   1
   1 -26  11 76.6686 175.136   1
  -1 -25  13 361.161 416.200   1
  -1 -25  12 307.902 334.337   1
  -1 -25  11 124.941 264.944   1
  -1 -25  10 305.666 260.342   1
  -1 -25   9-165.191 172.323   1
  -1 -25   8 0.05837 118.813   1
  -1 -25   7 310.911 193.284   3
  -1 -25   7-23.7980 106.321   1
  -1 -25   6-56.9761 118.467   1
  -1 -25   6 283.175 178.626   3
  -1 -25   5 264.833 246.830   1
   1 -25  -5 139.614 135.232   3
  -1 -25   5 163.680 138.647   3
  -1 -25   4-128.952 11.6839   1
  -1 -25   4 118.117 142.271   3
   1 -25  -4-35.4828 122.506   3
  -1 -25   3 79.9624 101.672   1
  -1 -25   3 306.758 204.783   3
   1 -25  -3 343.243 205.782   3
  -1 -25   2 47.8154 66.9083   3
   1 -25  -2 40.4477 81.6348   3
  -1 -25   1 390.933 232.937   3
   1 -25  -1 348.919 223.215   3
  -1 -25   0 78.4210 99.5108   3
   1 -25   0 165.582 154.227   3
   1 -25   1 269.462 173.791   3
  -1 -25  -1 208.561 163.228   3
  -1 -25  -2 65.2659 87.1139   3
   1 -25   2-77.2811 30.5807   3
   1 -25   3 96.0541 88.7312   3
  -1 -25  -3 113.504 160.075   3
   1 -25   4 24.4442 64.1913   3
  -1 -25  -4 69.0788 81.3236   3
   1 -25   5 765.407 357.832   1
   1 -25   5 425.749 183.432   3
  -1 -25  -5 518.437 290.589   3
  -1 -25  -6 346.398 247.498   3
   1 -25   6 148.973 261.113   1
  -1 -25  -7-133.884 175.900   3
   1 -25   7 112.931 126.297   1
   1 -25   8 23.6535 103.494   1
  -1 -25  -8-12.4096 92.6212   3
   1 -25   9 244.546 258.249   1
   1 -25  10-17.9290 73.4081   1
   1 -25  11 140.308 139.260   1
  -1 -24  13 172.425 310.255   1
  -1 -24  12 101.795 228.569   1
  -1 -24  11 162.872 153.973   1
  -1 -24  10 255.726 301.613   1
  -1 -24   9 8.84809 145.027   1
  -1 -24   8 86.1598 48.2027   1
  -1 -24   7 596.349 325.165   1
  -1 -24   7 634.480 264.369   3
  -1 -24   6 1260.37 349.421   3
  -1 -24   6 1141.17 468.275   1
   1 -24  -5 45.3940 125.621   3
  -1 -24   5 95.2083 118.557   3
  -1 -24   5 27.7244 76.1570   1
   1 -24  -4 120.240 102.803   3
  -1 -24   4 8.75974 55.3049   3
  -1 -24   4-76.8133 156.996   1
   1 -24  -3 76.6378 83.5586   3
  -1 -24   3 86.8332 123.342   1
  -1 -24   3 63.3314 100.438   3
  -1 -24   2 107.805 113.112   3
   1 -24  -2 55.3651 133.397   3
  -1 -24   1 220.446 199.838   3
   1 -24  -1 487.714 262.400   3
   1 -24   0 281.448 154.298   3
  -1 -24   0 453.771 246.731   3
   1 -24   1 541.851 228.303   3
  -1 -24  -1 462.050 223.667   3
  -1 -24  -2 413.339 245.273   3
   1 -24   2 362.294 175.854   3
   1 -24   3 58.3738 48.1558   3
  -1 -24  -3 127.062 158.653   3
   1 -24   4 585.010 213.891   3
  -1 -24  -4 311.894 213.475   3
  -1 -24  -5-63.2826 20.5468   3
   1 -24   5 132.435 112.899   3
   1 -24   5 37.2381 156.587   1
  -1 -24  -6 248.954 232.019   3
   1 -24   6 102.804 200.844   1
   1 -24   6 3.87832 51.5093   3
   1 -24   7-19.1088 96.1391   1
  -1 -24  -7-18.9591 102.345   3
   1 -24   8 96.2907 168.308   1
  -1 -24  -8 119.846 131.381   3
   1 -24   9-116.368 37.8839   1
   1 -24  10 37.4056 135.484   1
   1 -24  11-25.6495 143.975   1
  -1 -23  13-190.125 290.795   1
  -1 -23  12-216.872 200.076   1
  -1 -23  11 263.412 340.563   1
  -1 -23  10-18.9118 207.288   1
  -1 -23   9 55.5089 67.7369   1
  -1 -23   8-54.0177 194.920   1
  -1 -23   7-109.397 50.3230   1
  -1 -23   6 173.557 220.987   1
  -1 -23   6 173.847 137.712   3
  -1 -23   5-112.700 169.400   1
   1 -23  -5 99.5335 158.638   3
  -1 -23   5 99.6249 161.269   3
   1 -23  -4 58.0380 61.3883   3
  -1 -23   4 20.6686 15.7190   3
  -1 -23   4-50.2382 87.7768   1
  -1 -23   3 42.0948 69.3031   1
  -1 -23   3 6.11790 22.1819   3
   1 -23  -2 47.1228 63.7167   3
  -1 -23   2 53.3580 98.2470   3
  -1 -23   1 206.132 138.537   3
   1 -23  -1 274.036 151.035   3
  -1 -23   0 569.262 266.716   3
   1 -23   0 301.636 169.080   3
  -1 -23  -1 230.573 107.034   3
   1 -23   1 464.843 219.580   3
   1 -23   2 90.7426 87.8193   3
  -1 -23  -2 184.415 142.627   3
  -1 -23  -3-4.30013 50.3299   3
   1 -23   3 5.43533 75.9747   3
  -1 -23  -4 81.0547 144.608   3
   1 -23   4-32.9563 50.1253   3
   1 -23   5 35.9822 70.1651   1
   1 -23   5 209.789 99.6124   3
  -1 -23  -5 316.991 215.437   3
  -1 -23  -6 93.8061 89.6659   3
   1 -23   6 147.571 242.891   1
   1 -23   6 156.476 87.5786   3
   1 -23   7-6.96596 116.668   1
  -1 -23  -7 85.8822 146.757   3
  -1 -23  -8 360.855 304.434   3
   1 -23   8 144.854 115.292   1
   1 -23   9 3.94713 123.258   1
   1 -23  10 401.464 272.957   1
   1 -23  11 125.550 94.5807   1
  -1 -22  13-139.278 205.833   1
  -1 -22  12-201.266 260.637   1
  -1 -22  11-111.682 179.655   1
  -1 -22  10 74.9974 163.529   1
  -1 -22   9 31.8817 105.850   1
  -1 -22   8-113.005 20.1599   1
  -1 -22   7 625.411 329.410   1
  -1 -22   6 137.110 85.8241   3
  -1 -22   6 66.1195 134.482   1
   1 -22  -6 284.055 211.899   2
  -1 -22   5 1426.98 375.649   3
  -1 -22   5 1355.97 449.532   1
   1 -22  -5 1446.55 448.351   3
   1 -22  -4 149.444 169.542   3
  -1 -22   4 98.0291 129.816   1
  -1 -22   4 272.163 179.232   3
   1 -22  -3-3.99463 111.306   3
  -1 -22   3-20.9763 84.8932   1
  -1 -22   3-22.3774 84.9477   3
   1 -22  -2 280.435 164.284   3
  -1 -22   2 165.600 165.146   3
   1 -22  -1 1310.41 362.737   3
  -1 -22   1 1404.90 364.919   3
  -1 -22   0 680.213 267.273   3
   1 -22   0 568.733 214.797   3
   1 -22   1-21.5957 55.4114   3
  -1 -22  -1 148.011 109.215   3
   1 -22   2 95.2478 108.842   3
  -1 -22  -2-58.5417 42.0093   3
   1 -22   3 878.779 243.061   3
  -1 -22  -3 816.675 333.497   3
   1 -22   4 8.16647 52.3010   3
  -1 -22  -4-15.9721 117.634   3
  -1 -22  -5 57.1222 124.353   3
   1 -22   5 135.342 121.438   1
   1 -22   5 77.6564 42.5741   3
   1 -22   6-75.6274 58.9737   3
  -1 -22  -6-94.0088 83.1385   3
   1 -22   6 81.3863 196.130   1
  -1 -22  -7 168.766 191.903   3
   1 -22   7-23.8157 127.098   1
  -1 -22  -8-8.28159 80.2620   3
   1 -22   8 209.249 237.600   1
   1 -22   9 152.631 178.036   1
   1 -22  10-182.505 199.313   1
   1 -22  11 167.911 178.470   1
  -1 -21  13-183.072 102.464   1
  -1 -21  12 409.049 384.855   1
  -1 -21  11-41.2290 173.898   1
  -1 -21  10 185.126 185.806   1
  -1 -21   9 352.913 229.104   1
  -1 -21   8 734.053 337.582   1
  -1 -21   7-134.915 166.594   1
   1 -21  -7-101.729 127.248   2
   1 -21  -6 246.429 166.987   2
  -1 -21   6-3.89742 32.5225   1
  -1 -21   5 433.834 225.809   3
   1 -21  -5 266.851 194.502   3
  -1 -21   5 315.973 246.161   1
  -1 -21   4 847.242 343.363   1
   1 -21  -4 768.056 317.025   3
  -1 -21   4 743.675 268.953   3
  -1 -21   3-10.2755 19.5678   1
   1 -21  -3 193.382 199.110   3
  -1 -21   3 54.9310 115.597   3
  -1 -21   2 70.0079 81.6604   3
   1 -21  -2 30.2377 53.3632   3
   1 -21  -1 134.212 114.974   3
  -1 -21   1 35.3470 27.6382   3
   1 -21   0 1147.29 316.668   3
  -1 -21   0 1044.89 330.854   3
   1 -21   1-1.67208 92.8158   3
  -1 -21  -1 59.3715 49.7610   3
  -1 -21  -2 119.944 106.945   3
   1 -21   2 105.343 65.8108   3
   1 -21   3 38.0877 60.2823   3
  -1 -21  -3 121.254 123.770   3
   1 -21   4 825.554 219.322   3
  -1 -21  -4 897.712 353.612   3
   1 -21   5 188.787 127.566   1
  -1 -21  -5-58.4550 23.1301   3
   1 -21   5 70.4790 90.7428   3
   1 -21   6 207.489 102.212   3
   1 -21   6 222.640 153.807   1
  -1 -21  -6 264.324 215.808   3
   1 -21   7 73.6216 65.0377   3
   1 -21   7-4.67613 78.1933   1
  -1 -21  -8-4.31129 67.8837   3
   1 -21   8 172.427 179.562   1
   1 -21   9 49.2066 99.5435   1
   1 -21  10 313.485 219.954   1
   1 -21  11-140.076 207.515   1
  -1 -20  13-1.30192 188.382   1
  -1 -20  12 275.643 155.348   1
  -1 -20  11 81.7545 103.831   1
  -1 -20  10-61.4069 165.585   1
  -1 -20   9 237.065 160.696   1
  -1 -20   8-75.5928 128.313   1
   1 -20  -7-141.384 156.027   2
  -1 -20   7 38.0273 119.260   1
  -1 -20   6 709.232 340.813   1
   1 -20  -6 834.114 243.842   2
  -1 -20   5 162.785 163.492   1
  -1 -20   4 422.244 174.773   3
   1 -20  -4 441.265 173.626   3
  -1 -20   4 250.777 173.793   1
  -1 -20   3 86.2485 97.6172   3
   1 -20  -3 16.9020 25.8930   3
  -1 -20   3 221.480 116.406   1
  -1 -20   2 83.7843 86.9512   3
   1 -20  -2 1.20486 68.8206   3
  -1 -20   1 307.007 170.312   3
   1 -20  -1 263.227 150.013   3
   1 -20   0 420.096 176.550   3
  -1 -20   0 371.543 185.525   3
  -1 -20  -1 465.081 245.618   3
   1 -20   1 523.109 199.213   3
  -1 -20  -2 129.088 184.316   3
   1 -20   2-28.6079 63.3507   3
   1 -20   3 67.4172 18.2463   3
  -1 -20  -3 27.8914 27.4704   3
   1 -20   4 451.036 148.060   3
  -1 -20  -4 413.373 207.272   3
   1 -20   5-56.9640 11.0938   1
   1 -20   5-1.11814 25.6667   3
  -1 -20  -5-42.8733 6.86069   3
   1 -20   6 0.37757 32.2401   3
   1 -20   6 33.1061 87.1622   1
  -1 -20  -6 109.940 117.027   3
   1 -20   7-1.34453 92.6885   1
  -1 -20  -7 89.8249 142.708   3
   1 -20   7-27.7148 39.7990   3
   1 -20   8 27.1779 120.387   1
  -1 -20  -8-140.872 160.787   3
   1 -20   9-61.5705 70.3752   1
   1 -20  10-208.404 217.834   1
   1 -20  11 71.6386 45.3690   1
   1 -20  12 24.4097 151.971   1
  -1 -19  13-41.2576 137.365   1
  -1 -19  12 79.6676 199.058   1
  -1 -19  11 211.248 188.498   1
  -1 -19  10 386.052 275.092   1
  -1 -19   9-40.9983 198.819   1
  -1 -19   8-83.5088 134.328   1
  -1 -19   7 14.6180 88.4434   1
   1 -19  -7-65.8138 126.901   2
  -1 -19   6 170.214 119.493   1
   1 -19  -6 282.848 151.252   2
  -1 -19   5 38.4914 94.9852   1
   1 -19  -4 110.014 114.052   3
  -1 -19   4 224.137 140.082   1
  -1 -19   4 259.895 141.825   3
   1 -19  -3 220.087 140.665   3
  -1 -19   3 197.486 195.227   1
  -1 -19   3 249.423 154.646   3
  -1 -19   2 211.843 121.437   3
   1 -19  -2 198.547 126.418   3
  -1 -19   1 22.7137 30.5966   3
   1 -19  -1 35.2996 71.2502   3
  -1 -19   0 106.642 59.1540   3
   1 -19   0 233.369 137.917   3
  -1 -19  -1 910.080 303.843   3
   1 -19   1 947.032 243.461   3
  -1 -19  -2 5.97877 113.904   3
   1 -19   2-1.42599 51.0454   3
  -1 -19  -3 43.4680 78.3532   3
   1 -19   3 12.3939 13.7743   3
   1 -19   4 10.3039 28.8337   3
  -1 -19  -4 282.492 182.476   3
   1 -19   5 1135.52 355.419   1
   1 -19   5 1230.93 240.976   3
  -1 -19  -5 1003.94 358.063   3
   1 -19   6 32.4113 43.1125   3
   1 -19   6 88.1365 13.5933   1
   1 -19   7 199.150 226.298   1
  -1 -19  -7 16.4455 106.837   3
   1 -19   7 264.531 95.8909   3
  -1 -19  -8-50.7279 82.3234   3
   1 -19   8 52.0444 79.1506   1
   1 -19   9 241.855 199.402   1
   1 -19  10-97.7716 143.426   1
   1 -19  11 372.190 268.570   1
   1 -19  12-25.9875 136.085   1
  -1 -18  13 160.041 181.034   1
  -1 -18  12 138.390 236.666   1
  -1 -18  11 55.3032 99.3414   1
  -1 -18  10 257.624 161.968   1
  -1 -18   9 96.3354 34.7760   1
  -1 -18   8-8.51693 117.930   1
  -1 -18   7 139.678 156.623   1
  -1 -18   6 840.032 328.113   1
   1 -18  -6 768.421 198.929   2
  -1 -18   5 375.560 187.938   1
   1 -18  -4 209.856 172.835   3
  -1 -18   4 47.9161 91.1054   1
  -1 -18   3 323.528 152.222   3
   1 -18  -3 163.999 94.0223   3
  -1 -18   3 294.946 148.569   1
  -1 -18   2 654.900 233.916   3
   1 -18  -2 659.039 252.349   3
  -1 -18   1 72.9075 98.8769   3
   1 -18  -1-16.6966 100.277   3
   1 -18   0 620.479 200.411   3
  -1 -18   0 602.022 207.901   3
  -1 -18  -1-19.7690 110.283   3
   1 -18   1 41.6811 76.1062   3
   1 -18   2 116.254 63.5504   3
  -1 -18  -2-75.4487 32.3037   3
   1 -18   3-53.0994 66.8752   3
  -1 -18  -3 105.882 94.9232   3
  -1 -18  -4 405.163 214.405   3
   1 -18   4 218.372 100.529   3
   1 -18   5 360.242 140.556   3
   1 -18   5 263.014 142.756   1
  -1 -18  -5 327.962 209.497   3
   1 -18   6 261.385 110.802   3
   1 -18   6 40.1902 38.4996   1
  -1 -18  -6 55.5769 83.4412   3
  -1 -18  -7-143.134 150.241   3
   1 -18   7 77.5571 116.667   1
   1 -18   8 212.695 170.736   1
  -1 -18  -8 251.703 184.851   3
   1 -18   9-47.0028 30.7465   1
   1 -18  10-91.9013 128.743   1
   1 -18  11-24.1204 49.6316   1
   1 -18  12 81.9875 180.295   1
  -1 -17  13 24.1582 154.295   1
  -1 -17  12 86.0554 91.7888   1
  -1 -17  11 236.742 218.655   1
  -1 -17  10-82.5146 57.4087   1
  -1 -17   9 82.6060 103.392   1
  -1 -17   8 19.7923 141.066   1
  -1 -17   7 275.219 177.453   1
   1 -17  -6 17.0188 41.9373   2
  -1 -17   6 126.981 121.859   1
  -1 -17   5 191.510 167.127   1
   1 -17  -4 239.062 157.938   3
  -1 -17   4 307.591 150.432   1
   1 -17  -3 45.5555 124.067   3
  -1 -17   3 37.3993 88.7830   3
  -1 -17   3 107.406 88.1691   1
   1 -17  -2 28.3828 43.3853   3
  -1 -17   2 71.0123 92.7627   3
   1 -17  -1-38.2999 7.23553   3
  -1 -17   1 72.6830 110.984   3
   1 -17   0 962.403 260.437   3
  -1 -17   0 857.570 260.739   3
   1 -17   1 71.5270 56.2005   3
  -1 -17  -1 55.8518 41.3923   3
   1 -17   2 174.894 64.0233   3
  -1 -17  -2 162.916 150.060   3
  -1 -17  -3 93.6581 98.7421   3
   1 -17   3 108.606 65.8595   3
   1 -17   4 129.497 71.9016   3
  -1 -17  -4 73.6643 98.6615   3
  -1 -17  -5 228.740 174.133   3
   1 -17   5 154.198 139.697   1
  -1 -17  -5 161.784 111.843   2
   1 -17   5 204.476 88.8276   3
   1 -17   6 1437.26 247.637   3
  -1 -17  -6 1204.05 387.675   3
   1 -17   6 1174.69 365.984   1
   1 -17   7 139.075 124.180   1
  -1 -17  -7 295.365 208.507   3
   1 -17   8 23.7095 126.065   1
   1 -17   9 169.169 167.970   1
   1 -17  10 138.935 84.3501   1
   1 -17  11 56.4371 167.569   1
   1 -17  12 147.828 180.280   1
  -1 -16  13-122.356 152.378   1
  -1 -16  12 158.036 61.8355   1
  -1 -16  11 543.656 300.655   1
  -1 -16  10 157.136 199.569   1
  -1 -16   9 256.228 225.243   1
  -1 -16   8-46.0019 126.633   1
  -1 -16   7 224.743 162.904   1
  -1 -16   6 73.1405 81.2030   1
   1 -16  -6 76.9294 63.7942   2
   1 -16  -5 1669.83 294.551   2
  -1 -16   5 1241.55 371.522   1
   1 -16  -4 693.933 266.390   3
  -1 -16   4 767.627 281.108   1
  -1 -16   3 212.571 97.8259   1
   1 -16  -3 235.071 157.653   3
  -1 -16   3 226.993 131.709   3
  -1 -16   2 55.5013 98.1209   3
   1 -16  -2 135.963 128.838   3
   1 -16  -1 1327.11 303.798   3
  -1 -16   1 1327.50 298.761   3
  -1 -16   0 206.108 100.201   3
   1 -16   0 142.162 97.8483   3
  -1 -16  -1-7.64159 32.9978   3
   1 -16   1 48.5090 66.6059   3
  -1 -16  -2 29.2796 95.1227   3
   1 -16   2 49.9942 71.2825   3
  -1 -16  -3 40.4456 76.7601   3
   1 -16   3 26.2912 4.23236   3
  -1 -16  -4 593.067 258.001   2
  -1 -16  -4 154.951 98.3663   3
   1 -16   4 210.944 98.5192   3
   1 -16   5 34.3336 32.5538   1
   1 -16   5 100.138 65.9468   3
  -1 -16  -5 106.407 36.5952   2
  -1 -16  -5-40.2972 11.9654   3
  -1 -16  -6-184.300 148.560   2
   1 -16   6 33.2617 87.6310   1
  -1 -16  -6 133.219 156.428   3
   1 -16   7 508.544 254.822   1
  -1 -16  -7 571.974 279.132   3
   1 -16   8-33.2394 116.192   1
   1 -16   9 230.191 189.490   1
   1 -16  10-130.195 138.844   1
   1 -16  11 230.822 215.081   1
   1 -16  12 123.179 244.331   1
  -1 -15  13-63.6484 52.8582   1
  -1 -15  12 165.651 219.933   1
  -1 -15  11-129.479 112.820   1
  -1 -15  10 368.881 291.652   1
  -1 -15   9 137.003 96.8259   1
  -1 -15   8 62.5489 108.402   1
  -1 -15   7 65.3815 95.7310   1
   1 -15  -6-41.0658 87.5023   2
  -1 -15   6 193.540 141.260   1
   1 -15  -5 193.760 126.226   2
  -1 -15   5 149.753 138.703   1
   1 -15  -4 672.341 263.035   3
  -1 -15   4 753.892 276.721   1
   1 -15  -3 44.7915 95.1107   3
  -1 -15   3-165.971 128.571   1
   1 -15  -2 216.046 136.889   3
  -1 -15   2 191.141 117.463   3
  -1 -15   1-0.21408 12.8698   3
   1 -15  -1 50.3439 45.0952   3
  -1 -15   0 292.721 165.787   3
   1 -15   0 262.766 138.971   3
  -1 -15  -1 370.545 170.553   3
   1 -15   1 325.793 127.863   3
  -1 -15  -2 1114.54 290.485   3
   1 -15   2 1230.90 233.624   3
   1 -15   3 346.777 108.796   3
  -1 -15  -3 398.158 185.192   3
  -1 -15  -4 539.385 235.068   2
   1 -15   4 216.758 93.4487   3
  -1 -15  -4 224.171 157.568   3
  -1 -15  -5 78.4059 24.9127   2
   1 -15   5 49.2170 48.6939   1
  -1 -15  -5 156.355 161.261   3
   1 -15   5 115.307 52.1680   3
  -1 -15  -6 1072.16 260.209   2
  -1 -15  -6 1013.92 358.900   3
   1 -15   6 1041.16 338.857   1
   1 -15   7-46.4410 45.9230   1
  -1 -15  -7 73.1045 76.7699   3
   1 -15   8-8.97773 93.6296   1
   1 -15   9-123.121 206.490   1
   1 -15  10 683.870 305.591   1
   1 -15  11 259.205 269.113   1
   1 -15  12 76.9310 112.100   1
  -1 -14  13 156.906 225.687   1
  -1 -14  12 293.098 269.203   1
  -1 -14  11-55.5247 134.276   1
  -1 -14  10 21.9406 159.858   1
  -1 -14   9 216.852 183.676   1
  -1 -14   8-79.2800 143.170   1
  -1 -14   7 71.7565 47.4420   1
  -1 -14   6 261.949 206.490   1
   1 -14  -5 764.321 171.188   2
  -1 -14   5 664.585 247.644   1
  -1 -14   4 144.862 130.047   1
  -1 -14   3-74.4997 119.095   1
   1 -14  -3-23.6374 54.7449   3
   1 -14  -2 1667.99 347.576   3
  -1 -14   2 1916.23 356.769   3
   1 -14  -1 78.5455 78.2767   3
  -1 -14   1 176.255 124.467   3
  -1 -14   0 1117.30 277.278   3
   1 -14   0 1343.56 273.954   3
   1 -14   1 576.935 151.099   3
  -1 -14  -1 608.328 206.973   3
  -1 -14  -2 40.0741 61.2116   3
   1 -14   2 92.0938 58.4566   3
  -1 -14  -3 83.5389 63.9965   3
   1 -14   3 102.521 68.5777   3
  -1 -14  -4 195.814 172.358   2
   1 -14   4-27.7289 105.635   1
  -1 -14  -4 100.040 103.523   3
   1 -14   4 17.4704 30.6339   3
   1 -14   5 755.306 252.439   1
  -1 -14  -5 852.044 294.947   3
  -1 -14  -5 984.518 223.109   2
  -1 -14  -6 390.363 232.303   3
   1 -14   6 426.081 207.804   1
  -1 -14  -6 501.568 139.154   2
  -1 -14  -7 523.041 275.160   3
   1 -14   7 282.998 187.881   1
   1 -14   8 321.958 175.799   1
   1 -14   9-9.61208 52.3395   1
   1 -14  10-3.38823 96.0573   1
   1 -14  11 191.515 236.531   1
   1 -14  12 48.7170 178.542   1
  -1 -13  13 150.773 273.539   1
  -1 -13  12 18.5838 180.551   1
  -1 -13  11 225.757 219.561   1
  -1 -13  10 748.289 348.512   1
  -1 -13   9 326.609 216.250   1
  -1 -13   8-123.284 163.303   1
  -1 -13   7 125.247 94.9355   1
  -1 -13   6 253.399 193.488   1
  -1 -13   5 81.0586 45.7595   1
   1 -13  -5 11.8018 22.9337   2
  -1 -13   4-23.9286 87.8902   1
   1 -13  -3 274.032 150.955   3
  -1 -13   3 233.838 111.324   1
   1 -13  -2 235.634 115.121   3
   1 -13  -1 222.170 116.432   3
  -1 -13   1 214.064 118.531   3
   1 -13   0 92.2019 36.7527   3
  -1 -13   0 93.5985 121.380   3
   1 -13   1 1340.51 232.494   3
  -1 -13  -1 1312.34 296.929   3
  -1 -13  -2 158.414 92.6399   3
   1 -13   2 157.899 85.9233   3
  -1 -13  -3 296.298 169.135   3
   1 -13   3 273.812 89.4059   3
   1 -13   4 585.217 222.587   1
  -1 -13  -4 651.865 190.482   2
  -1 -13  -4 610.782 243.743   3
   1 -13   4 537.733 128.578   3
  -1 -13  -5 1619.91 414.676   3
  -1 -13  -5 1645.59 310.844   2
   1 -13   5 1611.72 360.616   1
   1 -13   6 230.526 163.359   1
  -1 -13  -6 325.646 225.278   3
  -1 -13  -7 622.048 278.670   3
   1 -13   7 492.520 229.799   1
   1 -13   8-36.8573 93.0996   1
   1 -13   9 404.450 217.791   1
   1 -13  10 25.0276 60.5385   1
   1 -13  11 23.2091 20.1070   1
   1 -13  12-30.4983 109.366   1
  -1 -12  13 62.5258 119.607   1
  -1 -12  12 29.8239 67.7759   1
  -1 -12  11 692.651 357.173   1
  -1 -12  10 123.944 186.023   1
  -1 -12   9 346.089 236.991   1
  -1 -12   8 92.6357 29.6635   1
  -1 -12   7 274.257 161.479   1
  -1 -12   6 520.652 235.341   1
   1 -12  -5-50.2042 87.8062   2
  -1 -12   5 36.1364 85.6847   1
  -1 -12   4 1906.19 395.226   1
  -1 -12   3 21.3233 96.7250   1
   1 -12  -3 53.5394 108.331   3
   1 -12  -2-0.03725 47.5798   3
  -1 -12   2 20.5028 85.3503   1
   1 -12  -1 1299.54 269.867   3
  -1 -12   1 1278.54 257.778   3
  -1 -12   0 436.316 156.856   3
   1 -12   0 483.644 148.669   3
   1 -12   1 501.486 139.338   3
  -1 -12  -1 388.720 180.736   3
  -1 -12  -2 14.4938 41.5182   3
   1 -12   2 66.7433 35.6668   3
  -1 -12  -3 28.6772 62.4896   3
   1 -12   3 168.494 79.8336   3
  -1 -12  -4 1589.35 296.614   2
   1 -12   4 1356.29 322.592   1
  -1 -12  -4 1202.01 336.280   3
  -1 -12  -5 85.7093 128.572   2
  -1 -12  -5 437.487 218.310   3
   1 -12   5 296.575 143.914   1
  -1 -12  -6 1684.55 439.182   3
   1 -12   6 1517.83 361.165   1
  -1 -12  -7 48.0869 47.3793   3
   1 -12   7 33.4240 58.2905   1
   1 -12   8-160.274 132.349   1
   1 -12   9 11.2827 142.856   1
   1 -12  10-21.3480 129.876   1
   1 -12  11-81.4148 146.665   1
   1 -12  12 98.6583 109.285   1
  -1 -11  13 30.6653 149.217   1
  -1 -11  12 414.969 291.023   1
  -1 -11  11 345.010 250.385   1
  -1 -11  10 126.216 200.873   1
  -1 -11   9 159.021 197.238   1
  -1 -11   8 267.794 194.936   1
  -1 -11   7 121.902 133.048   1
  -1 -11   6 244.619 164.896   1
   1 -11  -5 126.014 15.3140   2
  -1 -11   5 316.585 193.253   1
  -1 -11   4 44.6096 90.6004   1
   1 -11  -4 351.557 155.082   2
   1 -11  -3 59.5258 88.7600   3
  -1 -11   3 32.0999 95.9505   1
   1 -11  -2 0.98431 43.6196   3
  -1 -11   2 112.554 112.831   1
   1 -11  -1 99.2023 100.046   3
  -1 -11   1 126.250 70.7256   3
   1 -11   0 1184.70 222.830   3
  -1 -11   0 1274.63 260.694   3
  -1 -11  -1 545.352 214.518   3
   1 -11   1 2.14837 37.7341   3
  -1 -11  -2 1805.43 341.527   3
   1 -11   2 1939.24 230.885   3
   1 -11   3 49.3242 48.7445   3
  -1 -11  -3 155.442 158.900   2
  -1 -11  -3 24.4128 27.1690   3
  -1 -11  -4 606.575 159.022   2
   1 -11   4 688.478 208.673   1
  -1 -11  -4 435.752 182.515   3
  -1 -11  -5 129.421 129.990   3
   1 -11   5 150.868 107.813   1
  -1 -11  -5-169.535 140.098   2
   1 -11   6 1861.04 381.099   1
  -1 -11  -6 1684.80 419.919   3
  -1 -11  -7 13.3477 141.440   3
  -1 -11  -7-65.5795 57.3004   1
   1 -11   7 40.0422 66.0040   1
   1 -11   8 132.013 136.646   1
   1 -11   9 50.6950 121.103   1
   1 -11  10 279.827 189.271   1
   1 -11  11 117.789 99.8240   1
   1 -11  12-39.1907 142.285   1
  -1 -10  13 29.8007 205.754   1
  -1 -10  12 93.0717 198.307   1
  -1 -10  11 232.763 207.217   1
  -1 -10  10 539.581 276.127   1
  -1 -10   9 48.5883 57.6398   1
  -1 -10   8 128.907 131.532   1
  -1 -10   7 588.483 258.496   1
  -1 -10   6 399.106 181.117   1
  -1 -10   5 1937.29 390.755   1
   1 -10  -5 2312.17 415.529   1
  -1 -10   4 179.980 124.667   1
   1 -10  -4 338.556 102.186   2
  -1 -10   3 375.794 178.051   1
  -1 -10   2 1104.49 243.323   1
   1 -10  -2 1074.89 251.134   3
   1 -10  -1 1123.21 229.898   3
  -1 -10   1 1101.85 233.738   3
  -1 -10   0 413.685 153.477   3
   1 -10   0 320.651 108.883   3
  -1 -10  -1 168.356 121.790   3
   1 -10   1 205.083 84.8909   3
  -1 -10  -2 257.168 100.455   3
   1 -10   2 313.050 91.4107   3
  -1 -10  -3 838.729 234.832   3
  -1 -10  -3 1081.18 251.451   2
   1 -10   3 760.717 124.012   3
   1 -10   4 277.486 148.591   1
  -1 -10  -4 137.250 119.970   3
  -1 -10  -4-5.66134 95.8012   2
  -1 -10  -5 1121.61 322.273   3
   1 -10   5 1420.54 303.305   1
  -1 -10  -6 285.388 143.918   1
  -1 -10  -6 291.549 165.134   3
   1 -10   6 229.003 123.718   1
   1 -10   7 17.3679 75.9621   1
  -1 -10  -7 28.8607 13.7956   1
  -1 -10  -8 44.8117 51.4346   1
   1 -10   8-41.7388 79.1504   1
   1 -10   9 89.2420 107.690   1
   1 -10  10 124.047 162.283   1
   1 -10  11 85.7149 179.182   1
   1 -10  12-80.7786 55.7424   1
  -1  -9  13 86.7159 180.193   1
  -1  -9  12 241.434 210.160   1
  -1  -9  11 187.278 211.625   1
  -1  -9  10-21.2589 43.4033   1
  -1  -9   9-2.00227 28.3339   1
  -1  -9   8-38.6708 55.3093   1
  -1  -9   7 66.5113 73.5608   1
  -1  -9   6 306.536 169.567   1
  -1  -9   5 786.898 267.554   1
   1  -9  -5 547.489 175.209   1
  -1  -9   4 120.348 58.2788   1
   1  -9  -4 133.585 36.0539   2
  -1  -9   3 82.0112 101.211   1
  -1  -9   2 92.1887 28.6711   1
   1  -9  -2 62.7833 76.3183   3
   1  -9  -1 98.6188 92.4946   3
  -1  -9   0 558.741 165.386   3
   1  -9   0 450.226 106.291   3
  -1  -9  -1 4281.17 463.388   3
   1  -9   1 4633.22 338.573   3
   1  -9   2 6.09161 19.4555   3
  -1  -9  -2 26.2750 57.3239   3
  -1  -9  -3-18.8228 10.5311   3
  -1  -9  -3 127.166 78.7002   2
  -1  -9  -4 429.692 130.018   2
  -1  -9  -4 492.894 188.024   3
   1  -9   4 380.964 135.984   1
   1  -9   5 1241.41 272.417   1
  -1  -9  -5 1218.96 309.030   3
  -1  -9  -6 196.907 128.834   3
   1  -9   6 79.6164 72.3781   1
  -1  -9  -6 30.0546 52.1740   1
   1  -9   7 133.290 102.856   1
  -1  -9  -7-77.9840 74.3294   1
   1  -9   8 51.5792 13.8930   1
  -1  -9  -8 72.1808 74.7365   1
   1  -9   9 256.902 137.183   3
   1  -9   9 143.359 114.614   1
   1  -9  10 116.015 71.6506   1
   1  -9  11 364.752 246.614   1
   1  -9  12 351.433 269.079   1
  -1  -8  13 73.1209 180.068   1
  -1  -8  12 208.846 244.077   1
  -1  -8  11 59.9439 92.2344   1
  -1  -8  10-25.3850 65.6262   1
  -1  -8   9-146.688 188.569   1
  -1  -8   8 230.797 159.312   1
  -1  -8   7 77.3887 37.9695   1
   1  -8  -6 3891.23 550.996   1
  -1  -8   6 3454.11 545.687   1
  -1  -8   5 173.009 90.4178   1
   1  -8  -5 303.777 138.443   1
  -1  -8   4 1285.97 279.819   1
   1  -8  -4 1195.42 243.862   1
  -1  -8   3 438.772 149.157   1
  -1  -8   2 72.6000 51.1462   1
   1  -8  -1 2682.45 339.850   3
   1  -8   0 670.461 144.274   3
  -1  -8   0 720.232 175.057   3
  -1  -8  -1 38.2780 19.2576   3
   1  -8   1 49.6704 40.2569   3
  -1  -8  -2 633.558 190.794   3
   1  -8   2 633.615 98.3962   3
  -1  -8  -3 781.614 221.957   3
  -1  -8  -3 783.149 180.742   2
   1  -8   4 1881.73 304.153   1
  -1  -8  -4 2041.33 295.770   2
  -1  -8  -4 1626.92 336.917   3
   1  -8   5 117.300 60.6045   1
  -1  -8  -5 167.143 133.210   3
  -1  -8  -6 41.5923 25.0541   1
  -1  -8  -6 178.502 128.714   3
   1  -8   6 115.667 34.4975   1
  -1  -8  -7 56.6488 44.7027   1
   1  -8   7 96.4229 127.662   1
   1  -8   8 188.383 135.472   1
  -1  -8  -8 57.4577 64.3754   1
   1  -8   9 105.103 94.8974   1
   1  -8   9 39.0861 66.4500   3
   1  -8  10 124.225 125.548   1
   1  -8  11 73.7669 92.2986   1
   1  -8  12 535.824 289.649   1
  -1  -7  13-63.1098 140.065   1
  -1  -7  12 178.739 195.893   1
  -1  -7  11 40.0375 66.4892   1
  -1  -7  10 93.6880 119.571   1
  -1  -7   9-57.8016 20.8325   1
  -1  -7   8-66.3479 50.4426   1
  -1  -7   7 72.2390 56.3229   1
   1  -7  -6 148.535 99.6792   1
  -1  -7   6 73.1982 53.0480   1
   1  -7  -5 20.1008 9.59892   1
  -1  -7   5 60.1768 62.1378   1
   1  -7  -4 44.5825 78.8083   1
  -1  -7   4-85.2154 28.3288   1
   1  -7  -3 349.951 88.3882   2
  -1  -7   3 330.908 150.577   1
  -1  -7   2 329.653 126.108   1
   1  -7  -1 448.832 124.453   3
  -1  -7   1 306.222 94.0405   1
  -1  -7   0 449.198 128.294   3
   1  -7   0 453.760 108.077   3
  -1  -7  -1 592.863 158.284   3
   1  -7   1 541.705 98.0764   3
  -1  -7  -2-2.09421 42.7277   3
  -1  -7  -2 558.934 231.673   2
  -1  -7  -3 411.376 160.469   3
   1  -7   3 316.689 101.787   1
  -1  -7  -4 87.5836 44.9486   3
   1  -7   4 95.3709 46.6676   1
  -1  -7  -5 1583.67 275.175   1
   1  -7   5 1624.32 299.159   1
  -1  -7  -5 1469.82 324.713   3
   1  -7   6 761.361 206.087   1
  -1  -7  -6 668.231 223.906   3
  -1  -7  -6 711.458 199.998   1
   1  -7   7 154.112 89.1020   1
  -1  -7  -7-105.010 65.0668   1
  -1  -7  -8-40.2647 99.6570   1
   1  -7   8 66.4361 64.8941   1
   1  -7   8 120.805 117.248   3
  -1  -7  -9 275.190 173.080   1
   1  -7   9 228.828 158.053   1
   1  -7   9 409.185 173.736   3
   1  -7  10 104.440 100.295   1
   1  -7  11 356.112 260.265   1
   1  -7  12 61.2237 156.483   1
  -1  -6  13 23.1902 112.285   1
  -1  -6  12 67.3725 166.912   1
  -1  -6  11 243.367 203.031   1
  -1  -6  10 246.362 203.089   1
  -1  -6   9 70.3803 151.702   1
  -1  -6   8 234.038 142.766   1
  -1  -6   7 549.867 213.251   1
   1  -6  -6 43.5036 57.5067   1
  -1  -6   6 60.6095 67.7337   1
   1  -6  -5 2531.47 397.295   1
  -1  -6   5 2460.36 406.503   1
   1  -6  -4 443.778 148.648   1
  -1  -6   4 463.313 167.955   1
   1  -6  -3-66.5176 46.2740   2
  -1  -6   3-37.6080 99.0837   1
  -1  -6   2 267.395 109.912   1
  -1  -6   1 50.3257 52.1408   1
   1  -6   0 126.175 45.9737   3
  -1  -6   0 245.504 106.370   3
   1  -6   1 186.152 49.0258   3
  -1  -6  -1 244.768 93.2914   3
  -1  -6  -2 745.830 164.434   3
  -1  -6  -2 1223.80 219.070   2
   1  -6   3 628.666 152.120   1
  -1  -6  -3 618.879 178.464   3
  -1  -6  -3 548.503 120.269   2
   1  -6   4 652.051 160.490   1
  -1  -6  -4 573.000 171.219   3
  -1  -6  -5 198.754 94.1910   1
  -1  -6  -5 243.331 124.729   3
   1  -6   5 127.317 52.2480   1
   1  -6   6 67.5199 97.2781   1
  -1  -6  -6 64.0567 36.8800   1
  -1  -6  -7 456.333 163.906   1
   1  -6   7 489.633 183.883   1
   1  -6   7 677.044 208.668   3
   1  -6   8-74.6108 80.7129   1
  -1  -6  -8 91.7673 102.753   1
   1  -6   8-8.50857 49.6855   3
   1  -6   9 90.7850 55.0364   3
  -1  -6  -9 77.3287 95.7929   1
   1  -6   9 118.792 118.576   1
   1  -6  10 64.3610 117.729   1
   1  -6  11 1504.39 403.926   1
   1  -6  12 214.278 163.643   1
  -1  -5  13-147.309 119.063   1
  -1  -5  12 303.204 200.485   1
  -1  -5  11 21.0408 92.8793   1
  -1  -5  10 60.3016 45.5309   1
  -1  -5   9-7.95446 13.9205   1
  -1  -5   8 943.530 304.612   1
  -1  -5   7-112.315 124.513   1
   1  -5  -7 32.0169 124.389   1
  -1  -5   6 147.600 79.8041   1
   1  -5  -6 93.4871 56.3675   1
  -1  -5   5 187.022 102.284   1
   1  -5  -5 115.819 11.7717   1
   1  -5  -4 909.416 198.905   1
  -1  -5   4 956.334 242.615   1
  -1  -5   3 1621.81 277.076   1
   1  -5  -3 1807.63 283.083   1
  -1  -5   2 3.32160 44.0963   1
  -1  -5   1 370.101 104.613   1
  -1  -5  -1 57.2970 74.3256   3
  -1  -5  -2 1082.70 169.120   2
  -1  -5  -2 997.214 192.542   3
  -1  -5  -3 186.439 109.441   3
   1  -5   3 67.3118 54.9775   1
   1  -5   4 2711.07 322.228   1
  -1  -5  -4 2777.34 311.123   1
  -1  -5  -4 2475.55 369.766   3
  -1  -5  -5 22.5704 63.9753   3
  -1  -5  -5-4.04393 27.8403   1
   1  -5   5 28.9613 51.9030   1
  -1  -5  -6 2252.69 330.079   1
   1  -5   6 2059.64 329.243   1
   1  -5   7 117.853 73.0905   1
  -1  -5  -7 142.056 84.2458   1
   1  -5   7 184.942 69.7601   3
   1  -5   8 19.1530 55.8483   1
   1  -5   8-32.2881 11.0402   3
  -1  -5  -8 38.7762 77.5472   1
   1  -5   9 32.3728 77.8060   1
  -1  -5  -9 106.323 98.2292   1
   1  -5   9 74.2402 90.0922   3
   1  -5  10 569.640 239.426   1
   1  -5  11-2.51474 134.299   1
   1  -5  12-7.14799 22.4589   1
  -1  -4  13 12.2471 129.171   1
  -1  -4  12-41.5814 33.3213   1
  -1  -4  11 332.242 246.774   1
  -1  -4  10 27.0369 103.464   1
  -1  -4   9 1166.57 352.370   1
  -1  -4   8 156.396 72.1059   1
  -1  -4   7 276.505 154.723   1
   1  -4  -7 248.383 137.954   1
   1  -4  -6 1519.38 320.326   1
  -1  -4   6 1460.66 317.276   1
   1  -4  -5 1359.83 270.217   1
  -1  -4   5 1200.86 273.190   1
  -1  -4   4 1678.34 295.031   1
   1  -4  -4 2097.36 331.265   1
   1  -4  -3 350.797 123.637   1
  -1  -4   3 241.522 74.5674   1
  -1  -4   2 663.811 148.539   1
   1  -4  -2 802.456 167.229   1
  -1  -4  -1 5444.44 366.538   2
  -1  -4  -2 1806.48 246.540   3
  -1  -4  -2 1729.29 182.560   2
   1  -4   3 82.0190 57.3270   1
  -1  -4  -3 124.719 86.3622   3
  -1  -4  -4 423.280 151.180   3
   1  -4   4 439.695 106.199   1
  -1  -4  -4 493.736 118.182   1
  -1  -4  -5 146.615 77.0120   1
   1  -4   5 268.159 137.426   3
  -1  -4  -5 97.8691 60.2660   3
   1  -4   5 113.538 62.5050   1
  -1  -4  -6-50.3832 68.9559   1
   1  -4   6 169.668 96.0435   1
   1  -4   6 203.573 119.685   3
  -1  -4  -7 10.4964 46.1361   1
   1  -4   7-49.5175 90.4877   1
   1  -4   7-28.6350 54.9384   3
   1  -4   8 85.4325 123.644   3
  -1  -4  -8 25.8560 26.4561   1
   1  -4   8 55.6805 68.3299   1
  -1  -4  -9-48.8959 65.9344   1
   1  -4   9 94.5594 93.2766   1
   1  -4  10 463.190 202.327   1
   1  -4  11 80.0334 87.2280   1
   1  -4  12 167.630 97.2747   1
  -1  -3  13-17.1281 101.653   1
  -1  -3  12 59.0413 72.6525   1
  -1  -3  11 237.611 169.517   1
  -1  -3  10 281.145 200.792   1
  -1  -3   9 34.7270 53.6614   1
  -1  -3   8 60.2075 42.0008   1
  -1  -3   7 220.453 100.579   1
   1  -3  -7 304.576 133.606   1
   1  -3  -6 310.992 131.786   1
  -1  -3   6 215.963 95.3849   1
  -1  -3   5 461.166 158.651   1
   1  -3  -5 510.822 176.039   1
  -1  -3   4 380.506 143.468   1
   1  -3  -4 449.090 145.552   1
  -1  -3   3 371.422 119.167   1
   1  -3  -3 273.086 86.8274   1
  -1  -3   2 201.690 77.6677   1
   1  -3  -2 154.446 58.9947   1
   1  -3   2 121.225 40.1330   1
  -1  -3  -2 144.654 80.4344   3
  -1  -3  -3 1558.77 246.573   3
   1  -3   3 1487.79 163.878   3
  -1  -3  -3 1468.38 174.495   1
   1  -3   3 1470.51 183.162   1
  -1  -3  -4 70.5197 29.1492   3
  -1  -3  -4 47.0336 52.2245   1
   1  -3   4 47.5808 26.9110   1
   1  -3   4 264.004 109.367   3
   1  -3   5 3721.80 372.990   1
   1  -3   5 3857.09 381.888   3
  -1  -3  -5 3496.81 359.663   1
  -1  -3  -6 544.688 155.187   1
   1  -3   6 448.717 128.851   1
   1  -3   6 465.990 143.704   3
  -1  -3  -7 788.982 198.103   1
   1  -3   7 717.080 202.534   3
   1  -3   7 823.645 208.080   1
   1  -3   8-82.9822 77.6970   1
   1  -3   8 87.4253 120.317   3
  -1  -3  -8-25.4322 44.7515   1
   1  -3   9 1532.79 336.252   1
  -1  -3  -9 1286.50 302.823   1
   1  -3  10 15.0848 49.3070   1
   1  -3  11 597.143 231.829   1
   1  -3  12 160.451 150.762   1
  -1  -2  13 21.2129 105.781   1
  -1  -2  12 81.0339 103.585   1
  -1  -2  11 14.2871 91.4419   1
  -1  -2  10 930.980 361.527   1
  -1  -2   9-24.1734 107.923   1
  -1  -2   8-86.0627 116.728   1
  -1  -2   7-121.756 97.0765   1
   1  -2  -7-79.4500 91.4568   1
   1  -2  -6 1236.22 270.320   1
  -1  -2   6 1087.88 266.479   1
  -1  -2   5-9.99419 39.5281   1
   1  -2  -5 38.8579 23.8915   1
   1  -2  -4 16.1812 17.3501   1
  -1  -2   4-2.61812 69.8325   1
  -1  -2   3 1406.24 229.663   1
   1  -2  -3 1408.03 228.977   1
   1  -2  -2 2270.10 261.814   1
  -1  -2   2 2354.46 262.793   1
  -1  -2  -2 857.127 149.810   3
   1  -2   2 847.938 100.620   1
   1  -2   3 81.6395 29.9405   1
   1  -2   3 107.701 30.2677   3
  -1  -2  -3 160.257 92.1456   3
  -1  -2  -3 102.664 44.9141   1
  -1  -2  -4 1990.88 223.788   1
   1  -2   4 1999.32 251.874   3
   1  -2   4 2154.18 247.340   1
  -1  -2  -4 1911.27 289.346   3
  -1  -2  -5 215.174 67.4129   1
   1  -2   5 92.1006 24.5596   1
   1  -2   5 284.633 118.498   3
  -1  -2  -6 17.2187 53.7488   1
   1  -2   6 80.2631 95.0386   3
   1  -2   6 120.582 63.3188   1
  -1  -2  -7 493.011 146.240   1
   1  -2   7 373.731 149.818   3
   1  -2   7 409.228 152.311   1
  -1  -2  -8 735.889 194.204   1
   1  -2   8 587.745 196.957   3
   1  -2   8 802.684 232.168   1
   1  -2   9 277.067 158.186   1
  -1  -2  -9 78.9300 105.071   1
   1  -2  10-208.088 122.951   1
  -1  -2 -10-137.819 104.428   1
   1  -2  11-66.9715 76.0393   1
   1  -2  12 190.385 165.013   1
  -1  -1  13 29.0501 122.656   1
  -1  -1  12 212.368 140.023   1
  -1  -1  11 25.5673 271.247   1
  -1  -1  10 86.9654 90.3911   1
  -1  -1   9 83.8381 88.7012   1
  -1  -1   8 71.5263 73.9024   1
  -1  -1   7 156.112 117.508   1
   1  -1  -7 271.511 122.911   1
  -1  -1   6 99.1126 84.7683   1
   1  -1  -6 139.765 96.0567   1
  -1  -1   5-128.235 120.045   1
   1  -1  -5 27.5100 66.2668   1
  -1  -1   4 140.356 63.8115   1
   1  -1  -4 93.5729 69.7882   1
  -1  -1   3 704.523 156.678   1
   1  -1  -3 712.636 151.885   1
  -1  -1   2 25.8993 17.8239   1
   1  -1  -2 41.9233 36.6438   1
  -1  -1  -2 298.152 70.4701   3
   1  -1   2 213.711 38.9084   3
   1  -1   3 458.831 99.5938   3
  -1  -1  -3 460.190 85.6700   1
  -1  -1  -3 415.534 106.647   3
   1  -1   3 336.473 78.5692   1
  -1  -1  -4 115.514 37.6285   1
   1  -1   4 154.151 77.2134   3
   1  -1   4 36.1081 48.7529   1
   1  -1   5 278.003 109.135   3
  -1  -1  -5 109.540 32.0072   1
   1  -1   5 98.3788 35.9027   1
  -1  -1  -6 1317.04 233.394   1
   1  -1   6 1404.30 247.631   1
   1  -1   6 1461.23 287.187   3
  -1  -1  -7-30.3647 90.5433   1
   1  -1   7 152.165 107.419   1
   1  -1   7 142.173 120.986   3
   1  -1   8 100.376 154.387   3
   1  -1   8-17.2081 10.7450   1
  -1  -1  -8 153.767 99.7921   1
  -1  -1  -9-58.3114 73.7858   1
   1  -1   9 4.67767 65.9216   1
   1  -1  10 841.968 256.068   1
  -1  -1 -10 878.718 271.079   1
   1  -1  11 144.503 151.676   1
   1  -1  12-34.0154 62.9861   1
  -1   0  13 214.918 172.168   1
  -1   0  12 168.129 159.610   1
  -1   0  11 2625.11 578.467   1
  -1   0  10 93.5364 34.0067   1
  -1   0   9 54.0103 87.3566   1
  -1   0   8 49.1805 81.7833   1
   1   0  -7 573.647 188.095   1
  -1   0   7 548.373 203.273   1
   1   0  -6 142.262 104.591   1
  -1   0   6 70.6347 57.4179   1
   1   0  -5 4328.66 478.364   1
  -1   0   5 4174.62 482.958   1
   1   0  -4-30.8011 40.7708   1
  -1   0   4 12.9524 16.3581   1
  -1   0   3 1747.15 250.764   1
   1   0  -3 1896.99 250.616   1
   1   0  -2 1933.62 228.125   1
  -1   0   2 2015.69 240.652   1
  -1   0  -2 1405.64 156.789   3
   1   0   2 1441.96 156.415   3
  -1   0  -3 931.073 122.455   1
   1   0   3 936.249 163.837   3
   1   0   3 1032.61 138.121   1
  -1   0  -3 918.162 157.956   3
  -1   0  -4 1227.54 169.795   1
   1   0   4 1124.31 202.479   3
   1   0   4 1286.99 183.410   1
   1   0   5 1203.54 226.838   3
  -1   0  -5 1055.15 175.622   1
   1   0   5 1232.38 202.348   1
   1   0   6 242.440 134.918   3
  -1   0  -6 147.938 68.6595   1
   1   0   6 208.238 82.6686   1
   1   0   7 3093.74 457.701   3
   1   0   7 2820.26 382.255   1
  -1   0  -7 3212.40 404.580   1
   1   0   8 2057.81 357.170   1
  -1   0  -8 2148.99 351.876   1
   1   0   9 210.601 117.937   1
  -1   0  -9 204.566 82.4791   1
   1   0  10-2.31477 68.0205   1
  -1   0 -10 15.5696 93.5966   1
   1   0  11 465.697 204.486   1
   1   0  12 180.638 137.193   1
  -1   1  13-65.6312 126.624   1
  -1   1  12 39.0816 85.6520   1
  -1   1  11 193.654 205.522   1
  -1   1  10 7.37019 93.8269   1
  -1   1   9 176.358 104.051   1
  -1   1   8-77.3462 116.831   1
   1   1  -7 223.051 115.952   1
  -1   1   7 344.050 144.021   1
  -1   1   6-24.4002 74.1985   1
   1   1  -6 2.03927 67.8386   1
   1   1  -5 46.5902 57.2165   1
  -1   1   5 79.3552 61.2949   1
  -1   1   4 142.732 43.3852   1
   1   1  -4 113.727 89.2532   1
  -1   1   3 682.425 161.736   1
   1   1  -3 687.730 143.524   1
   1   1  -2 67.3460 41.6878   1
  -1   1   2 18.9061 38.6475   1
   1   1   2 338.545 84.2408   3
  -1   1  -2 316.941 67.5720   3
  -1   1  -3 465.254 87.2406   1
   1   1   3 494.076 126.040   3
   1   1   3 457.565 92.6181   1
  -1   1  -4 118.103 40.9689   1
   1   1   4 166.395 76.3265   3
   1   1   4 123.239 44.8219   1
   1   1   5 235.894 121.692   3
  -1   1  -5 123.597 27.0976   1
   1   1   5 196.854 63.4757   1
   1   1   6 1502.18 299.347   3
   1   1   6 1282.08 222.655   1
  -1   1  -6 1449.47 243.374   1
   1   1   7 107.533 94.1691   1
   1   1   7 110.685 102.397   3
  -1   1  -7 110.969 60.1885   1
   1   1   8 39.2868 55.6205   1
  -1   1  -8-121.249 108.142   1
  -1   1  -9-129.543 120.224   1
   1   1   9-117.471 93.1008   1
   1   1  10 854.175 261.420   1
  -1   2  12 195.018 135.181   1
  -1   2  11 31.8215 77.9268   1
  -1   2  10 584.159 239.611   1
  -1   2   9-85.4681 105.147   1
  -1   2   8-145.988 118.286   1
   1   2  -7-79.0980 125.683   1
  -1   2   7-40.2721 78.6159   1
  -1   2   6 910.809 236.831   1
   1   2  -6 1223.30 264.800   1
  -1   2   5 87.1483 55.1610   1
   1   2  -5-7.95100 58.0693   1
  -1   2   4-14.5525 14.5555   1
   1   2  -4 184.122 81.6189   1
   1   2  -3 1388.49 220.409   1
  -1   2   3 1467.10 238.966   1
   1   2  -2 2477.49 265.934   1
  -1   2   2 2239.75 251.441   1
   1   2   2 859.506 148.328   3
  -1   2  -3 62.2565 42.5711   1
   1   2   3 111.341 48.4566   3
   1   2   4 2027.47 298.459   3
  -1   2  -4 2125.59 234.771   1
  -1   2  -5 273.547 77.0587   1
   1   2   5 363.924 113.618   1
   1   2   5 312.419 144.060   3
   1   2   6 127.564 69.8253   1
  -1   2  -6 120.612 66.5134   1
   1   2   6 89.6701 103.030   3
  -1   2  -7 306.509 117.481   1
   1   2   7 281.473 110.122   1
   1   2   7 535.156 194.390   3
  -1   2  -8 627.434 183.375   1
   1   2   8 633.665 181.008   1
   1   2   9 26.0059 62.2099   1
  -1   2  -9 146.989 100.813   1
  -1   3  11 15.4724 65.7022   1
  -1   3  10 230.489 109.602   1
  -1   3   9 61.5579 67.3665   1
  -1   3   8 104.611 121.604   1
   1   3  -7 294.631 163.695   1
  -1   3   7 313.982 164.334   1
   1   3  -6 255.015 105.425   1
  -1   3   6 266.833 116.192   1
   1   3  -5 522.482 173.401   1
  -1   3   5 335.529 98.4805   1
  -1   3   4 325.804 124.961   1
   1   3  -4 450.095 157.903   1
   1   3  -3 292.902 100.503   1
  -1   3   3 298.350 101.582   1
  -1   3   2 102.381 30.1841   1
   1   3  -2 138.827 50.0925   1
   1   3   2 190.790 78.7929   3
   1   3   2 316.587 114.328   2
  -1   3  -3 1653.52 192.767   1
   1   3   3 1495.29 234.107   3
   1   3   3 1465.17 215.029   2
  -1   3  -4 55.3338 48.8537   1
   1   3   4 45.5298 15.7830   3
   1   3   5 3835.16 466.433   3
  -1   3  -5 3461.07 355.545   1
   1   3   6 505.013 181.849   3
  -1   3  -6 426.260 135.034   1
  -1   3  -7 712.211 195.190   1
  -1   3  -8 60.8224 82.6701   1
  -1   3  -9 1506.00 330.806   1
  -1   4  10-21.4591 109.820   1
  -1   4   9 1101.15 339.035   1
  -1   4   8 171.029 122.421   1
  -1   4   7 199.585 133.085   1
   1   4  -7 296.115 137.264   1
  -1   4   6 1365.97 304.209   1
   1   4  -6 1757.29 332.009   1
  -1   4   5 1343.03 274.903   1
   1   4  -5 1276.96 247.319   1
   1   4  -4 1912.67 312.003   1
  -1   4   4 1739.69 296.096   1
   1   4  -3 322.362 133.545   1
   1   4  -2 771.934 155.298   1
   1   4   2 1766.58 244.606   3
   1   4   2 1920.43 224.304   2
   1   4   3 120.420 55.9258   2
   1   4   3 104.883 60.5930   3
   1   4   4 461.739 155.998   3
  -1   4  -4 518.088 121.893   1
   1   4   4 485.485 127.177   2
   1   4   5 134.662 124.151   3
  -1   4  -5 73.2326 28.1508   1
  -1   4  -6 72.8652 71.8341   1
   1   4   6 168.589 145.632   3
  -1   4  -7 8.19854 85.2229   1
  -1   4  -8 179.978 119.498   1
  -1   4  -9 36.3998 70.8547   1
   1   5  -6 14.5868 65.0873   1
  -1   5   5-32.6892 65.7903   2
  -1   5   5 42.2933 97.2555   3
   1   5  -5 92.1623 84.8956   1
  -1   5   4 782.356 107.219   2
   1   5  -4 936.681 218.055   1
   1   5  -3 1928.49 287.673   1
  -1   5   2 15.5978 59.7488   3
   1   5  -2 76.0194 42.7323   1
  -1   5   1 442.303 114.811   3
   1   5  -1 440.999 106.414   1
   1   5   1 76.1855 46.1167   3
   1   5   2 838.624 125.502   2
   1   5   2 1007.42 184.874   3
   1   5   3 20.6263 17.6821   2
   1   5   3 29.0373 52.0295   3
   1   5   4 2534.31 323.894   2
   1   5   4 2777.27 390.563   3
   1   5   5 20.5495 40.1602   2
  -1   5  -5 81.6387 79.5729   1
   1   5   5 46.1113 62.0502   3
  -1   5  -6 1891.99 306.144   1
   1   5   6 2238.61 392.244   3
   1   5   6 1740.64 297.557   2
  -1   5  -7 239.022 135.280   1
  -1   5  -8-27.8540 27.8836   1
  -1   5  -9 51.7037 63.6898   1
   1   5  11-18.9925 128.457   2
   1   5  12-183.414 246.612   2
  -1   6  11-1.75132 124.597   2
  -1   6  10 89.3712 71.4471   2
  -1   6   9 16.5604 68.5928   2
  -1   6   8 354.582 100.274   2
  -1   6   7 396.998 86.3599   2
  -1   6   6-83.3439 83.7792   2
   1   6  -6 137.579 82.5855   1
   1   6  -5 2527.69 390.010   1
  -1   6   5 2566.67 435.963   3
  -1   6   5 2256.32 218.705   2
   1   6  -4 565.591 198.442   1
  -1   6   4 445.900 175.756   3
   1   6  -3 22.0454 30.1291   1
  -1   6   3 20.4482 83.3578   3
   1   6  -2 379.395 118.573   1
  -1   6   2 388.281 129.294   3
  -1   6   1 37.6187 42.9817   3
  -1   6   0 277.212 78.9951   3
  -1   6  -1 169.437 47.4977   3
   1   6   1 162.042 71.2606   3
   1   6   2 783.018 178.051   3
   1   6   3 652.149 150.579   2
   1   6   3 460.361 150.988   3
   1   6   4 568.803 182.693   3
   1   6   4 662.318 162.648   2
   1   6   5 98.0180 13.0033   3
   1   6   5 127.749 64.8885   2
   1   6   6 27.7839 99.7752   2
  -1   6  -6 82.5189 78.4163   1
   1   6   7 249.362 109.827   2
  -1   6  -7 565.238 173.306   1
   1   6   8-32.7676 107.458   2
  -1   6  -8 112.618 103.080   1
   1   6   9 58.1076 87.6820   2
  -1   6  -9 233.931 160.176   1
   1   6  10-152.727 186.150   2
   1   6  11 1132.87 317.069   2
   1   6  12-147.746 245.019   2
  -1   7  11-203.870 173.110   2
  -1   7  10 41.2336 89.9719   2
  -1   7   9-126.111 118.958   2
  -1   7   8-167.238 117.176   2
  -1   7   7 11.9479 40.7263   2
   1   7  -6 13.5736 19.1656   1
  -1   7   6 134.681 78.5808   2
   1   7  -5 15.7596 79.0145   1
  -1   7   5 183.392 128.306   3
  -1   7   4-58.3219 37.6387   3
   1   7  -4-36.8168 45.0987   1
   1   7  -3 153.292 32.2589   1
  -1   7   3 207.789 116.490   3
   1   7  -2 309.373 109.811   1
  -1   7   2 257.510 120.939   3
  -1   7   1 550.978 144.659   3
  -1   7   0 500.772 108.250   3
   1   7   1 561.994 167.403   3
  -1   7  -1 591.330 102.420   3
   1   7   2-29.6249 34.0777   3
   1   7   3 353.823 127.786   3
   1   7   4 384.653 146.450   2
   1   7   4 70.1749 77.1934   3
   1   7   5 1573.36 278.735   2
   1   7   5 1706.07 349.679   3
   1   7   6 671.513 199.648   2
  -1   7  -7 1.31043 72.5248   1
   1   7   7-121.188 112.609   2
   1   7   8-52.8490 109.509   2
  -1   7  -8-54.8333 104.930   1
   1   7   9 28.4246 156.729   2
   1   7  10 54.0194 115.471   2
   1   7  11 11.5369 118.167   2
   1   7  12-198.780 192.507   2
  -1   8  10 69.6325 44.7652   2
  -1   8   9 32.8527 28.8676   2
  -1   8   8 111.371 50.7475   2
  -1   8   7 188.157 95.1644   2
   1   8  -6 3813.42 521.693   1
   1   8  -5 371.070 143.258   1
   1   8  -4 1297.91 267.150   1
  -1   8   4 1384.01 303.585   3
   1   8  -3 666.057 191.342   1
  -1   8   3 520.010 161.966   3
  -1   8   2 3.07917 66.8346   3
  -1   8   1 2927.69 331.479   3
  -1   8   0 721.547 136.862   3
  -1   8  -1 13.9876 43.0676   3
   1   8   1 93.6344 71.5074   3
   1   8   2 740.769 189.691   3
   1   8   3 637.906 193.857   3
   1   8   4 1896.68 347.587   3
   1   8   5 193.903 101.097   2
   1   8   6 114.303 57.2866   2
   1   8   7 8.82072 70.0136   2
  -1   8  -8 4.49579 77.2883   1
   1   8   8 72.0150 75.0691   2
   1   8   9 6.77500 20.5630   2
   1   8  10-244.867 200.689   2
   1   8  11 12.4699 62.1186   2
   1   8  12 693.938 255.392   2
  -1   9  10 41.3203 87.9224   2
  -1   9   9 113.989 93.2154   2
  -1   9   8 147.620 118.159   2
   1   9  -5 539.197 181.178   1
   1   9  -4 185.929 104.464   1
  -1   9   4 145.047 126.535   3
  -1   9   3 46.8701 75.4930   3
  -1   9   2-15.2791 55.9439   3
  -1   9   1 121.685 74.2526   3
  -1   9   0 547.450 128.683   3
  -1   9  -1 4722.43 334.521   3
   1   9   1 4590.01 456.927   3
   1   9   2 41.3678 79.2753   3
   1   9   3 148.569 96.4842   3
   1   9   4 392.371 172.434   3
   1   9   5 1556.34 303.887   2
   1   9   6 299.060 140.696   2
   1   9   7 32.1867 46.0647   2
   1   9   8 13.2365 23.6955   2
   1   9   9 122.866 118.047   2
   1   9  10 96.9347 84.0247   2
   1   9  11 192.011 117.004   2
  -1  10  10 786.559 238.462   2
   1  10  -5 2050.39 375.607   1
   1  10  -4 209.755 150.975   1
  -1  10   4 143.688 74.7136   3
  -1  10   3 344.216 112.596   3
  -1  10   2 1289.52 263.461   3
  -1  10   1 1146.56 222.861   3
  -1  10   0 353.892 111.320   3
  -1  10  -1 66.4327 63.8306   3
   1  10   1 157.959 81.6213   3
   1  10   2 242.676 127.293   3
   1  10   3 752.136 212.524   3
   1  10   4 223.947 127.621   3
   1  10   6 348.671 172.942   2
   1  10   7 301.415 159.125   2
   1  10   8 130.780 132.751   2
   1  10   9 130.428 136.301   2
   1  10  10 65.1469 109.095   2
   1  10  11 147.934 161.582   2
  -1  11   3 29.6721 19.5912   3
  -1  11   2 62.8562 65.4132   3
  -1  11   1 23.6885 29.6243   3
  -1  11   0 1301.93 228.347   3
  -1  11  -1 20.9520 30.3027   3
   1  11   1 737.190 212.120   3
   1  11   2 1947.24 347.142   3
   1  11   3 4.52397 9.15246   3
   1  11   8 28.3932 123.299   2
   1  11   9 218.875 173.331   2
   1  11  10 351.926 230.534   2
   1  11  11 220.467 205.110   2
  -1  12   3 55.7930 90.3897   3
  -1  12   2 68.1821 72.6458   3
  -1  12   1 1426.61 255.501   3
  -1  12   0 496.781 147.817   3
   1  12   1 717.073 223.765   3
  -1  12  -1 505.430 133.068   3
   1  12   2-34.3244 60.3614   3
   1  12   3 89.3747 123.319   3
   1  12  10 174.417 202.158   2
   1  12  11 303.885 234.291   2
  -1  13   3 349.423 159.517   3
  -1  13   2 233.555 119.675   3
  -1  13   1 149.341 94.8239   3
  -1  13   0 12.2130 55.3313   3
   1  13   1 1389.93 295.411   3
  -1  13  -1 1470.57 239.616   3
   1  13   2 268.337 144.320   3
  -1  14   2 1897.69 348.486   3
  -1  14   1 262.971 127.601   3
  -1  14   0 1182.89 245.624   3
   1  14   1 498.066 183.105   3
  -1  14  -1 607.451 168.627   3
   1  14   2 145.887 123.121   3
  -1  15   2 168.566 101.686   3
  -1  15   1 70.1552 60.7154   3
  -1  15   0 231.356 116.603   3
   1  15   1 533.896 215.202   3
  -1  15  -1 430.886 153.288   3
  -1  16   1 1494.24 318.534   3
  -1  16   0 132.093 106.504   3
  -1  16  -1 50.6222 43.1721   3
  -1  17   1 3.49582 89.4743   3
  -1  17   0 1056.56 249.622   3
  -1  17  -1 99.8837 71.1733   3
  -1  18   0 748.353 228.223   3
  -1  18  -1 116.581 93.7964   3
  -1  19   0 109.313 124.873   3
  -1  19  -1 997.428 245.942   3
  -1  20  -1 578.543 201.733   3
  -1  21  -1 105.629 138.500   3
  -2 -44   0-254.433 319.900   3
  -2 -44  -1-63.7948 221.498   3
  -2 -43   1 193.571 291.809   3
  -2 -43   0 254.629 317.635   3
  -2 -43  -1-133.447 259.305   3
  -2 -43  -2-310.028 387.047   3
  -2 -42   1 97.9987 246.264   3
  -2 -42   0 230.733 316.283   3
  -2 -42  -1 264.612 257.022   3
  -2 -42  -2-0.08322 129.012   3
  -2 -41   2 11.1543 39.9750   3
  -2 -41   1-65.7198 98.8032   3
  -2 -41   0 432.483 314.572   3
  -2 -41  -1 14.3564 182.914   3
  -2 -41  -2 194.886 249.718   3
  -2 -41  -3-312.378 121.351   3
  -2 -40   3 162.325 415.283   1
  -2 -40   2 11.1121 168.771   3
  -2 -40   2 81.1795 388.924   1
  -2 -40   1 213.757 283.703   3
  -2 -40   1 103.104 323.494   1
  -2 -40   0 248.304 309.063   3
  -2 -40  -1 314.867 317.640   3
  -2 -40  -2 37.1658 305.449   3
  -2 -40  -3 448.327 260.848   3
  -2 -40  -4-40.6261 122.078   3
  -2 -39   4 478.153 433.876   1
  -2 -39   3-325.095 401.697   1
  -2 -39   2 38.0634 159.061   3
  -2 -39   2 205.844 260.079   1
  -2 -39   1 103.900 224.599   3
  -2 -39   1 349.439 439.266   1
  -2 -39   0 105.026 219.354   3
  -2 -39  -1-61.6658 230.309   3
  -2 -39  -2-8.65800 118.297   3
  -2 -39  -3 49.2642 297.968   3
  -2 -39  -4 162.340 236.646   3
  -2 -39  -5 231.356 166.134   3
   2 -39   5 26.0963 179.262   1
   2 -39   6 164.315 348.495   1
  -2 -38   6 332.919 511.100   1
  -2 -38   5-18.7239 150.967   1
  -2 -38   4 293.532 211.678   1
  -2 -38   3 255.338 297.279   3
  -2 -38   3 119.765 160.129   1
  -2 -38   2 303.806 390.007   1
  -2 -38   2 25.0871 89.1081   3
  -2 -38   1 55.4297 130.441   3
  -2 -38   1 67.4679 102.487   1
  -2 -38   0 224.219 137.092   3
  -2 -38  -1-346.546 211.502   3
  -2 -38  -2 155.057 265.522   3
  -2 -38  -3-61.4439 243.278   3
  -2 -38  -4-104.527 130.319   3
  -2 -38  -5 71.9957 224.353   3
   2 -38   5-184.467 154.619   1
   2 -38   6-87.2729 217.498   1
   2 -38   7-383.694 306.336   1
  -2 -37   7 49.3616 148.992   1
  -2 -37   6 93.6253 72.6528   1
  -2 -37   5 605.573 330.305   1
  -2 -37   4 390.764 417.297   1
  -2 -37   3-92.6112 212.281   1
  -2 -37   3 108.475 252.425   3
  -2 -37   2 501.995 376.198   1
  -2 -37   2-160.749 205.406   3
  -2 -37   1 470.251 313.287   3
  -2 -37   1 227.769 275.824   1
  -2 -37   0-25.9116 156.810   3
  -2 -37  -1 181.312 278.486   3
  -2 -37  -2 236.160 235.393   3
  -2 -37  -3 250.055 331.375   3
  -2 -37  -4 212.995 274.152   3
   2 -37   5 208.735 228.816   1
  -2 -37  -5 166.092 264.353   3
   2 -37   6 55.7653 134.879   1
  -2 -37  -6 568.155 390.022   3
   2 -37   7-82.7578 48.7461   1
   2 -37   8 118.991 303.033   1
   2 -37   9 431.185 367.606   1
  -2 -36   8 297.590 372.684   1
  -2 -36   7 131.249 136.647   1
  -2 -36   6 77.9715 202.591   1
  -2 -36   5 400.110 337.348   1
  -2 -36   4 46.7868 162.894   3
  -2 -36   4 317.149 212.595   1
  -2 -36   3-252.820 214.669   1
  -2 -36   3-20.3172 97.6680   3
  -2 -36   2-23.9599 208.147   3
  -2 -36   2 183.988 247.191   1
  -2 -36   1-117.211 246.034   1
  -2 -36   1-42.9036 90.1899   3
  -2 -36   0-191.295 291.027   3
   2 -36   0-171.979 248.501   3
  -2 -36  -1 7.84971 171.431   3
  -2 -36  -2 86.6533 159.313   3
  -2 -36  -3 70.2851 195.425   3
  -2 -36  -4-94.3521 216.546   3
   2 -36   5 412.889 305.753   1
  -2 -36  -5-327.315 222.482   3
   2 -36   6 107.613 324.893   1
  -2 -36  -6 169.514 271.607   3
   2 -36   7 115.988 214.427   1
  -2 -36  -7 311.260 380.038   3
   2 -36   8 180.928 364.014   1
   2 -36   9 5.87418 170.299   1
  -2 -35   9 424.406 395.486   1
  -2 -35   8-191.372 202.300   1
  -2 -35   7-93.0706 202.154   1
  -2 -35   6 325.498 288.582   1
  -2 -35   5 68.7993 251.614   1
  -2 -35   4 31.8756 274.480   1
  -2 -35   4 57.4232 75.0069   3
  -2 -35   3 307.532 297.320   1
  -2 -35   3 167.459 217.925   3
  -2 -35   2 281.706 196.532   3
  -2 -35   2 129.086 266.015   1
  -2 -35   1-229.783 198.020   3
   2 -35   0 317.201 290.669   3
  -2 -35   0 107.833 97.3941   3
   2 -35   1 149.867 225.183   3
  -2 -35  -1 20.2007 88.8294   3
  -2 -35  -2 147.644 214.330   3
  -2 -35  -3-9.27721 190.883   3
  -2 -35  -4 69.3847 198.218   3
   2 -35   5 301.356 314.878   1
  -2 -35  -5 46.7793 109.532   3
   2 -35   6 40.2162 39.9865   1
  -2 -35  -6 33.8384 103.076   3
  -2 -35  -7-87.0919 248.885   3
   2 -35   7-166.495 177.585   1
   2 -35   8 332.621 333.559   1
   2 -35   9-153.413 292.901   1
   2 -35  10-176.813 342.211   1
  -2 -34   9 473.590 363.294   1
  -2 -34   8 379.905 389.262   1
  -2 -34   7-286.561 226.094   1
  -2 -34   6-52.1001 109.200   1
  -2 -34   5-79.4884 147.018   3
  -2 -34   5-21.7449 98.0059   1
  -2 -34   4 378.798 209.142   1
  -2 -34   4 1.07209 121.407   3
  -2 -34   3 249.367 164.430   1
  -2 -34   3 134.503 170.541   3
  -2 -34   2 12.7036 164.219   1
  -2 -34   2 20.8704 106.386   3
  -2 -34   1 28.1952 56.1743   3
   2 -34  -1 195.132 153.387   3
   2 -34   0 88.3563 119.758   3
  -2 -34   0 86.7895 88.3794   3
  -2 -34  -1-141.533 134.834   3
   2 -34   1 22.5488 139.583   3
  -2 -34  -2 403.260 295.954   3
  -2 -34  -3-63.8788 173.451   3
  -2 -34  -4 77.6971 75.2843   3
   2 -34   5 588.553 342.873   1
  -2 -34  -5 391.742 345.875   3
  -2 -34  -6-241.995 174.784   3
   2 -34   6-256.203 262.116   1
  -2 -34  -7-40.9591 148.749   3
   2 -34   7-107.837 176.471   1
   2 -34   8-133.892 190.097   1
  -2 -34  -8 280.091 203.619   3
   2 -34   9-158.723 253.839   1
   2 -34  10-66.1372 190.106   1
  -2 -33  10 326.956 397.595   1
  -2 -33   9-205.987 351.384   1
  -2 -33   8 77.0329 187.088   1
  -2 -33   7-185.761 261.754   1
  -2 -33   6-84.5211 178.535   1
  -2 -33   5 260.653 307.221   1
  -2 -33   5 68.7702 181.486   3
  -2 -33   4-70.0842 184.001   3
  -2 -33   4 35.6846 167.409   1
  -2 -33   3 145.528 220.480   1
  -2 -33   3 265.788 285.525   3
  -2 -33   2 205.489 221.102   3
  -2 -33   2 101.184 237.214   1
   2 -33  -1 362.492 293.610   3
  -2 -33   1 261.467 223.619   3
   2 -33   0 373.866 261.371   3
  -2 -33   0 388.372 330.406   3
   2 -33   1 6.22566 102.506   3
  -2 -33  -1 110.326 174.449   3
  -2 -33  -2 459.474 301.011   3
   2 -33   2 312.556 191.560   3
  -2 -33  -3 256.256 305.665   3
  -2 -33  -4 239.481 268.071   3
  -2 -33  -5 334.365 245.667   3
   2 -33   5 173.956 267.263   1
   2 -33   6 251.394 206.874   1
  -2 -33  -6 96.2457 257.206   3
  -2 -33  -7 432.418 340.217   3
   2 -33   7 60.4887 107.293   1
   2 -33   8-60.0171 254.940   1
  -2 -33  -8-189.773 221.476   3
   2 -33   9 192.142 308.183   1
   2 -33  10 323.589 409.157   1
  -2 -32  11 93.0353 194.936   1
  -2 -32  10 119.743 254.920   1
  -2 -32   9-1.08022 161.087   1
  -2 -32   8 153.287 281.925   1
  -2 -32   7 177.492 283.769   1
  -2 -32   6-215.075 179.777   1
  -2 -32   5 607.362 345.033   1
  -2 -32   5 439.257 275.341   3
  -2 -32   4 358.826 258.582   3
  -2 -32   4 362.750 259.742   1
  -2 -32   3 207.295 142.611   3
  -2 -32   3 83.2313 124.936   1
  -2 -32   2 183.719 183.166   3
  -2 -32   2-51.9920 35.2335   1
  -2 -32   1 120.971 186.477   3
   2 -32  -1 429.675 227.684   3
   2 -32   0 32.4932 87.8087   3
  -2 -32   0 31.6567 153.629   3
   2 -32   1 23.0018 81.5899   3
  -2 -32  -1 115.203 52.5547   3
  -2 -32  -2 30.0486 143.339   3
   2 -32   2-25.1188 28.1733   3
  -2 -32  -3 375.822 338.805   3
  -2 -32  -4 136.864 94.1784   3
  -2 -32  -5 125.703 206.340   3
   2 -32   5 186.610 189.839   1
  -2 -32  -6 54.7026 214.912   3
   2 -32   6-160.942 186.864   1
   2 -32   7 124.800 118.531   1
  -2 -32  -7-95.9681 204.393   3
   2 -32   8 137.283 163.486   1
  -2 -32  -8-140.300 274.627   3
   2 -32   9-87.9668 177.106   1
  -2 -32  -9-305.621 289.357   3
   2 -32  10 68.1134 208.677   1
  -2 -31  11 250.021 346.593   1
  -2 -31  10 51.2574 106.615   1
  -2 -31   9-18.2855 183.490   1
  -2 -31   8 298.478 300.609   1
  -2 -31   7 279.847 301.119   1
  -2 -31   6-254.019 233.989   1
  -2 -31   6-34.7393 147.878   3
  -2 -31   5 175.788 228.983   3
  -2 -31   5-191.395 278.338   1
  -2 -31   4 131.553 213.964   1
  -2 -31   4 153.485 210.580   3
  -2 -31   3 165.512 180.378   1
  -2 -31   3-30.8567 53.6553   3
  -2 -31   2-42.2650 186.599   1
  -2 -31   2 53.1817 197.248   3
  -2 -31   1 81.8067 187.267   3
   2 -31  -1 139.622 160.588   3
   2 -31   0 222.786 163.009   3
  -2 -31   0 336.712 315.589   3
  -2 -31  -1 53.4546 170.356   3
   2 -31   1 84.7825 160.110   3
  -2 -31  -2 122.141 199.302   3
   2 -31   2-11.8962 129.496   3
  -2 -31  -3 304.231 255.691   3
  -2 -31  -4 212.206 295.034   3
  -2 -31  -5 27.5364 146.266   3
  -2 -31  -6 161.020 229.753   3
   2 -31   6 1.57049 148.171   1
  -2 -31  -7-4.37098 120.494   3
   2 -31   7-123.517 285.581   1
   2 -31   8 45.7032 203.632   1
  -2 -31  -8-51.1062 257.948   3
   2 -31   9 187.916 145.029   1
  -2 -31  -9 253.698 377.278   3
   2 -31  10-7.52802 95.3745   1
  -2 -30  12 72.4647 109.390   1
  -2 -30  11 108.467 295.711   1
  -2 -30  10 248.239 392.909   1
  -2 -30   9 131.417 188.912   1
  -2 -30   8 333.433 301.096   1
  -2 -30   7 125.885 215.312   1
  -2 -30   6 211.740 30.2192   1
  -2 -30   6 75.4016 63.8496   3
  -2 -30   5-49.4782 70.5998   1
  -2 -30   5 27.8528 114.619   3
  -2 -30   4 631.211 324.624   3
  -2 -30   4 441.605 294.680   1
  -2 -30   3 352.056 261.911   3
  -2 -30   3 568.598 360.088   1
   2 -30  -2 45.3350 131.137   3
  -2 -30   2-98.8882 202.028   1
  -2 -30   2 17.6286 115.943   3
  -2 -30   1-6.07442 63.7252   3
   2 -30  -1 177.983 195.543   3
  -2 -30   0 223.773 189.456   3
   2 -30   0 34.7597 41.8928   3
  -2 -30  -1 107.541 141.815   3
   2 -30   1 85.4633 80.7475   3
  -2 -30  -2 80.4125 155.651   3
   2 -30   2 30.1240 94.1851   3
   2 -30   3 10.8716 72.8355   3
  -2 -30  -3 72.7484 41.0274   3
  -2 -30  -4 400.161 311.332   3
  -2 -30  -5 312.894 191.512   3
  -2 -30  -6 48.3376 119.899   3
   2 -30   6-41.6709 176.960   1
   2 -30   7 215.595 229.215   1
  -2 -30  -7 17.2715 183.719   3
  -2 -30  -8 1.32763 39.2214   3
   2 -30   8 63.0134 148.230   1
  -2 -30  -9 204.019 379.341   3
   2 -30   9-106.212 224.365   1
   2 -30  10 207.006 246.891   1
  -2 -29  12 387.885 248.606   1
  -2 -29  11-125.192 81.5157   1
  -2 -29  10-8.80273 206.527   1
  -2 -29   9 67.6594 259.630   1
  -2 -29   8 88.7115 221.543   1
  -2 -29   7 150.617 218.004   1
  -2 -29   6 204.478 177.162   3
  -2 -29   6 198.891 125.400   1
  -2 -29   5 82.5732 87.1270   3
  -2 -29   5 238.826 170.414   1
  -2 -29   4 295.192 281.375   3
  -2 -29   4-93.0947 138.096   1
  -2 -29   3 17.0241 94.6354   1
  -2 -29   3 286.874 235.580   3
  -2 -29   2 6.86929 103.647   3
  -2 -29   2 132.791 222.002   1
   2 -29  -2 4.63556 79.8532   3
   2 -29  -1 86.4295 84.4192   3
  -2 -29   1 236.578 157.590   3
   2 -29   0 509.096 273.483   3
  -2 -29   0 493.575 270.502   3
  -2 -29  -1 15.5012 64.0265   3
   2 -29   1 5.42429 28.7092   3
   2 -29   2 157.099 95.8823   3
  -2 -29  -2 41.2692 181.335   3
   2 -29   3 97.6182 112.811   3
  -2 -29  -3 151.511 155.070   3
  -2 -29  -4 353.882 305.952   3
  -2 -29  -5 603.060 349.806   3
  -2 -29  -6 273.830 246.353   3
   2 -29   6 53.0877 177.361   1
  -2 -29  -7 163.983 214.106   3
   2 -29   7 67.4255 147.765   1
   2 -29   8 94.0203 89.0737   1
  -2 -29  -8 25.6688 127.731   3
   2 -29   9 0.06451 160.340   1
  -2 -29  -9 46.1045 201.877   3
   2 -29  10 329.540 337.558   1
  -2 -28  13 486.141 471.982   1
  -2 -28  12-337.377 207.167   1
  -2 -28  11 47.4114 144.346   1
  -2 -28  10 361.483 333.710   1
  -2 -28   9 86.6773 216.714   1
  -2 -28   8-31.4746 98.8684   1
  -2 -28   7 110.800 152.891   3
  -2 -28   7 347.025 262.628   1
  -2 -28   6 11.4563 244.033   1
  -2 -28   6 123.004 157.144   3
  -2 -28   5 145.398 129.560   3
  -2 -28   5-104.419 161.781   1
  -2 -28   4 243.670 67.4276   1
  -2 -28   4 16.8999 119.913   3
  -2 -28   3-67.5942 107.662   1
  -2 -28   3 136.880 114.451   3
  -2 -28   2 1025.04 448.640   1
   2 -28  -2 1035.56 375.099   3
  -2 -28   2 905.345 346.368   3
  -2 -28   1 110.806 165.124   3
   2 -28  -1 96.8183 140.689   3
   2 -28   0 82.9440 126.704   3
  -2 -28   0 238.084 189.805   3
   2 -28   1 257.165 178.488   3
  -2 -28  -1 184.605 238.910   3
  -2 -28  -2-84.5210 118.559   3
   2 -28   2 142.217 143.690   3
   2 -28   3 75.2490 98.1202   3
  -2 -28  -3 119.104 188.792   3
   2 -28   4 65.5138 22.3761   3
  -2 -28  -4-129.645 119.175   3
  -2 -28  -5-151.777 211.944   3
   2 -28   6 500.751 365.918   1
  -2 -28  -6 380.590 277.846   3
  -2 -28  -7 241.739 235.695   3
   2 -28   7-4.64434 155.518   1
   2 -28   8 7.97778 63.4848   1
  -2 -28  -8-57.8160 91.7379   3
  -2 -28  -9 161.603 244.615   3
   2 -28   9 247.840 254.436   1
   2 -28  10 176.002 327.451   1
  -2 -27  13 78.5984 339.832   1
  -2 -27  12 19.0733 217.751   1
  -2 -27  11 160.538 269.661   1
  -2 -27  10-147.295 14.5998   1
  -2 -27   9-204.953 325.005   1
  -2 -27   8-67.8827 206.196   1
  -2 -27   7 19.1953 138.753   1
  -2 -27   7 80.4844 182.229   3
  -2 -27   6 9.42367 131.134   3
  -2 -27   6-171.927 222.388   1
  -2 -27   5 304.748 126.956   1
  -2 -27   5 499.900 236.697   3
  -2 -27   4 301.664 207.767   3
  -2 -27   4 85.1692 167.436   1
  -2 -27   3 102.120 220.333   1
  -2 -27   3 114.435 157.555   3
  -2 -27   2 127.340 145.043   1
  -2 -27   2 222.404 222.558   3
   2 -27  -2 52.2577 167.265   3
   2 -27  -1 907.108 334.743   3
  -2 -27   1 729.971 318.563   3
  -2 -27   0 198.627 151.127   3
   2 -27   0 278.519 187.334   3
   2 -27   1 390.547 199.477   3
  -2 -27  -1 177.672 145.301   3
   2 -27   2 270.326 175.591   3
  -2 -27  -2 411.131 255.751   3
   2 -27   3 170.668 131.790   3
  -2 -27  -3 292.536 243.984   3
   2 -27   4 17.8439 59.5212   3
  -2 -27  -4 18.3090 64.2022   3
  -2 -27  -5 246.470 215.090   3
  -2 -27  -6 564.382 254.665   3
   2 -27   6 387.079 301.641   1
   2 -27   7 54.3276 102.610   1
  -2 -27  -7-4.51827 43.1766   3
  -2 -27  -8 554.427 391.013   3
   2 -27   8 53.9094 152.212   1
  -2 -27  -9 96.8878 73.4527   3
   2 -27   9 179.364 146.695   1
   2 -27  10 205.883 253.859   1
  -2 -26  13 80.4568 245.504   1
  -2 -26  12-212.703 306.260   1
  -2 -26  11 369.888 324.668   1
  -2 -26  10 55.2518 101.725   1
  -2 -26   9-7.23583 146.291   1
  -2 -26   8 620.758 339.984   1
  -2 -26   7-74.4243 162.284   1
  -2 -26   7 256.577 191.706   3
  -2 -26   6-119.000 249.895   1
  -2 -26   6 220.072 188.627   3
  -2 -26   5 208.182 216.627   3
  -2 -26   5-76.2193 173.815   1
  -2 -26   4-198.936 176.406   1
  -2 -26   4 254.824 172.632   3
  -2 -26   3-105.443 124.588   1
  -2 -26   3-15.1523 57.8106   3
   2 -26  -2-14.2422 90.6910   3
  -2 -26   2 79.2539 135.483   1
  -2 -26   2 102.543 61.9085   3
   2 -26  -1 911.919 350.050   3
  -2 -26   1 746.137 322.860   3
   2 -26   0 163.332 202.098   3
  -2 -26   0 64.1566 121.994   3
  -2 -26  -1 171.902 75.6846   3
   2 -26   1 286.214 161.601   3
   2 -26   2 105.683 113.035   3
  -2 -26  -2-86.9104 128.669   3
  -2 -26  -3 70.2168 127.548   3
   2 -26   3 140.440 127.054   3
  -2 -26  -4 103.159 160.435   3
   2 -26   4 126.516 93.9021   3
  -2 -26  -5-52.4788 70.8623   3
  -2 -26  -6 150.752 228.875   3
   2 -26   6 111.107 157.460   1
  -2 -26  -7 162.646 224.303   3
   2 -26   7-29.9739 59.4602   1
   2 -26   8-48.8628 143.403   1
  -2 -26  -8 480.236 296.895   3
   2 -26   9-11.5225 85.2470   1
  -2 -26  -9 39.2149 54.1879   3
   2 -26  10 66.2867 104.602   1
  -2 -25  14-53.9377 146.548   1
  -2 -25  13 247.336 352.098   1
  -2 -25  12-178.189 233.045   1
  -2 -25  11 105.222 115.111   1
  -2 -25  10 128.836 221.522   1
  -2 -25   9 272.538 290.910   1
  -2 -25   8 223.537 180.608   1
  -2 -25   7-84.4822 168.356   1
  -2 -25   6 95.4995 135.305   3
  -2 -25   6 0.88271 111.083   1
  -2 -25   5 292.944 224.678   3
  -2 -25   5 36.8381 81.2810   1
  -2 -25   4 176.276 219.256   1
  -2 -25   4 128.840 164.256   3
  -2 -25   3 185.675 201.491   1
  -2 -25   3 67.3270 140.689   3
   2 -25  -2 261.756 211.869   3
  -2 -25   2 229.307 217.328   3
  -2 -25   2-131.865 201.424   1
  -2 -25   1 20.5740 69.7397   3
   2 -25  -1 166.440 136.410   3
  -2 -25   0 946.707 321.352   3
   2 -25   0 811.022 296.286   3
   2 -25   1 158.071 139.896   3
  -2 -25  -1 136.334 96.7898   3
   2 -25   2 82.0557 74.0267   3
  -2 -25  -2 18.3892 49.6482   3
  -2 -25  -3 65.7032 97.1122   3
   2 -25   3 94.6249 115.442   3
   2 -25   4 839.239 227.764   3
  -2 -25  -4 562.781 236.948   3
   2 -25   5 135.894 87.6666   3
  -2 -25  -5 219.999 185.517   3
  -2 -25  -6 139.191 195.405   3
   2 -25   6 130.938 163.078   1
   2 -25   7 192.345 159.357   1
  -2 -25  -7 287.096 247.079   3
  -2 -25  -8 80.4706 115.180   3
   2 -25   8 202.344 209.197   1
   2 -25   9 8.69394 87.7961   1
  -2 -25  -9 88.3670 192.332   3
   2 -25  10 137.648 95.9961   1
  -2 -24  14-110.675 315.477   1
  -2 -24  13 311.406 375.199   1
  -2 -24  12 285.696 394.002   1
  -2 -24  11 152.170 256.629   1
  -2 -24  10 483.576 363.278   1
  -2 -24   9 114.796 130.435   1
  -2 -24   8 167.592 224.271   1
  -2 -24   7 123.485 123.752   1
  -2 -24   6 412.551 224.918   3
  -2 -24   6-47.6789 201.529   1
  -2 -24   5 99.1439 22.3812   3
  -2 -24   5 210.842 45.6485   1
  -2 -24   4 187.737 152.978   3
  -2 -24   4 54.4239 161.679   1
  -2 -24   3-73.2337 150.066   1
  -2 -24   3 174.468 140.085   3
  -2 -24   2 140.986 126.286   1
  -2 -24   2 38.3611 89.8883   3
   2 -24  -2 19.6876 88.2426   3
   2 -24  -1-72.4612 139.618   3
  -2 -24   1 0.58231 30.1700   3
   2 -24   0 752.670 282.725   3
  -2 -24   0 829.479 318.161   3
   2 -24   1 622.469 232.352   3
  -2 -24  -1 741.696 308.796   3
   2 -24   2 113.180 135.277   3
  -2 -24  -2-128.199 202.944   3
   2 -24   3 180.860 103.798   3
  -2 -24  -3 205.834 154.540   3
   2 -24   4 241.450 123.815   3
  -2 -24  -4 8.03026 88.1366   3
  -2 -24  -5 350.949 265.933   3
   2 -24   5 259.819 97.5354   3
   2 -24   6-69.3040 41.3944   1
  -2 -24  -6-162.315 202.837   3
  -2 -24  -7 428.801 337.989   3
   2 -24   7 126.514 242.011   1
   2 -24   8 231.089 251.137   1
  -2 -24  -8 286.037 214.585   3
  -2 -24  -9 700.366 384.355   3
   2 -24   9 458.276 339.372   1
   2 -24  10-133.258 176.910   1
  -2 -23  14-283.717 280.418   1
  -2 -23  13 85.5107 222.695   1
  -2 -23  12 192.692 221.162   1
  -2 -23  11 97.2970 224.923   1
  -2 -23  10 101.257 102.101   1
  -2 -23   9-153.841 77.0617   1
  -2 -23   8 107.990 174.566   1
  -2 -23   7 191.164 161.521   1
  -2 -23   6 23.3921 142.601   1
  -2 -23   5 214.314 162.671   1
  -2 -23   5 148.969 136.168   3
  -2 -23   4 236.777 107.087   1
  -2 -23   4 246.665 211.991   3
  -2 -23   3 124.290 176.383   1
  -2 -23   3 185.790 157.236   3
  -2 -23   2 74.4935 124.116   1
   2 -23  -2 112.726 133.650   3
  -2 -23   2 78.7688 152.535   3
   2 -23  -1 173.075 104.755   3
  -2 -23   1 194.303 103.674   3
  -2 -23   0 587.897 258.010   3
   2 -23   0 672.605 250.129   3
   2 -23   1 214.631 132.496   3
  -2 -23  -1 219.642 186.997   3
  -2 -23  -2 99.8452 132.039   3
   2 -23   2 136.136 106.915   3
   2 -23   3 32.7209 41.6934   3
  -2 -23  -3-35.8274 128.195   3
  -2 -23  -4 192.663 131.630   3
   2 -23   4 337.908 149.257   3
  -2 -23  -5 605.169 296.608   3
   2 -23   5 434.366 130.046   3
   2 -23   6 52.8623 172.356   1
  -2 -23  -6 276.440 236.699   3
   2 -23   7-43.3552 109.662   1
  -2 -23  -7-97.9945 182.157   3
   2 -23   8 129.343 18.4529   1
  -2 -23  -8 10.2604 203.120   3
  -2 -23  -9-1.84843 60.0618   3
   2 -23   9 205.936 202.236   1
   2 -23  10 47.9588 31.4927   1
   2 -23  11-156.260 243.738   1
  -2 -22  14 280.896 246.194   1
  -2 -22  13-95.0965 245.023   1
  -2 -22  12-36.2109 147.160   1
  -2 -22  11 238.141 275.669   1
  -2 -22  10 261.976 240.131   1
  -2 -22   9 305.362 282.350   1
  -2 -22   8 59.1517 222.585   1
  -2 -22   7-21.2440 142.649   1
  -2 -22   6 712.250 350.612   1
  -2 -22   5 68.0184 127.362   1
  -2 -22   4 42.2679 71.1060   1
  -2 -22   4 87.6426 140.983   3
  -2 -22   3 43.6301 30.2471   1
  -2 -22   3-145.356 136.146   3
  -2 -22   2 102.978 174.377   1
  -2 -22   2 144.394 120.174   3
   2 -22  -2-1.19561 97.3446   3
  -2 -22   1 311.453 201.555   3
   2 -22  -1 402.886 199.549   3
  -2 -22   0 254.101 166.557   3
   2 -22   0 300.287 191.246   3
   2 -22   1 912.734 273.709   3
  -2 -22  -1 783.301 300.186   3
   2 -22   2 748.589 225.854   3
  -2 -22  -2 602.410 276.738   3
   2 -22   3 47.6394 63.8419   3
  -2 -22  -3 28.9945 29.1664   3
   2 -22   4 58.7685 81.2681   3
  -2 -22  -4 70.3449 123.970   3
   2 -22   5 50.4026 51.2040   3
  -2 -22  -5 185.963 199.417   3
   2 -22   6 79.9733 97.2473   1
  -2 -22  -6 50.4602 84.7653   3
   2 -22   7 101.563 82.7345   1
  -2 -22  -7 138.397 178.987   3
  -2 -22  -8-95.8395 125.890   3
   2 -22   8-117.585 8.60416   1
   2 -22   9 111.571 191.911   1
  -2 -22  -9-63.7018 202.135   3
   2 -22  10 455.811 271.451   1
   2 -22  11 34.7134 276.322   1
  -2 -21  14-122.465 89.6342   1
  -2 -21  13-224.399 241.043   1
  -2 -21  12 26.3297 102.246   1
  -2 -21  11 119.979 212.645   1
  -2 -21  10-11.1289 148.807   1
  -2 -21   9-128.932 162.840   1
  -2 -21   8 6.25773 99.0945   1
  -2 -21   7 241.973 233.268   1
  -2 -21   6 196.747 187.571   1
   2 -21  -6 338.298 197.250   2
  -2 -21   5 338.395 205.603   1
  -2 -21   4 43.8944 65.9834   3
  -2 -21   4-115.002 159.149   1
  -2 -21   3 12.0755 34.7940   3
  -2 -21   3-3.65479 54.7825   1
  -2 -21   2-23.2414 61.2303   1
   2 -21  -2 32.5844 60.4067   3
  -2 -21   2-29.2724 125.692   3
  -2 -21   1 1224.63 370.564   3
   2 -21  -1 1313.38 346.104   3
   2 -21   0-47.6796 37.4378   3
  -2 -21   0 83.0946 122.235   3
  -2 -21  -1 324.434 169.443   3
   2 -21   1 231.750 146.591   3
  -2 -21  -2 292.322 200.343   3
   2 -21   2 269.737 141.701   3
   2 -21   3 816.670 209.597   3
  -2 -21  -3 725.468 292.821   3
  -2 -21  -4 40.4247 111.490   3
   2 -21   4 47.9047 14.6526   3
  -2 -21  -5 413.269 286.189   3
   2 -21   5 368.207 127.184   3
  -2 -21  -6 160.819 165.481   3
   2 -21   6 114.040 51.2994   3
   2 -21   6 252.935 198.917   1
  -2 -21  -7-177.361 186.762   3
   2 -21   7-183.199 147.097   1
  -2 -21  -8-8.10738 63.9360   3
   2 -21   8 72.6032 147.290   1
   2 -21   9 219.036 231.334   1
  -2 -21  -9 174.139 120.715   3
   2 -21  10 210.709 298.734   1
   2 -21  11 279.915 226.559   1
  -2 -20  14 10.5000 188.430   1
  -2 -20  13-84.2944 203.799   1
  -2 -20  12 322.779 338.579   1
  -2 -20  11-33.7944 199.994   1
  -2 -20  10 281.423 223.213   1
  -2 -20   9-28.7832 165.018   1
  -2 -20   8-33.2928 87.8362   1
   2 -20  -7 940.740 194.437   2
  -2 -20   7 1190.63 483.577   1
   2 -20  -6 395.282 176.819   2
  -2 -20   6 174.396 171.292   1
  -2 -20   5 114.459 19.1242   1
  -2 -20   4-31.0306 95.4639   1
  -2 -20   3 108.846 111.576   3
  -2 -20   3-49.4800 103.428   1
   2 -20  -2 1102.31 325.618   3
  -2 -20   2 988.298 324.784   3
  -2 -20   2 1159.75 399.403   1
   2 -20  -1-7.78180 40.6720   3
  -2 -20   1 51.9176 95.7052   3
  -2 -20   0 479.490 252.778   3
   2 -20   0 500.351 202.528   3
  -2 -20  -1 60.8790 54.2575   3
   2 -20   1 128.152 103.412   3
   2 -20   2 138.359 119.126   3
  -2 -20  -2 58.5347 20.0795   3
  -2 -20  -3 239.160 196.641   3
   2 -20   3 295.193 111.362   3
  -2 -20  -4 261.119 217.478   3
   2 -20   4 197.769 84.0798   3
   2 -20   5 76.8218 67.1916   3
  -2 -20  -5 222.479 195.095   3
  -2 -20  -6 227.491 186.508   3
   2 -20   6 226.747 191.084   1
   2 -20   6 53.0849 40.6078   3
   2 -20   7 157.961 87.9829   1
  -2 -20  -7 33.2320 63.3867   3
   2 -20   8 94.3356 190.524   1
  -2 -20  -8 121.260 112.904   3
  -2 -20  -9 1.61062 155.755   3
   2 -20   9 49.9295 70.2864   1
   2 -20  10-61.0887 63.0902   1
   2 -20  11 359.686 197.121   1
  -2 -19  14 192.401 223.269   1
  -2 -19  13 175.986 202.412   1
  -2 -19  12-35.2200 114.236   1
  -2 -19  11-245.298 236.341   1
  -2 -19  10 145.002 201.747   1
  -2 -19   9 43.5063 183.838   1
  -2 -19   8 36.5548 76.6924   1
   2 -19  -7 20.9658 71.4036   2
  -2 -19   7 228.249 218.244   1
  -2 -19   6 507.749 254.718   1
   2 -19  -6 765.218 197.602   2
  -2 -19   5-14.6878 53.8192   1
  -2 -19   4 276.713 142.705   1
  -2 -19   3 369.724 195.610   1
  -2 -19   3 348.510 186.904   3
  -2 -19   2 382.646 237.629   1
  -2 -19   2 270.502 165.791   3
   2 -19  -1 81.3372 93.5874   3
  -2 -19   1 160.312 133.097   3
   2 -19   0 1709.36 352.170   3
  -2 -19   0 1847.33 442.791   3
   2 -19   1 841.599 239.674   3
  -2 -19  -1 860.606 315.726   3
   2 -19   2 108.128 90.2650   3
  -2 -19  -2-40.9292 89.1628   3
   2 -19   3 272.762 113.343   3
  -2 -19  -3 306.707 187.632   3
  -2 -19  -4 1485.78 424.008   3
   2 -19   4 1491.96 234.635   3
  -2 -19  -5 707.964 315.622   3
   2 -19   5 621.715 134.833   3
  -2 -19  -6 88.5579 126.160   3
   2 -19   6 86.3965 44.6511   1
   2 -19   6 99.9494 50.7949   3
  -2 -19  -7 158.277 195.482   3
   2 -19   7 207.753 136.577   1
   2 -19   8 375.547 192.128   1
  -2 -19  -8 291.743 164.009   3
  -2 -19  -9-380.912 308.611   3
   2 -19   9 45.3690 104.263   1
   2 -19  10-84.2715 171.474   1
   2 -19  11 133.896 188.811   1
  -2 -18  14 165.235 158.403   1
  -2 -18  13 49.4950 202.189   1
  -2 -18  12-51.5406 127.876   1
  -2 -18  11 342.300 133.163   1
  -2 -18  10-184.375 255.359   1
  -2 -18   9 66.5651 151.983   1
  -2 -18   8 122.671 175.718   1
  -2 -18   7 262.449 227.759   1
   2 -18  -6 387.214 141.869   2
  -2 -18   6 132.185 47.4720   1
  -2 -18   5-46.3004 126.654   1
  -2 -18   4 1206.97 401.546   1
  -2 -18   3 672.862 286.535   1
  -2 -18   2-107.644 109.988   3
  -2 -18   2-40.0209 66.2381   1
  -2 -18   1 466.349 226.032   3
   2 -18  -1 496.817 218.243   3
   2 -18   0 166.743 115.864   3
  -2 -18   0 132.078 135.029   3
  -2 -18  -1 23.8990 71.5959   3
   2 -18   1 92.9704 88.2895   3
   2 -18   2 85.9888 89.1664   3
  -2 -18  -2 19.6204 85.6990   3
   2 -18   3-0.08713 54.7006   3
  -2 -18  -3 17.9534 60.0779   3
   2 -18   4 549.650 132.464   3
  -2 -18  -4 673.601 292.360   3
  -2 -18  -5 506.964 267.719   3
   2 -18   5 378.996 101.962   3
  -2 -18  -6 109.417 113.367   3
   2 -18   6-184.003 136.131   1
   2 -18   6 14.2216 22.7860   3
   2 -18   7 226.173 65.5365   3
   2 -18   7 355.014 163.760   1
  -2 -18  -7 438.912 276.373   3
  -2 -18  -8 115.346 163.913   3
   2 -18   8-108.923 142.196   1
  -2 -18  -9 38.2437 110.515   3
   2 -18   9 116.875 128.153   1
   2 -18  10-56.2691 65.3366   1
   2 -18  11 156.000 174.586   1
  -2 -17  14-172.133 149.569   1
  -2 -17  13 121.725 75.1180   1
  -2 -17  12 98.9687 236.149   1
  -2 -17  11 270.829 268.360   1
  -2 -17  10-34.5495 99.0694   1
  -2 -17   9 179.097 240.246   1
  -2 -17   8 52.0921 7.36582   1
  -2 -17   7 182.162 169.828   1
   2 -17  -6-30.6579 49.1859   2
  -2 -17   6 37.7899 88.5549   1
  -2 -17   5 1265.21 408.429   1
  -2 -17   4 564.477 250.662   1
  -2 -17   3 137.975 140.455   1
  -2 -17   2 76.5566 28.3987   1
  -2 -17   2 303.903 186.498   3
  -2 -17   1 1108.08 308.897   3
   2 -17  -1 1203.08 307.667   3
   2 -17   0 987.535 252.974   3
  -2 -17   0 917.692 286.747   3
  -2 -17  -1 39.8917 100.727   3
   2 -17   1 229.155 116.581   3
  -2 -17  -2 237.806 137.521   3
   2 -17   2 292.283 111.990   3
  -2 -17  -3 127.854 71.4283   3
   2 -17   3 165.486 86.2660   3
   2 -17   4 158.252 66.2771   3
  -2 -17  -4 212.477 135.302   3
   2 -17   5 70.6077 53.2269   3
   2 -17   5 62.4861 59.5091   1
  -2 -17  -5 264.434 212.225   3
  -2 -17  -6 441.043 257.228   3
   2 -17   6 522.856 249.861   1
   2 -17   6 255.336 67.5819   3
  -2 -17  -7 95.6490 117.203   3
   2 -17   7-16.5681 13.4277   3
   2 -17   7 81.8826 125.880   1
  -2 -17  -8 39.4541 88.7153   3
   2 -17   8 68.3461 93.0152   1
  -2 -17  -9 205.070 203.911   3
   2 -17   9 47.2024 181.741   1
   2 -17  10-45.4987 52.8355   1
   2 -17  11 91.7014 149.522   1
  -2 -16  14 37.8223 44.9238   1
  -2 -16  13 123.219 270.625   1
  -2 -16  12 512.277 353.599   1
  -2 -16  11-123.386 81.4664   1
  -2 -16  10 19.8530 60.5846   1
  -2 -16   9 47.1985 215.844   1
  -2 -16   8 23.9273 95.7201   1
  -2 -16   7 57.9883 140.404   1
   2 -16  -6 125.865 22.2196   2
  -2 -16   6 348.220 249.571   1
  -2 -16   5 1054.24 386.033   1
  -2 -16   4 1501.08 397.574   1
  -2 -16   3 705.496 255.425   1
  -2 -16   2 1180.90 320.057   3
  -2 -16   2 1123.55 335.941   1
  -2 -16   1 915.416 282.592   3
   2 -16  -1 598.258 205.072   3
  -2 -16   0 301.908 151.216   3
   2 -16   0 328.589 138.184   3
   2 -16   1 57.8401 63.0541   3
  -2 -16  -1-30.5585 98.3541   3
  -2 -16  -2 103.503 47.3213   3
   2 -16   2 348.665 128.142   3
  -2 -16  -3 259.778 178.908   3
   2 -16   3 320.605 92.7835   3
  -2 -16  -4 264.777 180.883   3
   2 -16   4 274.210 83.1166   3
  -2 -16  -5 236.433 165.512   3
   2 -16   5 187.005 63.7257   3
   2 -16   5 145.388 63.5529   1
  -2 -16  -6 1258.64 404.103   3
   2 -16   6 1092.14 354.983   1
   2 -16   6 588.869 101.822   3
   2 -16   7 77.6957 75.8745   1
  -2 -16  -7-3.26025 85.6062   3
   2 -16   7-1.39527 9.29449   3
  -2 -16  -8-26.2258 109.234   3
   2 -16   8-1.36686 150.451   1
   2 -16   9 22.4721 22.1831   1
   2 -16  10 348.172 197.621   1
   2 -16  11 285.346 219.195   1
  -2 -15  14 5.65211 143.998   1
  -2 -15  13 94.3151 107.536   1
  -2 -15  12 268.843 322.795   1
  -2 -15  11 151.443 52.2865   1
  -2 -15  10 128.849 239.763   1
  -2 -15   9-68.2575 102.303   1
  -2 -15   8 146.789 174.258   1
  -2 -15   7 113.904 90.1465   1
   2 -15  -6-60.3816 71.6502   2
  -2 -15   6 20.7804 21.5606   1
  -2 -15   5 633.844 259.763   1
  -2 -15   4 240.522 185.839   1
  -2 -15   3 268.371 173.749   1
  -2 -15   2 242.154 139.615   1
  -2 -15   1 690.622 237.072   3
   2 -15   0 0.80500 53.3704   3
  -2 -15   0 26.6555 86.6074   3
  -2 -15  -1 717.955 260.461   3
   2 -15   1 717.560 191.009   3
   2 -15   2 102.527 85.7438   3
  -2 -15  -2 194.641 171.737   3
   2 -15   3 907.454 158.928   3
  -2 -15  -3 796.828 268.877   3
  -2 -15  -4-51.9928 81.1451   3
   2 -15   4 32.2190 32.6690   3
   2 -15   5 723.025 275.453   1
  -2 -15  -5 708.403 283.208   3
   2 -15   5 325.358 73.1068   3
  -2 -15  -6 176.332 156.058   3
   2 -15   6 23.1326 20.6345   3
   2 -15   6 93.8912 97.4659   1
   2 -15   7-10.1182 6.43373   3
   2 -15   7 60.3668 74.8491   1
  -2 -15  -7-11.2254 113.277   3
   2 -15   7 28.9401 30.3400   3
  -2 -15  -8 160.413 182.455   3
   2 -15   8-43.3506 72.1852   1
   2 -15   9 599.213 279.924   1
   2 -15  10 101.313 86.1102   1
   2 -15  11 32.5973 117.495   1
  -2 -14  14 473.502 406.322   1
  -2 -14  13 199.934 240.217   1
  -2 -14  12 288.295 284.917   1
  -2 -14  11 400.035 289.803   1
  -2 -14  10 209.088 233.754   1
  -2 -14   9-201.718 173.806   1
  -2 -14   8 73.0112 130.547   1
  -2 -14   7 472.516 262.013   1
  -2 -14   6 383.238 180.030   1
   2 -14  -5 162.066 98.1131   2
  -2 -14   5 35.5939 97.7742   1
  -2 -14   4 1289.90 359.482   1
  -2 -14   3 970.271 299.153   1
  -2 -14   2 419.326 147.959   1
  -2 -14   1 201.510 130.530   3
  -2 -14   1 88.0015 73.9280   1
   2 -14   0 962.162 235.580   3
  -2 -14   0 973.858 280.150   3
   2 -14   1 179.789 88.1135   3
  -2 -14  -1 138.001 128.874   3
   2 -14   2 337.821 100.107   3
  -2 -14  -2 301.881 164.974   3
  -2 -14  -3 667.625 290.034   2
  -2 -14  -3 367.281 168.251   3
   2 -14   3 218.362 76.4741   3
  -2 -14  -4 346.588 195.131   3
   2 -14   4 212.759 66.0608   3
  -2 -14  -4 331.906 189.606   2
  -2 -14  -5 874.917 307.585   3
   2 -14   5 907.008 262.670   1
  -2 -14  -6 151.950 132.058   3
   2 -14   6 215.715 164.413   1
   2 -14   7 79.7656 41.3886   3
   2 -14   7 235.675 163.454   1
  -2 -14  -7 202.193 177.873   3
   2 -14   8-79.3956 48.8560   1
  -2 -14  -8 105.312 133.311   3
   2 -14   9-5.37785 51.7692   1
   2 -14  10 164.071 201.604   1
   2 -14  11 65.5316 19.1787   1
  -2 -13  14 94.0935 204.672   1
  -2 -13  13 321.573 390.700   1
  -2 -13  12 168.875 315.924   1
  -2 -13  11 30.0829 203.605   1
  -2 -13  10 1.14288 105.898   1
  -2 -13   9 189.908 243.271   1
  -2 -13   8 22.6507 49.0741   1
  -2 -13   7 142.817 150.911   1
  -2 -13   6 731.426 280.345   1
   2 -13  -5 77.5901 39.5978   2
  -2 -13   5 22.5056 124.451   1
  -2 -13   4 848.717 298.467   1
  -2 -13   3 156.104 135.053   1
  -2 -13   2 445.176 189.652   1
  -2 -13   1 97.2063 36.6331   1
  -2 -13   1 75.6762 111.977   3
  -2 -13   0 2093.67 409.394   3
  -2 -13  -1 638.088 252.483   3
   2 -13   1 530.808 141.900   3
   2 -13   2 50.8303 69.1950   3
  -2 -13  -2 92.0004 116.344   3
   2 -13   3 186.255 70.1831   3
  -2 -13  -3 245.166 162.124   3
  -2 -13  -3 674.408 268.606   2
  -2 -13  -4 1795.19 403.577   3
  -2 -13  -4 2450.37 414.169   2
  -2 -13  -5 665.708 134.434   2
  -2 -13  -5 814.549 279.554   3
   2 -13   5 650.044 212.016   1
   2 -13   6 198.228 115.510   1
  -2 -13  -6 407.418 213.347   3
   2 -13   7 360.261 95.8011   3
  -2 -13  -7 424.552 242.269   3
   2 -13   7 645.193 247.057   1
  -2 -13  -8 303.293 205.835   3
   2 -13   8 110.520 104.746   1
   2 -13   8 171.150 78.1945   3
   2 -13   9 110.496 149.475   1
   2 -13  10 637.526 287.114   1
   2 -13  11 215.930 171.085   1
  -2 -12  14-80.2476 113.378   1
  -2 -12  13-3.70623 194.558   1
  -2 -12  12 879.081 429.055   1
  -2 -12  11 148.751 202.948   1
  -2 -12  10 166.497 98.2346   1
  -2 -12   9 53.4011 140.145   1
  -2 -12   8-85.1080 136.415   1
  -2 -12   7 1046.07 353.597   1
  -2 -12   6 110.807 67.7387   1
   2 -12  -5 542.143 91.9600   2
  -2 -12   5 967.140 317.999   1
  -2 -12   4 455.003 197.732   1
  -2 -12   3 70.6474 86.8416   1
  -2 -12   2 84.7315 55.0405   1
  -2 -12   1 44.7561 66.6744   1
  -2 -12   0 198.265 120.218   3
  -2 -12  -1 27.8012 51.9474   3
   2 -12   2 208.804 87.6734   3
  -2 -12  -2 150.241 103.093   3
  -2 -12  -3 721.301 230.835   3
  -2 -12  -3 1174.34 296.703   2
   2 -12   3 708.090 112.542   3
  -2 -12  -4-129.116 97.2779   2
  -2 -12  -4 62.8953 81.6728   3
  -2 -12  -5 258.835 173.816   3
   2 -12   5 154.268 108.155   1
  -2 -12  -5-74.1131 157.545   2
  -2 -12  -6 394.378 218.452   3
   2 -12   6 171.333 56.2457   3
   2 -12   6 346.897 159.488   1
  -2 -12  -7-54.1008 45.2720   1
   2 -12   7 135.872 160.127   1
   2 -12   7 29.6915 30.6964   3
  -2 -12  -7 142.946 136.230   3
   2 -12   8 26.0720 24.9568   1
  -2 -12  -8-33.4973 96.9150   3
  -2 -12  -8 56.5281 67.2820   1
   2 -12   8 118.221 78.5069   3
   2 -12   9 220.456 168.230   1
   2 -12  10-12.3376 56.5505   1
   2 -12  11-189.951 173.288   1
  -2 -11  14 246.915 280.540   1
  -2 -11  13-66.9978 127.816   1
  -2 -11  12 91.3486 304.156   1
  -2 -11  11 5.43804 169.291   1
  -2 -11  10-119.319 173.177   1
  -2 -11   9 302.892 189.585   1
  -2 -11   8 243.552 190.190   1
  -2 -11   7 555.928 257.734   1
  -2 -11   6 81.7412 41.6396   1
  -2 -11   5 433.161 201.002   1
  -2 -11   4 163.437 95.7753   1
  -2 -11   3 4.21602 56.4489   1
  -2 -11   2 146.669 107.787   1
  -2 -11   1 1555.30 321.491   1
  -2 -11   0 31.0093 47.9247   3
  -2 -11  -1 354.109 160.086   3
  -2 -11  -2 538.568 206.756   3
  -2 -11  -3 424.343 154.099   3
  -2 -11  -3 764.774 225.032   2
  -2 -11  -4 627.425 164.982   2
  -2 -11  -4 536.570 188.519   3
   2 -11   5 555.750 174.432   1
  -2 -11  -5 576.311 131.083   2
  -2 -11  -5 460.385 209.623   3
   2 -11   6 274.679 147.224   1
  -2 -11  -6 198.797 151.310   3
   2 -11   6 94.6242 39.7610   3
   2 -11   7 156.683 73.5289   3
  -2 -11  -7-5.89757 104.665   3
   2 -11   7 47.8057 36.8661   1
  -2 -11  -7 91.7229 96.2686   1
  -2 -11  -8 44.1133 108.906   3
   2 -11   8 109.560 88.0277   3
  -2 -11  -8 44.9626 5.37712   1
   2 -11   8-42.6871 21.2603   1
  -2 -11  -9 249.904 167.780   1
   2 -11   9 259.604 148.172   1
   2 -11  10-1.73351 14.1962   1
   2 -11  11 137.385 37.7693   1
  -2 -10  14 421.303 335.144   1
  -2 -10  13 135.586 182.183   1
  -2 -10  12 204.584 159.809   1
  -2 -10  11 257.885 215.899   1
  -2 -10  10 57.0979 66.6125   1
  -2 -10   9 332.256 226.959   1
  -2 -10   8 547.710 309.097   1
  -2 -10   7 122.397 117.856   1
  -2 -10   6 1476.60 386.501   1
  -2 -10   5 64.9573 78.6352   1
  -2 -10   4-36.1279 37.6471   1
  -2 -10   3 86.6734 129.789   1
  -2 -10   2 841.004 235.808   1
  -2 -10   1 5359.76 572.658   1
  -2 -10   0 40.8353 41.7149   3
  -2 -10  -1 321.245 120.074   3
  -2 -10  -2 324.699 132.768   3
  -2 -10  -3 69.3733 56.5524   3
  -2 -10  -3 102.324 99.2198   2
  -2 -10  -4 23.3178 127.547   2
  -2 -10  -4 108.266 100.644   3
   2 -10   5 188.697 107.459   1
  -2 -10  -5 4.56322 70.0995   3
   2 -10   6 74.5536 44.3644   3
  -2 -10  -6 141.757 89.9587   3
   2 -10   6 64.2028 70.9630   1
   2 -10   7 60.1468 68.0654   3
  -2 -10  -7 109.077 102.316   3
  -2 -10  -7 46.4302 43.6091   1
   2 -10   7 62.3529 77.1049   1
   2 -10   8 7.05785 39.7043   1
  -2 -10  -8 51.8418 12.3900   3
  -2 -10  -8-3.91353 33.2449   1
   2 -10   8 46.4685 66.2259   3
  -2 -10  -9 130.768 120.889   1
   2 -10   9-26.9389 24.5601   1
   2 -10  10-48.2474 56.5922   1
   2 -10  11-173.752 119.198   1
  -2  -9  14 43.7516 140.018   1
  -2  -9  13 340.044 288.723   1
  -2  -9  12-155.085 140.409   1
  -2  -9  11 258.415 215.402   1
  -2  -9  10 74.3518 142.998   1
  -2  -9   9 142.104 162.487   1
  -2  -9   8 0.81577 88.2260   1
  -2  -9   7 10.6953 54.8479   1
  -2  -9   6 481.985 230.535   1
  -2  -9   5 697.114 249.718   1
   2  -9  -4-26.3226 69.3005   1
  -2  -9   4 62.2663 57.6421   1
  -2  -9   3 35.8620 80.5054   1
  -2  -9   2 216.092 115.419   1
  -2  -9   1 303.638 139.392   1
  -2  -9   0 2159.03 349.630   3
  -2  -9  -1 187.951 110.406   3
  -2  -9  -2 279.276 155.516   3
  -2  -9  -2 433.931 205.389   2
  -2  -9  -3 117.579 91.8641   3
  -2  -9  -3 3.73938 74.9035   2
  -2  -9  -4 373.304 153.301   3
  -2  -9  -4 370.045 69.4975   2
  -2  -9  -5 1123.99 297.364   3
   2  -9   5 1189.42 248.629   1
   2  -9   6 489.313 180.266   1
  -2  -9  -6 270.112 141.658   3
  -2  -9  -6 377.571 155.408   1
   2  -9   6 447.415 104.304   3
   2  -9   7 12.3709 42.9532   3
  -2  -9  -7 2.81034 24.2772   1
   2  -9   7 49.9947 50.1259   1
  -2  -9  -7 147.351 125.752   3
   2  -9   8 175.222 105.731   3
  -2  -9  -8-2.66814 83.3741   1
   2  -9   8 34.0370 107.641   1
   2  -9   9 83.1921 53.6197   1
  -2  -9  -9-36.3801 35.7038   1
   2  -9  10 53.7825 59.4438   1
   2  -9  11 308.928 161.293   1
  -2  -8  14-124.569 84.1454   1
  -2  -8  13 17.2711 137.779   1
  -2  -8  12 9.52456 140.904   1
  -2  -8  11 34.5650 186.865   1
  -2  -8  10 484.736 237.989   1
  -2  -8   9-36.7227 90.9506   1
  -2  -8   8 43.7489 32.5794   1
  -2  -8   7 743.962 261.959   1
  -2  -8   6 618.535 228.320   1
  -2  -8   5 1108.30 308.639   1
   2  -8  -5 1304.55 319.904   1
  -2  -8   4 63.8179 19.9884   1
   2  -8  -4 124.055 97.1198   1
  -2  -8   3 205.123 123.336   1
  -2  -8   2 218.360 120.540   1
  -2  -8   1 78.0354 79.6363   1
  -2  -8   0 176.158 94.9843   1
  -2  -8  -1 145.546 117.909   3
  -2  -8  -2 555.173 189.119   3
  -2  -8  -2 701.500 193.343   2
  -2  -8  -3 31.3602 42.7865   2
  -2  -8  -3 4.43306 74.3675   3
  -2  -8  -4 28.0486 82.8151   3
   2  -8   4 66.6840 75.5074   1
  -2  -8  -4-15.3044 103.105   2
   2  -8   5 37.2744 26.7823   3
  -2  -8  -5-1.37388 17.7620   3
   2  -8   5 61.4429 50.5643   1
   2  -8   6 65.5302 57.5166   3
  -2  -8  -6 19.4020 40.2196   3
   2  -8   6-18.7397 54.6756   1
  -2  -8  -6 69.8249 69.4258   1
  -2  -8  -7 14.6212 66.7211   3
  -2  -8  -7 108.508 75.7819   1
   2  -8   7 175.114 96.6080   3
   2  -8   7 125.019 104.292   1
   2  -8   8 197.178 115.545   1
  -2  -8  -8 155.710 129.186   1
   2  -8   8 148.338 112.031   3
   2  -8   9 168.331 91.2378   1
   2  -8   9 274.301 145.715   3
  -2  -8  -9 118.982 87.2505   1
  -2  -8 -10 59.5663 94.3237   1
   2  -8  10 101.278 80.0902   1
   2  -8  11 1176.81 330.121   1
  -2  -7  14 230.261 257.830   1
  -2  -7  13-196.535 171.213   1
  -2  -7  12-0.76161 81.1988   1
  -2  -7  11 70.1379 179.031   1
  -2  -7  10 183.111 184.656   1
  -2  -7   9 63.1412 73.2472   1
  -2  -7   8-77.2869 110.823   1
  -2  -7   7-72.5127 102.211   1
  -2  -7   6 410.198 209.086   1
  -2  -7   5 228.397 130.754   1
   2  -7  -5 194.320 126.508   1
   2  -7  -4 1628.20 339.136   1
  -2  -7   4 1366.10 298.120   1
   2  -7  -3 526.105 173.141   1
  -2  -7   3 482.482 167.246   1
  -2  -7   2 95.8449 93.2182   1
  -2  -7   1-9.94462 50.7846   1
  -2  -7   0 6498.27 508.747   1
  -2  -7  -1 3023.92 393.843   3
  -2  -7  -2 300.922 147.082   3
  -2  -7  -2 252.103 108.326   2
  -2  -7  -3 86.9718 73.0129   3
  -2  -7  -3-87.1246 115.561   2
   2  -7   4 1348.75 225.892   1
  -2  -7  -4 1307.29 303.817   3
   2  -7   5 1130.63 222.285   1
   2  -7   5 969.013 143.238   3
  -2  -7  -5 1022.96 271.219   3
   2  -7   6 681.399 151.616   3
   2  -7   6 597.582 160.107   1
  -2  -7  -6 514.302 147.409   1
  -2  -7  -6 509.202 215.484   3
   2  -7   7 245.652 119.295   3
  -2  -7  -7 46.3531 41.1126   1
  -2  -7  -7 29.4395 128.094   3
   2  -7   7 77.2183 90.3836   1
   2  -7   8 484.860 163.196   3
  -2  -7  -8 432.683 165.281   1
   2  -7   8 489.370 173.267   1
   2  -7   9 51.3511 65.5164   1
  -2  -7  -9 203.790 120.131   1
   2  -7   9 125.959 101.921   3
   2  -7  10 656.780 235.344   1
  -2  -7 -10 521.740 177.352   1
   2  -7  11 137.725 167.905   1
  -2  -6  14-48.0302 14.8312   1
  -2  -6  13 52.9062 182.458   1
  -2  -6  12 65.2896 78.5927   1
  -2  -6  11 234.162 235.061   1
  -2  -6  10 30.4951 115.288   1
  -2  -6   9 219.487 153.150   1
  -2  -6   8 80.1061 94.1824   1
  -2  -6   7 56.8190 50.5220   1
  -2  -6   6 702.203 253.409   1
   2  -6  -5 185.830 138.287   1
  -2  -6   5 106.572 29.2984   1
  -2  -6   4 302.422 158.609   1
   2  -6  -4 292.960 138.299   1
   2  -6  -3 1314.35 254.244   1
  -2  -6   3 1382.40 294.315   1
  -2  -6   2 486.202 174.352   1
  -2  -6   1 321.294 103.233   1
  -2  -6   0 7145.78 510.300   1
  -2  -6  -1 33.9024 31.1576   3
  -2  -6  -1 283.623 166.230   2
  -2  -6  -2 945.411 214.663   3
  -2  -6  -2 1016.18 200.442   2
  -2  -6  -3 87.9369 59.2880   3
  -2  -6  -3-23.9262 71.8917   2
   2  -6   4 217.079 86.8575   1
  -2  -6  -4 153.623 96.6407   3
  -2  -6  -5 10.5952 76.8423   3
   2  -6   5 93.8555 54.4864   3
  -2  -6  -5 2.57055 34.3186   1
   2  -6   5 40.3240 32.3892   1
   2  -6   6 506.314 146.848   3
   2  -6   6 313.420 99.2625   1
  -2  -6  -6 231.926 127.591   3
  -2  -6  -6 369.038 124.255   1
  -2  -6  -7 153.658 93.6107   3
   2  -6   7 243.164 106.313   1
  -2  -6  -7 146.758 105.242   1
   2  -6   7 213.465 104.258   3
  -2  -6  -8 86.0002 72.0227   1
   2  -6   8 84.0495 59.9430   1
   2  -6   8 20.4080 47.8163   3
   2  -6   9-117.173 110.249   1
  -2  -6  -9 20.8057 23.4093   1
   2  -6   9-23.6431 61.2434   3
   2  -6  10 198.387 108.534   1
  -2  -6 -10 236.402 106.301   1
   2  -6  11 23.3505 120.627   1
  -2  -5  14-171.280 124.128   1
  -2  -5  13-75.7928 112.099   1
  -2  -5  12-45.2565 79.7492   1
  -2  -5  11 144.570 174.798   1
  -2  -5  10-16.2020 79.3114   1
  -2  -5   9 106.026 130.874   1
  -2  -5   8 178.658 122.979   1
  -2  -5   7 84.0934 55.3459   1
  -2  -5   6 102.095 104.054   1
  -2  -5   5 1617.65 341.968   1
   2  -5  -5 1595.12 317.779   1
   2  -5  -4 248.842 133.838   1
  -2  -5   4 181.437 88.3949   1
  -2  -5   3 574.361 192.597   1
   2  -5  -3 698.916 184.372   1
   2  -5  -2 197.903 97.8088   1
  -2  -5   2 520.421 198.319   1
  -2  -5   1 45.9058 53.6056   1
  -2  -5   0 48.2540 37.2623   1
  -2  -5  -1 894.701 184.345   3
  -2  -5  -1 1001.99 159.474   1
  -2  -5  -1 1245.70 231.135   2
  -2  -5  -2 308.791 140.044   3
  -2  -5  -2 228.387 80.4660   2
  -2  -5  -3 44.2411 46.8773   3
   2  -5   4 39.4864 30.3933   3
  -2  -5  -4 122.134 68.6289   3
   2  -5   4 44.1253 40.8803   1
  -2  -5  -5 201.216 74.0996   1
   2  -5   5 397.855 109.864   3
   2  -5   5 244.706 53.2553   1
  -2  -5  -5 362.698 152.244   3
   2  -5   6 290.049 111.613   1
   2  -5   6 456.787 145.338   3
  -2  -5  -6 301.335 104.003   1
  -2  -5  -6 253.354 131.228   3
  -2  -5  -7 83.5277 55.9444   1
   2  -5   7-40.2839 61.0087   1
   2  -5   7-36.5086 58.2925   3
   2  -5   8 197.312 85.6334   1
   2  -5   8 105.553 25.6811   3
  -2  -5  -8 118.681 75.0307   1
  -2  -5  -9 612.999 197.094   1
   2  -5   9 672.145 197.379   1
   2  -5   9 477.517 187.528   3
  -2  -5 -10-97.1885 118.949   1
   2  -5  10 114.309 100.952   1
   2  -5  11 317.614 179.679   1
  -2  -4  14 191.718 176.023   1
  -2  -4  13 150.189 162.330   1
  -2  -4  12 466.105 276.714   1
  -2  -4  11-137.100 109.313   1
  -2  -4  10 567.787 266.788   1
  -2  -4   9 81.9007 69.3945   1
  -2  -4   8 63.7846 110.128   1
  -2  -4   7 884.021 268.645   1
  -2  -4   6 101.726 84.4523   1
   2  -4  -6-23.0218 77.5141   1
   2  -4  -5 1343.73 300.153   1
  -2  -4   5 1189.28 290.131   1
   2  -4  -4 86.8083 59.5995   1
  -2  -4   4 6.98338 56.0690   1
  -2  -4   3 385.749 142.404   1
   2  -4  -3 527.612 153.460   1
  -2  -4   2 3499.27 386.282   1
   2  -4  -2 3605.73 385.575   1
  -2  -4   1 220.708 93.0814   1
   2  -4  -1 164.071 68.2956   1
  -2  -4   0 1089.70 174.072   1
  -2  -4  -1 1402.07 225.216   2
  -2  -4  -1 1443.74 175.910   1
  -2  -4  -1 1271.64 220.224   3
  -2  -4  -2 7.17948 40.5462   3
  -2  -4  -2-176.234 146.330   2
  -2  -4  -3 802.307 198.873   3
  -2  -4  -4 525.931 162.930   3
   2  -4   4 686.276 134.984   1
  -2  -4  -4 458.999 94.9892   1
   2  -4   4 467.435 96.2402   3
   2  -4   5 80.8895 84.1299   1
  -2  -4  -5 51.8047 59.5685   1
   2  -4   5 56.0028 47.2539   3
  -2  -4  -5 46.8783 54.3838   3
   2  -4   6-3.94395 58.8346   3
  -2  -4  -6 117.917 74.4710   3
  -2  -4  -6 84.9009 42.3755   1
   2  -4   6 75.2688 63.2722   1
  -2  -4  -7-33.8758 43.7848   1
   2  -4   7-44.2504 80.4964   3
   2  -4   7-23.1754 46.8060   1
   2  -4   8 111.787 69.5134   1
   2  -4   8 111.354 81.0208   3
  -2  -4  -9 50.2290 39.2644   1
   2  -4   9 104.476 88.4876   1
   2  -4   9 169.250 111.198   3
   2  -4  10 267.395 142.110   1
  -2  -4 -10 19.5639 62.5217   1
   2  -4  11 316.227 158.405   1
  -2  -3  14-23.1022 98.3216   1
  -2  -3  13 49.7901 177.406   1
  -2  -3  12 71.4819 215.164   1
  -2  -3  11 272.194 199.674   1
  -2  -3  10 53.0386 104.852   1
  -2  -3   9 121.163 128.997   1
  -2  -3   8-74.8595 74.2292   1
  -2  -3   7-0.87541 57.8030   1
   2  -3  -6 1305.30 299.052   1
  -2  -3   6 1265.64 322.131   1
   2  -3  -5 50.3203 38.7985   1
  -2  -3   5-49.5326 112.262   1
  -2  -3   4 1406.09 283.340   1
   2  -3  -4 1664.76 295.055   1
   2  -3  -3 262.044 103.532   1
  -2  -3   3 225.872 120.565   1
   2  -3  -2 1080.84 201.528   1
  -2  -3   2 970.040 202.221   1
  -2  -3   1 208.805 87.0868   1
   2  -3  -1 223.796 99.6287   1
  -2  -3   0 7200.70 486.007   2
  -2  -3   0 7454.81 424.631   1
  -2  -3  -1 308.940 75.7296   1
  -2  -3  -1 172.061 51.6589   2
  -2  -3  -2 56.7435 51.9753   3
  -2  -3  -3 131.334 79.5823   3
   2  -3   3 25.1944 33.3485   3
   2  -3   3 103.724 49.7703   1
   2  -3   4 560.797 115.444   3
  -2  -3  -4 675.807 175.286   3
  -2  -3  -4 515.586 101.209   1
   2  -3   4 376.432 65.3896   1
  -2  -3  -5 446.873 163.059   3
  -2  -3  -5 432.245 103.867   1
   2  -3   5 425.119 106.453   3
   2  -3   5 801.176 177.932   1
  -2  -3  -6 90.9472 108.698   3
   2  -3   6-119.451 82.0561   1
  -2  -3  -6-34.4272 31.9930   1
   2  -3   6-58.3824 81.4119   3
   2  -3   7-29.9232 23.1317   1
   2  -3   7-15.7416 70.3280   3
  -2  -3  -7-0.39212 48.0581   1
   2  -3   8 274.487 114.447   3
  -2  -3  -8 129.101 74.6854   1
   2  -3   8 163.704 97.9730   1
   2  -3   9-26.5321 59.0465   3
  -2  -3  -9 23.5205 15.1567   1
   2  -3   9 126.213 99.0664   1
  -2  -3 -10 432.583 177.231   1
   2  -3  10 546.033 188.614   1
   2  -3  11 183.551 107.609   1
  -2  -2  14 111.623 74.4640   1
  -2  -2  13 102.934 164.201   1
  -2  -2  12-89.7172 96.1482   1
  -2  -2  11 229.789 177.481   1
  -2  -2  10 286.511 225.466   1
  -2  -2   9 55.6428 51.4355   1
  -2  -2   8 83.3116 82.3138   1
  -2  -2   7 308.173 143.214   1
   2  -2  -6 1132.86 288.132   1
  -2  -2   6 860.778 254.996   1
   2  -2  -5-54.6175 35.2862   1
  -2  -2   5 11.7346 80.6601   1
   2  -2  -4 2344.81 359.979   1
  -2  -2   4 2170.98 360.248   1
   2  -2  -3 1743.18 286.941   1
  -2  -2   3 1570.93 275.025   1
   2  -2  -2 42.2774 46.1392   1
  -2  -2   2-44.3180 49.9310   1
   2  -2  -1 42.3908 33.2182   1
  -2  -2   1-10.3606 17.0925   1
  -2  -2   0 2091.49 212.089   1
  -2  -2   0 2242.58 265.300   2
   2  -2   0 1910.38 207.119   1
  -2  -2  -1 99.9607 32.0352   2
  -2  -2  -1 141.089 38.8614   1
  -2  -2  -2 1895.96 245.066   3
   2  -2   3 273.191 83.9752   3
   2  -2   3 9.18595 32.6570   1
  -2  -2  -3 128.647 54.4769   3
   2  -2   4 707.057 124.614   1
   2  -2   4 491.061 105.848   3
  -2  -2  -4 444.991 85.6347   1
  -2  -2  -4 485.273 137.780   3
   2  -2   5 872.505 172.134   3
   2  -2   5 669.449 107.130   1
  -2  -2  -5 988.882 230.867   3
  -2  -2  -5 809.889 133.430   1
   2  -2   6 87.6039 73.5387   1
   2  -2   6-46.8636 56.3671   3
  -2  -2  -6-22.9772 51.2825   1
   2  -2   7 408.478 138.500   3
  -2  -2  -7 394.611 118.283   1
   2  -2   7 548.877 157.405   1
   2  -2   8 17.9955 67.6431   3
  -2  -2  -8 11.7690 62.2021   1
   2  -2   8 146.886 103.588   1
  -2  -2  -9 36.7428 23.5333   1
   2  -2   9-70.9804 73.2199   1
   2  -2  10 609.543 211.741   1
  -2  -2 -10 594.665 189.890   1
   2  -2  11 64.8128 123.108   1
  -2  -1  14-84.4827 53.4643   1
  -2  -1  13 390.316 314.282   1
  -2  -1  12-94.8206 87.2058   1
  -2  -1  11-34.1033 74.6223   1
  -2  -1  10-26.5089 19.0062   1
  -2  -1   9-0.68368 118.891   1
  -2  -1   8 56.5888 82.0787   1
  -2  -1   7 56.9026 104.399   1
  -2  -1   6 30.9901 34.8129   1
   2  -1  -6-17.2910 82.8138   1
   2  -1  -5 561.059 182.820   1
  -2  -1   5 597.577 200.178   1
   2  -1  -4-38.9087 86.8105   1
  -2  -1   4-6.03743 56.3104   1
  -2  -1   3 226.710 89.0037   1
   2  -1  -3 266.118 112.991   1
   2  -1  -2 265.623 87.9886   1
  -2  -1   2 217.607 93.5422   1
   2  -1  -1 5683.75 400.143   1
  -2  -1   1 5617.60 393.904   1
   2  -1  -1 5697.13 297.540   2
  -2  -1   0 1286.88 161.410   2
   2  -1   1 786.483 100.088   1
  -2  -1  -2 41.3601 51.4704   3
  -2  -1  -3 106.384 68.6207   3
   2  -1   3 248.865 101.903   3
   2  -1   4 671.653 88.5506   1
  -2  -1  -4 1037.97 203.584   3
  -2  -1  -4 793.137 107.086   1
   2  -1   4 849.740 155.576   3
  -2  -1  -5 1581.94 291.990   3
   2  -1   5 1690.32 256.457   3
   2  -1   5 1852.56 216.310   1
  -2  -1  -5 1415.26 171.993   1
   2  -1   6 377.925 127.251   3
   2  -1   6 569.978 133.860   1
  -2  -1  -6 352.152 83.9765   1
   2  -1   7 19.9639 25.8617   3
   2  -1   7 86.7490 50.0763   1
  -2  -1  -7 130.618 63.5883   1
  -2  -1  -8-53.7757 65.4567   1
   2  -1   8 43.1425 66.0919   3
   2  -1   8 16.2170 41.1323   1
  -2  -1  -9 286.070 124.719   1
   2  -1   9 322.954 118.612   1
  -2  -1 -10 137.928 111.149   1
   2  -1  10 215.550 119.625   1
   2  -1  11 89.6846 82.7886   1
  -2   0  14 267.814 243.957   1
  -2   0  13 524.830 274.568   1
  -2   0  12 607.553 282.302   1
  -2   0  11 328.784 193.009   1
  -2   0  10 199.612 156.881   1
  -2   0   9-133.763 33.9741   1
  -2   0   8 258.951 139.045   1
  -2   0   7 356.750 187.711   1
   2   0  -6 5.78472 104.867   1
  -2   0   6 47.3934 33.0382   1
  -2   0   5 2358.94 394.716   1
   2   0  -5 2643.12 410.807   1
   2   0  -4 3971.30 456.847   1
  -2   0   4 3623.36 453.746   1
   2   0  -3 1165.94 227.508   1
  -2   0   3 962.049 212.047   1
  -2   0   2 45.4475 19.4887   1
   2   0  -2 115.207 23.8802   1
  -2   0   1 1432.06 165.570   2
   2   0  -1 1461.21 196.506   1
  -2   0   1 1511.62 202.137   1
   2   0   0 225.509 35.8278   2
  -2   0  -2 708.054 128.324   3
  -2   0  -3 678.048 138.526   3
   2   0   3 796.309 159.475   3
  -2   0  -4 297.539 97.8967   3
   2   0   4 283.231 96.2995   3
  -2   0  -4 169.013 45.3194   1
   2   0   5 1511.07 257.143   3
  -2   0  -5 1400.81 262.010   3
   2   0   5 1294.75 165.133   1
  -2   0  -5 1340.98 165.861   1
  -2   0  -6 640.727 134.454   1
   2   0   6 639.478 129.633   1
   2   0   6 556.104 173.852   3
   2   0   7 31.0528 19.3219   3
  -2   0  -7 89.2944 59.4380   1
   2   0   7 17.9429 40.0707   1
   2   0   8-58.8256 59.2683   3
   2   0   8-36.8259 31.4238   1
  -2   0  -8-41.0347 56.7477   1
  -2   0  -9 113.527 83.3434   1
   2   0   9 108.895 63.2518   1
  -2   0 -10 143.012 60.2344   1
  -2   1  14 157.833 258.419   1
  -2   1  13-83.9331 119.682   1
  -2   1  12 234.715 218.793   1
  -2   1  11-38.1642 88.7643   1
  -2   1  10-142.054 130.825   1
  -2   1   9 24.3482 90.0003   1
  -2   1   8 45.5452 30.3371   1
  -2   1   7 29.4339 59.1716   1
   2   1  -6-53.3640 93.3658   1
  -2   1   6-19.4248 53.7895   1
  -2   1   5 395.323 173.891   1
   2   1  -5 487.895 163.958   1
  -2   1   4 43.4388 71.9364   1
   2   1  -4 82.4766 73.2872   1
   2   1  -3 184.836 66.6652   1
  -2   1   3 275.743 87.6182   1
  -2   1   2 197.993 75.1775   1
   2   1  -2 272.038 95.7150   1
  -2   1   1 5897.45 313.963   2
  -2   1   1 5713.30 400.458   1
   2   1  -1 5579.78 389.865   1
   2   1   0 1410.06 182.149   2
   2   1   1 555.251 104.138   2
  -2   1  -2 9.02986 12.4197   3
   2   1   2 18.3147 37.5348   3
  -2   1  -3 26.0778 21.7425   3
   2   1   3 125.957 85.7542   3
  -2   1  -4 1068.72 183.960   3
  -2   1  -4 878.560 114.012   1
   2   1   4 1020.29 196.539   3
  -2   1  -5 1585.94 185.244   1
   2   1   5 1710.09 291.133   3
   2   1   6 365.487 149.855   3
  -2   1  -6 377.903 99.9077   1
  -2   1  -7 101.078 46.3464   1
   2   1   7 106.011 47.4707   3
  -2   1  -8 29.5783 41.3352   1
  -2   1  -9 408.580 158.589   1
  -2   1 -10 174.781 99.7053   1
  -2   2  13-11.3521 69.8234   1
  -2   2  12-169.129 100.426   1
  -2   2  11 304.106 155.997   1
  -2   2  10 240.064 158.383   1
  -2   2   9 201.986 167.960   1
  -2   2   8 98.2230 119.759   1
  -2   2   7 256.809 176.026   1
  -2   2   6 862.746 256.150   1
   2   2  -6 1173.39 271.881   1
  -2   2   5-46.7000 50.0113   1
   2   2  -5-50.4122 66.0709   1
  -2   2   4 2131.00 348.637   1
   2   2  -4 2431.18 372.161   1
   2   2  -3 1733.02 283.739   1
  -2   2   3 1473.64 265.964   1
  -2   2   2-29.8053 58.4208   1
   2   2  -2 70.2253 38.1031   1
  -2   2   1 59.9569 36.9378   1
   2   2  -1 90.8941 57.2701   1
   2   2   0 2029.51 242.739   2
   2   2   1 76.2448 24.7636   2
   2   2   1 132.269 46.4596   1
   2   2   2 1707.08 233.527   2
  -2   2  -2 1972.38 170.114   3
   2   2   2 2136.82 260.161   3
   2   2   3 134.551 87.5520   3
  -2   2  -3 148.706 49.4492   3
  -2   2  -4 599.428 136.123   3
   2   2   4 512.866 138.937   3
   2   2   5 907.927 209.958   3
  -2   2  -5 937.300 149.766   1
   2   2   6 53.5781 78.6610   3
  -2   2  -6-22.5470 17.0152   1
   2   2   7 577.852 212.007   3
  -2   2  -7 478.744 137.931   1
  -2   2  -8-72.2448 72.6166   1
  -2   2  -9 59.5230 70.5293   1
  -2   2 -10 570.048 198.217   1
  -2   3  13-68.0569 129.750   1
  -2   3  12 182.282 217.023   1
  -2   3  11 12.0408 50.7396   1
  -2   3  10-6.92647 123.759   1
  -2   3   9-21.1842 80.1723   1
  -2   3   8-111.956 107.294   1
  -2   3   7-77.5363 97.6746   1
   2   3  -6 1293.38 299.586   1
  -2   3   6 1205.00 311.074   1
   2   3  -5 91.5451 52.6271   1
  -2   3   5 125.567 89.5702   1
  -2   3   4 1267.08 276.506   1
   2   3  -4 1501.96 283.327   1
  -2   3   3 316.679 127.474   1
   2   3  -3 218.676 98.8331   1
  -2   3   2 1035.22 217.453   1
   2   3  -2 1057.85 201.937   1
   2   3  -1 173.900 46.8296   1
   2   3   0 7212.12 410.150   1
   2   3   1 493.559 153.912   2
   2   3   2-31.1814 63.1030   2
   2   3   2 72.0540 60.8948   3
  -2   3  -3 83.5857 29.7400   3
   2   3   3 70.7045 68.9686   3
   2   3   4 644.440 166.194   3
   2   3   5 499.794 170.721   3
  -2   3  -6 14.5984 33.5939   1
   2   3   6-7.77210 55.7378   3
  -2   3  -7 43.7954 47.2872   1
  -2   3  -8 172.149 89.5645   1
  -2   3  -9-18.3540 59.1912   1
  -2   3 -10 520.625 195.275   1
  -2   4  11-34.0539 33.0630   1
  -2   4  10 513.610 260.495   1
  -2   4   9-40.4522 82.8108   1
  -2   4   8 59.7231 81.9884   1
  -2   4   7 840.087 267.791   1
  -2   4   6 10.3261 34.1827   1
   2   4  -6 166.252 126.378   1
   2   4  -5 1150.55 274.611   1
  -2   4   5 1083.61 277.597   1
  -2   4   4-24.7229 74.5352   1
   2   4  -4 35.7700 52.3476   1
   2   4  -3 591.311 170.185   1
  -2   4   3 472.768 164.936   1
   2   4  -2 3414.02 375.793   1
   2   4  -1 130.224 92.4216   1
   2   4   0 1129.12 168.075   1
   2   4   1 1978.41 302.789   2
   2   4   2 127.909 100.489   2
   2   4   2 10.9911 30.0862   3
   2   4   3 1721.19 303.577   2
   2   4   3 676.901 168.797   3
   2   4   4 919.223 230.673   2
   2   4   4 525.961 166.176   3
   2   4   5 28.9995 50.8934   2
   2   4   5 36.0376 48.8227   3
   2   4   6 63.5513 80.1651   3
  -2   4  -7 124.319 101.125   1
  -2   4  -8 115.641 91.1338   1
  -2   4  -9 31.3010 41.3838   1
  -2   4 -10 63.1072 66.5093   1
   2   4  12-200.580 251.769   2
   2   4  13 42.5930 120.139   2
  -2   5  10-98.4451 137.938   1
  -2   5   9 174.340 188.018   1
  -2   5   8 108.581 170.661   1
  -2   5   7 284.096 183.702   1
  -2   5   6 138.708 19.6858   1
   2   5  -5 1557.77 322.723   1
  -2   5   5 1401.54 319.376   1
   2   5  -4 128.311 65.8464   1
  -2   5   4 230.574 98.9247   1
   2   5  -3 574.485 157.643   1
   2   5  -2 592.461 182.210   1
   2   5  -1 79.4554 24.7026   1
   2   5   0 86.4359 47.4369   1
   2   5   2 738.870 222.037   2
   2   5   2 210.104 129.309   3
   2   5   3 142.346 73.6484   3
   2   5   3 194.500 109.048   2
   2   5   4 34.1337 39.8958   3
   2   5   4 42.0396 79.2251   2
   2   5   5 457.480 163.387   2
   2   5   5 283.010 114.740   3
   2   5   6 236.129 124.261   3
   2   5   6 287.063 137.303   2
   2   5   7-96.5490 121.548   2
   2   5   8 148.559 62.0734   2
   2   5   9 590.016 225.944   2
  -2   5  -9 598.354 179.096   1
   2   5  10-62.6667 68.7757   2
  -2   5 -10-51.4319 74.4683   1
   2   5  11-79.9956 132.582   2
   2   5  12 137.033 135.566   2
   2   5  13-49.4132 135.285   2
  -2   6  10-157.769 136.045   2
  -2   6   8 12.0501 63.5464   2
  -2   6   7-50.5955 60.2963   2
  -2   6   6 495.680 84.5472   2
   2   6  -5 205.054 113.247   1
   2   6  -4 199.837 84.6918   1
   2   6  -3 1271.91 256.849   1
   2   6  -2 525.337 181.028   1
   2   6  -1 304.302 93.5225   1
   2   6   2 933.539 201.211   3
   2   6   2 2092.13 356.784   2
   2   6   3-439.590 190.437   2
   2   6   3 69.4661 35.5349   3
   2   6   4 206.812 98.3312   2
   2   6   4 182.517 125.088   3
   2   6   5 58.0723 83.6226   2
   2   6   5 50.5950 98.6684   3
   2   6   6 149.747 86.4673   2
   2   6   7 102.727 51.4843   2
   2   6   8-75.9274 83.3978   2
   2   6   9 9.22059 67.2039   2
   2   6  10 37.9696 54.7941   2
   2   6  11-391.304 275.825   2
   2   6  12 133.327 136.199   2
  -2   7  10-21.0772 68.6492   2
  -2   7   9 0.21963 50.8641   2
  -2   7   8 9.01077 10.0418   2
  -2   7   7 12.5655 32.7117   2
   2   7  -5 302.027 130.834   1
   2   7  -4 1644.98 330.675   1
   2   7  -3 520.393 162.691   1
   2   7  -2 124.985 86.1037   1
   2   7  -1 68.4783 63.8088   1
  -2   7  -1 3250.34 236.179   3
   2   7   2 186.264 105.811   3
   2   7   3 86.2315 30.8131   3
   2   7   4 1301.40 290.679   3
   2   7   4 1332.79 250.081   2
   2   7   5 1207.75 269.243   2
   2   7   5 1184.71 297.839   3
   2   7   6 662.088 211.252   2
   2   7   7 36.0844 38.2052   2
   2   7   8 264.412 125.099   2
   2   7   9 50.6037 97.7193   2
   2   7  10 471.044 169.976   2
   2   7  11 63.4596 81.9622   2
   2   7  12-120.041 156.399   2
  -2   8  10 469.046 132.911   2
  -2   8   9 56.0944 75.4194   2
  -2   8   8 258.167 98.2673   2
   2   8  -4 19.6615 8.07350   1
   2   8  -3 281.174 119.427   1
   2   8  -2 283.258 114.219   1
  -2   8   1 59.6996 13.1947   3
  -2   8   0 243.443 79.9968   3
  -2   8  -1 41.6559 21.4201   3
   2   8   2 570.648 179.841   3
   2   8   3-18.3720 48.5572   3
   2   8   4-287.225 175.906   2
   2   8   4 57.9986 96.5856   3
   2   8   5 173.118 143.683   2
   2   8   6 38.2060 120.078   2
   2   8   7 31.2486 75.4795   2
   2   8   8 30.8488 55.0206   2
   2   8   9 123.283 85.4294   2
   2   8  10-128.167 139.321   2
   2   8  11 879.729 307.033   2
   2   8  12 145.401 134.062   2
  -2   9   4 48.3332 56.9848   3
   2   9  -4-73.2056 36.1126   1
  -2   9   3 44.0839 38.5524   3
   2   9  -3 194.772 98.3936   1
   2   9  -2 214.673 113.528   1
  -2   9   2 93.9846 28.5999   3
  -2   9   1 377.943 129.590   3
  -2   9   0 2558.40 283.350   3
  -2   9  -1 320.055 76.2296   3
   2   9   2 215.258 86.8610   3
  -2   9  -2 139.215 41.5961   3
   2   9   3-4.26806 7.01599   3
   2   9   4 603.413 215.977   3
   2   9   5 1220.28 266.024   2
   2   9   6 555.697 192.455   2
   2   9   7-68.8316 44.3459   2
   2   9   8-40.1001 84.5238   2
   2   9   9 71.6074 88.9104   2
   2   9  10 20.4596 43.3656   2
   2   9  11 59.1666 105.020   2
   2   9  12 5.66796 114.368   2
   2  10  -4 47.7829 47.1395   1
   2  10  -3 47.4483 35.4545   1
  -2  10   3-47.6867 82.4579   3
  -2  10   2 798.065 214.198   3
  -2  10   1 5903.80 517.213   3
  -2  10   0 32.9715 45.0402   3
  -2  10  -1 378.035 88.4942   3
   2  10   2 231.543 122.682   3
  -2  10  -2 270.275 70.6906   3
   2  10   3 98.8833 86.0148   3
   2  10   6 111.787 69.4755   2
   2  10   7 187.285 117.513   2
   2  10   8 128.059 100.756   2
   2  10   9 178.201 127.989   2
   2  10  10 143.323 156.233   2
   2  10  11 191.709 134.326   2
   2  10  12 413.457 279.472   2
  -2  11   3 52.9425 105.096   3
  -2  11   2 115.500 38.8488   3
  -2  11   1 1881.39 297.892   3
  -2  11   0-5.76035 17.3958   3
  -2  11  -1 306.554 90.1079   3
   2  11   2 536.528 175.222   3
  -2  11  -2 577.437 109.138   3
   2  11   3 502.020 167.297   3
   2  11   7 229.866 165.937   2
   2  11   8 205.923 167.987   2
   2  11   9 427.744 232.684   2
   2  11  10 192.933 162.419   2
   2  11  11 146.732 100.447   2
  -2  12   3 52.9793 56.9398   3
  -2  12   2 50.0928 42.8287   3
  -2  12   1 53.3144 81.3757   3
  -2  12   0 260.082 115.417   3
  -2  12  -1 50.8923 12.1063   3
  -2  12  -2 113.919 66.1160   3
   2  12   2 24.7844 42.1644   3
   2  12   8 239.467 190.748   2
   2  12   9 579.428 265.148   2
   2  12  10 86.3117 114.319   2
   2  12  11 2.73498 130.278   2
  -2  13   2 557.959 189.438   3
  -2  13   1 164.496 106.967   3
  -2  13   0 2187.88 311.838   3
  -2  13  -1 569.258 133.439   3
  -2  13  -2 103.928 63.4885   3
  -2  14   2 521.952 191.229   3
  -2  14   1 42.4534 92.0316   3
  -2  14   0 1084.22 226.922   3
  -2  14  -1 255.281 105.796   3
  -2  14  -2 418.158 118.396   3
  -2  15   2 109.766 107.176   3
  -2  15   1 667.933 209.508   3
  -2  15   0-18.6204 52.6153   3
  -2  15  -1 736.045 177.609   3
  -2  15  -2 80.7988 45.8552   3
  -2  16   1 732.916 232.872   3
  -2  16   0 311.715 124.728   3
  -2  16  -1 17.6200 37.1175   3
  -2  16  -2 226.948 86.4118   3
  -2  17   1 1228.74 278.926   3
  -2  17   0 1132.34 261.388   3
  -2  17  -1 156.915 73.5746   3
  -2  17  -2 209.986 91.6812   3
  -2  18   0 104.610 111.252   3
  -2  18  -1 9.70858 46.0695   3
  -2  19   0 1858.71 347.238   3
  -2  19  -1 875.886 219.375   3
  -2  20   0 356.528 147.033   3
  -2  20  -1 167.320 120.836   3
  -2  21  -1 534.862 190.035   3
  -2  22  -1 861.424 250.181   3
  -3 -44   1 289.206 353.158   3
  -3 -43   1 72.5098 93.2147   3
  -3 -43   0 295.617 307.613   3
  -3 -42   2 40.7486 166.782   3
  -3 -42   1 261.830 300.541   3
  -3 -42   0-113.683 126.188   3
  -3 -42  -1 123.551 329.907   3
  -3 -41   2 187.322 367.486   3
  -3 -41   1 99.6878 82.7516   3
  -3 -41   0 188.089 198.857   3
  -3 -41  -1-182.052 229.024   3
  -3 -41  -2 229.515 371.189   3
  -3 -40   3-86.3560 147.039   3
  -3 -40   2 238.878 338.288   1
  -3 -40   2 142.778 267.287   3
  -3 -40   1 170.355 265.784   3
  -3 -40   1 265.839 387.227   1
  -3 -40   0 88.0364 99.5412   3
  -3 -40   0 370.515 469.722   1
  -3 -40  -1 194.336 254.195   3
  -3 -40  -1 5.24898 121.264   1
  -3 -40  -2-26.3559 159.685   3
  -3 -40  -3 48.0944 149.645   3
  -3 -39   4-111.468 103.569   1
  -3 -39   3 129.557 191.965   1
  -3 -39   3 170.111 134.612   3
  -3 -39   2 138.448 263.973   3
  -3 -39   2 259.082 266.557   1
  -3 -39   1 496.390 395.719   3
  -3 -39   1 455.664 419.126   1
  -3 -39   0 196.923 297.203   1
  -3 -39   0 108.191 257.862   3
  -3 -39  -1-169.520 281.010   3
  -3 -39  -1 123.727 133.627   1
  -3 -39  -2-310.156 289.221   3
  -3 -39  -3 136.254 166.655   3
  -3 -39  -4-141.115 224.438   3
   3 -39   5-258.879 265.200   1
   3 -39   6 259.106 374.727   1
  -3 -38   5 119.242 192.543   1
  -3 -38   4 303.205 358.001   3
  -3 -38   4 279.252 334.196   1
  -3 -38   3-143.408 113.377   1
  -3 -38   3 139.515 208.053   3
  -3 -38   2 69.1351 28.7741   3
  -3 -38   2 364.132 405.339   1
  -3 -38   1-326.949 284.475   3
  -3 -38   1 257.202 302.897   1
  -3 -38   0 215.224 251.508   3
  -3 -38   0 261.495 356.340   1
  -3 -38  -1 106.301 120.397   3
  -3 -38  -2 230.317 264.357   3
  -3 -38  -3 147.260 248.286   3
  -3 -38  -4 139.973 211.990   3
  -3 -38  -5 189.966 282.132   3
   3 -38   6 374.061 293.980   1
   3 -38   7 62.2939 30.6117   1
  -3 -37   6 98.3020 230.227   1
  -3 -37   5-29.9369 91.7324   1
  -3 -37   4-90.5968 164.649   3
  -3 -37   4 149.616 213.599   1
  -3 -37   3 101.140 141.089   3
  -3 -37   3 178.347 241.634   1
  -3 -37   2 265.497 278.834   3
  -3 -37   2 129.148 264.623   1
  -3 -37   1 347.872 322.313   1
  -3 -37   1-68.8407 62.3723   3
  -3 -37   0 278.927 326.865   1
  -3 -37   0 108.854 227.271   3
  -3 -37  -1 65.5224 53.2697   3
  -3 -37  -2 85.6833 165.239   3
  -3 -37  -3 29.8906 200.863   3
  -3 -37  -4 11.9811 200.560   3
  -3 -37  -5 215.761 249.387   3
  -3 -37  -6-88.8364 58.4608   3
   3 -37   6 96.6221 223.624   1
   3 -37   7-78.2461 175.326   1
   3 -37   8 384.109 131.573   1
  -3 -36   7 377.834 342.078   1
  -3 -36   6-148.050 310.619   1
  -3 -36   5-150.271 308.463   1
  -3 -36   4-74.4997 201.115   3
  -3 -36   4 35.5135 73.3647   1
  -3 -36   3-106.602 185.016   1
  -3 -36   3 313.139 336.677   3
  -3 -36   2 88.7152 15.2837   1
  -3 -36   2-102.214 176.166   3
  -3 -36   1 21.1090 161.473   3
  -3 -36   1 258.052 343.963   1
  -3 -36   0 143.711 267.330   3
  -3 -36   0-65.0961 174.160   1
  -3 -36  -1 72.0517 112.270   3
  -3 -36  -2-125.512 265.156   3
  -3 -36  -3 368.229 315.231   3
  -3 -36  -4-41.7127 99.5309   3
  -3 -36  -5 400.153 380.615   3
  -3 -36  -6-172.894 114.966   3
   3 -36   6-45.1389 171.598   1
   3 -36   7-99.4579 334.936   1
   3 -36   8 295.112 297.799   1
   3 -36   9 36.8611 227.212   1
  -3 -35   8-32.3236 219.525   1
  -3 -35   7 542.758 401.225   1
  -3 -35   6-281.482 293.345   1
  -3 -35   5 24.6605 228.967   1
  -3 -35   5 162.438 154.618   3
  -3 -35   4 497.494 341.322   1
  -3 -35   4 271.807 262.375   3
  -3 -35   3 204.322 98.2831   1
  -3 -35   3 353.030 288.414   3
  -3 -35   2-138.415 179.887   1
  -3 -35   2 110.509 131.400   3
  -3 -35   1-26.1573 195.396   3
  -3 -35   1-12.8577 114.187   1
  -3 -35   0 82.5084 123.188   3
  -3 -35   0 134.549 163.970   1
  -3 -35  -1 156.688 266.918   3
  -3 -35  -2-88.5306 136.841   3
  -3 -35  -3 380.792 349.031   3
  -3 -35  -4 351.740 321.873   3
  -3 -35  -5-115.148 75.3749   3
  -3 -35  -6 476.722 354.623   3
   3 -35   6 488.415 334.597   1
  -3 -35  -7 45.8712 112.774   3
   3 -35   7 63.6093 159.942   1
   3 -35   8 172.848 210.290   1
   3 -35   9 531.966 393.299   1
  -3 -34   9 218.429 364.116   1
  -3 -34   8-22.1022 203.917   1
  -3 -34   7 611.236 402.434   1
  -3 -34   6 16.4919 145.730   1
  -3 -34   5 348.535 290.536   3
  -3 -34   5 413.605 349.190   1
  -3 -34   4 141.788 6.07716   1
  -3 -34   4 332.024 270.443   3
  -3 -34   3 134.296 82.1869   1
  -3 -34   3 113.069 71.5050   3
  -3 -34   2 105.973 87.2094   3
  -3 -34   2-181.636 191.426   1
  -3 -34   1 78.1105 160.351   3
  -3 -34   1-70.2955 88.7114   1
  -3 -34   0 2.65333 24.6732   1
  -3 -34   0-143.752 172.009   3
  -3 -34  -1-104.412 157.978   3
  -3 -34  -2-6.43290 190.853   3
  -3 -34  -3 328.291 309.897   3
  -3 -34  -4 227.944 294.251   3
  -3 -34  -5 10.4379 176.556   3
   3 -34   6-33.4415 136.173   1
  -3 -34  -6 515.068 443.619   3
  -3 -34  -7 115.939 226.924   3
   3 -34   7-25.9354 51.7617   1
   3 -34   8-145.088 268.468   1
   3 -34   9 332.840 388.931   1
  -3 -33   9 98.4165 176.804   1
  -3 -33   8 120.847 276.962   1
  -3 -33   7 89.4520 185.548   1
  -3 -33   6 476.922 330.062   1
  -3 -33   6 268.789 258.202   3
  -3 -33   5-50.5283 144.911   1
  -3 -33   5 330.848 261.669   3
  -3 -33   4-2.73627 134.999   1
  -3 -33   4 54.1379 76.4095   3
  -3 -33   3 309.228 283.654   1
  -3 -33   3-43.1787 166.307   3
  -3 -33   2 218.029 221.419   1
  -3 -33   2-124.120 188.447   3
  -3 -33   1 402.043 335.898   1
  -3 -33   1 342.148 378.855   3
  -3 -33   0 11.4090 135.855   3
  -3 -33   0-19.1545 60.5856   1
  -3 -33  -1 119.890 179.606   3
  -3 -33  -2-86.4529 165.068   3
  -3 -33  -3-17.7162 224.049   3
  -3 -33  -4 129.926 82.4869   3
  -3 -33  -5 412.737 302.519   3
   3 -33   6 24.5518 182.735   1
  -3 -33  -6-102.664 170.045   3
  -3 -33  -7 153.497 330.597   3
   3 -33   7 320.597 270.198   1
  -3 -33  -8-136.597 195.994   3
   3 -33   8 89.4334 145.097   1
   3 -33   9 105.935 92.9668   1
  -3 -32  10-145.029 209.204   1
  -3 -32   9 393.657 397.441   1
  -3 -32   8 65.1567 168.724   1
  -3 -32   7 186.472 217.586   1
  -3 -32   6 421.160 351.839   1
  -3 -32   6 409.679 255.630   3
  -3 -32   5 208.357 309.324   1
  -3 -32   5-9.57288 142.978   3
  -3 -32   4-160.130 229.502   3
  -3 -32   4-81.4038 93.6814   1
  -3 -32   3 60.3022 66.9135   1
  -3 -32   3 38.1656 110.289   3
  -3 -32   2 94.2004 187.634   1
  -3 -32   2 307.421 210.744   3
  -3 -32   1-3.42434 68.1464   3
  -3 -32   1 100.125 213.355   1
  -3 -32   0 63.1740 111.218   3
  -3 -32  -1-9.27739 82.7700   3
  -3 -32  -2 277.275 248.524   3
  -3 -32  -3 581.703 320.228   3
  -3 -32  -4-37.7605 185.160   3
  -3 -32  -5 215.158 64.9921   3
  -3 -32  -6 148.359 197.236   3
   3 -32   6 93.9553 91.0875   1
   3 -32   7-49.3571 96.7795   1
  -3 -32  -7 260.810 297.924   3
  -3 -32  -8 131.432 40.8348   3
   3 -32   8-204.550 234.116   1
   3 -32   9 131.827 216.655   1
  -3 -32  -9 246.048 152.787   3
  -3 -31  11 102.359 235.791   1
  -3 -31  10 647.199 546.177   1
  -3 -31   9 153.547 173.692   1
  -3 -31   8 79.2533 317.093   1
  -3 -31   7 406.791 404.653   1
  -3 -31   6 292.781 283.723   3
  -3 -31   6 163.199 265.965   1
  -3 -31   5 10.9655 171.325   1
  -3 -31   5-5.74279 133.697   3
  -3 -31   4 230.887 191.903   1
  -3 -31   4 217.395 182.577   3
  -3 -31   3-67.0741 132.702   1
  -3 -31   3 104.761 190.978   3
  -3 -31   2 138.614 114.351   1
  -3 -31   2 323.039 279.439   3
  -3 -31   1-111.734 147.637   1
  -3 -31   1-31.2043 52.3550   3
  -3 -31   0 176.889 250.329   3
  -3 -31  -1 123.632 153.085   3
  -3 -31  -2 210.571 309.305   3
  -3 -31  -3-63.9630 30.8500   3
  -3 -31  -4 143.424 175.466   3
  -3 -31  -5 50.8717 134.315   3
  -3 -31  -6 147.807 150.826   3
   3 -31   6 31.3265 155.821   1
  -3 -31  -7 62.6017 221.283   3
   3 -31   7 15.3592 184.855   1
  -3 -31  -8 374.212 288.975   3
   3 -31   8 359.074 300.713   1
   3 -31   9 285.363 281.455   1
  -3 -31  -9 166.905 353.013   3
  -3 -30  11-78.6965 227.126   1
  -3 -30  10 307.462 359.113   1
  -3 -30   9-380.714 261.211   1
  -3 -30   8 284.685 413.243   1
  -3 -30   7 1120.82 555.996   1
  -3 -30   7 226.014 100.310   3
  -3 -30   6 176.745 213.712   1
  -3 -30   6 154.308 219.647   3
  -3 -30   5 99.1808 131.151   3
  -3 -30   5 220.354 189.528   1
  -3 -30   4-235.296 236.751   1
  -3 -30   4-36.1169 91.0112   3
  -3 -30   3 99.4730 176.958   3
  -3 -30   3 125.514 130.918   1
  -3 -30   2 40.5618 70.1250   3
  -3 -30   2 171.086 252.198   1
  -3 -30   1-162.537 197.542   3
  -3 -30   1 15.3846 164.553   1
  -3 -30   0-17.9999 155.227   3
  -3 -30  -1 127.001 160.298   3
  -3 -30  -2 256.485 234.150   3
  -3 -30  -3 46.6229 60.1555   3
  -3 -30  -4 63.4633 141.456   3
  -3 -30  -5 160.538 163.678   3
   3 -30   6 246.742 234.097   1
  -3 -30  -6 270.441 275.577   3
   3 -30   7-39.5528 141.516   1
  -3 -30  -7 187.891 304.554   3
  -3 -30  -8 100.774 248.962   3
   3 -30   8 371.793 287.263   1
  -3 -30  -9-60.2134 147.836   3
   3 -30   9 56.3221 60.0403   1
  -3 -30 -10 269.095 225.936   3
  -3 -29  12 282.588 350.386   1
  -3 -29  11 305.274 294.746   1
  -3 -29  10 525.231 357.142   1
  -3 -29   9 86.7172 222.573   1
  -3 -29   8 140.601 186.033   1
  -3 -29   7 304.736 332.504   1
  -3 -29   7-36.7945 96.4046   3
  -3 -29   6 97.9514 87.6632   3
  -3 -29   6-135.236 201.266   1
  -3 -29   5 313.123 314.350   1
  -3 -29   5 500.067 279.833   3
  -3 -29   4 207.577 169.958   1
  -3 -29   4 215.517 238.937   3
  -3 -29   3 122.169 92.9585   3
  -3 -29   3-33.8956 195.000   1
  -3 -29   2 220.787 270.771   1
  -3 -29   2 137.985 245.901   3
  -3 -29   1 579.881 347.547   1
  -3 -29   1 558.662 302.878   3
  -3 -29   0 116.504 77.6607   3
  -3 -29  -1 112.367 230.135   3
  -3 -29  -2-180.861 200.198   3
  -3 -29  -3 263.512 239.183   3
  -3 -29  -4 250.347 275.583   3
  -3 -29  -5 196.513 286.919   3
  -3 -29  -6 209.028 227.734   3
   3 -29   6 189.451 216.261   1
  -3 -29  -7 371.621 272.356   3
   3 -29   7 192.660 203.585   1
  -3 -29  -8 120.688 130.382   3
   3 -29   8 131.196 108.061   1
  -3 -29  -9-170.776 243.485   3
   3 -29   9 101.764 258.064   1
  -3 -29 -10 184.637 163.370   3
  -3 -28  12 319.237 359.138   1
  -3 -28  11-180.511 285.492   1
  -3 -28  10-87.0486 205.795   1
  -3 -28   9 150.379 98.1370   1
  -3 -28   8 507.025 343.058   3
  -3 -28   8 557.402 347.959   1
  -3 -28   7 57.0824 143.899   1
  -3 -28   7 79.2561 175.931   3
  -3 -28   6 19.2537 153.358   1
  -3 -28   6 19.5118 154.939   3
  -3 -28   5-47.7465 76.4093   1
  -3 -28   5 110.317 185.784   3
  -3 -28   4 135.798 206.902   3
  -3 -28   4-52.4771 143.827   1
  -3 -28   3 301.614 225.914   1
  -3 -28   3 556.554 327.377   3
  -3 -28   2 166.961 179.786   1
  -3 -28   2-32.6160 108.547   3
  -3 -28   1 35.1410 113.563   3
  -3 -28   1 69.6505 127.963   1
  -3 -28   0 60.7787 167.367   3
  -3 -28  -1 34.5934 46.2213   3
  -3 -28  -2 353.839 237.613   3
  -3 -28  -3 45.7625 122.300   3
  -3 -28  -4-5.83960 157.328   3
  -3 -28  -5 519.444 308.437   3
  -3 -28  -6 49.3501 192.375   3
   3 -28   6 229.360 165.828   1
  -3 -28  -7 18.8178 124.078   3
   3 -28   7-72.4893 161.315   1
  -3 -28  -8 200.985 207.410   3
   3 -28   8-92.1317 275.778   1
  -3 -28  -9 83.7004 182.826   3
   3 -28   9-54.3796 113.046   1
  -3 -28 -10 291.998 212.955   3
  -3 -27  13 431.175 461.563   1
  -3 -27  12-373.937 370.813   1
  -3 -27  11-204.955 338.311   1
  -3 -27  10-15.8131 218.443   1
  -3 -27   9 92.3228 88.2405   1
  -3 -27   8 230.389 219.465   1
  -3 -27   7-167.707 172.867   1
  -3 -27   7 39.7604 157.915   3
  -3 -27   6 318.002 286.603   1
  -3 -27   6 228.835 216.471   3
  -3 -27   5 122.779 205.214   1
  -3 -27   5 71.4336 151.429   3
  -3 -27   4 36.0654 94.1179   3
  -3 -27   4 37.9944 122.129   1
  -3 -27   3 182.069 200.914   3
  -3 -27   3 90.0661 87.4078   1
  -3 -27   2 149.482 83.3258   1
  -3 -27   2 126.678 113.253   3
  -3 -27   1 305.380 244.172   1
  -3 -27   1 298.325 185.968   3
  -3 -27   0 379.722 286.976   3
  -3 -27  -1 472.795 326.524   3
  -3 -27  -2 26.3176 81.7340   3
  -3 -27  -3 18.2546 87.4593   3
  -3 -27  -4 115.638 194.249   3
  -3 -27  -5 68.9622 80.8512   3
  -3 -27  -6 91.8968 135.159   3
   3 -27   6-47.7074 126.684   1
  -3 -27  -7-63.3418 65.7725   3
   3 -27   7 147.994 51.6184   1
  -3 -27  -8 14.4169 125.764   3
   3 -27   8 64.0829 42.1456   1
  -3 -27  -9 171.358 235.488   3
   3 -27   9-134.581 89.4222   1
  -3 -27 -10-131.749 251.381   3
  -3 -26  13-199.321 162.644   1
  -3 -26  12 95.4678 159.646   1
  -3 -26  11 64.7641 155.563   1
  -3 -26  10 704.166 471.009   1
  -3 -26   9-206.082 162.547   1
  -3 -26   8 39.2511 107.830   1
  -3 -26   7 214.473 169.365   1
  -3 -26   6-67.2506 173.352   1
  -3 -26   6 245.529 240.337   3
  -3 -26   5 200.021 99.7922   1
  -3 -26   5 5.70726 109.410   3
  -3 -26   4-74.6193 157.873   3
  -3 -26   4 103.560 181.906   1
  -3 -26   3 1.28857 44.5297   1
  -3 -26   3 155.002 80.4525   3
  -3 -26   2 136.183 161.420   3
  -3 -26   2 330.757 274.668   1
  -3 -26   1 70.7950 132.919   3
  -3 -26   1-189.237 196.879   1
  -3 -26   0 91.0742 108.582   3
  -3 -26  -1 282.699 249.875   3
  -3 -26  -2 17.2161 70.2004   3
  -3 -26  -3-15.1960 98.8425   3
  -3 -26  -4-75.5833 159.577   3
  -3 -26  -5 101.201 89.4605   3
  -3 -26  -6 183.822 201.949   3
   3 -26   6 169.680 30.9476   1
   3 -26   7-159.058 193.253   1
  -3 -26  -7 133.043 205.593   3
  -3 -26  -8 38.3110 87.7574   3
   3 -26   8-15.1309 128.613   1
   3 -26   9 387.457 332.643   1
  -3 -26  -9 376.767 311.186   3
  -3 -26 -10-154.719 281.677   3
   3 -26  10 250.723 250.408   1
  -3 -25  13 198.369 374.474   1
  -3 -25  12-113.560 169.772   1
  -3 -25  11-63.1103 169.944   1
  -3 -25  10 83.7980 51.0778   1
  -3 -25   9-117.760 218.203   1
  -3 -25   8 313.508 163.420   1
  -3 -25   7 212.549 202.841   1
  -3 -25   6 140.124 38.8112   1
  -3 -25   5 282.074 229.383   3
  -3 -25   5 337.465 191.889   1
  -3 -25   4-25.3498 123.354   1
  -3 -25   4 115.358 181.527   3
  -3 -25   3-47.6008 112.278   1
  -3 -25   3 33.1252 14.3141   3
  -3 -25   2 274.674 259.492   3
  -3 -25   2 177.843 157.357   1
  -3 -25   1 426.728 248.204   1
  -3 -25   1 385.550 239.283   3
  -3 -25   0 803.349 347.383   3
  -3 -25  -1 114.798 122.991   3
  -3 -25  -2 184.936 148.319   3
  -3 -25  -3 240.671 168.716   3
  -3 -25  -4-103.494 200.062   3
  -3 -25  -5-117.362 170.525   3
   3 -25   6 262.614 220.384   1
  -3 -25  -6 360.071 259.293   3
  -3 -25  -7 65.0461 213.445   3
   3 -25   7 267.659 234.775   1
  -3 -25  -8-18.6230 130.768   3
   3 -25   8 57.1514 152.049   1
  -3 -25  -9-21.4499 72.4418   3
   3 -25   9 220.703 248.403   1
  -3 -25 -10 130.565 197.435   3
   3 -25  10 41.8997 137.289   1
  -3 -24  14-40.8911 383.589   1
  -3 -24  13 136.643 325.864   1
  -3 -24  12-18.4819 128.669   1
  -3 -24  11 217.604 306.143   1
  -3 -24  10-40.2075 124.017   1
  -3 -24   9 15.4108 179.131   1
  -3 -24   8 66.6183 136.301   1
  -3 -24   7 285.699 213.283   1
  -3 -24   6 50.8292 174.173   1
  -3 -24   5 126.482 196.551   1
  -3 -24   4 113.330 127.705   3
  -3 -24   4 95.7291 124.198   1
  -3 -24   3 199.529 200.232   1
  -3 -24   3 163.211 106.256   3
  -3 -24   2 385.284 196.735   3
  -3 -24   2 335.247 190.534   1
  -3 -24   1 602.373 296.572   1
  -3 -24   1 426.320 219.422   3
  -3 -24   0 327.261 212.469   3
  -3 -24  -1 33.0742 111.842   3
  -3 -24  -2 77.0125 131.093   3
  -3 -24  -3 148.973 194.174   3
  -3 -24  -4 425.994 258.158   3
  -3 -24  -5 371.848 243.382   3
   3 -24   6 98.4239 142.605   1
  -3 -24  -6 141.543 173.066   3
  -3 -24  -7 499.966 341.974   3
   3 -24   7 188.449 154.302   1
   3 -24   8 607.872 352.682   1
  -3 -24  -8 207.801 291.581   3
  -3 -24  -9-488.389 371.235   3
   3 -24   9-97.0729 67.1934   1
   3 -24  10 280.886 261.731   1
  -3 -24 -10 710.290 431.298   3
  -3 -23  14 323.718 284.073   1
  -3 -23  13 277.730 351.224   1
  -3 -23  12 178.589 292.669   1
  -3 -23  11-44.9519 228.622   1
  -3 -23  10 150.075 207.423   1
  -3 -23   9 397.984 335.233   1
  -3 -23   8 341.393 291.436   1
  -3 -23   7 79.5868 168.340   1
  -3 -23   6 408.830 287.390   1
  -3 -23   5-102.260 165.353   1
  -3 -23   4 286.794 226.138   3
  -3 -23   4 12.7054 78.5165   1
  -3 -23   3 9.39564 130.019   1
  -3 -23   3 196.069 202.401   3
  -3 -23   2-10.5604 89.3466   3
  -3 -23   2 23.1610 43.5660   1
  -3 -23   1 273.527 205.389   1
  -3 -23   1 72.2367 46.2625   3
  -3 -23   0 366.694 143.134   3
  -3 -23  -1 112.509 140.860   3
  -3 -23  -2 140.527 181.910   3
  -3 -23  -3 121.161 153.592   3
  -3 -23  -4 407.449 249.950   3
  -3 -23  -5 326.365 239.451   3
   3 -23   6 277.963 275.049   1
  -3 -23  -6-84.7381 142.686   3
  -3 -23  -7 321.011 332.831   3
   3 -23   7-230.900 208.185   1
   3 -23   8 30.5352 73.6674   1
  -3 -23  -8 6.17453 24.3156   3
   3 -23   9-76.0041 143.158   1
  -3 -23  -9-153.155 226.215   3
  -3 -23 -10 6.39065 244.082   3
   3 -23  10 76.4314 105.165   1
  -3 -22  14-197.513 94.0227   1
  -3 -22  13 14.7134 100.017   1
  -3 -22  12 433.476 365.913   1
  -3 -22  11-119.780 148.965   1
  -3 -22  10 381.350 291.249   1
  -3 -22   9 236.421 260.832   1
  -3 -22   8-69.9003 91.4407   1
  -3 -22   7-9.17879 94.5141   1
  -3 -22   6 605.267 353.288   1
  -3 -22   5 62.8084 70.8492   1
  -3 -22   4 19.8442 88.3500   1
  -3 -22   3-17.0305 82.2111   1
  -3 -22   3-126.483 152.457   3
  -3 -22   2 384.565 210.484   3
  -3 -22   2 471.184 263.834   1
  -3 -22   1 627.804 293.047   1
  -3 -22   1 501.975 247.962   3
  -3 -22   0 267.224 181.187   3
  -3 -22  -1 54.8891 58.6770   3
  -3 -22  -2 62.7644 67.2720   3
  -3 -22  -3-20.5687 102.671   3
  -3 -22  -4 20.7785 121.423   3
  -3 -22  -5 59.2489 93.0537   3
  -3 -22  -6 109.464 157.757   3
   3 -22   6 296.215 213.070   1
   3 -22   7 193.911 187.053   1
  -3 -22  -7-41.3404 89.0831   3
  -3 -22  -8 337.066 250.145   3
   3 -22   8 76.6933 114.673   1
   3 -22   9 318.774 197.396   1
  -3 -22  -9 471.420 286.094   3
   3 -22  10-158.968 81.2853   1
  -3 -22 -10 160.512 246.264   3
  -3 -21  14-65.3291 189.001   1
  -3 -21  13 135.758 187.492   1
  -3 -21  12 46.3232 111.227   1
  -3 -21  11-13.0492 135.195   1
  -3 -21  10-4.51663 67.7538   1
  -3 -21   9 402.625 358.300   1
  -3 -21   8 67.2871 145.855   1
  -3 -21   7 199.410 236.814   1
  -3 -21   6 525.364 308.421   1
  -3 -21   5 352.388 237.932   1
  -3 -21   4 66.5617 155.541   1
  -3 -21   3 133.527 127.157   3
  -3 -21   3 260.858 201.191   1
  -3 -21   2 234.349 164.451   1
  -3 -21   2 245.349 207.581   3
  -3 -21   1 468.219 234.024   1
  -3 -21   1 436.581 257.490   3
  -3 -21   0 157.008 148.722   3
  -3 -21  -1 401.643 220.210   3
  -3 -21  -2-13.9122 62.1258   3
  -3 -21  -3 103.300 136.596   3
  -3 -21  -4 196.371 164.611   3
  -3 -21  -5 572.256 299.569   3
  -3 -21  -6 37.4594 32.9612   3
   3 -21   6 29.3138 54.0481   1
  -3 -21  -7 35.7174 139.753   3
   3 -21   7-19.1205 134.082   1
  -3 -21  -8 169.789 261.919   3
   3 -21   8 100.952 85.4076   1
  -3 -21  -9 260.942 196.014   3
   3 -21   9 29.0304 88.0777   1
  -3 -21 -10 112.238 203.179   3
   3 -21  10 108.764 166.517   1
  -3 -20  14 390.448 301.918   1
  -3 -20  13 86.7963 201.119   1
  -3 -20  12 208.209 39.2657   1
  -3 -20  11 66.9671 168.666   1
  -3 -20  10-84.2182 190.682   1
  -3 -20   9-123.952 193.047   1
  -3 -20   8-41.0149 103.842   1
  -3 -20   7 279.199 220.031   1
  -3 -20   6-97.6492 104.919   1
  -3 -20   5 242.813 211.206   1
  -3 -20   4 130.438 166.818   1
  -3 -20   3-22.2112 80.6603   1
  -3 -20   2-12.3494 87.2332   3
  -3 -20   2-32.6911 148.487   1
  -3 -20   1 183.507 175.502   3
  -3 -20   1 91.2249 96.6601   1
  -3 -20   0 547.828 234.530   3
  -3 -20  -1 36.4844 124.966   3
  -3 -20  -2 18.0942 83.7661   3
  -3 -20  -3-67.0585 124.541   3
  -3 -20  -4 7.04117 36.0799   3
  -3 -20  -5 324.529 248.529   3
   3 -20   6 88.4017 124.164   1
  -3 -20  -6 70.0999 123.399   3
  -3 -20  -7 383.087 239.323   3
   3 -20   7 86.2430 79.3520   1
   3 -20   8 80.4567 21.1114   1
  -3 -20  -8 271.221 246.511   3
  -3 -20  -9 28.1582 178.440   3
   3 -20   9 14.8810 3.32435   1
   3 -20  10-10.2309 27.0019   1
  -3 -20 -10 127.535 209.968   3
  -3 -19  15-114.993 254.640   1
  -3 -19  14 320.757 385.804   1
  -3 -19  13-31.0957 119.704   1
  -3 -19  12 47.2991 219.196   1
  -3 -19  11 149.497 283.626   1
  -3 -19  10 661.290 347.399   1
  -3 -19   9 131.763 110.486   1
  -3 -19   8 65.2843 124.301   1
  -3 -19   7 683.300 368.270   1
   3 -19  -6 344.171 145.024   2
  -3 -19   6 133.841 105.434   1
  -3 -19   5 117.744 148.509   1
  -3 -19   4 876.058 338.988   1
  -3 -19   3 145.270 105.909   1
  -3 -19   2 165.606 119.078   3
  -3 -19   2 169.512 109.590   1
  -3 -19   1 714.219 282.812   3
  -3 -19   1 678.607 274.241   1
  -3 -19   0 1100.28 344.767   3
  -3 -19  -1 100.090 124.739   3
  -3 -19  -2 191.785 103.445   3
  -3 -19  -3 590.369 257.754   3
  -3 -19  -4 557.185 260.875   3
  -3 -19  -5 124.010 115.639   3
   3 -19   6 283.321 181.818   1
  -3 -19  -6 365.858 202.794   3
   3 -19   7 269.406 234.065   1
  -3 -19  -7 334.672 257.853   3
  -3 -19  -8 1.47322 119.787   3
   3 -19   8 128.849 159.605   1
  -3 -19  -9-22.0880 68.9103   3
   3 -19   9-16.9473 87.9518   1
  -3 -19 -10 114.788 129.349   3
   3 -19  10 304.971 221.034   1
  -3 -18  15-19.3460 138.897   1
  -3 -18  14 183.470 251.312   1
  -3 -18  13 47.2450 124.917   1
  -3 -18  12 250.652 226.261   1
  -3 -18  11 135.396 289.503   1
  -3 -18  10-88.3202 136.567   1
  -3 -18   9-64.4685 156.137   1
  -3 -18   8 253.852 238.415   1
  -3 -18   7 436.131 304.025   1
   3 -18  -6 94.8616 81.2924   2
  -3 -18   6 128.545 125.318   1
  -3 -18   5 361.485 278.927   1
  -3 -18   4 50.9866 142.327   1
  -3 -18   3-117.746 121.768   1
  -3 -18   2 623.114 252.286   3
  -3 -18   2 817.532 302.647   1
  -3 -18   1 4.30452 119.922   3
  -3 -18   1 39.3854 100.111   1
  -3 -18   0 74.4241 73.3476   3
  -3 -18  -1 254.289 155.777   3
  -3 -18  -2 41.9881 84.2052   3
  -3 -18  -3 143.264 148.373   3
  -3 -18  -4 262.589 202.730   3
  -3 -18  -5 192.857 174.439   3
   3 -18   6 326.746 221.442   1
  -3 -18  -6 569.799 295.592   3
   3 -18   7-52.4567 58.3942   1
  -3 -18  -7-31.4694 101.832   3
   3 -18   8 115.978 124.005   1
  -3 -18  -8 7.09392 53.0797   3
   3 -18   9 46.4916 107.053   1
  -3 -18  -9 93.2510 180.586   3
   3 -18  10 35.2896 128.232   1
  -3 -18 -10 32.0523 143.241   3
  -3 -17  15-138.148 137.014   1
  -3 -17  14-55.1457 177.653   1
  -3 -17  13-29.9150 158.089   1
  -3 -17  12-159.756 104.997   1
  -3 -17  11-120.453 164.549   1
  -3 -17  10-87.5733 77.8552   1
  -3 -17   9 275.733 234.662   1
  -3 -17   8 193.098 97.2864   1
  -3 -17   7 174.660 176.351   1
   3 -17  -6 233.507 79.6213   2
  -3 -17   6 313.917 193.731   1
  -3 -17   5 620.606 314.297   1
  -3 -17   4 63.5280 125.840   1
  -3 -17   3 41.8177 60.8054   1
  -3 -17   2 297.194 211.214   1
  -3 -17   1 439.442 223.923   1
  -3 -17   1 370.409 184.098   3
  -3 -17   0 136.920 129.949   1
  -3 -17   0 231.948 170.700   3
  -3 -17  -1 879.550 310.325   3
  -3 -17  -2-37.9815 139.370   3
  -3 -17  -3 41.6314 116.259   3
  -3 -17  -4 39.6352 64.4187   3
  -3 -17  -5 976.999 354.791   3
  -3 -17  -6 104.255 108.143   3
   3 -17   6 388.885 228.351   1
  -3 -17  -7-73.2291 131.575   3
   3 -17   7 20.6206 91.6138   1
  -3 -17  -8 1.64824 25.1872   3
   3 -17   8 173.579 161.454   1
   3 -17   9 149.394 31.0441   1
  -3 -17  -9-35.8645 46.3590   3
   3 -17  10 152.003 124.341   1
  -3 -17 -10 271.263 231.870   3
  -3 -16  15-14.4739 83.3870   1
  -3 -16  14 217.488 221.543   1
  -3 -16  13 168.932 139.610   1
  -3 -16  12-76.2866 174.587   1
  -3 -16  11 115.719 124.854   1
  -3 -16  10 254.913 267.531   1
  -3 -16   9 140.103 190.538   1
  -3 -16   8-83.3519 25.2151   1
  -3 -16   7 66.1122 97.3642   1
   3 -16  -6 372.182 82.6658   2
  -3 -16   6 361.795 226.326   1
  -3 -16   5 274.489 222.756   1
  -3 -16   4 137.935 113.824   1
  -3 -16   3-75.1893 121.959   1
  -3 -16   2 159.515 170.952   1
  -3 -16   1 222.157 165.770   3
  -3 -16   1 112.935 74.3293   1
  -3 -16   0 53.3245 120.040   3
  -3 -16   0 62.1725 95.1418   1
  -3 -16  -1 344.500 193.505   3
  -3 -16  -2 35.2728 47.4109   3
  -3 -16  -3 711.501 281.013   3
  -3 -16  -4 292.915 161.684   3
  -3 -16  -5 851.228 327.148   3
  -3 -16  -6 11.8003 49.0276   3
   3 -16   6 107.996 155.159   1
  -3 -16  -7-43.6721 166.421   3
   3 -16   7-13.0382 69.8992   1
  -3 -16  -8-31.9860 136.779   3
   3 -16   8 161.489 148.320   1
  -3 -16  -9-4.74067 54.6145   3
   3 -16   9 92.6479 85.5299   1
   3 -16  10 565.515 255.515   1
  -3 -15  15 138.016 268.559   1
  -3 -15  14-234.516 280.833   1
  -3 -15  13 110.760 244.275   1
  -3 -15  12 303.136 328.527   1
  -3 -15  11 133.399 232.282   1
  -3 -15  10 21.2720 212.089   1
  -3 -15   9 129.536 78.9109   1
  -3 -15   8 83.0591 110.813   1
  -3 -15   7 276.505 241.879   1
  -3 -15   6 158.705 174.178   1
  -3 -15   5 596.961 267.460   1
  -3 -15   4 124.676 63.8356   1
  -3 -15   3-46.0707 77.9232   1
  -3 -15   2 630.089 242.140   1
  -3 -15   1 416.530 170.977   1
  -3 -15   1 468.441 212.886   3
  -3 -15   0 1705.46 402.780   3
  -3 -15   0 1655.97 362.619   1
  -3 -15  -1 110.416 129.863   3
  -3 -15  -2 77.0474 108.090   3
  -3 -15  -3 181.811 126.615   3
  -3 -15  -4 43.3693 89.8892   3
  -3 -15  -5 42.8361 88.9169   3
  -3 -15  -6 226.644 196.067   3
   3 -15   6 140.759 79.3843   1
   3 -15   7 104.106 109.243   1
  -3 -15  -7 144.223 181.565   3
  -3 -15  -8 294.436 227.598   3
   3 -15   8 1.88222 28.9155   1
   3 -15   9 166.807 145.001   1
  -3 -15  -9 350.096 232.692   3
   3 -15  10 177.722 107.881   1
  -3 -14  15 146.484 165.158   1
  -3 -14  14 80.0203 192.833   1
  -3 -14  13 208.682 175.984   1
  -3 -14  12 538.768 381.506   1
  -3 -14  11 242.239 250.648   1
  -3 -14  10 182.337 108.764   1
  -3 -14   9 66.4050 89.5438   1
  -3 -14   8-2.37371 114.818   1
  -3 -14   7 1323.93 440.213   1
  -3 -14   6 168.124 191.173   1
  -3 -14   5 637.050 263.762   1
  -3 -14   4 75.0445 95.7441   1
  -3 -14   3-7.89197 68.9739   1
  -3 -14   2 166.676 147.614   1
  -3 -14   1 88.2795 85.6093   1
  -3 -14   0 91.2648 9.06889   1
  -3 -14   0 78.8703 100.018   3
  -3 -14  -1 443.623 204.217   3
  -3 -14  -2 103.787 143.483   3
  -3 -14  -3 253.253 172.800   3
  -3 -14  -4 754.910 264.756   3
  -3 -14  -5 15.4915 10.5907   3
  -3 -14  -6 376.021 203.262   3
   3 -14   6 357.193 151.712   1
  -3 -14  -7 138.272 192.227   3
   3 -14   7 140.487 113.980   1
  -3 -14  -8 10.9507 43.5181   1
  -3 -14  -8-62.3282 66.1270   3
   3 -14   9 27.8413 74.4112   1
  -3 -14  -9 121.072 80.3625   3
   3 -14  10 337.281 178.482   1
  -3 -13  15 80.8519 238.845   1
  -3 -13  14 121.094 278.721   1
  -3 -13  13-140.507 123.995   1
  -3 -13  12 40.4300 181.343   1
  -3 -13  11 115.226 162.820   1
  -3 -13  10 246.264 191.838   1
  -3 -13   9 55.9409 169.319   1
  -3 -13   8-4.55010 22.8742   1
  -3 -13   7 31.9166 48.8026   1
  -3 -13   6 583.768 310.136   1
   3 -13  -5 345.251 83.8159   2
  -3 -13   5 153.289 157.869   1
  -3 -13   4 1104.87 328.612   1
  -3 -13   3 216.539 135.793   1
  -3 -13   2-15.9712 1.46062   1
  -3 -13   1 1093.05 292.240   1
  -3 -13   0 834.569 268.533   3
  -3 -13   0 1090.94 299.991   1
  -3 -13  -1 137.092 129.312   3
  -3 -13  -2 1921.09 439.060   3
  -3 -13  -3 474.081 222.310   3
  -3 -13  -4 467.248 217.253   3
  -3 -13  -5 39.8908 77.6001   3
  -3 -13  -6 824.691 301.868   3
   3 -13   6 1135.19 291.126   1
   3 -13   7 26.0172 84.0822   1
  -3 -13  -7 40.6273 100.862   3
  -3 -13  -8 187.752 211.971   3
  -3 -13  -8 180.206 123.950   1
   3 -13   8 83.8886 67.4915   1
   3 -13   9 160.248 134.599   1
  -3 -13  -9 158.617 185.658   3
   3 -13  10 665.062 258.404   1
  -3 -12  15 74.9760 205.330   1
  -3 -12  14 532.836 352.213   1
  -3 -12  13 73.5765 158.751   1
  -3 -12  12 190.857 263.691   1
  -3 -12  11 76.7198 196.395   1
  -3 -12  10 9.17605 141.625   1
  -3 -12   9 68.2037 200.897   1
  -3 -12   8 335.060 273.349   1
  -3 -12   7 246.270 204.320   1
  -3 -12   6 1001.91 371.770   1
  -3 -12   5 138.635 104.892   1
  -3 -12   4 146.196 62.1048   1
  -3 -12   3 71.0869 28.2456   1
  -3 -12   2 475.429 194.187   1
  -3 -12   1 181.935 103.921   1
  -3 -12   0 28.5295 77.7395   3
  -3 -12   0-89.5825 101.576   1
  -3 -12  -1 17.3582 64.2909   3
  -3 -12  -2 1451.31 355.653   3
  -3 -12  -2 2133.31 436.132   2
  -3 -12  -3 172.975 112.241   3
  -3 -12  -4 187.772 153.304   3
  -3 -12  -5 292.930 140.742   3
  -3 -12  -6 207.313 136.994   3
   3 -12   6 53.5760 45.4834   1
  -3 -12  -7 315.799 193.432   3
   3 -12   7 162.983 117.434   1
  -3 -12  -8 144.943 160.795   3
   3 -12   8 149.108 84.3463   1
  -3 -12  -8 223.663 104.570   1
   3 -12   9 30.9021 93.5511   1
  -3 -12  -9 169.713 128.443   3
  -3 -12  -9 21.9241 53.5040   1
   3 -12  10 169.367 110.693   1
  -3 -11  15-12.9180 147.007   1
  -3 -11  14-23.1085 131.810   1
  -3 -11  13 96.3047 40.9474   1
  -3 -11  12 366.089 265.202   1
  -3 -11  11 9.43488 153.317   1
  -3 -11  10 124.117 162.333   1
  -3 -11   9 807.525 402.239   1
  -3 -11   8 419.182 249.958   1
  -3 -11   7 147.752 150.593   1
  -3 -11   6 282.569 185.085   1
  -3 -11   5 806.825 283.311   1
  -3 -11   4 0.33106 88.4338   1
  -3 -11   3 140.120 80.6524   1
  -3 -11   2 1797.51 383.323   1
  -3 -11   1 777.731 243.233   1
  -3 -11   0 222.040 140.203   1
  -3 -11  -1 1013.60 245.162   1
  -3 -11  -1 941.190 276.873   3
  -3 -11  -2 1162.81 316.963   2
  -3 -11  -2 668.190 233.285   3
  -3 -11  -3 29.2553 87.7293   2
  -3 -11  -3 81.2641 90.1229   3
  -3 -11  -4 857.664 266.277   3
  -3 -11  -5 1417.18 366.462   3
   3 -11   5 1718.38 325.854   1
   3 -11   6 485.268 177.568   1
  -3 -11  -6 501.121 218.943   3
  -3 -11  -7 150.728 106.414   3
   3 -11   7 25.3102 111.413   1
  -3 -11  -7 118.571 111.261   1
  -3 -11  -8 124.972 118.133   3
  -3 -11  -8 188.012 143.176   1
   3 -11   8 146.504 140.091   1
   3 -11   8 30.5340 26.5542   3
  -3 -11  -9 366.224 224.886   3
   3 -11   9 513.228 196.242   1
  -3 -11  -9 422.753 191.144   1
   3 -11  10 165.271 139.226   1
  -3 -10  15-20.3151 202.437   1
  -3 -10  14 74.0071 187.345   1
  -3 -10  13 87.6645 157.906   1
  -3 -10  12 181.516 297.047   1
  -3 -10  11 194.667 175.829   1
  -3 -10  10 466.520 296.176   1
  -3 -10   9 349.770 313.550   1
  -3 -10   8-75.8928 117.306   1
  -3 -10   7 31.5887 43.0756   1
  -3 -10   6 169.961 128.909   1
  -3 -10   5 117.529 122.416   1
  -3 -10   4 18.5530 55.7022   1
  -3 -10   3 60.2180 80.3065   1
  -3 -10   2 494.060 207.543   1
  -3 -10   1 256.214 133.628   1
  -3 -10   0 185.855 68.4846   1
  -3 -10  -1 741.669 210.347   1
  -3 -10  -1 630.600 220.199   3
  -3 -10  -2 189.537 159.238   2
  -3 -10  -2 118.861 87.7306   3
  -3 -10  -3-115.598 127.431   2
  -3 -10  -3 70.3656 56.8220   3
  -3 -10  -4-41.0527 38.2720   3
  -3 -10  -5 434.341 183.279   3
   3 -10   5 392.190 154.057   1
  -3 -10  -6 501.665 232.660   3
   3 -10   6 682.807 198.385   1
  -3 -10  -7 224.710 141.632   3
   3 -10   7 43.7238 29.4603   3
   3 -10   7 147.979 80.4673   1
  -3 -10  -7 144.286 102.139   1
  -3 -10  -8 434.496 161.400   1
   3 -10   8 440.059 154.659   1
  -3 -10  -8 681.511 296.117   3
   3 -10   8 336.837 101.718   3
  -3 -10  -9 264.610 147.213   1
  -3 -10  -9 616.782 288.345   3
   3 -10   9 341.755 142.524   1
   3 -10  10 45.4338 49.5773   1
  -3  -9  15-32.0629 67.3750   1
  -3  -9  14 4.14062 172.112   1
  -3  -9  13 190.798 164.709   1
  -3  -9  12 256.332 223.325   1
  -3  -9  11 205.523 292.143   1
  -3  -9  10 82.8188 103.124   1
  -3  -9   9-1.30963 116.796   1
  -3  -9   8 177.151 93.8680   1
  -3  -9   7 584.316 285.764   1
  -3  -9   6 246.781 162.437   1
  -3  -9   5 21.6868 45.7408   1
  -3  -9   4 1024.83 297.105   1
  -3  -9   3 43.2973 80.2866   1
   3  -9  -3 198.954 127.237   1
  -3  -9   2 169.379 121.005   1
  -3  -9   1 255.775 154.304   1
  -3  -9   0 2327.18 354.678   1
  -3  -9  -1 368.224 155.370   3
  -3  -9  -1 347.907 122.457   1
  -3  -9  -1 558.982 227.466   2
  -3  -9  -2 148.895 94.5234   2
  -3  -9  -2-90.9296 69.5820   3
  -3  -9  -3 342.313 115.057   2
  -3  -9  -3 403.845 176.477   3
  -3  -9  -4 570.079 163.495   2
  -3  -9  -4 264.158 160.055   3
  -3  -9  -5 178.960 146.959   3
   3  -9   5 247.724 117.803   1
  -3  -9  -6 551.957 221.280   3
   3  -9   6 563.190 180.403   1
   3  -9   7 0.37184 21.4196   3
  -3  -9  -7 26.4677 88.0812   3
   3  -9   7 27.8160 56.7014   1
  -3  -9  -7 97.6544 100.891   1
   3  -9   8-11.5200 35.4063   3
  -3  -9  -8 27.4956 67.2053   1
  -3  -9  -8 74.5693 145.353   3
   3  -9   8-31.7618 30.6668   1
  -3  -9  -9 83.9461 64.1159   1
   3  -9   9 203.082 131.428   1
   3  -9  10-58.6651 67.0018   1
  -3  -8  15 259.061 189.112   1
  -3  -8  14 49.6300 119.039   1
  -3  -8  13-89.4495 202.356   1
  -3  -8  12-52.8458 75.2984   1
  -3  -8  11 785.207 414.691   1
  -3  -8  10 93.5956 166.493   1
  -3  -8   9 353.792 250.173   1
  -3  -8   8 201.337 184.587   1
  -3  -8   7 26.9384 72.0085   1
  -3  -8   6 30.0542 67.3441   1
  -3  -8   5 524.398 219.558   1
  -3  -8   4 58.4947 47.2888   1
  -3  -8   3 60.1138 91.1769   1
   3  -8  -3 240.206 136.510   1
  -3  -8   2 406.568 154.272   1
  -3  -8   1 1632.62 308.375   1
  -3  -8   0 6059.74 549.319   1
  -3  -8  -1 51.4641 9.34091   3
  -3  -8  -1 340.889 158.304   2
  -3  -8  -1 108.541 79.6793   1
  -3  -8  -2 318.438 124.906   2
  -3  -8  -2 168.398 110.879   3
  -3  -8  -3-77.5023 123.400   2
  -3  -8  -3 32.8018 78.8252   3
  -3  -8  -4 100.983 20.3071   3
  -3  -8  -4 20.7271 162.782   2
   3  -8   5 551.129 155.998   1
  -3  -8  -5 402.437 169.820   3
  -3  -8  -6 113.013 114.832   3
   3  -8   6 6.08696 23.1911   1
  -3  -8  -6 44.3559 58.2992   1
   3  -8   7 372.190 99.3942   3
  -3  -8  -7 522.066 156.149   1
   3  -8   7 578.301 166.215   1
  -3  -8  -7 517.412 241.414   3
   3  -8   8 434.335 129.304   3
  -3  -8  -8 518.209 164.038   1
  -3  -8  -8 616.776 256.831   3
   3  -8   8 619.193 186.304   1
  -3  -8  -9 99.4637 28.7035   1
   3  -8   9-90.6568 93.5523   1
   3  -8  10 858.796 251.143   1
  -3  -7  15 270.970 325.853   1
  -3  -7  14 11.6711 118.716   1
  -3  -7  13-269.103 212.098   1
  -3  -7  12 193.156 229.191   1
  -3  -7  11 121.673 199.687   1
  -3  -7  10 145.789 192.195   1
  -3  -7   9 64.9119 124.263   1
  -3  -7   8 30.8986 123.445   1
  -3  -7   7 21.8652 101.210   1
  -3  -7   6 825.039 293.067   1
  -3  -7   5 621.625 244.264   1
   3  -7  -4 326.601 156.110   1
  -3  -7   4 327.597 162.612   1
  -3  -7   3 105.506 36.8939   1
   3  -7  -3 155.613 134.914   1
  -3  -7   2 1304.02 294.812   1
   3  -7  -2 1631.91 298.286   1
  -3  -7   1 1.39342 28.5595   1
  -3  -7   0 184.249 98.1247   1
  -3  -7  -1 397.508 120.662   1
  -3  -7  -1 484.215 181.820   3
  -3  -7  -1 669.736 199.080   2
  -3  -7  -2-0.30158 30.8037   3
  -3  -7  -2-44.5558 51.2697   2
  -3  -7  -2 20.3780 56.7754   1
  -3  -7  -3-84.3362 97.1934   2
  -3  -7  -3-53.9695 82.2035   3
  -3  -7  -4 374.841 164.815   3
  -3  -7  -5 103.376 110.375   3
   3  -7   5 59.1297 50.6485   1
  -3  -7  -6 81.0251 115.446   3
   3  -7   6 30.1673 21.9870   3
   3  -7   6-149.787 97.9175   1
  -3  -7  -6 98.7664 61.7133   1
  -3  -7  -7 134.543 81.1265   1
  -3  -7  -7 148.682 125.115   3
   3  -7   7 334.892 118.222   1
   3  -7   7 132.969 69.5935   3
  -3  -7  -8 235.727 110.371   1
  -3  -7  -8 328.457 189.907   3
   3  -7   8 244.055 113.488   3
   3  -7   8 422.164 168.975   1
   3  -7   9-63.6987 46.7276   1
  -3  -7  -9 55.3089 60.3661   1
   3  -7  10 20.5361 75.4888   1
  -3  -6  15 106.227 147.921   1
  -3  -6  14 249.277 252.655   1
  -3  -6  13 171.928 60.8257   1
  -3  -6  12 500.377 348.871   1
  -3  -6  11 118.643 176.358   1
  -3  -6  10 208.980 139.536   1
  -3  -6   9 24.3972 27.6446   1
  -3  -6   8 183.166 195.046   1
  -3  -6   7 343.898 190.037   1
  -3  -6   6 330.979 169.103   1
  -3  -6   5 53.5854 48.0450   1
  -3  -6   4 325.979 165.045   1
   3  -6  -4 332.120 138.447   1
  -3  -6   3-45.5596 16.9482   1
   3  -6  -3-49.7126 32.0070   2
   3  -6  -3-1.46748 91.4857   1
   3  -6  -2 721.009 181.776   1
  -3  -6   2 698.856 204.624   1
  -3  -6   1-26.7144 39.8727   1
   3  -6  -1 59.9471 91.4439   1
  -3  -6   0 130.974 89.6047   1
  -3  -6  -1 1226.85 251.670   2
  -3  -6  -1 1022.05 201.689   1
  -3  -6  -2 363.805 145.938   3
  -3  -6  -2 503.248 120.076   1
  -3  -6  -2 544.870 150.037   2
  -3  -6  -3-111.732 110.011   2
  -3  -6  -3 61.5859 100.989   3
  -3  -6  -4 675.299 219.545   3
   3  -6   5 165.549 68.7043   1
  -3  -6  -5 199.346 124.239   3
   3  -6   6 143.080 46.3819   3
  -3  -6  -6 279.061 143.234   3
  -3  -6  -6 218.188 88.8606   1
   3  -6   6 237.036 81.0248   1
  -3  -6  -7 26.6036 19.9030   1
   3  -6   7 16.6484 37.1410   3
  -3  -6  -7-45.7619 63.0859   3
  -3  -6  -8 151.437 133.516   3
   3  -6   8 165.314 85.7449   3
  -3  -6  -8 124.863 75.4172   1
   3  -6   8-66.2200 85.8960   1
   3  -6   9 934.516 231.801   3
   3  -6   9 1033.24 236.210   1
  -3  -6  -9 1010.88 221.356   1
   3  -6  10 184.357 120.822   1
  -3  -5  15-279.822 317.685   1
  -3  -5  14 13.2350 121.137   1
  -3  -5  13 245.719 234.831   1
  -3  -5  12-53.1395 159.810   1
  -3  -5  11 16.5716 136.059   1
  -3  -5  10 334.823 196.531   1
  -3  -5   9-14.0597 73.3526   1
  -3  -5   8-44.2863 44.3314   1
  -3  -5   7 113.246 134.820   1
  -3  -5   6 42.4560 39.9408   1
  -3  -5   5 408.849 208.233   1
   3  -5  -4 233.311 137.856   1
  -3  -5   4 286.215 142.765   1
   3  -5  -3-99.9246 100.019   1
  -3  -5   3 24.5930 75.9331   1
   3  -5  -2 379.985 99.7650   1
  -3  -5   2 422.887 165.199   1
   3  -5  -1 3562.52 397.458   1
  -3  -5   1 3276.73 392.262   1
  -3  -5   0 3966.67 387.938   1
  -3  -5   0 4346.71 462.027   2
  -3  -5  -1 3352.18 411.042   2
  -3  -5  -1 3177.97 312.624   1
  -3  -5  -2 0.11642 115.087   2
  -3  -5  -2 107.379 37.0548   1
  -3  -5  -2 165.115 114.589   3
  -3  -5  -3 218.168 118.879   3
  -3  -5  -4 141.160 90.5818   3
   3  -5   4 140.353 46.8234   1
  -3  -5  -5 622.127 219.565   3
   3  -5   5 605.392 116.131   1
   3  -5   5 603.132 110.002   3
  -3  -5  -5 566.898 117.840   1
  -3  -5  -6 154.978 86.0794   3
   3  -5   6 56.4504 53.3942   1
   3  -5   6-5.85336 50.0708   3
  -3  -5  -6 99.2346 59.6134   1
  -3  -5  -7 80.6440 48.6441   1
  -3  -5  -7 113.729 125.575   3
   3  -5   7 5.13281 56.0568   1
   3  -5   7 63.0163 74.5804   3
  -3  -5  -8-17.5948 60.1387   3
   3  -5   8-17.7832 36.0405   1
  -3  -5  -8 17.0862 33.6971   1
   3  -5   8-17.4465 40.5266   3
  -3  -5  -9 47.8267 18.1019   1
   3  -5   9 161.157 111.373   1
   3  -5   9 73.7343 58.4207   3
   3  -5  10 171.612 114.789   1
  -3  -4  15 68.3637 87.9815   1
  -3  -4  14 21.6599 138.607   1
  -3  -4  13 207.911 133.646   1
  -3  -4  12 135.190 119.639   1
  -3  -4  11-57.1549 121.039   1
  -3  -4  10 24.7597 33.4919   1
  -3  -4   9 47.1519 48.9738   1
  -3  -4   8 421.431 233.913   1
  -3  -4   7-22.5833 128.359   1
  -3  -4   6-7.24488 80.8740   1
  -3  -4   5 355.190 151.544   1
   3  -4  -4 1008.87 260.058   1
  -3  -4   4 821.547 257.276   1
   3  -4  -3 271.124 112.059   1
  -3  -4   3 430.289 172.230   1
   3  -4  -2 675.203 97.7989   2
  -3  -4   2 858.062 220.332   1
   3  -4  -2 864.808 207.816   1
   3  -4  -1 585.046 149.845   1
  -3  -4   1 730.420 191.918   1
  -3  -4   0 254.488 96.0842   1
  -3  -4   0 345.280 153.326   2
   3  -4   0 360.400 125.649   1
  -3  -4  -1 41.2482 59.2062   2
  -3  -4  -1 64.3247 25.1773   1
  -3  -4  -2 1060.59 206.170   2
  -3  -4  -2 996.669 224.976   3
  -3  -4  -2 1162.72 153.355   1
  -3  -4  -3 215.081 56.2551   1
  -3  -4  -3 181.819 84.4673   3
  -3  -4  -4 70.4160 43.2715   3
   3  -4   4 15.6916 22.2934   1
   3  -4   5 630.304 125.530   3
  -3  -4  -5 771.464 230.822   3
  -3  -4  -5 459.696 97.6977   1
   3  -4   5 598.210 103.658   1
  -3  -4  -6 42.8667 32.9572   3
  -3  -4  -6 15.2813 12.9271   1
   3  -4   6-11.1905 46.7807   3
  -3  -4  -7 114.395 92.5916   3
   3  -4   7 21.9508 39.6215   1
  -3  -4  -7 118.441 57.9446   1
   3  -4   7 116.484 78.8421   3
   3  -4   8 80.9808 81.7327   1
   3  -4   8-7.94415 24.7892   3
  -3  -4  -8 1.23283 42.7252   1
  -3  -4  -9 22.7189 38.4295   1
   3  -4   9-8.84920 70.7264   3
   3  -4  10 639.981 187.473   1
  -3  -3  15-39.5438 205.298   1
  -3  -3  14-66.8678 184.705   1
  -3  -3  13-57.2848 15.9219   1
  -3  -3  12-144.334 232.082   1
  -3  -3  11 372.973 274.990   1
  -3  -3  10 69.9728 122.073   1
  -3  -3   9-133.132 133.003   1
  -3  -3   8 19.1319 56.4093   1
  -3  -3   7 110.129 24.2785   1
  -3  -3   6 533.110 199.333   1
  -3  -3   5 2039.26 393.490   1
   3  -3  -5 2331.41 410.158   1
   3  -3  -4 120.088 34.6054   1
  -3  -3   4 102.373 81.5538   1
   3  -3  -3 43.8235 68.1793   1
  -3  -3   3-15.8635 51.8355   1
   3  -3  -2-115.331 101.052   1
   3  -3  -2 61.4610 52.0144   2
  -3  -3   2-70.1859 89.5334   1
   3  -3  -1 3795.71 395.749   1
  -3  -3   1 3554.08 387.867   1
  -3  -3   1 3677.12 398.994   2
  -3  -3   0 7496.70 562.667   2
   3  -3   0 7132.15 494.009   1
  -3  -3   0 7146.43 484.768   1
  -3  -3  -1 663.948 105.929   2
   3  -3   1 737.386 142.461   1
  -3  -3  -1 888.675 152.977   1
  -3  -3  -2 420.871 78.8235   1
  -3  -3  -2 385.163 143.807   3
  -3  -3  -3 1287.12 249.020   3
  -3  -3  -4-33.0162 14.0337   3
   3  -3   4-22.3791 45.3302   1
  -3  -3  -5 165.627 106.561   3
   3  -3   5 243.939 95.6473   3
   3  -3   5 55.8032 25.2014   1
  -3  -3  -6 632.822 217.229   3
  -3  -3  -6 486.493 102.937   1
   3  -3   6 367.603 66.1780   1
   3  -3   6 740.434 176.638   3
  -3  -3  -7 39.0798 31.4893   1
   3  -3   7 210.615 88.8238   1
  -3  -3  -7 167.438 132.019   3
   3  -3   7 173.163 114.696   3
  -3  -3  -8 20.6270 37.5273   1
   3  -3   8 234.547 114.123   1
   3  -3   8 47.9554 60.8447   3
   3  -3   9-65.1649 73.8319   1
  -3  -3  -9 55.7601 40.9182   1
   3  -3  10 119.653 115.888   1
  -3  -2  15 69.9393 192.076   1
  -3  -2  14 49.6352 203.054   1
  -3  -2  13 81.9266 15.1541   1
  -3  -2  12-58.9895 208.387   1
  -3  -2  11 409.608 256.653   1
  -3  -2  10 53.8310 153.745   1
  -3  -2   9-61.6056 132.091   1
  -3  -2   8 22.4356 101.750   1
  -3  -2   7 2264.72 484.163   1
  -3  -2   6 1587.21 380.140   1
  -3  -2   5 1016.46 279.084   1
   3  -2  -5 1406.34 324.533   1
  -3  -2   4 222.177 132.944   1
   3  -2  -4 283.758 128.108   1
   3  -2  -3 1138.15 250.638   1
  -3  -2   3 1053.98 258.968   1
   3  -2  -2-30.6001 46.0310   1
  -3  -2   2 31.0403 63.7799   1
   3  -2  -1 321.930 106.214   1
   3  -2  -1 159.270 52.8509   2
  -3  -2   1 278.749 86.7901   1
  -3  -2   1 538.383 169.103   2
  -3  -2   0 1105.45 180.038   1
   3  -2   0 1235.17 202.692   1
  -3  -2   0 942.966 152.348   2
   3  -2   1 1254.85 173.531   1
  -3  -2  -1 1372.52 170.707   1
  -3  -2  -1 1257.13 204.470   2
  -3  -2  -2 61.7778 59.8245   3
   3  -2   2 111.583 40.0246   1
  -3  -2  -2 124.893 44.6221   1
  -3  -2  -3 904.613 194.228   3
  -3  -2  -4 849.376 199.209   3
   3  -2   5 139.489 36.9359   1
  -3  -2  -5 368.289 135.120   3
   3  -2   5 553.008 165.538   3
  -3  -2  -6 290.879 124.256   3
   3  -2   6 477.015 160.527   3
  -3  -2  -6 222.212 59.5263   1
   3  -2   6 681.016 131.848   1
  -3  -2  -7 80.0338 73.5627   3
  -3  -2  -7 66.5462 45.2936   1
   3  -2   7 176.803 107.245   3
   3  -2   7 40.8517 35.5892   1
  -3  -2  -8-22.7341 32.5590   1
   3  -2   8-11.7044 60.6314   3
   3  -2   8 60.6402 43.4715   1
   3  -2   9 144.948 87.3098   1
  -3  -2  -9 60.0490 39.9469   1
   3  -2   9 83.3256 93.5959   3
   3  -2  10 91.3087 81.9811   1
  -3  -1  15 110.765 237.720   1
  -3  -1  14 6.73803 108.367   1
  -3  -1  13-209.446 233.828   1
  -3  -1  12-173.012 156.924   1
  -3  -1  11-85.0933 89.7131   1
  -3  -1  10 153.165 187.488   1
  -3  -1   9 58.5195 83.4470   1
  -3  -1   8 56.8357 137.158   1
  -3  -1   7 101.415 91.5112   1
  -3  -1   6 397.089 196.605   1
  -3  -1   5 47.9396 56.6310   1
   3  -1  -5 188.974 107.691   1
  -3  -1   4 525.848 166.531   1
   3  -1  -4 656.874 194.110   1
  -3  -1   3 98.7774 87.0674   1
   3  -1  -3 55.7342 71.0583   1
   3  -1  -2 340.142 121.136   1
  -3  -1   2 371.702 126.460   1
   3  -1  -1 259.861 81.0293   2
  -3  -1   1 339.070 111.463   1
   3  -1  -1 192.637 88.0286   1
  -3  -1   1 345.931 82.6071   2
  -3  -1   0 778.412 142.943   2
   3  -1   0 802.306 134.101   2
  -3  -1   0 959.534 168.388   1
   3  -1   0 1065.11 182.354   1
   3  -1   1 688.295 124.750   1
  -3  -1  -1 755.486 129.154   1
   3  -1   2 3.51683 14.0274   1
  -3  -1  -2 14.5359 30.4616   3
  -3  -1  -3 103.907 65.1516   3
  -3  -1  -4 918.426 202.348   3
   3  -1   4 1124.48 211.902   3
  -3  -1  -5 345.524 136.041   3
   3  -1   5 428.004 137.739   3
  -3  -1  -6 164.733 118.557   3
  -3  -1  -6 41.5059 23.2745   1
   3  -1   6 104.571 46.2720   1
   3  -1   6 124.742 101.421   3
   3  -1   7 13.3048 34.6403   3
  -3  -1  -7-4.22749 13.1951   1
   3  -1   7 15.9003 24.8725   1
   3  -1   8 291.489 107.866   1
   3  -1   8 116.185 85.3243   3
  -3  -1  -8 67.1153 41.8188   1
  -3  -1  -9-20.5209 39.1770   1
  -3   0  15 191.461 270.893   1
  -3   0  14 24.8879 98.8597   1
  -3   0  13-14.8868 148.209   1
  -3   0  12 146.735 182.440   1
  -3   0  11-78.1061 103.629   1
  -3   0  10 446.816 267.599   1
  -3   0   9-79.2467 33.2525   1
  -3   0   8 507.061 229.628   1
  -3   0   7-4.68266 55.5393   1
  -3   0   6 6964.72 782.752   1
  -3   0   5 134.483 103.200   1
   3   0  -5 257.610 148.496   1
  -3   0   4 34.0591 66.4419   1
   3   0  -4 20.0519 46.6423   1
  -3   0   3 1179.44 261.864   1
   3   0  -3 1270.27 252.316   1
   3   0  -2 138.963 82.6640   1
  -3   0   2 117.934 96.2014   2
  -3   0   2 45.3138 96.6269   1
  -3   0   1 100.426 84.6972   1
  -3   0   1-63.9139 102.569   2
   3   0  -1 60.1507 82.1161   1
   3   0   0 7919.93 528.616   2
  -3   0   0 8220.08 496.248   1
   3   0   0 8452.12 498.073   1
   3   0   1 2279.96 290.250   2
  -3   0  -1 2435.43 226.555   1
   3   0   1 2443.60 225.404   1
  -3   0  -3 219.423 83.6277   3
   3   0   4 178.187 110.669   3
  -3   0  -4 177.179 97.9417   3
  -3   0  -5 563.020 175.618   3
   3   0   5 419.496 138.201   3
   3   0   6 728.427 201.941   3
  -3   0  -6 708.013 190.647   3
   3   0   7 102.947 74.0196   3
  -3   0  -7 37.2859 31.2479   1
   3   0   8 226.754 134.863   3
  -3   0  -8 108.703 51.2400   1
  -3   0  -9 206.314 90.2035   1
  -3   1  15 188.486 346.811   1
  -3   1  14 29.8155 110.355   1
  -3   1  13-210.592 169.887   1
  -3   1  12 209.408 204.946   1
  -3   1  11 50.7056 125.028   1
  -3   1  10 92.6445 171.620   1
  -3   1   9 158.434 145.559   1
  -3   1   8-61.3920 95.6475   1
  -3   1   7 46.0870 72.1110   1
  -3   1   6 365.832 170.815   1
  -3   1   5 171.806 107.199   1
   3   1  -5 206.727 110.974   1
  -3   1   4 721.488 222.986   1
   3   1  -4 701.245 194.653   1
  -3   1   3 30.4808 48.7946   1
   3   1  -3-30.0757 45.7696   1
  -3   1   2 340.717 133.185   1
  -3   1   2 166.301 36.9445   2
   3   1  -2 251.925 94.1826   1
  -3   1   1 211.216 22.4518   1
  -3   1   1 208.893 72.8566   2
   3   1  -1 265.518 103.291   1
  -3   1   0 932.131 155.373   1
   3   1   0 750.327 158.342   2
   3   1   0 988.279 167.293   1
  -3   1  -1 691.405 128.063   1
   3   1   1 431.436 107.747   2
   3   1   1 751.783 125.304   1
   3   1   2-127.921 130.672   2
  -3   1  -3 205.733 97.5269   3
  -3   1  -4 855.411 170.586   3
   3   1   4 1002.91 210.835   3
  -3   1  -5 272.990 101.166   3
   3   1   5 397.639 149.014   3
   3   1   6 160.018 119.845   3
  -3   1  -6 143.437 92.9248   3
   3   1   7 22.9119 49.4440   3
  -3   1  -8 156.234 57.9342   1
  -3   1  -9 2.04690 35.5866   1
  -3   2  14 203.706 209.534   1
  -3   2  13 5.62298 193.258   1
  -3   2  12 165.624 156.342   1
  -3   2  11 281.364 158.152   1
  -3   2  10 20.8176 112.208   1
  -3   2   9 196.448 158.576   1
  -3   2   8-63.6904 47.4455   1
  -3   2   7 2204.51 477.761   1
  -3   2   6 1603.25 359.135   1
  -3   2   5 1081.20 281.206   1
   3   2  -5 1180.91 272.820   1
  -3   2   4 356.717 173.210   1
   3   2  -4 312.681 130.338   1
  -3   2   3 976.026 234.788   1
  -3   2   3 1039.33 142.090   2
   3   2  -3 1116.72 249.403   1
  -3   2   2-101.923 87.2683   2
   3   2  -2-35.3835 61.0658   1
  -3   2   2-117.401 93.7265   1
   3   2  -1 275.966 96.3367   1
  -3   2   1 263.739 79.7598   1
   3   2   0 1385.22 254.093   2
   3   2   0 1180.26 183.125   1
  -3   2   0 987.021 172.993   1
   3   2   1 1327.56 170.344   1
   3   2   1 1146.96 203.908   2
   3   2   2-303.200 183.446   2
   3   2   2 119.021 36.9899   1
   3   2   3 235.542 131.469   2
  -3   2  -3 1165.34 180.593   3
   3   2   4 897.406 198.907   3
  -3   2  -4 899.057 164.213   3
  -3   2  -5 397.863 124.951   3
   3   2   5 396.177 151.937   3
   3   2   6 316.045 154.317   3
   3   2   7 39.0552 82.6047   3
   3   2  14-1.63625 128.301   2
  -3   3  13 173.968 116.764   1
  -3   3  12-0.23444 162.214   1
  -3   3  11 77.8427 67.4384   1
  -3   3  10-92.0367 114.099   1
  -3   3   9-118.318 126.592   1
  -3   3   8-14.2319 12.7153   1
  -3   3   7 134.297 101.085   1
  -3   3   6 473.327 205.462   1
   3   3  -5 2524.60 425.346   1
  -3   3   5 2136.35 412.835   1
   3   3  -4 83.9236 15.4145   1
  -3   3   4 160.622 58.3117   2
  -3   3   4 85.0583 54.1651   1
   3   3  -3 69.9005 79.5521   1
  -3   3   3-68.0200 54.3458   2
  -3   3   3 64.5395 63.1369   1
  -3   3   2-27.6815 56.6269   1
   3   3  -2 97.6022 83.2920   1
  -3   3   1 3394.62 376.644   1
   3   3  -1 3441.58 369.142   1
   3   3   0 7078.64 472.415   1
   3   3   0 6935.85 555.305   2
   3   3   1 796.160 134.974   1
   3   3   1 773.656 182.038   2
   3   3   2 144.747 70.8808   2
   3   3   3 144.699 169.298   2
  -3   3  -3 1276.62 163.995   3
  -3   3  -4 47.1793 35.1333   3
   3   3   4 105.521 113.224   2
   3   3   4 28.4316 48.2983   3
  -3   3  -5 159.814 67.5847   3
   3   3   5 156.298 101.293   3
   3   3   6 786.897 247.985   3
   3   3  12-178.292 152.426   2
   3   3  13-87.2963 209.185   2
  -3   4  12 331.733 279.628   1
  -3   4  11-56.3631 144.480   1
  -3   4  10 106.566 108.035   1
  -3   4   9 66.9953 86.5188   1
  -3   4   8 296.019 200.972   1
  -3   4   7-33.1512 78.7419   1
  -3   4   6-3.09294 35.8308   1
  -3   4   5 477.199 184.514   1
   3   4  -4 948.180 266.206   1
  -3   4   4 1072.76 275.554   1
   3   4  -3 394.837 148.056   1
  -3   4   3 231.734 121.371   1
   3   4  -2 913.787 216.233   1
  -3   4   2 744.841 198.322   1
   3   4  -1 557.449 129.811   1
   3   4   0 292.632 111.706   1
   3   4   1 180.553 68.4349   1
   3   4   1 253.783 143.079   2
   3   4   2 709.786 155.228   2
  -3   4  -3 194.483 62.9469   3
   3   4   3-79.3572 145.842   2
   3   4   3 182.118 78.3053   3
   3   4   4 4.38050 31.1936   3
  -3   4  -4-1.59568 2.01269   3
   3   4   5 1241.20 324.340   2
   3   4   5 721.727 210.005   3
   3   4   6 153.668 131.847   2
   3   4   6 96.0452 93.3711   3
   3   4   7 354.584 194.078   2
   3   4   8 222.918 174.478   2
   3   4   9-124.120 107.260   2
   3   4  10 326.268 146.942   2
   3   4  11 37.8914 61.7941   2
   3   4  12-10.8569 125.675   2
   3   4  13-204.668 178.224   2
  -3   5  11 1.50675 49.8622   1
  -3   5  10 96.0949 186.519   1
  -3   5   9 86.7089 134.981   1
  -3   5   8-6.41564 93.0479   1
  -3   5   7 220.413 146.968   1
  -3   5   6 32.7580 43.6563   1
  -3   5   5 349.296 174.738   1
  -3   5   4 370.302 184.796   1
   3   5  -4 222.074 92.6215   1
   3   5  -3-8.40382 73.4245   1
  -3   5   3 34.2050 34.8904   1
   3   5  -2 341.220 127.757   1
   3   5  -1 3427.19 384.629   1
   3   5   0 4048.41 390.001   1
   3   5   1 3501.27 412.989   2
   3   5   2 228.051 116.906   2
   3   5   3 279.973 125.803   2
   3   5   3 186.030 109.890   3
  -3   5  -3 108.388 43.7365   3
  -3   5  -4 122.462 46.7420   3
   3   5   4 116.499 92.1858   2
   3   5   4 264.799 146.769   3
   3   5   5 1431.80 340.437   2
   3   5   5 711.685 231.818   3
   3   5   6 431.966 195.203   2
   3   5   7 399.879 219.072   2
   3   5   8 169.433 152.419   2
   3   5   9 33.1038 50.1493   2
   3   5  10 189.202 136.534   2
   3   5  11-54.0858 74.7998   2
   3   5  12 45.5125 57.5650   2
   3   5  13-146.083 109.195   2
  -3   6   9-65.4725 68.1518   2
  -3   6   9 66.2905 129.837   1
  -3   6   8-36.8126 33.9139   2
  -3   6   8 74.3919 88.1683   1
  -3   6   7 250.071 136.291   1
  -3   6   6 349.077 196.537   1
  -3   6   5 207.560 168.319   1
   3   6  -4 291.805 163.758   1
   3   6  -3 105.605 106.817   1
   3   6  -2 857.997 221.421   1
   3   6  -1 16.5956 57.7762   1
   3   6   0-15.3886 56.8818   1
   3   6   2 1088.05 271.164   2
   3   6   3 542.289 203.021   2
   3   6   3 12.0828 29.0444   3
   3   6   4 766.015 228.741   3
   3   6   4 703.493 198.668   2
   3   6   5 488.218 209.772   2
   3   6   5 138.478 126.420   3
   3   6   6 467.990 216.668   2
   3   6   7 327.917 196.046   2
   3   6   8 160.196 119.862   2
   3   6   9 968.491 317.383   2
   3   6  10 15.7281 15.6023   2
   3   6  11 221.147 134.858   2
   3   6  12-49.0360 84.5470   2
   3   6  13 16.0014 75.1293   2
  -3   7   9 84.5281 46.7409   2
   3   7  -4 155.486 67.1348   1
   3   7  -3 150.822 109.547   1
   3   7  -2 1525.59 294.181   1
   3   7  -1 129.742 86.3582   1
   3   7   0 154.616 66.3463   1
   3   7   3 18.1069 27.8904   3
   3   7   3 879.073 258.377   2
   3   7   4 392.959 95.3460   2
   3   7   4 569.956 193.850   3
   3   7   5-144.192 125.410   2
   3   7   6 484.595 235.787   2
   3   7   7 527.565 245.101   2
   3   7   8 365.076 185.578   2
   3   7   9 24.5787 86.2357   2
   3   7  10-112.687 108.413   2
   3   7  11-4.24269 120.784   2
   3   7  12 16.9250 176.584   2
   3   7  13 32.9550 63.4469   2
   3   8  -3 107.594 88.3509   1
   3   8  -2 463.345 181.660   1
   3   8  -1 1680.30 293.867   1
   3   8   3 1125.83 299.437   2
   3   8   3 76.1439 72.3953   3
   3   8   4 273.716 154.943   3
   3   8   4-155.305 192.087   2
   3   8   5 243.801 40.8485   2
   3   8   6 43.8387 83.5779   2
   3   8   7 665.479 235.781   2
   3   8   8 680.352 272.063   2
   3   8   9 158.017 173.038   2
   3   8  10 812.775 309.063   2
   3   8  11 215.045 155.048   2
   3   8  12 266.108 237.854   2
   3   8  13-56.8899 85.0589   2
   3   9  -3 35.1526 34.7449   1
   3   9  -2 73.3627 121.651   1
   3   9  -1 263.184 129.703   1
  -3   9  -2 78.0429 42.0201   3
   3   9   3 366.601 165.034   3
   3   9   4-199.164 193.766   2
   3   9   5-298.274 241.122   2
   3   9   6 263.148 96.8163   2
   3   9   7 28.9188 52.3386   2
   3   9   8 109.019 122.213   2
   3   9   9 39.8859 129.584   2
   3   9  10-53.9267 90.4302   2
   3   9  11 126.877 136.907   2
   3   9  12 81.8210 211.575   2
   3  10  -3-10.2329 71.3912   1
   3  10  -2 443.525 153.993   1
  -3  10  -1 714.689 145.893   3
  -3  10  -2 78.1758 29.3354   3
   3  10   5-271.091 224.600   2
   3  10   6 221.644 35.7146   2
   3  10   7 330.234 181.273   2
   3  10   8 786.461 279.306   2
   3  10   9 474.816 266.425   2
   3  10  10 146.346 191.646   2
   3  10  11 470.573 241.610   2
   3  10  12 389.448 225.677   2
  -3  11   2 1868.69 346.150   3
   3  11  -2 1739.40 334.965   1
  -3  11   1 645.532 177.163   3
  -3  11   0 55.6135 39.8828   3
  -3  11  -1 1095.68 183.407   3
  -3  11  -2 693.739 121.234   3
   3  11   6 35.7049 162.089   2
   3  11   7-138.223 156.456   2
   3  11   8 196.106 165.190   2
   3  11   9 375.357 229.009   2
   3  11  10 198.260 192.959   2
   3  11  11 240.326 190.767   2
   3  11  12 253.907 196.331   2
  -3  12   2 458.131 171.197   3
  -3  12   1 172.999 65.5485   3
  -3  12   0 96.7913 69.6669   3
  -3  12  -1 25.8794 25.2491   3
  -3  12  -2 1434.53 183.561   3
   3  12   7-172.689 212.591   2
   3  12   8 209.842 125.698   2
   3  12   9 138.995 145.596   2
   3  12  10 219.073 224.136   2
   3  12  11 107.712 143.296   2
   3  12  12 349.841 224.363   2
  -3  13   2-0.61679 58.5643   3
  -3  13   1 1062.04 243.479   3
  -3  13   0 918.242 203.095   3
  -3  13  -1-4.48104 46.5261   3
  -3  13  -2 1698.52 206.279   3
   3  13   9-92.0521 137.530   2
   3  13  10 722.738 299.950   2
   3  13  11 226.613 228.854   2
   3  13  12 370.629 264.366   2
  -3  14   2 102.453 55.8923   3
  -3  14   1 29.9304 6.10499   3
  -3  14   0 70.5367 31.4364   3
  -3  14  -1 447.677 113.403   3
  -3  14  -2 141.973 75.8498   3
  -3  15   1 372.822 158.542   3
  -3  15   0 1791.96 296.622   3
  -3  15  -1 134.658 57.9079   3
  -3  15  -2 48.8869 44.6702   3
  -3  16   1 151.124 110.608   3
  -3  16   0 121.228 85.0055   3
  -3  16  -1 271.744 91.3634   3
  -3  16  -2 93.1890 52.0338   3
  -3  17   1 447.456 189.269   3
  -3  17   0 122.072 38.2417   3
  -3  17  -1 1250.40 255.905   3
  -3  17  -2 26.1800 62.5057   3
  -3  18   0 9.22005 15.8657   3
  -3  18  -1 495.883 171.056   3
  -3  18  -2 41.8379 27.4823   3
  -3  19   0 1426.42 307.078   3
  -3  19  -1 90.2887 82.3189   3
  -3  19  -2 302.824 130.174   3
  -3  20   0 810.676 239.894   3
  -3  20  -1 121.400 91.4561   3
  -3  20  -2 237.442 109.677   3
  -3  21  -1 678.347 211.330   3
  -3  21  -2-14.5118 35.6422   3
  -3  22  -1 161.483 113.225   3
  -3  22  -2 28.4772 30.2232   3
  -3  23  -1 102.182 104.044   3
  -3  23  -2 159.377 98.4587   3
  -3  24  -2 168.757 122.341   3
  -4 -43   2 107.125 161.575   3
  -4 -42   3 165.164 297.992   3
  -4 -42   2-156.496 240.244   3
  -4 -42   1 234.518 232.924   3
  -4 -42   0 63.6135 101.531   3
  -4 -41   3-232.574 247.099   3
  -4 -41   2 531.942 415.724   3
  -4 -41   1 3.59911 194.638   3
  -4 -41   0 36.2088 162.936   3
  -4 -41  -1-73.1552 128.098   3
  -4 -40   3 315.278 356.946   3
  -4 -40   2 226.301 434.393   3
  -4 -40   1 166.683 224.958   3
  -4 -40   1 265.887 244.632   1
  -4 -40   0-89.4722 44.6954   3
  -4 -40   0 228.732 308.820   1
  -4 -40  -1 95.4675 139.715   3
  -4 -40  -1 2.18042 322.098   1
  -4 -40  -2 63.1004 113.971   3
  -4 -40  -2-161.946 117.743   1
  -4 -40  -3 307.608 435.621   1
  -4 -39   4 143.551 122.605   3
  -4 -39   3 82.5508 242.490   3
  -4 -39   3 134.889 207.242   1
  -4 -39   2-4.24126 224.540   1
  -4 -39   2 141.799 127.134   3
  -4 -39   1 255.534 200.294   1
  -4 -39   1-37.2458 59.8475   3
  -4 -39   0 88.1329 184.708   1
  -4 -39   0 50.3186 44.6481   3
  -4 -39  -1 57.9215 226.583   3
  -4 -39  -1 99.0546 108.307   1
  -4 -39  -2 219.614 289.407   3
  -4 -39  -2 102.798 183.715   1
  -4 -39  -3 326.705 330.906   3
  -4 -39  -3-120.701 212.782   1
   4 -39   6-205.005 41.6478   1
  -4 -38   4 175.481 187.695   3
  -4 -38   4 272.002 350.513   1
  -4 -38   3 88.3711 278.666   1
  -4 -38   3 119.605 235.883   3
  -4 -38   2 41.7205 137.676   3
  -4 -38   2-69.2688 94.5022   1
  -4 -38   1 194.411 154.400   1
  -4 -38   1-263.026 282.806   3
  -4 -38   0 314.562 288.266   1
  -4 -38   0 208.011 185.914   3
  -4 -38  -1 29.1166 251.699   3
  -4 -38  -1 282.642 174.021   1
  -4 -38  -2-167.400 342.703   1
  -4 -38  -2-251.943 266.215   3
  -4 -38  -3 146.645 239.918   3
  -4 -38  -4 148.041 196.642   3
   4 -38   6 81.9776 262.224   1
   4 -38   7 72.0097 182.153   1
  -4 -37   5 522.226 446.392   1
  -4 -37   5 21.8006 156.889   3
  -4 -37   4-230.662 93.4886   1
  -4 -37   4 227.473 254.978   3
  -4 -37   3 26.7754 194.922   3
  -4 -37   3 133.445 217.461   1
  -4 -37   2-44.8115 186.065   3
  -4 -37   2 166.871 256.229   1
  -4 -37   1-11.3372 300.589   3
  -4 -37   1 73.3902 285.122   1
  -4 -37   0 114.096 228.828   3
  -4 -37   0 285.018 389.423   1
  -4 -37  -1 128.923 61.2153   1
  -4 -37  -1 161.422 194.757   3
  -4 -37  -2 199.681 319.410   3
  -4 -37  -2 197.015 113.168   1
  -4 -37  -3-97.7418 163.571   3
  -4 -37  -4 166.596 347.616   3
  -4 -37  -5 103.046 275.076   3
   4 -37   6 344.931 298.579   1
   4 -37   7 203.518 271.365   1
   4 -37   8 170.916 81.4483   1
  -4 -36   6 118.634 266.412   1
  -4 -36   5-35.0768 65.9465   1
  -4 -36   5 176.161 232.183   3
  -4 -36   4-74.8979 187.510   1
  -4 -36   4 189.212 222.930   3
  -4 -36   3 21.2986 136.733   1
  -4 -36   3-223.873 88.5361   3
  -4 -36   2 53.5072 197.925   3
  -4 -36   2 69.0366 275.272   1
  -4 -36   1 226.207 308.236   1
  -4 -36   1-42.4433 88.9299   3
  -4 -36   0 53.9090 134.571   3
  -4 -36   0-10.4808 229.642   1
  -4 -36  -1 25.6768 150.388   1
  -4 -36  -1 107.977 78.4659   3
  -4 -36  -2-210.964 169.293   3
  -4 -36  -2 47.7796 217.608   1
  -4 -36  -3 154.990 330.633   3
  -4 -36  -4 405.252 340.869   3
  -4 -36  -5 412.027 405.933   3
  -4 -36  -6-118.636 158.588   3
   4 -36   6 57.3496 160.805   1
   4 -36   7-19.6775 189.030   1
   4 -36   8 155.148 170.534   1
  -4 -35   7 403.369 393.645   1
  -4 -35   6 272.816 338.976   1
  -4 -35   6 289.226 286.640   3
  -4 -35   5 204.152 299.090   3
  -4 -35   5 348.162 384.762   1
  -4 -35   4 154.352 269.198   1
  -4 -35   4 297.965 211.773   3
  -4 -35   3-164.790 231.429   3
  -4 -35   3 35.5856 102.014   1
  -4 -35   2 42.9325 169.345   1
  -4 -35   2-102.031 93.2579   3
  -4 -35   1 301.791 320.116   3
  -4 -35   1 484.611 224.116   1
  -4 -35   0-73.3594 62.6830   3
  -4 -35   0 97.2279 78.1581   1
  -4 -35  -1 215.726 171.546   1
  -4 -35  -1 189.366 182.636   3
  -4 -35  -2-88.5275 288.596   3
  -4 -35  -2 37.5851 131.095   1
  -4 -35  -3 134.362 98.2445   3
  -4 -35  -4 86.3266 116.872   3
  -4 -35  -5 118.255 225.216   3
  -4 -35  -6 76.0708 322.339   3
   4 -35   6 118.466 226.818   1
   4 -35   7 406.404 383.697   1
   4 -35   8-434.746 371.068   1
  -4 -34   8 56.8485 213.805   1
  -4 -34   7 335.734 308.731   1
  -4 -34   6-16.1457 142.407   3
  -4 -34   6 105.851 222.090   1
  -4 -34   5 61.6746 175.736   3
  -4 -34   5-32.7123 186.935   1
  -4 -34   4 15.3604 286.195   1
  -4 -34   4-103.367 137.315   3
  -4 -34   3 601.678 501.084   1
  -4 -34   3 254.688 272.944   3
  -4 -34   2 196.791 266.551   1
  -4 -34   2 38.2138 142.050   3
  -4 -34   1 101.802 85.6336   1
  -4 -34   1-148.125 274.515   3
  -4 -34   0 281.220 155.043   3
  -4 -34   0 290.342 255.286   1
  -4 -34  -1 162.734 340.801   1
  -4 -34  -1-50.7780 155.160   3
  -4 -34  -2 44.9710 79.9620   3
  -4 -34  -3 302.244 196.484   3
  -4 -34  -4 167.463 235.674   3
  -4 -34  -5 371.561 273.261   3
   4 -34   6 237.242 294.900   1
  -4 -34  -6-70.5575 231.549   3
  -4 -34  -7-79.2042 277.807   3
   4 -34   7-90.8596 77.0269   1
   4 -34   8 42.3310 169.880   1
  -4 -33   9 316.126 287.057   1
  -4 -33   8-189.195 244.849   1
  -4 -33   7 237.184 376.590   1
  -4 -33   6 200.499 142.141   3
  -4 -33   6 515.233 378.303   1
  -4 -33   5-14.6529 176.438   1
  -4 -33   5 98.7477 212.271   3
  -4 -33   4-231.038 320.264   1
  -4 -33   4 73.3354 205.235   3
  -4 -33   3 395.732 260.145   3
  -4 -33   3 287.867 160.290   1
  -4 -33   2 345.169 318.866   1
  -4 -33   2-130.733 81.8207   3
  -4 -33   1 62.5698 203.689   1
  -4 -33   1-9.03401 159.050   3
  -4 -33   0 290.448 264.512   3
  -4 -33   0 283.137 349.401   1
  -4 -33  -1 167.964 182.300   3
  -4 -33  -1 329.493 325.838   1
  -4 -33  -2 87.1528 181.180   3
  -4 -33  -3 36.1656 184.979   3
  -4 -33  -4 200.838 258.849   3
  -4 -33  -5-302.795 293.030   3
  -4 -33  -6-430.067 267.094   3
   4 -33   6 140.129 253.125   1
  -4 -33  -7-39.8552 185.855   3
   4 -33   7 55.1574 195.867   1
   4 -33   8 196.824 263.844   1
  -4 -32   9 189.940 335.677   1
  -4 -32   8-57.5932 170.706   1
  -4 -32   7 231.437 289.796   3
  -4 -32   7 253.573 323.890   1
  -4 -32   6 49.2932 201.125   3
  -4 -32   6-244.235 232.052   1
  -4 -32   5-253.509 200.485   3
  -4 -32   5-440.089 379.319   1
  -4 -32   4-426.628 352.102   1
  -4 -32   4 68.8525 118.387   3
  -4 -32   3 35.3430 77.9581   3
  -4 -32   3 187.525 179.890   1
  -4 -32   2 242.890 217.426   1
  -4 -32   2-6.30923 85.1344   3
  -4 -32   1-33.6376 167.796   1
  -4 -32   1-48.1257 173.769   3
  -4 -32   0 155.820 158.466   1
  -4 -32   0-4.22214 150.345   3
  -4 -32  -1 543.780 416.727   3
  -4 -32  -1 217.858 204.173   1
  -4 -32  -2 81.3032 199.489   3
  -4 -32  -3 360.191 310.335   3
  -4 -32  -4 121.265 155.993   3
  -4 -32  -5 64.7506 195.291   3
  -4 -32  -6 68.0482 283.896   3
   4 -32   7-5.42215 101.071   1
  -4 -32  -7 198.449 276.220   3
   4 -32   8 76.0093 42.0813   1
  -4 -32  -8 259.480 300.573   3
  -4 -31  10-244.345 201.822   1
  -4 -31   9 161.181 389.200   1
  -4 -31   8-64.5232 133.919   1
  -4 -31   7-0.79299 204.207   3
  -4 -31   7 85.4920 223.364   1
  -4 -31   6 509.586 406.983   1
  -4 -31   6 237.142 263.348   3
  -4 -31   5 150.651 160.465   3
  -4 -31   5 233.496 153.533   1
  -4 -31   4 74.4820 94.6287   1
  -4 -31   4 53.9058 125.871   3
  -4 -31   3-132.496 148.592   1
  -4 -31   3 105.000 147.082   3
  -4 -31   2 124.501 263.361   3
  -4 -31   2 3.00767 203.150   1
  -4 -31   1-90.5555 109.833   3
  -4 -31   1 176.051 180.658   1
  -4 -31   0 169.518 194.694   3
  -4 -31   0 265.620 199.519   1
  -4 -31  -1 180.422 169.946   3
  -4 -31  -1 157.381 160.517   1
  -4 -31  -2 117.072 115.859   3
  -4 -31  -3-31.7692 146.099   3
  -4 -31  -4 160.757 191.655   3
  -4 -31  -5-148.418 120.218   3
  -4 -31  -6 79.3946 248.049   3
  -4 -31  -7-43.1289 166.848   3
   4 -31   7-5.06620 133.472   1
  -4 -31  -8 558.454 444.793   3
   4 -31   8 52.1921 105.905   1
  -4 -31  -9-308.587 132.080   3
  -4 -30  10-99.4438 117.081   1
  -4 -30   9-120.449 58.7646   1
  -4 -30   8 455.124 393.362   3
  -4 -30   8 153.051 174.725   1
  -4 -30   7 238.348 270.953   3
  -4 -30   7 191.306 231.413   1
  -4 -30   6 25.9198 92.7925   1
  -4 -30   6 92.9712 162.460   3
  -4 -30   5 109.338 12.6685   1
  -4 -30   5 56.7367 67.3153   3
  -4 -30   4 489.713 395.190   1
  -4 -30   4-31.1470 179.539   3
  -4 -30   3-92.5393 218.085   1
  -4 -30   3-37.0792 131.349   3
  -4 -30   2 193.978 180.850   3
  -4 -30   2 90.2331 228.523   1
  -4 -30   1 200.077 234.915   1
  -4 -30   1 114.450 160.354   3
  -4 -30   0 66.1386 58.0672   1
  -4 -30   0 291.585 255.315   3
  -4 -30  -1 159.541 150.877   3
  -4 -30  -1-141.266 97.7889   1
  -4 -30  -2 284.944 268.697   3
  -4 -30  -3 160.259 209.764   3
  -4 -30  -4 55.9726 225.998   3
  -4 -30  -5 240.122 167.172   3
  -4 -30  -6-144.475 202.917   3
  -4 -30  -7 53.6843 201.177   3
   4 -30   7-22.0189 43.5340   1
   4 -30   8 393.694 345.503   1
  -4 -30  -8 15.4367 166.252   3
  -4 -30  -9-120.615 287.400   3
  -4 -29  11 227.443 203.817   1
  -4 -29  10-118.043 202.488   1
  -4 -29   9-32.2216 142.160   1
  -4 -29   8 28.4135 13.3183   1
  -4 -29   7 73.7694 238.351   1
  -4 -29   7 130.009 274.698   3
  -4 -29   6 406.947 306.863   3
  -4 -29   6 229.166 183.751   1
  -4 -29   5 24.2640 163.607   1
  -4 -29   5 134.522 167.674   3
  -4 -29   4 92.0470 84.4314   1
  -4 -29   4 115.817 203.088   3
  -4 -29   3-35.3713 127.504   3
  -4 -29   3-31.4451 162.229   1
  -4 -29   2 435.082 325.603   1
  -4 -29   2 88.3684 76.5418   3
  -4 -29   1 372.387 318.060   1
  -4 -29   1 263.535 217.209   3
  -4 -29   0-1.39248 73.5979   1
  -4 -29   0 33.0052 200.415   3
  -4 -29  -1 122.140 195.534   1
  -4 -29  -1 250.997 213.267   3
  -4 -29  -2 175.683 171.668   3
  -4 -29  -3 27.6468 144.106   3
  -4 -29  -4-184.462 183.686   3
  -4 -29  -5 119.394 99.0514   3
  -4 -29  -6 420.050 361.995   3
  -4 -29  -7 44.1182 219.681   3
   4 -29   7 186.498 196.215   1
  -4 -29  -8 875.687 534.110   3
   4 -29   8 247.402 254.188   1
  -4 -29  -9 210.389 315.938   3
  -4 -29 -10 458.743 505.117   3
  -4 -28  11-38.1751 290.106   1
  -4 -28  10 140.957 255.382   1
  -4 -28   9-9.57458 303.460   1
  -4 -28   8 47.6865 96.4251   1
  -4 -28   7 228.524 308.293   1
  -4 -28   6 405.314 281.027   3
  -4 -28   6 208.932 238.000   1
  -4 -28   5 119.252 182.565   1
  -4 -28   5-183.424 156.295   3
  -4 -28   4 237.963 267.653   1
  -4 -28   4 9.16943 115.160   3
  -4 -28   3 106.780 210.360   3
  -4 -28   3-226.311 202.514   1
  -4 -28   2 45.5665 137.371   3
  -4 -28   2 21.3864 134.112   1
  -4 -28   1 418.727 273.960   1
  -4 -28   1 462.107 331.225   3
  -4 -28   0 62.6190 172.842   1
  -4 -28   0 82.6098 70.9205   3
  -4 -28  -1 252.589 193.362   1
  -4 -28  -1 64.6335 130.411   3
  -4 -28  -2 101.639 193.143   3
  -4 -28  -3-18.0253 89.7411   3
  -4 -28  -4-32.1835 156.478   3
  -4 -28  -5-13.3663 134.103   3
  -4 -28  -6-108.466 244.057   3
  -4 -28  -7-166.382 256.210   3
   4 -28   7-51.0629 97.1292   1
   4 -28   8 2.78373 151.499   1
  -4 -28  -8-15.5883 189.244   3
  -4 -28  -9 191.101 192.838   3
  -4 -28 -10-43.2367 134.288   3
  -4 -27  12-133.660 236.061   1
  -4 -27  11 99.6721 122.450   1
  -4 -27  10-160.972 73.0803   1
  -4 -27   9-67.7631 170.328   1
  -4 -27   8-398.301 250.074   1
  -4 -27   7-237.901 278.106   1
  -4 -27   6-105.308 217.039   1
  -4 -27   5 179.227 184.276   1
  -4 -27   5 172.216 221.500   3
  -4 -27   4 41.6375 57.6178   1
  -4 -27   4 154.800 170.417   3
  -4 -27   3 158.397 155.795   1
  -4 -27   3 186.075 212.313   3
  -4 -27   2 179.860 181.503   1
  -4 -27   2 162.341 221.403   3
  -4 -27   1 139.270 169.375   1
  -4 -27   1-33.0507 86.7423   3
  -4 -27   0 600.706 325.615   1
  -4 -27   0 511.998 310.550   3
  -4 -27  -1 218.577 231.730   1
  -4 -27  -1-77.7276 109.775   3
  -4 -27  -2 590.744 302.211   3
  -4 -27  -3-121.939 136.898   3
  -4 -27  -4 84.9391 80.7444   3
  -4 -27  -5 307.117 226.220   3
  -4 -27  -6 18.8448 106.414   3
  -4 -27  -7-159.837 153.350   3
   4 -27   7-154.318 150.415   1
  -4 -27  -8-149.144 232.393   3
   4 -27   8 108.099 94.9615   1
  -4 -27  -9 14.3505 218.558   3
   4 -27   9-167.472 257.403   1
  -4 -27 -10 10.6840 118.858   3
  -4 -27 -11-11.6686 71.3695   3
  -4 -26  12 488.312 482.470   1
  -4 -26  11 223.705 281.535   1
  -4 -26  10 10.7106 106.960   1
  -4 -26   9-102.467 157.765   1
  -4 -26   8 148.260 230.372   1
  -4 -26   7 195.858 234.741   1
  -4 -26   6-134.442 288.056   1
  -4 -26   5-120.059 131.050   1
  -4 -26   5 150.651 225.676   3
  -4 -26   4 92.8536 106.133   1
  -4 -26   4 19.4052 132.909   3
  -4 -26   3 142.025 186.308   1
  -4 -26   3 318.544 245.479   3
  -4 -26   2 102.799 114.435   1
  -4 -26   2 207.561 211.096   3
  -4 -26   1-1.04652 112.333   3
  -4 -26   1 74.4922 110.806   1
  -4 -26   0 773.400 338.436   1
  -4 -26   0 692.208 352.971   3
  -4 -26  -1 92.5388 118.657   1
  -4 -26  -1 58.3754 129.805   3
  -4 -26  -2-297.730 250.108   3
  -4 -26  -3 32.1224 101.903   3
  -4 -26  -4-28.4513 130.498   3
  -4 -26  -5 628.858 346.566   3
  -4 -26  -6-9.84476 47.2680   3
   4 -26   7 343.466 242.455   1
  -4 -26  -7 93.3375 105.675   3
  -4 -26  -8 246.078 220.000   3
   4 -26   8 118.487 238.398   1
  -4 -26  -9-209.025 216.587   3
   4 -26   9-51.6848 160.018   1
  -4 -26 -10 43.0557 93.4999   3
  -4 -26 -11 35.1335 231.934   3
  -4 -25  13 199.773 256.182   1
  -4 -25  12 588.921 462.339   1
  -4 -25  11 255.141 236.983   1
  -4 -25  10 296.269 386.938   1
  -4 -25   9 164.816 227.274   1
  -4 -25   8-29.8987 132.732   1
  -4 -25   7 246.956 236.014   1
  -4 -25   6 77.4913 99.0098   1
  -4 -25   5 130.919 269.610   1
  -4 -25   4 340.724 241.933   1
  -4 -25   4 183.794 217.578   3
  -4 -25   3-3.98518 44.6765   3
  -4 -25   3-100.181 147.309   1
  -4 -25   2 122.552 153.987   3
  -4 -25   2 354.648 234.530   1
  -4 -25   1 218.659 169.419   1
  -4 -25   1 483.783 258.003   3
  -4 -25   0 247.594 228.690   1
  -4 -25   0 284.704 258.783   3
  -4 -25  -1 123.103 63.8079   1
  -4 -25  -1 43.4210 153.914   3
  -4 -25  -2 99.6739 105.684   3
  -4 -25  -3 182.772 200.661   3
  -4 -25  -4 19.1358 157.111   3
  -4 -25  -5-25.5293 148.356   3
  -4 -25  -6 45.9790 169.235   3
  -4 -25  -7-203.979 205.346   3
   4 -25   7 148.434 171.553   1
   4 -25   8 111.941 142.516   1
  -4 -25  -8 126.906 224.759   3
   4 -25   9 160.024 79.6420   1
  -4 -25  -9 280.855 311.905   3
  -4 -25 -10 208.125 271.102   3
  -4 -25 -11 305.010 343.705   3
  -4 -24  13-467.967 321.806   1
  -4 -24  12 619.738 466.133   1
  -4 -24  11 117.111 238.899   1
  -4 -24  10 96.7864 141.211   1
  -4 -24   9 158.231 199.960   1
  -4 -24   8-18.2047 131.102   1
  -4 -24   7 71.1446 56.2917   1
  -4 -24   6-40.2230 189.993   1
  -4 -24   5 164.272 252.044   1
  -4 -24   4 820.547 413.479   1
  -4 -24   4 833.930 387.432   3
  -4 -24   3 170.167 138.302   1
  -4 -24   3 271.093 221.811   3
  -4 -24   2 33.6209 94.6130   3
  -4 -24   2 5.69557 95.4278   1
  -4 -24   1 209.162 153.509   1
  -4 -24   1 17.0858 62.4583   3
  -4 -24   0 23.6751 102.371   1
  -4 -24   0 4.16914 42.8602   3
  -4 -24  -1 117.895 185.312   1
  -4 -24  -1 129.961 163.806   3
  -4 -24  -2-13.9081 111.829   3
  -4 -24  -3 288.598 197.027   3
  -4 -24  -4 20.9583 160.894   3
  -4 -24  -5-97.9099 163.538   3
  -4 -24  -6 522.103 318.238   3
   4 -24   7 154.986 209.448   1
  -4 -24  -7 256.535 263.754   3
  -4 -24  -8 214.352 181.516   3
   4 -24   8 211.575 201.908   1
  -4 -24  -9 3.47582 103.558   3
   4 -24   9 303.301 299.447   1
  -4 -24 -10 27.4043 139.621   3
  -4 -24 -11-72.7583 70.8794   3
  -4 -23  13-343.032 379.602   1
  -4 -23  12 110.266 286.174   1
  -4 -23  11 351.806 362.578   1
  -4 -23  10 174.409 298.514   1
  -4 -23   9 128.460 204.930   1
  -4 -23   8 163.816 193.939   1
  -4 -23   7 195.414 164.078   1
  -4 -23   6 486.916 348.821   1
  -4 -23   5 202.587 248.879   1
  -4 -23   4 258.365 223.417   1
  -4 -23   3-64.3109 117.547   1
  -4 -23   3 102.391 51.3242   3
  -4 -23   2 48.5867 44.0836   3
  -4 -23   2 30.0739 96.9449   1
  -4 -23   1 230.187 135.794   1
  -4 -23   1 336.778 215.850   3
  -4 -23   0 169.393 130.853   3
  -4 -23   0-31.3707 115.271   1
  -4 -23  -1 125.175 103.671   1
  -4 -23  -1 124.205 56.5039   3
  -4 -23  -2 62.7705 110.522   3
  -4 -23  -3 127.376 138.628   3
  -4 -23  -4 30.0383 142.363   3
  -4 -23  -5-17.0318 113.352   3
  -4 -23  -6-29.3199 106.222   3
  -4 -23  -7 247.140 232.035   3
   4 -23   7 95.8969 126.339   1
  -4 -23  -8 135.672 218.516   3
   4 -23   8-51.5093 126.422   1
   4 -23   9 94.9919 82.2585   1
  -4 -23  -9-14.4023 153.678   3
  -4 -23 -10 78.2751 114.567   3
  -4 -23 -11-286.152 308.045   3
  -4 -22  14-22.7506 175.714   1
  -4 -22  13 51.9849 246.558   1
  -4 -22  12-35.0357 182.519   1
  -4 -22  11 610.126 368.572   1
  -4 -22  10 108.360 310.380   1
  -4 -22   9-155.686 185.283   1
  -4 -22   8 296.838 297.352   1
  -4 -22   7 468.804 328.348   1
  -4 -22   6 135.822 233.860   1
  -4 -22   5 165.048 130.715   1
  -4 -22   4-101.840 150.569   1
  -4 -22   3 354.985 232.157   1
  -4 -22   3 574.949 288.653   3
  -4 -22   2 166.630 119.965   3
  -4 -22   2 453.605 252.342   1
  -4 -22   1-57.6824 145.247   1
  -4 -22   1 78.0276 197.293   3
  -4 -22   0 318.573 236.024   1
  -4 -22   0 241.026 176.691   3
  -4 -22  -1 26.3334 99.1722   1
  -4 -22  -1 212.813 204.286   3
  -4 -22  -2 62.8540 129.211   3
  -4 -22  -3 68.0551 164.572   3
  -4 -22  -4 139.048 182.905   3
  -4 -22  -5 999.381 412.708   3
  -4 -22  -6 58.7949 157.666   3
  -4 -22  -7 119.849 86.9395   3
   4 -22   7 80.7099 155.738   1
  -4 -22  -8 191.156 256.984   3
   4 -22   8 572.084 302.003   1
  -4 -22  -9 146.661 224.533   3
   4 -22   9 109.729 86.1013   1
  -4 -22 -10-52.4085 214.240   3
  -4 -22 -11-12.8602 65.0588   3
  -4 -21  14 499.818 438.186   1
  -4 -21  13 86.6972 186.185   1
  -4 -21  12-84.4607 121.956   1
  -4 -21  11-13.6486 249.312   1
  -4 -21  10 369.217 300.889   1
  -4 -21   9 88.4356 106.991   1
  -4 -21   8 112.240 182.867   1
  -4 -21   7 307.321 280.331   1
  -4 -21   6 634.977 361.014   1
  -4 -21   5 185.393 183.982   1
  -4 -21   4 438.292 280.658   1
  -4 -21   3-156.674 173.305   1
  -4 -21   2 377.977 205.664   3
  -4 -21   2 341.175 243.540   1
  -4 -21   1 141.266 115.925   3
  -4 -21   1 58.5132 114.227   1
  -4 -21   0 376.293 237.774   3
  -4 -21   0 253.497 161.644   1
  -4 -21  -1-102.721 94.5916   3
  -4 -21  -1-19.2895 109.022   1
  -4 -21  -2 34.0513 44.2519   3
  -4 -21  -3 80.2740 123.414   3
  -4 -21  -4 10.5740 100.655   3
  -4 -21  -5-81.9254 174.703   3
  -4 -21  -6-178.992 262.135   3
  -4 -21  -7 414.987 256.817   3
   4 -21   7 208.306 215.080   1
  -4 -21  -8 193.104 202.640   3
   4 -21   8-151.694 188.028   1
  -4 -21  -9 174.381 217.408   3
   4 -21   9 82.4063 166.277   1
  -4 -21 -10 164.905 261.847   3
  -4 -21 -11 194.699 245.005   3
  -4 -20  14 146.132 206.473   1
  -4 -20  13-140.018 222.796   1
  -4 -20  12 50.4970 189.900   1
  -4 -20  11 130.171 40.8985   1
  -4 -20  10-113.002 93.4329   1
  -4 -20   9 3.31070 106.516   1
  -4 -20   8-117.806 66.1532   1
  -4 -20   7 212.403 233.685   1
  -4 -20   6-55.7005 143.108   1
  -4 -20   5-44.8054 126.697   1
  -4 -20   4 429.451 240.146   1
  -4 -20   3-16.2248 167.384   1
  -4 -20   2 487.612 269.438   3
  -4 -20   2 29.2668 94.6762   1
  -4 -20   1 1233.76 409.613   1
  -4 -20   1 1432.41 436.054   3
  -4 -20   0 44.4134 18.8346   3
  -4 -20   0 256.986 158.304   1
  -4 -20  -1 85.9763 92.3847   1
  -4 -20  -1 48.9823 83.4984   3
  -4 -20  -2 7.65265 49.9097   3
  -4 -20  -3 188.053 149.540   3
  -4 -20  -4 498.238 316.952   3
  -4 -20  -5-127.377 141.677   3
  -4 -20  -6 717.321 349.876   3
  -4 -20  -7-13.9690 134.136   3
   4 -20   7-126.701 104.787   1
   4 -20   8-53.3113 99.2151   1
  -4 -20  -8 120.107 184.013   3
  -4 -20  -9 464.777 263.017   3
   4 -20   9 28.9368 94.6639   1
  -4 -20 -10-16.3632 75.7509   3
  -4 -20 -11 355.968 304.508   3
  -4 -19  15 262.219 164.518   1
  -4 -19  14-18.8912 183.197   1
  -4 -19  13-7.13066 182.074   1
  -4 -19  12 185.320 69.4806   1
  -4 -19  11-3.36985 176.466   1
  -4 -19  10 101.471 227.499   1
  -4 -19   9 237.594 218.296   1
  -4 -19   8 196.367 213.050   1
  -4 -19   7 583.607 352.813   1
  -4 -19   6-79.6452 131.458   1
  -4 -19   5 666.571 314.436   1
  -4 -19   4-146.327 115.549   1
  -4 -19   3-2.32211 103.461   1
  -4 -19   2-105.124 185.337   1
  -4 -19   1 1061.69 356.165   3
  -4 -19   1 1047.14 359.700   1
  -4 -19   0 68.8715 127.139   3
  -4 -19   0 135.771 153.448   1
  -4 -19  -1-21.4292 33.5638   1
  -4 -19  -1 183.341 150.707   3
  -4 -19  -2 213.335 217.791   3
  -4 -19  -3 339.194 228.273   3
  -4 -19  -4 75.1708 177.721   3
  -4 -19  -5-173.389 148.789   3
  -4 -19  -6 39.7657 96.3400   3
   4 -19   7 96.1969 115.535   1
  -4 -19  -7-6.94233 118.779   3
  -4 -19  -8 86.5090 177.459   3
   4 -19   8 39.6675 32.3440   1
  -4 -19  -9 149.948 215.566   3
   4 -19   9-40.9561 102.614   1
  -4 -19 -10 64.4456 206.264   3
  -4 -19 -11 203.445 188.184   3
  -4 -18  15-228.516 268.687   1
  -4 -18  14 116.736 290.834   1
  -4 -18  13-105.755 110.839   1
  -4 -18  12 106.320 162.544   1
  -4 -18  11 61.8668 244.415   1
  -4 -18  10-26.2798 140.481   1
  -4 -18   9 68.0221 166.342   1
  -4 -18   8 443.629 289.830   1
  -4 -18   7-95.2616 158.092   1
  -4 -18   6 90.5964 149.611   1
  -4 -18   5 27.1295 136.105   1
  -4 -18   4 185.405 173.071   1
  -4 -18   3 244.149 197.530   1
  -4 -18   2 634.119 277.622   1
  -4 -18   1 45.2122 106.816   3
  -4 -18   1 24.2038 33.9687   1
  -4 -18   0 884.781 315.290   1
  -4 -18   0 639.166 270.537   3
  -4 -18  -1 81.6376 65.5976   1
  -4 -18  -1 76.3138 122.961   3
  -4 -18  -2 88.1508 88.9435   3
  -4 -18  -3 273.921 195.953   3
  -4 -18  -4 393.797 250.891   3
  -4 -18  -5 380.395 212.680   3
  -4 -18  -6-105.503 167.714   3
   4 -18   7 157.923 132.310   1
  -4 -18  -7 138.452 201.616   3
   4 -18   8 39.5556 154.352   1
  -4 -18  -8-6.31561 96.5674   3
  -4 -18  -9 220.685 223.647   3
   4 -18   9 80.4468 85.2746   1
  -4 -18 -10 58.7289 133.242   3
  -4 -17  15-345.182 442.575   1
  -4 -17  14 431.358 382.078   1
  -4 -17  13-125.115 210.639   1
  -4 -17  12 18.5768 99.1730   1
  -4 -17  11 255.944 269.446   1
  -4 -17  10 321.906 254.689   1
  -4 -17   9 67.1672 177.387   1
  -4 -17   8 40.7928 153.407   1
  -4 -17   7 2.76036 63.2619   1
  -4 -17   6 614.877 290.563   1
  -4 -17   5 90.0808 172.241   1
  -4 -17   4 683.972 312.902   1
  -4 -17   3 65.4489 70.1032   1
  -4 -17   2 821.065 320.810   1
  -4 -17   1 5.71967 94.2386   1
  -4 -17   1 68.1458 130.808   3
  -4 -17   0 1942.54 471.001   3
  -4 -17   0 2051.80 470.244   1
  -4 -17  -1 201.456 165.509   3
  -4 -17  -1 52.0885 61.0776   1
  -4 -17  -2 1.64722 139.494   3
  -4 -17  -3 40.2381 113.552   3
  -4 -17  -4 346.173 211.660   3
  -4 -17  -5-1.28762 58.5531   3
  -4 -17  -6-165.574 114.242   3
   4 -17   7 22.9488 48.3766   1
  -4 -17  -7 273.962 252.814   3
   4 -17   8 18.3523 99.4186   1
  -4 -17  -8 170.997 200.013   3
  -4 -17  -9 179.832 189.454   3
   4 -17   9 73.8345 165.556   1
  -4 -17 -10-33.1476 81.6603   3
  -4 -16  15-252.212 381.979   1
  -4 -16  14 144.796 316.358   1
  -4 -16  13 97.5920 222.805   1
  -4 -16  12-80.2709 110.971   1
  -4 -16  11-76.8826 131.934   1
  -4 -16  10 105.292 273.717   1
  -4 -16   9 196.300 224.841   1
  -4 -16   8 359.735 262.541   1
  -4 -16   7 517.341 326.372   1
  -4 -16   6-55.2498 131.628   1
  -4 -16   5 48.4490 73.3425   1
  -4 -16   4-142.178 101.769   1
  -4 -16   3 9.64668 72.6899   1
  -4 -16   2 158.348 135.191   1
  -4 -16   1 1788.05 419.726   1
  -4 -16   0 5.58349 74.7417   1
  -4 -16   0 23.2839 24.2612   3
  -4 -16  -1 1620.82 387.452   1
  -4 -16  -1 1415.36 413.452   3
  -4 -16  -2 171.190 152.610   3
  -4 -16  -3-93.4264 124.848   3
  -4 -16  -4 101.190 84.7730   3
  -4 -16  -5 684.175 285.599   3
   4 -16   6 384.905 200.214   1
  -4 -16  -6 83.8202 12.2365   3
  -4 -16  -7 219.639 177.774   3
   4 -16   7 87.4293 88.1808   1
  -4 -16  -8-4.11726 94.7385   3
   4 -16   8 51.5749 106.553   1
   4 -16   9 152.467 29.0408   1
  -4 -16  -9 235.740 158.568   3
  -4 -16 -10 52.7476 154.849   3
  -4 -15  15-28.8693 217.123   1
  -4 -15  14 345.105 365.964   1
  -4 -15  13 177.077 132.011   1
  -4 -15  12 292.328 326.099   1
  -4 -15  11 400.095 293.605   1
  -4 -15  10 618.560 334.591   1
  -4 -15   9 68.5785 119.480   1
  -4 -15   8-310.769 200.344   1
  -4 -15   7-5.35352 120.206   1
  -4 -15   6 260.465 180.098   1
  -4 -15   5 225.783 223.790   1
  -4 -15   4 37.4590 80.6342   1
  -4 -15   3 196.910 188.758   1
  -4 -15   2 171.797 136.844   1
  -4 -15   1 49.9300 64.0193   1
  -4 -15   0 71.3760 128.932   1
  -4 -15   0 103.368 169.318   3
  -4 -15  -1 256.477 143.404   3
  -4 -15  -1 132.187 116.851   1
  -4 -15  -2-21.8665 91.2725   1
  -4 -15  -2 96.3313 142.197   3
  -4 -15  -3 126.203 161.750   3
  -4 -15  -4-116.154 178.852   3
  -4 -15  -5-120.723 149.268   3
  -4 -15  -6 109.819 136.349   3
   4 -15   6-7.74331 48.2607   1
  -4 -15  -7-163.145 171.298   3
   4 -15   7 100.162 130.381   1
  -4 -15  -8 211.100 216.249   3
   4 -15   8 34.7358 72.0621   1
   4 -15   9 34.0360 105.485   1
  -4 -15  -9 110.341 164.713   3
  -4 -15 -10 130.449 160.240   3
  -4 -14  15 296.820 294.154   1
  -4 -14  14 268.295 291.844   1
  -4 -14  13 194.234 301.951   1
  -4 -14  12 256.274 303.924   1
  -4 -14  11-65.2816 50.6312   1
  -4 -14  10 54.1031 169.485   1
  -4 -14   9 42.0786 156.710   1
  -4 -14   8 159.460 143.305   1
  -4 -14   7 153.078 140.743   1
  -4 -14   6 74.4664 87.1478   1
  -4 -14   5 352.460 215.885   1
  -4 -14   4 194.174 135.274   1
  -4 -14   3 106.642 44.8990   1
  -4 -14   2-119.463 113.677   1
  -4 -14   1-1.85196 46.6676   1
  -4 -14   0 1875.55 437.605   3
  -4 -14   0 1891.55 416.602   1
  -4 -14  -1 167.814 135.020   1
  -4 -14  -1 301.602 207.699   3
  -4 -14  -2 788.117 260.564   1
  -4 -14  -2 599.264 274.953   3
  -4 -14  -3 489.089 235.989   3
  -4 -14  -4 315.024 203.803   3
  -4 -14  -5-40.4209 97.0144   3
  -4 -14  -6 598.522 274.564   3
   4 -14   6 832.833 259.714   1
  -4 -14  -7 59.0177 122.176   3
   4 -14   7 55.4208 45.5184   1
  -4 -14  -8 55.7067 110.936   3
  -4 -14  -8 270.737 147.132   1
   4 -14   8 347.633 196.058   1
   4 -14   9 126.836 121.919   1
  -4 -14  -9-94.4612 73.3883   3
  -4 -14 -10 227.858 169.275   3
  -4 -13  15 345.767 360.183   1
  -4 -13  14-78.2719 110.637   1
  -4 -13  13 49.5730 181.232   1
  -4 -13  12 41.7990 110.172   1
  -4 -13  11 149.037 60.1706   1
  -4 -13  10-92.9285 120.279   1
  -4 -13   9 613.564 351.445   1
  -4 -13   8 439.587 287.845   1
  -4 -13   7 740.449 316.382   1
  -4 -13   6 120.936 124.629   1
  -4 -13   5 1620.99 452.738   1
  -4 -13   4 77.3428 59.6681   1
  -4 -13   3 79.3354 39.3405   1
  -4 -13   2 148.376 74.4837   1
  -4 -13   1 4664.78 633.822   1
  -4 -13   0 595.955 200.307   1
  -4 -13  -1 23.1716 111.327   1
  -4 -13  -1 177.776 170.277   3
  -4 -13  -2-120.400 135.646   3
  -4 -13  -2 114.025 62.2387   1
  -4 -13  -3 401.183 212.988   3
  -4 -13  -4 30.1397 87.1449   3
  -4 -13  -5 65.4609 92.3349   3
  -4 -13  -6 14.0464 92.1518   3
   4 -13   6 21.5013 74.9502   1
  -4 -13  -7 178.163 192.602   3
   4 -13   7 255.183 126.492   1
  -4 -13  -8 194.324 106.146   1
  -4 -13  -8 320.137 233.891   3
   4 -13   8 202.347 120.840   1
   4 -13   9 66.8354 91.8587   1
  -4 -13  -9 22.8914 38.3256   3
  -4 -13 -10-2.53581 108.840   3
  -4 -12  15 128.922 221.764   1
  -4 -12  14-2.21980 206.407   1
  -4 -12  13 174.654 201.923   1
  -4 -12  12 233.914 230.171   1
  -4 -12  11-79.3593 171.566   1
  -4 -12  10-158.217 126.792   1
  -4 -12   9 21.0787 113.860   1
  -4 -12   8 87.8912 161.509   1
  -4 -12   7 173.251 114.805   1
  -4 -12   6 90.0787 72.7858   1
  -4 -12   5 7.52353 89.8548   1
  -4 -12   4 470.495 231.747   1
  -4 -12   3 6.68982 104.368   1
  -4 -12   2 213.687 129.137   1
  -4 -12   1 379.198 146.896   1
  -4 -12   0 474.124 201.808   1
  -4 -12  -1 1634.49 398.018   3
  -4 -12  -1 1474.85 323.766   1
  -4 -12  -2-9.40659 47.8859   1
  -4 -12  -2 71.1990 67.6114   3
  -4 -12  -3-126.085 78.7942   3
  -4 -12  -4 924.124 304.986   3
  -4 -12  -5 938.392 322.584   3
   4 -12   6 93.4337 66.3801   1
  -4 -12  -6 134.994 86.1674   3
  -4 -12  -7 105.233 136.627   3
   4 -12   7 138.324 113.679   1
  -4 -12  -8 261.044 200.894   3
   4 -12   8 157.283 48.9000   1
  -4 -12  -8 100.813 79.5690   1
   4 -12   9 671.048 222.067   1
  -4 -12  -9 595.279 288.318   3
  -4 -12 -10-108.003 186.900   3
  -4 -11  15 352.929 345.170   1
  -4 -11  14 74.6885 286.890   1
  -4 -11  13 298.532 298.754   1
  -4 -11  12 73.3602 159.749   1
  -4 -11  11 7.50608 157.615   1
  -4 -11  10 38.2491 31.8583   1
  -4 -11   9-124.593 208.732   1
  -4 -11   8 73.7999 172.149   1
  -4 -11   7 230.438 53.6947   1
  -4 -11   6 1341.29 421.508   1
  -4 -11   5 133.693 149.583   1
  -4 -11   4 1099.36 370.748   1
  -4 -11   3 437.487 201.843   1
  -4 -11   2 1938.68 389.756   1
  -4 -11   1 274.633 75.5042   1
  -4 -11   0 2365.39 406.219   1
  -4 -11  -1 430.403 167.632   1
  -4 -11  -1 406.547 179.090   3
  -4 -11  -2 95.4069 128.998   3
  -4 -11  -2 55.2885 46.6150   1
  -4 -11  -3-49.9962 78.9989   3
  -4 -11  -3 87.8002 80.9520   1
  -4 -11  -4 654.805 250.672   3
  -4 -11  -5 65.5420 34.3966   3
   4 -11   6-26.8547 41.5583   1
  -4 -11  -6-56.8436 62.4163   3
  -4 -11  -7 47.5249 124.598   3
   4 -11   7 88.8738 74.0367   1
  -4 -11  -8 645.116 307.299   3
   4 -11   8 488.032 191.475   1
  -4 -11  -8 451.019 150.550   1
  -4 -11  -9 73.8775 128.561   3
   4 -11   9 137.127 126.307   1
  -4 -11 -10 10.8448 98.4605   3
  -4 -10  15 180.214 393.991   1
  -4 -10  14 184.691 142.918   1
  -4 -10  13-47.6757 162.394   1
  -4 -10  12-47.2591 149.251   1
  -4 -10  11 329.846 327.949   1
  -4 -10  10-10.2102 87.6622   1
  -4 -10   9 192.961 190.727   1
  -4 -10   8-62.0878 146.027   1
  -4 -10   7-103.681 211.112   1
  -4 -10   6 11.6690 84.7387   1
  -4 -10   5 47.2392 100.238   1
  -4 -10   4-70.8625 82.0249   1
  -4 -10   3 1241.44 340.352   1
  -4 -10   2 385.447 167.983   1
  -4 -10   1 45.6481 24.6163   1
  -4 -10   0 927.976 254.734   1
  -4 -10  -1 344.009 145.439   1
  -4 -10  -1 444.740 224.247   3
  -4 -10  -2-2.19726 14.1298   1
  -4 -10  -2 22.3683 62.9051   3
  -4 -10  -3 277.407 114.582   1
  -4 -10  -3 289.635 169.776   3
  -4 -10  -4 408.885 218.078   3
  -4 -10  -5 1175.67 343.549   3
  -4 -10  -6 114.968 146.205   3
   4 -10   6-16.4233 39.7363   1
  -4 -10  -7-32.6187 73.0935   3
   4 -10   7 230.821 98.9043   1
  -4 -10  -7 189.481 83.4263   1
   4 -10   8 128.288 62.4712   1
  -4 -10  -8 57.6418 94.1583   3
  -4 -10  -8 120.259 89.8811   1
  -4 -10  -9 106.499 103.609   3
   4 -10   9 298.394 172.053   1
  -4  -9  15 348.505 171.286   1
  -4  -9  14-191.797 250.923   1
  -4  -9  13 220.969 192.591   1
  -4  -9  12 223.884 250.480   1
  -4  -9  11 364.639 230.867   1
  -4  -9  10 325.987 276.918   1
  -4  -9   9-94.2576 93.4723   1
  -4  -9   8 144.332 196.017   1
  -4  -9   7 80.3798 89.5967   1
  -4  -9   6 132.874 114.989   1
  -4  -9   5 1670.55 445.261   1
  -4  -9   4 20.1487 91.6776   1
   4  -9  -4 32.0505 20.7486   2
  -4  -9   3 148.813 127.072   1
  -4  -9   2 840.326 254.742   1
   4  -9  -2 870.816 252.754   1
  -4  -9   1 552.179 172.121   1
  -4  -9   0 404.581 159.034   1
  -4  -9  -1 3089.76 483.423   2
  -4  -9  -1 2802.82 405.095   1
  -4  -9  -2-58.1053 74.4044   1
  -4  -9  -2 69.6091 95.8308   3
  -4  -9  -3 78.2131 84.6522   1
  -4  -9  -3-179.429 130.513   3
  -4  -9  -4 84.3545 129.645   3
  -4  -9  -5 102.649 108.506   3
   4  -9   6 50.3004 51.3958   1
  -4  -9  -6 98.1779 94.4943   3
  -4  -9  -7 58.3355 53.6372   3
   4  -9   7-130.574 114.446   1
  -4  -9  -7 80.1775 68.4872   1
  -4  -9  -8 49.6990 59.7236   1
  -4  -9  -8 24.8818 96.0161   3
   4  -9   8 128.732 103.646   1
  -4  -9  -9-51.1872 50.2222   3
   4  -9   9 374.013 167.951   1
  -4  -8  15-145.689 196.491   1
  -4  -8  14 252.785 260.316   1
  -4  -8  13 149.571 277.844   1
  -4  -8  12 581.620 377.773   1
  -4  -8  11-33.4348 130.799   1
  -4  -8  10 154.752 212.951   1
  -4  -8   9 100.079 133.211   1
  -4  -8   8-19.4030 139.809   1
  -4  -8   7-30.8534 32.4551   1
  -4  -8   6 232.708 150.033   1
  -4  -8   5 106.781 135.758   1
  -4  -8   4 1119.12 320.299   1
  -4  -8   3 476.051 191.008   1
  -4  -8   2 125.210 118.237   1
   4  -8  -2 204.876 135.774   1
  -4  -8   1 334.858 143.305   1
   4  -8  -1 397.266 157.813   1
  -4  -8   0 1290.07 342.659   2
  -4  -8   0 818.028 220.051   1
  -4  -8  -1 61.8711 80.5006   2
  -4  -8  -1 70.3287 74.6867   1
  -4  -8  -2 407.186 147.287   1
  -4  -8  -2 351.472 116.242   2
  -4  -8  -2 295.562 139.415   3
  -4  -8  -3 108.906 128.350   3
  -4  -8  -3 113.507 68.7934   1
  -4  -8  -4 1064.47 191.334   1
  -4  -8  -4 655.963 228.166   3
  -4  -8  -5 26.8770 42.1167   3
  -4  -8  -6 1438.40 375.728   3
   4  -8   6 1625.97 265.469   1
  -4  -8  -7 365.900 116.958   1
  -4  -8  -7 407.377 194.894   3
   4  -8   7 391.203 107.305   1
  -4  -8  -8 64.3353 122.526   3
  -4  -8  -8-11.7124 19.4883   1
  -4  -8  -9 214.062 196.871   3
   4  -8   9-119.794 146.896   1
  -4  -7  15-255.104 317.634   1
  -4  -7  14 164.108 320.800   1
  -4  -7  13-14.6238 229.938   1
  -4  -7  12 119.263 249.994   1
  -4  -7  11 126.736 107.938   1
  -4  -7  10 329.479 222.022   1
  -4  -7   9-44.0854 85.8543   1
  -4  -7   8 128.414 60.9160   1
  -4  -7   7 1165.43 375.048   1
  -4  -7   6 729.869 286.588   1
  -4  -7   5 407.547 220.579   1
  -4  -7   4 75.8552 120.121   1
   4  -7  -3 714.257 211.607   1
   4  -7  -3 426.426 68.2206   2
  -4  -7   3 505.335 197.237   1
  -4  -7   2-40.3109 24.0900   1
   4  -7  -2-14.5287 14.5304   1
   4  -7  -1 2326.74 374.837   1
  -4  -7   1 2077.18 370.459   1
  -4  -7   0 1.97559 81.0436   1
  -4  -7   0 160.301 183.216   2
  -4  -7  -1 88.7455 87.2697   2
  -4  -7  -1 56.6176 69.2326   1
  -4  -7  -2-94.5256 158.765   2
  -4  -7  -2 122.331 115.059   3
  -4  -7  -2 180.533 95.3924   1
  -4  -7  -3 999.862 274.937   3
  -4  -7  -3 1122.99 189.143   1
  -4  -7  -4 33.5156 49.9437   1
  -4  -7  -4-13.9216 100.177   3
   4  -7   5-24.1125 50.5353   1
  -4  -7  -5-7.18876 42.7420   3
  -4  -7  -6 51.1788 84.4177   3
  -4  -7  -6 58.7246 51.8449   1
   4  -7   6 181.379 82.7320   1
   4  -7   7 218.389 84.4627   1
  -4  -7  -7 54.4987 47.6251   1
  -4  -7  -7 443.363 225.078   3
  -4  -7  -8-32.8262 77.9763   3
  -4  -7  -8 33.4068 44.0554   1
   4  -7   8-101.567 73.3540   1
  -4  -7  -9 27.4011 50.7896   1
  -4  -7  -9 93.9595 151.470   3
   4  -7   9-109.773 93.7544   1
  -4  -6  15 10.5813 139.484   1
  -4  -6  14 116.757 75.2965   1
  -4  -6  13 518.800 377.472   1
  -4  -6  12 11.8636 119.366   1
  -4  -6  11 84.9980 138.846   1
  -4  -6  10-63.1577 89.4917   1
  -4  -6   9 185.920 163.813   1
  -4  -6   8-64.4234 74.1976   1
  -4  -6   7-140.124 148.923   1
  -4  -6   6-22.2965 56.9099   1
  -4  -6   5 754.534 268.094   1
  -4  -6   4-37.8858 111.243   1
   4  -6  -3-23.8247 60.4909   2
  -4  -6   3 11.2607 33.7185   1
   4  -6  -3-7.02731 68.6866   1
   4  -6  -2 103.448 98.2102   1
  -4  -6   2-8.32309 92.5252   1
  -4  -6   1 29.5397 61.1907   1
   4  -6  -1-0.53741 77.6336   1
  -4  -6   0 707.787 187.122   1
  -4  -6   0 637.185 211.739   2
   4  -6   0 612.151 186.392   1
  -4  -6  -1 533.872 133.873   1
  -4  -6  -1 779.872 224.792   2
  -4  -6  -2-12.4175 45.5742   1
  -4  -6  -2 44.8595 31.9480   3
  -4  -6  -3 57.5665 59.3211   1
  -4  -6  -3 21.8645 39.4525   3
  -4  -6  -4 310.557 90.3254   1
  -4  -6  -4 400.255 177.334   3
  -4  -6  -5 2177.83 219.247   1
   4  -6   5 2511.58 263.127   1
  -4  -6  -5 2339.62 435.481   3
  -4  -6  -6 40.8887 41.3598   1
  -4  -6  -6 117.838 121.298   3
   4  -6   6-138.873 94.4576   1
  -4  -6  -7 589.260 227.262   3
  -4  -6  -7 489.601 109.063   1
   4  -6   7 719.845 161.729   1
  -4  -6  -8 110.313 112.456   3
   4  -6   8-2.67363 63.8362   1
  -4  -6  -8 107.363 58.6274   1
   4  -6   9 218.522 110.171   1
  -4  -6  -9-3.96520 14.8184   1
  -4  -6  -9 47.6805 121.093   3
  -4  -5  15 203.516 325.806   1
  -4  -5  14-192.510 220.880   1
  -4  -5  13 40.6901 215.614   1
  -4  -5  12 31.5128 57.5900   1
  -4  -5  11 81.5102 186.461   1
  -4  -5  10 342.906 221.264   1
  -4  -5   9-69.8677 130.270   1
  -4  -5   8-25.2581 86.0698   1
  -4  -5   7 67.3156 95.4672   1
  -4  -5   6 1398.88 395.895   1
  -4  -5   5 319.804 178.999   1
  -4  -5   4 43.1935 101.403   1
   4  -5  -3 183.592 110.282   1
   4  -5  -3 270.626 100.103   2
  -4  -5   3 7.42231 82.6994   1
   4  -5  -2 1357.39 289.335   1
   4  -5  -2 1090.58 167.624   2
  -4  -5   2 1175.11 281.982   1
  -4  -5   1 282.568 191.156   2
  -4  -5   1 34.7972 20.1142   1
   4  -5  -1 65.4755 105.744   1
  -4  -5   0 3279.33 453.611   2
   4  -5   0 3275.28 399.872   1
  -4  -5   0 3073.41 381.532   1
  -4  -5  -1 410.388 119.062   1
   4  -5   1 309.565 108.926   1
  -4  -5  -1 539.909 168.085   2
  -4  -5  -2 890.749 251.150   3
  -4  -5  -2 762.904 148.988   1
  -4  -5  -2 834.244 220.394   2
  -4  -5  -3 51.0396 27.3683   1
  -4  -5  -3 228.388 95.7918   3
  -4  -5  -4 389.612 165.741   3
  -4  -5  -4 365.624 83.3905   1
  -4  -5  -5-60.9972 60.3917   3
   4  -5   5-31.3868 38.4405   1
  -4  -5  -5-5.03854 8.38250   1
  -4  -5  -5-2.72656 15.1846   1
  -4  -5  -6-56.7124 54.9007   3
   4  -5   6-25.2105 34.0897   1
  -4  -5  -7 50.3266 113.362   3
  -4  -5  -7 24.7483 17.9874   1
   4  -5   8 234.706 99.0185   1
  -4  -5  -8 170.183 99.6567   3
  -4  -5  -8 91.2079 44.7398   1
   4  -5   8 96.2340 35.7979   3
  -4  -5  -9 204.736 71.2213   1
   4  -5   9 483.972 140.046   1
  -4  -4  15 658.593 435.761   1
  -4  -4  14 80.5618 212.348   1
  -4  -4  13-114.484 222.029   1
  -4  -4  12 199.608 253.903   1
  -4  -4  11 255.513 308.716   1
  -4  -4  10-189.054 173.702   1
  -4  -4   9-5.78352 101.448   1
  -4  -4   8 90.4110 62.0374   1
  -4  -4   7 486.811 234.441   1
  -4  -4   6 782.016 288.328   1
  -4  -4   5 237.554 136.929   1
  -4  -4   4 77.8573 86.2509   1
   4  -4  -3 256.652 118.786   1
  -4  -4   3 164.303 101.726   1
   4  -4  -2 112.820 122.228   1
   4  -4  -2-155.614 97.5273   2
  -4  -4   2 44.8431 87.4535   1
  -4  -4   1 2604.61 385.804   2
   4  -4  -1 2709.18 378.250   1
  -4  -4   1 2561.74 378.402   1
  -4  -4   0 1378.63 272.542   2
  -4  -4   0 1284.55 231.646   1
   4  -4   0 1333.89 242.187   1
  -4  -4  -1 846.081 178.436   2
   4  -4   1 934.985 192.343   1
  -4  -4  -1 938.207 179.836   1
  -4  -4  -2 561.046 158.616   2
  -4  -4  -2 709.701 219.216   3
   4  -4   2 690.105 148.455   1
  -4  -4  -2 696.118 139.716   1
  -4  -4  -3 126.996 90.2538   3
  -4  -4  -3 123.423 46.3072   1
  -4  -4  -4 1346.67 294.367   3
  -4  -4  -5 219.146 135.278   3
   4  -4   5 462.774 98.3914   1
  -4  -4  -6 464.232 168.922   3
   4  -4   6 497.510 87.0020   1
   4  -4   7 81.7017 43.8730   1
  -4  -4  -7-16.4113 78.9591   3
   4  -4   8 12.1002 28.1074   1
  -4  -4  -8 37.5127 79.2995   3
   4  -4   8 19.0138 2.59359   3
  -4  -4  -9 269.133 74.4489   1
   4  -4   9 467.769 115.350   1
  -4  -3  15 194.984 320.714   1
  -4  -3  14 321.052 321.130   1
  -4  -3  13-99.2098 187.264   1
  -4  -3  12 133.820 257.931   1
  -4  -3  11 802.810 418.330   1
  -4  -3  10 154.554 176.244   1
  -4  -3   9 35.9590 99.8297   1
  -4  -3   8-14.1389 56.1097   1
  -4  -3   7 283.200 211.878   1
  -4  -3   6-44.7752 17.4496   1
  -4  -3   5 993.514 307.653   1
  -4  -3   4 47.1373 49.5463   1
   4  -3  -3 223.179 123.166   1
  -4  -3   3 129.487 23.7559   1
   4  -3  -2-89.7882 85.2241   1
   4  -3  -2 19.1335 52.6071   2
  -4  -3   2-11.4510 75.0859   1
  -4  -3   2 197.847 172.792   2
   4  -3  -1 2554.62 304.038   2
  -4  -3   1 2887.11 381.532   2
   4  -3  -1 3057.99 388.235   1
  -4  -3   1 2623.81 364.913   1
   4  -3   0 63.0463 28.6263   1
  -4  -3   0-7.81207 65.5910   2
  -4  -3   0 13.9737 46.6953   1
   4  -3   1-5.62638 19.2878   1
  -4  -3  -1-19.6009 84.2617   2
  -4  -3  -1-51.7692 66.8803   1
  -4  -3  -2 524.778 111.017   1
   4  -3   2 494.892 121.990   1
   4  -3   3 459.751 95.8160   1
  -4  -3  -3 685.225 114.174   1
  -4  -3  -3 593.980 224.351   3
   4  -3   4-19.3346 27.0424   1
  -4  -3  -4 167.161 112.304   3
  -4  -3  -5 264.274 130.515   3
  -4  -3  -6 39.8508 71.3300   3
  -4  -3  -7 128.383 93.4356   3
   4  -3   7 85.1338 36.1884   1
  -4  -3  -8-21.9119 63.8186   3
   4  -3   8 115.641 106.689   3
   4  -3   8 135.172 64.7721   1
  -4  -2  15 17.8090 97.1218   1
  -4  -2  14 172.306 253.623   1
  -4  -2  13 182.268 179.396   1
  -4  -2  12 424.200 227.658   1
  -4  -2  11 249.477 241.988   1
  -4  -2  10 175.256 195.500   1
  -4  -2   9 65.5384 111.653   1
  -4  -2   8 1458.42 430.812   1
  -4  -2   7 91.5586 131.431   1
  -4  -2   6-44.8945 126.197   1
  -4  -2   5 25.7007 64.3101   1
  -4  -2   4 678.339 231.846   1
   4  -2  -4 772.849 246.626   1
   4  -2  -3-16.1486 77.9502   1
  -4  -2   3-87.4184 128.268   1
   4  -2  -2 561.350 168.350   1
  -4  -2   2 549.023 188.925   1
   4  -2  -2 536.259 135.539   2
  -4  -2   2 583.137 174.907   2
   4  -2  -1 665.952 173.432   1
  -4  -2   1 600.198 151.573   1
   4  -2  -1 587.667 129.762   2
  -4  -2   1 864.035 204.531   2
   4  -2   0 1094.75 210.671   2
  -4  -2   0 1199.66 216.228   2
   4  -2   0 1334.17 243.125   1
  -4  -2   0 1290.52 231.940   1
  -4  -2  -1 640.982 140.482   1
   4  -2   1 787.976 173.769   1
   4  -2   2 560.395 115.458   1
  -4  -2  -2 611.644 110.765   1
   4  -2   3 103.579 38.6632   1
  -4  -2  -3 89.4769 87.6407   3
  -4  -2  -4 40.0018 35.7930   3
  -4  -2  -5 377.230 127.924   3
  -4  -2  -6-74.0620 99.8803   3
  -4  -2  -7 11.7462 71.4510   3
   4  -2   7 371.019 168.432   3
  -4  -2  -8 313.376 191.077   3
   4  -2   8 349.706 169.517   3
  -4  -1  15-9.80201 61.8222   1
  -4  -1  14-66.3663 73.6961   1
  -4  -1  13 121.141 277.946   1
  -4  -1  12 89.3901 147.504   1
  -4  -1  11-27.5206 140.297   1
  -4  -1  10 44.0892 142.581   1
  -4  -1   9 125.372 199.715   1
  -4  -1   8 86.3149 98.0801   1
  -4  -1   7 26.5422 69.1144   1
  -4  -1   6 768.693 272.341   1
  -4  -1   5 495.755 229.041   1
  -4  -1   4 130.134 54.8961   1
   4  -1  -4 165.489 119.630   1
  -4  -1   3 269.213 152.149   1
   4  -1  -3 174.243 119.264   1
  -4  -1   3 352.563 172.884   2
   4  -1  -2 696.744 167.112   1
  -4  -1   2 650.604 178.051   1
  -4  -1   2 686.045 165.801   2
  -4  -1   1 178.784 72.4334   1
   4  -1  -1 178.894 71.0662   1
  -4  -1   1 110.748 63.7876   2
   4  -1  -1 172.346 52.5412   2
  -4  -1   0 1734.90 283.936   2
   4  -1   0 1391.18 238.346   2
  -4  -1   0 1678.99 260.460   1
   4  -1   0 1700.88 260.032   1
   4  -1   1 57.1736 48.8465   1
  -4  -1  -1 42.8825 7.49653   1
   4  -1   2 58.3428 21.7934   1
  -4  -1  -2 32.5592 17.7082   1
  -4  -1  -3 71.7940 60.2100   3
  -4  -1  -4 235.631 89.4170   3
  -4  -1  -5 50.8140 15.2466   3
   4  -1   6 253.338 143.461   3
  -4  -1  -6-168.075 126.897   3
  -4  -1  -7 158.829 96.7376   3
   4  -1   7 120.496 124.228   3
   4  -1   8 75.4430 84.4515   3
  -4   0  15 47.6024 61.9789   1
  -4   0  14 43.1793 88.8474   1
  -4   0  13 260.284 290.670   1
  -4   0  12-201.704 226.178   1
  -4   0  11 59.3571 53.2978   1
  -4   0  10 218.852 204.468   1
  -4   0   9 996.333 375.322   1
  -4   0   8 534.136 257.354   1
  -4   0   7 1271.54 384.401   1
  -4   0   6 4.60042 60.0664   1
  -4   0   5 546.064 199.124   1
  -4   0   4 717.453 225.603   1
   4   0  -4 866.193 245.098   1
  -4   0   3 157.613 122.266   1
   4   0  -3 182.797 91.4360   1
  -4   0   3 165.802 111.859   2
  -4   0   2 563.280 154.247   1
  -4   0   2 618.090 149.894   2
   4   0  -2 659.298 193.525   1
  -4   0   1 548.422 155.879   1
  -4   0   1 535.282 126.733   2
   4   0  -1 617.176 151.746   1
   4   0  -1 757.972 184.371   2
   4   0   0 2332.18 325.016   2
  -4   0   0 2556.27 327.349   1
   4   0   0 2656.32 323.417   1
  -4   0  -1 440.542 110.838   1
   4   0   1 455.557 137.321   2
   4   0   1 514.364 131.203   1
   4   0   2-69.2039 121.682   2
  -4   0  -2 47.3434 41.7605   1
   4   0   2-23.2838 30.2164   1
  -4   0  -3 154.720 87.3801   3
  -4   0  -4 984.404 216.700   3
  -4   0  -5 1400.73 261.235   3
  -4   0  -6 794.172 212.661   3
   4   0   6 820.350 217.660   3
  -4   0  -7 20.7724 45.6891   3
   4   0   7 34.6045 63.5820   3
   4   0   8 294.314 173.555   3
  -4   1  15-124.447 282.687   1
  -4   1  14-122.251 227.238   1
  -4   1  13 74.7217 207.551   1
  -4   1  12 45.0395 206.380   1
  -4   1  11 83.5164 115.197   1
  -4   1  10 51.8893 108.807   1
  -4   1   9-58.4640 10.2198   1
  -4   1   8 161.992 185.880   1
  -4   1   7 83.3742 20.7277   1
  -4   1   6 864.146 297.303   1
  -4   1   5 279.689 123.451   1
  -4   1   4 311.737 145.458   1
  -4   1   4 283.690 128.432   2
   4   1  -4 144.013 100.326   1
  -4   1   3 194.090 129.301   1
  -4   1   3 185.979 68.8844   2
   4   1  -3 271.276 130.431   1
  -4   1   2 681.026 186.618   1
  -4   1   2 655.485 144.616   2
   4   1  -2 668.724 196.416   1
  -4   1   1 168.142 95.1919   1
   4   1  -1 320.238 154.611   2
   4   1  -1 135.231 47.5249   1
   4   1   0 1407.74 264.074   2
  -4   1   0 1554.34 246.755   1
   4   1   0 1650.09 262.044   1
   4   1   1-32.2494 100.413   2
  -4   1  -1-3.41837 39.5967   1
   4   1   1-7.01810 19.3894   1
   4   1   2-81.7386 134.603   2
   4   1   2 31.9613 29.7279   1
  -4   1  -3 96.1681 60.7257   3
   4   1   3-38.7062 126.840   2
  -4   1  -4 124.832 57.1666   3
  -4   1  -5 8.70319 39.3982   3
  -4   1  -6 56.3790 69.0930   3
   4   1   6 70.3559 103.997   3
  -4   1  -7-75.9916 66.2213   3
   4   1   7 10.1196 76.6268   3
   4   1  14 144.974 195.291   2
  -4   2  15 42.7984 196.402   1
  -4   2  14-167.973 167.740   1
  -4   2  13 106.577 204.075   1
  -4   2  12 186.832 110.171   1
  -4   2  11 290.581 335.759   1
  -4   2  10 17.3252 34.2249   1
  -4   2   9 117.397 118.682   1
  -4   2   8 1314.99 401.990   1
  -4   2   7-23.0108 99.7740   1
  -4   2   6 23.6619 133.755   1
  -4   2   5 53.2772 45.6891   1
  -4   2   4 494.436 183.315   1
  -4   2   4 630.615 120.279   2
   4   2  -4 747.271 246.536   1
  -4   2   3 61.9373 87.0939   1
  -4   2   3-141.289 96.6550   2
   4   2  -3 75.6095 35.5656   1
  -4   2   2 499.188 172.217   1
   4   2  -2 575.738 169.077   1
   4   2  -1 678.963 162.150   1
  -4   2   1 493.553 139.611   1
   4   2   0 1330.75 264.732   2
   4   2   0 1287.43 232.666   1
  -4   2   0 1278.94 234.305   1
   4   2   1 705.979 155.871   1
   4   2   1 728.484 194.496   2
   4   2   2 569.766 108.830   1
   4   2   2 507.736 130.023   2
  -4   2  -3 123.254 78.6617   3
   4   2   3-48.8743 127.357   2
   4   2   4-477.683 255.406   2
  -4   2  -4 53.3090 58.6033   3
  -4   2  -5 541.457 146.108   3
   4   2   6 125.849 111.444   3
  -4   2  -6 140.622 93.9964   3
   4   2   7 241.711 167.315   3
   4   2  12 372.292 254.093   2
   4   2  13 155.657 192.807   2
   4   2  14 206.723 235.013   2
  -4   3  14 226.743 240.774   1
  -4   3  13 160.413 196.072   1
  -4   3  12-12.7503 190.829   1
  -4   3  11 881.838 369.308   1
  -4   3  10-79.7073 148.015   1
  -4   3   9-29.1190 118.400   1
  -4   3   8 19.2043 78.9973   1
  -4   3   7 63.8487 23.8727   1
  -4   3   6-36.7061 88.2075   1
  -4   3   5 1048.12 158.405   2
  -4   3   5 1106.15 307.675   1
  -4   3   4-93.4348 88.0367   2
  -4   3   4 159.409 74.3905   1
   4   3  -3 370.385 197.193   1
  -4   3   3 380.169 168.707   1
   4   3  -2 16.4174 43.1048   1
  -4   3   2-164.098 87.8140   1
   4   3  -1 2432.61 344.136   1
  -4   3   1 2784.10 367.414   1
   4   3   0 3.37075 13.5637   1
   4   3   0 66.7065 77.6006   2
   4   3   1 2.21389 76.5906   2
   4   3   1-15.1899 20.0661   1
   4   3   2 327.295 129.727   2
   4   3   2 480.336 100.824   1
   4   3   3 505.096 147.801   2
  -4   3  -3 430.385 98.3642   3
  -4   3  -4 144.788 84.8685   3
  -4   3  -5 361.285 108.103   3
   4   3   5 42.8149 96.5857   2
   4   3   5 330.345 153.956   3
  -4   3  -6 41.7000 49.5234   3
   4   3   6 48.2666 46.2690   3
   4   3   7 844.220 324.278   2
   4   3   8 529.917 284.850   2
   4   3   9 750.143 330.805   2
   4   3  10 174.229 178.269   2
   4   3  11 266.227 202.986   2
   4   3  12 28.4946 137.514   2
   4   3  13 551.496 333.236   2
   4   3  14 726.424 421.673   2
  -4   4  13-102.281 139.704   1
  -4   4  12-26.6107 140.602   1
  -4   4  11-119.904 137.541   1
  -4   4  10-15.0985 143.838   1
  -4   4   9 41.4123 98.8680   1
  -4   4   8-55.8127 122.493   1
  -4   4   7 405.375 227.030   1
  -4   4   6 566.474 104.457   2
  -4   4   6 694.089 257.622   1
  -4   4   5 37.9237 36.9448   2
  -4   4   5 178.238 134.258   1
  -4   4   4 115.124 103.855   1
   4   4  -3 200.381 69.7221   1
  -4   4   3 4.94470 60.4480   1
   4   4  -2-65.1936 69.9559   1
  -4   4   2 93.3007 120.830   1
  -4   4   1 2697.30 379.823   1
   4   4  -1 2566.52 352.034   1
   4   4   0 1218.00 228.021   1
   4   4   1 923.905 180.309   1
   4   4   1 1049.74 252.640   2
   4   4   2 407.655 147.502   2
   4   4   3-168.953 180.022   2
  -4   4  -3 16.8405 36.8701   3
   4   4   4 525.871 113.026   2
  -4   4  -4 1610.61 208.115   3
  -4   4  -5 167.838 68.4225   3
   4   4   5-8.34700 97.0574   2
   4   4   5 227.060 138.114   3
   4   4   6 1300.99 359.301   2
   4   4   7 524.646 279.728   2
   4   4   8 477.692 274.144   2
   4   4   9 1285.44 422.039   2
   4   4  10 406.521 288.725   2
   4   4  11 353.012 235.657   2
   4   4  12 248.721 225.592   2
   4   4  13 570.799 298.286   2
   4   4  14 416.869 344.486   2
  -4   5  12 121.650 171.575   1
  -4   5  11 96.0615 60.9778   1
  -4   5  10 615.569 332.311   1
  -4   5   9-77.8261 84.0546   1
  -4   5   8-186.333 205.761   1
  -4   5   7-43.8946 64.9379   1
  -4   5   6 1145.58 329.980   1
  -4   5   5 118.178 86.4620   1
  -4   5   4 5.83117 21.6171   1
   4   5  -3 137.924 102.197   1
  -4   5   3 236.208 147.591   1
   4   5  -2 1212.68 278.677   1
   4   5  -1 67.3200 44.2859   1
   4   5   0 3171.72 375.347   1
   4   5   1 453.301 127.854   1
   4   5   1 601.284 192.553   2
   4   5   2 846.732 227.849   2
   4   5   3-156.287 113.398   2
   4   5   4-470.068 284.042   2
  -4   5  -4 392.388 93.8133   3
  -4   5  -5 47.4721 36.7977   3
   4   5   5 101.176 95.5182   3
   4   5   6 301.761 199.229   2
   4   5   7 518.158 294.312   2
   4   5   8 802.302 326.690   2
   4   5   9 933.823 363.133   2
   4   5  10 545.098 308.788   2
   4   5  11 332.437 272.126   2
   4   5  12 907.023 379.275   2
   4   5  13 282.202 280.955   2
   4   5  14 57.6117 196.033   2
  -4   6  10-119.331 89.4986   1
  -4   6   9 86.5140 141.402   1
  -4   6   8 163.801 153.756   1
  -4   6   7-27.6218 40.2721   1
  -4   6   6 40.5041 85.8894   1
  -4   6   5 792.685 277.613   1
  -4   6   4 135.772 134.264   1
   4   6  -3 9.75190 22.3459   1
   4   6  -2 80.0234 17.7229   1
   4   6  -1 4.86909 66.0712   1
   4   6   0 528.161 153.232   1
   4   6   1 624.583 149.721   1
   4   6   2 173.960 139.089   2
   4   6   3 129.199 116.923   2
   4   6   4 207.048 26.6631   2
  -4   6  -4 332.406 79.3474   3
   4   6   5 2265.30 404.369   2
  -4   6  -5 2099.65 215.707   3
   4   6   6 284.880 178.568   2
   4   6   7 1542.02 419.828   2
   4   6   8 788.448 338.838   2
   4   6   9 591.376 291.374   2
   4   6  10 478.493 265.678   2
   4   6  11 838.361 370.806   2
   4   6  12 279.736 235.132   2
   4   6  13 512.569 314.138   2
  -4   7   8 128.687 125.624   1
  -4   7   7 1280.97 364.358   1
   4   7  -3 688.287 231.757   1
   4   7  -2 57.0417 39.2892   1
   4   7  -1 2154.79 358.508   1
   4   7   0 197.583 119.822   1
   4   7   2 440.808 202.373   2
   4   7   3 1241.41 294.613   2
  -4   7  -4-3.94730 4.77458   3
   4   7   4 162.134 150.925   2
   4   7   5-180.240 151.930   2
   4   7   6 111.544 110.862   2
   4   7   7 563.565 279.081   2
   4   7   8 353.671 244.738   2
   4   7   9 440.184 267.925   2
   4   7  10 407.661 243.799   2
   4   7  11 336.091 270.672   2
   4   7  12 445.248 318.989   2
   4   7  13 235.944 290.158   2
   4   8  -2 25.9516 51.2776   1
   4   8  -1 244.498 112.056   1
   4   8   0 869.330 202.758   1
   4   8   3 583.415 236.724   2
   4   8   4 1803.09 400.088   2
   4   8   5-401.008 229.817   2
   4   8   6 1284.99 322.359   2
   4   8   7 340.462 161.701   2
   4   8   8 210.075 179.185   2
   4   8   9 634.340 285.762   2
   4   8  10 590.081 277.819   2
   4   8  11 180.412 192.051   2
   4   8  12 386.415 259.186   2
   4   8  13 556.390 361.937   2
   4   9  -2 725.147 217.320   1
   4   9  -1 658.041 203.678   1
   4   9   0 571.722 183.703   1
   4   9   4 1162.70 365.442   2
   4   9   5-21.3029 133.535   2
   4   9   6-109.362 108.826   2
   4   9   7 18.3193 49.5904   2
   4   9   8 234.859 149.623   2
   4   9   9 147.611 202.873   2
   4   9  10 313.231 213.257   2
   4   9  11 303.023 227.728   2
   4   9  12 234.222 230.105   2
   4   9  13 246.805 283.824   2
   4  10  -1 53.9255 96.6563   1
   4  10   5 1272.83 301.265   2
   4  10   6-336.685 219.839   2
   4  10   7-183.752 163.857   2
   4  10   8-46.2091 60.6519   2
   4  10   9 149.383 158.099   2
   4  10  10 534.466 269.913   2
   4  10  11-27.4171 92.6290   2
   4  10  12 284.549 255.242   2
   4  10  13 271.590 261.735   2
   4  11  -1 223.109 151.568   1
  -4  11  -2 27.0242 32.7007   3
   4  11   6-460.291 255.147   2
   4  11   7-260.825 211.639   2
   4  11   8 309.233 126.672   2
   4  11   9-114.541 105.890   2
   4  11  10 148.881 152.713   2
   4  11  11 280.824 196.463   2
   4  11  12 576.348 292.071   2
  -4  12  -1 1740.25 263.624   3
  -4  12  -2 4.68619 13.9830   3
   4  12   7-212.666 204.399   2
   4  12   8-451.087 284.816   2
   4  12   9 68.3670 38.4605   2
   4  12  10-218.499 152.481   2
   4  12  11-120.260 135.743   2
   4  12  12 81.0370 67.0052   2
  -4  13   1 4839.76 551.145   3
  -4  13   0 402.267 135.628   3
  -4  13  -1 46.7361 22.3326   3
  -4  13  -2 30.9096 34.2787   3
   4  13   8-372.829 269.895   2
   4  13   9-281.379 228.165   2
   4  13  10-137.887 162.130   2
   4  13  11 310.619 182.175   2
   4  13  12 7.57105 118.267   2
  -4  14   1 53.9096 49.1639   3
  -4  14   0 2040.99 331.338   3
  -4  14  -1 198.700 89.3349   3
  -4  14  -2 800.295 154.323   3
  -4  14  -3 291.201 70.3378   3
  -4  15   1 21.4160 53.9939   3
  -4  15   0 164.205 73.0649   3
  -4  15  -1 51.7058 32.8101   3
  -4  15  -2 39.4864 64.0809   3
  -4  15  -3 78.0218 43.9012   3
  -4  16   1 1737.39 355.656   3
  -4  16   0 57.2599 92.3581   3
  -4  16  -1 1671.50 277.193   3
  -4  16  -2 72.8881 53.5473   3
  -4  16  -3 5.13181 24.2609   3
  -4  17   1 45.7323 57.3506   3
  -4  17   0 2023.27 347.832   3
  -4  17  -1 68.6223 38.4129   3
  -4  17  -2 91.1486 57.2419   3
  -4  17  -3 89.2411 54.7462   3
  -4  18   0 724.605 222.828   3
  -4  18  -1 147.851 90.7327   3
  -4  18  -2 26.6256 37.1575   3
  -4  19   0 172.337 126.345   3
  -4  19  -1 12.3241 21.5109   3
  -4  19  -2 90.3094 71.4599   3
  -4  20   0 84.0533 88.5941   3
  -4  20  -1 222.246 117.825   3
  -4  20  -2 1.55193 25.5428   3
  -4  21  -1 1.32397 62.5285   3
  -4  21  -2 87.9539 71.5178   3
  -4  22  -1 137.259 95.5691   3
  -4  22  -2 55.2483 40.9794   3
  -4  23  -1 144.712 107.506   3
  -4  23  -2 57.4864 96.1173   3
  -4  24  -2 42.1577 55.9583   3
  -4  25  -2 73.9261 62.0807   3
  -5 -42   3 364.727 301.152   3
  -5 -41   4-238.952 140.808   3
  -5 -41   3 63.1670 210.584   3
  -5 -41   2 353.730 341.452   3
  -5 -41   1 83.5285 190.910   3
  -5 -40   4 449.918 437.208   3
  -5 -40   3 89.0497 165.584   3
  -5 -40   2 137.548 240.636   3
  -5 -40   1-32.4209 251.469   3
  -5 -40   0-191.005 155.668   3
  -5 -40  -1-149.890 136.105   3
  -5 -40  -1 77.3053 38.0413   1
  -5 -40  -2 51.8376 180.034   1
  -5 -40  -3-3.88224 128.049   1
  -5 -40  -4-62.5428 150.244   1
  -5 -40  -5 16.8504 112.411   1
  -5 -40  -6 546.392 393.481   1
  -5 -39   5 283.987 348.676   3
  -5 -39   4 194.731 151.564   3
  -5 -39   3-259.962 326.822   3
  -5 -39   2 105.156 173.079   3
  -5 -39   1-16.7820 261.510   1
  -5 -39   1 216.909 377.315   3
  -5 -39   0-126.706 234.225   3
  -5 -39   0-65.9168 226.577   1
  -5 -39  -1 482.342 475.520   3
  -5 -39  -1-143.181 261.490   1
  -5 -39  -2 52.6913 213.704   3
  -5 -39  -2-51.4955 100.119   1
  -5 -39  -3-136.427 74.8453   1
  -5 -39  -4-120.318 159.099   1
  -5 -39  -5 245.466 300.698   1
  -5 -39  -6 210.531 279.195   1
  -5 -38   5 13.3128 40.4481   3
  -5 -38   4 37.4944 233.878   3
  -5 -38   3 524.330 371.995   1
  -5 -38   3-29.9404 164.269   3
  -5 -38   2 170.793 80.6211   1
  -5 -38   2 249.294 277.513   3
  -5 -38   1 354.601 380.175   3
  -5 -38   1-46.2956 193.575   1
  -5 -38   0 455.225 425.092   3
  -5 -38   0 119.079 140.759   1
  -5 -38  -1-303.497 368.596   3
  -5 -38  -1-21.9467 76.2966   1
  -5 -38  -2 67.2823 111.509   3
  -5 -38  -2 27.6744 200.493   1
  -5 -38  -3 325.677 363.592   3
  -5 -38  -3-48.8629 202.643   1
  -5 -38  -4 174.136 156.384   1
  -5 -38  -5 536.898 427.733   1
   5 -38   6 282.183 275.480   1
  -5 -38  -6-221.777 235.374   1
   5 -38   7-247.381 76.7917   1
  -5 -37   5 311.552 318.786   3
  -5 -37   4-90.4807 279.443   1
  -5 -37   4 376.512 382.488   3
  -5 -37   3 173.659 313.980   1
  -5 -37   3 151.087 237.378   3
  -5 -37   2-171.566 62.3384   1
  -5 -37   2-97.6106 182.379   3
  -5 -37   1-97.3269 263.653   1
  -5 -37   1 105.620 78.7753   3
  -5 -37   0-70.5751 115.985   1
  -5 -37   0 123.503 218.433   3
  -5 -37  -1 114.498 177.246   3
  -5 -37  -1 2.90985 92.9677   1
  -5 -37  -2 326.408 268.557   3
  -5 -37  -2-14.0182 121.216   1
  -5 -37  -3-34.7673 99.8726   3
  -5 -37  -3-15.2727 260.970   1
  -5 -37  -4-79.9593 98.1269   3
  -5 -37  -4 28.7244 135.690   1
  -5 -37  -5 217.475 107.354   1
   5 -37   7 36.2698 167.825   1
  -5 -36   6-67.4559 178.938   3
  -5 -36   5 327.646 298.441   3
  -5 -36   5 208.768 227.687   1
  -5 -36   4-262.986 306.730   1
  -5 -36   4 177.581 362.923   3
  -5 -36   3 140.358 263.384   1
  -5 -36   3 335.558 358.041   3
  -5 -36   2-88.9983 190.762   3
  -5 -36   2 59.2031 260.835   1
  -5 -36   1 90.7826 234.118   1
  -5 -36   1-52.9661 143.467   3
  -5 -36   0 105.750 205.001   1
  -5 -36   0 278.930 245.021   3
  -5 -36  -1-11.1719 46.7559   3
  -5 -36  -1-15.3995 178.366   1
  -5 -36  -2 4.50833 122.873   3
  -5 -36  -2-508.146 385.054   1
  -5 -36  -3 84.8440 132.890   3
  -5 -36  -3 587.162 291.863   1
  -5 -36  -4 35.2221 76.7021   3
  -5 -36  -4 16.9576 210.702   1
  -5 -36  -5 493.813 413.791   3
  -5 -36  -5 391.217 366.035   1
   5 -36   7 207.154 214.071   1
  -5 -35   6 44.2694 175.993   1
  -5 -35   6-92.7405 74.4259   3
  -5 -35   5-53.5388 116.801   3
  -5 -35   5 75.6526 296.817   1
  -5 -35   4 318.122 184.283   1
  -5 -35   4 183.564 244.380   3
  -5 -35   3-124.498 207.209   1
  -5 -35   3-118.337 206.308   3
  -5 -35   2 303.013 337.778   1
  -5 -35   2 45.7689 140.841   3
  -5 -35   1-106.634 130.104   1
  -5 -35   1 201.579 403.515   3
  -5 -35   0-133.925 271.771   3
  -5 -35   0-104.679 259.215   1
  -5 -35  -1 147.847 181.990   1
  -5 -35  -1-41.9882 269.381   3
  -5 -35  -2 56.0266 214.132   3
  -5 -35  -2-24.9338 188.662   1
  -5 -35  -3 30.9497 232.816   1
  -5 -35  -3-438.628 356.087   3
  -5 -35  -4 202.519 205.014   1
  -5 -35  -4-218.474 193.719   3
  -5 -35  -5-150.251 163.609   3
   5 -35   7 63.3804 195.767   1
  -5 -34   7 103.958 175.293   1
  -5 -34   7 29.2942 93.2891   3
  -5 -34   6 496.735 355.406   3
  -5 -34   6 85.3806 218.807   1
  -5 -34   5-48.7714 208.199   1
  -5 -34   5 117.735 263.307   3
  -5 -34   4 168.492 69.9437   1
  -5 -34   4 26.1453 166.623   3
  -5 -34   3-150.754 306.537   1
  -5 -34   3-206.266 156.323   3
  -5 -34   2 47.3232 61.9657   1
  -5 -34   2 77.2638 134.825   3
  -5 -34   1-7.53616 71.0149   3
  -5 -34   1 196.505 264.005   1
  -5 -34   0 63.2468 130.123   1
  -5 -34   0-92.9088 195.141   3
  -5 -34  -1-166.683 185.628   3
  -5 -34  -1-154.904 222.893   1
  -5 -34  -2-65.6792 176.068   3
  -5 -34  -2-208.501 289.641   1
  -5 -34  -3-19.1227 220.761   3
  -5 -34  -3 210.752 286.610   1
  -5 -34  -4 390.149 240.265   3
  -5 -34  -4 250.841 206.053   1
  -5 -34  -5-8.05684 130.914   3
  -5 -34  -6 85.5180 219.286   3
   5 -34   7 77.0574 69.1898   1
  -5 -33   8-57.3424 184.846   1
  -5 -33   7-281.177 304.911   1
  -5 -33   7 40.6433 261.544   3
  -5 -33   6 89.0966 196.351   3
  -5 -33   6 81.3068 281.928   1
  -5 -33   5 152.747 266.232   1
  -5 -33   5 281.632 310.065   3
  -5 -33   4 56.3795 200.553   1
  -5 -33   4-377.642 277.609   3
  -5 -33   3 90.6383 220.179   1
  -5 -33   3 303.273 314.746   3
  -5 -33   2 64.4715 201.289   1
  -5 -33   2 204.428 282.928   3
  -5 -33   1 403.541 329.026   1
  -5 -33   1 129.288 251.670   3
  -5 -33   0 108.378 239.428   1
  -5 -33   0-88.0374 171.602   3
  -5 -33  -1 132.833 220.966   3
  -5 -33  -1-230.291 263.472   1
  -5 -33  -2-61.2437 186.332   3
  -5 -33  -2 189.723 279.203   1
  -5 -33  -3-19.8612 175.500   3
  -5 -33  -3 2.12587 275.960   1
  -5 -33  -4 12.9765 38.1833   3
  -5 -33  -4 75.8536 227.773   1
  -5 -33  -5 20.7657 121.445   3
  -5 -33  -6-105.268 186.845   3
  -5 -33  -7 131.383 95.8635   3
   5 -33   7 277.721 272.583   1
  -5 -32   8 229.448 267.123   1
  -5 -32   7 3.71436 162.618   3
  -5 -32   7 145.653 455.938   1
  -5 -32   6-89.1734 135.107   1
  -5 -32   6 209.457 292.794   3
  -5 -32   5-39.9567 142.279   3
  -5 -32   5 79.4460 248.438   1
  -5 -32   4 60.7604 32.6356   1
  -5 -32   4-128.001 221.588   3
  -5 -32   3 0.43506 182.090   1
  -5 -32   3-288.642 281.419   3
  -5 -32   2 255.650 292.467   3
  -5 -32   2 83.3097 76.3096   1
  -5 -32   1-247.860 304.658   3
  -5 -32   1 253.499 220.395   1
  -5 -32   0 542.198 313.662   1
  -5 -32   0 277.364 211.123   3
  -5 -32  -1 131.435 227.620   1
  -5 -32  -1-307.590 297.468   3
  -5 -32  -2 101.897 150.854   3
  -5 -32  -2 53.2411 159.470   1
  -5 -32  -3-249.195 232.470   3
  -5 -32  -3 132.149 39.1794   1
  -5 -32  -4-228.306 310.488   3
  -5 -32  -4 201.350 325.167   1
  -5 -32  -5 178.065 152.279   3
  -5 -32  -6 192.879 265.990   3
  -5 -32  -7-204.888 286.808   3
   5 -32   7 14.6668 142.289   1
  -5 -31   9-138.019 263.957   1
  -5 -31   8 166.746 181.066   1
  -5 -31   8 314.671 357.095   3
  -5 -31   7 250.390 236.641   1
  -5 -31   7 136.404 266.316   3
  -5 -31   6 115.864 150.447   3
  -5 -31   6-82.7361 148.559   1
  -5 -31   5 165.834 215.031   3
  -5 -31   5 66.9085 125.809   1
  -5 -31   4-61.1201 117.000   1
  -5 -31   4 313.572 286.570   3
  -5 -31   3 146.795 180.436   1
  -5 -31   3-28.4074 163.435   3
  -5 -31   2-147.137 203.979   1
  -5 -31   2 176.403 281.049   3
  -5 -31   1 138.742 123.127   3
  -5 -31   1-228.835 234.475   1
  -5 -31   0 203.175 204.171   1
  -5 -31   0 114.582 110.965   3
  -5 -31  -1-52.9093 129.197   1
  -5 -31  -1 267.838 119.375   3
  -5 -31  -2 79.3456 180.237   3
  -5 -31  -2-60.5463 115.425   1
  -5 -31  -3 320.327 274.691   1
  -5 -31  -3 36.9184 55.6492   3
  -5 -31  -4-292.760 316.688   3
  -5 -31  -4 295.908 286.428   1
  -5 -31  -5-142.253 195.127   3
  -5 -31  -6 236.774 406.773   3
   5 -31   7 179.703 90.6671   1
  -5 -31  -7-2.62328 177.421   3
  -5 -31  -8-245.504 211.590   3
  -5 -30  10 399.527 395.281   1
  -5 -30   9 238.610 211.016   1
  -5 -30   8 102.337 271.130   1
  -5 -30   7 1.59683 109.112   1
  -5 -30   7 17.8765 118.582   3
  -5 -30   6 120.168 232.727   3
  -5 -30   6 328.834 373.426   1
  -5 -30   5-58.1480 91.2180   1
  -5 -30   5 330.746 279.257   3
  -5 -30   4-107.863 90.9651   1
  -5 -30   4 160.327 291.119   3
  -5 -30   3 8.97610 164.494   1
  -5 -30   3-162.653 219.445   3
  -5 -30   2 509.930 294.577   1
  -5 -30   2-41.8903 119.907   3
  -5 -30   1 325.926 216.174   1
  -5 -30   1 398.094 328.850   3
  -5 -30   0-44.5583 45.2564   3
  -5 -30   0-81.2270 99.7148   1
  -5 -30  -1 288.329 200.857   1
  -5 -30  -1 273.538 269.197   3
  -5 -30  -2 56.2561 144.652   1
  -5 -30  -2 491.774 303.326   3
  -5 -30  -3 239.391 142.419   3
  -5 -30  -3-26.7010 25.9872   1
  -5 -30  -4 141.924 167.847   3
  -5 -30  -5 398.966 293.172   3
  -5 -30  -6 114.766 257.243   3
  -5 -30  -7 281.372 336.210   3
   5 -30   7 68.7408 86.9566   1
  -5 -30  -8-151.615 185.798   3
  -5 -30  -9 147.850 112.810   3
  -5 -29  10 447.836 276.954   1
  -5 -29   9 317.606 259.244   1
  -5 -29   8 244.763 351.790   1
  -5 -29   7 32.0903 48.6565   1
  -5 -29   6 442.801 337.617   3
  -5 -29   6 277.137 231.830   1
  -5 -29   5-90.4070 255.642   1
  -5 -29   5-55.1259 131.746   3
  -5 -29   4 134.247 135.208   1
  -5 -29   4 50.1077 211.371   3
  -5 -29   3-39.5050 76.5926   3
  -5 -29   3 37.9698 154.682   1
  -5 -29   2 275.469 186.862   1
  -5 -29   2 69.1971 170.731   3
  -5 -29   1 7.09419 119.060   3
  -5 -29   1 101.572 284.587   1
  -5 -29   0 214.741 236.163   1
  -5 -29   0 78.7755 140.468   3
  -5 -29  -1-70.1544 139.755   1
  -5 -29  -1-124.808 141.801   3
  -5 -29  -2 102.644 104.948   3
  -5 -29  -2 242.318 250.022   1
  -5 -29  -3 145.979 233.542   3
  -5 -29  -3 327.008 252.521   1
  -5 -29  -4 2.49447 85.9176   3
  -5 -29  -5 148.764 276.890   3
  -5 -29  -6 55.7809 222.264   3
   5 -29   7 129.064 141.288   1
  -5 -29  -7 290.901 291.465   3
  -5 -29  -8-226.654 209.858   3
  -5 -29  -9-212.320 187.515   3
  -5 -28  11 531.221 342.528   1
  -5 -28  10-297.370 206.778   1
  -5 -28   9-30.5233 198.991   1
  -5 -28   8-35.9251 201.929   1
  -5 -28   7-12.5958 188.141   1
  -5 -28   6 242.887 261.716   1
  -5 -28   5 318.419 275.740   1
  -5 -28   5 391.551 306.245   3
  -5 -28   4 93.9439 231.447   1
  -5 -28   4-29.4619 92.9850   3
  -5 -28   3 90.7439 164.728   1
  -5 -28   3 23.2725 85.7240   3
  -5 -28   2 349.414 295.516   3
  -5 -28   2 73.0594 44.6734   1
  -5 -28   1-13.5805 192.889   1
  -5 -28   1 180.101 234.966   3
  -5 -28   0 451.759 200.267   1
  -5 -28   0 200.344 266.173   3
  -5 -28  -1 26.4076 150.798   1
  -5 -28  -1-14.1978 50.8096   3
  -5 -28  -2-104.053 173.358   1
  -5 -28  -2 501.291 315.492   3
  -5 -28  -3 452.870 283.761   3
  -5 -28  -3 559.796 342.599   1
  -5 -28  -4 366.375 250.183   3
  -5 -28  -5 440.153 340.085   3
  -5 -28  -6 153.131 250.015   3
   5 -28   7 87.2693 105.583   1
  -5 -28  -7-90.3691 36.8135   3
  -5 -28  -8 112.219 42.2288   3
   5 -28   8 337.021 269.610   1
  -5 -28  -9 160.395 255.239   3
  -5 -28 -10 169.563 272.184   3
  -5 -27  11 83.8714 295.843   1
  -5 -27  10 230.557 293.258   1
  -5 -27   9 53.2880 73.4597   1
  -5 -27   8-23.4040 146.816   1
  -5 -27   7 20.6447 139.201   1
  -5 -27   6-140.377 44.9414   1
  -5 -27   5 455.185 363.908   3
  -5 -27   5 349.012 289.864   1
  -5 -27   4-83.1449 84.3343   1
  -5 -27   4 93.4131 171.496   3
  -5 -27   3 102.415 169.766   1
  -5 -27   3-16.2237 106.482   3
  -5 -27   2 128.923 240.032   1
  -5 -27   2-42.2839 191.006   3
  -5 -27   1-202.400 223.025   1
  -5 -27   1 33.3519 115.436   3
  -5 -27   0-19.6315 147.583   1
  -5 -27   0-73.7397 39.1001   3
  -5 -27  -1 352.872 296.019   3
  -5 -27  -1-93.5311 262.759   1
  -5 -27  -2-56.2916 96.1482   1
  -5 -27  -2-10.4349 146.467   3
  -5 -27  -3 176.931 238.467   1
  -5 -27  -3 401.942 305.859   3
  -5 -27  -4 273.846 149.097   3
  -5 -27  -5 106.751 141.200   3
  -5 -27  -6-32.0288 179.159   3
   5 -27   7 235.353 214.182   1
  -5 -27  -7 152.783 131.594   3
  -5 -27  -8 72.4442 187.726   3
   5 -27   8 87.3534 175.699   1
  -5 -27  -9 108.188 236.929   3
  -5 -27 -10 529.405 402.041   3
  -5 -26  11 152.629 302.373   1
  -5 -26  10-116.078 169.623   1
  -5 -26   9-44.5931 121.252   1
  -5 -26   8-28.7378 156.910   1
  -5 -26   7 54.1968 92.1655   1
  -5 -26   6 98.2371 94.3253   1
  -5 -26   5 3.38418 113.241   1
  -5 -26   4 429.433 249.515   3
  -5 -26   4 428.283 336.623   1
  -5 -26   3 72.6189 77.4684   1
  -5 -26   3 56.6364 126.435   3
  -5 -26   2 214.529 233.397   1
  -5 -26   2 163.344 218.926   3
  -5 -26   1 282.011 242.447   3
  -5 -26   1 551.387 327.619   1
  -5 -26   0 34.8062 109.032   1
  -5 -26   0 277.346 237.274   3
  -5 -26  -1 308.066 247.218   1
  -5 -26  -1 100.756 164.040   3
  -5 -26  -2 290.991 181.542   1
  -5 -26  -2 126.395 162.902   3
  -5 -26  -3-65.7617 86.0573   3
  -5 -26  -3 135.135 222.089   1
  -5 -26  -4 559.945 395.046   3
  -5 -26  -5 25.3206 143.191   3
  -5 -26  -6 215.716 247.776   3
   5 -26   7 79.9280 140.585   1
  -5 -26  -7-105.983 99.2346   3
  -5 -26  -8 153.789 172.398   3
   5 -26   8 10.7261 136.470   1
  -5 -26  -9-8.60323 186.686   3
  -5 -26 -10 35.9308 152.153   3
  -5 -26 -11-34.7227 233.249   3
  -5 -25  12-208.252 321.648   1
  -5 -25  11 134.646 249.954   1
  -5 -25  10-84.0543 200.942   1
  -5 -25   9-260.737 274.520   1
  -5 -25   8-78.9440 73.0042   1
  -5 -25   7 150.589 202.143   1
  -5 -25   6-86.2300 204.077   1
  -5 -25   5 114.502 259.097   1
  -5 -25   4-122.982 154.763   1
  -5 -25   3 145.349 207.864   1
  -5 -25   3 166.814 227.732   3
  -5 -25   2 295.243 236.716   1
  -5 -25   2 423.619 289.941   3
  -5 -25   1 76.9325 81.9348   1
  -5 -25   1-98.1190 77.4995   3
  -5 -25   0-9.66102 178.115   1
  -5 -25   0-109.848 55.4578   3
  -5 -25  -1-73.1215 35.5869   3
  -5 -25  -1-226.576 213.740   1
  -5 -25  -2 220.240 190.381   1
  -5 -25  -2 250.494 288.398   3
  -5 -25  -3-81.8220 180.366   3
  -5 -25  -3 108.584 104.697   1
  -5 -25  -4-19.3408 85.4273   3
  -5 -25  -5-45.0960 217.811   3
  -5 -25  -6-6.42122 189.502   3
  -5 -25  -7-169.479 103.236   3
   5 -25   7-62.1171 99.6907   1
   5 -25   8 73.7098 10.1311   1
  -5 -25  -8-21.5748 91.9802   3
  -5 -25  -9 265.501 317.110   3
  -5 -25 -10 318.068 231.767   3
  -5 -25 -11 36.3887 138.718   3
  -5 -24  12 61.3685 218.327   1
  -5 -24  11 55.4666 186.977   1
  -5 -24  10-462.157 402.899   1
  -5 -24   9-52.7206 80.2202   1
  -5 -24   8-101.489 117.357   1
  -5 -24   7 390.718 302.491   1
  -5 -24   6-55.6104 91.8144   1
  -5 -24   5 719.570 383.677   1
  -5 -24   4-207.671 204.984   1
  -5 -24   3-41.9444 193.388   1
  -5 -24   3 157.687 190.296   3
  -5 -24   2 277.028 228.317   1
  -5 -24   2 347.151 283.562   3
  -5 -24   1 269.390 176.222   1
  -5 -24   1 243.713 210.173   3
  -5 -24   0 119.094 149.231   1
  -5 -24   0 292.257 247.306   3
  -5 -24  -1-16.3074 53.3481   1
  -5 -24  -1 64.4398 193.512   3
  -5 -24  -2-14.0995 126.594   1
  -5 -24  -2 127.420 144.260   3
  -5 -24  -3 235.592 183.487   1
  -5 -24  -3 230.737 169.037   3
  -5 -24  -4 49.2843 53.0856   3
  -5 -24  -5 731.342 381.723   3
  -5 -24  -6 91.0842 87.6984   3
  -5 -24  -7 119.292 204.085   3
   5 -24   7-154.064 239.562   1
   5 -24   8-59.2451 72.8803   1
  -5 -24  -8-148.024 150.811   3
  -5 -24  -9-7.90370 156.920   3
  -5 -24 -10 143.050 214.339   3
  -5 -24 -11-71.1147 72.2756   3
  -5 -23  13-5.81801 79.5125   1
  -5 -23  12 117.273 364.411   1
  -5 -23  11 571.800 501.195   1
  -5 -23  10 159.579 67.1206   1
  -5 -23   9 5.42007 120.342   1
  -5 -23   8 125.912 246.686   1
  -5 -23   7 5.17331 100.058   1
  -5 -23   6 143.377 143.208   1
  -5 -23   5 219.801 195.357   1
  -5 -23   4-17.2698 178.680   1
  -5 -23   3 90.6281 147.011   1
  -5 -23   2 267.918 150.378   1
  -5 -23   2 139.848 134.998   3
  -5 -23   1 253.819 215.168   1
  -5 -23   1-15.1999 135.548   3
  -5 -23   0-14.5508 51.2562   3
  -5 -23   0 0.95148 79.8611   1
  -5 -23  -1-5.18291 151.772   1
  -5 -23  -1-35.4706 50.2997   3
  -5 -23  -2 93.1795 20.9258   1
  -5 -23  -2-18.2760 58.6865   3
  -5 -23  -3 109.241 209.602   1
  -5 -23  -3 255.015 231.594   3
  -5 -23  -4 8.33432 65.6448   3
  -5 -23  -5 222.509 202.869   3
  -5 -23  -6 202.484 200.074   3
  -5 -23  -7 58.1361 186.986   3
   5 -23   7-36.9166 118.177   1
  -5 -23  -8-52.4466 42.3059   3
   5 -23   8 82.7357 170.216   1
  -5 -23  -9-38.7271 91.0884   3
  -5 -23 -10 32.4344 70.8020   3
  -5 -23 -11-75.2291 199.701   3
  -5 -22  13 3.58044 102.010   1
  -5 -22  12 132.591 33.6405   1
  -5 -22  11-16.6194 100.369   1
  -5 -22  10-96.4011 120.557   1
  -5 -22   9-44.1940 173.817   1
  -5 -22   8-29.7091 224.992   1
  -5 -22   7-68.3848 165.925   1
  -5 -22   6 500.197 295.902   1
  -5 -22   5 100.449 85.6409   1
  -5 -22   4 341.917 228.964   1
  -5 -22   3 262.845 255.897   1
  -5 -22   2 63.4598 84.8720   1
  -5 -22   2 5.39429 136.383   3
  -5 -22   1 233.382 212.124   1
  -5 -22   1 286.875 220.264   3
  -5 -22   0 741.296 361.451   3
  -5 -22   0 899.296 371.201   1
  -5 -22  -1 111.625 85.6534   3
  -5 -22  -1 112.122 56.8706   1
  -5 -22  -2 44.7720 98.3048   1
  -5 -22  -2 175.031 149.411   3
  -5 -22  -3-158.382 185.509   3
  -5 -22  -3 11.6592 87.3569   1
  -5 -22  -4 683.776 308.142   3
  -5 -22  -5 46.3130 70.9165   3
  -5 -22  -6 173.516 204.596   3
  -5 -22  -7-49.5222 92.5789   3
   5 -22   7 80.8421 195.204   1
  -5 -22  -8-51.6411 190.976   3
   5 -22   8 184.041 195.958   1
  -5 -22  -9 455.670 371.436   3
  -5 -22 -10-4.72535 64.1666   3
  -5 -22 -11-105.783 226.448   3
  -5 -21  13 39.0381 304.012   1
  -5 -21  12-70.7022 130.202   1
  -5 -21  11 214.257 248.052   1
  -5 -21  10-2.48914 183.103   1
  -5 -21   9 163.535 158.504   1
  -5 -21   8-139.327 237.651   1
  -5 -21   7 396.495 213.190   1
  -5 -21   6-21.9826 158.786   1
  -5 -21   5 102.554 159.086   1
  -5 -21   4 12.1506 171.258   1
  -5 -21   3 310.034 227.980   1
  -5 -21   2 51.6319 30.6534   1
  -5 -21   2 74.3588 76.2170   3
  -5 -21   1-29.8543 91.6503   3
  -5 -21   1-35.8916 128.882   1
  -5 -21   0 2.40893 38.5821   3
  -5 -21   0 175.804 225.850   1
  -5 -21  -1 7.34582 58.9592   1
  -5 -21  -1 16.0018 124.259   3
  -5 -21  -2 94.8089 110.896   1
  -5 -21  -2 76.7178 154.001   3
  -5 -21  -3-8.85656 100.719   1
  -5 -21  -3 368.853 217.034   3
  -5 -21  -4 28.0839 144.877   3
  -5 -21  -5 86.9507 59.5149   3
  -5 -21  -6 195.179 268.064   3
   5 -21   7 232.155 170.942   1
  -5 -21  -7 409.248 295.936   3
  -5 -21  -8 250.634 171.353   3
   5 -21   8 78.0877 128.835   1
  -5 -21  -9 82.1679 126.293   3
  -5 -21 -10 39.8552 203.056   3
  -5 -21 -11-1.06558 161.763   3
  -5 -20  14-120.203 90.7408   1
  -5 -20  13 194.596 230.968   1
  -5 -20  12 182.990 94.5632   1
  -5 -20  11-83.7805 206.274   1
  -5 -20  10 112.601 255.494   1
  -5 -20   9 203.835 192.334   1
  -5 -20   8 95.2258 142.315   1
  -5 -20   7 68.4809 27.8130   1
  -5 -20   6 69.0833 140.621   1
  -5 -20   5 30.7121 78.9388   1
  -5 -20   4 376.318 227.780   1
  -5 -20   3 71.7477 40.4444   1
  -5 -20   2 693.613 337.822   1
  -5 -20   1 194.140 121.194   1
  -5 -20   1 304.572 217.817   3
  -5 -20   0 243.351 188.490   1
  -5 -20   0 353.801 244.053   3
  -5 -20  -1 0.14279 66.2676   1
  -5 -20  -1 75.1336 142.033   3
  -5 -20  -2 20.9629 63.1194   1
  -5 -20  -2-0.74317 117.549   3
  -5 -20  -3 162.541 170.463   1
  -5 -20  -3 237.692 195.284   3
  -5 -20  -4-62.6630 155.225   3
  -5 -20  -5 227.598 228.909   3
  -5 -20  -6 7.61618 62.3833   3
  -5 -20  -7 283.737 207.964   3
   5 -20   7 88.0911 182.255   1
  -5 -20  -8 470.916 323.252   3
   5 -20   8 158.721 153.911   1
  -5 -20  -9 96.4614 195.953   3
  -5 -20 -10 161.548 164.355   3
  -5 -20 -11-148.304 147.288   3
  -5 -19  14-67.5406 348.270   1
  -5 -19  13 51.3009 124.615   1
  -5 -19  12 309.563 357.112   1
  -5 -19  11-194.223 100.397   1
  -5 -19  10 299.113 368.323   1
  -5 -19   9 52.4728 206.987   1
  -5 -19   8 259.153 168.946   1
  -5 -19   7-115.353 170.794   1
  -5 -19   6 285.619 211.227   1
  -5 -19   5 134.140 253.177   1
  -5 -19   4-51.8310 145.729   1
  -5 -19   3 116.327 97.4235   1
  -5 -19   2 247.612 209.245   1
  -5 -19   1 123.207 194.700   1
  -5 -19   1 168.903 196.709   3
  -5 -19   0 135.890 137.735   1
  -5 -19   0 5.35188 94.7514   3
  -5 -19  -1-85.9209 77.9808   1
  -5 -19  -1 178.346 207.284   3
  -5 -19  -2 170.037 161.504   1
  -5 -19  -2 216.926 212.988   3
  -5 -19  -3-17.5506 95.0591   1
  -5 -19  -3 75.0528 121.053   3
  -5 -19  -4 62.0863 97.1437   3
  -5 -19  -5-4.33746 147.114   3
  -5 -19  -6 50.9355 129.929   3
   5 -19   7-16.7824 82.0576   1
  -5 -19  -7 44.2737 129.052   3
  -5 -19  -8 237.293 228.783   3
   5 -19   8-84.9108 16.3620   1
  -5 -19  -9-68.0708 154.581   3
  -5 -19 -10 497.849 337.598   3
  -5 -19 -11 188.280 162.175   3
  -5 -18  14-102.438 352.812   1
  -5 -18  13-61.1788 279.417   1
  -5 -18  12 21.2635 116.519   1
  -5 -18  11 169.756 333.852   1
  -5 -18  10-40.6957 136.601   1
  -5 -18   9 333.556 284.123   1
  -5 -18   8 187.099 164.019   1
  -5 -18   7 28.9199 101.578   1
  -5 -18   6 130.862 91.6454   1
  -5 -18   5 157.883 132.948   1
  -5 -18   4 88.4562 67.2907   1
  -5 -18   3 307.772 238.677   1
  -5 -18   2 44.3367 36.1061   1
  -5 -18   1 1826.30 480.904   1
  -5 -18   0 11.9935 104.384   1
  -5 -18   0 72.5132 153.914   3
  -5 -18  -1 535.887 253.490   1
  -5 -18  -1 389.898 222.748   3
  -5 -18  -2 63.7194 116.105   1
  -5 -18  -2-28.0053 69.0035   3
  -5 -18  -3 596.518 261.974   1
  -5 -18  -3 454.076 213.503   3
  -5 -18  -4 244.928 158.779   1
  -5 -18  -4 26.2365 112.443   3
  -5 -18  -5 141.395 177.280   3
  -5 -18  -6 11.2963 114.280   3
  -5 -18  -7-54.5168 109.296   3
   5 -18   7 19.5386 116.548   1
  -5 -18  -8-20.8072 130.409   3
   5 -18   8-24.8435 87.8774   1
  -5 -18  -9 35.9910 153.626   3
  -5 -18 -10 185.374 223.473   3
  -5 -18 -11 99.1977 166.842   3
  -5 -17  14-99.8840 126.931   1
  -5 -17  13 409.774 264.551   1
  -5 -17  12-66.0723 36.6543   1
  -5 -17  11 622.145 441.395   1
  -5 -17  10 378.209 322.142   1
  -5 -17   9 205.747 158.554   1
  -5 -17   8-91.9869 183.639   1
  -5 -17   7 533.051 287.928   1
  -5 -17   6 121.613 151.550   1
  -5 -17   5-65.8585 171.923   1
  -5 -17   4 100.205 119.020   1
  -5 -17   3 133.650 177.503   1
  -5 -17   2 25.3696 134.432   1
  -5 -17   1-24.5836 50.3034   1
  -5 -17   0 130.325 164.601   1
  -5 -17   0 84.9212 88.3668   3
  -5 -17  -1 115.549 179.023   3
  -5 -17  -1 34.2465 87.6169   1
  -5 -17  -2-56.4431 51.6667   1
  -5 -17  -2-68.6852 106.322   3
  -5 -17  -3 193.625 161.919   1
  -5 -17  -3-66.6439 99.0796   3
  -5 -17  -4 121.770 92.2805   1
  -5 -17  -4 77.7700 155.393   3
  -5 -17  -5 366.227 255.913   3
  -5 -17  -6-157.930 211.979   3
  -5 -17  -7 78.6977 157.324   3
   5 -17   7 47.8208 96.8166   1
  -5 -17  -8 272.078 238.428   3
   5 -17   8 28.6146 104.319   1
  -5 -17  -9 130.158 189.991   3
  -5 -17 -10 187.791 169.773   3
  -5 -17 -11 294.202 278.851   3
  -5 -16  15 417.410 444.468   1
  -5 -16  14 0.82773 102.239   1
  -5 -16  13-293.572 130.164   1
  -5 -16  12 92.6953 166.747   1
  -5 -16  11 136.097 167.791   1
  -5 -16  10 774.543 468.343   1
  -5 -16   9 167.545 187.589   1
  -5 -16   8 58.7821 106.150   1
  -5 -16   7-15.0884 75.7007   1
  -5 -16   6 511.911 315.901   1
  -5 -16   5-17.3815 111.738   1
  -5 -16   4 147.342 195.400   1
  -5 -16   3-188.881 170.818   1
  -5 -16   2 442.044 247.555   1
  -5 -16   1 30.2228 107.919   1
  -5 -16   0 2512.11 578.532   3
  -5 -16   0 2626.85 536.754   1
  -5 -16  -1 104.849 86.0224   1
  -5 -16  -1 36.5971 25.1553   3
  -5 -16  -2 110.146 109.340   1
  -5 -16  -2-34.1411 83.9559   3
  -5 -16  -3 305.021 170.040   1
  -5 -16  -3 210.842 77.0599   3
  -5 -16  -4 1095.92 308.194   1
  -5 -16  -4 647.960 287.008   3
  -5 -16  -5 320.716 177.137   3
  -5 -16  -6 43.6036 52.3562   3
  -5 -16  -7-232.865 132.181   3
   5 -16   7 54.4168 33.2607   1
   5 -16   8 203.232 149.312   1
  -5 -16  -8 244.994 214.578   3
  -5 -16  -9-25.5824 89.1983   3
  -5 -16 -10 418.919 247.379   3
  -5 -16 -11 221.815 299.992   3
  -5 -15  15-14.4892 313.309   1
  -5 -15  14-218.860 311.488   1
  -5 -15  13 99.3899 177.422   1
  -5 -15  12 35.1923 169.499   1
  -5 -15  11 411.745 285.161   1
  -5 -15  10 83.7826 191.809   1
  -5 -15   9-81.0512 218.816   1
  -5 -15   8 200.924 202.636   1
  -5 -15   7 538.234 301.571   1
  -5 -15   6 142.666 159.619   1
  -5 -15   5 244.376 235.443   1
  -5 -15   4 220.162 169.384   1
  -5 -15   3 132.420 74.9529   1
  -5 -15   2 191.209 130.069   1
  -5 -15   1 298.441 156.317   1
  -5 -15   0-78.1176 104.090   1
  -5 -15  -1 156.512 97.3783   1
  -5 -15  -1 345.176 205.663   3
  -5 -15  -2 42.2096 59.4614   3
  -5 -15  -2 130.145 121.739   1
  -5 -15  -3 170.226 143.782   3
  -5 -15  -3 151.370 91.5454   1
  -5 -15  -4 27.9894 29.7002   3
  -5 -15  -4-2.87755 50.1680   1
  -5 -15  -5 301.927 231.131   3
  -5 -15  -6-111.281 126.233   3
  -5 -15  -7-29.7331 33.3705   3
   5 -15   7 19.1059 49.9316   1
   5 -15   8-30.3823 28.4278   1
  -5 -15  -8 260.454 183.604   3
  -5 -15  -9 95.8704 103.081   3
  -5 -15 -10 64.0366 134.692   3
  -5 -15 -11 144.811 186.826   3
  -5 -14  15 503.955 432.328   1
  -5 -14  14-108.892 335.117   1
  -5 -14  13-116.340 212.432   1
  -5 -14  12 289.726 392.663   1
  -5 -14  11 176.213 237.729   1
  -5 -14  10 101.970 102.651   1
  -5 -14   9 626.270 386.910   1
  -5 -14   8 29.6489 102.842   1
  -5 -14   7 72.7705 76.9777   1
  -5 -14   6 82.1878 130.338   1
  -5 -14   5 451.810 263.188   1
   5 -14  -5 143.692 36.0115   2
  -5 -14   4 59.1391 71.1318   1
  -5 -14   3 63.5815 78.8534   1
  -5 -14   2 53.2362 77.4758   1
  -5 -14   1 1217.12 350.844   1
  -5 -14   0 413.995 196.919   1
  -5 -14  -1 1139.87 314.977   1
  -5 -14  -1 1021.31 353.146   3
  -5 -14  -2 152.250 99.4063   1
  -5 -14  -2 165.490 113.327   3
  -5 -14  -3 14.3090 72.3598   1
  -5 -14  -3 32.1295 46.2256   3
  -5 -14  -4 299.956 136.013   1
  -5 -14  -4 232.369 166.554   3
  -5 -14  -5 713.608 220.494   1
  -5 -14  -5 672.210 301.658   3
  -5 -14  -6-101.870 129.957   3
  -5 -14  -7 128.369 153.324   3
   5 -14   7 107.740 116.120   1
  -5 -14  -8 48.4112 68.3015   3
   5 -14   8-10.1614 42.9785   1
  -5 -14  -9-124.956 158.734   3
  -5 -14 -10 211.528 250.478   3
  -5 -14 -11 35.7707 147.647   3
  -5 -13  15 254.865 306.271   1
  -5 -13  14 151.548 230.705   1
  -5 -13  13 253.007 249.170   1
  -5 -13  12 160.701 229.752   1
  -5 -13  11-159.985 206.486   1
  -5 -13  10-5.33182 119.891   1
  -5 -13   9 277.318 296.131   1
  -5 -13   8 8.05895 70.3638   1
  -5 -13   7 55.7141 36.0229   1
  -5 -13   6 1077.28 404.329   1
  -5 -13   5 5.41868 85.4998   1
   5 -13  -5-45.3061 35.6346   2
  -5 -13   4-32.9146 36.4181   1
  -5 -13   3 229.368 146.890   1
  -5 -13   2 780.283 277.442   1
  -5 -13   1-12.6751 86.2936   1
  -5 -13   0 189.520 162.673   1
  -5 -13  -1 14.5594 23.3851   1
  -5 -13  -1 103.460 130.713   3
  -5 -13  -2 49.7293 48.5251   1
  -5 -13  -2 78.5126 68.6217   3
  -5 -13  -3 546.198 206.604   1
  -5 -13  -3 299.983 192.698   3
  -5 -13  -4 74.1233 66.4307   1
  -5 -13  -4 28.3192 94.4273   3
  -5 -13  -5 72.0813 65.7141   3
  -5 -13  -5 162.883 119.690   1
  -5 -13  -6 598.306 284.314   3
  -5 -13  -7 40.5563 37.2853   3
   5 -13   7 73.3410 47.1859   1
  -5 -13  -8 158.447 99.3465   3
   5 -13   8 353.702 166.651   1
  -5 -13  -9-192.726 173.506   3
  -5 -13 -10 226.689 205.297   3
  -5 -13 -11 105.752 122.898   3
  -5 -12  15 19.6042 180.947   1
  -5 -12  14 202.371 271.470   1
  -5 -12  13 177.651 225.017   1
  -5 -12  12 205.588 168.010   1
  -5 -12  11-40.3867 47.0759   1
  -5 -12  10 35.8836 68.0337   1
  -5 -12   9 61.6923 65.3319   1
  -5 -12   8 43.4885 141.963   1
  -5 -12   7 230.179 213.686   1
  -5 -12   6 206.538 191.693   1
   5 -12  -5 289.082 69.1224   2
  -5 -12   5 308.825 214.680   1
  -5 -12   4 15.1701 40.5349   1
  -5 -12   3 97.2701 79.1534   1
  -5 -12   2 2388.78 482.258   1
  -5 -12   1 352.899 200.810   1
  -5 -12   0 1665.00 372.977   1
  -5 -12  -1 327.609 168.648   1
  -5 -12  -1 271.855 177.553   3
  -5 -12  -2 410.719 186.788   1
  -5 -12  -2 229.495 180.112   3
  -5 -12  -3 441.530 220.057   3
  -5 -12  -3 549.461 183.670   1
  -5 -12  -4 79.1162 87.9172   1
  -5 -12  -4 161.125 132.515   3
  -5 -12  -5 53.4117 53.1812   3
  -5 -12  -5 234.111 108.458   1
  -5 -12  -6 42.7630 57.5981   3
   5 -12   6 141.682 118.871   1
  -5 -12  -7 208.543 209.500   3
   5 -12   7 35.7999 75.8123   1
  -5 -12  -8 404.373 243.942   3
   5 -12   8 262.926 71.3944   1
  -5 -12  -9 45.1851 80.8801   3
  -5 -12 -10-73.3830 27.0529   3
  -5 -11  16 15.8081 285.666   1
  -5 -11  15 321.840 344.460   1
  -5 -11  14-78.2160 188.357   1
  -5 -11  13 121.185 274.346   1
  -5 -11  12 50.7748 151.449   1
  -5 -11  11 169.170 180.126   1
  -5 -11  10 146.132 225.275   1
  -5 -11   9-52.0037 142.563   1
  -5 -11   8 83.7485 109.653   1
  -5 -11   7 693.160 312.753   1
  -5 -11   6-35.9225 63.8495   1
  -5 -11   5 477.217 274.503   1
  -5 -11   4-47.6565 62.7872   1
  -5 -11   3 567.185 244.363   1
  -5 -11   2 89.8553 91.3499   1
  -5 -11   1 482.382 206.518   1
  -5 -11   0 401.134 184.093   1
  -5 -11  -1 519.706 189.142   1
  -5 -11  -2 159.458 122.399   1
  -5 -11  -2 125.114 124.580   3
  -5 -11  -3 81.2913 44.2076   1
  -5 -11  -3-35.6162 89.4991   3
  -5 -11  -4-54.3677 70.3658   1
  -5 -11  -4 32.7269 39.8810   3
  -5 -11  -5 358.705 184.709   3
  -5 -11  -5 379.682 131.890   1
   5 -11   6-26.4886 54.9044   1
  -5 -11  -6 73.0886 143.598   3
  -5 -11  -6 61.5765 30.9550   1
   5 -11   7 824.435 210.431   1
  -5 -11  -7 434.914 245.914   3
  -5 -11  -8 69.3220 59.3673   3
   5 -11   8-124.984 121.330   1
  -5 -11  -9 117.412 176.144   3
  -5 -11 -10 54.2742 59.0946   3
  -5 -10  16 197.773 385.914   1
  -5 -10  15 189.427 293.866   1
  -5 -10  14 213.441 355.556   1
  -5 -10  13-154.838 227.559   1
  -5 -10  12 242.341 224.760   1
  -5 -10  11-140.749 118.680   1
  -5 -10  10 3.58837 192.813   1
  -5 -10   9 176.478 208.345   1
  -5 -10   8-164.349 170.470   1
  -5 -10   7 23.1199 108.342   1
  -5 -10   6 207.650 155.306   1
  -5 -10   5-45.8460 84.3209   1
   5 -10  -4 1855.09 215.339   2
  -5 -10   4 1965.63 467.476   1
  -5 -10   3 397.524 213.191   1
  -5 -10   2-59.2469 33.5386   1
  -5 -10   1-33.5919 30.6751   1
  -5 -10   0 228.691 138.396   1
  -5 -10  -1 94.5575 99.0926   1
  -5 -10  -2-11.4611 10.2479   1
  -5 -10  -2 59.0227 101.043   3
  -5 -10  -3 87.0104 89.6612   1
  -5 -10  -3 24.8473 73.3332   3
  -5 -10  -4 1887.39 297.746   1
  -5 -10  -4 1695.20 418.162   3
  -5 -10  -5 189.088 167.678   3
  -5 -10  -5 32.2117 48.1477   1
  -5 -10  -6 131.827 69.6245   3
  -5 -10  -6 351.874 112.332   1
   5 -10   6 283.946 99.2547   1
  -5 -10  -7 90.6745 110.419   3
  -5 -10  -7 40.2678 35.6004   1
  -5 -10  -7 65.7157 67.9529   1
   5 -10   7 224.771 117.982   1
   5 -10   8 64.3485 30.9428   1
  -5 -10  -8 5.65595 105.777   3
  -5 -10  -9 150.461 99.6456   3
  -5 -10 -10 57.8105 51.5141   3
  -5  -9  16 47.3202 321.823   1
  -5  -9  15 145.968 325.570   1
  -5  -9  14 458.511 402.830   1
  -5  -9  13-38.2865 87.7506   1
  -5  -9  12 9.02284 84.5418   1
  -5  -9  11 238.185 249.725   1
  -5  -9  10-29.9499 163.603   1
  -5  -9   9 115.135 161.757   1
  -5  -9   8 28.1715 91.4508   1
  -5  -9   7 159.194 186.849   1
  -5  -9   6 946.743 351.296   1
  -5  -9   5 97.9456 167.931   1
   5  -9  -4 15.8342 47.4362   2
  -5  -9   4 109.982 130.246   1
  -5  -9   3 242.090 181.632   1
  -5  -9   2 786.764 272.825   1
  -5  -9   1 112.300 98.2936   1
  -5  -9   0 188.632 157.037   1
   5  -9   0-50.6298 78.4728   1
  -5  -9  -1 1.76904 51.7522   1
  -5  -9  -2 46.6447 90.1258   3
  -5  -9  -2 6.28379 40.1232   1
  -5  -9  -3 62.2711 76.1363   1
  -5  -9  -3 82.3852 141.733   3
  -5  -9  -4 87.3584 94.9999   3
  -5  -9  -4 150.085 83.0264   1
  -5  -9  -5-40.6202 72.0865   3
  -5  -9  -5 43.5517 60.4510   1
  -5  -9  -6 176.994 133.473   3
   5  -9   6 249.432 83.2832   1
  -5  -9  -6 153.286 80.2296   1
  -5  -9  -7-23.8211 35.3740   1
   5  -9   7-10.2841 55.1095   1
  -5  -9  -7-16.0887 23.9029   1
  -5  -9  -8-41.4858 140.363   3
  -5  -9  -8-1.73240 17.9497   1
   5  -9   8 116.627 72.6282   1
  -5  -9  -8 42.8114 16.1931   1
  -5  -9  -9 269.620 212.237   3
  -5  -9 -10 420.635 253.928   3
  -5  -8  16 418.577 363.623   1
  -5  -8  15 296.285 245.605   1
  -5  -8  14 51.3055 345.167   1
  -5  -8  13 333.163 318.252   1
  -5  -8  12 43.7230 205.739   1
  -5  -8  11 226.766 254.373   1
  -5  -8  10-40.8321 115.150   1
  -5  -8   9 452.632 290.283   1
  -5  -8   8 87.9775 10.1097   1
  -5  -8   7 709.281 327.786   1
  -5  -8   6 372.103 222.430   1
  -5  -8   5 1902.99 468.572   1
   5  -8  -4 378.788 114.959   2
  -5  -8   4 160.916 86.7345   1
   5  -8  -3 11.6960 93.5251   2
  -5  -8   3 218.714 149.459   1
  -5  -8   2 374.988 160.380   1
  -5  -8   1 1300.26 309.175   1
   5  -8  -1 1378.52 310.339   1
  -5  -8   0 50.1135 38.4277   1
   5  -8   0 18.4690 43.9802   1
  -5  -8  -1 373.991 145.811   1
  -5  -8  -2 66.1578 49.1463   1
  -5  -8  -2 98.3331 145.691   3
  -5  -8  -3 2025.34 297.283   1
  -5  -8  -3 1676.10 404.122   3
  -5  -8  -4 62.0898 67.9649   1
  -5  -8  -4-57.0298 103.134   3
  -5  -8  -5 2001.80 248.830   1
  -5  -8  -5 1828.16 418.793   3
  -5  -8  -6 206.992 114.250   3
  -5  -8  -6 156.440 61.3033   1
   5  -8   6 195.186 80.9880   1
  -5  -8  -7 26.9522 113.216   3
  -5  -8  -7 40.0378 34.0886   1
  -5  -8  -7 5.61282 30.7503   1
   5  -8   7-43.2665 61.2289   1
  -5  -8  -8-124.220 132.916   3
   5  -8   8 63.0173 33.0822   1
  -5  -8  -9 153.227 152.429   3
  -5  -8 -10 176.942 193.425   3
  -5  -7  16 365.169 460.058   1
  -5  -7  15 97.9866 227.379   1
  -5  -7  14 203.645 267.022   1
  -5  -7  13-32.0612 48.7839   1
  -5  -7  12-59.7474 38.7320   1
  -5  -7  11 231.809 188.636   1
  -5  -7  10 429.718 333.250   1
  -5  -7   9 17.8022 125.661   1
  -5  -7   8-28.9324 98.3346   1
  -5  -7   7 328.029 188.796   1
  -5  -7   6 692.767 295.865   1
  -5  -7   5-86.5322 120.226   1
  -5  -7   4 26.1107 58.9446   1
  -5  -7   3 573.193 227.702   1
   5  -7  -3 181.572 44.4642   2
  -5  -7   2 168.890 112.342   1
   5  -7  -1 194.079 112.492   1
  -5  -7   1 224.653 137.290   1
  -5  -7   0-43.8889 73.6504   1
   5  -7   0 8.05292 46.2752   1
  -5  -7  -1 615.612 177.341   1
   5  -7   1 613.044 196.772   1
  -5  -7  -2 506.341 202.874   3
  -5  -7  -2 598.154 160.948   1
  -5  -7  -3 90.1446 95.1291   3
  -5  -7  -3-72.9360 47.3235   1
  -5  -7  -4-5.18821 29.5524   1
  -5  -7  -4 140.150 132.500   3
  -5  -7  -5 56.3985 93.2687   3
  -5  -7  -5 36.7311 36.2103   1
  -5  -7  -6 256.277 187.022   3
  -5  -7  -6 76.7605 44.6456   1
  -5  -7  -6 57.4818 36.6343   1
   5  -7   6 152.837 61.2323   1
  -5  -7  -7 150.713 138.467   3
   5  -7   7-11.1932 31.8870   1
  -5  -7  -8 162.761 155.657   3
   5  -7   8-31.7918 38.5233   1
  -5  -7  -9-18.3885 57.2589   3
  -5  -7 -10 149.448 125.023   3
  -5  -6  16 113.840 303.133   1
  -5  -6  15 66.4254 177.716   1
  -5  -6  14 407.739 385.209   1
  -5  -6  13-152.266 255.992   1
  -5  -6  12 11.9568 105.237   1
  -5  -6  11 125.120 169.746   1
  -5  -6  10 149.078 196.620   1
  -5  -6   9-24.2494 84.3247   1
  -5  -6   8 84.0255 160.069   1
  -5  -6   7 66.7579 119.209   1
  -5  -6   6 1550.11 435.496   1
  -5  -6   5 181.038 161.203   1
  -5  -6   4 180.240 133.291   1
   5  -6  -3 89.0732 48.1658   2
  -5  -6   3 165.015 119.438   1
   5  -6  -2 364.860 153.674   1
   5  -6  -2 308.170 90.9690   2
  -5  -6   2 346.592 171.140   1
   5  -6  -1 129.801 99.8897   1
  -5  -6   1 373.768 202.958   2
  -5  -6   1 159.272 102.668   1
  -5  -6   0 4397.09 584.484   2
   5  -6   0 4594.32 527.852   1
  -5  -6   0 4125.35 496.272   1
   5  -6   1 825.020 203.169   1
  -5  -6  -1 697.943 188.301   1
   5  -6   2 114.087 70.7047   1
  -5  -6  -2 293.030 114.239   1
  -5  -6  -3 78.2372 53.0493   1
  -5  -6  -3 128.016 84.6705   3
  -5  -6  -4 1533.76 194.478   1
  -5  -6  -4 1495.53 356.303   3
  -5  -6  -5-4.77912 16.3412   1
  -5  -6  -5-39.7004 23.5295   3
  -5  -6  -6 524.501 224.258   3
   5  -6   6 659.982 132.765   1
  -5  -6  -7 26.9104 73.0807   3
   5  -6   7-45.2468 41.0512   1
  -5  -6  -8 134.995 136.105   3
   5  -6   8-34.6111 34.9574   1
  -5  -6  -9-58.8602 44.8180   3
  -5  -5  16 55.3445 104.275   1
  -5  -5  15 49.5636 240.778   1
  -5  -5  14 147.194 175.000   1
  -5  -5  13-172.903 285.669   1
  -5  -5  12 141.719 188.538   1
  -5  -5  11 196.582 153.492   1
  -5  -5  10 110.407 94.8687   1
  -5  -5   9 106.872 206.290   1
  -5  -5   8 137.985 184.739   1
  -5  -5   7 1510.83 454.491   1
  -5  -5   6 77.8255 83.8794   1
  -5  -5   5 272.198 181.717   1
  -5  -5   4 197.844 151.883   1
   5  -5  -3 740.025 164.625   2
  -5  -5   3 618.998 206.070   1
   5  -5  -2 168.669 138.442   1
   5  -5  -2-170.758 148.621   2
   5  -5  -1 126.296 59.1831   1
  -5  -5   1 259.092 134.851   2
  -5  -5   1 259.156 106.341   1
   5  -5   0 56.3812 49.9052   1
  -5  -5   0 26.6485 110.283   2
  -5  -5   0 82.5989 49.6322   1
  -5  -5  -1 1194.94 244.282   1
   5  -5   1 1038.46 219.675   1
   5  -5   2 221.867 95.8856   1
  -5  -5  -2 200.842 93.6716   1
  -5  -5  -3 317.122 174.779   3
  -5  -5  -3 325.984 101.093   1
   5  -5   3 274.625 88.7876   1
  -5  -5  -4 408.553 91.4615   1
   5  -5   4 375.629 103.661   1
  -5  -5  -4 384.249 173.322   3
  -5  -5  -5 505.520 200.321   3
   5  -5   5 549.702 105.963   1
  -5  -5  -6 79.8349 96.5786   3
   5  -5   6 110.498 39.1655   1
  -5  -5  -7 671.821 251.207   3
  -5  -5  -8 198.056 129.995   3
  -5  -5  -9 74.2140 160.723   3
  -5  -4  16-242.485 107.398   1
  -5  -4  15-126.101 147.982   1
  -5  -4  14-268.769 191.084   1
  -5  -4  13-46.1253 67.3549   1
  -5  -4  12 263.475 227.797   1
  -5  -4  11-187.360 83.6580   1
  -5  -4  10-126.577 183.151   1
  -5  -4   9 126.946 154.266   1
  -5  -4   8 520.193 273.626   1
  -5  -4   7-126.177 142.029   1
  -5  -4   6 23.9471 103.857   1
  -5  -4   5 171.109 137.038   1
  -5  -4   4-50.4639 94.3816   1
  -5  -4   3-13.8788 69.0714   1
   5  -4  -3 198.827 140.827   2
   5  -4  -2 685.720 208.240   1
   5  -4  -2 495.196 119.639   2
  -5  -4   2 503.991 172.713   1
  -5  -4   2 795.948 256.316   2
   5  -4  -1 549.004 178.992   1
   5  -4  -1 558.575 159.799   2
  -5  -4   1 449.410 157.098   2
  -5  -4   1 374.705 139.714   1
  -5  -4   0 1533.69 321.930   2
   5  -4   0 1450.45 271.242   1
  -5  -4   0 1551.99 283.152   1
   5  -4   1 66.3907 63.1387   1
  -5  -4  -1-11.8091 110.346   2
  -5  -4  -1-42.5689 63.8021   1
   5  -4   2 104.061 83.6556   1
  -5  -4  -2 134.179 34.1509   1
  -5  -4  -3 743.570 129.476   1
  -5  -4  -3 801.783 248.934   3
   5  -4   3 818.531 152.661   1
  -5  -4  -4 151.472 45.6814   1
  -5  -4  -4 259.987 142.388   3
   5  -4   4 224.436 67.2135   1
   5  -4   5 1022.07 125.100   1
   5  -4   5 1124.84 126.249   1
  -5  -4  -5 1559.45 344.975   3
  -5  -4  -6-5.51129 47.5996   3
  -5  -4  -7 54.7849 78.7013   3
  -5  -4  -8 500.914 232.688   3
  -5  -4  -9 146.557 152.484   3
  -5  -3  16 184.914 164.817   1
  -5  -3  15 387.779 297.311   1
  -5  -3  14 204.713 109.441   1
  -5  -3  13 239.695 313.238   1
  -5  -3  12 441.549 326.471   1
  -5  -3  11 130.807 102.888   1
  -5  -3  10 282.651 252.085   1
  -5  -3   9-122.038 131.064   1
  -5  -3   8 414.032 268.058   1
  -5  -3   7 54.9206 69.5710   1
  -5  -3   6 1194.49 376.308   1
  -5  -3   5-20.1569 114.249   1
  -5  -3   4 579.055 228.285   1
  -5  -3   3 51.8594 72.3860   1
  -5  -3   3 537.276 269.484   2
   5  -3  -2 236.705 111.779   1
  -5  -3   2 412.120 167.054   1
   5  -3  -2 299.270 116.439   2
  -5  -3   2 295.793 143.173   2
   5  -3  -1 20.5595 63.6894   1
   5  -3  -1-123.893 148.807   2
  -5  -3   1-41.7288 75.4703   1
  -5  -3   1-59.7677 91.9127   2
   5  -3   0 575.503 193.357   1
   5  -3   0 337.413 112.929   2
  -5  -3   0 440.568 58.4639   2
  -5  -3   0 549.515 160.376   1
  -5  -3  -1 261.490 91.6497   2
  -5  -3  -1 286.063 116.468   1
   5  -3   1 210.171 98.3380   1
   5  -3   2 563.643 137.955   1
  -5  -3  -2 514.861 129.158   1
   5  -3   3 403.909 103.324   1
  -5  -3  -3 384.838 90.2589   1
  -5  -3  -3 495.669 176.400   3
   5  -3   4 1.90723 15.9458   1
  -5  -3  -4-32.1805 31.9129   3
  -5  -3  -5 181.615 107.993   3
  -5  -3  -6 1248.96 326.991   3
  -5  -3  -7 12.6157 43.3567   3
  -5  -3  -8 75.2536 108.612   3
  -5  -3  -9 214.952 177.849   3
  -5  -2  16 114.173 279.451   1
  -5  -2  15 109.289 221.520   1
  -5  -2  14-19.8193 112.897   1
  -5  -2  13 243.805 320.365   1
  -5  -2  12 60.1728 242.622   1
  -5  -2  11 7.32967 181.284   1
  -5  -2  10 103.193 204.633   1
  -5  -2   9 434.100 287.285   1
  -5  -2   8 318.960 222.948   1
  -5  -2   7-26.2621 43.5096   1
  -5  -2   6-134.922 157.849   1
  -5  -2   5 571.030 266.979   1
  -5  -2   4 101.816 76.0563   1
  -5  -2   3 117.636 58.5999   1
  -5  -2   3 738.654 281.236   2
  -5  -2   2-9.42005 89.1728   1
   5  -2  -2 45.9630 90.3092   1
  -5  -2   2-111.536 129.339   2
   5  -2  -2 94.4950 119.610   2
  -5  -2   1 3824.77 470.976   2
   5  -2  -1 3757.38 437.498   2
  -5  -2   1 3689.59 472.233   1
   5  -2  -1 3877.83 476.456   1
  -5  -2   0-75.1342 83.7877   1
   5  -2   0 76.0592 81.3574   1
  -5  -2   0-29.6454 80.5241   2
   5  -2   0-67.8232 138.566   2
  -5  -2  -1 114.210 56.3139   1
   5  -2   1 157.782 62.8201   1
   5  -2   1-94.0925 149.548   2
  -5  -2  -2 105.466 56.0813   1
   5  -2   2-17.9029 26.3728   1
   5  -2   3 133.554 47.9695   1
  -5  -2  -3 58.6354 33.9150   1
  -5  -2  -3 43.9519 44.5692   3
  -5  -2  -4 452.395 162.341   3
  -5  -2  -5 81.6084 100.698   3
  -5  -2  -6 626.363 222.102   3
  -5  -2  -7 177.852 116.760   3
  -5  -2  -8-3.23926 63.6624   3
  -5  -2  -9 625.839 248.892   3
   5  -2  15 1024.26 552.284   2
  -5  -1  16 360.804 392.784   1
  -5  -1  15-52.5005 66.3511   1
  -5  -1  14 113.544 170.128   1
  -5  -1  13 16.4392 114.770   1
  -5  -1  12-139.214 213.629   1
  -5  -1  11 490.241 304.740   1
  -5  -1  10 129.499 267.675   1
  -5  -1   9-106.065 91.7996   1
  -5  -1   8 201.613 149.827   1
  -5  -1   7 612.731 270.971   1
  -5  -1   6 70.3474 81.5976   1
  -5  -1   5 259.027 175.427   1
  -5  -1   4 179.022 104.685   1
  -5  -1   4 513.241 187.436   2
  -5  -1   3 88.3914 88.0669   1
  -5  -1   3 244.392 108.704   2
  -5  -1   2 176.055 104.007   1
  -5  -1   2 23.7997 105.379   2
   5  -1  -2 155.318 135.138   1
   5  -1  -2 356.791 174.547   2
  -5  -1   1 29.6192 36.4348   1
  -5  -1   1-58.5521 112.817   2
   5  -1  -1 150.855 112.957   1
   5  -1  -1 167.107 79.4680   2
  -5  -1   0 260.830 95.3830   1
   5  -1   0 174.880 45.8416   2
   5  -1   0 240.419 88.7509   1
  -5  -1  -1 121.548 86.7938   1
   5  -1   1-40.5035 142.074   2
   5  -1   1 123.195 54.3004   1
  -5  -1  -2 114.295 67.0466   1
   5  -1   2-31.8360 48.6695   1
  -5  -1  -3 432.948 149.773   3
   5  -1   3 354.545 88.6216   1
  -5  -1  -4 51.4998 68.6142   3
  -5  -1  -5 751.374 236.717   3
  -5  -1  -6 24.1781 57.2349   3
  -5  -1  -7 24.2005 46.0757   3
  -5  -1  -8 68.9754 71.5153   3
   5  -1  15 828.942 510.013   2
  -5   0  16 13.0287 259.573   1
  -5   0  15 183.292 186.134   1
  -5   0  14-10.9477 197.619   1
  -5   0  13 149.641 168.715   1
  -5   0  12-30.9662 112.976   1
  -5   0  11 811.553 406.148   1
  -5   0  10 1062.78 414.880   1
  -5   0   9 371.931 232.159   1
  -5   0   8 83.5303 35.4335   1
  -5   0   7 89.5515 94.2182   1
  -5   0   6 1689.78 440.580   1
  -5   0   5 282.093 167.769   1
  -5   0   4 404.680 152.762   1
  -5   0   4 548.573 165.108   2
  -5   0   3 117.657 78.5054   1
  -5   0   3 214.804 91.2440   2
  -5   0   2 4619.63 480.208   2
  -5   0   2 4145.07 531.441   1
   5   0  -2 4421.84 533.643   1
  -5   0   1 58.3517 69.4028   1
  -5   0   1-44.3588 135.058   2
   5   0  -1 143.062 99.0716   2
   5   0  -1 97.9792 120.097   1
   5   0   0 1886.82 319.029   2
  -5   0   0 1943.97 309.297   1
   5   0   0 1934.28 310.132   1
   5   0   1 366.415 141.401   2
   5   0   1 398.003 121.301   1
  -5   0  -1 462.627 126.814   1
   5   0   2 19.1344 23.4706   1
  -5   0  -2 2.59372 8.70340   1
   5   0   3-31.6752 37.8006   1
  -5   0  -3 111.416 102.365   3
  -5   0  -4 93.0359 69.1513   3
  -5   0  -5 510.876 184.681   3
  -5   0  -6 14.2685 45.6702   3
  -5   0  -7 181.084 127.643   3
  -5   0  -8 330.389 154.332   3
   5   0  13 538.846 360.109   2
   5   0  14 1073.10 531.819   2
   5   0  15 1020.16 522.124   2
  -5   1  16 33.2093 57.8417   1
  -5   1  15-154.241 111.079   1
  -5   1  14-65.6051 47.2782   1
  -5   1  13 33.5610 61.8175   1
  -5   1  12-5.94362 158.350   1
  -5   1  11 358.636 282.239   1
  -5   1  10-151.720 186.449   1
  -5   1   9 31.0681 93.9466   1
  -5   1   8 1.28317 110.272   1
  -5   1   7 475.751 251.540   1
  -5   1   6 190.160 147.787   1
  -5   1   5 177.418 136.398   1
  -5   1   5 250.017 110.439   2
  -5   1   4 269.160 133.571   1
  -5   1   4 204.362 4.68965   2
  -5   1   3 167.239 107.113   1
  -5   1   3-28.2283 116.760   2
  -5   1   2 130.679 93.3503   1
  -5   1   2 43.0890 85.8641   2
   5   1  -2 105.536 104.673   1
  -5   1   1 60.8924 9.11923   1
   5   1  -1 391.598 182.763   2
   5   1  -1 121.717 108.097   1
   5   1   0 212.821 107.693   2
   5   1   0 345.641 127.362   1
  -5   1   0 183.248 76.5356   1
   5   1   1-41.4881 102.985   2
  -5   1  -1 8.85922 9.83408   1
   5   1   1 123.655 78.6864   1
   5   1   2 27.0353 38.9123   1
   5   1   2-61.2442 116.319   2
   5   1   3 312.365 77.3782   1
   5   1   3 286.775 91.2388   2
   5   1   4-200.570 196.634   2
  -5   1  -4 17.5687 57.0007   3
  -5   1  -5 534.195 168.513   3
  -5   1  -6-50.5971 65.0230   3
  -5   1  -7 54.6861 41.9277   3
  -5   1  -8 25.0236 82.1102   3
   5   1  12 563.855 324.432   2
   5   1  13 680.101 385.854   2
   5   1  14 957.952 513.684   2
   5   1  15 1177.31 555.594   2
  -5   2  15 153.357 80.3085   1
  -5   2  14 127.663 205.510   1
  -5   2  13-71.5748 152.335   1
  -5   2  12 47.7017 241.401   1
  -5   2  11 233.397 210.293   1
  -5   2  10 128.572 104.133   1
  -5   2   9 510.659 262.086   1
  -5   2   8 0.71919 92.7526   1
  -5   2   7 43.3286 37.4286   1
  -5   2   6-35.7967 103.584   1
  -5   2   6 188.778 107.177   2
  -5   2   5 532.357 201.986   1
  -5   2   5 531.259 111.811   2
  -5   2   4 265.792 134.628   1
  -5   2   4 252.748 30.9112   2
  -5   2   3 25.6482 13.2766   1
  -5   2   3-0.84823 82.3379   2
   5   2  -2-73.9454 131.511   1
  -5   2   2 19.3324 62.1675   1
  -5   2   1 3649.67 465.800   1
   5   2  -1 3669.23 453.470   1
   5   2   0-61.1934 49.6080   1
   5   2   0 86.7726 116.235   2
  -5   2   0 3.76934 53.5692   1
   5   2   1 91.8113 48.0059   1
   5   2   1 86.9232 80.9479   2
   5   2   2-93.8581 97.2635   2
   5   2   2 105.300 66.3251   1
   5   2   3 41.0795 8.38466   1
   5   2   3-279.628 192.967   2
   5   2   4 33.4331 89.8586   2
  -5   2  -4 209.503 88.6441   3
   5   2   5-185.333 187.755   2
  -5   2  -5 88.3621 63.9609   3
  -5   2  -6 683.663 191.617   3
   5   2   6-185.379 231.222   2
  -5   2  -7 164.159 125.899   3
   5   2   7 54.3484 87.7948   2
   5   2   8 266.130 230.601   2
   5   2   9 903.135 371.596   2
   5   2  10 953.598 419.167   2
   5   2  11 586.279 371.622   2
   5   2  12 307.017 331.518   2
   5   2  13 688.983 402.151   2
   5   2  14 994.003 503.111   2
  -5   3  14 162.940 133.186   1
  -5   3  13 125.200 125.884   1
  -5   3  12 520.006 324.307   1
  -5   3  11-26.1721 156.801   1
  -5   3  10 128.051 128.459   1
  -5   3   9-16.9841 68.1505   1
  -5   3   8 773.367 346.522   1
  -5   3   7 136.098 67.9376   2
  -5   3   7-3.44953 62.2200   1
  -5   3   6 1451.49 202.929   2
  -5   3   6 1317.90 372.816   1
  -5   3   5 6.92578 82.1089   2
  -5   3   5-7.85772 87.7414   1
  -5   3   4 575.121 221.101   1
  -5   3   3 44.8279 69.2293   1
   5   3  -2 349.131 156.504   1
  -5   3   2 306.023 122.139   1
   5   3  -1 81.1094 85.0568   1
  -5   3   1 51.8731 25.5774   1
   5   3   0 468.952 134.498   1
   5   3   0 847.473 264.394   2
  -5   3   0 461.497 156.792   1
   5   3   1 241.218 98.6958   1
   5   3   1 355.439 182.778   2
   5   3   2 483.573 123.723   1
   5   3   2 420.973 146.192   2
   5   3   3 127.630 67.7327   2
   5   3   4-342.713 191.995   2
  -5   3  -4-3.43186 17.8108   3
  -5   3  -5 229.849 111.225   3
   5   3   5-333.333 233.682   2
   5   3   6 749.673 197.970   2
  -5   3  -6 1188.70 230.271   3
  -5   3  -7 36.9202 41.6350   3
   5   3   7-109.569 122.068   2
   5   3   8 341.675 227.447   2
   5   3   9 168.116 190.333   2
   5   3  10 973.899 423.694   2
   5   3  11 830.657 426.346   2
   5   3  12 849.247 435.977   2
   5   3  13 1020.91 473.229   2
   5   3  14 1111.17 523.018   2
  -5   4  14-57.9956 168.371   1
  -5   4  13-56.4109 87.9297   1
  -5   4  12 70.0078 109.739   1
  -5   4  11-134.319 158.334   1
  -5   4  10-0.09476 30.0069   1
  -5   4   9-74.5329 112.330   1
  -5   4   8 220.951 70.4331   2
  -5   4   8 446.498 267.204   1
  -5   4   7 23.1200 40.8615   2
  -5   4   7-2.07458 17.2099   1
  -5   4   6-30.0581 53.9520   2
  -5   4   6 0.42925 83.5659   1
  -5   4   5 232.124 111.330   1
  -5   4   4 43.8792 110.883   1
  -5   4   3 77.7265 83.7043   1
   5   4  -2 640.253 231.600   1
  -5   4   2 557.344 197.292   1
   5   4  -1 539.211 188.641   1
  -5   4   1 604.983 185.868   1
   5   4   0 1497.18 339.034   2
   5   4   0 1281.75 262.172   1
   5   4   1 159.106 115.288   2
   5   4   1 21.7731 30.0919   1
   5   4   2 149.115 66.9049   1
   5   4   2 94.7667 32.2805   2
   5   4   3 600.101 198.592   2
  -5   4  -4 225.125 109.026   3
   5   4   4-27.1118 101.923   2
   5   4   5 993.326 247.695   2
  -5   4  -5 1555.87 244.747   3
  -5   4  -6 36.3839 48.1222   3
   5   4   6-565.086 338.020   2
  -5   4  -7 33.8199 20.2314   3
   5   4   7-27.8737 85.7515   2
   5   4   8 455.969 270.740   2
   5   4   9 462.975 303.206   2
   5   4  10 829.761 409.508   2
   5   4  11 968.940 453.373   2
   5   4  12 831.503 420.699   2
   5   4  13 946.576 465.461   2
   5   4  14 680.875 405.415   2
  -5   5  12-19.9752 151.358   1
  -5   5  11 249.464 160.250   1
  -5   5  10 243.313 228.722   1
  -5   5   9 71.8020 163.177   1
  -5   5   8 45.5624 95.6744   1
  -5   5   7 1436.67 403.246   1
  -5   5   6-46.2541 98.6768   1
  -5   5   5 308.287 199.745   1
  -5   5   4 91.0046 88.8505   1
  -5   5   3 761.636 231.431   1
   5   5  -2 9.96956 80.1255   1
  -5   5   2 128.112 105.919   1
   5   5  -1 290.676 146.279   1
   5   5   0 220.536 134.031   1
   5   5   1 990.895 207.079   1
   5   5   1 1395.55 330.138   2
   5   5   2 442.497 201.346   2
   5   5   2 44.7781 14.1480   1
   5   5   3 104.191 92.8749   2
  -5   5  -4 509.615 135.019   3
   5   5   4 415.111 172.892   2
  -5   5  -5 640.745 145.274   3
   5   5   5 118.237 63.7547   2
  -5   5  -6 181.360 83.8148   3
   5   5   6-268.511 250.085   2
   5   5   7 393.645 191.709   2
   5   5   8 488.738 270.349   2
   5   5   9 456.238 272.734   2
   5   5  10 1160.48 440.451   2
   5   5  11 1399.67 509.329   2
   5   5  12 417.457 315.760   2
   5   5  13 637.763 386.852   2
   5   5  14 864.476 411.899   2
  -5   6  11-31.6354 103.022   1
  -5   6  10-216.771 171.655   1
  -5   6   9 25.8533 99.4438   1
  -5   6   8 58.2900 91.7046   1
  -5   6   7-7.27251 61.9519   1
  -5   6   6 1641.96 448.975   1
  -5   6   5 191.632 130.010   1
  -5   6   4 176.958 125.615   1
  -5   6   3 355.963 163.858   1
   5   6  -2 223.905 29.5550   1
   5   6  -1 316.970 126.621   1
   5   6   0 4233.47 479.836   1
   5   6   1 624.582 155.687   1
   5   6   2 408.052 217.519   2
   5   6   3 107.614 104.516   2
   5   6   4 1583.84 366.217   2
  -5   6  -4 1428.41 201.636   3
  -5   6  -5 66.9551 59.4759   3
   5   6   5-35.8222 64.9565   2
  -5   6  -6 524.536 128.892   3
   5   6   6 272.877 95.1458   2
   5   6   7 6.69581 60.7977   2
   5   6   8 199.322 165.281   2
   5   6   9 212.016 228.732   2
   5   6  10 495.781 326.836   2
   5   6  11 1181.56 455.040   2
   5   6  12 819.488 388.442   2
   5   6  13 378.044 282.919   2
   5   6  14 716.595 407.234   2
  -5   7   9 75.0012 214.101   1
  -5   7   8 17.0881 142.702   1
  -5   7   7 398.746 230.449   1
  -5   7   6 579.717 262.679   1
  -5   7   5-35.5279 92.1682   1
   5   7  -1 119.635 115.758   1
   5   7   0-21.7163 71.2117   1
   5   7   1 663.092 181.096   1
   5   7   2 1112.88 318.382   2
   5   7   3 62.9827 93.7148   2
   5   7   4 196.723 164.345   2
  -5   7  -4 25.9298 25.2940   3
  -5   7  -5 50.6979 48.4360   3
   5   7   5-18.3612 42.8305   2
   5   7   6-199.676 183.698   2
   5   7   7-48.0199 101.348   2
   5   7   8 295.819 217.964   2
   5   7   9 317.630 236.049   2
   5   7  10 479.236 298.819   2
   5   7  11 717.922 381.708   2
   5   7  12 709.598 387.515   2
   5   7  13 566.290 364.332   2
   5   7  14 741.326 395.958   2
   5   8  -1 1173.74 256.509   1
   5   8   0 19.0588 69.3078   1
   5   8   1 310.997 109.245   1
   5   8   3 1886.71 390.982   2
   5   8   4 94.5984 122.967   2
  -5   8  -4 25.7787 29.4778   3
   5   8   5 2000.15 432.994   2
  -5   8  -5 1188.06 145.918   3
   5   8   6 177.503 130.682   2
   5   8   7-185.263 171.254   2
   5   8   8-19.5166 251.361   2
   5   8   9 180.794 168.050   2
   5   8  10 338.961 237.985   2
   5   8  11 528.989 312.866   2
   5   8  12 953.990 399.705   2
   5   8  13 359.466 277.285   2
   5   9  -1 18.3751 50.1878   1
   5   9   0 17.8353 38.0806   1
   5   9   3 300.238 196.003   2
   5   9   4 325.914 186.432   2
  -5   9  -4 59.9344 33.4643   3
   5   9   5 537.568 277.206   2
   5   9   6 206.879 149.785   2
   5   9   7-162.169 186.995   2
   5   9   8-271.583 203.606   2
   5   9   9-35.3987 115.665   2
   5   9  10 289.903 209.656   2
   5   9  11 161.445 188.784   2
   5   9  12 309.381 229.401   2
   5   9  13 142.152 205.482   2
   5  10   0 94.9246 112.061   1
   5  10   4 2561.19 500.225   2
   5  10   5 694.292 307.230   2
   5  10   6 361.211 177.242   2
   5  10   7-38.8666 112.495   2
   5  10   8-151.669 153.304   2
   5  10   9-194.476 194.240   2
   5  10  10-148.820 180.765   2
   5  10  11 256.367 199.386   2
   5  10  12 147.960 153.066   2
   5  10  13 18.6384 32.6117   2
   5  11   5 1309.40 411.208   2
   5  11   6 72.8648 134.419   2
   5  11   7 332.972 160.971   2
   5  11   8-323.873 230.368   2
   5  11   9-122.534 176.313   2
   5  11  10-711.888 334.992   2
   5  11  11 730.989 310.186   2
   5  11  12-21.7959 93.5252   2
   5  11  13-88.2120 177.631   2
  -5  12  -3 402.482 94.5946   3
   5  12   6 432.248 234.975   2
   5  12   7-52.0766 94.8459   2
   5  12   8-63.5724 178.433   2
   5  12   9-397.890 280.685   2
   5  12  10-429.707 297.857   2
   5  12  11-462.099 304.882   2
   5  12  12-414.183 318.350   2
   5  12  13-539.615 359.360   2
  -5  13  -3 339.607 86.8108   3
   5  13   8-177.602 174.257   2
   5  13   9-487.959 310.896   2
   5  13  10-264.190 218.147   2
   5  13  11-563.116 355.611   2
   5  13  12-353.667 292.751   2
  -5  14  -1 973.060 223.545   3
  -5  14  -2 163.296 60.5440   3
  -5  14  -3 36.6013 30.6498   3
  -5  15   0-28.4746 80.4044   3
  -5  15  -1 274.924 116.575   3
  -5  15  -2 21.5696 4.13311   3
  -5  15  -3 98.3757 40.7473   3
  -5  16   0 2772.28 422.054   3
  -5  16  -1 11.8725 48.0958   3
  -5  16  -2 41.6218 8.01324   3
  -5  16  -3 114.719 49.4783   3
  -5  17   0 100.977 106.127   3
  -5  17  -1-5.18124 64.3448   3
  -5  17  -2 57.2755 48.2427   3
  -5  17  -3 46.2313 28.7666   3
  -5  18   0-24.9324 77.4641   3
  -5  18  -1 406.035 138.629   3
  -5  18  -2-25.4549 9.61490   3
  -5  18  -3 321.682 97.8802   3
  -5  19   0 86.6798 105.661   3
  -5  19  -1 17.0616 12.9051   3
  -5  19  -2 224.796 101.978   3
  -5  19  -3 43.8610 45.3842   3
  -5  20  -1 119.528 71.4387   3
  -5  20  -2-8.35518 37.8760   3
  -5  20  -3 91.5023 43.8028   3
  -5  21  -1 29.3303 40.2758   3
  -5  21  -2 22.5357 54.0012   3
  -5  21  -3 49.5730 45.4139   3
  -5  22  -1 143.017 122.957   3
  -5  22  -2 37.6412 66.7957   3
  -5  22  -3 19.0823 17.8514   3
  -5  23  -1 45.7442 29.0494   3
  -5  23  -2 0.76854 45.6953   3
  -6 -40   4 62.5358 164.180   3
  -6 -40   3-339.641 316.309   3
  -6 -39   5 87.7433 219.239   3
  -6 -39   4-99.2532 162.282   3
  -6 -39   3-76.1093 167.175   3
  -6 -39   2-185.857 305.288   3
  -6 -39   1-71.2364 227.326   3
  -6 -39   0-37.7705 154.709   3
  -6 -39   0 3.22891 171.735   1
  -6 -39  -1-42.4385 181.064   1
  -6 -39  -2 13.9738 125.614   1
  -6 -39  -3 153.769 230.143   1
  -6 -39  -4 262.846 300.210   1
  -6 -39  -5 130.346 193.210   1
  -6 -38   6 46.6126 230.981   3
  -6 -38   5 344.084 417.980   3
  -6 -38   4 23.0931 303.552   3
  -6 -38   3-336.664 256.036   3
  -6 -38   2-205.122 324.589   1
  -6 -38   2-292.936 316.547   3
  -6 -38   1 29.0237 248.162   1
  -6 -38   1-277.766 354.801   3
  -6 -38   0 271.688 415.915   3
  -6 -38   0 130.304 258.304   1
  -6 -38  -1 454.989 392.893   3
  -6 -38  -1 175.624 360.731   1
  -6 -38  -2 209.297 269.483   1
  -6 -38  -3 359.315 289.292   1
  -6 -38  -4 396.478 390.389   1
  -6 -38  -5 168.525 100.193   1
  -6 -37   6 2.26608 214.580   3
  -6 -37   5 64.0829 198.118   3
  -6 -37   4 131.879 244.251   3
  -6 -37   3 180.560 40.0843   1
  -6 -37   3-131.160 262.883   3
  -6 -37   2 199.779 145.374   1
  -6 -37   2 335.775 264.880   3
  -6 -37   1-68.5460 80.2816   1
  -6 -37   1-170.274 289.521   3
  -6 -37   0 46.9210 328.195   3
  -6 -37   0 154.109 219.930   1
  -6 -37  -1-358.650 247.004   3
  -6 -37  -1 45.4168 134.384   1
  -6 -37  -2 83.5255 70.5904   1
  -6 -37  -2 5.56044 158.093   3
  -6 -37  -3 57.7755 276.445   1
  -6 -37  -4 223.011 400.506   1
  -6 -37  -5 262.533 246.122   1
  -6 -36   6 185.135 208.145   3
  -6 -36   5 66.2065 150.669   3
  -6 -36   4 261.699 254.800   1
  -6 -36   4-193.642 232.867   3
  -6 -36   3 422.409 415.008   1
  -6 -36   3 87.8099 159.738   3
  -6 -36   2 252.143 422.497   1
  -6 -36   2 491.856 385.880   3
  -6 -36   1 239.210 288.091   1
  -6 -36   1 115.046 203.019   3
  -6 -36   0 263.332 177.281   1
  -6 -36   0 341.735 364.662   3
  -6 -36  -1-110.011 58.5796   3
  -6 -36  -1 185.952 125.374   1
  -6 -36  -2-104.328 155.981   3
  -6 -36  -2 200.754 83.1625   1
  -6 -36  -3-13.8207 215.410   1
  -6 -36  -3-80.7676 232.766   3
  -6 -36  -4 222.733 286.392   1
  -6 -36  -5 216.103 292.005   1
  -6 -35   7-3.41482 132.987   3
  -6 -35   6 17.4404 300.386   3
  -6 -35   5 96.2730 246.636   3
  -6 -35   5-72.2547 361.706   1
  -6 -35   4 371.829 328.241   1
  -6 -35   4-130.744 300.550   3
  -6 -35   3 3.04229 132.442   1
  -6 -35   3-3.66813 147.563   3
  -6 -35   2 62.8598 194.258   3
  -6 -35   2 127.204 87.5603   1
  -6 -35   1 270.311 292.361   1
  -6 -35   1 309.830 331.336   3
  -6 -35   0 51.0489 229.058   1
  -6 -35   0-126.160 164.163   3
  -6 -35  -1 285.625 326.174   3
  -6 -35  -1 75.1552 138.578   1
  -6 -35  -2 138.135 152.950   1
  -6 -35  -2 101.368 242.491   3
  -6 -35  -3-76.2633 144.489   3
  -6 -35  -3 168.566 281.974   1
  -6 -35  -4 130.727 121.081   3
  -6 -35  -4-52.2749 154.944   1
  -6 -35  -5-3.66324 140.572   1
  -6 -35  -6-166.715 180.152   1
  -6 -34   7-12.6519 175.711   3
  -6 -34   6-110.729 85.1054   3
  -6 -34   6-172.521 281.104   1
  -6 -34   5 157.290 219.646   3
  -6 -34   5 15.3540 108.720   1
  -6 -34   4 422.873 382.387   1
  -6 -34   4-11.2175 206.881   3
  -6 -34   3-52.8300 24.6992   1
  -6 -34   3 106.213 169.954   3
  -6 -34   2 112.714 141.967   1
  -6 -34   2 137.186 242.110   3
  -6 -34   1-137.546 77.3058   1
  -6 -34   1 136.626 137.780   3
  -6 -34   0 262.198 209.347   3
  -6 -34   0 281.361 288.994   1
  -6 -34  -1-403.210 251.668   1
  -6 -34  -1-82.0147 113.132   3
  -6 -34  -2 82.7645 116.858   3
  -6 -34  -2 209.824 250.591   1
  -6 -34  -3-80.5174 175.749   3
  -6 -34  -3 284.468 360.667   1
  -6 -34  -4-163.372 168.730   3
  -6 -34  -4-53.1509 297.258   1
  -6 -34  -5 420.486 282.658   1
  -6 -34  -5 135.213 343.971   3
  -6 -34  -6 91.2016 50.3272   1
  -6 -33   8 327.270 327.013   3
  -6 -33   7-28.9840 165.204   1
  -6 -33   7-95.0141 131.504   3
  -6 -33   6-153.667 253.139   1
  -6 -33   6-0.51067 186.516   3
  -6 -33   5-208.240 237.793   1
  -6 -33   5-84.8543 165.380   3
  -6 -33   4 426.955 476.820   1
  -6 -33   4-41.6232 73.4972   3
  -6 -33   3-482.029 284.436   1
  -6 -33   3-27.6885 80.2889   3
  -6 -33   2 352.116 365.373   3
  -6 -33   2 130.779 287.739   1
  -6 -33   1-0.58582 108.606   1
  -6 -33   1 229.391 260.592   3
  -6 -33   0 94.4161 255.973   1
  -6 -33   0 199.805 304.334   3
  -6 -33  -1-57.8232 98.1371   1
  -6 -33  -1-168.848 169.745   3
  -6 -33  -2 48.7031 168.304   3
  -6 -33  -2 112.083 226.078   1
  -6 -33  -3 18.9944 225.588   3
  -6 -33  -3 138.321 313.497   1
  -6 -33  -4 182.358 261.784   3
  -6 -33  -4 67.7066 72.1557   1
  -6 -33  -5-56.2921 159.493   3
  -6 -33  -5 319.422 320.245   1
  -6 -33  -6 400.053 289.704   3
  -6 -33  -6 36.2304 217.357   1
  -6 -32   8 47.5791 237.851   1
  -6 -32   8 201.189 361.771   3
  -6 -32   7 97.7392 249.926   1
  -6 -32   7 588.653 424.803   3
  -6 -32   6 216.746 113.523   1
  -6 -32   6 23.5622 77.6623   3
  -6 -32   5 217.073 212.034   1
  -6 -32   5 124.003 250.033   3
  -6 -32   4 7.52132 115.503   1
  -6 -32   4-145.086 176.176   3
  -6 -32   3 322.955 318.028   1
  -6 -32   3 140.946 183.042   3
  -6 -32   2 327.894 251.040   1
  -6 -32   2-30.1316 202.955   3
  -6 -32   1 559.702 263.905   1
  -6 -32   1 734.109 413.024   3
  -6 -32   0 241.548 301.549   1
  -6 -32   0 229.637 268.938   3
  -6 -32  -1 118.719 283.764   1
  -6 -32  -1 90.8442 268.902   3
  -6 -32  -2 274.909 385.720   3
  -6 -32  -2 156.740 120.394   1
  -6 -32  -3 164.926 150.702   3
  -6 -32  -3 27.7721 75.3204   1
  -6 -32  -4 207.380 227.802   3
  -6 -32  -4-34.6127 249.575   1
  -6 -32  -5-178.114 254.076   3
  -6 -32  -5 15.4177 137.284   1
  -6 -32  -6 519.677 476.674   3
  -6 -32  -6 92.3615 238.122   1
  -6 -32  -7 192.097 195.145   3
  -6 -31   8 263.398 420.631   1
  -6 -31   7-83.2035 68.3234   1
  -6 -31   7 329.926 353.692   3
  -6 -31   6 239.473 256.612   1
  -6 -31   6 112.910 215.928   3
  -6 -31   5 55.1659 164.228   3
  -6 -31   5 149.359 213.604   1
  -6 -31   4 215.127 251.429   1
  -6 -31   4 229.741 16.9039   3
  -6 -31   3-126.906 144.909   3
  -6 -31   3-38.2864 195.484   1
  -6 -31   2 295.477 293.202   1
  -6 -31   2 138.051 119.713   3
  -6 -31   1 348.588 302.961   1
  -6 -31   1-80.7660 181.236   3
  -6 -31   0-13.2030 130.477   1
  -6 -31   0 355.281 314.972   3
  -6 -31  -1 395.134 302.940   1
  -6 -31  -1 155.317 277.581   3
  -6 -31  -2-132.502 101.926   1
  -6 -31  -2 168.224 337.165   3
  -6 -31  -3 50.2604 252.598   3
  -6 -31  -3 118.479 187.463   1
  -6 -31  -4 218.783 245.508   1
  -6 -31  -4 166.417 253.284   3
  -6 -31  -5-139.075 169.013   3
  -6 -31  -5-24.1260 62.2700   1
  -6 -31  -6-36.5736 185.860   3
  -6 -31  -6 27.5521 161.237   1
  -6 -31  -7 336.244 362.598   3
  -6 -30   9 382.382 363.881   1
  -6 -30   8-71.7406 172.844   1
  -6 -30   7-14.7577 79.7335   1
  -6 -30   6 524.813 366.079   1
  -6 -30   6-2.23449 138.095   3
  -6 -30   5 95.3418 228.555   3
  -6 -30   5 145.799 279.638   1
  -6 -30   4 54.8649 25.3800   1
  -6 -30   4-22.2055 170.523   3
  -6 -30   3 154.234 273.676   1
  -6 -30   3 123.774 260.723   3
  -6 -30   2 308.355 165.421   1
  -6 -30   2 345.669 315.585   3
  -6 -30   1 141.851 220.997   1
  -6 -30   1 63.6448 188.224   3
  -6 -30   0 567.694 279.919   1
  -6 -30   0 128.258 144.626   3
  -6 -30  -1 96.7636 52.0381   1
  -6 -30  -1-87.4213 57.5066   3
  -6 -30  -2 237.117 228.998   1
  -6 -30  -2 213.837 274.001   3
  -6 -30  -3 25.4874 53.1018   3
  -6 -30  -3 150.166 49.0387   1
  -6 -30  -4-89.7442 183.801   3
  -6 -30  -4 160.335 127.252   1
  -6 -30  -5 80.6635 217.921   3
  -6 -30  -5 138.159 109.609   1
  -6 -30  -6-133.423 225.713   3
  -6 -30  -6-40.4378 91.2414   1
  -6 -30  -7 199.698 255.492   3
  -6 -30  -8-106.256 103.241   3
  -6 -29   9 123.867 332.452   1
  -6 -29   8 234.698 76.8232   1
  -6 -29   7 71.2666 80.0323   1
  -6 -29   6-213.312 113.094   1
  -6 -29   5 259.872 215.540   1
  -6 -29   5 248.414 348.185   3
  -6 -29   4-117.780 85.3912   3
  -6 -29   4-12.3554 16.5972   1
  -6 -29   3 135.148 129.094   1
  -6 -29   3 203.842 228.672   3
  -6 -29   2-94.8983 145.186   1
  -6 -29   2 216.847 236.833   3
  -6 -29   1 92.6028 215.643   3
  -6 -29   1-39.8108 177.522   1
  -6 -29   0 50.7284 34.1030   3
  -6 -29   0-93.9743 72.9922   1
  -6 -29  -1 235.283 222.354   1
  -6 -29  -1 389.863 301.373   3
  -6 -29  -2-7.00527 29.6333   3
  -6 -29  -2-144.927 137.493   1
  -6 -29  -3 96.7126 67.1573   1
  -6 -29  -3-70.5086 117.806   3
  -6 -29  -4 461.032 362.043   3
  -6 -29  -4 122.368 176.095   1
  -6 -29  -5 236.245 213.399   3
  -6 -29  -5 300.358 213.737   1
  -6 -29  -6-400.370 396.141   3
  -6 -29  -6-29.1621 107.420   1
   6 -29   7 92.8339 39.7373   1
  -6 -29  -7-71.1202 113.690   3
  -6 -29  -8-62.2757 180.733   3
  -6 -28  10 9.22676 183.124   1
  -6 -28   9-44.1459 236.862   1
  -6 -28   8-74.4734 73.2094   1
  -6 -28   7-162.446 118.518   1
  -6 -28   6 237.870 127.894   1
  -6 -28   5 35.4951 248.845   1
  -6 -28   5 70.0401 59.9469   3
  -6 -28   4 234.960 263.434   1
  -6 -28   4 371.242 248.175   3
  -6 -28   3 67.1460 162.809   3
  -6 -28   3 102.255 79.1461   1
  -6 -28   2-111.597 220.676   1
  -6 -28   2-52.6190 39.5380   3
  -6 -28   1 133.700 156.061   1
  -6 -28   1 163.799 144.917   3
  -6 -28   0-160.773 164.464   1
  -6 -28   0 235.473 240.789   3
  -6 -28  -1 205.261 186.661   1
  -6 -28  -1 116.150 176.039   3
  -6 -28  -2 76.8981 170.840   1
  -6 -28  -2 211.078 246.717   3
  -6 -28  -3 71.0633 104.833   3
  -6 -28  -3-60.3496 49.2005   1
  -6 -28  -4 307.065 181.725   3
  -6 -28  -4 320.527 264.657   1
  -6 -28  -5-266.806 223.632   3
  -6 -28  -5-22.4532 116.289   1
  -6 -28  -6 42.9242 176.938   3
  -6 -28  -6-15.3782 177.124   1
  -6 -28  -7 38.3136 155.810   3
   6 -28   7-89.0720 196.782   1
  -6 -28  -8 88.1760 160.610   3
  -6 -28  -9-194.820 225.541   3
  -6 -27  10 676.203 480.629   1
  -6 -27   9-213.509 326.797   1
  -6 -27   8 403.408 395.961   1
  -6 -27   7-107.209 41.8486   1
  -6 -27   6 162.707 176.575   1
  -6 -27   5 108.084 213.683   1
  -6 -27   4 158.653 224.321   1
  -6 -27   4 400.882 297.239   3
  -6 -27   3-8.22754 45.6110   3
  -6 -27   3 224.306 181.808   1
  -6 -27   2 0.89435 198.943   1
  -6 -27   2 103.560 135.497   3
  -6 -27   1 127.495 213.492   1
  -6 -27   1 222.390 228.603   3
  -6 -27   0 84.4479 139.876   1
  -6 -27   0 91.2939 115.599   3
  -6 -27  -1 14.2446 97.8982   1
  -6 -27  -1-36.0380 173.213   3
  -6 -27  -2 282.744 257.974   1
  -6 -27  -2 135.137 143.086   3
  -6 -27  -3-80.8041 48.0725   1
  -6 -27  -3 67.6981 115.041   3
  -6 -27  -4 445.339 317.260   1
  -6 -27  -4 550.943 311.721   3
  -6 -27  -5-16.5491 122.206   1
  -6 -27  -5-277.824 253.095   3
  -6 -27  -6 26.3940 130.765   3
  -6 -27  -6 204.824 203.500   1
  -6 -27  -7-21.7977 190.651   3
   6 -27   7 176.919 195.846   1
  -6 -27  -8-159.922 184.471   3
  -6 -27  -9 72.0613 162.430   3
  -6 -27 -10 22.3437 203.612   3
  -6 -26  11 163.873 323.184   1
  -6 -26  10 246.095 325.072   1
  -6 -26   9 291.125 154.807   1
  -6 -26   8 94.0959 208.276   1
  -6 -26   7 177.786 94.8315   1
  -6 -26   6 67.9549 141.863   1
  -6 -26   5 398.706 343.772   1
  -6 -26   4-33.2646 110.342   1
  -6 -26   3 81.6084 249.391   1
  -6 -26   3 259.802 303.091   3
  -6 -26   2 260.268 278.890   1
  -6 -26   2 342.277 288.473   3
  -6 -26   1 331.965 224.272   1
  -6 -26   1 496.509 315.378   3
  -6 -26   0-178.396 143.891   1
  -6 -26   0-6.62240 112.513   3
  -6 -26  -1-279.408 258.952   1
  -6 -26  -1-41.4570 103.815   3
  -6 -26  -2 204.749 187.213   1
  -6 -26  -2-121.572 88.0610   3
  -6 -26  -3 503.123 301.408   3
  -6 -26  -3 392.038 273.181   1
  -6 -26  -4 184.622 162.619   3
  -6 -26  -4 62.4993 210.682   1
  -6 -26  -5 73.4779 152.741   3
  -6 -26  -5 251.114 222.927   1
  -6 -26  -6-114.538 228.253   3
  -6 -26  -6 93.3584 147.374   1
  -6 -26  -7 100.500 149.647   1
  -6 -26  -7 56.0750 136.687   3
   6 -26   7 158.665 213.056   1
  -6 -26  -8 9.49008 125.209   3
  -6 -26  -9-55.7534 286.245   3
  -6 -26 -10 114.669 178.773   3
  -6 -25  11 508.450 424.728   1
  -6 -25  10 567.301 381.124   1
  -6 -25   9 75.1301 231.614   1
  -6 -25   8 19.2444 194.874   1
  -6 -25   7 150.185 195.442   1
  -6 -25   6 83.5295 192.359   1
  -6 -25   5 39.6951 78.2750   1
  -6 -25   4-163.559 293.719   1
  -6 -25   3 48.8336 88.3641   3
  -6 -25   3 30.1231 143.874   1
  -6 -25   2 59.5180 18.5983   3
  -6 -25   2 76.0321 196.927   1
  -6 -25   1 127.136 191.149   1
  -6 -25   1 260.703 289.105   3
  -6 -25   0 501.446 287.393   1
  -6 -25   0 131.425 147.333   3
  -6 -25  -1 212.705 169.494   1
  -6 -25  -1 213.439 262.404   3
  -6 -25  -2 59.3845 116.483   3
  -6 -25  -2-93.1795 154.672   1
  -6 -25  -3 68.8281 106.671   1
  -6 -25  -3 36.4975 130.834   3
  -6 -25  -4 162.935 186.539   3
  -6 -25  -4-41.3126 144.419   1
  -6 -25  -5 563.928 354.933   3
  -6 -25  -5 353.275 238.531   1
  -6 -25  -6-45.0395 20.1563   3
  -6 -25  -6 84.0338 68.3192   1
  -6 -25  -7 84.7615 184.257   1
  -6 -25  -7-4.69553 116.674   3
   6 -25   7 52.7984 62.4638   1
  -6 -25  -8 327.335 279.110   3
  -6 -25  -9 154.233 109.458   3
  -6 -25 -10 123.184 90.9349   3
  -6 -25 -11 181.717 321.058   3
  -6 -24  11 216.007 352.793   1
  -6 -24  10-22.8702 243.061   1
  -6 -24   9 152.206 82.1863   1
  -6 -24   8 215.604 281.146   1
  -6 -24   7 39.1178 154.812   1
  -6 -24   6 394.544 312.604   1
  -6 -24   5-49.3116 255.630   1
  -6 -24   4-31.1596 84.6464   1
  -6 -24   3 206.528 141.379   1
  -6 -24   2 365.574 281.903   3
  -6 -24   2 542.785 319.342   1
  -6 -24   1 189.970 67.9476   1
  -6 -24   1 12.7612 56.0210   3
  -6 -24   0 141.683 97.4712   1
  -6 -24   0 243.198 242.020   3
  -6 -24  -1 410.242 268.976   1
  -6 -24  -1 245.150 265.659   3
  -6 -24  -2 625.064 353.676   3
  -6 -24  -2 723.878 324.716   1
  -6 -24  -3 77.2557 109.492   1
  -6 -24  -3 173.729 296.822   3
  -6 -24  -4 141.213 227.303   3
  -6 -24  -4 248.334 209.459   1
  -6 -24  -5 26.7891 58.1129   1
  -6 -24  -5 203.083 165.543   3
  -6 -24  -6-109.552 229.348   3
  -6 -24  -6 107.773 173.897   1
  -6 -24  -7 70.2504 218.168   3
   6 -24   7 228.767 183.973   1
  -6 -24  -7-79.7382 117.469   1
  -6 -24  -8 95.3210 221.261   3
  -6 -24  -9-156.501 196.544   3
  -6 -24 -10 132.141 111.173   3
  -6 -24 -11-22.0428 29.8958   3
  -6 -23  12 5.25816 330.359   1
  -6 -23  11 138.916 291.081   1
  -6 -23  10 281.884 173.452   1
  -6 -23   9 199.861 268.106   1
  -6 -23   8 202.734 216.301   1
  -6 -23   7-59.2319 142.741   1
  -6 -23   6 79.2696 127.797   1
  -6 -23   5 132.464 143.006   1
  -6 -23   4-120.680 106.897   1
  -6 -23   3 158.270 82.5908   1
  -6 -23   2 260.029 252.890   3
  -6 -23   2 97.6800 167.775   1
  -6 -23   1 203.012 199.056   1
  -6 -23   1-28.8786 120.428   3
  -6 -23   0 461.192 196.843   1
  -6 -23   0 470.346 277.602   3
  -6 -23  -1 217.580 263.621   3
  -6 -23  -1 38.3164 105.072   1
  -6 -23  -2 91.7215 160.205   1
  -6 -23  -2 314.976 303.910   3
  -6 -23  -3-54.2804 59.3590   1
  -6 -23  -3 101.683 159.997   3
  -6 -23  -4-20.9803 51.1789   1
  -6 -23  -4 175.069 8.57602   3
  -6 -23  -5 10.2411 170.720   3
  -6 -23  -5 243.455 200.839   1
  -6 -23  -6 39.2951 50.7889   3
  -6 -23  -6 183.301 139.708   1
   6 -23   7-101.323 85.0018   1
  -6 -23  -7 108.649 74.6674   3
  -6 -23  -7 116.967 163.148   1
  -6 -23  -8-84.1875 210.914   3
  -6 -23  -9 137.374 100.687   3
  -6 -23 -10-343.712 309.654   3
  -6 -23 -11 182.138 207.082   3
  -6 -22  12 143.210 327.217   1
  -6 -22  11 292.598 344.650   1
  -6 -22  10-36.4723 99.3995   1
  -6 -22   9-9.80634 106.656   1
  -6 -22   8-71.5098 92.9916   1
  -6 -22   7 694.507 455.529   1
  -6 -22   6-11.7251 41.2849   1
  -6 -22   5 129.013 182.061   1
  -6 -22   4 198.611 254.788   1
  -6 -22   3-144.420 165.781   1
  -6 -22   2 214.212 249.553   3
  -6 -22   2 6.34579 132.981   1
  -6 -22   1 113.859 138.644   1
  -6 -22   1 187.208 224.452   3
  -6 -22   0 35.7456 24.8000   1
  -6 -22   0 394.910 264.201   3
  -6 -22  -1 52.5062 161.402   1
  -6 -22  -1 129.876 185.990   3
  -6 -22  -2 129.455 74.1437   1
  -6 -22  -2 72.5819 155.769   3
  -6 -22  -3 388.351 241.607   1
  -6 -22  -3 76.6366 68.6588   3
  -6 -22  -4 75.1899 54.1519   1
  -6 -22  -4-224.480 251.205   3
  -6 -22  -5-296.702 231.762   3
  -6 -22  -5 159.391 172.374   1
  -6 -22  -6 44.8729 35.1442   1
  -6 -22  -6-116.606 220.879   3
  -6 -22  -7-9.67605 57.2730   3
  -6 -22  -7-9.84339 111.621   1
   6 -22   7-94.9039 96.0745   1
  -6 -22  -8 106.539 84.8105   3
  -6 -22  -9-30.8188 55.9150   3
  -6 -22 -10-80.0725 142.194   3
  -6 -22 -11 170.513 221.264   3
  -6 -22 -12 260.558 346.681   3
  -6 -21  12 208.736 283.394   1
  -6 -21  11 135.285 163.578   1
  -6 -21  10 367.648 306.868   1
  -6 -21   9 103.235 62.5408   1
  -6 -21   8-10.6989 53.4058   1
  -6 -21   7 253.271 279.555   1
  -6 -21   6 90.2087 128.680   1
  -6 -21   5-5.99685 103.907   1
  -6 -21   4 149.027 158.329   1
  -6 -21   3-41.2773 80.1370   1
  -6 -21   2 86.7253 152.734   1
  -6 -21   1 242.143 231.426   3
  -6 -21   1 132.455 157.867   1
  -6 -21   0 297.951 252.047   1
  -6 -21   0 293.126 188.345   3
  -6 -21  -1 4.72447 93.2823   1
  -6 -21  -1-114.820 169.507   3
  -6 -21  -2-23.5387 39.9432   1
  -6 -21  -2 52.0764 157.143   3
  -6 -21  -3-37.1528 66.8317   3
  -6 -21  -3 80.3732 127.106   1
  -6 -21  -4 562.295 281.650   3
  -6 -21  -4 268.195 197.031   1
  -6 -21  -5 67.5497 227.096   3
  -6 -21  -5 42.9007 34.7847   1
  -6 -21  -6 124.175 114.897   1
  -6 -21  -6 362.881 275.914   3
  -6 -21  -7 19.7893 54.8283   3
  -6 -21  -7-39.5320 60.1048   1
   6 -21   7 49.8932 74.4795   1
  -6 -21  -8 141.866 157.752   3
  -6 -21  -9 81.7800 75.8464   3
  -6 -21 -10 483.649 378.952   3
  -6 -21 -11 142.460 237.102   3
  -6 -21 -12 84.5882 269.267   3
  -6 -20  13 341.224 383.970   1
  -6 -20  12 34.1670 106.756   1
  -6 -20  11 85.4725 210.498   1
  -6 -20  10 1.24726 87.6437   1
  -6 -20   9 227.421 265.985   1
  -6 -20   8-84.5511 45.9091   1
  -6 -20   7 357.547 273.501   1
  -6 -20   6 551.270 380.004   1
  -6 -20   5 252.304 201.002   1
  -6 -20   4 361.494 281.077   1
  -6 -20   3 82.9579 83.0228   1
  -6 -20   2 194.076 168.129   1
  -6 -20   1 863.753 381.575   3
  -6 -20   1 716.384 327.016   1
  -6 -20   0 90.7973 119.010   1
  -6 -20   0 172.800 155.856   3
  -6 -20  -1 461.380 254.435   1
  -6 -20  -1 153.562 227.690   3
  -6 -20  -2 185.595 174.766   1
  -6 -20  -2 132.020 174.777   3
  -6 -20  -3 302.520 178.005   1
  -6 -20  -3 205.036 226.855   3
  -6 -20  -4 186.769 81.8118   1
  -6 -20  -4 263.736 214.449   3
  -6 -20  -5-52.8628 25.6695   1
  -6 -20  -5 31.9659 59.3530   3
  -6 -20  -6 227.298 142.513   3
  -6 -20  -6 87.2105 126.430   1
  -6 -20  -7 48.4707 63.1617   3
   6 -20   7-56.6891 100.795   1
  -6 -20  -7 55.2713 33.3988   1
  -6 -20  -8-23.0931 121.602   3
  -6 -20  -9 121.038 71.4546   3
  -6 -20 -10 161.893 191.340   3
  -6 -20 -11-114.446 185.963   3
  -6 -20 -12 74.1765 108.630   3
  -6 -19  13 305.207 403.944   1
  -6 -19  12-64.2847 269.685   1
  -6 -19  11 98.4986 151.058   1
  -6 -19  10 417.797 335.978   1
  -6 -19   9 63.8192 175.455   1
  -6 -19   8-0.06302 52.1165   1
  -6 -19   7 44.6825 87.3148   1
  -6 -19   6 125.885 235.604   1
  -6 -19   5 81.6505 46.1775   1
  -6 -19   4 201.579 241.636   1
  -6 -19   3-30.1103 25.2865   1
  -6 -19   2-150.278 161.169   1
  -6 -19   1 266.204 145.827   1
  -6 -19   0 165.756 146.978   1
  -6 -19   0 145.150 193.601   3
  -6 -19  -1 8.79649 46.9128   1
  -6 -19  -1-268.159 221.569   3
  -6 -19  -2 39.9022 49.7730   1
  -6 -19  -2 88.2994 152.304   3
  -6 -19  -3 136.426 161.767   1
  -6 -19  -3 136.160 141.890   3
  -6 -19  -4 28.7604 125.183   1
  -6 -19  -4 15.2530 80.0175   3
  -6 -19  -5 409.339 296.850   3
  -6 -19  -5 185.083 125.730   1
  -6 -19  -6 26.5669 54.1797   3
  -6 -19  -6 192.739 123.068   1
  -6 -19  -7-111.660 152.709   1
  -6 -19  -7-226.702 240.763   3
   6 -19   7 207.497 172.387   1
  -6 -19  -8-186.874 193.137   3
  -6 -19  -9 160.047 38.6953   3
  -6 -19 -10 302.877 263.531   3
  -6 -19 -11-99.2026 9.58962   3
  -6 -19 -12 177.199 268.381   3
  -6 -18  13 136.703 333.103   1
  -6 -18  12 444.205 265.019   1
  -6 -18  11 31.4844 190.635   1
  -6 -18  10 257.888 325.498   1
  -6 -18   9 209.708 186.220   1
  -6 -18   8 23.5878 85.9102   1
  -6 -18   7-74.5140 99.5284   1
  -6 -18   6 179.524 132.120   1
   6 -18  -6 26.4551 16.1350   2
  -6 -18   5 115.110 94.3448   1
  -6 -18   4 102.819 113.438   1
  -6 -18   3 236.735 236.930   1
  -6 -18   2 784.324 306.863   1
  -6 -18   1 249.924 159.175   1
  -6 -18   0 577.885 298.118   1
  -6 -18   0 466.823 296.043   3
  -6 -18  -1-116.101 163.626   1
  -6 -18  -1 157.958 142.370   3
  -6 -18  -2 127.690 57.0250   1
  -6 -18  -2-39.4549 96.9275   3
  -6 -18  -3-38.6700 80.4069   3
  -6 -18  -3 78.4854 30.9496   1
  -6 -18  -4-8.62691 47.5639   3
  -6 -18  -4 182.957 182.970   1
  -6 -18  -5 167.043 159.268   3
  -6 -18  -5 128.757 114.001   1
  -6 -18  -6-221.477 216.254   3
  -6 -18  -6-90.0299 67.0987   1
  -6 -18  -7 242.903 276.549   3
   6 -18   7 161.142 148.286   1
  -6 -18  -7 161.331 122.788   1
  -6 -18  -8 307.205 245.919   3
  -6 -18  -9 115.424 190.672   3
  -6 -18 -10 22.0138 89.3200   3
  -6 -18 -11 39.7957 196.457   3
  -6 -18 -12 346.812 280.698   3
  -6 -17  14 247.265 248.250   1
  -6 -17  13 651.600 508.169   1
  -6 -17  12-175.404 122.339   1
  -6 -17  11-158.944 206.892   1
  -6 -17  10 211.142 296.340   1
  -6 -17   9-100.988 181.678   1
  -6 -17   8 231.556 191.371   1
  -6 -17   7 118.908 193.817   1
  -6 -17   6 174.292 228.765   1
  -6 -17   5-17.2667 65.2294   1
  -6 -17   4 21.7865 140.773   1
  -6 -17   3-22.1772 25.4713   1
  -6 -17   2 43.9831 165.894   1
  -6 -17   1 61.7531 99.8310   1
  -6 -17   0 421.359 292.019   3
  -6 -17   0 256.629 175.638   1
  -6 -17  -1 106.058 107.727   1
  -6 -17  -1 195.535 185.055   3
  -6 -17  -2 35.4158 173.088   1
  -6 -17  -2-66.5313 49.1496   3
  -6 -17  -3 111.930 91.1630   1
  -6 -17  -3 11.1434 115.977   3
  -6 -17  -4 171.799 124.105   1
  -6 -17  -4 372.768 270.257   3
  -6 -17  -5 164.235 179.224   3
  -6 -17  -5 241.720 129.018   1
  -6 -17  -6-158.895 170.688   3
  -6 -17  -6 115.364 90.8223   1
  -6 -17  -7-170.811 194.960   3
   6 -17   7 85.1431 71.7997   1
  -6 -17  -7-68.1100 3.50392   1
  -6 -17  -8 36.8862 103.362   3
  -6 -17  -9 117.912 208.679   3
  -6 -17 -10 50.8202 111.592   3
  -6 -17 -11-61.9167 80.1083   3
  -6 -17 -12-253.279 291.921   3
  -6 -16  14 50.3071 301.577   1
  -6 -16  13 137.829 235.117   1
  -6 -16  12-2.44507 76.3916   1
  -6 -16  11 210.586 215.280   1
  -6 -16  10 208.459 207.083   1
  -6 -16   9-70.1744 174.489   1
  -6 -16   8-1.67149 153.355   1
  -6 -16   7 574.320 346.169   1
  -6 -16   6 434.273 280.531   1
  -6 -16   5 111.104 88.1835   1
  -6 -16   4-3.71236 134.446   1
  -6 -16   3 544.102 249.048   1
  -6 -16   2 151.232 178.229   1
  -6 -16   1 1851.87 460.757   1
  -6 -16   0-7.24807 22.2517   1
  -6 -16  -1 274.822 222.429   3
  -6 -16  -1 148.283 138.241   1
  -6 -16  -2 85.1156 122.832   1
  -6 -16  -2 139.930 133.177   3
  -6 -16  -3 307.571 143.720   1
  -6 -16  -3 256.892 204.686   3
  -6 -16  -4 100.464 108.636   1
  -6 -16  -4 133.572 134.480   3
  -6 -16  -5 66.9042 93.6375   1
  -6 -16  -5-117.067 142.148   3
  -6 -16  -6 118.491 58.8653   3
  -6 -16  -6 138.622 128.037   1
  -6 -16  -7 28.0992 85.8215   3
  -6 -16  -7 255.929 118.242   1
   6 -16   7 145.461 72.7251   1
  -6 -16  -8 235.720 207.450   3
  -6 -16  -9 161.592 148.198   3
  -6 -16 -10 127.806 178.858   3
  -6 -16 -11 357.540 279.519   3
  -6 -16 -12 113.737 142.180   3
  -6 -15  14-5.90237 129.885   1
  -6 -15  13 7.25717 190.136   1
  -6 -15  12 533.883 380.426   1
  -6 -15  11 189.090 215.417   1
  -6 -15  10 162.698 133.475   1
  -6 -15   9 29.4887 153.469   1
  -6 -15   8-112.752 123.449   1
  -6 -15   7 122.902 170.528   1
  -6 -15   6-30.1106 101.245   1
  -6 -15   5 29.8320 57.5455   1
   6 -15  -5-22.2610 58.2775   2
  -6 -15   4 363.698 252.911   1
  -6 -15   3 101.453 155.957   1
  -6 -15   2 0.54401 8.82305   1
  -6 -15   1-33.7211 61.0547   1
  -6 -15   0 126.768 90.1450   1
  -6 -15  -1 257.963 200.664   1
  -6 -15  -1 36.4002 85.3113   3
  -6 -15  -2-52.9505 42.5675   1
  -6 -15  -2 16.2884 127.121   3
  -6 -15  -3-16.5193 69.6264   1
  -6 -15  -3 95.8468 109.205   3
  -6 -15  -4 1008.85 289.712   1
  -6 -15  -4 757.407 316.772   3
  -6 -15  -5 184.931 99.8347   1
  -6 -15  -5 71.8225 177.193   3
  -6 -15  -6-99.6728 120.732   3
  -6 -15  -6 52.3856 67.0518   1
  -6 -15  -7 113.746 103.921   1
   6 -15   7 129.910 75.7024   1
  -6 -15  -8 209.658 184.080   3
  -6 -15  -9 144.196 196.692   3
  -6 -15 -10 144.347 259.385   3
  -6 -15 -11 56.9446 188.929   3
  -6 -14  14 220.111 266.891   1
  -6 -14  13 55.7635 185.582   1
  -6 -14  12 342.728 320.853   1
  -6 -14  11 128.597 236.655   1
  -6 -14  10 112.544 202.348   1
  -6 -14   9-207.964 203.132   1
  -6 -14   8 104.458 211.288   1
  -6 -14   7 297.018 200.148   1
  -6 -14   6 403.789 212.345   1
   6 -14  -5 138.677 34.5961   2
  -6 -14   5 389.910 217.053   1
  -6 -14   4-28.1973 46.7395   1
  -6 -14   3 106.820 120.228   1
  -6 -14   2 734.732 306.155   1
  -6 -14   1 171.424 119.533   1
  -6 -14   0 368.408 193.081   1
  -6 -14  -1-45.6751 107.587   3
  -6 -14  -1 77.2720 119.264   1
  -6 -14  -2 58.3067 129.398   3
  -6 -14  -2-13.1877 84.5458   1
  -6 -14  -3 329.441 163.115   1
  -6 -14  -3 388.114 259.780   3
  -6 -14  -4 215.610 120.858   1
  -6 -14  -4 448.109 254.080   3
  -6 -14  -5 301.032 147.010   1
  -6 -14  -5 131.332 204.470   3
  -6 -14  -6-84.2213 33.9142   3
  -6 -14  -6 6.45582 49.1317   1
  -6 -14  -7 63.1134 127.190   3
   6 -14   7 36.0771 53.0299   1
  -6 -14  -7-17.6392 12.7671   1
  -6 -14  -8 614.225 328.518   3
  -6 -14  -9 93.8033 124.282   3
  -6 -14 -10 69.0691 120.880   3
  -6 -14 -11 73.1659 134.416   3
  -6 -13  14-1.75672 311.311   1
  -6 -13  13 457.936 424.610   1
  -6 -13  12 247.873 354.293   1
  -6 -13  11-54.1629 160.996   1
  -6 -13  10 86.9473 182.809   1
  -6 -13   9 105.157 221.680   1
  -6 -13   8 222.400 296.980   1
  -6 -13   7 154.025 222.711   1
  -6 -13   6 273.977 216.935   1
   6 -13  -5 287.131 85.0236   2
  -6 -13   5 150.651 170.876   1
  -6 -13   4 498.380 230.202   1
  -6 -13   3 145.653 129.462   1
  -6 -13   2 195.877 205.586   1
  -6 -13   1 478.670 221.646   1
  -6 -13   0-26.7454 45.6329   1
  -6 -13  -1 284.219 145.846   1
  -6 -13  -1 411.131 218.315   3
  -6 -13  -2 215.565 176.791   3
  -6 -13  -2 71.5087 102.235   1
  -6 -13  -3 424.179 235.561   3
  -6 -13  -3 415.356 174.256   1
  -6 -13  -4 126.152 82.7410   1
  -6 -13  -4 2.40134 90.9347   3
  -6 -13  -5 831.609 236.330   1
  -6 -13  -5 412.772 230.157   3
  -6 -13  -6 68.6000 28.0517   3
  -6 -13  -6 96.2935 100.956   1
  -6 -13  -7 43.1249 115.799   3
  -6 -13  -7 96.4496 70.7924   1
   6 -13   7 62.9566 24.4349   1
  -6 -13  -8 152.828 207.468   3
  -6 -13  -9 152.206 172.990   3
  -6 -13 -10-55.0040 149.168   3
  -6 -13 -11 208.367 235.028   3
  -6 -12  15 155.757 200.892   1
  -6 -12  14 221.276 175.899   1
  -6 -12  13 73.1977 183.293   1
  -6 -12  12 322.279 355.588   1
  -6 -12  11 336.934 283.939   1
  -6 -12  10 66.9832 220.505   1
  -6 -12   9 173.746 149.599   1
  -6 -12   8 251.698 254.479   1
  -6 -12   7 131.327 256.678   1
  -6 -12   6 473.907 261.306   1
   6 -12  -5 155.836 86.2156   2
  -6 -12   5 126.372 192.685   1
   6 -12  -4 135.675 63.8133   2
  -6 -12   4 226.618 163.349   1
  -6 -12   3 293.562 203.660   1
  -6 -12   2 454.246 205.083   1
  -6 -12   1 269.739 152.976   1
  -6 -12   0 27.4748 11.7514   1
  -6 -12  -1 538.534 203.113   1
  -6 -12  -2 176.365 111.276   1
  -6 -12  -2 50.7602 98.4836   3
  -6 -12  -3 95.1820 102.756   1
  -6 -12  -3 83.6489 92.0739   3
  -6 -12  -4 116.008 81.5431   1
  -6 -12  -4 167.469 150.871   3
  -6 -12  -5 71.8767 47.7024   1
  -6 -12  -5-33.5898 95.0653   3
  -6 -12  -6 193.775 179.598   3
  -6 -12  -6 265.248 113.141   1
   6 -12   7 89.8524 28.2182   1
  -6 -12  -7 135.029 121.693   3
  -6 -12  -7 17.4360 73.6992   1
  -6 -12  -8 226.175 210.704   3
  -6 -12  -9 86.2256 146.798   3
  -6 -12 -10 273.582 245.063   3
  -6 -12 -11 25.1046 119.664   3
  -6 -11  15-87.3244 220.660   1
  -6 -11  14-80.6157 177.411   1
  -6 -11  13-11.6153 229.465   1
  -6 -11  12-10.6738 99.2056   1
  -6 -11  11 38.5443 270.834   1
  -6 -11  10-136.419 182.321   1
  -6 -11   9-44.7598 60.3705   1
  -6 -11   8 69.5458 201.982   1
  -6 -11   7 216.923 205.772   1
  -6 -11   6-70.2189 121.693   1
  -6 -11   5-13.9350 152.732   1
   6 -11  -4 402.546 72.9945   2
  -6 -11   4 563.890 250.094   1
  -6 -11   3 129.247 128.545   1
  -6 -11   2-136.389 138.061   1
  -6 -11   1-29.0418 61.2873   1
  -6 -11   0 1541.08 357.145   1
  -6 -11  -1 62.5164 93.8296   1
  -6 -11  -2 91.2293 136.836   3
  -6 -11  -2 19.1054 43.6348   1
  -6 -11  -3 61.5008 115.034   3
  -6 -11  -3 30.9316 56.2582   1
  -6 -11  -4 332.575 121.987   1
  -6 -11  -4 393.474 219.114   3
  -6 -11  -5 64.4819 77.3866   1
  -6 -11  -5-104.716 81.7595   3
  -6 -11  -6 521.097 284.763   3
  -6 -11  -6 329.130 118.544   1
  -6 -11  -7-44.2993 70.2597   3
   6 -11   7-25.7889 24.0262   1
  -6 -11  -7 34.0975 21.8499   1
  -6 -11  -8 309.184 232.886   3
  -6 -11  -9 91.5367 127.354   3
  -6 -11 -10 299.454 200.633   3
  -6 -11 -11 224.328 291.397   3
  -6 -10  15 129.631 244.793   1
  -6 -10  14 107.300 138.987   1
  -6 -10  13 141.526 219.776   1
  -6 -10  12 7.25207 127.351   1
  -6 -10  11 129.290 240.170   1
  -6 -10  10 19.0929 216.998   1
  -6 -10   9 29.4192 139.905   1
  -6 -10   8-6.52097 113.602   1
  -6 -10   7 908.307 396.875   1
  -6 -10   6-40.1345 89.0978   1
  -6 -10   5 1000.92 370.880   1
   6 -10  -4-103.290 93.6304   2
  -6 -10   4 40.4756 49.1628   1
   6 -10  -3-6.82358 83.1839   2
  -6 -10   3 24.4678 18.8505   1
  -6 -10   2 735.003 283.625   1
  -6 -10   1 275.590 173.973   1
  -6 -10   0-3.48018 102.049   1
  -6 -10  -1 52.6091 35.3885   1
   6 -10   1 34.7558 47.5150   1
  -6 -10  -2 182.430 116.441   1
  -6 -10  -2 259.167 155.311   3
  -6 -10  -3 540.902 254.702   3
  -6 -10  -3 809.023 211.264   1
  -6 -10  -4 37.4253 49.3924   1
  -6 -10  -4 74.9057 122.973   3
  -6 -10  -5 228.029 111.038   1
  -6 -10  -5 119.686 107.237   3
  -6 -10  -6-2.41381 21.3692   3
  -6 -10  -6 9.98153 28.9850   1
  -6 -10  -7 18.5706 122.936   3
  -6 -10  -7 54.1545 47.8302   1
  -6 -10  -7 19.8346 27.5650   1
   6 -10   7-52.7614 73.3106   1
  -6 -10  -8-4.60659 47.9923   3
  -6 -10  -9-17.1012 48.9044   3
  -6 -10 -10 130.118 173.593   3
  -6 -10 -11 89.2278 180.702   3
  -6  -9  15 195.688 399.854   1
  -6  -9  14-371.222 183.784   1
  -6  -9  13 189.730 194.607   1
  -6  -9  12-44.5364 165.942   1
  -6  -9  11-49.3871 194.285   1
  -6  -9  10 74.1245 95.8390   1
  -6  -9   9-74.8294 129.934   1
  -6  -9   8 15.1454 150.882   1
  -6  -9   7 212.951 230.439   1
  -6  -9   6 109.564 194.466   1
  -6  -9   5-18.7986 66.6582   1
   6  -9  -4 56.2343 53.8754   2
  -6  -9   4 113.186 127.921   1
   6  -9  -3 26.2521 103.671   2
  -6  -9   3 105.946 136.337   1
  -6  -9   2-10.6293 67.4988   1
  -6  -9   1 1.11572 55.4905   1
  -6  -9   0 81.9840 76.5996   1
  -6  -9  -1 128.713 114.818   1
   6  -9   1 192.173 127.234   1
  -6  -9  -2 14.7769 42.7856   1
  -6  -9  -2 25.9302 54.0964   3
   6  -9   2 7.68727 60.9591   1
  -6  -9  -3 117.823 46.9091   1
  -6  -9  -3-48.3177 126.147   3
  -6  -9  -4 252.677 107.318   1
  -6  -9  -4 112.284 142.958   3
  -6  -9  -5 546.508 142.114   1
  -6  -9  -5 716.149 286.935   3
  -6  -9  -6-35.1008 60.8520   3
  -6  -9  -6 30.9702 30.8514   1
   6  -9   6 41.3680 36.1074   1
  -6  -9  -7-41.1590 104.981   3
   6  -9   7-35.8516 30.6954   1
  -6  -9  -8 24.7141 57.6187   3
  -6  -9  -9 530.965 266.627   3
  -6  -9 -10 217.949 230.418   3
  -6  -9 -11 70.2981 148.559   3
  -6  -8  15 540.410 457.096   1
  -6  -8  14 114.548 114.112   1
  -6  -8  13 26.5198 192.151   1
  -6  -8  12-54.6678 224.801   1
  -6  -8  11-120.339 227.790   1
  -6  -8  10 99.6434 196.305   1
  -6  -8   9 96.4762 218.425   1
  -6  -8   8 471.760 325.488   1
  -6  -8   7-6.40819 94.8199   1
  -6  -8   6 1270.51 443.344   1
  -6  -8   5 23.9489 63.0815   1
   6  -8  -4 486.823 148.196   2
  -6  -8   4 286.967 181.515   1
   6  -8  -3 239.724 66.0798   2
  -6  -8   3 332.621 179.435   1
   6  -8  -2 386.443 92.8679   2
  -6  -8   2 510.533 224.997   1
  -6  -8   1 101.421 129.974   1
  -6  -8   0 1152.24 291.848   1
   6  -8   0 1351.33 322.461   1
   6  -8   1 689.063 217.472   1
  -6  -8  -1 590.788 161.305   1
   6  -8   2 651.155 200.049   1
  -6  -8  -2 532.727 173.241   1
   6  -8   3 175.768 93.3388   1
  -6  -8  -3-2.01672 47.6475   3
  -6  -8  -3 74.9158 64.2542   1
  -6  -8  -4 1566.60 244.566   1
  -6  -8  -4 1345.20 366.855   3
  -6  -8  -5 40.4704 39.8592   1
  -6  -8  -5 173.853 137.911   3
  -6  -8  -6-54.6528 125.205   3
   6  -8   6 117.232 61.8491   1
  -6  -8  -6 3.88853 23.3543   1
   6  -8   7 336.801 106.695   1
  -6  -8  -7 180.779 173.117   3
  -6  -8  -8-185.251 153.495   3
  -6  -8  -9-154.097 162.877   3
  -6  -8 -10 156.633 132.064   3
  -6  -7  15-124.602 139.675   1
  -6  -7  14-186.047 135.660   1
  -6  -7  13 223.248 363.313   1
  -6  -7  12 332.589 225.298   1
  -6  -7  11 4.94555 52.9804   1
  -6  -7  10-32.7461 187.351   1
  -6  -7   9 86.6503 6.65682   1
  -6  -7   8 204.695 227.559   1
  -6  -7   7 65.3536 21.0231   1
  -6  -7   6-70.6921 110.451   1
  -6  -7   5 21.7315 53.5705   1
  -6  -7   4-62.4165 106.550   1
   6  -7  -3-76.9609 98.1130   2
  -6  -7   3-84.4733 119.705   1
   6  -7  -2 166.927 45.3508   2
  -6  -7   2 168.888 105.923   1
  -6  -7   1 90.8766 144.518   1
  -6  -7   0 823.155 243.072   1
   6  -7   0 919.314 244.676   1
  -6  -7  -1 122.698 117.250   1
   6  -7   1 117.656 107.675   1
   6  -7   2 147.153 89.6232   1
  -6  -7  -2 195.208 101.290   1
  -6  -7  -3 111.362 87.0667   1
  -6  -7  -3 78.0847 86.8638   3
   6  -7   3 119.501 79.5315   1
   6  -7   4 273.871 102.766   1
  -6  -7  -4 252.725 91.5887   1
  -6  -7  -4 209.944 161.061   3
   6  -7   5 456.116 120.787   1
  -6  -7  -5 353.175 93.8609   1
  -6  -7  -5 446.625 217.168   3
  -6  -7  -6-28.2596 71.9249   3
   6  -7   6-13.9647 24.0765   1
   6  -7   6-1.81192 22.7792   1
  -6  -7  -7 42.5340 99.0197   3
   6  -7   7 80.7553 40.4875   1
  -6  -7  -8-76.1428 171.903   3
  -6  -7  -9-47.1672 81.7435   3
  -6  -7 -10-23.1704 93.0078   3
  -6  -6  15 47.1969 169.108   1
  -6  -6  14 160.549 118.184   1
  -6  -6  13 457.303 421.704   1
  -6  -6  12 17.4691 145.657   1
  -6  -6  11 88.4484 217.219   1
  -6  -6  10-7.39438 130.319   1
  -6  -6   9 23.2236 152.240   1
  -6  -6   8-17.0128 95.0105   1
  -6  -6   7 927.752 340.780   1
  -6  -6   6 27.3998 57.9709   1
  -6  -6   5 1406.71 401.442   1
  -6  -6   4 277.795 160.750   1
   6  -6  -3 175.822 103.004   2
  -6  -6   3-43.1576 119.129   1
   6  -6  -2-104.692 125.248   2
  -6  -6   2-11.5223 61.1580   1
   6  -6  -1 1356.49 276.454   2
  -6  -6   1 1527.65 353.083   1
   6  -6   0 1095.35 271.556   1
  -6  -6   0 905.885 252.015   1
   6  -6   1 149.787 75.9517   1
  -6  -6  -1 6.63546 62.6159   1
  -6  -6  -2 4.69090 57.6849   1
   6  -6   2-28.9267 57.6657   1
   6  -6   3 2215.20 313.138   1
  -6  -6  -3 2131.09 288.192   1
  -6  -6  -3 1985.78 437.616   3
  -6  -6  -4 18.4838 21.0069   1
  -6  -6  -4 46.3774 53.0359   3
   6  -6   4-3.77624 44.6355   1
  -6  -6  -5-7.21985 6.87183   1
   6  -6   5 62.3501 58.3276   1
  -6  -6  -5 60.8375 58.6600   3
  -6  -6  -6 77.1789 110.149   3
   6  -6   6 55.2704 35.3124   1
   6  -6   6 100.218 48.6802   1
  -6  -6  -7 287.576 170.274   3
  -6  -6  -8-111.281 92.5903   3
  -6  -6  -9-56.8410 99.0021   3
  -6  -6 -10 32.7021 77.3174   3
  -6  -5  15 42.3136 272.066   1
  -6  -5  14 264.269 404.460   1
  -6  -5  13 255.376 304.691   1
  -6  -5  12 113.930 197.250   1
  -6  -5  11 237.305 235.736   1
  -6  -5  10-48.1451 38.6776   1
  -6  -5   9-38.7443 53.8009   1
  -6  -5   8 201.108 173.949   1
  -6  -5   7 108.119 178.348   1
  -6  -5   6-88.3130 78.1801   1
  -6  -5   5 80.8469 87.0415   1
  -6  -5   4 246.309 147.486   1
  -6  -5   3 233.477 169.930   1
   6  -5  -3 340.156 138.111   2
   6  -5  -2-52.5628 118.809   2
  -6  -5   2 0.93297 50.5234   1
   6  -5  -1 111.447 116.561   1
   6  -5  -1-107.622 160.616   2
  -6  -5   1 6.37614 47.0402   1
   6  -5   0 697.258 204.678   1
  -6  -5   0 780.320 232.270   1
   6  -5   1 695.391 200.890   1
  -6  -5  -1 555.694 173.349   1
   6  -5   2 127.609 87.5818   1
  -6  -5  -2-11.8929 42.1371   1
   6  -5   3 321.605 126.729   1
  -6  -5  -3 252.654 103.192   1
  -6  -5  -3 201.515 158.649   3
   6  -5   4 737.250 150.805   1
  -6  -5  -4 628.251 123.219   1
  -6  -5  -4 689.046 266.657   3
   6  -5   5-26.8430 26.8300   1
  -6  -5  -5 58.3966 59.9495   3
  -6  -5  -6 534.129 242.599   3
  -6  -5  -7 17.4257 72.2953   3
  -6  -5  -8 189.529 140.819   3
  -6  -5  -9 108.165 33.8004   3
  -6  -5 -10 118.957 147.157   3
  -6  -4  15 260.358 321.405   1
  -6  -4  14 100.937 243.004   1
  -6  -4  13-142.892 147.925   1
  -6  -4  12 11.7033 42.5331   1
  -6  -4  11 136.681 224.556   1
  -6  -4  10 161.527 234.288   1
  -6  -4   9-99.2456 136.507   1
  -6  -4   8 6.27318 132.666   1
  -6  -4   7 353.659 208.989   1
  -6  -4   6 1430.91 431.197   1
  -6  -4   5 34.3944 101.870   1
  -6  -4   4 752.874 296.012   1
  -6  -4   4 1052.05 305.873   2
  -6  -4   3 137.626 79.2653   1
  -6  -4   3 343.556 194.330   2
   6  -4  -3 527.928 215.537   2
  -6  -4   2 320.667 149.921   1
   6  -4  -2 240.329 84.6191   2
   6  -4  -1 250.105 97.0630   1
   6  -4  -1 81.9551 87.3359   2
  -6  -4   1 227.549 176.833   1
   6  -4   0 50.9539 27.2450   1
   6  -4   0-140.458 148.091   2
  -6  -4   0 125.261 90.0124   1
   6  -4   1 97.9985 72.3231   1
  -6  -4  -1 68.6232 43.6953   1
   6  -4   2 913.645 199.969   1
  -6  -4  -2 868.987 192.231   1
   6  -4   3 43.6039 59.3641   1
  -6  -4  -3 98.4129 49.1901   1
  -6  -4  -3 39.3881 100.297   3
   6  -4   4 351.012 99.2738   1
  -6  -4  -4 333.131 181.993   3
  -6  -4  -4 298.502 81.2756   1
   6  -4   5 67.9480 31.3476   1
  -6  -4  -5 190.342 163.425   3
  -6  -4  -6 37.0422 27.4602   3
  -6  -4  -7 168.529 125.789   3
  -6  -4  -8-75.0793 145.217   3
  -6  -4  -9 263.983 173.454   3
  -6  -4 -10 3.78337 34.3080   3
  -6  -3  15-60.5904 58.3853   1
  -6  -3  14-104.254 133.500   1
  -6  -3  13 226.077 118.928   1
  -6  -3  12-152.118 148.932   1
  -6  -3  11 89.0996 241.611   1
  -6  -3  10 56.8512 43.0150   1
  -6  -3   9 111.614 119.377   1
  -6  -3   8 37.1953 147.765   1
  -6  -3   7 395.407 185.625   1
  -6  -3   6 183.480 138.062   1
  -6  -3   5 248.714 211.480   1
  -6  -3   4 489.404 217.372   1
  -6  -3   4 689.106 242.050   2
  -6  -3   3 676.146 215.393   1
  -6  -3   3 936.989 266.801   2
  -6  -3   2 333.903 157.519   1
  -6  -3   2 163.878 68.7583   2
   6  -3  -2 371.991 174.507   2
  -6  -3   1 611.120 222.118   1
   6  -3  -1 750.087 231.145   1
   6  -3  -1 414.246 82.1183   2
  -6  -3   0 1385.30 293.925   1
   6  -3   0 1192.41 268.362   2
   6  -3   0 1558.85 311.993   1
   6  -3   1 1281.57 299.201   2
  -6  -3  -1 1654.61 301.968   1
   6  -3   1 1598.25 301.504   1
  -6  -3  -2 99.5738 71.7374   1
   6  -3   2 88.4041 68.9568   1
  -6  -3  -3 337.102 89.8919   1
   6  -3   3 388.962 111.609   1
  -6  -3  -3 422.800 184.726   3
  -6  -3  -4 27.2420 69.9947   3
   6  -3   4 81.4999 46.5186   1
  -6  -3  -5 1307.79 329.426   3
  -6  -3  -6 70.8414 99.7594   3
  -6  -3  -7 62.5451 32.3061   3
  -6  -3  -8 34.4494 95.8064   3
  -6  -3  -9 419.691 193.736   3
   6  -3  15 272.781 340.385   2
  -6  -2  16 141.228 305.369   1
  -6  -2  15-78.6581 124.041   1
  -6  -2  14 40.2178 196.798   1
  -6  -2  13 44.0304 150.922   1
  -6  -2  12 355.873 332.932   1
  -6  -2  11 15.2807 37.2558   1
  -6  -2  10 97.9899 129.384   1
  -6  -2   9 227.370 153.238   1
  -6  -2   8 91.2920 141.694   1
  -6  -2   7-126.044 174.639   1
  -6  -2   6 492.927 218.960   1
  -6  -2   5 494.916 228.026   1
  -6  -2   5 788.796 256.802   2
  -6  -2   4 86.4524 127.909   1
  -6  -2   4 110.293 143.090   2
  -6  -2   3 90.3189 30.4133   1
  -6  -2   3 87.1659 78.9258   2
  -6  -2   2 1498.52 330.794   1
   6  -2  -2 1503.32 310.915   2
  -6  -2   2 1466.32 306.017   2
  -6  -2   1 54.1268 79.3352   1
  -6  -2   1-155.476 179.497   2
   6  -2  -1-16.0137 80.1070   1
   6  -2  -1-41.0991 46.7377   2
  -6  -2   0 1000.40 239.487   1
   6  -2   0 1033.75 257.987   1
   6  -2   0 616.369 143.910   2
  -6  -2  -1 186.375 88.6703   1
   6  -2   1-127.508 182.011   2
   6  -2   1 153.006 65.4640   1
  -6  -2  -2 46.7767 24.0193   1
   6  -2   2 22.8711 31.0723   1
  -6  -2  -3 24.5148 36.2830   1
   6  -2   3-33.4586 58.5987   1
  -6  -2  -4 105.663 126.645   3
   6  -2   4 4.28644 14.5907   1
  -6  -2  -5 772.050 250.843   3
  -6  -2  -6 392.910 169.446   3
  -6  -2  -7 352.275 201.591   3
  -6  -2  -8 328.795 146.535   3
  -6  -2  -9 120.063 122.526   3
   6  -2  14 594.750 423.553   2
   6  -2  15 452.794 392.529   2
  -6  -1  16-158.192 255.520   1
  -6  -1  15 140.911 175.723   1
  -6  -1  14 49.6349 87.4914   1
  -6  -1  13-30.0532 144.952   1
  -6  -1  12 173.914 317.008   1
  -6  -1  11-188.881 160.672   1
  -6  -1  10-66.2859 197.216   1
  -6  -1   9 38.5651 70.6440   1
  -6  -1   8 145.473 141.929   1
  -6  -1   7 113.615 141.000   1
  -6  -1   6-74.0528 144.548   1
  -6  -1   6 136.155 176.423   2
  -6  -1   5-1.23777 30.5116   1
  -6  -1   5 58.5316 126.528   2
  -6  -1   4 531.518 228.392   1
  -6  -1   4 451.037 171.845   2
  -6  -1   3-40.8128 99.9194   1
  -6  -1   3-132.480 149.832   2
  -6  -1   2 22.6736 52.1693   1
  -6  -1   2-128.501 170.424   2
  -6  -1   1 19.3902 25.4143   1
  -6  -1   1-140.763 121.014   2
   6  -1  -1 36.9682 64.7862   1
   6  -1  -1 27.2305 67.1742   2
   6  -1   0 1129.17 267.044   2
  -6  -1   0 1453.64 302.674   1
   6  -1   0 1377.12 290.275   1
  -6  -1  -1 7.59563 56.5358   1
   6  -1   1-143.544 201.550   2
   6  -1   1-8.26946 71.7311   1
  -6  -1  -2 41.6129 31.3180   1
   6  -1   2-68.7638 164.053   2
   6  -1   2 141.399 79.4453   1
   6  -1   3-69.6365 128.774   2
   6  -1   3 73.4813 21.3383   1
  -6  -1  -4 832.071 247.949   3
   6  -1   4 561.089 98.7005   1
  -6  -1  -5 57.1861 94.0514   3
  -6  -1  -6 79.3683 72.3236   3
  -6  -1  -7-36.4968 78.8788   3
  -6  -1  -8 129.366 95.7330   3
  -6  -1  -9 53.2625 119.743   3
   6  -1  13 278.480 290.856   2
   6  -1  14 574.072 404.191   2
   6  -1  15 735.130 515.152   2
  -6   0  16 23.3867 98.3634   1
  -6   0  15 210.189 289.286   1
  -6   0  14 144.528 264.145   1
  -6   0  13-121.143 184.319   1
  -6   0  12 223.316 263.126   1
  -6   0  11 360.281 221.962   1
  -6   0  10-143.519 254.128   1
  -6   0   9 30.7671 81.7725   1
  -6   0   8 124.882 151.858   1
  -6   0   7 235.336 205.124   1
  -6   0   6-42.3115 103.090   1
  -6   0   6 82.3875 110.092   2
  -6   0   5 780.841 294.250   1
  -6   0   5 725.061 204.416   2
  -6   0   4-20.0351 81.7955   1
  -6   0   4-24.8004 88.2280   2
  -6   0   3 1345.77 321.306   1
  -6   0   3 1078.88 229.596   2
  -6   0   2 170.391 122.041   1
  -6   0   2-5.75763 105.325   2
   6   0  -1 5897.78 638.853   2
  -6   0   1 6429.36 674.545   1
   6   0  -1 6417.01 653.571   1
  -6   0   0 136.718 55.5477   1
   6   0   0 69.4288 50.5003   2
   6   0   0 168.722 80.8648   1
   6   0   1 89.4968 52.6394   1
   6   0   1-86.1503 149.601   2
  -6   0  -1 49.1768 49.7015   1
   6   0   2-125.806 194.014   2
  -6   0  -2 27.7633 43.4937   1
   6   0   2 106.051 47.2594   1
   6   0   3 807.923 143.858   1
   6   0   3 676.274 220.613   2
  -6   0  -4 261.448 128.169   3
   6   0   4-31.3117 110.557   2
   6   0   5 671.173 273.595   2
  -6   0  -5 671.819 225.203   3
  -6   0  -6 1420.14 313.122   3
  -6   0  -7 311.724 150.046   3
  -6   0  -8 22.8853 48.0657   3
  -6   0  -9 292.499 178.819   3
   6   0  11 460.031 286.749   2
   6   0  12 253.926 261.803   2
   6   0  13 609.433 356.878   2
   6   0  14 859.243 492.344   2
   6   0  15 938.765 515.648   2
  -6   1  16 169.442 226.686   1
  -6   1  15-38.1702 141.698   1
  -6   1  14 310.508 338.757   1
  -6   1  13-21.7569 108.653   1
  -6   1  12 353.898 304.417   1
  -6   1  11 144.630 229.230   1
  -6   1  10 28.5887 113.567   1
  -6   1   9-99.1751 147.877   1
  -6   1   8 154.225 140.045   1
  -6   1   7-230.379 200.699   1
  -6   1   7 89.7619 118.171   2
  -6   1   6 61.6119 161.708   1
  -6   1   6-70.3715 32.9417   2
  -6   1   5-73.1721 19.7930   1
  -6   1   5-99.9581 98.0043   2
  -6   1   4 543.011 227.441   1
  -6   1   4 370.221 93.7367   2
  -6   1   3-42.2730 113.003   1
  -6   1   3-163.184 164.052   2
  -6   1   2-36.8180 121.143   1
   6   1  -1-31.3399 30.4139   1
  -6   1   1 14.6963 30.0878   1
   6   1   0 1287.35 308.133   2
   6   1   0 1344.12 281.152   1
  -6   1   0 1342.39 284.239   1
   6   1   1-59.6568 103.880   2
  -6   1  -1 104.593 67.6860   1
   6   1   1 61.7537 34.3469   1
   6   1   2 119.414 65.8645   1
   6   1   2-156.549 201.507   2
   6   1   3-154.652 185.343   2
   6   1   3 177.057 63.9192   1
   6   1   4 626.072 207.725   2
  -6   1  -4 808.330 236.412   3
   6   1   5 66.5539 115.341   2
  -6   1  -5 136.505 113.939   3
  -6   1  -6 93.9453 87.4639   3
   6   1   6-75.3740 121.329   2
  -6   1  -7 93.6040 95.8449   3
   6   1   7-262.675 239.037   2
  -6   1  -8 55.2010 101.191   3
   6   1   8-337.555 262.278   2
   6   1   9-185.388 169.270   2
   6   1  10 199.515 223.752   2
   6   1  11 284.506 233.218   2
   6   1  12 207.863 271.477   2
   6   1  13 565.175 423.386   2
   6   1  14 939.740 516.734   2
   6   1  15 1031.65 589.999   2
  -6   2  15 49.3087 90.5153   1
  -6   2  14 206.105 124.791   1
  -6   2  13 207.596 298.857   1
  -6   2  12 279.336 254.469   1
  -6   2  11-19.4406 95.0872   1
  -6   2  10 102.632 198.304   1
  -6   2   9-32.2019 51.5527   1
  -6   2   8 158.672 98.2243   2
  -6   2   8-28.1181 48.9802   1
  -6   2   7 54.5703 50.0287   2
  -6   2   7 51.6441 131.886   1
  -6   2   6 497.366 260.598   1
  -6   2   6 415.608 104.962   2
  -6   2   5 432.236 231.785   1
  -6   2   5 296.220 65.7233   2
  -6   2   4-39.4542 142.130   1
  -6   2   4-79.5459 129.568   2
  -6   2   3 195.480 55.6725   1
  -6   2   2 1301.02 313.776   1
  -6   2   1 98.1047 91.4191   1
   6   2  -1 74.5223 92.4019   1
   6   2   0 1045.53 248.074   1
   6   2   0 1356.29 337.327   2
  -6   2   0 1016.92 241.445   1
   6   2   1 120.569 62.4585   1
   6   2   1 93.5679 102.859   2
   6   2   2 5.22360 14.9985   1
   6   2   2-192.305 177.948   2
   6   2   3-22.7159 38.7161   1
   6   2   3-219.520 182.438   2
   6   2   4-286.022 210.554   2
  -6   2  -4-38.9694 52.5944   3
   6   2   5 751.161 290.683   2
  -6   2  -5 692.644 208.697   3
  -6   2  -6 274.338 109.012   3
   6   2   6 248.419 139.559   2
  -6   2  -7 270.673 129.991   3
   6   2   7-192.747 227.380   2
  -6   2  -8 273.969 122.386   3
   6   2   8-139.121 190.673   2
   6   2   9 201.339 197.999   2
   6   2  10 75.6087 167.381   2
   6   2  11 225.960 211.173   2
   6   2  12 729.554 412.319   2
   6   2  13 760.134 477.219   2
   6   2  14 637.430 404.686   2
   6   2  15 520.511 406.166   2
  -6   3  15-67.4543 114.562   1
  -6   3  14-212.785 188.883   1
  -6   3  13 267.265 217.057   1
  -6   3  12-214.527 193.164   1
  -6   3  11 118.066 179.059   1
  -6   3  10-82.1275 104.269   1
  -6   3   9 157.567 206.065   1
  -6   3   8-116.025 146.161   1
  -6   3   7 331.010 73.6996   2
  -6   3   7 454.541 226.734   1
  -6   3   6 145.577 64.2632   2
  -6   3   6 3.07811 107.162   1
  -6   3   5 158.516 116.520   1
  -6   3   4 609.847 217.355   1
  -6   3   3 979.302 302.618   1
  -6   3   2 412.765 190.798   1
   6   3  -1 608.061 236.539   1
  -6   3   1 723.863 209.284   1
   6   3   0 1544.42 360.359   2
   6   3   0 1473.38 284.789   1
  -6   3   0 1294.13 286.939   1
   6   3   1 1557.15 374.752   2
   6   3   1 1602.99 289.176   1
   6   3   2-8.44321 124.154   2
   6   3   2 8.69083 39.1925   1
   6   3   3 286.734 82.1941   1
   6   3   3 278.924 96.4437   2
   6   3   4-195.410 180.377   2
  -6   3  -4 189.152 93.3719   3
   6   3   5 1404.30 372.123   2
  -6   3  -5 1399.53 273.518   3
  -6   3  -6-5.67458 48.0587   3
   6   3   6-170.291 192.624   2
  -6   3  -7-15.2461 63.3745   3
   6   3   7-555.332 320.366   2
  -6   3  -8 86.3096 113.212   3
   6   3   8-619.833 336.174   2
   6   3   9 560.417 254.745   2
   6   3  10 298.376 192.030   2
   6   3  11 404.745 320.297   2
   6   3  12 469.746 371.029   2
   6   3  13 707.301 436.839   2
   6   3  14 501.222 356.678   2
   6   3  15 772.046 517.386   2
  -6   4  14 119.486 145.203   1
  -6   4  13-163.059 182.607   1
  -6   4  12-215.767 199.891   1
  -6   4  11 310.764 265.481   1
  -6   4  10-73.4346 86.0887   1
  -6   4   9-128.247 190.480   1
  -6   4   8 68.3127 146.250   1
  -6   4   7 231.741 218.510   1
  -6   4   6 1189.90 376.608   1
  -6   4   5 11.6953 56.3859   1
  -6   4   4 608.279 245.417   1
  -6   4   3 196.322 93.7719   1
  -6   4   2 383.887 182.136   1
   6   4  -1 302.245 182.680   1
  -6   4   1 228.750 109.752   1
   6   4   0-17.9393 103.320   1
   6   4   0 250.953 196.982   2
   6   4   1 228.070 179.918   2
   6   4   1 137.049 82.0500   1
   6   4   2 858.789 182.734   1
   6   4   2 728.850 241.472   2
   6   4   3-90.7621 98.4301   2
   6   4   4 161.936 64.6923   2
  -6   4  -4 377.156 134.571   3
   6   4   5-194.972 186.524   2
  -6   4  -5-31.7668 54.3694   3
  -6   4  -6-22.8896 21.2773   3
   6   4   6-402.156 275.889   2
  -6   4  -7 162.413 95.5878   3
   6   4   7-471.965 344.277   2
   6   4   8-623.782 325.367   2
   6   4   9-170.198 180.586   2
   6   4  10 33.4026 96.0572   2
   6   4  11 181.951 223.338   2
   6   4  12 451.640 298.562   2
   6   4  13 701.841 415.596   2
   6   4  14 430.028 354.248   2
  -6   5  13-26.6764 64.1278   1
  -6   5  12 237.569 144.544   1
  -6   5  11-52.2578 140.836   1
  -6   5  10 217.333 293.242   1
  -6   5   9 134.781 59.5822   1
  -6   5   8 537.115 316.181   1
  -6   5   7-83.6504 123.213   1
  -6   5   6-56.1624 87.5226   1
  -6   5   5 204.199 174.820   1
  -6   5   4 203.969 152.622   1
  -6   5   3 212.039 158.912   1
  -6   5   2 96.1604 96.1765   1
   6   5  -1-18.5837 97.0947   1
   6   5   0 657.996 192.365   1
   6   5   1 608.150 182.293   1
   6   5   1 825.669 282.709   2
   6   5   2 123.696 109.314   2
   6   5   2-2.65201 51.4928   1
   6   5   3 251.618 187.547   2
   6   5   4 529.537 207.650   2
  -6   5  -4 757.232 177.313   3
   6   5   5-145.463 184.905   2
  -6   5  -5-29.0426 55.6051   3
  -6   5  -6 700.738 175.365   3
   6   5   6 307.753 123.174   2
  -6   5  -7 38.3321 34.0790   3
   6   5   7-439.536 288.441   2
   6   5   8-182.589 239.835   2
   6   5   9-117.448 180.020   2
   6   5  10 35.5031 111.532   2
   6   5  11 31.9445 141.085   2
   6   5  12 320.131 267.744   2
   6   5  13 639.991 422.702   2
   6   5  14 753.496 439.690   2
  -6   6  12 131.135 176.847   1
  -6   6  11 66.1910 170.118   1
  -6   6  10 257.577 312.170   1
  -6   6   9 66.4141 87.2666   1
  -6   6   8-87.9299 80.6704   1
  -6   6   7 695.784 308.632   1
  -6   6   6-47.6819 91.7079   1
  -6   6   5 1646.81 424.452   1
  -6   6   4 322.559 161.587   1
  -6   6   3-15.3936 75.4242   1
   6   6  -1 1595.38 346.247   1
   6   6   0 988.715 258.222   1
   6   6   1 76.5160 24.9944   1
   6   6   1 487.736 263.723   2
   6   6   2 175.886 163.776   2
   6   6   2 27.5460 56.3217   1
   6   6   3 2140.79 441.630   2
   6   6   4 23.2489 16.4334   2
  -6   6  -4 64.3590 55.2694   3
   6   6   5-88.9279 137.526   2
  -6   6  -5 96.5423 71.2135   3
  -6   6  -6 6.29712 27.4397   3
   6   6   6-99.6792 175.561   2
  -6   6  -7 216.090 85.4805   3
   6   6   7-62.2126 163.701   2
   6   6   8-95.4876 191.408   2
   6   6   9-158.727 183.818   2
   6   6  10 222.612 185.534   2
   6   6  11 340.689 237.548   2
   6   6  12 206.526 206.177   2
   6   6  13 768.223 426.926   2
   6   6  14 675.095 400.875   2
  -6   7  10 15.2804 131.132   1
  -6   7   9 235.523 187.439   1
  -6   7   8 65.7959 52.1741   1
  -6   7   7 60.5171 105.473   1
  -6   7   6 152.049 166.394   1
  -6   7   5 7.32306 111.685   1
   6   7   0 820.416 224.460   1
   6   7   1 120.257 98.8542   1
   6   7   2 367.912 238.238   2
   6   7   3 383.163 232.843   2
   6   7   4 171.816 118.502   2
  -6   7  -4 248.872 97.6698   3
   6   7   5 569.066 247.828   2
  -6   7  -5 444.823 115.588   3
  -6   7  -6 12.9635 37.8901   3
   6   7   6-26.1423 76.8884   2
   6   7   7 27.1095 105.193   2
   6   7   8-60.5994 148.940   2
   6   7   9 95.5703 34.9902   2
   6   7  10 139.335 152.408   2
   6   7  11 305.059 234.384   2
   6   7  12 162.224 172.769   2
   6   7  13 196.762 232.638   2
   6   7  14 133.630 234.793   2
   6   8   0 1006.51 258.941   1
   6   8   1 590.641 174.741   1
   6   8   3 509.753 268.445   2
   6   8   4 1153.42 328.620   2
  -6   8  -4 1373.94 212.453   3
   6   8   5 117.879 106.092   2
  -6   8  -5-11.2872 15.9664   3
  -6   8  -6 6.87856 8.91926   3
   6   8   6 165.101 201.685   2
   6   8   7 120.513 142.901   2
   6   8   8-154.402 206.934   2
   6   8   9-377.206 242.056   2
   6   8  10 132.754 199.489   2
   6   8  11-28.9850 127.815   2
   6   8  12 374.318 269.179   2
   6   8  13 206.532 214.201   2
   6   8  14 12.6552 66.6014   2
   6   9   0 28.6606 68.0747   1
   6   9   1 105.913 80.9869   1
   6   9   3 646.068 299.685   2
  -6   9  -4 208.549 74.9482   3
   6   9   4 360.709 203.129   2
  -6   9  -5 395.967 91.1613   3
   6   9   5 785.618 303.023   2
   6   9   6 369.102 272.917   2
   6   9   7 230.368 237.256   2
   6   9   8-142.919 190.639   2
   6   9   9 320.138 148.263   2
   6   9  10 379.365 241.414   2
   6   9  11-237.813 188.337   2
   6   9  12-91.4011 159.602   2
   6   9  13 27.6591 21.5771   2
   6  10   4 470.296 242.805   2
  -6  10  -4 19.3729 22.2302   3
   6  10   5 656.223 303.142   2
   6  10   6 504.296 299.020   2
   6  10   7 409.877 248.883   2
   6  10   8-135.266 123.841   2
   6  10   9-159.631 198.046   2
   6  10  10 42.4672 67.7299   2
   6  10  11-0.65146 48.4255   2
   6  10  12-74.7059 135.041   2
   6  10  13-168.318 207.230   2
  -6  11  -4 286.978 75.5910   3
   6  11   5 845.127 354.656   2
   6  11   6 1375.28 437.185   2
   6  11   7 471.062 262.434   2
   6  11   8 337.694 183.447   2
   6  11   9-218.534 195.754   2
   6  11  10 7.78743 140.958   2
   6  11  11-375.171 286.028   2
   6  11  12-486.732 288.019   2
   6  11  13-527.625 372.779   2
  -6  12  -4 101.497 42.6717   3
   6  12   6 1137.76 423.413   2
   6  12   7 929.335 391.770   2
   6  12   8 77.0354 125.610   2
   6  12   9-218.775 208.028   2
   6  12  10-238.671 232.863   2
   6  12  11-630.836 363.543   2
   6  12  12-357.410 282.868   2
   6  12  13-1146.59 491.819   2
   6  13   8 451.884 283.855   2
   6  13   9 45.7222 84.0955   2
   6  13  10-85.1874 195.362   2
   6  13  11-331.652 301.599   2
   6  13  12-560.130 357.561   2
   6  13  13-362.237 348.102   2
  -6  14  -3 323.410 100.041   3
  -6  15  -2 9.49643 61.9148   3
  -6  15  -3 19.1975 45.4799   3
  -6  16  -1 91.0229 100.023   3
  -6  16  -2 73.3063 66.1300   3
  -6  16  -3 261.480 91.3598   3
  -6  17   0 218.936 72.2857   3
  -6  17  -1 230.391 132.750   3
  -6  17  -2 57.9814 58.8587   3
  -6  17  -3 78.1952 54.3488   3
  -6  18  -1 20.2945 19.5173   3
  -6  18  -2 96.4436 78.8232   3
  -6  18  -3 144.455 69.3020   3
  -6  19  -1-29.8930 83.9152   3
  -6  19  -2 84.6711 74.5894   3
  -6  19  -3 77.7601 62.9189   3
  -6  20  -1 174.758 111.089   3
  -6  20  -2 192.321 110.264   3
  -6  20  -3 192.645 82.5565   3
  -6  21  -1-104.011 70.4888   3
  -6  21  -2 50.8113 62.4837   3
  -6  22  -1 55.3836 93.5106   3
  -7 -39  -2 111.842 170.827   1
  -7 -39  -3-295.406 321.818   1
  -7 -39  -4 524.151 447.038   1
  -7 -38   0 74.4830 251.010   1
  -7 -38  -1-227.259 204.785   1
  -7 -38  -2 154.325 347.635   1
  -7 -38  -3-212.278 232.047   1
  -7 -38  -4-153.498 145.666   1
  -7 -37   6-78.5757 265.415   3
  -7 -37   5-200.984 403.225   3
  -7 -37   4-81.3646 116.647   3
  -7 -37   3 310.012 395.187   3
  -7 -37   2 202.079 439.611   1
  -7 -37   2 98.2515 273.443   3
  -7 -37   1 192.727 453.427   1
  -7 -37   1 55.5338 143.167   3
  -7 -37   0 49.2918 252.203   1
  -7 -37   0-349.672 400.005   3
  -7 -37  -1 17.1760 90.2659   1
  -7 -37  -2 27.9613 55.5407   1
  -7 -37  -3 342.334 242.428   1
  -7 -37  -4-135.622 314.513   1
  -7 -36   7 292.954 381.612   3
  -7 -36   6 331.216 369.602   3
  -7 -36   5 358.201 266.410   3
  -7 -36   4 426.044 346.701   3
  -7 -36   3 345.758 410.034   1
  -7 -36   3 216.448 307.901   3
  -7 -36   2 235.030 387.232   3
  -7 -36   2 417.262 316.819   1
  -7 -36   1 135.193 314.964   1
  -7 -36   1-350.151 436.001   3
  -7 -36   0 204.475 242.486   1
  -7 -36   0-154.071 237.288   3
  -7 -36  -1 246.495 211.370   1
  -7 -36  -1-77.0522 145.148   3
  -7 -36  -2-271.361 300.010   1
  -7 -36  -3 50.3968 65.9043   1
  -7 -36  -4 8.60562 200.478   1
  -7 -35   7-33.5535 227.741   3
  -7 -35   6 481.810 372.236   3
  -7 -35   5 54.1027 107.693   3
  -7 -35   4-88.1061 254.614   3
  -7 -35   4-67.2555 215.243   1
  -7 -35   3 167.332 213.817   1
  -7 -35   3 201.836 277.357   3
  -7 -35   2 306.712 289.839   3
  -7 -35   2 274.528 175.192   1
  -7 -35   1 54.6887 263.766   1
  -7 -35   1 1.34291 68.0628   3
  -7 -35   0 465.994 418.009   1
  -7 -35   0 163.772 187.987   3
  -7 -35  -1-11.3020 84.1045   1
  -7 -35  -1 536.128 349.208   3
  -7 -35  -2 224.623 317.209   3
  -7 -35  -2-130.092 238.924   1
  -7 -35  -3 79.4893 260.238   3
  -7 -35  -3-191.743 146.169   1
  -7 -35  -4 172.914 257.664   1
  -7 -35  -5 174.639 340.640   1
  -7 -34   8-206.942 81.3658   3
  -7 -34   7 120.218 345.677   3
  -7 -34   6 248.060 343.799   3
  -7 -34   5-163.981 319.918   1
  -7 -34   5 1.87076 189.395   3
  -7 -34   4-68.8966 44.9027   1
  -7 -34   4 134.956 292.244   3
  -7 -34   3-97.8357 255.204   3
  -7 -34   3 306.920 340.574   1
  -7 -34   2 177.873 314.616   3
  -7 -34   2-13.3830 166.887   1
  -7 -34   1 301.333 385.796   1
  -7 -34   1 90.1276 180.346   3
  -7 -34   0-40.8693 279.016   1
  -7 -34   0 338.026 287.958   3
  -7 -34  -1-58.6671 103.389   1
  -7 -34  -1-109.625 144.440   3
  -7 -34  -2 350.068 321.648   3
  -7 -34  -2 175.432 165.663   1
  -7 -34  -3-91.4701 134.153   3
  -7 -34  -3 70.4880 226.332   1
  -7 -34  -4 216.398 321.925   3
  -7 -34  -4 54.3822 50.0431   1
  -7 -34  -5-185.144 173.100   1
  -7 -33   8-3.07214 143.309   3
  -7 -33   7 482.539 421.402   3
  -7 -33   6 342.772 338.195   3
  -7 -33   6 195.364 372.427   1
  -7 -33   5 161.132 138.752   1
  -7 -33   5 216.472 304.041   3
  -7 -33   4 11.3964 217.877   1
  -7 -33   4-3.21972 47.8676   3
  -7 -33   3 502.567 377.880   1
  -7 -33   3-202.675 146.620   3
  -7 -33   2-53.9522 54.8334   3
  -7 -33   2 100.918 69.5281   1
  -7 -33   1 472.313 339.841   1
  -7 -33   1 487.460 374.478   3
  -7 -33   0 208.846 291.417   1
  -7 -33   0 322.188 277.494   3
  -7 -33  -1 110.866 151.127   1
  -7 -33  -1-98.4632 215.532   3
  -7 -33  -2 69.2241 69.4544   1
  -7 -33  -2-13.0124 154.077   3
  -7 -33  -3 23.0267 186.756   3
  -7 -33  -3 257.016 236.000   1
  -7 -33  -4 270.501 301.152   3
  -7 -33  -4-13.7664 107.196   1
  -7 -33  -5 110.252 158.706   3
  -7 -33  -5 13.6721 147.218   1
  -7 -32   7 237.798 378.489   1
  -7 -32   7 470.719 416.646   3
  -7 -32   6 259.281 395.080   1
  -7 -32   6 184.182 250.587   3
  -7 -32   5-22.0733 303.887   1
  -7 -32   5 294.262 377.024   3
  -7 -32   4-172.797 239.275   1
  -7 -32   4-90.3267 230.236   3
  -7 -32   3-55.5007 145.435   3
  -7 -32   3 12.7501 193.429   1
  -7 -32   2-18.8449 61.3730   1
  -7 -32   2 118.326 36.7876   3
  -7 -32   1 32.6881 29.3527   1
  -7 -32   1 165.031 142.250   3
  -7 -32   0 179.682 173.140   1
  -7 -32   0-192.740 275.990   3
  -7 -32  -1-199.147 243.328   1
  -7 -32  -1-63.0622 145.059   3
  -7 -32  -2-36.5198 173.017   1
  -7 -32  -2-4.27650 31.1324   3
  -7 -32  -3 86.7305 252.649   3
  -7 -32  -3 219.758 241.341   1
  -7 -32  -4-94.5832 215.844   3
  -7 -32  -4 138.934 18.5967   1
  -7 -32  -5-74.7737 243.354   3
  -7 -32  -5-26.9231 91.5407   1
  -7 -31   7 181.037 323.529   1
  -7 -31   6 236.373 310.275   3
  -7 -31   6-240.766 175.874   1
  -7 -31   5 154.931 235.510   1
  -7 -31   5 361.714 346.804   3
  -7 -31   4-215.572 247.868   1
  -7 -31   4 15.1406 130.619   3
  -7 -31   3-83.0712 236.514   1
  -7 -31   3 1.98927 165.035   3
  -7 -31   2-103.534 122.875   1
  -7 -31   2 376.564 334.268   3
  -7 -31   1 337.712 340.731   1
  -7 -31   1 263.639 321.138   3
  -7 -31   0-39.9086 197.980   1
  -7 -31   0 49.3408 194.096   3
  -7 -31  -1 114.661 142.928   1
  -7 -31  -1-162.965 128.195   3
  -7 -31  -2 97.3548 210.733   1
  -7 -31  -2 291.346 301.731   3
  -7 -31  -3-239.155 305.000   3
  -7 -31  -3 114.543 188.718   1
  -7 -31  -4 160.787 267.066   3
  -7 -31  -4 57.8691 165.835   1
  -7 -31  -5-137.495 220.042   3
  -7 -31  -5 185.804 256.489   1
  -7 -31  -6-328.128 273.632   3
  -7 -30   8-12.3838 266.528   1
  -7 -30   7-108.620 285.238   1
  -7 -30   6 166.477 248.810   1
  -7 -30   6 383.668 374.509   3
  -7 -30   5 119.554 206.115   1
  -7 -30   5 213.841 241.194   3
  -7 -30   4 36.5460 29.0808   1
  -7 -30   4 230.073 270.512   3
  -7 -30   3 32.5367 296.223   1
  -7 -30   3-71.3054 147.558   3
  -7 -30   2 79.5945 196.669   1
  -7 -30   2 131.877 95.6717   3
  -7 -30   1 55.6072 268.963   3
  -7 -30   1 272.033 219.571   1
  -7 -30   0 58.6723 122.186   1
  -7 -30   0 96.0945 124.554   3
  -7 -30  -1 127.183 343.397   1
  -7 -30  -1-4.59588 142.532   3
  -7 -30  -2 46.9698 124.300   1
  -7 -30  -2-14.6368 270.828   3
  -7 -30  -3 41.9782 28.8851   1
  -7 -30  -3-95.5562 327.135   3
  -7 -30  -4 569.519 410.499   3
  -7 -30  -4 72.5871 188.898   1
  -7 -30  -5 140.557 203.474   3
  -7 -30  -5 114.904 121.145   1
  -7 -30  -6-22.0099 142.528   3
  -7 -30  -7-204.542 38.0890   3
  -7 -29   8 335.299 327.906   1
  -7 -29   7 62.2006 178.985   1
  -7 -29   6 215.807 286.477   1
  -7 -29   5 175.650 186.249   1
  -7 -29   5 390.927 277.086   3
  -7 -29   4 25.8015 62.5557   1
  -7 -29   4 53.2429 172.198   3
  -7 -29   3 72.4322 42.9483   1
  -7 -29   3 43.8999 63.9771   3
  -7 -29   2 74.7845 179.794   3
  -7 -29   2 203.329 142.757   1
  -7 -29   1 295.023 256.265   3
  -7 -29   1-88.7157 132.244   1
  -7 -29   0-126.126 241.826   1
  -7 -29   0 333.405 344.238   3
  -7 -29  -1 190.535 176.846   3
  -7 -29  -1 240.955 276.108   1
  -7 -29  -2 401.925 312.514   1
  -7 -29  -2 52.2537 80.5531   3
  -7 -29  -3-5.07003 76.7821   1
  -7 -29  -3 241.596 289.802   3
  -7 -29  -4 233.481 260.668   3
  -7 -29  -4 306.283 236.317   1
  -7 -29  -5-408.051 361.762   3
  -7 -29  -5 67.7138 186.681   1
  -7 -29  -6-201.740 340.798   3
  -7 -29  -7 96.8880 206.560   3
  -7 -29  -8-15.8004 214.034   3
  -7 -28   9-98.4232 210.053   1
  -7 -28   8-11.7216 73.0327   1
  -7 -28   7 17.8835 127.179   1
  -7 -28   6-123.773 133.542   1
  -7 -28   5 158.523 264.207   1
  -7 -28   4-73.4130 262.047   1
  -7 -28   4 273.035 288.017   3
  -7 -28   3-49.5238 223.266   1
  -7 -28   3 0.13518 74.5491   3
  -7 -28   2 31.5953 78.3728   1
  -7 -28   2 189.918 256.437   3
  -7 -28   1 116.975 128.933   3
  -7 -28   1 75.5552 212.165   1
  -7 -28   0 43.1892 214.910   1
  -7 -28   0 183.201 138.418   3
  -7 -28  -1 51.9672 143.261   1
  -7 -28  -1-108.350 123.535   3
  -7 -28  -2-71.9117 102.377   1
  -7 -28  -2-64.3517 117.335   3
  -7 -28  -3-11.9934 49.7271   1
  -7 -28  -3 313.420 255.833   3
  -7 -28  -4 44.9754 146.998   3
  -7 -28  -4-0.36274 99.3983   1
  -7 -28  -5 115.850 184.535   3
  -7 -28  -5 46.1240 140.577   1
  -7 -28  -6-223.402 287.719   3
  -7 -28  -7 104.307 170.536   3
  -7 -28  -8 461.055 450.774   3
  -7 -27   9 14.4032 105.005   1
  -7 -27   8 95.2431 170.641   1
  -7 -27   7-15.6386 207.028   1
  -7 -27   6-78.3124 177.180   1
  -7 -27   5 18.7163 162.822   1
  -7 -27   4 141.684 180.981   1
  -7 -27   4 99.6428 48.3106   3
  -7 -27   3 338.969 374.330   3
  -7 -27   3 223.373 203.820   1
  -7 -27   2 167.540 254.910   1
  -7 -27   2-29.3868 57.3926   3
  -7 -27   1 342.726 332.513   3
  -7 -27   1-31.5396 179.240   1
  -7 -27   0-32.4581 155.835   1
  -7 -27   0-88.2672 46.6657   3
  -7 -27  -1 28.9987 109.262   1
  -7 -27  -1 32.3140 144.443   3
  -7 -27  -2 224.722 242.730   1
  -7 -27  -2 306.227 162.764   3
  -7 -27  -3-49.4550 135.511   1
  -7 -27  -3 162.348 31.4104   3
  -7 -27  -4-233.394 243.401   3
  -7 -27  -4 49.4422 130.583   1
  -7 -27  -5 36.4230 164.385   3
  -7 -27  -5 172.560 221.618   1
  -7 -27  -6-72.4751 286.684   3
  -7 -27  -7 227.551 312.703   3
  -7 -27  -8-42.8150 119.576   3
  -7 -27  -9 270.641 339.079   3
  -7 -26  10 274.578 412.516   1
  -7 -26   9-104.121 120.438   1
  -7 -26   8 291.513 419.562   1
  -7 -26   7 301.381 290.167   1
  -7 -26   6 556.599 366.923   1
  -7 -26   5-42.0460 119.610   1
  -7 -26   4 99.4977 257.009   1
  -7 -26   3 19.6389 115.019   1
  -7 -26   3 158.802 315.773   3
  -7 -26   2 379.968 312.043   1
  -7 -26   2-99.7743 61.1684   3
  -7 -26   1 436.087 341.270   3
  -7 -26   1 208.356 202.738   1
  -7 -26   0 80.5830 121.220   1
  -7 -26   0 40.4289 167.201   3
  -7 -26  -1 221.825 178.702   1
  -7 -26  -1 235.738 230.683   3
  -7 -26  -2 158.904 271.281   1
  -7 -26  -2 78.5193 229.682   3
  -7 -26  -3-15.4985 109.838   1
  -7 -26  -3 44.9246 41.0370   3
  -7 -26  -4-167.272 214.552   3
  -7 -26  -4-27.5024 121.043   1
  -7 -26  -5-99.2111 29.4212   3
  -7 -26  -5 104.699 238.116   1
  -7 -26  -6-190.074 313.621   3
  -7 -26  -6 192.846 135.036   1
  -7 -26  -7 35.7828 191.598   3
  -7 -26  -8 381.903 326.193   3
  -7 -26  -9-110.703 349.137   3
  -7 -25  10 406.665 470.878   1
  -7 -25   9-65.0909 342.549   1
  -7 -25   8 293.872 369.503   1
  -7 -25   7-33.2585 118.413   1
  -7 -25   6 336.138 332.074   1
  -7 -25   5 146.411 198.640   1
  -7 -25   4 25.8244 169.544   1
  -7 -25   3 81.9481 66.5565   1
  -7 -25   3-71.0896 172.214   3
  -7 -25   2 164.340 205.731   1
  -7 -25   2 146.797 134.855   3
  -7 -25   1 261.695 203.927   3
  -7 -25   1 38.0029 139.484   1
  -7 -25   0 214.102 168.376   3
  -7 -25   0 225.260 262.262   1
  -7 -25  -1-9.58492 45.9795   1
  -7 -25  -1 201.976 202.861   3
  -7 -25  -2-13.0357 86.0116   1
  -7 -25  -2 207.067 225.424   3
  -7 -25  -3-75.7339 130.433   1
  -7 -25  -3-55.8801 113.829   3
  -7 -25  -4 58.4186 54.4372   1
  -7 -25  -4 467.258 292.411   3
  -7 -25  -5 216.901 64.1348   3
  -7 -25  -5 92.4717 160.987   1
  -7 -25  -6 417.309 321.124   3
  -7 -25  -6 64.5573 129.704   1
  -7 -25  -7-222.489 242.780   3
  -7 -25  -8 209.125 300.402   3
  -7 -25  -9 231.382 261.076   3
  -7 -25 -10 203.669 340.091   3
  -7 -24  11-51.6298 260.430   1
  -7 -24  10 199.946 227.888   1
  -7 -24   9 143.679 204.237   1
  -7 -24   8 66.9907 253.031   1
  -7 -24   7 150.490 227.553   1
  -7 -24   6 9.58091 33.5448   1
  -7 -24   5-50.0825 175.047   1
  -7 -24   4 119.058 137.217   1
  -7 -24   3 67.1722 92.3937   1
  -7 -24   2 411.986 333.659   1
  -7 -24   2 308.828 286.552   3
  -7 -24   1 215.229 219.863   1
  -7 -24   1 91.2270 169.307   3
  -7 -24   0 169.416 151.022   1
  -7 -24   0 187.951 254.065   3
  -7 -24  -1 22.0972 68.9094   1
  -7 -24  -1 194.431 244.159   3
  -7 -24  -2 176.119 208.558   1
  -7 -24  -2 138.274 111.949   3
  -7 -24  -3 141.769 152.966   1
  -7 -24  -3 29.0215 39.2683   3
  -7 -24  -4 208.783 106.924   1
  -7 -24  -4 301.381 294.027   3
  -7 -24  -5 168.433 219.568   3
  -7 -24  -5-33.7282 55.0272   1
  -7 -24  -6-129.757 281.960   3
  -7 -24  -6 130.864 174.923   1
  -7 -24  -7-199.968 253.232   3
  -7 -24  -8 323.927 262.356   3
  -7 -24  -9 36.6967 145.158   3
  -7 -24 -10 64.1220 264.023   3
  -7 -23  11 10.2181 84.9498   1
  -7 -23  10 63.6305 319.870   1
  -7 -23   9-59.6927 65.3439   1
  -7 -23   8-61.3917 192.255   1
  -7 -23   7 85.3057 95.9378   1
  -7 -23   6 111.498 172.882   1
  -7 -23   5-16.6505 129.931   1
  -7 -23   4-214.450 218.159   1
  -7 -23   3 196.073 229.920   1
  -7 -23   2 377.963 315.684   1
  -7 -23   2 277.135 177.664   3
  -7 -23   1 78.2317 68.6783   3
  -7 -23   1 1123.31 433.373   1
  -7 -23   0 210.009 216.705   3
  -7 -23   0 290.431 149.628   1
  -7 -23  -1-29.2707 53.8856   1
  -7 -23  -1 78.7171 102.252   3
  -7 -23  -2 271.298 252.560   1
  -7 -23  -2-173.432 45.5284   3
  -7 -23  -3-80.0824 29.3265   1
  -7 -23  -3-216.489 244.036   3
  -7 -23  -4 46.3705 54.9578   1
  -7 -23  -4 3.53938 168.070   3
  -7 -23  -5 274.627 271.763   3
  -7 -23  -5 209.333 238.322   1
  -7 -23  -6 33.7237 121.391   3
  -7 -23  -6 173.060 210.086   1
  -7 -23  -7-105.974 301.011   3
  -7 -23  -8 134.182 188.671   3
  -7 -23  -9 369.343 340.336   3
  -7 -23 -10 270.400 293.124   3
  -7 -23 -11-153.546 56.2562   3
  -7 -22  11-236.933 364.624   1
  -7 -22  10-161.925 117.559   1
  -7 -22   9 92.1795 145.362   1
  -7 -22   8 364.733 282.206   1
  -7 -22   7-60.9828 61.5936   1
  -7 -22   6 93.5043 196.150   1
  -7 -22   5 187.633 195.951   1
  -7 -22   4-35.1618 53.1780   1
  -7 -22   3 76.7293 126.392   1
  -7 -22   2 136.179 198.391   1
  -7 -22   1 995.355 408.396   1
  -7 -22   1 1235.44 488.552   3
  -7 -22   0 167.080 54.7267   1
  -7 -22   0 241.447 96.7499   3
  -7 -22  -1 132.144 145.791   3
  -7 -22  -1 87.8221 183.218   1
  -7 -22  -2 263.465 232.743   1
  -7 -22  -2 420.412 324.302   3
  -7 -22  -3 72.2138 160.800   1
  -7 -22  -3-114.122 174.961   3
  -7 -22  -4 136.837 174.565   1
  -7 -22  -4-48.0596 73.4494   3
  -7 -22  -5 310.537 229.697   3
  -7 -22  -5 232.103 228.401   1
  -7 -22  -6 33.7398 158.341   3
  -7 -22  -6 77.9509 107.047   1
  -7 -22  -7 210.098 199.295   3
  -7 -22  -8 360.745 326.373   3
  -7 -22  -9 201.977 311.997   3
  -7 -22 -10-92.5983 65.3078   3
  -7 -22 -11-173.581 265.646   3
  -7 -21  12-66.5384 219.387   1
  -7 -21  11-376.581 394.727   1
  -7 -21  10 54.8247 76.4853   1
  -7 -21   9 222.053 391.167   1
  -7 -21   8-28.7954 109.472   1
  -7 -21   7 157.885 238.985   1
  -7 -21   6 325.237 278.750   1
  -7 -21   5 343.733 331.661   1
  -7 -21   4 221.633 249.789   1
  -7 -21   3 533.086 346.720   1
  -7 -21   2 26.2340 83.5729   1
  -7 -21   1 470.910 270.184   1
  -7 -21   1 537.130 327.369   3
  -7 -21   0 74.5352 89.0240   1
  -7 -21   0 250.062 216.288   3
  -7 -21  -1 67.5043 131.450   3
  -7 -21  -1-152.191 157.087   1
  -7 -21  -2 131.326 110.740   1
  -7 -21  -2 191.996 134.818   3
  -7 -21  -3 308.151 214.684   1
  -7 -21  -3 489.766 344.826   3
  -7 -21  -4 6.81943 91.3534   1
  -7 -21  -4-24.3857 78.4984   3
  -7 -21  -5-8.49270 33.5214   3
  -7 -21  -5-29.4704 85.5339   1
  -7 -21  -6 84.1352 189.719   3
  -7 -21  -6 313.778 217.590   1
  -7 -21  -7-230.764 216.019   3
  -7 -21  -8-9.14311 190.730   3
  -7 -21  -9-42.5955 84.6779   3
  -7 -21 -10 314.443 316.534   3
  -7 -21 -11 137.251 254.258   3
  -7 -21 -12 34.9767 299.724   3
  -7 -20  12 26.5176 244.816   1
  -7 -20  11 269.995 216.362   1
  -7 -20  10 481.165 404.552   1
  -7 -20   9 33.9901 114.959   1
  -7 -20   8 160.655 215.993   1
  -7 -20   7 204.246 77.3511   1
  -7 -20   6 65.5957 243.092   1
  -7 -20   5 216.417 212.252   1
  -7 -20   4 354.550 293.580   1
  -7 -20   3-180.194 231.893   1
  -7 -20   2 160.676 160.112   1
  -7 -20   1 70.3961 173.911   1
  -7 -20   0 559.398 323.996   3
  -7 -20   0 129.867 130.765   1
  -7 -20  -1-40.2349 40.1317   1
  -7 -20  -1-167.408 150.992   3
  -7 -20  -2 222.535 291.040   3
  -7 -20  -2 117.452 129.060   1
  -7 -20  -3 61.3286 164.276   1
  -7 -20  -3 100.978 66.2776   3
  -7 -20  -4 27.5198 125.993   1
  -7 -20  -4 56.9076 61.2013   3
  -7 -20  -5-96.1091 63.6529   1
  -7 -20  -5 71.4344 81.4671   3
  -7 -20  -6-78.3687 240.979   3
  -7 -20  -6-64.0850 49.9080   1
  -7 -20  -7-220.481 269.118   3
  -7 -20  -8-71.0096 46.1679   3
  -7 -20  -9 324.174 386.617   3
  -7 -20 -10 488.379 307.823   3
  -7 -20 -11 108.007 46.1246   3
  -7 -20 -12 117.791 250.910   3
  -7 -19  12-104.743 269.712   1
  -7 -19  11 299.540 349.906   1
  -7 -19  10 178.778 307.132   1
  -7 -19   9 144.462 150.923   1
  -7 -19   8-9.32465 193.599   1
  -7 -19   7 344.130 306.954   1
  -7 -19   6 271.739 271.902   1
  -7 -19   5 130.537 160.448   1
  -7 -19   4-204.609 188.602   1
  -7 -19   3 183.600 163.582   1
  -7 -19   2 123.544 144.371   1
  -7 -19   1 204.412 105.766   1
  -7 -19   0 149.040 152.469   1
  -7 -19   0 232.774 153.700   3
  -7 -19  -1 312.186 174.500   1
  -7 -19  -1 377.338 240.424   3
  -7 -19  -2 503.476 329.199   3
  -7 -19  -2 284.537 191.949   1
  -7 -19  -3-110.438 152.807   3
  -7 -19  -3 19.2923 36.5130   1
  -7 -19  -4 124.529 89.5616   1
  -7 -19  -4 59.0416 104.687   3
  -7 -19  -5 300.804 172.243   1
  -7 -19  -5-2.65728 149.521   3
  -7 -19  -6 90.3539 136.737   1
  -7 -19  -6 94.6647 165.505   3
  -7 -19  -7 13.4177 134.594   3
  -7 -19  -8 22.9483 56.0643   3
  -7 -19  -9 100.649 255.483   3
  -7 -19 -10 136.562 190.612   3
  -7 -19 -11-159.553 174.194   3
  -7 -19 -12 320.764 359.369   3
  -7 -18  12 274.237 401.252   1
  -7 -18  11-85.3413 220.733   1
  -7 -18  10 350.185 353.060   1
  -7 -18   9 109.753 239.995   1
  -7 -18   8 296.499 158.858   1
  -7 -18   7-52.7420 122.454   1
  -7 -18   6 526.008 291.176   1
  -7 -18   5 25.0028 153.221   1
  -7 -18   4 162.116 124.676   1
  -7 -18   3 156.202 245.322   1
  -7 -18   2 162.516 224.188   1
  -7 -18   1-77.7287 97.5023   1
  -7 -18   0-25.3825 102.951   1
  -7 -18   0 40.2402 81.0078   3
  -7 -18  -1 110.018 136.303   1
  -7 -18  -1 170.544 212.848   3
  -7 -18  -2 271.788 216.307   3
  -7 -18  -2 92.1852 124.192   1
  -7 -18  -3 29.4262 64.0936   1
  -7 -18  -3 209.616 199.125   3
  -7 -18  -4 162.579 228.524   3
  -7 -18  -4-41.9612 54.6967   1
  -7 -18  -5 147.880 124.832   1
  -7 -18  -5 39.8784 114.475   3
  -7 -18  -6-116.481 119.683   3
  -7 -18  -6-17.8647 30.0027   1
  -7 -18  -7 352.266 289.335   3
  -7 -18  -8 70.7077 22.8395   3
  -7 -18  -9 115.183 157.859   3
  -7 -18 -10 62.0783 72.3571   3
  -7 -18 -11-77.7377 143.834   3
  -7 -18 -12-156.505 223.927   3
  -7 -17  13-28.6994 263.513   1
  -7 -17  12 454.125 429.345   1
  -7 -17  11-255.046 243.270   1
  -7 -17  10 262.874 292.166   1
  -7 -17   9 169.367 280.852   1
  -7 -17   8 20.2486 78.4166   1
  -7 -17   7 115.661 210.308   1
  -7 -17   6 61.7578 144.391   1
   7 -17  -5-249.385 137.616   2
  -7 -17   5-12.8762 46.8841   1
  -7 -17   4 22.0597 58.5689   1
  -7 -17   3-57.4774 69.7838   1
  -7 -17   2 392.482 277.473   1
  -7 -17   1-6.86837 115.903   1
  -7 -17   0 92.2644 32.9846   1
  -7 -17  -1 163.924 158.782   1
  -7 -17  -1-14.2246 86.1515   3
  -7 -17  -2 75.7220 126.776   1
  -7 -17  -2-41.6749 91.1239   3
  -7 -17  -3-55.4895 90.8807   1
  -7 -17  -3-19.6140 56.7387   3
  -7 -17  -4 139.449 117.227   1
  -7 -17  -4 374.587 278.443   3
  -7 -17  -5 211.262 154.751   1
  -7 -17  -5 158.230 203.394   3
  -7 -17  -6 149.439 96.6783   3
  -7 -17  -6 142.070 140.348   1
  -7 -17  -7-57.3326 131.299   3
  -7 -17  -8-23.0579 140.367   3
  -7 -17  -9 154.578 142.989   3
  -7 -17 -10 46.5654 103.318   3
  -7 -17 -11 262.474 309.268   3
  -7 -17 -12 94.8741 239.932   3
  -7 -16  13-140.707 217.519   1
  -7 -16  12 226.897 240.250   1
  -7 -16  11 469.478 394.813   1
  -7 -16  10 231.678 252.143   1
  -7 -16   9-192.742 204.806   1
  -7 -16   8 3.75260 126.303   1
  -7 -16   7 580.271 343.107   1
  -7 -16   6 16.5191 62.1422   1
   7 -16  -5 159.552 31.5016   2
  -7 -16   5 362.069 263.629   1
  -7 -16   4 394.929 273.264   1
  -7 -16   3 161.050 161.307   1
  -7 -16   2 435.623 251.295   1
  -7 -16   1 379.959 212.030   1
  -7 -16   0-94.9971 134.684   1
  -7 -16  -1-53.3565 131.661   1
  -7 -16  -1 104.179 113.581   3
  -7 -16  -2 64.5669 54.8003   1
  -7 -16  -2 15.3993 182.816   3
  -7 -16  -3-132.508 161.924   3
  -7 -16  -3 56.7714 66.5093   1
  -7 -16  -4-71.5833 83.2861   1
  -7 -16  -4-23.0373 107.277   3
  -7 -16  -5 264.178 179.387   1
  -7 -16  -5 429.420 256.471   3
  -7 -16  -6 612.024 329.234   3
  -7 -16  -6 738.062 258.825   1
  -7 -16  -7-178.318 216.143   3
  -7 -16  -8-50.7796 68.3807   3
  -7 -16  -9 144.267 165.444   3
  -7 -16 -10 112.679 124.855   3
  -7 -16 -11 9.95316 103.994   3
  -7 -16 -12 258.780 192.699   3
  -7 -15  13 250.734 355.730   1
  -7 -15  12-99.1780 336.099   1
  -7 -15  11 170.825 275.841   1
  -7 -15  10 28.9801 257.642   1
  -7 -15   9-42.9015 158.444   1
  -7 -15   8 136.661 207.225   1
  -7 -15   7 155.234 175.185   1
  -7 -15   6-25.8361 91.3321   1
   7 -15  -5 78.5511 63.7974   2
  -7 -15   5 134.487 195.225   1
  -7 -15   4 65.2863 140.247   1
  -7 -15   3-171.565 152.239   1
  -7 -15   2 2.33599 170.122   1
  -7 -15   1 626.390 267.925   1
  -7 -15   0 80.1860 76.1258   1
  -7 -15  -1 154.967 208.541   3
  -7 -15  -1 87.0223 79.8631   1
  -7 -15  -2 118.650 75.3896   1
  -7 -15  -2-76.2768 125.924   3
  -7 -15  -3 612.503 244.825   1
  -7 -15  -3 679.884 344.868   3
  -7 -15  -4 455.972 206.825   1
  -7 -15  -4 531.514 282.609   3
  -7 -15  -5 53.2585 45.3111   1
  -7 -15  -5 161.646 120.357   3
  -7 -15  -6-74.8843 135.895   3
  -7 -15  -6-19.8125 43.0037   1
  -7 -15  -7 308.337 220.426   3
  -7 -15  -8 25.4025 125.326   3
  -7 -15  -9 194.646 227.079   3
  -7 -15 -10 309.107 318.714   3
  -7 -15 -11-163.686 221.596   3
  -7 -15 -12-18.2716 67.4180   3
  -7 -14  13 139.682 280.343   1
  -7 -14  12-323.403 330.205   1
  -7 -14  11-19.8973 69.3069   1
  -7 -14  10 91.2482 227.820   1
  -7 -14   9 15.5467 227.554   1
  -7 -14   8 215.555 218.242   1
  -7 -14   7-127.411 147.363   1
  -7 -14   6 833.103 408.047   1
   7 -14  -5-71.9640 56.3747   2
  -7 -14   5-83.7796 135.983   1
   7 -14  -4-107.274 115.050   2
  -7 -14   4 89.3253 83.4432   1
  -7 -14   3 201.367 193.902   1
  -7 -14   2 131.186 102.697   1
  -7 -14   1 274.649 213.982   1
  -7 -14   0-54.4618 136.813   1
  -7 -14  -1 12.2981 43.7107   1
  -7 -14  -1 129.607 172.613   3
  -7 -14  -2-22.2152 62.7671   1
  -7 -14  -2 108.369 140.478   3
  -7 -14  -3 27.3288 47.8771   1
  -7 -14  -3 142.262 138.384   3
  -7 -14  -4 9.35058 18.0734   1
  -7 -14  -4 103.504 107.895   3
  -7 -14  -5 229.315 133.379   1
  -7 -14  -5 207.793 139.070   3
  -7 -14  -6 233.366 201.565   3
  -7 -14  -6 195.018 118.666   1
  -7 -14  -7 144.733 190.484   3
  -7 -14  -8-3.29063 64.3897   3
  -7 -14  -9-25.7664 152.895   3
  -7 -14 -10 244.671 250.158   3
  -7 -14 -11 285.236 262.957   3
  -7 -14 -12 112.929 193.050   3
  -7 -13  14-38.0262 294.632   1
  -7 -13  13 56.7761 152.605   1
  -7 -13  12 93.2425 269.964   1
  -7 -13  11 202.635 196.551   1
  -7 -13  10 19.3062 127.719   1
  -7 -13   9-115.326 139.177   1
  -7 -13   8-154.425 264.167   1
  -7 -13   7 450.700 302.810   1
  -7 -13   6 280.850 289.285   1
   7 -13  -5 170.332 104.447   2
  -7 -13   5 128.405 152.791   1
   7 -13  -4-168.657 130.691   2
  -7 -13   4-29.6548 103.578   1
  -7 -13   3 203.998 191.717   1
  -7 -13   2 33.0869 36.4112   1
  -7 -13   1 48.1104 122.573   1
  -7 -13   0 461.790 198.333   1
  -7 -13  -1 397.499 216.183   1
  -7 -13  -2 282.648 187.087   1
  -7 -13  -2 291.628 238.485   3
  -7 -13  -3-9.91521 48.7074   1
  -7 -13  -3 167.633 177.828   3
  -7 -13  -4 238.573 121.705   1
  -7 -13  -4 233.071 178.816   3
  -7 -13  -5 444.704 172.035   1
  -7 -13  -5 417.943 278.271   3
  -7 -13  -6 5.11543 47.5136   3
  -7 -13  -6 4.30227 14.5045   1
  -7 -13  -7-5.60278 124.452   3
  -7 -13  -8 255.602 147.171   3
  -7 -13  -9-71.4354 86.0872   3
  -7 -13 -10 68.2211 93.7414   3
  -7 -13 -11 51.7174 72.1253   3
  -7 -13 -12 47.2441 129.838   3
  -7 -12  14-289.214 336.130   1
  -7 -12  13 2.54587 149.585   1
  -7 -12  12 64.3131 285.571   1
  -7 -12  11 272.736 348.922   1
  -7 -12  10 154.739 251.353   1
  -7 -12   9-78.7980 83.0725   1
  -7 -12   8-337.022 266.151   1
  -7 -12   7 302.479 274.451   1
  -7 -12   6-62.6126 116.078   1
   7 -12  -5 612.566 176.453   2
  -7 -12   5 198.987 181.876   1
   7 -12  -4-156.585 121.312   2
  -7 -12   4 19.3818 80.3874   1
  -7 -12   3 66.7391 67.2213   1
  -7 -12   2 472.805 202.254   1
  -7 -12   1-77.4008 19.4775   1
  -7 -12   0-29.4967 22.2532   1
  -7 -12  -1 45.2791 56.6727   1
  -7 -12  -2 52.5481 55.0803   1
  -7 -12  -2-120.302 198.973   3
  -7 -12  -3 371.065 259.286   3
  -7 -12  -3 167.826 85.9189   1
  -7 -12  -4 71.8878 54.9044   1
  -7 -12  -4 65.3682 103.570   3
  -7 -12  -5 26.0667 27.0341   1
  -7 -12  -5 165.565 146.922   3
  -7 -12  -6-25.9312 24.9815   3
  -7 -12  -6 23.3685 42.4387   1
  -7 -12  -7-83.5782 155.813   3
  -7 -12  -8 267.705 204.276   3
  -7 -12  -9 128.012 159.621   3
  -7 -12 -10 29.0043 102.098   3
  -7 -12 -11 281.400 237.023   3
  -7 -12 -12-173.000 262.727   3
  -7 -11  14-349.729 408.259   1
  -7 -11  13 51.9851 150.006   1
  -7 -11  12 163.778 241.553   1
  -7 -11  11 229.521 310.056   1
  -7 -11  10 104.152 139.723   1
  -7 -11   9 244.040 226.231   1
  -7 -11   8-28.7241 57.6507   1
  -7 -11   7 213.008 169.978   1
  -7 -11   6 267.566 183.329   1
  -7 -11   5 446.416 256.390   1
   7 -11  -4-69.1242 65.9147   2
  -7 -11   4 148.155 106.485   1
  -7 -11   3 32.0595 133.097   1
   7 -11  -3-1.75980 89.6039   2
  -7 -11   2 150.044 55.1396   1
  -7 -11   1 710.823 296.518   1
  -7 -11   0 135.346 126.151   1
  -7 -11  -1 337.429 145.435   1
  -7 -11  -2 70.8557 77.0516   1
  -7 -11  -2 87.2146 116.515   3
  -7 -11  -3 506.768 193.296   1
   7 -11   3 649.431 242.376   1
  -7 -11  -3 424.130 233.631   3
  -7 -11  -4 23.2807 77.2223   1
  -7 -11  -4-36.9783 122.512   3
   7 -11   4 9.03108 82.2032   1
  -7 -11  -5 170.590 170.170   3
  -7 -11  -5 129.304 71.8391   1
  -7 -11  -6 435.520 229.585   3
  -7 -11  -6 344.780 113.043   1
  -7 -11  -7 99.5535 134.100   3
  -7 -11  -8-42.4693 97.8575   3
  -7 -11  -9 73.6229 111.590   3
  -7 -11 -10 205.817 239.295   3
  -7 -11 -11 156.349 195.440   3
  -7 -10  14-102.758 207.747   1
  -7 -10  13 5.31799 290.432   1
  -7 -10  12 92.4324 176.889   1
  -7 -10  11 155.688 258.527   1
  -7 -10  10 22.0375 48.0370   1
  -7 -10   9 328.234 314.131   1
  -7 -10   8 68.5551 133.908   1
  -7 -10   7 161.775 177.958   1
  -7 -10   6 622.380 315.999   1
  -7 -10   5-128.694 117.222   1
   7 -10  -4-37.3824 58.5163   2
  -7 -10   4 38.9374 52.0757   1
   7 -10  -3-175.471 144.367   2
  -7 -10   3-67.9349 107.733   1
  -7 -10   2 119.412 45.5745   1
  -7 -10   1 198.184 147.419   1
  -7 -10   0 149.678 93.0677   1
  -7 -10  -1 85.8564 80.1853   1
  -7 -10  -2 411.647 200.768   3
  -7 -10  -2 396.251 168.599   1
  -7 -10  -3 324.038 227.805   3
   7 -10   3 120.935 108.506   1
  -7 -10  -3 271.922 137.332   1
   7 -10   4 129.762 113.808   1
  -7 -10  -4 107.208 87.5200   1
  -7 -10  -4 41.0382 83.0241   3
   7 -10   5 88.3041 76.3900   1
  -7 -10  -5 86.4392 57.5229   1
  -7 -10  -6 24.2806 41.8879   1
  -7 -10  -6-19.0963 91.4659   3
  -7 -10  -7 77.0747 134.249   3
  -7 -10  -8 279.231 216.259   3
  -7 -10  -9 70.8537 118.541   3
  -7 -10 -10 474.510 303.673   3
  -7 -10 -11-76.6166 133.977   3
  -7  -9  14 27.4759 184.413   1
  -7  -9  13 345.193 288.870   1
  -7  -9  12 114.783 148.794   1
  -7  -9  11 229.860 307.726   1
  -7  -9  10 30.7330 113.792   1
  -7  -9   9 152.021 253.424   1
  -7  -9   8 3.20704 81.7253   1
  -7  -9   7 4.47686 121.989   1
  -7  -9   6 483.981 281.339   1
  -7  -9   5 83.4925 170.304   1
   7  -9  -4 146.815 111.656   2
  -7  -9   4 294.772 181.163   1
   7  -9  -3 18.0620 95.0396   2
  -7  -9   3 41.2710 116.944   1
   7  -9  -2 500.770 129.761   2
  -7  -9   2 713.528 278.575   1
  -7  -9   1 23.6277 44.2960   1
  -7  -9   0 591.198 211.601   1
  -7  -9  -1 281.654 125.483   1
  -7  -9  -2 73.4115 99.8884   1
   7  -9   2 35.5491 52.2447   1
  -7  -9  -3 75.1152 157.802   3
  -7  -9  -3 41.0179 79.4054   1
   7  -9   3 212.302 139.724   1
  -7  -9  -4 668.340 172.760   1
   7  -9   4 735.068 203.788   1
  -7  -9  -4 602.549 272.023   3
  -7  -9  -5 281.108 107.115   1
   7  -9   5 221.587 96.5244   1
  -7  -9  -5 225.771 105.526   3
  -7  -9  -6 36.5913 33.7423   1
  -7  -9  -6-62.6695 79.4327   3
  -7  -9  -7 190.410 150.663   3
  -7  -9  -8 377.070 236.185   3
  -7  -9  -9 163.928 182.335   3
  -7  -9 -10 88.6415 201.126   3
  -7  -9 -11 239.188 176.309   3
  -7  -8  14-109.757 129.067   1
  -7  -8  13 170.536 296.697   1
  -7  -8  12 126.786 225.179   1
  -7  -8  11 6.28397 216.811   1
  -7  -8  10 272.186 201.740   1
  -7  -8   9 193.149 155.302   1
  -7  -8   8-12.4845 108.152   1
  -7  -8   7 516.169 271.487   1
  -7  -8   6 127.263 111.044   1
  -7  -8   5 94.0459 188.183   1
  -7  -8   4-111.630 86.5891   1
   7  -8  -4 164.786 144.678   2
   7  -8  -3-19.4304 76.8835   2
  -7  -8   3 72.9739 54.6036   1
   7  -8  -2 595.738 173.463   2
  -7  -8   2 547.083 241.190   1
  -7  -8   1 3.93824 86.1855   1
  -7  -8   0 923.213 288.383   1
  -7  -8  -1 476.400 186.894   1
  -7  -8  -2 138.186 116.398   1
   7  -8   2 60.0377 20.7875   1
  -7  -8  -3 483.009 171.535   1
  -7  -8  -3 423.690 178.546   3
   7  -8   3 477.558 156.806   1
  -7  -8  -4-54.2406 14.2408   1
  -7  -8  -4 73.7700 100.685   3
   7  -8   4 21.5129 45.5887   1
  -7  -8  -5 72.4673 42.8938   1
  -7  -8  -5 262.459 179.271   3
   7  -8   5 112.239 50.8034   1
  -7  -8  -6 22.9519 63.6130   3
  -7  -8  -7-17.5779 51.3800   3
  -7  -8  -8 260.614 164.528   3
  -7  -8  -9-6.38187 111.725   3
  -7  -8 -10 128.243 154.520   3
  -7  -8 -11 481.025 301.065   3
  -7  -7  14-69.4988 172.232   1
  -7  -7  13 166.143 216.520   1
  -7  -7  12 237.988 377.527   1
  -7  -7  11-53.9644 20.6440   1
  -7  -7  10 85.9876 237.277   1
  -7  -7   9 129.809 174.792   1
  -7  -7   8 163.217 234.517   1
  -7  -7   7 114.574 98.5882   1
  -7  -7   6-187.298 253.312   1
  -7  -7   5 79.0659 142.216   1
  -7  -7   4 92.5619 152.650   1
  -7  -7   3-43.2862 91.7275   1
   7  -7  -3-1.51060 47.3944   2
   7  -7  -2-101.811 124.848   2
  -7  -7   2-21.8212 85.9765   1
   7  -7  -1 235.874 104.099   2
  -7  -7   1 281.564 142.222   1
  -7  -7   0 1002.17 288.590   1
   7  -7   1 7.59669 52.1004   1
  -7  -7  -1 112.791 103.885   1
   7  -7   2 206.667 144.857   1
  -7  -7  -2 60.6190 41.6974   1
   7  -7   3-44.9840 35.9997   1
  -7  -7  -3 29.3357 19.9191   1
  -7  -7  -3-82.2540 28.2939   3
   7  -7   4 620.899 163.650   1
  -7  -7  -4 632.502 155.613   1
  -7  -7  -4 452.432 238.513   3
   7  -7   5 258.145 104.143   1
  -7  -7  -5 117.687 59.4019   1
  -7  -7  -5 104.056 85.2745   3
   7  -7   6 36.1473 28.5206   1
  -7  -7  -6 81.6301 108.574   3
  -7  -7  -7-14.3994 86.8255   3
  -7  -7  -8 148.444 160.163   3
  -7  -7  -9 130.066 129.438   3
  -7  -7 -10 67.7171 65.1737   3
  -7  -7 -11 197.397 227.373   3
  -7  -6  14 253.753 346.903   1
  -7  -6  13 147.539 271.596   1
  -7  -6  12 294.263 359.806   1
  -7  -6  11 165.024 155.056   1
  -7  -6  10 371.874 369.758   1
  -7  -6   9 192.408 273.548   1
  -7  -6   8 472.403 301.462   1
  -7  -6   7-196.162 190.952   1
  -7  -6   6 171.749 103.832   1
  -7  -6   5 333.191 221.101   1
  -7  -6   4 98.3387 91.3472   1
  -7  -6   3 75.3656 20.1057   1
   7  -6  -3 83.6960 102.271   2
   7  -6  -2-167.072 160.484   2
  -7  -6   2 10.3165 71.2455   1
   7  -6  -1 386.966 72.9835   2
  -7  -6   1 751.002 254.444   1
   7  -6   0 187.305 70.6105   2
  -7  -6   0 270.958 141.704   1
   7  -6   1 432.236 156.864   1
  -7  -6  -1 313.285 142.533   1
   7  -6   2 775.998 214.032   1
  -7  -6  -2 766.087 210.438   1
   7  -6   3 60.0070 25.4276   1
  -7  -6  -3 15.9505 43.1810   1
  -7  -6  -3 183.976 159.971   3
   7  -6   4 122.235 69.5683   1
  -7  -6  -4 86.2393 51.1072   1
  -7  -6  -4 25.3899 66.6661   3
   7  -6   5 61.1133 54.0296   1
  -7  -6  -5 18.5806 11.2406   1
  -7  -6  -5 136.771 173.340   3
  -7  -6  -6-20.0570 99.1227   3
  -7  -6  -7-73.1366 140.610   3
  -7  -6  -8 62.2167 88.0078   3
  -7  -6  -9 175.108 140.343   3
  -7  -6 -10 19.2615 108.194   3
  -7  -6 -11-122.614 88.0006   3
  -7  -5  15 86.3189 27.9435   1
  -7  -5  14 310.483 382.945   1
  -7  -5  13 152.933 272.047   1
  -7  -5  12-234.219 195.806   1
  -7  -5  11-28.3833 157.045   1
  -7  -5  10 243.067 256.240   1
  -7  -5   9 611.108 338.838   1
  -7  -5   8-19.7684 133.067   1
  -7  -5   7 146.418 231.704   1
  -7  -5   6 143.823 71.1161   1
  -7  -5   5 162.611 78.6303   1
  -7  -5   4-16.0832 126.695   1
  -7  -5   3-117.421 156.249   1
   7  -5  -3 371.721 188.132   2
  -7  -5   2 40.6777 81.5974   1
   7  -5  -2 32.1800 73.3624   2
  -7  -5   1 1256.38 335.582   1
   7  -5  -1 1016.05 237.447   2
   7  -5   0-115.885 161.579   2
  -7  -5   0 107.435 20.9828   1
   7  -5   1 104.248 78.5941   1
  -7  -5  -1-44.8157 35.1799   1
   7  -5   2-3.56131 34.1742   1
  -7  -5  -2-0.11695 41.0035   1
  -7  -5  -3 824.814 185.908   1
   7  -5   3 746.179 198.925   1
  -7  -5  -3 899.174 323.499   3
  -7  -5  -4 57.1441 30.4760   1
   7  -5   4 11.1552 17.1825   1
  -7  -5  -4 68.8298 94.8975   3
   7  -5   5 246.067 79.5611   1
  -7  -5  -5 298.926 107.046   3
  -7  -5  -6-17.6581 95.4208   3
  -7  -5  -7 208.082 177.276   3
  -7  -5  -8 211.722 148.975   3
  -7  -5  -9 451.792 230.345   3
  -7  -5 -10 243.491 195.720   3
  -7  -4  15-297.998 251.760   1
  -7  -4  14 162.160 351.508   1
  -7  -4  13 56.9344 32.4162   1
  -7  -4  12 33.9320 196.105   1
  -7  -4  11 241.710 287.736   1
  -7  -4  10 277.561 274.682   1
  -7  -4   9-281.438 199.766   1
  -7  -4   8-65.0149 27.6129   1
  -7  -4   7 1163.27 445.224   1
  -7  -4   6 233.929 146.788   1
  -7  -4   5 61.8675 66.6133   1
  -7  -4   4-39.1018 119.063   1
  -7  -4   3-59.5816 119.646   1
   7  -4  -3 214.859 160.127   2
  -7  -4   2 556.574 242.194   1
   7  -4  -2 633.349 230.470   2
  -7  -4   1 14.8785 54.1035   1
   7  -4  -1-8.85662 72.5441   2
  -7  -4   0 810.312 249.462   1
   7  -4   0 887.508 263.512   1
   7  -4   0 725.871 217.664   2
  -7  -4  -1 3.16274 46.8119   1
   7  -4   1-34.3043 27.0454   1
   7  -4   1-48.9305 149.340   2
  -7  -4  -2 54.9903 46.6270   1
   7  -4   2 118.677 75.2527   1
  -7  -4  -3 240.802 110.056   1
   7  -4   3 88.1432 51.2055   1
  -7  -4  -3 229.893 145.916   3
  -7  -4  -4 40.7335 65.0072   3
   7  -4   4-75.3592 42.4889   1
  -7  -4  -4 7.91976 16.1028   1
   7  -4   5 13.0398 21.3373   1
  -7  -4  -5 21.6597 100.476   3
  -7  -4  -6 5.26653 15.0684   3
  -7  -4  -7 34.1944 72.3825   3
  -7  -4  -8-4.30208 85.4779   3
  -7  -4  -9 266.076 181.770   3
  -7  -4 -10 35.4051 151.069   3
  -7  -3  15 262.789 341.607   1
  -7  -3  14 67.4760 280.425   1
  -7  -3  13-218.340 160.964   1
  -7  -3  12 15.7050 204.654   1
  -7  -3  11 400.505 307.252   1
  -7  -3  10-16.5972 142.107   1
  -7  -3   9 90.8381 87.0150   1
  -7  -3   8 78.0583 142.413   1
  -7  -3   7 724.716 366.305   1
  -7  -3   6 964.050 409.292   1
  -7  -3   5 14.5494 119.142   1
  -7  -3   4-5.85019 85.0990   1
  -7  -3   3 7.61600 77.4036   1
   7  -3  -2 1411.13 328.402   2
  -7  -3   2 1596.20 399.888   1
  -7  -3   1 212.426 97.9989   1
   7  -3  -1 147.084 107.178   2
  -7  -3   0 185.544 128.858   1
   7  -3   0 398.186 192.527   1
   7  -3   0 114.664 84.9617   2
  -7  -3  -1 180.136 102.060   1
   7  -3   1 121.649 84.1091   2
   7  -3   1 172.536 83.4989   1
  -7  -3  -2 37.9274 58.0969   1
   7  -3   2-116.950 165.281   2
   7  -3   2 33.3913 55.4080   1
   7  -3   3-5.72824 106.696   2
   7  -3   3 109.064 57.0539   1
  -7  -3  -3-18.9651 44.6289   1
  -7  -3  -4 398.009 177.646   3
   7  -3   4 474.256 117.869   1
  -7  -3  -5 266.245 142.788   3
  -7  -3  -6 34.7037 50.4137   3
  -7  -3  -7 7.02518 111.388   3
  -7  -3  -8 548.913 229.956   3
  -7  -3  -9 42.3725 99.5993   3
  -7  -3 -10 26.3114 117.653   3
   7  -3  13 155.408 173.891   2
   7  -3  14 90.8794 243.433   2
  -7  -2  15 53.0893 217.772   1
  -7  -2  14 155.498 19.5601   1
  -7  -2  13 361.104 261.293   1
  -7  -2  12-285.501 284.003   1
  -7  -2  11 440.608 368.263   1
  -7  -2  10 60.0114 64.7093   1
  -7  -2   9 314.756 282.642   1
  -7  -2   8 32.5121 50.4576   1
  -7  -2   7 348.224 229.662   1
  -7  -2   7 239.370 180.945   2
  -7  -2   6 653.557 296.497   1
  -7  -2   6 997.201 300.712   2
  -7  -2   5 62.1057 62.6639   1
  -7  -2   5 14.5880 51.0321   2
  -7  -2   4 545.155 272.816   1
  -7  -2   3 884.017 309.225   1
  -7  -2   2 353.543 165.285   1
   7  -2  -2 366.292 191.936   2
  -7  -2   1 575.378 208.447   1
   7  -2  -1 615.485 226.528   2
  -7  -2   0 14.8091 48.9434   1
   7  -2   0-39.0146 120.038   2
   7  -2   0-53.6164 79.2330   1
  -7  -2  -1-17.6698 12.3985   1
   7  -2   1-306.327 209.346   2
   7  -2   1-114.552 103.902   1
   7  -2   2 38.6853 87.7338   2
   7  -2   2 172.056 70.0698   1
  -7  -2  -2 113.299 82.6238   1
   7  -2   3 49.2919 5.56527   1
  -7  -2  -3 0.26391 13.7541   1
   7  -2   4-17.7644 3.29015   1
  -7  -2  -4 67.9138 99.5964   3
  -7  -2  -5 481.679 211.857   3
  -7  -2  -6 103.511 100.991   3
  -7  -2  -7 262.607 176.593   3
  -7  -2  -8 11.5642 89.7546   3
  -7  -2  -9 103.729 129.559   3
  -7  -2 -10 85.8312 123.565   3
   7  -2  12 3.75348 36.0204   2
   7  -2  13 224.688 173.888   2
   7  -2  14 326.439 304.995   2
  -7  -1  15-173.369 194.171   1
  -7  -1  14-12.4027 262.213   1
  -7  -1  13 179.811 255.395   1
  -7  -1  12-37.7807 95.5035   1
  -7  -1  11 83.3612 187.575   1
  -7  -1  10-39.5649 113.775   1
  -7  -1   9 37.2867 176.906   1
  -7  -1   8 75.2013 104.454   1
  -7  -1   7 255.521 166.033   1
  -7  -1   7 145.422 148.096   2
  -7  -1   6-29.4657 113.880   1
  -7  -1   6-44.0604 57.2720   2
  -7  -1   5 117.066 158.869   1
  -7  -1   5 198.257 110.249   2
  -7  -1   4 135.324 132.631   1
  -7  -1   4 38.7851 136.581   2
  -7  -1   3 2.57091 61.2742   1
  -7  -1   2-21.9221 66.9150   1
   7  -1  -2 257.599 177.901   2
  -7  -1   1 1391.65 333.053   1
   7  -1  -1 1519.47 352.043   2
  -7  -1   0 314.976 150.754   1
   7  -1   0 386.352 163.031   2
   7  -1   0 288.459 147.639   1
   7  -1   1 55.3470 61.2408   1
  -7  -1  -1 20.7827 79.7371   1
   7  -1   2-3.99285 40.1841   1
  -7  -1  -2 11.6017 24.0190   1
   7  -1   3 46.8980 128.859   2
   7  -1   3 308.043 106.650   1
   7  -1   4 53.9361 93.2851   2
   7  -1   4 128.252 59.8497   1
  -7  -1  -4 181.468 129.209   3
   7  -1   5 103.085 78.7938   2
  -7  -1  -5 381.152 172.820   3
   7  -1   6-274.154 242.875   2
  -7  -1  -6 108.601 98.0077   3
  -7  -1  -7 55.0973 72.4842   3
   7  -1   7-324.684 293.398   2
  -7  -1  -8-60.2927 102.616   3
   7  -1   8-581.616 392.138   2
  -7  -1  -9 316.454 200.407   3
   7  -1   9-629.294 440.617   2
  -7  -1 -10 187.035 193.394   3
   7  -1  10-689.218 436.845   2
   7  -1  11-77.3072 254.959   2
   7  -1  12 72.8545 98.8792   2
   7  -1  13-154.061 285.711   2
   7  -1  14 89.8730 150.876   2
  -7   0  15 331.176 375.798   1
  -7   0  14 365.918 282.739   1
  -7   0  13 31.2701 124.071   1
  -7   0  12 756.666 425.533   1
  -7   0  11-95.5284 220.019   1
  -7   0  10 42.7112 58.0045   1
  -7   0   9-43.2156 139.812   1
  -7   0   8 116.145 120.455   1
  -7   0   7-104.153 197.219   1
  -7   0   7-25.6560 64.5929   2
  -7   0   6 108.908 108.808   1
  -7   0   6 37.0376 75.6097   2
  -7   0   5 1548.97 404.687   1
  -7   0   5 1676.79 334.513   2
  -7   0   4 377.914 185.464   1
  -7   0   4 293.512 100.718   2
  -7   0   3 170.355 84.4864   1
  -7   0   3 195.364 40.8175   2
  -7   0   2-83.6903 47.2154   1
  -7   0   1-33.0029 22.4601   1
   7   0  -1 293.759 167.847   2
   7   0   0-50.6677 33.2299   1
   7   0   0 136.248 103.306   2
  -7   0   0 37.2460 72.4271   1
   7   0   1 67.5102 72.7836   1
   7   0   1 29.8810 90.4414   2
  -7   0  -1 16.8831 63.5245   1
   7   0   2-126.425 189.908   2
  -7   0  -2 18.2854 31.7612   1
   7   0   2 136.950 92.4002   1
   7   0   3 43.5491 13.1589   1
   7   0   3-179.595 196.190   2
  -7   0  -4 223.033 145.299   3
   7   0   4-54.8067 28.8543   1
   7   0   4-250.139 207.702   2
   7   0   5 111.449 79.4451   2
  -7   0  -5 399.097 187.938   3
   7   0   6 344.902 163.277   2
  -7   0  -6 210.884 108.019   3
  -7   0  -7 593.461 208.322   3
   7   0   7 368.382 180.202   2
  -7   0  -8 153.749 145.737   3
   7   0   8-236.109 279.113   2
  -7   0  -9 89.2750 114.091   3
   7   0   9-341.634 311.462   2
   7   0  10-155.458 298.296   2
   7   0  11-176.037 232.482   2
   7   0  12 41.0398 59.1973   2
   7   0  13-19.9596 144.348   2
   7   0  14 397.093 333.775   2
  -7   1  15 222.960 181.113   1
  -7   1  14-74.1111 121.774   1
  -7   1  13 193.922 224.231   1
  -7   1  12 153.764 278.822   1
  -7   1  11 12.7238 58.6618   1
  -7   1  10-105.492 92.1177   1
  -7   1   9-12.5545 97.6497   1
  -7   1   8 121.984 144.617   1
  -7   1   7-102.130 174.622   1
  -7   1   7 68.1731 48.8892   2
  -7   1   6 49.1612 70.8398   1
  -7   1   6-224.445 183.262   2
  -7   1   5 146.777 104.454   1
  -7   1   5 7.80573 116.951   2
  -7   1   4 22.3587 30.1898   1
  -7   1   4 34.8676 105.212   2
  -7   1   3-46.0022 112.502   1
  -7   1   2-52.0582 98.2598   1
   7   1  -1 1537.01 356.793   2
  -7   1   1 1337.34 318.016   1
   7   1   0 483.904 208.255   2
  -7   1   0 327.437 166.195   1
   7   1   0 230.521 106.733   1
   7   1   1-18.7210 69.2145   1
   7   1   1-5.44677 65.4580   2
  -7   1  -1 113.103 88.3788   1
   7   1   2 75.6234 50.5629   1
   7   1   2-78.6385 119.472   2
   7   1   3 3.60081 140.634   2
   7   1   3 438.986 127.521   1
   7   1   4 145.012 52.2049   1
  -7   1  -4 268.736 143.373   3
   7   1   5-129.660 159.975   2
  -7   1  -5 282.469 163.566   3
   7   1   6-306.679 234.889   2
  -7   1  -6 56.5272 83.0132   3
  -7   1  -7-3.37038 83.1702   3
   7   1   7-166.161 206.483   2
  -7   1  -8 34.6156 60.6136   3
   7   1   8-367.935 300.890   2
  -7   1  -9 38.3352 38.3756   3
   7   1   9-187.407 277.275   2
   7   1  10-41.5900 172.034   2
   7   1  11-321.792 294.209   2
   7   1  12 183.226 255.433   2
   7   1  13 214.081 235.881   2
   7   1  14 353.146 337.536   2
  -7   2  15-62.4519 144.473   1
  -7   2  14 21.5898 231.854   1
  -7   2  13 150.710 157.515   1
  -7   2  12-122.847 130.341   1
  -7   2  11 119.810 263.452   1
  -7   2  10 154.893 177.520   1
  -7   2   9 61.0175 61.8613   1
  -7   2   8 118.964 147.833   1
  -7   2   7 50.7094 93.6581   2
  -7   2   7-30.7618 154.798   1
  -7   2   6 621.961 141.738   2
  -7   2   6 600.479 279.717   1
  -7   2   5-6.11835 31.5377   1
  -7   2   4 500.749 246.667   1
  -7   2   3 958.631 292.318   1
  -7   2   2 187.228 125.171   1
  -7   2   1 666.068 210.357   1
   7   2   0-4.69774 54.5339   1
  -7   2   0-31.3115 82.4018   1
   7   2   1-75.8542 51.0207   1
   7   2   1-3.49762 77.9190   2
   7   2   2 100.337 25.2275   1
   7   2   2 57.8411 32.6677   2
   7   2   3 1.89350 30.4178   1
   7   2   3-37.0629 136.748   2
   7   2   4-196.849 164.648   2
  -7   2  -4 9.92490 45.7971   3
   7   2   5 381.918 151.758   2
  -7   2  -5 314.745 139.538   3
  -7   2  -6 83.6507 91.9188   3
   7   2   6-340.666 277.167   2
  -7   2  -7 175.757 114.104   3
   7   2   7-131.118 189.267   2
  -7   2  -8-41.4638 78.6653   3
   7   2   8-845.164 432.264   2
  -7   2  -9 104.835 118.924   3
   7   2   9-759.763 418.524   2
   7   2  10-241.563 228.583   2
   7   2  11-275.989 272.065   2
   7   2  12 620.775 335.625   2
   7   2  13 156.905 218.273   2
   7   2  14-68.9105 142.614   2
  -7   3  15 197.244 223.931   1
  -7   3  14 437.929 332.834   1
  -7   3  13-53.7307 79.3352   1
  -7   3  12-34.3781 73.5276   1
  -7   3  11 428.301 304.080   1
  -7   3  10-3.83525 98.0950   1
  -7   3   9-204.875 235.776   1
  -7   3   8-58.4522 142.170   1
  -7   3   7 385.686 226.949   1
  -7   3   6 437.675 208.429   1
  -7   3   5 86.7020 52.3020   1
  -7   3   4 58.9348 76.8180   1
  -7   3   3-19.7157 71.0460   1
  -7   3   2 1483.03 371.961   1
  -7   3   1 22.2887 102.658   1
   7   3   0 358.698 162.215   1
   7   3   0 508.184 272.349   2
  -7   3   0 270.635 160.770   1
   7   3   1 176.867 88.0869   1
   7   3   1 183.335 174.906   2
   7   3   2-19.4396 79.1922   2
   7   3   2-48.6117 44.2964   1
   7   3   3 128.108 57.7375   2
   7   3   3 83.6720 28.5099   1
   7   3   4 417.729 194.410   2
  -7   3  -4 370.317 153.974   3
   7   3   5-59.2099 152.261   2
  -7   3  -5 110.436 101.859   3
  -7   3  -6-28.7169 61.8201   3
   7   3   6-248.515 236.095   2
  -7   3  -7 84.0145 74.6947   3
   7   3   7-265.778 269.955   2
  -7   3  -8 386.320 177.291   3
   7   3   8-71.9195 246.321   2
   7   3   9-922.009 464.801   2
   7   3  10-305.124 262.110   2
   7   3  11-57.4207 162.224   2
   7   3  12-109.465 165.393   2
   7   3  13 47.5339 177.257   2
   7   3  14-147.748 211.621   2
  -7   4  14-73.0103 225.886   1
  -7   4  13 57.1478 96.0955   1
  -7   4  12 162.600 163.070   1
  -7   4  11 63.7213 128.217   1
  -7   4  10 65.0195 108.370   1
  -7   4   9 61.0970 21.1191   1
  -7   4   8-77.5882 88.0562   1
  -7   4   7 1152.76 397.948   1
  -7   4   6 35.1783 180.565   1
  -7   4   5 316.096 174.688   1
  -7   4   4 154.147 122.942   1
  -7   4   3-71.8378 120.133   1
  -7   4   2 462.490 169.841   1
  -7   4   1 67.8444 53.2507   1
   7   4   0 849.385 219.354   1
   7   4   0 1241.98 363.065   2
   7   4   1 56.6248 139.166   2
   7   4   1 48.5015 69.9455   1
   7   4   2 98.1677 67.9178   1
   7   4   2 314.191 191.138   2
   7   4   3 207.621 101.650   1
   7   4   3 126.435 95.7613   2
   7   4   4-114.028 132.231   2
  -7   4  -4 9.93044 57.2171   3
   7   4   5-180.070 183.007   2
  -7   4  -5 66.0549 95.7120   3
  -7   4  -6 93.9697 67.2148   3
   7   4   6-258.528 214.271   2
  -7   4  -7 14.4800 66.9655   3
   7   4   7-363.607 297.518   2
  -7   4  -8 51.3874 92.7154   3
   7   4   8-560.324 359.641   2
   7   4   9-234.973 313.002   2
   7   4  10-277.246 259.337   2
   7   4  11 162.964 113.620   2
   7   4  12-157.837 221.813   2
   7   4  13 390.520 303.730   2
   7   4  14 111.386 267.386   2
  -7   5  13-250.977 238.314   1
  -7   5  12 94.9553 199.244   1
  -7   5  11-63.9050 59.8147   1
  -7   5  10 70.6593 173.305   1
  -7   5   9 274.967 231.995   1
  -7   5   8 86.2479 161.701   1
  -7   5   7 229.706 210.337   1
  -7   5   6-10.1029 163.257   1
  -7   5   5 284.581 214.150   1
  -7   5   4 31.6655 51.9637   1
  -7   5   3 21.6901 31.3555   1
  -7   5   2 62.7381 65.5836   1
   7   5   0 68.3488 104.785   1
   7   5   1 45.7110 63.7452   1
   7   5   1 342.788 230.464   2
   7   5   2-8.09951 0.87300   1
   7   5   2 47.6072 84.2306   2
   7   5   3 877.669 302.659   2
   7   5   4-23.9836 84.9579   2
  -7   5  -4 70.3224 39.9519   3
   7   5   5 196.003 51.7581   2
  -7   5  -5 256.137 109.938   3
  -7   5  -6 92.8441 74.9085   3
   7   5   6 73.9147 70.8842   2
  -7   5  -7 58.2851 65.6579   3
   7   5   7-301.556 255.418   2
  -7   5  -8 10.2953 31.9576   3
   7   5   8-393.806 288.984   2
   7   5   9-56.6931 203.060   2
   7   5  10-202.305 260.433   2
   7   5  11-57.2434 100.254   2
   7   5  12-133.564 118.032   2
   7   5  13 378.855 352.450   2
   7   5  14 398.350 328.721   2
  -7   6  12 108.510 236.462   1
  -7   6  11 598.124 373.203   1
  -7   6  10 128.990 188.282   1
  -7   6   9 34.9160 147.631   1
  -7   6   8 613.316 341.706   1
  -7   6   7-14.2597 83.7987   1
  -7   6   6 248.772 183.344   1
  -7   6   5 186.352 198.358   1
  -7   6   4 13.4015 15.0578   1
  -7   6   3 44.2542 53.2526   1
   7   6   1 196.584 108.056   1
   7   6   1 606.870 276.287   2
   7   6   2 542.062 177.723   1
   7   6   2 822.106 294.164   2
   7   6   3 127.183 142.548   2
   7   6   4 189.713 160.495   2
   7   6   5 14.5286 89.6110   2
  -7   6  -5 127.211 84.2604   3
  -7   6  -6 143.517 100.242   3
   7   6   6 144.765 130.736   2
  -7   6  -7 95.3727 84.4134   3
   7   6   7 117.693 104.050   2
   7   6   8 14.7170 132.351   2
   7   6   9-95.2464 161.560   2
   7   6  10-36.4529 135.701   2
   7   6  11-64.7733 132.710   2
   7   6  12 49.4985 97.7216   2
   7   6  13 262.823 249.543   2
   7   6  14 137.010 219.314   2
  -7   7  10 5.98022 120.350   1
  -7   7   9 18.1807 150.682   1
  -7   7   8 157.804 204.541   1
  -7   7   7 155.293 188.060   1
  -7   7   6 28.1998 45.6406   1
  -7   7   5 129.340 135.089   1
   7   7   1 3.42021 48.1627   1
   7   7   2-0.97588 63.2620   1
   7   7   2 329.155 234.570   2
   7   7   3 325.063 253.912   2
   7   7   4 863.760 320.072   2
  -7   7  -5 113.627 68.7501   3
   7   7   5 220.387 189.896   2
  -7   7  -6 22.7934 14.0286   3
   7   7   6-38.2252 84.0054   2
  -7   7  -7 78.8050 67.2314   3
   7   7   7 67.1227 91.8736   2
   7   7   8-314.467 238.886   2
   7   7   9-162.715 177.452   2
   7   7  10-66.7172 89.2196   2
   7   7  11 139.275 163.244   2
   7   7  12-193.349 177.295   2
   7   7  13 107.264 84.1600   2
   7   7  14-49.9869 8.64950   2
   7   8   1 407.218 160.525   1
   7   8   3 915.367 348.406   2
   7   8   4 431.083 249.545   2
   7   8   5 173.086 187.199   2
  -7   8  -5 65.3203 53.6934   3
   7   8   6 178.647 182.717   2
  -7   8  -6 35.6552 36.9113   3
  -7   8  -7 57.3700 44.0679   3
   7   8   7 57.1911 139.547   2
   7   8   8-21.5144 86.1244   2
   7   8   9 33.3366 99.0814   2
   7   8  10-97.4072 170.593   2
   7   8  11 528.412 295.144   2
   7   8  12 149.939 166.710   2
   7   8  13-336.624 279.709   2
   7   8  14-349.242 353.593   2
   7   9   3 649.302 322.407   2
   7   9   4 1182.58 393.991   2
   7   9   5 601.278 297.802   2
  -7   9  -5 181.081 86.3907   3
  -7   9  -6-7.17962 13.6682   3
   7   9   6 281.568 251.571   2
   7   9   7 535.799 325.826   2
   7   9   8 312.665 267.830   2
   7   9   9 217.907 154.667   2
   7   9  10 107.014 153.699   2
   7   9  11 190.576 195.690   2
   7   9  12-115.249 186.440   2
   7   9  13-347.679 293.792   2
   7   9  14-224.146 198.282   2
   7  10   4 891.711 398.036   2
   7  10   5 525.204 303.950   2
  -7  10  -5-15.2562 30.9760   3
  -7  10  -6 26.1493 26.1769   3
   7  10   6 902.113 390.921   2
   7  10   7 619.505 333.287   2
   7  10   8 980.904 413.436   2
   7  10   9-22.2006 105.743   2
   7  10  10 448.623 274.548   2
   7  10  11 46.7639 84.0588   2
   7  10  12-76.1693 163.072   2
   7  10  13-420.693 314.252   2
   7  10  14-188.415 260.029   2
   7  11   5 779.699 379.000   2
  -7  11  -5 43.6628 34.2717   3
   7  11   6 1205.63 434.857   2
   7  11   7 1193.43 456.934   2
   7  11   8 821.346 417.072   2
   7  11   9 332.028 242.487   2
   7  11  10-5.13172 106.707   2
   7  11  11 46.1455 44.3955   2
   7  11  12-303.516 245.582   2
   7  11  13-337.436 292.988   2
   7  12   6 1084.96 437.897   2
   7  12   7 1226.10 487.652   2
   7  12   8 1174.83 471.983   2
   7  12   9 584.402 319.876   2
   7  12  10-61.8998 88.5143   2
   7  12  11 305.766 234.978   2
   7  12  12-369.459 305.639   2
   7  12  13-256.876 316.454   2
   7  13   8 1563.02 540.497   2
   7  13   9 402.378 324.504   2
   7  13  10 90.6363 182.331   2
   7  13  11 132.295 129.740   2
   7  13  12-173.583 235.482   2
   7  13  13-438.040 350.119   2
  -7  14  -4 25.0742 11.2220   3
  -7  15  -4 215.663 69.5071   3
  -7  16  -3-11.4692 56.0911   3
  -7  17  -2 97.5616 107.003   3
  -7  17  -3-3.76910 21.6219   3
  -7  18  -1-9.27200 68.1871   3
  -7  18  -2 226.941 109.462   3
  -7  19  -1 290.675 146.040   3
  -7  19  -2 161.816 56.1265   3
  -7  20  -1 86.4626 103.706   3
  -8 -38  -2 429.121 498.484   1
  -8 -38  -3 290.345 169.200   1
  -8 -37   0-29.7392 280.065   1
  -8 -37  -1 61.2126 143.227   1
  -8 -37  -2 524.062 458.727   1
  -8 -37  -3-115.176 75.6871   1
  -8 -36   2 31.6163 287.227   1
  -8 -36   1 44.1863 296.433   1
  -8 -36   0-181.715 329.334   1
  -8 -36  -1 40.7985 223.685   1
  -8 -36  -2-463.615 435.583   1
  -8 -36  -3 58.7540 320.534   1
  -8 -35   5 535.314 532.097   3
  -8 -35   4 482.225 421.423   3
  -8 -35   3 223.780 277.091   1
  -8 -35   3-85.0449 75.8571   3
  -8 -35   2-9.36371 173.336   1
  -8 -35   2 138.142 254.001   3
  -8 -35   1-176.746 467.081   1
  -8 -35   1-202.585 211.548   3
  -8 -35   0 315.373 266.846   1
  -8 -35   0-68.8973 119.064   3
  -8 -35  -1 86.5712 353.716   1
  -8 -35  -2-245.839 286.882   1
  -8 -35  -3 338.743 319.635   1
  -8 -34   7 252.564 360.862   3
  -8 -34   6-49.0534 78.7558   3
  -8 -34   5 199.194 283.919   3
  -8 -34   4 165.092 155.907   1
  -8 -34   4 412.219 407.126   3
  -8 -34   3 105.878 112.523   1
  -8 -34   3 714.144 535.930   3
  -8 -34   2-86.4886 196.783   1
  -8 -34   2-109.793 260.861   3
  -8 -34   1 39.3153 162.492   1
  -8 -34   1 397.998 374.268   3
  -8 -34   0-432.456 327.462   1
  -8 -34   0 303.220 343.618   3
  -8 -34  -1 102.926 282.608   1
  -8 -34  -1-18.6419 111.178   3
  -8 -34  -2-37.9560 75.8902   1
  -8 -34  -3-255.068 198.851   1
  -8 -34  -4-76.7017 94.5430   1
  -8 -33   8 249.314 366.443   3
  -8 -33   7 393.773 382.405   3
  -8 -33   6-237.853 207.829   3
  -8 -33   5-182.147 107.880   1
  -8 -33   5 41.5508 251.978   3
  -8 -33   4 9.17201 313.271   1
  -8 -33   4 31.1677 132.385   3
  -8 -33   3-36.9478 150.253   1
  -8 -33   3 197.042 252.431   3
  -8 -33   2 48.8961 241.521   1
  -8 -33   2-370.119 300.664   3
  -8 -33   1 380.479 346.184   1
  -8 -33   1 271.651 247.491   3
  -8 -33   0 99.2294 119.854   1
  -8 -33   0 213.472 244.615   3
  -8 -33  -1-45.7350 179.698   1
  -8 -33  -1 190.780 196.315   3
  -8 -33  -2 95.2969 121.997   1
  -8 -33  -2-93.6365 87.4042   3
  -8 -33  -3 306.900 345.079   3
  -8 -33  -3 471.402 431.733   1
  -8 -33  -4 207.077 218.938   1
  -8 -32   7 739.713 593.093   3
  -8 -32   6-28.1627 201.320   3
  -8 -32   5-187.686 229.334   1
  -8 -32   5-346.122 347.392   3
  -8 -32   4 229.541 335.412   1
  -8 -32   4-102.094 208.040   3
  -8 -32   3-24.4656 121.442   1
  -8 -32   3-210.351 293.921   3
  -8 -32   2 30.5866 142.168   1
  -8 -32   2 418.612 356.187   3
  -8 -32   1-101.890 59.0702   1
  -8 -32   1-71.1551 115.288   3
  -8 -32   0 170.437 263.138   1
  -8 -32   0 337.465 384.273   3
  -8 -32  -1 115.357 295.758   1
  -8 -32  -1-8.47883 150.924   3
  -8 -32  -2 183.041 267.679   1
  -8 -32  -2-58.8344 118.055   3
  -8 -32  -3-30.9614 282.670   3
  -8 -32  -3 355.817 323.551   1
  -8 -32  -4-287.889 227.470   3
  -8 -32  -4-3.81224 122.548   1
  -8 -31   6 675.001 484.485   1
  -8 -31   6 399.068 296.892   3
  -8 -31   5 160.535 189.339   1
  -8 -31   5 182.123 245.241   3
  -8 -31   4 6.73773 183.992   1
  -8 -31   4 200.322 249.513   3
  -8 -31   3 42.3028 311.090   1
  -8 -31   3 89.9078 132.488   3
  -8 -31   2 222.015 311.700   3
  -8 -31   2 390.221 273.775   1
  -8 -31   1 13.2715 26.9217   1
  -8 -31   1-73.1682 179.198   3
  -8 -31   0-349.178 292.274   1
  -8 -31   0 421.936 394.867   3
  -8 -31  -1 269.523 269.481   1
  -8 -31  -1-146.750 102.195   3
  -8 -31  -2-28.7332 94.3212   1
  -8 -31  -2 178.805 173.049   3
  -8 -31  -3 70.8456 200.990   1
  -8 -31  -3 163.092 110.266   3
  -8 -31  -4 392.084 317.925   3
  -8 -31  -4 55.5643 143.086   1
  -8 -31  -5-26.9907 83.5410   3
  -8 -30   7 261.132 333.560   1
  -8 -30   6 94.2359 147.578   1
  -8 -30   5 177.430 157.583   1
  -8 -30   5 428.210 364.436   3
  -8 -30   4 1.04510 80.1096   1
  -8 -30   4 43.1337 241.169   3
  -8 -30   3 18.4970 107.532   1
  -8 -30   3-42.7011 314.779   3
  -8 -30   2-41.5330 133.063   1
  -8 -30   2-6.45055 113.004   3
  -8 -30   1-257.425 196.166   1
  -8 -30   1 187.869 94.5625   3
  -8 -30   0 144.676 172.626   1
  -8 -30   0 153.081 253.963   3
  -8 -30  -1 467.670 292.120   1
  -8 -30  -1 93.2105 183.114   3
  -8 -30  -2-299.705 307.834   3
  -8 -30  -2 205.193 382.879   1
  -8 -30  -3-11.0581 114.272   1
  -8 -30  -3 231.830 298.374   3
  -8 -30  -4 590.304 400.613   3
  -8 -30  -4 252.475 145.219   1
  -8 -30  -5-147.892 210.024   3
  -8 -30  -6-17.8866 43.1180   3
  -8 -29   7-111.824 234.320   1
  -8 -29   6-83.9590 278.949   1
  -8 -29   5 106.020 203.292   1
  -8 -29   4 82.4179 99.1876   1
  -8 -29   4 311.293 293.988   3
  -8 -29   3 423.059 409.283   1
  -8 -29   3 392.774 344.443   3
  -8 -29   2-8.30428 172.095   1
  -8 -29   2 85.2192 249.461   3
  -8 -29   1 73.2436 261.022   1
  -8 -29   1 96.6715 132.891   3
  -8 -29   0 265.317 227.960   1
  -8 -29   0 132.678 178.393   3
  -8 -29  -1 143.904 84.0511   1
  -8 -29  -1-136.813 228.687   3
  -8 -29  -2-294.781 344.344   3
  -8 -29  -2-11.6214 213.897   1
  -8 -29  -3-36.4974 69.6778   1
  -8 -29  -3-187.146 173.915   3
  -8 -29  -4 129.347 152.713   1
  -8 -29  -4-41.9625 55.1893   3
  -8 -29  -5-276.542 263.344   3
  -8 -29  -6-126.378 180.468   3
  -8 -28   8 158.290 372.913   1
  -8 -28   7-160.526 254.230   1
  -8 -28   6-70.1938 108.271   1
  -8 -28   5 117.313 56.4346   1
  -8 -28   4 114.109 332.371   1
  -8 -28   4 72.7647 205.985   3
  -8 -28   3 237.283 314.145   1
  -8 -28   3 444.369 319.306   3
  -8 -28   2 19.8887 98.2111   1
  -8 -28   2 239.430 155.925   3
  -8 -28   1 154.258 219.171   1
  -8 -28   1 147.736 214.244   3
  -8 -28   0 1.31685 41.9330   1
  -8 -28   0 88.5915 258.660   3
  -8 -28  -1 11.9940 231.296   3
  -8 -28  -1 164.145 222.026   1
  -8 -28  -2 122.295 164.470   1
  -8 -28  -2 104.066 122.018   3
  -8 -28  -3 16.0197 142.493   1
  -8 -28  -3 122.627 136.668   3
  -8 -28  -4-62.7505 168.572   1
  -8 -28  -4-29.9359 104.482   3
  -8 -28  -5 285.395 356.227   3
  -8 -28  -6 320.660 140.039   3
  -8 -28  -7 368.397 304.350   3
  -8 -27   8-61.2175 70.0768   1
  -8 -27   7-18.1888 272.753   1
  -8 -27   6 41.0482 204.184   1
  -8 -27   5-123.271 214.907   1
  -8 -27   4 161.482 243.063   1
  -8 -27   3-65.1563 221.042   1
  -8 -27   3-16.4994 161.549   3
  -8 -27   2 95.1714 269.628   1
  -8 -27   2 216.941 242.097   3
  -8 -27   1 297.947 247.707   3
  -8 -27   1 114.004 28.6826   1
  -8 -27   0-357.943 347.549   1
  -8 -27   0 195.546 236.068   3
  -8 -27  -1 458.409 292.478   1
  -8 -27  -1 96.9178 67.5172   3
  -8 -27  -2 172.296 233.961   1
  -8 -27  -2 62.2545 216.774   3
  -8 -27  -3-134.805 172.536   3
  -8 -27  -3 228.712 182.349   1
  -8 -27  -4 98.6878 146.442   1
  -8 -27  -4-344.032 297.845   3
  -8 -27  -5 177.192 207.355   3
  -8 -27  -6-203.842 196.269   3
  -8 -27  -7 43.8659 118.093   3
  -8 -27  -8-75.8940 300.168   3
  -8 -26   9 215.107 397.144   1
  -8 -26   8-125.347 85.8409   1
  -8 -26   7 167.318 169.057   1
  -8 -26   6 161.779 268.120   1
  -8 -26   5 273.795 298.071   1
  -8 -26   4 199.258 152.937   1
  -8 -26   3 271.181 212.866   1
  -8 -26   3 284.875 336.123   3
  -8 -26   2 213.120 241.674   1
  -8 -26   2 165.833 186.915   3
  -8 -26   1-111.486 173.567   1
  -8 -26   1 240.360 207.631   3
  -8 -26   0 171.553 225.155   3
  -8 -26   0 30.3624 42.3389   1
  -8 -26  -1-32.9945 27.8554   1
  -8 -26  -1 336.560 251.364   3
  -8 -26  -2-44.9860 59.9256   1
  -8 -26  -2 106.464 61.7083   3
  -8 -26  -3 71.8926 80.1648   1
  -8 -26  -3 135.297 218.176   3
  -8 -26  -4 92.7280 238.865   3
  -8 -26  -4 52.6546 86.2471   1
  -8 -26  -5 427.076 283.778   3
  -8 -26  -6 105.853 158.663   3
  -8 -26  -7 52.9564 90.9610   3
  -8 -26  -8 466.929 391.867   3
  -8 -25   9-88.8915 136.855   1
  -8 -25   8 61.1475 117.535   1
  -8 -25   7 319.904 392.207   1
  -8 -25   6 19.1832 92.8436   1
  -8 -25   5 315.441 419.963   1
  -8 -25   4-63.2129 196.951   1
  -8 -25   3 41.7629 163.403   1
  -8 -25   2-12.6892 149.792   1
  -8 -25   2 170.541 192.529   3
  -8 -25   1-3.72868 45.0691   1
  -8 -25   1-67.7238 139.311   3
  -8 -25   0 110.978 43.6197   1
  -8 -25   0 444.192 342.654   3
  -8 -25  -1 11.8264 66.2074   1
  -8 -25  -1 349.498 338.121   3
  -8 -25  -2 83.6367 203.720   3
  -8 -25  -2 149.359 174.179   1
  -8 -25  -3-59.3606 210.205   1
  -8 -25  -3 181.677 219.626   3
  -8 -25  -4 60.9828 85.2421   1
  -8 -25  -4-25.6313 173.199   3
  -8 -25  -5 215.234 243.905   3
  -8 -25  -5 246.729 140.033   1
  -8 -25  -6 401.082 402.386   3
  -8 -25  -7 88.1254 94.8309   3
  -8 -25  -8 34.7392 219.733   3
  -8 -25  -9-352.386 312.150   3
  -8 -24  10 74.4262 196.564   1
  -8 -24   9 6.13974 144.056   1
  -8 -24   8 69.4930 237.802   1
  -8 -24   7-258.932 60.4084   1
  -8 -24   6 95.6846 162.516   1
  -8 -24   5 184.928 102.529   1
  -8 -24   4 27.7672 98.0255   1
  -8 -24   3-135.032 49.8957   1
  -8 -24   2 116.072 178.042   1
  -8 -24   2 285.390 228.214   3
  -8 -24   1 76.7070 119.571   1
  -8 -24   1 199.616 183.585   3
  -8 -24   0 291.871 213.329   1
  -8 -24   0 61.5503 58.5007   3
  -8 -24  -1 16.1999 154.938   1
  -8 -24  -1 54.9781 153.325   3
  -8 -24  -2-72.0824 61.6762   1
  -8 -24  -2 289.617 183.562   3
  -8 -24  -3-235.908 229.546   1
  -8 -24  -3-113.512 68.4374   3
  -8 -24  -4-33.5483 44.8652   1
  -8 -24  -4 13.5515 145.373   3
  -8 -24  -5 281.345 230.889   3
  -8 -24  -5 106.567 133.569   1
  -8 -24  -6 215.942 233.980   3
  -8 -24  -7 103.870 189.778   3
  -8 -24  -8 234.031 324.061   3
  -8 -24  -9-152.549 213.707   3
  -8 -23  10 88.0521 120.459   1
  -8 -23   9 235.125 308.482   1
  -8 -23   8 118.426 109.792   1
  -8 -23   7-244.730 277.072   1
  -8 -23   6-83.6810 256.918   1
  -8 -23   5 109.536 134.674   1
  -8 -23   4-145.677 204.298   1
  -8 -23   3-134.586 105.940   1
  -8 -23   2 404.497 339.305   1
  -8 -23   1 677.964 408.842   1
  -8 -23   1 731.112 425.203   3
  -8 -23   0 138.708 106.591   1
  -8 -23   0-12.1515 117.815   3
  -8 -23  -1 70.6227 81.2804   1
  -8 -23  -1 235.138 257.806   3
  -8 -23  -2-108.028 90.6257   1
  -8 -23  -2 214.405 276.173   3
  -8 -23  -3 14.4541 146.977   3
  -8 -23  -3 211.359 82.6514   1
  -8 -23  -4 158.102 160.031   1
  -8 -23  -4 110.716 174.913   3
  -8 -23  -5-56.8387 102.424   1
  -8 -23  -5 67.3155 243.363   3
  -8 -23  -6 96.0130 218.494   3
  -8 -23  -7-100.504 64.6628   3
  -8 -23  -8 308.551 277.360   3
  -8 -23  -9 45.6260 238.038   3
  -8 -23 -10 304.764 317.086   3
  -8 -22  10 433.901 298.695   1
  -8 -22   9 47.5670 249.675   1
  -8 -22   8-73.4904 127.291   1
  -8 -22   7-312.920 347.532   1
  -8 -22   6 178.075 270.246   1
  -8 -22   5 57.3570 176.457   1
  -8 -22   4 13.3440 10.6273   1
  -8 -22   3-29.0888 86.2852   1
  -8 -22   2 273.878 265.788   1
  -8 -22   1 312.620 273.626   1
  -8 -22   1 646.473 386.621   3
  -8 -22   0 226.360 266.559   1
  -8 -22   0 434.318 324.878   3
  -8 -22  -1 3.68149 135.255   1
  -8 -22  -1-212.066 184.831   3
  -8 -22  -2 9.48530 67.0270   1
  -8 -22  -2 184.502 269.749   3
  -8 -22  -3-109.654 151.649   1
  -8 -22  -3 115.406 187.350   3
  -8 -22  -4-198.606 182.894   1
  -8 -22  -4-127.648 168.760   3
  -8 -22  -5-20.8494 123.953   1
  -8 -22  -5-56.5486 152.173   3
  -8 -22  -6-110.570 185.951   3
  -8 -22  -7-96.0687 205.309   3
  -8 -22  -8 218.345 285.427   3
  -8 -22  -9-113.528 206.230   3
  -8 -22 -10 392.176 420.381   3
  -8 -22 -11 305.695 412.137   3
  -8 -21  11-18.7150 143.630   1
  -8 -21  10-335.757 291.675   1
  -8 -21   9-112.970 210.489   1
  -8 -21   8 175.969 241.607   1
  -8 -21   7 338.595 214.695   1
  -8 -21   6 168.217 262.694   1
  -8 -21   5-41.8646 163.105   1
  -8 -21   4 154.136 284.019   1
  -8 -21   3-113.909 198.901   1
  -8 -21   2 547.102 322.476   1
  -8 -21   1 143.798 115.489   1
  -8 -21   1 228.708 267.736   3
  -8 -21   0 137.283 124.963   1
  -8 -21   0 235.807 292.730   3
  -8 -21  -1 311.604 183.276   1
  -8 -21  -1 158.372 105.453   3
  -8 -21  -2 405.512 279.743   1
  -8 -21  -2 384.741 285.060   3
  -8 -21  -3 100.704 125.459   1
  -8 -21  -3-18.6734 150.272   3
  -8 -21  -4 125.550 118.664   1
  -8 -21  -4 185.682 257.223   3
  -8 -21  -5 77.4245 52.2977   1
  -8 -21  -5 236.161 170.836   3
  -8 -21  -6-244.870 245.991   3
  -8 -21  -7 135.683 142.548   3
  -8 -21  -8 255.453 277.609   3
  -8 -21  -9 168.922 300.128   3
  -8 -21 -10-202.668 251.547   3
  -8 -21 -11 47.8859 240.633   3
  -8 -20  11 35.7383 205.412   1
  -8 -20  10-19.1656 215.364   1
  -8 -20   9 155.262 272.043   1
  -8 -20   8 73.5533 177.759   1
  -8 -20   7 77.2337 240.824   1
  -8 -20   6 35.4998 200.131   1
  -8 -20   5 205.070 263.491   1
  -8 -20   4 59.9754 91.1574   1
  -8 -20   3 4.73969 48.8970   1
  -8 -20   2-64.9911 63.9033   1
  -8 -20   1 48.8368 55.9333   1
  -8 -20   0 118.624 86.6919   1
  -8 -20   0 95.2706 104.108   3
  -8 -20  -1 72.2992 78.5479   1
  -8 -20  -1-173.158 155.580   3
  -8 -20  -2 193.378 189.682   3
  -8 -20  -2-6.33885 95.0748   1
  -8 -20  -3-94.4620 101.161   1
  -8 -20  -3 34.9735 105.676   3
  -8 -20  -4 69.3685 99.7935   1
  -8 -20  -4 243.994 237.908   3
  -8 -20  -5 405.549 233.297   1
  -8 -20  -5 301.809 283.281   3
  -8 -20  -6 172.702 208.155   3
  -8 -20  -7 190.083 230.352   3
  -8 -20  -8-76.0899 184.436   3
  -8 -20  -9 243.452 271.306   3
  -8 -20 -10-81.1340 205.484   3
  -8 -20 -11 177.225 334.709   3
  -8 -20 -12-109.121 105.720   3
  -8 -19  11 7.25169 216.683   1
  -8 -19  10 274.164 309.191   1
  -8 -19   9 317.635 265.226   1
  -8 -19   8-37.0132 182.453   1
  -8 -19   7 240.508 332.475   1
  -8 -19   6 197.793 228.751   1
  -8 -19   5 222.742 218.810   1
  -8 -19   4 70.4055 193.165   1
  -8 -19   3 323.121 269.353   1
  -8 -19   2-107.203 176.605   1
  -8 -19   1 148.338 173.293   1
  -8 -19   0 261.786 224.554   1
  -8 -19   0 142.128 206.705   3
  -8 -19  -1 126.949 172.067   1
  -8 -19  -1 44.3065 49.4432   3
  -8 -19  -2 33.3856 150.706   1
  -8 -19  -2 48.5958 194.209   3
  -8 -19  -3 176.735 102.860   1
  -8 -19  -3 266.595 210.838   3
  -8 -19  -4 227.754 170.366   1
  -8 -19  -4 175.788 175.011   3
  -8 -19  -5 11.9694 47.0101   1
  -8 -19  -5 290.624 261.577   3
  -8 -19  -6-98.1770 144.579   3
  -8 -19  -7-166.577 237.852   3
  -8 -19  -8-44.8430 107.540   3
  -8 -19  -9 158.517 278.422   3
  -8 -19 -10-10.8157 168.181   3
  -8 -19 -11-322.989 201.330   3
  -8 -19 -12 88.3817 143.755   3
  -8 -18  12 509.310 460.700   1
  -8 -18  11 98.8006 114.352   1
  -8 -18  10 69.4400 227.239   1
  -8 -18   9 69.2845 67.9722   1
  -8 -18   8 280.942 307.729   1
  -8 -18   7 356.423 364.541   1
  -8 -18   6-52.5284 152.000   1
   8 -18  -5-190.061 157.643   2
  -8 -18   5 185.429 206.230   1
  -8 -18   4 201.139 214.542   1
  -8 -18   3-60.4880 143.294   1
  -8 -18   2-8.20935 133.741   1
  -8 -18   1 345.024 284.201   1
  -8 -18   0 53.3493 156.750   1
  -8 -18  -1-2.49894 103.961   1
  -8 -18  -1 156.123 264.684   3
  -8 -18  -2-31.0044 152.319   1
  -8 -18  -2 62.2969 165.064   3
  -8 -18  -3 232.466 140.525   1
  -8 -18  -3 276.872 241.936   3
  -8 -18  -4 589.991 247.814   1
  -8 -18  -4 348.268 258.936   3
  -8 -18  -5 156.935 8.77422   1
  -8 -18  -5 35.8905 47.4497   3
  -8 -18  -6 429.524 321.365   3
  -8 -18  -7 57.3027 72.7634   3
  -8 -18  -8 166.965 208.928   3
  -8 -18  -9 337.528 273.548   3
  -8 -18 -10 158.154 149.685   3
  -8 -18 -11-143.182 248.239   3
  -8 -18 -12 58.2319 290.817   3
  -8 -17  12 438.719 440.357   1
  -8 -17  11 31.7588 212.665   1
  -8 -17  10 189.421 298.732   1
  -8 -17   9 75.6636 160.278   1
  -8 -17   8 388.062 283.805   1
  -8 -17   7-76.0471 135.498   1
  -8 -17   6 49.4212 99.0738   1
   8 -17  -5-111.728 122.970   2
  -8 -17   5-69.8196 137.461   1
  -8 -17   4 8.80693 67.6842   1
  -8 -17   3-90.5061 161.356   1
  -8 -17   2 350.869 308.777   1
  -8 -17   1 1033.20 390.067   1
  -8 -17   0 120.182 137.655   1
  -8 -17  -1 165.557 97.2287   1
  -8 -17  -1 263.315 288.250   3
  -8 -17  -2 192.991 192.527   1
  -8 -17  -2-44.8490 131.758   3
  -8 -17  -3 358.769 215.718   1
  -8 -17  -3 42.2286 145.994   3
  -8 -17  -4 126.404 98.1414   1
  -8 -17  -4 406.922 288.996   3
  -8 -17  -5 166.544 142.975   1
  -8 -17  -5-158.719 110.065   3
  -8 -17  -6-141.473 228.986   3
  -8 -17  -7 23.3520 175.512   3
  -8 -17  -8-16.3090 134.936   3
  -8 -17  -9 41.7347 172.023   3
  -8 -17 -10-165.760 224.900   3
  -8 -17 -11-106.680 217.988   3
  -8 -17 -12 230.609 219.862   3
  -8 -16  12-44.3884 22.4515   1
  -8 -16  11-62.7603 51.9690   1
  -8 -16  10 129.370 368.306   1
  -8 -16   9 144.262 203.045   1
  -8 -16   8 204.100 276.373   1
  -8 -16   7 137.193 134.848   1
  -8 -16   6 538.470 335.407   1
   8 -16  -5 441.679 143.463   2
  -8 -16   5 774.258 395.055   1
   8 -16  -4 62.3466 108.634   2
  -8 -16   4 151.282 210.337   1
  -8 -16   3-97.9366 183.515   1
  -8 -16   2 544.434 324.148   1
  -8 -16   1 68.7504 135.536   1
  -8 -16   0 53.7905 185.202   1
  -8 -16  -1 6.95864 77.1627   1
  -8 -16  -1 144.971 116.175   3
  -8 -16  -2 45.5480 30.3035   1
  -8 -16  -2 178.373 206.462   3
  -8 -16  -3 480.795 228.232   1
  -8 -16  -3 559.292 321.644   3
  -8 -16  -4 394.370 176.697   1
  -8 -16  -4 278.330 240.776   3
  -8 -16  -5 366.253 175.217   1
  -8 -16  -5 227.955 211.576   3
  -8 -16  -6 70.8112 231.347   3
  -8 -16  -7-72.1847 128.588   3
  -8 -16  -8-144.744 256.395   3
  -8 -16  -9 22.2279 169.002   3
  -8 -16 -10 306.591 132.186   3
  -8 -16 -11 235.782 227.044   3
  -8 -16 -12-153.745 249.927   3
  -8 -15  12-80.7671 185.928   1
  -8 -15  11 251.719 272.636   1
  -8 -15  10 229.256 321.618   1
  -8 -15   9-38.0917 196.607   1
  -8 -15   8 278.335 352.637   1
  -8 -15   7 168.965 226.493   1
  -8 -15   6 420.519 275.267   1
   8 -15  -5 74.5129 106.227   2
  -8 -15   5 125.176 166.426   1
   8 -15  -4-300.291 185.353   2
  -8 -15   4 37.4587 123.934   1
  -8 -15   3-105.944 161.529   1
  -8 -15   2 640.402 343.790   1
  -8 -15   1 118.065 93.2875   1
  -8 -15   0 64.6756 103.065   1
  -8 -15  -1 172.842 161.194   1
  -8 -15  -1 205.500 200.154   3
  -8 -15  -2-85.1667 124.218   1
  -8 -15  -2-49.3760 25.0556   3
  -8 -15  -3-15.6680 59.0537   1
  -8 -15  -3 25.8582 122.164   3
  -8 -15  -4 156.764 119.398   1
  -8 -15  -4 226.037 257.529   3
  -8 -15  -5 95.5525 131.608   1
  -8 -15  -5-133.102 188.360   3
  -8 -15  -6 161.659 196.420   3
  -8 -15  -7 137.345 187.286   3
  -8 -15  -8-278.899 268.649   3
  -8 -15  -9 40.7750 27.2131   3
  -8 -15 -10 202.434 252.411   3
  -8 -15 -11 145.808 315.456   3
  -8 -15 -12-64.6252 67.0794   3
  -8 -14  12 110.198 278.675   1
  -8 -14  11 238.782 336.139   1
  -8 -14  10 126.928 35.2191   1
  -8 -14   9-182.332 170.756   1
  -8 -14   8 114.649 202.163   1
  -8 -14   7 500.021 311.484   1
  -8 -14   6 25.2869 170.291   1
   8 -14  -5 730.842 191.250   2
  -8 -14   5 284.045 215.715   1
   8 -14  -4 20.6965 118.027   2
  -8 -14   4 20.3669 138.411   1
   8 -14  -3 80.3497 54.8339   2
  -8 -14   3-66.5574 13.4813   1
  -8 -14   2 184.438 226.678   1
  -8 -14   1-22.2701 56.2515   1
  -8 -14   0 409.777 249.715   1
  -8 -14  -1 383.642 180.033   1
  -8 -14  -2 301.954 196.058   1
  -8 -14  -2 242.997 244.337   3
  -8 -14  -3-43.3812 27.3906   1
  -8 -14  -3 119.905 186.893   3
  -8 -14  -4 382.058 200.798   1
  -8 -14  -4 743.820 393.516   3
  -8 -14  -5 136.756 177.668   3
  -8 -14  -5 33.8028 47.7357   1
  -8 -14  -6-57.4956 55.8075   3
  -8 -14  -7-41.7830 210.395   3
  -8 -14  -8-211.029 172.196   3
  -8 -14  -9 405.136 322.554   3
  -8 -14 -10-299.519 163.628   3
  -8 -14 -11 182.758 230.119   3
  -8 -14 -12 97.1252 239.315   3
  -8 -13  13-201.321 218.060   1
  -8 -13  12 340.606 376.349   1
  -8 -13  11 249.708 285.879   1
  -8 -13  10-99.6600 53.6741   1
  -8 -13   9-246.109 223.541   1
  -8 -13   8 81.8745 210.925   1
  -8 -13   7 357.487 280.690   1
  -8 -13   6 43.8807 27.5830   1
   8 -13  -5 602.367 208.995   2
  -8 -13   5 285.050 290.358   1
   8 -13  -4 124.135 53.6636   2
  -8 -13   4-36.5224 159.227   1
   8 -13  -3 431.391 112.151   2
  -8 -13   3 817.777 358.438   1
  -8 -13   2-15.3962 87.5112   1
  -8 -13   1 134.731 209.714   1
  -8 -13   0 919.498 341.811   1
  -8 -13  -1-86.2468 80.7088   1
  -8 -13  -2-1.36087 88.3238   3
  -8 -13  -2 33.7502 97.3860   1
  -8 -13  -3 319.682 218.086   3
  -8 -13  -3 494.401 187.756   1
  -8 -13  -4 675.013 366.033   3
  -8 -13  -4 725.773 231.971   1
  -8 -13  -5-0.76934 49.3711   1
  -8 -13  -5 160.588 154.559   3
  -8 -13  -6-228.777 265.116   3
  -8 -13  -7-66.4846 135.854   3
  -8 -13  -8 123.942 70.4873   3
  -8 -13  -9 66.2232 106.151   3
  -8 -13 -10 42.6247 206.477   3
  -8 -13 -11 47.7154 221.990   3
  -8 -13 -12-6.88155 116.575   3
  -8 -12  13 140.251 57.2377   1
  -8 -12  12 222.137 244.501   1
  -8 -12  11 11.0084 193.574   1
  -8 -12  10 12.3419 268.839   1
  -8 -12   9 84.5569 137.559   1
  -8 -12   8 816.115 434.648   1
  -8 -12   7 194.763 166.327   1
  -8 -12   6 617.742 289.788   1
  -8 -12   5 133.219 138.529   1
   8 -12  -4-133.168 99.7751   2
  -8 -12   4 22.2771 63.6600   1
   8 -12  -3-247.575 202.154   2
  -8 -12   3 20.1773 93.5143   1
  -8 -12   2-52.0200 63.1561   1
  -8 -12   1 156.486 184.206   1
  -8 -12   0 109.096 123.216   1
  -8 -12  -1 204.612 144.158   1
  -8 -12  -2-18.2674 35.2567   3
  -8 -12  -2 17.0687 59.3227   1
  -8 -12  -3 126.926 179.643   3
  -8 -12  -3 134.544 109.033   1
  -8 -12  -4 14.7823 63.7883   1
  -8 -12  -4 104.081 151.843   3
  -8 -12  -5 47.3142 58.8117   1
  -8 -12  -5 90.6965 149.559   3
  -8 -12  -6 31.7621 134.827   3
  -8 -12  -7 73.2803 102.142   3
  -8 -12  -8 124.409 69.9124   3
  -8 -12  -9 106.595 169.880   3
  -8 -12 -10 372.303 327.504   3
  -8 -12 -11-18.5912 89.8782   3
  -8 -12 -12 32.5394 169.715   3
  -8 -11  13-139.220 131.329   1
  -8 -11  12 72.3611 49.8763   1
  -8 -11  11 110.035 85.6731   1
  -8 -11  10 251.531 298.676   1
  -8 -11   9 185.756 193.612   1
  -8 -11   8 8.35156 247.914   1
  -8 -11   7-111.585 34.1882   1
  -8 -11   6-77.5810 127.231   1
  -8 -11   5 112.378 77.9022   1
   8 -11  -4 153.112 98.2169   2
  -8 -11   4 11.9853 120.343   1
   8 -11  -3-148.692 168.718   2
  -8 -11   3-76.3674 27.8554   1
   8 -11  -2-100.524 164.115   2
  -8 -11   2 70.7743 178.707   1
  -8 -11   1 156.130 129.709   1
  -8 -11   0 154.924 149.451   1
  -8 -11  -1 803.120 298.056   1
  -8 -11  -2 59.7161 51.4251   1
  -8 -11  -2 167.896 242.398   3
  -8 -11  -3 279.258 200.929   3
  -8 -11  -3 292.055 163.039   1
  -8 -11  -4-109.248 76.6098   1
  -8 -11  -4 60.1057 90.4138   3
  -8 -11  -5 365.776 152.268   1
  -8 -11  -5 415.254 235.533   3
  -8 -11  -6 41.7376 187.984   3
  -8 -11  -7 139.614 221.175   3
  -8 -11  -8-112.834 36.1389   3
  -8 -11  -9-53.7116 211.068   3
  -8 -11 -10-168.567 163.153   3
  -8 -11 -11 290.739 252.826   3
  -8 -10  13 362.104 287.292   1
  -8 -10  12-113.716 87.9378   1
  -8 -10  11 18.7474 30.9333   1
  -8 -10  10 147.090 330.527   1
  -8 -10   9-130.295 134.530   1
  -8 -10   8 175.513 220.664   1
  -8 -10   7 586.941 372.678   1
  -8 -10   6 38.5267 158.322   1
  -8 -10   5 11.4770 140.330   1
  -8 -10   4-51.3687 120.576   1
   8 -10  -4 79.8925 103.961   2
   8 -10  -3-121.701 122.299   2
  -8 -10   3-3.97202 107.489   1
   8 -10  -2 545.268 190.658   2
  -8 -10   2 601.545 303.961   1
  -8 -10   1 382.253 222.819   1
  -8 -10   0 144.100 183.867   1
  -8 -10  -1 199.318 155.811   1
  -8 -10  -2 219.800 121.354   1
  -8 -10  -3 73.3984 77.0982   1
  -8 -10  -3 16.6670 79.5736   3
  -8 -10  -4 74.0750 98.6003   1
  -8 -10  -4-87.0662 88.4076   3
   8 -10   4-94.6817 67.9185   1
  -8 -10  -5-51.2211 44.8968   1
  -8 -10  -5 42.4129 110.250   3
  -8 -10  -6-36.6666 142.460   3
  -8 -10  -7 123.892 180.447   3
  -8 -10  -8 173.047 201.746   3
  -8 -10  -9 246.520 199.843   3
  -8 -10 -10-104.325 149.534   3
  -8 -10 -11 303.401 269.229   3
  -8  -9  13 31.5539 185.312   1
  -8  -9  12-56.3106 179.329   1
  -8  -9  11 107.726 179.104   1
  -8  -9  10 182.535 153.821   1
  -8  -9   9 17.8235 105.165   1
  -8  -9   8 133.195 195.869   1
  -8  -9   7 484.836 332.481   1
  -8  -9   6 397.663 236.119   1
  -8  -9   5 148.170 123.517   1
  -8  -9   4-30.3469 82.8073   1
   8  -9  -4 253.477 163.515   2
   8  -9  -3-43.9172 84.3176   2
  -8  -9   3 120.013 110.377   1
   8  -9  -2 60.0615 56.1530   2
  -8  -9   2 261.841 161.645   1
   8  -9  -1 112.626 17.7537   2
  -8  -9   1 186.808 129.653   1
  -8  -9   0 610.022 251.087   1
  -8  -9  -1 58.0991 107.512   1
  -8  -9  -2-0.98005 31.1199   1
   8  -9   3 209.117 139.907   1
  -8  -9  -3 95.7066 65.1032   1
  -8  -9  -3 300.743 223.917   3
   8  -9   4 768.073 223.555   1
  -8  -9  -4 585.214 177.568   1
  -8  -9  -4 615.254 309.124   3
  -8  -9  -5 36.8054 68.7105   1
  -8  -9  -5 45.4486 90.5712   3
  -8  -9  -6 173.182 161.402   3
  -8  -9  -7 20.5704 66.5594   3
  -8  -9  -8-75.8230 139.609   3
  -8  -9  -9-11.7541 62.5693   3
  -8  -9 -10 132.135 144.662   3
  -8  -9 -11 392.789 275.746   3
  -8  -8  13 25.6177 74.4102   1
  -8  -8  12 314.475 277.196   1
  -8  -8  11 405.081 338.944   1
  -8  -8  10-65.4497 137.612   1
  -8  -8   9 137.469 248.237   1
  -8  -8   8 242.235 236.706   1
  -8  -8   7 384.379 318.281   1
  -8  -8   6-14.2840 84.6629   1
  -8  -8   5-201.321 199.059   1
  -8  -8   4 4.04095 23.7622   1
   8  -8  -4 290.648 193.387   2
  -8  -8   3 225.756 109.445   1
   8  -8  -3 51.5404 6.39595   2
   8  -8  -2-150.210 175.594   2
  -8  -8   2-19.0221 134.259   1
   8  -8  -1 548.775 198.182   2
  -8  -8   1 634.761 261.916   1
   8  -8   0 559.199 200.471   2
  -8  -8   0 846.516 312.633   1
  -8  -8  -1 61.9341 62.9343   1
  -8  -8  -2 130.654 121.066   1
   8  -8   3 45.8435 26.7115   1
  -8  -8  -3 16.9137 82.3978   1
  -8  -8  -3 68.0809 121.509   3
   8  -8   4-11.5396 33.0022   1
  -8  -8  -4 46.7953 60.7707   1
  -8  -8  -4 105.993 75.0397   3
  -8  -8  -5 163.460 74.5544   1
  -8  -8  -5 168.148 193.630   3
  -8  -8  -6-168.991 162.525   3
  -8  -8  -7 156.682 158.571   3
  -8  -8  -8 236.801 216.941   3
  -8  -8  -9-38.6740 139.387   3
  -8  -8 -10 75.1951 122.149   3
  -8  -8 -11 120.951 227.915   3
  -8  -7  13 404.341 348.930   1
  -8  -7  12-15.5625 228.726   1
  -8  -7  11 97.5457 231.061   1
  -8  -7  10 217.518 202.283   1
  -8  -7   9 439.441 340.888   1
  -8  -7   8-5.05251 157.670   1
  -8  -7   7 12.9342 190.807   1
  -8  -7   6 62.7103 97.6322   1
  -8  -7   5 75.5754 58.3143   1
  -8  -7   4-55.7841 32.7347   1
  -8  -7   3 82.9865 115.628   1
   8  -7  -3 210.450 156.958   2
  -8  -7   2 331.140 184.536   1
   8  -7  -2 139.937 80.9864   2
   8  -7  -1 575.808 187.104   2
  -8  -7   1 707.131 270.656   1
   8  -7   0 70.9010 47.6442   2
  -8  -7   0 215.916 123.767   1
  -8  -7  -1 101.633 118.893   1
   8  -7   2-22.8110 36.8417   1
  -8  -7  -2 54.3104 46.9618   1
   8  -7   3 174.917 135.726   1
  -8  -7  -3 117.090 72.8157   1
  -8  -7  -3 82.9614 123.748   3
  -8  -7  -4 73.1876 38.7574   1
   8  -7   4 90.5526 42.1624   1
  -8  -7  -4 115.869 72.5514   3
  -8  -7  -5 148.690 114.519   3
  -8  -7  -5-15.2613 16.5964   1
  -8  -7  -6 99.5737 62.5906   3
  -8  -7  -7-27.4389 95.4969   3
  -8  -7  -8 48.9097 191.135   3
  -8  -7  -9 191.468 136.794   3
  -8  -7 -10 85.4018 171.709   3
  -8  -6  14-55.2386 161.215   1
  -8  -6  13 113.493 330.441   1
  -8  -6  12 125.310 252.023   1
  -8  -6  11 273.085 302.250   1
  -8  -6  10 93.2342 259.529   1
  -8  -6   9 303.525 287.879   1
  -8  -6   8 250.253 258.667   1
  -8  -6   7-152.948 218.649   1
  -8  -6   6 128.871 183.788   1
  -8  -6   5 11.7744 77.3599   1
  -8  -6   4 269.574 184.821   1
  -8  -6   3-103.391 102.299   1
   8  -6  -3 180.104 165.996   2
  -8  -6   2 396.104 176.184   1
   8  -6  -2 465.576 185.121   2
  -8  -6   1 525.662 216.342   1
   8  -6  -1 518.432 194.282   2
  -8  -6   0 241.369 151.616   1
   8  -6   0-20.8274 164.181   2
  -8  -6  -1-69.1077 81.3968   1
   8  -6   1-185.984 203.189   2
  -8  -6  -2 82.2397 88.9074   1
   8  -6   2 53.7764 106.350   1
  -8  -6  -3 30.0544 13.3874   1
   8  -6   3 91.5314 55.5099   1
  -8  -6  -3 117.238 151.021   3
  -8  -6  -4 39.2554 36.3223   1
   8  -6   4 16.3115 46.0785   1
  -8  -6  -4 72.6223 117.219   3
  -8  -6  -5-2.29912 95.6281   3
  -8  -6  -6 271.596 172.731   3
  -8  -6  -7 214.277 147.259   3
  -8  -6  -8 39.9803 84.2559   3
  -8  -6  -9 208.946 183.516   3
  -8  -6 -10 201.320 164.390   3
  -8  -5  14-37.4401 156.663   1
  -8  -5  13 85.2993 212.810   1
  -8  -5  12 244.426 334.767   1
  -8  -5  11 137.403 257.078   1
  -8  -5  10 121.994 78.4855   1
  -8  -5   9-166.754 75.5935   1
  -8  -5   8 55.0192 129.479   1
  -8  -5   7-36.5776 99.9737   1
  -8  -5   6 279.363 232.239   1
  -8  -5   5 147.317 52.7711   1
  -8  -5   4-174.796 182.579   1
  -8  -5   3 100.602 142.074   1
   8  -5  -3 191.844 165.532   2
  -8  -5   2 487.150 210.405   1
   8  -5  -2 448.449 172.576   2
  -8  -5   1 157.318 119.505   1
   8  -5  -1 22.9935 69.1728   2
  -8  -5   0 16.9219 36.3178   1
   8  -5   0-293.427 248.295   2
  -8  -5  -1 582.228 218.134   1
   8  -5   1 334.772 72.1979   2
  -8  -5  -2 355.451 149.415   1
   8  -5   2 182.950 91.2635   2
   8  -5   2 387.340 176.692   1
  -8  -5  -3 22.1890 36.0587   1
   8  -5   3-47.2469 22.3757   1
  -8  -5  -3 39.1481 153.686   3
   8  -5   4 289.346 108.786   1
  -8  -5  -4 246.166 161.424   3
  -8  -5  -4 182.668 78.9773   1
  -8  -5  -5 342.422 189.461   3
  -8  -5  -6 97.2309 141.023   3
  -8  -5  -7 11.9675 123.829   3
  -8  -5  -8 194.406 151.596   3
  -8  -5  -9 100.729 13.6786   3
  -8  -5 -10 69.2638 109.085   3
  -8  -4  14 19.6408 248.526   1
  -8  -4  13-69.3168 63.7977   1
  -8  -4  12 332.304 345.953   1
  -8  -4  11 404.515 290.784   1
  -8  -4  10 99.4978 231.212   1
  -8  -4   9 253.964 259.189   1
  -8  -4   8 270.519 149.475   1
  -8  -4   7 44.9431 161.969   1
  -8  -4   6 61.9193 140.366   1
  -8  -4   5 13.9854 52.6089   1
  -8  -4   4 83.6488 82.9573   1
  -8  -4   3 346.179 236.980   1
  -8  -4   2 114.643 2.61512   1
   8  -4  -2 380.281 205.135   2
  -8  -4   1 577.184 260.440   1
   8  -4  -1 376.672 162.473   2
  -8  -4   0-13.0348 86.9545   1
   8  -4   0-42.5763 109.424   2
  -8  -4  -1 45.1686 103.417   1
   8  -4   1-454.425 273.729   2
  -8  -4  -2 204.510 132.947   1
   8  -4   2-0.75763 74.3607   2
   8  -4   2 147.188 84.6994   1
   8  -4   3-85.2973 82.6416   1
  -8  -4  -3-9.51699 16.7808   1
   8  -4   4-135.511 222.322   2
   8  -4   4 28.7007 38.7166   1
  -8  -4  -4 31.5094 29.9809   1
  -8  -4  -4 41.7340 102.369   3
  -8  -4  -5 101.966 148.258   3
  -8  -4  -6 46.3957 111.679   3
  -8  -4  -7-72.8029 96.9358   3
  -8  -4  -8 160.118 74.0332   3
  -8  -4  -9 31.4810 105.523   3
  -8  -4 -10 25.8838 137.674   3
   8  -4  12-862.498 565.643   2
  -8  -3  14 232.659 165.326   1
  -8  -3  13 176.628 206.445   1
  -8  -3  12-76.4305 140.715   1
  -8  -3  11 47.0977 358.108   1
  -8  -3  10 456.607 327.269   1
  -8  -3   9 71.9450 129.578   1
  -8  -3   8-123.929 209.917   1
  -8  -3   7 561.070 329.690   1
  -8  -3   6 175.309 75.1261   1
  -8  -3   5 40.2748 164.350   1
  -8  -3   4 252.727 203.951   1
  -8  -3   3 169.523 167.464   1
  -8  -3   2 230.577 135.148   1
   8  -3  -2 463.640 217.010   2
  -8  -3   1 85.6322 73.3362   1
   8  -3  -1 50.1624 60.8518   2
  -8  -3   0 1221.31 335.978   1
   8  -3   0 1265.97 329.161   2
  -8  -3  -1 3.90761 95.7025   1
   8  -3   1-92.9904 168.640   2
   8  -3   1 13.9947 58.0114   1
   8  -3   2-114.255 145.667   2
   8  -3   2 106.102 100.957   1
  -8  -3  -2-5.95400 39.0553   1
   8  -3   3 304.337 103.648   2
   8  -3   3 294.962 106.922   1
  -8  -3  -3 342.743 135.058   1
   8  -3   4 5.29264 127.099   2
  -8  -3  -4 186.832 145.063   3
   8  -3   4 109.854 63.8415   1
   8  -3   5-51.6502 145.733   2
  -8  -3  -5 61.1916 107.580   3
   8  -3   6-32.7057 170.360   2
  -8  -3  -6 310.534 171.114   3
  -8  -3  -7-52.0634 59.2944   3
  -8  -3  -8 58.9985 65.0513   3
  -8  -3  -9 111.242 145.041   3
   8  -3  10-719.828 438.410   2
   8  -3  11-611.972 462.544   2
   8  -3  12-370.770 373.459   2
   8  -3  13-331.382 357.287   2
  -8  -2  14-71.8539 226.952   1
  -8  -2  13-69.0390 245.051   1
  -8  -2  12 89.1609 212.758   1
  -8  -2  11 224.441 374.526   1
  -8  -2  10 15.7850 252.660   1
  -8  -2   9 45.7900 71.0630   1
  -8  -2   8-66.6388 118.743   1
  -8  -2   7 345.148 277.578   1
  -8  -2   6-203.532 213.871   1
  -8  -2   5 256.453 163.559   1
  -8  -2   4 133.436 148.352   1
  -8  -2   3 69.3195 90.5758   1
  -8  -2   2 84.0969 98.7876   1
   8  -2  -2 98.3786 157.628   2
  -8  -2   1 140.886 129.417   1
   8  -2  -1 109.556 150.088   2
  -8  -2   0-64.2987 74.2837   1
   8  -2   0 26.1599 77.2974   2
  -8  -2  -1 199.452 119.380   1
   8  -2   1-73.4050 168.963   2
   8  -2   1 125.673 121.056   1
   8  -2   2-105.151 175.272   2
   8  -2   2 96.8650 101.913   1
  -8  -2  -2-23.2318 96.4238   1
  -8  -2  -3 49.3283 49.1643   1
   8  -2   3 151.528 77.6778   1
   8  -2   4 507.586 122.190   1
   8  -2   4 261.505 106.112   2
  -8  -2  -4 465.780 194.631   3
   8  -2   5-51.5454 151.621   2
  -8  -2  -5 125.877 146.938   3
   8  -2   6 40.4992 109.083   2
  -8  -2  -6 84.3305 128.096   3
  -8  -2  -7 131.730 142.820   3
   8  -2   7-59.5805 150.145   2
  -8  -2  -8-73.6513 49.1038   3
   8  -2   8-276.051 323.897   2
  -8  -2  -9 122.153 155.596   3
   8  -2   9-284.111 341.205   2
   8  -2  10-361.738 356.875   2
   8  -2  11-549.970 403.629   2
   8  -2  12-38.7860 302.369   2
   8  -2  13-213.082 306.657   2
  -8  -1  14 78.2663 35.7280   1
  -8  -1  13 4.04529 75.0425   1
  -8  -1  12 408.518 315.598   1
  -8  -1  11 191.345 205.632   1
  -8  -1  10-77.0925 131.507   1
  -8  -1   9-82.8045 124.770   1
  -8  -1   8 154.897 249.685   1
  -8  -1   7 82.6512 206.031   1
  -8  -1   6 481.391 314.886   1
  -8  -1   5 104.095 119.189   1
  -8  -1   4 58.9608 104.364   1
  -8  -1   3-102.047 122.607   1
  -8  -1   2 259.630 148.669   1
   8  -1  -2 424.791 245.672   2
  -8  -1   1 768.510 248.781   1
   8  -1  -1 1012.89 319.377   2
  -8  -1   0-59.6744 127.638   1
   8  -1   0 237.616 174.681   2
   8  -1   1-13.9065 96.2964   2
   8  -1   1 81.7378 62.5974   1
  -8  -1  -1 66.1361 105.573   1
   8  -1   2 6.64170 116.710   2
  -8  -1  -2 251.212 116.569   1
   8  -1   2 171.018 66.4684   1
   8  -1   3 218.401 82.5426   1
   8  -1   3-207.144 188.760   2
   8  -1   4-165.194 163.312   2
   8  -1   4 2.78538 31.6439   1
  -8  -1  -4 185.088 149.427   3
   8  -1   5 144.154 35.9170   2
  -8  -1  -5 464.412 217.077   3
   8  -1   6-539.027 322.882   2
  -8  -1  -6-20.8687 71.1414   3
  -8  -1  -7 30.8605 51.2205   3
   8  -1   7-200.492 199.266   2
  -8  -1  -8 164.507 121.754   3
   8  -1   8-269.878 273.580   2
  -8  -1  -9-96.4489 124.466   3
   8  -1   9-322.879 297.910   2
   8  -1  10-559.898 409.769   2
   8  -1  11-426.410 434.914   2
   8  -1  12-438.273 342.628   2
   8  -1  13-397.197 372.691   2
  -8   0  14-206.237 136.745   1
  -8   0  13 193.324 252.531   1
  -8   0  12 106.630 215.132   1
  -8   0  11 57.9018 107.623   1
  -8   0  10 9.35674 172.539   1
  -8   0   9-52.4260 93.8258   1
  -8   0   8 239.163 195.495   1
  -8   0   7 399.311 288.453   1
  -8   0   6 843.999 382.711   1
  -8   0   5-4.83784 52.9644   1
  -8   0   4 47.1707 32.6542   1
  -8   0   3 233.321 114.960   1
  -8   0   2 21.8673 87.7256   1
   8   0  -1 195.018 197.501   2
  -8   0   1 12.3905 101.933   1
   8   0   0 171.661 183.501   2
  -8   0   0 93.8173 141.561   1
   8   0   1-155.649 161.921   2
  -8   0  -1 66.8335 103.732   1
   8   0   1 43.7525 59.5967   1
   8   0   2 35.6968 44.6315   1
   8   0   2 40.7903 91.0985   2
   8   0   3 600.913 135.313   1
   8   0   3 149.833 17.1735   2
  -8   0  -4 108.980 109.146   3
   8   0   4 34.1469 9.59176   1
   8   0   4-140.231 223.767   2
   8   0   5-257.668 241.049   2
  -8   0  -5 224.708 136.125   3
   8   0   6-258.719 271.547   2
  -8   0  -6-35.2831 70.0091   3
  -8   0  -7 101.037 60.7666   3
   8   0   7-364.993 322.751   2
  -8   0  -8 49.9194 66.1734   3
   8   0   8-136.535 217.779   2
  -8   0  -9 130.197 137.943   3
   8   0   9-508.555 369.214   2
   8   0  10-209.853 308.935   2
   8   0  11-882.729 499.919   2
   8   0  12-62.1504 261.044   2
   8   0  13-428.417 357.616   2
  -8   1  14 97.6984 266.490   1
  -8   1  13 465.275 422.144   1
  -8   1  12-44.3548 136.513   1
  -8   1  11-113.742 153.278   1
  -8   1  10 19.4433 126.431   1
  -8   1   9 139.726 143.566   1
  -8   1   8 100.215 99.1417   1
  -8   1   7-104.604 110.572   1
  -8   1   6 220.442 181.672   1
  -8   1   6 166.102 93.8220   2
  -8   1   5 146.969 156.114   1
  -8   1   4 3.38728 67.6633   1
  -8   1   3-126.575 152.459   1
  -8   1   2 221.258 139.071   1
   8   1  -1 1013.69 342.971   2
  -8   1   1 889.096 277.694   1
   8   1   0 24.9681 119.883   2
  -8   1   0-48.0203 57.8672   1
   8   1   1-60.7865 79.0574   1
   8   1   1 103.384 109.689   2
  -8   1  -1 56.2888 112.001   1
   8   1   2 291.963 131.363   1
   8   1   2 178.257 48.0344   2
   8   1   3 187.473 142.379   2
   8   1   3 101.620 40.6915   1
   8   1   4-117.862 223.595   2
   8   1   4 30.5930 25.4366   1
  -8   1  -4 238.921 150.509   3
   8   1   5-170.826 243.644   2
  -8   1  -5 255.931 168.284   3
   8   1   6-462.602 296.044   2
  -8   1  -6 37.8811 19.5605   3
  -8   1  -7-12.8637 25.4671   3
   8   1   7-531.367 344.369   2
  -8   1  -8 102.780 135.086   3
   8   1   8-255.547 284.591   2
   8   1   9-434.017 361.738   2
   8   1  10-686.654 451.126   2
   8   1  11-358.542 392.119   2
   8   1  12-730.977 418.451   2
   8   1  13-258.537 276.925   2
  -8   2  14-174.126 168.921   1
  -8   2  13 48.2128 307.576   1
  -8   2  12 293.216 292.337   1
  -8   2  11 289.238 261.437   1
  -8   2  10-43.9026 201.867   1
  -8   2   9 76.8430 159.264   1
  -8   2   8 141.518 211.920   1
  -8   2   7 562.258 311.420   1
  -8   2   6 24.1527 87.8768   1
  -8   2   5 31.0042 62.5668   1
  -8   2   4 126.790 54.5129   1
  -8   2   3 72.2363 61.3023   1
  -8   2   2 76.5167 63.2545   1
  -8   2   1 8.33306 73.3882   1
   8   2   0 186.980 217.470   2
  -8   2   0 5.05732 99.9294   1
   8   2   1 154.589 85.1767   1
   8   2   1 352.709 192.207   2
   8   2   2-48.6889 83.1560   1
   8   2   2-0.50258 48.7173   2
   8   2   3-156.998 150.464   2
   8   2   3 89.7063 48.9892   1
   8   2   4 321.820 154.540   2
  -8   2  -4 560.845 203.813   3
   8   2   5-103.636 205.448   2
  -8   2  -5 91.1733 130.582   3
   8   2   6-544.835 324.255   2
  -8   2  -6-1.40369 55.9666   3
  -8   2  -7 56.5261 85.8926   3
   8   2   7-520.562 340.623   2
  -8   2  -8 110.192 124.259   3
   8   2   8-324.928 294.695   2
   8   2   9-454.371 382.299   2
   8   2  10-609.344 420.352   2
   8   2  11-424.398 326.169   2
   8   2  12-326.468 367.624   2
   8   2  13-202.411 285.013   2
  -8   3  14 275.650 359.564   1
  -8   3  13 31.7305 99.6402   1
  -8   3  12 126.866 254.911   1
  -8   3  11 58.5206 161.115   1
  -8   3  10 321.921 219.779   1
  -8   3   9-2.26707 192.679   1
  -8   3   8 140.470 217.818   1
  -8   3   7 206.516 128.594   1
  -8   3   6 260.039 214.321   1
  -8   3   5 70.2654 98.6784   1
  -8   3   4 590.070 245.831   1
  -8   3   3 137.102 145.415   1
  -8   3   2 209.060 103.994   1
  -8   3   1 178.012 58.9102   1
   8   3   0 1605.86 445.195   2
   8   3   1 60.4467 51.1572   1
   8   3   1 361.456 215.447   2
   8   3   2 243.362 239.612   2
   8   3   2 143.326 97.3500   1
   8   3   3 288.878 98.3323   1
   8   3   3 60.6949 68.9604   2
   8   3   4 162.571 98.1057   2
  -8   3  -4 212.876 144.153   3
   8   3   5-84.2320 219.880   2
  -8   3  -5 161.108 140.118   3
   8   3   6-132.161 179.848   2
  -8   3  -6 225.219 117.660   3
  -8   3  -7 15.2639 88.3753   3
   8   3   7-205.672 234.929   2
  -8   3  -8 124.220 115.810   3
   8   3   8-207.632 242.176   2
   8   3   9-365.677 325.661   2
   8   3  10-461.592 312.876   2
   8   3  11-170.101 251.837   2
   8   3  12-355.621 324.085   2
   8   3  13-350.942 320.550   2
  -8   4  14 227.061 323.358   1
  -8   4  13 43.9373 157.281   1
  -8   4  12-52.3382 95.2002   1
  -8   4  11-149.359 97.1279   1
  -8   4  10 33.0414 176.902   1
  -8   4   9 172.325 210.069   1
  -8   4   8 223.927 190.352   1
  -8   4   7 44.3188 122.614   1
  -8   4   6 150.915 170.753   1
  -8   4   5 5.09185 40.3735   1
  -8   4   4-111.060 101.552   1
  -8   4   3 306.322 190.160   1
  -8   4   2 271.083 208.876   1
  -8   4   1 392.551 182.988   1
   8   4   1 289.333 212.636   2
   8   4   1-61.1079 110.734   1
   8   4   2 99.4586 55.0859   1
   8   4   2 357.282 215.427   2
   8   4   3-110.229 63.8076   1
   8   4   3 161.050 136.703   2
   8   4   4-28.0112 96.5248   2
   8   4   5 141.412 83.7879   2
  -8   4  -5 223.679 147.183   3
   8   4   6-292.781 224.491   2
  -8   4  -6 56.7412 65.7729   3
  -8   4  -7 61.8316 77.8402   3
   8   4   7-0.95398 150.482   2
   8   4   8-135.845 209.757   2
   8   4   9-339.942 285.729   2
   8   4  10-408.775 340.093   2
   8   4  11-440.854 325.422   2
   8   4  12-403.704 288.432   2
   8   4  13-58.6974 67.2454   2
  -8   5  13 33.8314 265.871   1
  -8   5  12-140.266 63.0043   1
  -8   5  11-131.055 295.984   1
  -8   5  10 196.570 195.888   1
  -8   5   9 96.4735 169.060   1
  -8   5   8 131.011 179.802   1
  -8   5   7 75.4559 223.065   1
  -8   5   6 8.30643 152.274   1
  -8   5   5 252.758 200.653   1
  -8   5   4 116.674 142.316   1
  -8   5   3 131.584 121.373   1
  -8   5   2 591.865 265.763   1
   8   5   1 995.207 371.335   2
   8   5   1 584.601 196.201   1
   8   5   2 203.368 105.106   1
   8   5   2 506.015 257.515   2
   8   5   3 76.5578 148.955   2
   8   5   3-57.4211 25.1401   1
   8   5   4 162.094 175.985   2
   8   5   5 262.861 200.572   2
  -8   5  -5 522.577 180.471   3
   8   5   6 57.8311 58.1235   2
  -8   5  -6 47.2178 35.7288   3
  -8   5  -7 4.02566 2.12753   3
   8   5   7-136.026 181.204   2
   8   5   8-76.3472 181.933   2
   8   5   9-17.9396 119.922   2
   8   5  10-274.381 273.752   2
   8   5  11-142.079 215.371   2
   8   5  12 155.595 132.413   2
   8   5  13-173.350 131.066   2
  -8   6  12 266.635 151.247   1
  -8   6  11-162.060 282.370   1
  -8   6  10-9.01927 125.070   1
  -8   6   9 257.448 215.441   1
  -8   6   8 88.1507 73.9782   1
  -8   6   7 28.2190 125.882   1
  -8   6   6 490.625 299.782   1
  -8   6   5 230.076 223.986   1
  -8   6   4-16.5462 61.9712   1
   8   6   2 445.441 285.168   2
   8   6   2 51.9322 78.9955   1
   8   6   3 174.386 202.398   2
   8   6   4 15.7237 82.1520   2
   8   6   5 347.212 230.792   2
  -8   6  -5 110.287 71.0918   3
   8   6   6 255.927 164.925   2
  -8   6  -6 157.517 71.3843   3
  -8   6  -7 126.354 83.4015   3
   8   6   7 27.4758 126.220   2
   8   6   8 3.68278 37.2713   2
   8   6   9 149.682 116.752   2
   8   6  10-306.380 256.488   2
   8   6  11-307.407 289.762   2
   8   6  12-68.8984 89.8034   2
   8   6  13-288.780 278.281   2
  -8   7  10 66.1787 112.290   1
  -8   7   9-34.2076 153.198   1
  -8   7   8 134.666 186.772   1
  -8   7   7-69.9356 157.887   1
  -8   7   6 103.213 176.443   1
   8   7   2 103.166 82.8390   1
   8   7   2 584.612 316.378   2
   8   7   3 301.798 217.000   2
   8   7   4 266.141 211.913   2
   8   7   5 321.311 229.447   2
  -8   7  -5 66.0910 62.5033   3
   8   7   6 209.491 184.587   2
  -8   7  -6-22.5533 52.5444   3
   8   7   7 144.991 184.956   2
   8   7   8-7.24801 47.7045   2
   8   7   9 200.167 142.947   2
   8   7  10 94.8137 72.0771   2
   8   7  11-240.580 265.072   2
   8   7  12 154.703 171.807   2
   8   7  13-0.89180 150.869   2
   8   8   2 33.7558 62.8798   1
   8   8   3 453.361 293.004   2
   8   8   4 455.150 279.735   2
   8   8   5 318.912 265.451   2
  -8   8  -5 137.792 49.4456   3
  -8   8  -6 27.8241 47.8314   3
   8   8   6 226.203 236.253   2
   8   8   7 488.915 280.344   2
   8   8   8 417.646 306.392   2
   8   8   9 361.698 294.500   2
   8   8  10 447.369 334.887   2
   8   8  11 169.820 164.919   2
   8   8  12 73.9953 73.2878   2
   8   8  13 112.983 252.960   2
   8   9   4 1349.25 441.835   2
   8   9   5 653.767 363.722   2
  -8   9  -5 25.1634 44.4547   3
  -8   9  -6 113.543 63.1506   3
   8   9   6 676.894 353.126   2
   8   9   7 449.813 288.443   2
   8   9   8 613.622 370.154   2
   8   9   9 274.419 329.451   2
   8   9  10 277.428 308.648   2
   8   9  11-25.8283 23.5578   2
   8   9  12-20.5078 113.330   2
   8   9  13 302.429 268.516   2
   8  10   5 884.823 417.465   2
  -8  10  -5 93.5695 78.5881   3
   8  10   6 725.455 405.206   2
   8  10   7 490.725 323.401   2
   8  10   8 624.973 373.743   2
   8  10   9 526.954 351.220   2
   8  10  10 401.107 301.901   2
   8  10  11 460.215 322.254   2
   8  10  12-228.517 254.243   2
   8  10  13 205.612 198.316   2
  -8  11  -5 385.339 121.611   3
   8  11   6 932.329 444.933   2
   8  11   7 990.072 463.216   2
   8  11   8 989.034 475.393   2
   8  11   9 542.243 372.257   2
   8  11  10 445.966 347.714   2
   8  11  11 422.204 350.391   2
   8  11  12-34.3461 141.396   2
   8  11  13 11.5467 104.602   2
   8  12   7 1037.06 459.599   2
   8  12   8 1564.36 587.468   2
   8  12   9 1073.58 484.484   2
   8  12  10 714.192 419.797   2
   8  12  11 376.604 289.949   2
   8  12  12 542.854 373.253   2
   8  12  13-164.149 233.912   2
   8  13   9 1249.92 543.511   2
   8  13  10 830.415 437.974   2
   8  13  11 480.211 334.795   2
   8  13  12 276.893 269.272   2
   8  13  13 184.281 195.202   2
  -9 -37  -2 300.109 331.743   1
  -9 -36   0-10.1263 159.288   1
  -9 -36  -1 135.510 247.319   1
  -9 -36  -2 232.352 243.409   1
  -9 -35   1 186.489 275.113   1
  -9 -35   0-136.255 325.337   1
  -9 -35  -1-253.604 284.839   1
  -9 -35  -2 12.3051 158.651   1
  -9 -34   2-251.177 306.141   1
  -9 -34   1-22.6633 156.849   1
  -9 -34   0-3.96212 173.069   1
  -9 -34  -1 158.189 169.200   1
  -9 -34  -2-159.687 139.415   1
  -9 -33   3 354.196 423.477   1
  -9 -33   3-149.996 249.113   3
  -9 -33   2 158.592 430.091   1
  -9 -33   2-113.312 220.750   3
  -9 -33   1 86.6244 165.842   1
  -9 -33   0-165.117 204.674   1
  -9 -33  -1 270.823 298.773   1
  -9 -33  -2 336.783 375.686   1
  -9 -33  -3 142.405 308.576   1
  -9 -32   5-60.0309 205.446   3
  -9 -32   4-30.6941 220.517   1
  -9 -32   4-499.698 418.607   3
  -9 -32   3 201.361 344.715   1
  -9 -32   3 346.473 386.373   3
  -9 -32   2 534.702 453.875   1
  -9 -32   2-308.092 39.7108   3
  -9 -32   1 158.659 263.168   1
  -9 -32   1-250.830 308.685   3
  -9 -32   0 27.4059 304.155   1
  -9 -32   0 235.169 161.552   3
  -9 -32  -1 328.592 285.133   1
  -9 -32  -1 69.3088 174.022   3
  -9 -32  -2-146.431 206.373   1
  -9 -32  -3 148.343 169.076   1
  -9 -31   6 664.674 423.221   3
  -9 -31   5-96.7758 128.994   1
  -9 -31   5 626.146 448.476   3
  -9 -31   4 70.5444 178.581   1
  -9 -31   4 4.79246 176.582   3
  -9 -31   3 170.114 200.803   1
  -9 -31   3 567.930 400.978   3
  -9 -31   2 410.638 389.657   1
  -9 -31   2 367.261 374.874   3
  -9 -31   1 538.243 444.779   1
  -9 -31   1 10.0395 37.7952   3
  -9 -31   0 165.510 321.007   1
  -9 -31   0 174.966 301.305   3
  -9 -31  -1 51.3813 194.057   1
  -9 -31  -1 279.523 201.293   3
  -9 -31  -2-125.634 295.553   1
  -9 -31  -2-134.085 275.321   3
  -9 -31  -3 144.946 42.5681   1
  -9 -31  -3-133.695 150.079   3
  -9 -30   6 365.188 434.229   1
  -9 -30   5 89.1457 303.234   1
  -9 -30   5 259.415 382.378   3
  -9 -30   4-243.429 304.394   1
  -9 -30   4-243.025 311.430   3
  -9 -30   3 125.986 330.326   1
  -9 -30   3-10.1774 170.871   3
  -9 -30   2-3.48166 103.381   1
  -9 -30   2-87.9749 291.640   3
  -9 -30   1 101.958 310.741   1
  -9 -30   1 64.9559 188.221   3
  -9 -30   0 202.868 344.795   1
  -9 -30   0-315.756 334.142   3
  -9 -30  -1 1201.47 482.913   1
  -9 -30  -1 139.451 231.409   3
  -9 -30  -2-181.165 173.561   1
  -9 -30  -2-106.349 227.147   3
  -9 -30  -3 262.796 352.255   1
  -9 -30  -3 13.8883 227.217   3
  -9 -30  -4 38.0959 270.483   3
  -9 -29   6 146.432 316.670   1
  -9 -29   5-54.4296 245.314   1
  -9 -29   4-17.1588 246.065   1
  -9 -29   4-359.109 166.027   3
  -9 -29   3-33.9365 64.9711   1
  -9 -29   3 272.251 308.580   3
  -9 -29   2 119.332 65.7656   1
  -9 -29   2 157.190 261.270   3
  -9 -29   1 150.044 237.670   1
  -9 -29   1 220.663 271.906   3
  -9 -29   0 95.0437 106.076   1
  -9 -29   0 226.064 188.442   3
  -9 -29  -1-21.1155 194.408   1
  -9 -29  -1-308.673 345.995   3
  -9 -29  -2-22.9631 178.161   1
  -9 -29  -2 290.022 234.570   3
  -9 -29  -3 97.1505 205.775   1
  -9 -29  -3-254.189 305.714   3
  -9 -29  -4 84.5945 323.905   3
  -9 -29  -5 332.810 402.459   3
  -9 -28   7-151.756 211.798   1
  -9 -28   6 38.1528 78.0753   1
  -9 -28   5-179.966 286.745   1
  -9 -28   4 120.088 27.4342   1
  -9 -28   4 366.081 403.113   3
  -9 -28   3-304.283 369.267   1
  -9 -28   3 49.9355 45.3063   3
  -9 -28   2-3.90013 47.7616   1
  -9 -28   2-115.743 232.646   3
  -9 -28   1 374.840 275.274   1
  -9 -28   1 47.0305 120.815   3
  -9 -28   0 155.716 172.093   1
  -9 -28   0-381.528 354.614   3
  -9 -28  -1 411.391 357.073   1
  -9 -28  -1 225.960 205.330   3
  -9 -28  -2-43.6834 134.842   1
  -9 -28  -2 124.600 65.1935   3
  -9 -28  -3 97.4475 226.763   1
  -9 -28  -3 210.658 196.139   3
  -9 -28  -4 178.360 210.584   3
  -9 -28  -5-4.65880 73.0187   3
  -9 -28  -6 279.212 327.162   3
  -9 -27   7 52.5081 166.015   1
  -9 -27   6 504.694 356.311   1
  -9 -27   5-234.274 266.406   1
  -9 -27   4 106.923 130.797   1
  -9 -27   3 265.759 73.4766   1
  -9 -27   3 302.563 279.935   3
  -9 -27   2 353.635 321.063   1
  -9 -27   2-93.4685 250.333   3
  -9 -27   1 53.0639 201.835   1
  -9 -27   1 62.8460 169.635   3
  -9 -27   0 240.057 317.589   1
  -9 -27   0 272.849 323.724   3
  -9 -27  -1 27.3902 191.821   1
  -9 -27  -1 163.507 235.767   3
  -9 -27  -2 291.157 153.064   1
  -9 -27  -2 244.780 220.344   3
  -9 -27  -3-102.383 190.306   1
  -9 -27  -3 220.536 326.206   3
  -9 -27  -4 564.611 412.106   3
  -9 -27  -5-105.948 171.875   3
  -9 -27  -6-112.973 298.298   3
  -9 -26   8-10.1732 134.398   1
  -9 -26   7-85.6270 194.992   1
  -9 -26   6 118.290 147.397   1
  -9 -26   5-116.216 322.561   1
  -9 -26   4 39.9194 102.430   1
  -9 -26   3-16.6446 173.312   1
  -9 -26   3 443.364 449.894   3
  -9 -26   2 184.946 200.114   1
  -9 -26   2 49.4397 293.647   3
  -9 -26   1-168.813 210.296   1
  -9 -26   1 59.1554 228.354   3
  -9 -26   0 261.824 263.271   1
  -9 -26   0 121.486 255.002   3
  -9 -26  -1 129.235 124.295   1
  -9 -26  -1 229.723 328.501   3
  -9 -26  -2 175.692 184.699   1
  -9 -26  -2-36.4229 208.032   3
  -9 -26  -3 43.1491 218.740   1
  -9 -26  -3 43.2726 33.2744   3
  -9 -26  -4-20.4406 177.428   3
  -9 -26  -5 462.984 325.886   3
  -9 -26  -6 32.4735 204.670   3
  -9 -26  -7-63.7864 251.886   3
  -9 -25   8 331.915 352.424   1
  -9 -25   7 232.876 294.720   1
  -9 -25   6-104.558 214.130   1
  -9 -25   5-9.27907 119.039   1
  -9 -25   4-28.6907 110.342   1
  -9 -25   3-17.7301 200.234   1
  -9 -25   2 118.757 85.4144   1
  -9 -25   2 109.118 114.454   3
  -9 -25   1 585.596 345.221   1
  -9 -25   1 401.124 324.011   3
  -9 -25   0 36.7422 66.4648   1
  -9 -25   0 213.378 296.143   3
  -9 -25  -1 98.6508 107.294   1
  -9 -25  -1-97.5495 135.135   3
  -9 -25  -2-26.6732 89.0676   1
  -9 -25  -2 117.548 171.104   3
  -9 -25  -3 7.81285 76.1971   1
  -9 -25  -3-291.302 267.028   3
  -9 -25  -4-14.6401 229.544   3
  -9 -25  -5-217.577 181.347   3
  -9 -25  -6 49.7131 296.184   3
  -9 -25  -7-0.97170 31.4919   3
  -9 -25  -8 160.850 230.593   3
  -9 -24   9-67.0152 144.700   1
  -9 -24   8 199.801 305.823   1
  -9 -24   7-83.6675 73.8445   1
  -9 -24   6 146.294 205.425   1
  -9 -24   5 117.770 224.934   1
  -9 -24   4 160.466 140.394   1
  -9 -24   3 81.0928 25.5680   1
  -9 -24   2 38.8932 129.504   1
  -9 -24   2-6.12182 33.8039   3
  -9 -24   1 252.126 124.327   1
  -9 -24   1 113.211 240.437   3
  -9 -24   0 59.2042 158.748   1
  -9 -24   0-68.7671 140.679   3
  -9 -24  -1 488.686 270.069   1
  -9 -24  -1-56.9662 203.999   3
  -9 -24  -2 119.621 200.889   1
  -9 -24  -2 183.108 258.145   3
  -9 -24  -3 167.670 229.595   1
  -9 -24  -3 246.498 270.113   3
  -9 -24  -4 360.249 303.409   1
  -9 -24  -4 261.376 217.316   3
  -9 -24  -5-197.443 200.585   3
  -9 -24  -6 253.239 203.300   3
  -9 -24  -7-48.3018 181.194   3
  -9 -24  -8 304.525 370.656   3
  -9 -23   9-357.799 227.846   1
  -9 -23   8 671.650 487.624   1
  -9 -23   7 368.031 346.912   1
  -9 -23   6 283.981 327.552   1
  -9 -23   5-142.227 64.0138   1
  -9 -23   4 128.158 153.358   1
  -9 -23   3 81.0691 111.881   1
  -9 -23   2-71.4735 214.346   1
  -9 -23   1 58.5103 116.382   1
  -9 -23   1 218.955 271.349   3
  -9 -23   0-12.1819 68.7468   1
  -9 -23   0 132.952 156.868   3
  -9 -23  -1 29.9834 92.1472   1
  -9 -23  -1 3.01591 146.851   3
  -9 -23  -2-193.563 96.7822   1
  -9 -23  -2-88.1323 199.994   3
  -9 -23  -3-37.9472 70.1299   1
  -9 -23  -3 129.926 188.980   3
  -9 -23  -4 199.371 211.479   1
  -9 -23  -4 238.486 255.494   3
  -9 -23  -5-55.4909 88.6856   3
  -9 -23  -6 136.540 114.768   3
  -9 -23  -7 290.812 282.563   3
  -9 -23  -8 68.4644 87.3834   3
  -9 -23  -9-287.796 251.201   3
  -9 -22   9 91.4538 80.3041   1
  -9 -22   8 51.3538 145.963   1
  -9 -22   7 388.160 332.045   1
  -9 -22   6-32.1262 106.234   1
  -9 -22   5-331.452 329.181   1
  -9 -22   4-20.2150 48.3430   1
  -9 -22   3 265.050 303.279   1
  -9 -22   2 236.164 264.116   1
  -9 -22   1 66.7046 122.216   1
  -9 -22   1 66.1926 126.314   3
  -9 -22   0 206.131 110.010   1
  -9 -22   0 278.391 225.709   3
  -9 -22  -1-39.3852 14.9941   1
  -9 -22  -1-200.439 201.145   3
  -9 -22  -2 313.256 261.401   1
  -9 -22  -2 245.551 265.094   3
  -9 -22  -3-34.4997 91.3955   1
  -9 -22  -3 86.9067 106.275   3
  -9 -22  -4 69.6324 88.7886   1
  -9 -22  -4 172.981 209.808   3
  -9 -22  -5 167.279 243.582   3
  -9 -22  -6 84.6419 260.164   3
  -9 -22  -7-13.4814 110.838   3
  -9 -22  -8 608.537 380.292   3
  -9 -22  -9 213.051 333.623   3
  -9 -22 -10 131.159 251.177   3
  -9 -21  10 212.488 176.441   1
  -9 -21   9-43.6722 135.106   1
  -9 -21   8-162.048 132.139   1
  -9 -21   7 188.321 350.936   1
  -9 -21   6 68.6354 226.198   1
  -9 -21   5 156.283 214.370   1
  -9 -21   4 318.177 272.360   1
  -9 -21   3 322.194 295.511   1
  -9 -21   2 271.479 131.573   1
  -9 -21   1 96.8902 188.527   1
  -9 -21   0 97.1061 86.0141   1
  -9 -21   0-160.980 229.863   3
  -9 -21  -1-21.6401 106.301   1
  -9 -21  -1-83.6946 164.856   3
  -9 -21  -2 183.679 163.331   1
  -9 -21  -2 459.119 311.117   3
  -9 -21  -3 59.0018 86.4858   1
  -9 -21  -3 178.661 198.970   3
  -9 -21  -4 79.3781 31.3289   1
  -9 -21  -4 149.676 167.862   3
  -9 -21  -5-4.14334 161.718   3
  -9 -21  -6 355.643 273.077   3
  -9 -21  -7 161.699 186.099   3
  -9 -21  -8 60.9762 128.553   3
  -9 -21  -9-145.296 244.724   3
  -9 -21 -10-317.644 307.280   3
  -9 -20  10-314.074 273.939   1
  -9 -20   9 33.2553 119.345   1
  -9 -20   8-320.729 323.195   1
  -9 -20   7-63.5705 173.004   1
  -9 -20   6 171.056 191.524   1
  -9 -20   5 123.770 256.867   1
  -9 -20   4 162.142 203.955   1
  -9 -20   3 357.588 263.875   1
  -9 -20   2 62.7038 61.3477   1
  -9 -20   1-159.642 135.474   1
  -9 -20   0-87.3878 110.849   1
  -9 -20   0 550.822 357.520   3
  -9 -20  -1-62.3449 189.162   1
  -9 -20  -1 103.213 91.9374   3
  -9 -20  -2-40.0137 55.4569   1
  -9 -20  -2-139.753 196.159   3
  -9 -20  -3-48.8867 78.0458   1
  -9 -20  -3 198.787 239.729   3
  -9 -20  -4 278.260 236.263   1
  -9 -20  -4 576.388 361.658   3
  -9 -20  -5 17.2154 107.497   3
  -9 -20  -6 282.188 299.469   3
  -9 -20  -7-113.751 104.615   3
  -9 -20  -8-188.981 140.389   3
  -9 -20  -9 61.2289 194.211   3
  -9 -20 -10 40.2066 72.0214   3
  -9 -20 -11-121.226 114.453   3
  -9 -19  10-211.777 189.947   1
  -9 -19   9 459.742 309.317   1
  -9 -19   8 291.272 268.330   1
  -9 -19   7 290.815 202.744   1
  -9 -19   6 188.947 274.137   1
  -9 -19   5 182.069 169.983   1
   9 -19  -4-186.671 161.066   2
  -9 -19   4 341.838 245.753   1
  -9 -19   3 26.7130 88.0779   1
  -9 -19   2 173.364 136.232   1
  -9 -19   1 304.536 207.537   1
  -9 -19   0-111.486 105.859   1
  -9 -19   0 438.021 372.866   3
  -9 -19  -1-115.405 252.544   1
  -9 -19  -1-152.198 216.797   3
  -9 -19  -2 36.6321 40.9422   1
  -9 -19  -2 339.799 290.804   3
  -9 -19  -3-14.6224 86.0968   1
  -9 -19  -3 26.4776 197.708   3
  -9 -19  -4 67.6458 71.4662   1
  -9 -19  -4-235.965 220.444   3
  -9 -19  -5 33.0556 69.0647   3
  -9 -19  -6 60.8071 212.405   3
  -9 -19  -7 135.308 151.963   3
  -9 -19  -8 407.945 261.306   3
  -9 -19  -9 113.237 275.546   3
  -9 -19 -10 177.259 234.722   3
  -9 -19 -11 133.430 125.407   3
  -9 -18  11 14.2518 188.684   1
  -9 -18  10-133.085 86.1589   1
  -9 -18   9-26.8870 217.254   1
  -9 -18   8 344.994 290.415   1
  -9 -18   7-168.836 125.280   1
  -9 -18   6-204.811 259.427   1
  -9 -18   5 339.026 331.934   1
   9 -18  -4-267.308 197.241   2
  -9 -18   4 39.1667 62.6849   1
  -9 -18   3 127.625 183.590   1
  -9 -18   2-111.474 59.2536   1
  -9 -18   1 90.4059 91.6517   1
  -9 -18   0 121.902 138.527   1
  -9 -18  -1-196.103 193.476   1
  -9 -18  -1 138.013 211.395   3
  -9 -18  -2 153.785 101.584   1
  -9 -18  -2 224.625 265.383   3
  -9 -18  -3 645.990 278.578   1
  -9 -18  -3 903.809 457.928   3
  -9 -18  -4 126.012 132.860   1
  -9 -18  -4 107.847 152.510   3
  -9 -18  -5 517.015 348.050   3
  -9 -18  -6 236.792 244.929   3
  -9 -18  -7-114.633 170.961   3
  -9 -18  -8-23.5395 103.654   3
  -9 -18  -9 167.139 292.792   3
  -9 -18 -10 88.3158 200.423   3
  -9 -18 -11-148.529 140.768   3
  -9 -18 -12 503.192 465.457   3
  -9 -17  11-221.370 339.187   1
  -9 -17  10-85.4443 202.234   1
  -9 -17   9-9.08109 14.7610   1
  -9 -17   8 174.637 288.387   1
  -9 -17   7 251.976 229.921   1
  -9 -17   6 532.198 280.763   1
  -9 -17   5 62.2716 196.350   1
   9 -17  -4-361.753 207.661   2
  -9 -17   4 60.6303 122.959   1
  -9 -17   3 158.661 181.091   1
  -9 -17   2 284.695 262.508   1
  -9 -17   1 182.920 180.047   1
  -9 -17   0 101.863 127.396   1
  -9 -17  -1 276.772 281.256   3
  -9 -17  -1-7.75534 68.8168   1
  -9 -17  -2 278.034 247.750   1
  -9 -17  -2 41.9352 193.495   3
  -9 -17  -3 186.615 176.929   1
  -9 -17  -3 272.413 271.059   3
  -9 -17  -4 86.6334 109.631   3
  -9 -17  -4 291.262 164.889   1
  -9 -17  -5 265.966 220.660   3
  -9 -17  -6-82.3277 53.1377   3
  -9 -17  -7-77.9170 189.402   3
  -9 -17  -8-323.292 273.313   3
  -9 -17  -9 145.398 248.164   3
  -9 -17 -10 361.276 396.843   3
  -9 -17 -11 243.004 207.626   3
  -9 -17 -12 105.090 319.229   3
  -9 -16  11-171.675 221.902   1
  -9 -16  10-61.7513 224.138   1
  -9 -16   9 278.580 263.789   1
  -9 -16   8 432.525 304.173   1
  -9 -16   7 348.831 254.255   1
  -9 -16   6 142.447 234.074   1
  -9 -16   5 285.577 339.166   1
   9 -16  -4-287.559 206.705   2
  -9 -16   4 174.065 173.585   1
   9 -16  -3-57.9872 152.741   2
  -9 -16   3-194.491 206.886   1
  -9 -16   2 229.547 247.074   1
  -9 -16   1-173.698 214.606   1
  -9 -16   0 214.206 222.412   1
  -9 -16  -1 256.102 235.132   3
  -9 -16  -1 73.3134 109.905   1
  -9 -16  -2 1329.45 506.925   3
  -9 -16  -2 1344.63 403.491   1
  -9 -16  -3 466.401 297.403   3
  -9 -16  -3 307.224 199.672   1
  -9 -16  -4 233.244 172.336   1
  -9 -16  -4 327.914 277.710   3
  -9 -16  -5 95.2938 131.602   3
  -9 -16  -6-4.68164 115.124   3
  -9 -16  -7 32.5995 72.7593   3
  -9 -16  -8 68.5599 91.3312   3
  -9 -16  -9 164.413 256.161   3
  -9 -16 -10 39.7268 63.1421   3
  -9 -16 -11 308.299 225.221   3
  -9 -16 -12 979.117 443.075   3
  -9 -15  11 159.472 256.498   1
  -9 -15  10-63.1346 205.676   1
  -9 -15   9 23.0348 217.602   1
  -9 -15   8 196.247 237.493   1
  -9 -15   7-131.691 118.158   1
  -9 -15   6-8.05868 27.3575   1
   9 -15  -5 167.831 144.126   2
  -9 -15   5 274.705 259.628   1
   9 -15  -4-214.307 185.786   2
  -9 -15   4 113.124 163.698   1
   9 -15  -3-247.079 212.087   2
  -9 -15   3-120.476 143.047   1
  -9 -15   2 181.640 167.610   1
  -9 -15   1 135.709 145.551   1
  -9 -15   0 84.8409 147.844   1
  -9 -15  -1 144.607 171.208   1
  -9 -15  -2 88.0538 171.864   3
  -9 -15  -2 27.8112 132.588   1
  -9 -15  -3 232.172 180.858   1
  -9 -15  -3 182.325 206.088   3
  -9 -15  -4 177.535 148.552   1
  -9 -15  -4 115.802 171.617   3
  -9 -15  -5-168.063 75.0840   3
  -9 -15  -6-65.2049 130.084   3
  -9 -15  -7-26.2714 97.8805   3
  -9 -15  -8 141.525 93.6954   3
  -9 -15  -9 150.576 228.998   3
  -9 -15 -10-82.9593 71.7671   3
  -9 -15 -11 64.1157 240.438   3
  -9 -14  12 74.3647 243.320   1
  -9 -14  11-185.252 276.898   1
  -9 -14  10-29.8435 246.512   1
  -9 -14   9 248.356 220.349   1
  -9 -14   8 370.698 325.308   1
  -9 -14   7 372.167 316.825   1
  -9 -14   6-36.5378 137.765   1
  -9 -14   5-199.894 212.724   1
   9 -14  -5 150.957 168.278   2
   9 -14  -4 151.771 95.7960   2
  -9 -14   4 352.103 241.585   1
   9 -14  -3-305.034 236.255   2
  -9 -14   3-53.9904 33.8375   1
   9 -14  -2-203.787 231.205   2
  -9 -14   2-32.4309 91.8402   1
  -9 -14   1-89.2297 57.2824   1
  -9 -14   0 389.784 238.842   1
  -9 -14  -1 105.009 160.436   1
  -9 -14  -2 68.3484 83.5271   1
  -9 -14  -2 304.619 212.151   3
  -9 -14  -3 484.715 202.419   1
  -9 -14  -3 543.656 321.156   3
  -9 -14  -4-30.5589 58.3790   1
  -9 -14  -4 21.6209 131.831   3
  -9 -14  -5 103.238 140.303   3
  -9 -14  -6 62.7049 133.808   3
  -9 -14  -7 26.4610 25.1522   3
  -9 -14  -8 154.658 151.569   3
  -9 -14  -9 89.3354 185.974   3
  -9 -14 -10 788.632 457.819   3
  -9 -14 -11 260.366 243.361   3
  -9 -13  12 261.812 356.039   1
  -9 -13  11-88.7086 272.130   1
  -9 -13  10-116.729 217.059   1
  -9 -13   9-135.541 135.427   1
  -9 -13   8 290.082 342.661   1
  -9 -13   7 680.104 453.387   1
  -9 -13   6-185.003 306.703   1
  -9 -13   5 1.24027 93.1237   1
   9 -13  -4-70.8245 68.7653   2
  -9 -13   4 127.959 132.600   1
   9 -13  -3 268.888 92.6707   2
  -9 -13   3 493.923 295.352   1
   9 -13  -2-134.277 198.615   2
  -9 -13   2 131.518 157.627   1
  -9 -13   1 226.468 185.291   1
  -9 -13   0 147.433 194.255   1
  -9 -13  -1-93.3146 84.4139   1
  -9 -13  -2-55.1947 80.6899   1
  -9 -13  -2-66.2919 126.370   3
  -9 -13  -3 232.994 154.672   1
  -9 -13  -3 43.2321 159.429   3
  -9 -13  -4 10.7422 109.010   1
  -9 -13  -4 313.833 287.095   3
  -9 -13  -5 556.109 325.735   3
  -9 -13  -6-36.7562 126.931   3
  -9 -13  -7 157.441 220.095   3
  -9 -13  -8 37.4003 128.345   3
  -9 -13  -9-131.551 205.668   3
  -9 -13 -10 3.95714 129.097   3
  -9 -13 -11-18.4608 158.261   3
  -9 -12  12 387.354 437.460   1
  -9 -12  11 55.8895 207.100   1
  -9 -12  10 88.4311 226.088   1
  -9 -12   9 84.1452 61.7206   1
  -9 -12   8 315.386 320.878   1
  -9 -12   7 271.801 323.128   1
  -9 -12   6 143.613 235.165   1
  -9 -12   5 7.40434 130.264   1
   9 -12  -4 42.5507 24.4409   2
  -9 -12   4-207.105 193.875   1
   9 -12  -3-54.6658 79.2013   2
  -9 -12   3-57.4247 97.1799   1
   9 -12  -2-239.327 192.253   2
  -9 -12   2-67.1341 124.190   1
   9 -12  -1 44.9548 222.414   2
  -9 -12   1 276.590 172.069   1
  -9 -12   0 144.891 123.589   1
  -9 -12  -1 332.854 207.862   1
  -9 -12  -2-37.3994 75.3682   1
  -9 -12  -2-23.9293 100.899   3
  -9 -12  -3 255.540 148.239   1
  -9 -12  -3 356.343 229.454   3
  -9 -12  -4 460.898 194.780   1
  -9 -12  -4 588.933 347.098   3
  -9 -12  -5-2.28009 139.531   3
  -9 -12  -6 33.7591 105.639   3
  -9 -12  -7 111.911 196.661   3
  -9 -12  -8-41.6983 105.791   3
  -9 -12  -9 335.131 172.649   3
  -9 -12 -10-118.169 202.645   3
  -9 -12 -11-43.1898 44.5547   3
  -9 -11  12 170.768 257.070   1
  -9 -11  11 119.278 211.742   1
  -9 -11  10 722.035 418.504   1
  -9 -11   9-179.121 191.280   1
  -9 -11   8 447.870 420.680   1
  -9 -11   7 285.238 285.580   1
  -9 -11   6 1144.95 513.101   1
  -9 -11   5-179.046 183.818   1
  -9 -11   4-23.0814 108.958   1
   9 -11  -4 64.6215 150.331   2
   9 -11  -3-70.6938 149.376   2
  -9 -11   3-28.3165 125.353   1
   9 -11  -2 422.103 153.261   2
  -9 -11   2 752.467 318.474   1
   9 -11  -1-308.084 276.091   2
  -9 -11   1 53.1694 151.195   1
  -9 -11   0 316.551 138.824   1
  -9 -11  -1 403.756 207.953   1
  -9 -11  -2 318.816 193.489   1
  -9 -11  -2 85.2272 12.1487   3
  -9 -11  -3 35.3406 88.0840   1
  -9 -11  -3 127.677 171.074   3
  -9 -11  -4 30.3325 45.8154   1
  -9 -11  -4 174.203 148.622   3
  -9 -11  -5 278.472 243.115   3
  -9 -11  -6-5.58466 78.2512   3
  -9 -11  -7 92.3866 175.893   3
  -9 -11  -8 146.978 85.3740   3
  -9 -11  -9 184.801 199.027   3
  -9 -11 -10 17.5909 133.342   3
  -9 -11 -11-120.156 148.688   3
  -9 -10  12-59.7925 104.146   1
  -9 -10  11 523.953 429.849   1
  -9 -10  10 256.426 435.968   1
  -9 -10   9-140.361 227.369   1
  -9 -10   8-8.61577 29.2636   1
  -9 -10   7 181.141 226.391   1
  -9 -10   6 45.8701 270.606   1
  -9 -10   5 69.0558 147.804   1
  -9 -10   4 213.390 200.787   1
   9 -10  -4 431.250 226.383   2
  -9 -10   3-28.9162 105.620   1
   9 -10  -3-219.446 133.351   2
   9 -10  -2-25.4201 154.593   2
  -9 -10   2 107.135 161.769   1
   9 -10  -1-278.063 235.893   2
  -9 -10   1 82.3667 148.824   1
   9 -10   0 603.940 255.072   2
  -9 -10   0 540.465 243.121   1
  -9 -10  -1 45.1007 107.595   1
  -9 -10  -2 14.5103 53.2989   1
  -9 -10  -3 131.964 141.872   1
  -9 -10  -3 306.421 256.602   3
  -9 -10  -4 72.6075 47.0527   1
  -9 -10  -4 61.0369 94.5378   3
  -9 -10  -5 819.645 388.029   3
  -9 -10  -6 24.9145 72.2997   3
  -9 -10  -7 93.3176 159.955   3
  -9 -10  -8-5.54379 116.093   3
  -9 -10  -9 289.064 275.717   3
  -9 -10 -10 415.903 307.702   3
  -9  -9  12 257.001 300.019   1
  -9  -9  11 235.557 238.674   1
  -9  -9  10 130.638 206.148   1
  -9  -9   9-161.605 76.6519   1
  -9  -9   8-200.475 216.129   1
  -9  -9   7 209.135 224.484   1
  -9  -9   6 60.7625 93.7212   1
  -9  -9   5 203.750 179.301   1
  -9  -9   4 169.108 201.757   1
   9  -9  -4 300.587 222.708   2
  -9  -9   3 258.665 137.854   1
   9  -9  -3 133.723 113.934   2
  -9  -9   2-9.54690 99.5551   1
   9  -9  -2-273.916 168.490   2
   9  -9  -1 489.043 52.1288   2
  -9  -9   1 861.169 304.821   1
   9  -9   0-78.3053 114.998   2
  -9  -9   0 127.766 172.226   1
   9  -9   1 258.343 108.024   2
  -9  -9  -1 339.527 186.081   1
  -9  -9  -2-7.97584 55.7934   1
  -9  -9  -3 409.641 156.169   1
  -9  -9  -3 583.018 298.833   3
  -9  -9  -4 191.365 122.641   1
  -9  -9  -4 172.486 174.412   3
  -9  -9  -5 128.232 214.017   3
  -9  -9  -6 23.4283 138.867   3
  -9  -9  -7 121.638 195.957   3
  -9  -9  -8 118.050 125.010   3
  -9  -9  -9 186.949 196.785   3
  -9  -9 -10 240.990 188.565   3
  -9  -8  12 332.963 372.101   1
  -9  -8  11-17.6194 203.595   1
  -9  -8  10-43.8959 65.5032   1
  -9  -8   9 201.969 221.213   1
  -9  -8   8 190.120 112.987   1
  -9  -8   7 82.1209 86.2712   1
  -9  -8   6 45.4254 119.541   1
  -9  -8   5 25.4970 112.197   1
  -9  -8   4 475.893 246.429   1
  -9  -8   3 192.717 139.681   1
   9  -8  -3 386.119 193.879   2
  -9  -8   2-50.9228 135.358   1
   9  -8  -2-2.98988 33.3434   2
  -9  -8   1 114.880 130.507   1
   9  -8  -1-54.5969 167.677   2
  -9  -8   0 300.837 184.185   1
   9  -8   0 53.5139 107.381   2
  -9  -8  -1 94.7348 126.112   1
   9  -8   1-180.096 136.541   2
  -9  -8  -2 96.1191 95.2073   1
  -9  -8  -3 167.321 115.019   1
  -9  -8  -3 123.190 130.604   3
  -9  -8  -4 328.556 134.515   1
  -9  -8  -4 332.530 235.676   3
  -9  -8  -5 0.21313 30.8203   3
  -9  -8  -6 279.509 195.163   3
  -9  -8  -7 437.371 298.501   3
  -9  -8  -8 61.0831 23.5600   3
  -9  -8  -9 129.652 149.781   3
  -9  -8 -10 57.6671 144.913   3
  -9  -7  13 174.287 160.168   1
  -9  -7  12 48.0438 283.517   1
  -9  -7  11 179.279 281.078   1
  -9  -7  10 165.157 112.488   1
  -9  -7   9 28.5420 188.590   1
  -9  -7   8-47.0954 188.917   1
  -9  -7   7 451.151 294.078   1
  -9  -7   6-102.220 144.749   1
  -9  -7   5 133.131 171.313   1
  -9  -7   4-98.2472 87.8570   1
  -9  -7   3 138.174 76.7715   1
   9  -7  -3 45.2074 126.749   2
  -9  -7   2 85.8618 82.2549   1
   9  -7  -2 48.1095 39.8525   2
  -9  -7   1-55.3788 134.682   1
   9  -7  -1-95.8874 149.679   2
  -9  -7   0 16.4500 5.33924   1
   9  -7   0-179.332 201.161   2
  -9  -7  -1-33.6836 65.1945   1
   9  -7   1-35.6290 154.836   2
  -9  -7  -2 3.56851 47.4331   1
   9  -7   2-333.726 251.903   2
  -9  -7  -3 105.951 56.7557   1
  -9  -7  -3 313.757 215.050   3
  -9  -7  -4-90.8744 112.729   3
  -9  -7  -4 31.8695 72.2158   1
  -9  -7  -5-104.277 175.389   3
  -9  -7  -6 120.889 175.671   3
  -9  -7  -7 30.6938 87.7775   3
  -9  -7  -8 288.491 241.275   3
  -9  -7  -9 66.3296 167.416   3
  -9  -7 -10-107.700 130.070   3
  -9  -6  13 279.369 240.373   1
  -9  -6  12-90.3465 206.961   1
  -9  -6  11 236.258 290.464   1
  -9  -6  10 224.699 339.676   1
  -9  -6   9 5.67961 155.205   1
  -9  -6   8-299.681 140.184   1
  -9  -6   7 92.5827 198.264   1
  -9  -6   6 22.2095 48.0183   1
  -9  -6   5 164.260 190.495   1
  -9  -6   4-77.8343 122.022   1
  -9  -6   3 256.891 216.494   1
   9  -6  -3 577.843 255.462   2
  -9  -6   2 85.0665 101.123   1
   9  -6  -2 263.808 205.107   2
  -9  -6   1 42.4102 73.9901   1
   9  -6  -1-26.1960 76.1332   2
  -9  -6   0-17.2327 106.251   1
   9  -6   0-225.595 179.976   2
  -9  -6  -1 65.0516 56.8302   1
   9  -6   1-162.549 199.021   2
  -9  -6  -2 68.1617 89.6623   1
   9  -6   2-211.234 231.714   2
  -9  -6  -3 154.013 81.0041   1
  -9  -6  -3 19.6282 43.7356   3
   9  -6   4-154.960 205.634   2
  -9  -6  -4-58.1659 61.2209   3
  -9  -6  -4 22.7110 32.0370   1
  -9  -6  -5 335.659 190.806   3
  -9  -6  -6-30.2185 67.8984   3
  -9  -6  -7 99.6978 93.3599   3
  -9  -6  -8 218.008 219.743   3
  -9  -6  -9 205.057 200.499   3
  -9  -5  13-196.139 157.017   1
  -9  -5  12 101.729 215.715   1
  -9  -5  11 132.184 297.572   1
  -9  -5  10 410.190 364.255   1
  -9  -5   9 497.637 334.831   1
  -9  -5   8 296.250 167.626   1
  -9  -5   7 60.6040 66.6014   1
  -9  -5   6 684.560 378.058   1
  -9  -5   5 178.900 178.378   1
  -9  -5   4 42.8918 167.752   1
  -9  -5   3 434.094 274.498   1
   9  -5  -3 350.724 231.478   2
  -9  -5   2 1131.25 381.853   1
   9  -5  -2 1511.68 382.764   2
  -9  -5   1 189.708 152.415   1
   9  -5  -1-44.9317 74.9361   2
  -9  -5   0 197.930 162.102   1
   9  -5   0 41.1060 136.116   2
  -9  -5  -1-39.3967 61.0869   1
   9  -5   1-112.734 167.259   2
  -9  -5  -2 264.211 138.283   1
   9  -5   2 77.5797 141.378   2
   9  -5   3-211.439 236.575   2
  -9  -5  -3 17.9617 68.2692   1
   9  -5   4 40.2696 84.8364   2
  -9  -5  -4 63.2791 55.8364   1
  -9  -5  -4 105.588 171.194   3
   9  -5   5-263.850 261.862   2
  -9  -5  -5 36.3364 110.256   3
   9  -5   6-280.510 241.036   2
  -9  -5  -6-82.8046 133.335   3
  -9  -5  -7 21.3121 43.5159   3
  -9  -5  -8 45.0727 47.7626   3
  -9  -5  -9 235.835 208.210   3
   9  -5   9-410.539 377.292   2
   9  -5  10-369.558 347.764   2
   9  -5  11-670.272 487.291   2
  -9  -4  13 70.3264 255.340   1
  -9  -4  12 83.9794 120.877   1
  -9  -4  11 260.322 345.643   1
  -9  -4  10 384.789 352.255   1
  -9  -4   9 376.310 346.203   1
  -9  -4   8 158.775 194.999   1
  -9  -4   7-52.6128 50.1893   1
  -9  -4   6 55.4272 174.630   1
  -9  -4   5 128.736 192.768   1
  -9  -4   4 269.685 193.398   1
  -9  -4   3 73.6230 148.138   1
  -9  -4   2-57.1105 54.5656   1
   9  -4  -2 107.272 224.904   2
  -9  -4   1 488.276 224.089   1
   9  -4  -1 414.219 227.057   2
  -9  -4   0 136.473 113.731   1
   9  -4   0-50.7726 90.4398   2
  -9  -4  -1 112.789 136.368   1
   9  -4   1-127.036 163.431   2
   9  -4   2-271.598 283.338   2
  -9  -4  -2-60.9287 65.3149   1
   9  -4   3 71.1304 79.4561   1
  -9  -4  -3 117.473 106.877   1
   9  -4   4 68.2378 93.2556   2
  -9  -4  -4 217.998 175.068   3
   9  -4   5-223.535 262.207   2
  -9  -4  -5-24.3441 90.8240   3
   9  -4   6-195.393 202.227   2
  -9  -4  -6 125.524 148.641   3
  -9  -4  -7 78.6045 142.651   3
   9  -4   7-277.163 255.270   2
  -9  -4  -8-19.2782 80.8977   3
   9  -4   8-309.591 348.448   2
  -9  -4  -9 263.664 169.938   3
   9  -4   9-535.806 438.697   2
   9  -4  10-665.770 448.151   2
   9  -4  11-423.216 403.537   2
  -9  -3  13-119.532 169.512   1
  -9  -3  12-133.562 90.8553   1
  -9  -3  11 184.752 300.714   1
  -9  -3  10 62.9554 259.926   1
  -9  -3   9-56.8228 153.423   1
  -9  -3   8 16.8330 214.274   1
  -9  -3   7 306.466 274.976   1
  -9  -3   6 150.653 173.948   1
  -9  -3   5 320.265 258.022   1
  -9  -3   4-72.5555 146.662   1
  -9  -3   3 150.760 145.419   1
  -9  -3   2-82.3715 138.441   1
   9  -3  -2 346.969 256.882   2
  -9  -3   1 698.669 267.939   1
   9  -3  -1 887.254 306.798   2
  -9  -3   0-63.7304 88.8063   1
   9  -3   0 96.3661 135.533   2
  -9  -3  -1 75.3283 65.3118   1
   9  -3   1 30.6873 73.1179   2
   9  -3   2-220.261 263.517   2
   9  -3   2 124.216 57.0234   1
  -9  -3  -2 87.9061 106.265   1
   9  -3   3 98.2026 152.767   2
  -9  -3  -3 249.815 141.085   1
   9  -3   3 165.307 138.424   1
   9  -3   4-203.382 207.189   2
  -9  -3  -4-10.4471 113.509   3
   9  -3   5-6.59880 93.1530   2
  -9  -3  -5 114.303 145.563   3
   9  -3   6-16.1400 115.862   2
  -9  -3  -6-18.9850 38.3392   3
  -9  -3  -7 11.8043 110.471   3
   9  -3   7-188.616 214.986   2
  -9  -3  -8-214.367 182.614   3
   9  -3   8 31.8324 116.107   2
  -9  -3  -9 48.4454 23.4104   3
   9  -3   9-515.105 417.783   2
   9  -3  10-217.989 316.043   2
   9  -3  11-667.199 477.278   2
  -9  -2  13 96.0422 68.1992   1
  -9  -2  12 446.768 390.548   1
  -9  -2  11 186.171 298.909   1
  -9  -2  10 28.2706 196.972   1
  -9  -2   9-66.1703 232.302   1
  -9  -2   8 312.381 269.606   1
  -9  -2   7 193.883 166.781   1
  -9  -2   6 88.2496 66.5490   1
  -9  -2   5-154.325 42.5303   1
  -9  -2   4 19.1463 69.1886   1
  -9  -2   3 171.832 144.317   1
  -9  -2   2 318.914 199.912   1
   9  -2  -2 1031.97 376.576   2
  -9  -2   1-166.257 148.669   1
   9  -2  -1 127.748 172.777   2
  -9  -2   0 577.417 258.866   1
   9  -2   0 400.506 220.406   2
   9  -2   1 30.3067 78.1286   2
  -9  -2  -1 35.9669 29.3225   1
   9  -2   2-203.843 235.698   2
  -9  -2  -2-23.4511 12.6339   1
   9  -2   2-3.36589 65.8827   1
   9  -2   3 218.332 96.9305   1
   9  -2   3-241.858 252.124   2
   9  -2   4-190.668 255.819   2
  -9  -2  -4 133.875 137.914   3
   9  -2   5-302.133 251.561   2
  -9  -2  -5 56.7612 21.8490   3
   9  -2   6-396.166 321.863   2
  -9  -2  -6 51.1984 109.308   3
  -9  -2  -7 30.0397 56.8853   3
   9  -2   7-223.886 284.494   2
  -9  -2  -8 21.4429 90.0467   3
   9  -2   8-180.685 267.064   2
   9  -2   9-562.386 431.527   2
   9  -2  10-115.310 301.778   2
  -9  -1  13-64.7061 79.0600   1
  -9  -1  12 192.736 180.464   1
  -9  -1  11 232.757 297.875   1
  -9  -1  10-129.422 55.9957   1
  -9  -1   9-117.990 193.562   1
  -9  -1   8-91.9330 142.349   1
  -9  -1   7-112.717 25.0996   1
  -9  -1   6 468.667 228.819   1
  -9  -1   5 198.830 112.474   1
  -9  -1   4 11.0404 136.174   1
  -9  -1   3 23.2548 111.384   1
  -9  -1   2 180.906 124.274   1
   9  -1  -1 585.799 295.698   2
  -9  -1   1-16.7168 112.104   1
   9  -1   0 275.116 213.925   2
  -9  -1   0-21.6466 112.302   1
   9  -1   1-117.704 137.820   2
  -9  -1  -1-190.726 127.647   1
   9  -1   2-95.7262 34.1656   1
   9  -1   2-51.1231 167.613   2
  -9  -1  -2 64.8825 79.8334   1
   9  -1   3-64.1487 56.9956   1
   9  -1   3-485.539 319.570   2
   9  -1   4-357.656 275.924   2
  -9  -1  -4 239.546 188.603   3
   9  -1   5-88.1552 172.720   2
  -9  -1  -5 98.6980 185.731   3
   9  -1   6-433.408 320.415   2
  -9  -1  -6-38.8469 82.6640   3
  -9  -1  -7 108.875 53.0880   3
   9  -1   7-262.179 288.316   2
  -9  -1  -8 90.7056 58.0283   3
   9  -1   8-539.239 375.055   2
   9  -1   9-661.281 455.230   2
   9  -1  10-524.663 369.444   2
   9  -1  11-827.873 587.778   2
   9  -1  12-450.573 438.116   2
  -9   0  13 23.9614 75.3216   1
  -9   0  12-126.035 143.886   1
  -9   0  11 126.448 94.9520   1
  -9   0  10 261.350 217.059   1
  -9   0   9 7.10184 70.8158   1
  -9   0   8-11.8550 151.741   1
  -9   0   7 473.976 275.196   1
  -9   0   6-14.3873 106.266   1
  -9   0   5-75.6876 21.2273   1
  -9   0   4-50.5416 74.2789   1
  -9   0   3 65.1996 44.8286   1
  -9   0   2 98.1113 85.1933   1
   9   0  -1 562.411 277.056   2
  -9   0   1 186.469 116.232   1
   9   0   0 47.8876 98.3642   2
  -9   0   0 143.132 110.951   1
   9   0   1 257.722 166.964   2
  -9   0  -1 293.019 155.628   1
   9   0   2 457.209 180.349   1
   9   0   2 137.046 69.1116   2
   9   0   3-10.2408 46.0019   1
   9   0   3-253.738 232.850   2
   9   0   4-217.523 241.911   2
  -9   0  -4 318.729 195.483   3
   9   0   5 396.993 125.698   2
  -9   0  -5 887.005 318.958   3
   9   0   6-148.636 248.109   2
  -9   0  -6 42.8962 128.591   3
  -9   0  -7-112.175 117.605   3
   9   0   7-115.073 225.191   2
  -9   0  -8 16.8471 29.8736   3
   9   0   8-481.845 357.036   2
   9   0   9-486.358 414.124   2
   9   0  10-452.100 424.978   2
   9   0  11-894.631 530.977   2
   9   0  12-765.171 536.067   2
  -9   1  13 180.737 268.052   1
  -9   1  12 281.713 328.835   1
  -9   1  11 52.3526 208.794   1
  -9   1  10-134.965 131.095   1
  -9   1   9 102.100 164.023   1
  -9   1   8 45.6878 172.397   1
  -9   1   7 219.505 221.578   1
  -9   1   6 651.979 360.621   1
  -9   1   5 3.26698 155.764   1
  -9   1   4-107.325 173.568   1
  -9   1   3-101.116 171.905   1
  -9   1   2 128.945 161.277   1
   9   1  -1 570.175 278.145   2
  -9   1   1 29.0945 56.9069   1
   9   1   0 83.8648 153.937   2
  -9   1   0-15.5801 91.9285   1
   9   1   1 331.905 259.924   2
  -9   1  -1 8.62617 69.9803   1
   9   1   2 25.7170 71.8576   1
   9   1   2 7.93229 99.3485   2
   9   1   3-70.0753 151.779   2
   9   1   3 29.2119 48.9746   1
   9   1   4-14.9402 46.0553   2
  -9   1  -4 112.122 134.027   3
   9   1   5-163.318 198.346   2
  -9   1  -5 176.974 153.645   3
   9   1   6-284.560 257.204   2
  -9   1  -6 118.956 98.9380   3
  -9   1  -7 70.5850 91.5519   3
   9   1   7-153.529 214.166   2
   9   1   8-199.214 287.779   2
   9   1   9-413.950 363.114   2
   9   1  10-543.827 408.231   2
   9   1  11-775.878 466.661   2
   9   1  12-824.721 515.694   2
  -9   2  13 259.983 321.664   1
  -9   2  12 115.410 202.362   1
  -9   2  11 254.061 262.495   1
  -9   2  10-176.721 309.632   1
  -9   2   9 126.401 208.762   1
  -9   2   8 94.2787 126.121   1
  -9   2   7 261.158 201.613   1
  -9   2   6-121.096 110.240   1
  -9   2   5 116.403 163.599   1
  -9   2   4 76.2933 40.9452   1
  -9   2   3 15.5337 36.2263   1
  -9   2   2 377.263 177.263   1
  -9   2   1 75.0953 162.825   1
   9   2   0 720.161 328.884   2
  -9   2   0 369.005 168.428   1
   9   2   1 47.2055 114.438   2
   9   2   2-71.5187 70.3875   1
   9   2   2 124.389 169.689   2
   9   2   3 209.507 98.1482   1
   9   2   3 80.0872 39.5837   2
   9   2   4 155.045 138.914   2
  -9   2  -4 87.9104 115.835   3
   9   2   5-196.270 189.617   2
  -9   2  -5 95.6430 81.6235   3
   9   2   6-389.546 284.478   2
  -9   2  -6 81.0902 22.8796   3
  -9   2  -7 69.8626 87.2429   3
   9   2   7-260.183 264.764   2
   9   2   8-251.003 263.033   2
   9   2   9-396.224 321.327   2
   9   2  10-230.948 369.652   2
   9   2  11-353.459 404.347   2
   9   2  12-588.223 445.116   2
  -9   3  13 13.0529 319.577   1
  -9   3  12 138.059 226.221   1
  -9   3  11 200.246 87.8031   1
  -9   3  10-151.094 284.480   1
  -9   3   9 7.51057 138.754   1
  -9   3   8 51.8571 67.1143   1
  -9   3   7 627.435 308.406   1
  -9   3   6 26.6680 111.530   1
  -9   3   5 234.617 105.320   1
  -9   3   4-7.19213 91.9872   1
  -9   3   3 194.486 175.568   1
  -9   3   2 48.1086 18.4046   1
  -9   3   1 903.442 312.304   1
   9   3   0 285.641 277.424   2
   9   3   1 226.972 204.055   2
   9   3   2 233.504 179.919   2
   9   3   2 69.5483 119.480   1
   9   3   3 205.960 144.426   2
   9   3   4-51.5367 120.619   2
   9   3   5-178.836 205.021   2
  -9   3  -5 193.161 117.615   3
   9   3   6-17.7786 178.647   2
  -9   3  -6 48.9727 100.632   3
  -9   3  -7 127.595 117.972   3
   9   3   7-186.467 234.890   2
   9   3   8 80.8551 146.957   2
   9   3   9-241.117 310.001   2
   9   3  10-445.733 363.293   2
   9   3  11-270.365 253.820   2
   9   3  12-52.0033 176.396   2
  -9   4  13 348.962 286.972   1
  -9   4  12 20.1316 141.155   1
  -9   4  11-201.171 135.486   1
  -9   4  10-32.2737 221.061   1
  -9   4   9 87.3348 135.293   1
  -9   4   8-23.1681 173.643   1
  -9   4   7-105.001 205.159   1
  -9   4   6-49.0269 100.139   1
  -9   4   5-90.2101 117.730   1
  -9   4   4 159.220 163.746   1
  -9   4   3 137.374 183.199   1
  -9   4   2 160.318 193.833   1
   9   4   1 382.619 255.826   2
   9   4   2-12.1433 43.8319   1
   9   4   2 255.737 262.918   2
   9   4   3 91.7391 121.517   2
   9   4   4 97.0794 58.0066   2
   9   4   5-42.0382 57.6926   2
  -9   4  -5 97.8697 136.993   3
   9   4   6 21.1644 55.7039   2
  -9   4  -6 162.779 126.065   3
   9   4   7-251.680 262.554   2
   9   4   8-2.83050 139.121   2
   9   4   9 14.8157 114.995   2
   9   4  10-344.290 279.881   2
   9   4  11-58.8784 157.037   2
   9   4  12-1.00011 157.054   2
  -9   5  13-134.484 49.7801   1
  -9   5  12 59.6523 148.026   1
  -9   5  11 371.839 285.648   1
  -9   5  10 546.924 380.469   1
  -9   5   9 248.857 270.778   1
  -9   5   8 230.884 145.503   1
  -9   5   7-82.5496 144.328   1
  -9   5   6 761.595 348.253   1
  -9   5   5 40.7876 35.6073   1
  -9   5   4 87.2517 172.971   1
  -9   5   3 109.118 104.545   1
   9   5   1 331.330 293.493   2
   9   5   2 96.4180 78.3843   1
   9   5   2 452.705 289.893   2
   9   5   3 202.061 214.295   2
   9   5   4 30.1579 144.371   2
   9   5   5 203.373 218.253   2
  -9   5  -5-12.1008 75.3957   3
   9   5   6-35.3303 111.056   2
  -9   5  -6 0.82829 41.2968   3
   9   5   7 314.035 238.629   2
   9   5   8-245.570 231.630   2
   9   5   9-63.1812 96.3029   2
   9   5  10-274.490 264.260   2
   9   5  11-24.5780 193.201   2
   9   5  12-308.075 288.699   2
  -9   6  11-66.5879 181.100   1
  -9   6  10 228.292 305.630   1
  -9   6   9 88.1264 189.405   1
  -9   6   8-261.420 225.443   1
  -9   6   7 48.1417 166.568   1
  -9   6   6 12.6041 148.569   1
  -9   6   5 98.9100 163.193   1
  -9   6   4 131.014 189.354   1
   9   6   2 329.121 297.238   2
   9   6   3 258.765 239.804   2
   9   6   4 269.913 250.950   2
   9   6   5 746.095 353.189   2
  -9   6  -5 486.281 171.724   3
   9   6   6 158.017 198.492   2
  -9   6  -6-6.84630 57.3726   3
   9   6   7 161.268 210.290   2
   9   6   8 284.787 256.866   2
   9   6   9 93.7046 91.9335   2
   9   6  10 189.884 193.035   2
   9   6  11 221.651 196.954   2
   9   6  12 294.532 271.172   2
  -9   7   9 124.601 231.842   1
  -9   7   8 41.7535 79.5293   1
  -9   7   7 114.941 84.6084   1
   9   7   3 501.266 313.593   2
   9   7   4 450.301 327.346   2
   9   7   5 262.371 275.544   2
  -9   7  -5 184.247 142.341   3
   9   7   6 362.970 261.899   2
   9   7   7 539.956 340.366   2
   9   7   8 270.010 279.772   2
   9   7   9 223.687 214.195   2
   9   7  10 367.392 315.977   2
   9   7  11 198.654 215.209   2
   9   7  12 171.301 268.815   2
   9   8   3 579.481 347.443   2
   9   8   4 805.852 384.669   2
   9   8   5 197.488 255.329   2
  -9   8  -5 92.5001 89.5536   3
   9   8   6 849.163 404.655   2
   9   8   7 523.179 367.266   2
   9   8   8 429.098 340.523   2
   9   8   9 510.358 368.533   2
   9   8  10 479.846 343.934   2
   9   8  11 278.594 277.466   2
   9   8  12 414.948 352.112   2
   9   9   4 939.741 447.980   2
   9   9   5 527.952 333.909   2
  -9   9  -5 111.600 100.818   3
   9   9   6 376.634 322.136   2
   9   9   7 516.102 350.843   2
   9   9   8 401.257 364.776   2
   9   9   9 556.995 394.171   2
   9   9  10 515.753 370.336   2
   9   9  11 662.156 451.583   2
   9   9  12 496.321 400.064   2
   9  10   5 938.053 439.217   2
   9  10   6 866.816 435.904   2
   9  10   7 519.199 359.802   2
   9  10   8 951.155 480.371   2
   9  10   9 779.359 439.601   2
   9  10  10 313.909 333.822   2
   9  10  11 715.892 441.063   2
   9  10  12 724.170 450.110   2
   9  11   6 844.606 440.250   2
   9  11   7 846.917 448.121   2
   9  11   8 882.657 462.354   2
   9  11   9 1176.66 549.472   2
   9  11  10 861.137 486.230   2
   9  11  11 778.116 474.139   2
   9  12   8 941.781 498.367   2
   9  12   9 1797.81 692.959   2
   9  12  10 1374.01 591.489   2
   9  12  11 1535.07 653.912   2
 -10 -35   0 0.97943 142.958   1
 -10 -35  -1 38.1677 229.263   1
 -10 -34   1-85.3822 115.783   1
 -10 -34   0 146.955 145.851   1
 -10 -34  -1 111.219 234.698   1
 -10 -33   2 369.643 162.372   1
 -10 -33   1 81.7918 283.114   1
 -10 -33   0 151.757 143.365   1
 -10 -33  -1-120.181 331.780   1
 -10 -32   3 493.056 507.033   1
 -10 -32   2-2.35458 257.613   1
 -10 -32   1 264.985 304.112   1
 -10 -32   0 171.724 267.533   1
 -10 -32  -1 39.0068 122.336   1
 -10 -32  -2 1.62104 154.086   1
 -10 -31   4-65.1686 265.601   1
 -10 -31   3 245.082 296.136   1
 -10 -31   2-224.816 311.351   1
 -10 -31   1 369.325 374.969   1
 -10 -31   0 272.523 227.974   1
 -10 -31  -1 184.463 150.547   1
 -10 -31  -2 78.1649 200.436   1
 -10 -30   4 37.2214 130.503   1
 -10 -30   3 4.36550 149.764   1
 -10 -30   3-551.007 338.615   3
 -10 -30   2-92.4462 248.940   1
 -10 -30   2 218.504 243.794   3
 -10 -30   1 326.078 355.524   1
 -10 -30   1 334.030 421.863   3
 -10 -30   0 30.2609 207.933   1
 -10 -30   0-172.830 249.255   3
 -10 -30  -1 62.6319 112.765   1
 -10 -30  -2 124.198 167.163   1
 -10 -29   5-69.1303 130.952   1
 -10 -29   4 155.867 295.587   1
 -10 -29   4 206.950 216.009   3
 -10 -29   3-271.086 58.8653   1
 -10 -29   3-133.293 275.553   3
 -10 -29   2-258.125 229.330   1
 -10 -29   2-66.4914 199.408   3
 -10 -29   1 117.181 183.058   1
 -10 -29   1-9.79251 294.484   3
 -10 -29   0 127.156 149.007   1
 -10 -29   0 90.4719 202.493   3
 -10 -29  -1 61.5985 75.5387   1
 -10 -29  -1-97.7289 171.029   3
 -10 -29  -2-310.259 258.652   1
 -10 -29  -2 219.665 333.996   3
 -10 -28   5 315.781 304.483   1
 -10 -28   4 320.761 355.953   1
 -10 -28   3 106.134 349.650   1
 -10 -28   3 707.144 496.513   3
 -10 -28   2-173.948 204.092   1
 -10 -28   2 476.059 369.803   3
 -10 -28   1 86.2417 206.261   1
 -10 -28   1 63.5480 181.638   3
 -10 -28   0 206.671 253.197   1
 -10 -28   0 191.192 268.662   3
 -10 -28  -1-36.0202 183.013   1
 -10 -28  -1 119.988 288.628   3
 -10 -28  -2 1.70095 206.760   1
 -10 -28  -2 334.449 377.419   3
 -10 -28  -3 291.767 349.002   3
 -10 -27   6 231.007 282.696   1
 -10 -27   5 56.1814 264.373   1
 -10 -27   4-10.4170 224.433   1
 -10 -27   3 186.093 355.592   1
 -10 -27   3 464.966 448.735   3
 -10 -27   2-146.245 178.506   1
 -10 -27   2-128.968 159.509   3
 -10 -27   1 61.7811 160.870   1
 -10 -27   1-187.247 264.610   3
 -10 -27   0 113.690 273.241   1
 -10 -27   0 60.5354 313.860   3
 -10 -27  -1 236.380 202.650   1
 -10 -27  -1 195.021 165.846   3
 -10 -27  -2-6.53348 141.758   1
 -10 -27  -2 632.971 461.589   3
 -10 -27  -3-118.504 162.204   3
 -10 -27  -4-131.435 185.168   3
 -10 -26   7-390.788 309.502   1
 -10 -26   6 302.080 415.522   1
 -10 -26   5 169.663 254.666   1
 -10 -26   4 107.508 264.577   1
 -10 -26   3 264.833 218.176   1
 -10 -26   2-53.5581 61.9655   1
 -10 -26   2 196.964 229.001   3
 -10 -26   1 375.687 360.663   1
 -10 -26   1 134.847 146.160   3
 -10 -26   0-47.2139 139.012   1
 -10 -26   0 458.686 392.005   3
 -10 -26  -1-203.268 263.395   1
 -10 -26  -1 321.334 338.086   3
 -10 -26  -2 448.090 329.219   1
 -10 -26  -2 378.260 338.343   3
 -10 -26  -3 235.344 374.389   3
 -10 -26  -4 177.287 294.577   3
 -10 -26  -5 59.4248 249.710   3
 -10 -25   7-137.121 385.672   1
 -10 -25   6-135.158 155.608   1
 -10 -25   5 40.0951 250.572   1
 -10 -25   4 565.281 440.115   1
 -10 -25   3 152.470 107.976   1
 -10 -25   2 447.464 355.394   1
 -10 -25   2 423.978 428.101   3
 -10 -25   1 253.212 200.637   1
 -10 -25   1-35.6646 120.185   3
 -10 -25   0 331.211 308.187   1
 -10 -25   0 129.737 251.026   3
 -10 -25  -1 168.084 149.705   1
 -10 -25  -1 142.046 191.282   3
 -10 -25  -2 337.638 238.534   1
 -10 -25  -2 9.53335 146.059   3
 -10 -25  -3 200.040 106.609   3
 -10 -25  -4-138.397 223.906   3
 -10 -25  -5-0.24873 259.130   3
 -10 -25  -6 487.548 372.444   3
 -10 -24   7-622.610 412.333   1
 -10 -24   6 142.466 361.577   1
 -10 -24   5 126.159 176.352   1
 -10 -24   4 165.959 132.892   1
 -10 -24   3 61.8716 200.147   1
 -10 -24   2 277.702 213.024   1
 -10 -24   1 81.2397 71.7956   1
 -10 -24   1 274.681 287.199   3
 -10 -24   0 118.071 215.226   1
 -10 -24   0 340.419 354.388   3
 -10 -24  -1-230.794 305.576   1
 -10 -24  -1 249.778 161.137   3
 -10 -24  -2-15.9502 158.944   1
 -10 -24  -2 42.6611 131.730   3
 -10 -24  -3 45.0241 213.094   3
 -10 -24  -4 92.3204 236.710   3
 -10 -24  -5 24.0320 180.803   3
 -10 -24  -6-74.2322 257.406   3
 -10 -24  -7-87.0283 212.739   3
 -10 -23   8 553.216 278.428   1
 -10 -23   7-1.68542 47.3459   1
 -10 -23   6-122.008 237.407   1
 -10 -23   5 85.3551 252.782   1
 -10 -23   4 65.9992 281.703   1
 -10 -23   3-315.364 309.844   1
 -10 -23   2 26.9117 119.341   1
 -10 -23   1-122.690 180.742   1
 -10 -23   1 378.760 427.808   3
 -10 -23   0 115.219 182.446   1
 -10 -23   0 252.592 276.203   3
 -10 -23  -1-5.63187 165.936   1
 -10 -23  -1-6.87868 146.398   3
 -10 -23  -2 188.034 254.781   1
 -10 -23  -2-125.169 203.571   3
 -10 -23  -3-15.0773 139.296   1
 -10 -23  -3-10.7805 294.176   3
 -10 -23  -4-20.2406 80.3452   3
 -10 -23  -5 93.1730 94.4708   3
 -10 -23  -6 167.488 141.784   3
 -10 -23  -7-49.5677 53.8733   3
 -10 -23  -8 140.051 216.819   3
 -10 -22   8 199.042 45.9902   1
 -10 -22   7 318.455 407.186   1
 -10 -22   6 462.411 373.603   1
 -10 -22   5 435.436 268.782   1
 -10 -22   4-10.5283 3.99805   1
 -10 -22   3 82.9882 114.918   1
 -10 -22   2 282.259 292.883   1
 -10 -22   1 144.626 157.159   3
 -10 -22   1 195.952 118.780   1
 -10 -22   0 135.147 48.2536   1
 -10 -22   0 415.622 373.651   3
 -10 -22  -1 169.198 225.397   1
 -10 -22  -1-66.3846 69.8905   3
 -10 -22  -2 231.396 218.891   1
 -10 -22  -2-66.1367 248.409   3
 -10 -22  -3 9.39998 90.9545   1
 -10 -22  -3 307.071 359.053   3
 -10 -22  -4 658.713 364.843   3
 -10 -22  -5-144.710 168.810   3
 -10 -22  -6-159.830 186.500   3
 -10 -22  -7 212.066 195.704   3
 -10 -22  -8 137.534 148.812   3
 -10 -21   9 371.943 326.055   1
 -10 -21   8 16.1500 192.817   1
 -10 -21   7 186.415 350.351   1
 -10 -21   6 229.368 306.225   1
 -10 -21   5-158.391 202.411   1
 -10 -21   4-13.5482 98.4976   1
 -10 -21   3 686.610 396.387   1
 -10 -21   2 82.5246 279.313   1
 -10 -21   1-163.147 112.577   1
 -10 -21   0-125.184 116.507   3
 -10 -21   0 36.9465 180.160   1
 -10 -21  -1 310.953 333.053   3
 -10 -21  -1-83.5496 110.757   1
 -10 -21  -2-46.8262 181.881   3
 -10 -21  -2 135.911 162.621   1
 -10 -21  -3 126.058 282.071   3
 -10 -21  -3 119.704 205.975   1
 -10 -21  -4 160.136 249.554   3
 -10 -21  -5 46.8589 137.161   3
 -10 -21  -6 198.696 142.191   3
 -10 -21  -7 128.612 268.949   3
 -10 -21  -8-15.0453 224.306   3
 -10 -21  -9-263.182 273.756   3
 -10 -20   9 80.1024 269.280   1
 -10 -20   8 127.894 257.065   1
 -10 -20   7 35.6987 92.6673   1
 -10 -20   6 85.2894 147.381   1
 -10 -20   5 72.7644 200.584   1
 -10 -20   4 234.626 246.529   1
  10 -20  -3-94.5586 153.404   2
 -10 -20   3 130.155 243.074   1
 -10 -20   2 221.592 283.079   1
 -10 -20   1 358.544 260.261   1
 -10 -20   0 19.4238 71.4901   3
 -10 -20   0-63.4228 195.864   1
 -10 -20  -1 133.951 256.293   3
 -10 -20  -1 218.752 246.306   1
 -10 -20  -2-60.5757 237.226   3
 -10 -20  -2 212.754 251.765   1
 -10 -20  -3 159.846 131.352   3
 -10 -20  -3 665.437 329.500   1
 -10 -20  -4-308.180 237.668   3
 -10 -20  -5-149.866 171.476   3
 -10 -20  -6-80.3622 107.964   3
 -10 -20  -7 337.317 302.300   3
 -10 -20  -8 391.988 377.449   3
 -10 -20  -9 139.037 286.767   3
 -10 -20 -10 142.947 157.499   3
 -10 -19   9-166.778 156.488   1
 -10 -19   8 228.982 236.205   1
 -10 -19   7 52.8919 113.620   1
 -10 -19   6-378.775 319.572   1
 -10 -19   5-113.668 99.5097   1
 -10 -19   4 281.824 304.908   1
  10 -19  -3-183.125 195.674   2
 -10 -19   3 52.6771 149.959   1
 -10 -19   2 4.74721 191.991   1
 -10 -19   1 22.4785 148.710   1
 -10 -19   0 362.601 237.394   3
 -10 -19   0-26.4047 103.713   1
 -10 -19  -1 55.9595 148.400   3
 -10 -19  -1-5.95427 27.8484   1
 -10 -19  -2 157.308 162.466   3
 -10 -19  -2 352.004 322.916   1
 -10 -19  -3-179.476 179.371   3
 -10 -19  -3 141.824 231.316   1
 -10 -19  -4 94.5683 246.935   3
 -10 -19  -5-269.508 231.864   3
 -10 -19  -6 341.913 331.353   3
 -10 -19  -7 479.145 309.086   3
 -10 -19  -8 407.172 303.440   3
 -10 -19  -9 149.476 151.785   3
 -10 -19 -10 98.5316 135.827   3
 -10 -18  10 381.424 299.211   1
 -10 -18   9 154.188 62.9352   1
 -10 -18   8-21.2674 170.714   1
 -10 -18   7 179.428 261.027   1
 -10 -18   6-76.2561 101.102   1
 -10 -18   5 221.617 284.291   1
 -10 -18   4 95.3343 172.871   1
  10 -18  -3-106.823 260.869   2
 -10 -18   3-14.9803 195.121   1
 -10 -18   2-102.221 182.000   1
 -10 -18   1 404.600 178.083   1
 -10 -18   0 211.788 210.871   1
 -10 -18  -1 130.010 269.657   3
 -10 -18  -1 268.779 195.404   1
 -10 -18  -2 67.3161 142.560   3
 -10 -18  -2 123.146 131.991   1
 -10 -18  -3 219.820 127.911   1
 -10 -18  -3 49.5474 172.141   3
 -10 -18  -4 244.457 260.739   3
 -10 -18  -5 103.226 209.751   3
 -10 -18  -6-143.054 182.909   3
 -10 -18  -7 186.939 200.271   3
 -10 -18  -8 371.667 302.909   3
 -10 -18  -9 108.726 77.8065   3
 -10 -18 -10-138.134 174.120   3
 -10 -18 -11-377.939 327.011   3
 -10 -17  10-65.8918 206.279   1
 -10 -17   9-120.952 281.428   1
 -10 -17   8 111.357 177.299   1
 -10 -17   7 45.5630 68.2678   1
 -10 -17   6-74.7439 132.686   1
 -10 -17   5-65.4891 230.903   1
 -10 -17   4 189.168 121.748   1
  10 -17  -3-267.397 229.410   2
 -10 -17   3 63.8573 56.5764   1
  10 -17  -2-124.153 215.225   2
 -10 -17   2 134.064 209.188   1
 -10 -17   1 244.900 240.232   1
 -10 -17   0 47.8613 94.5933   1
 -10 -17  -1 19.0347 115.332   1
 -10 -17  -1-103.058 39.7824   3
 -10 -17  -2 174.963 197.080   1
 -10 -17  -2 257.987 178.334   3
 -10 -17  -3 88.3023 147.326   1
 -10 -17  -3-61.8235 163.224   3
 -10 -17  -4 162.134 192.974   3
 -10 -17  -5 300.833 338.200   3
 -10 -17  -6 49.7580 77.5991   3
 -10 -17  -7-20.3812 175.228   3
 -10 -17  -8-168.847 343.983   3
 -10 -17  -9 81.6975 180.792   3
 -10 -17 -10 79.7031 137.090   3
 -10 -17 -11-262.498 141.554   3
 -10 -16  10-187.223 98.4539   1
 -10 -16   9-105.864 189.811   1
 -10 -16   8 219.677 309.725   1
 -10 -16   7 209.803 186.240   1
 -10 -16   6 162.218 287.945   1
 -10 -16   5-51.1885 10.1492   1
  10 -16  -4 158.930 26.8023   2
 -10 -16   4-217.597 156.761   1
  10 -16  -3-168.924 211.292   2
 -10 -16   3 254.813 278.831   1
  10 -16  -2-23.8165 116.521   2
 -10 -16   2 405.250 220.595   1
 -10 -16   1 154.020 244.486   1
 -10 -16   0 637.765 306.933   1
 -10 -16  -1 58.4301 60.7966   1
 -10 -16  -1-133.938 90.4808   3
 -10 -16  -2 96.3427 114.498   1
 -10 -16  -2 326.340 316.190   3
 -10 -16  -3-110.353 183.443   1
 -10 -16  -3 164.447 180.901   3
 -10 -16  -4-133.839 145.721   3
 -10 -16  -5-164.035 265.428   3
 -10 -16  -6 60.8972 195.713   3
 -10 -16  -7 108.587 250.150   3
 -10 -16  -8 51.2325 27.6319   3
 -10 -16  -9-69.3830 138.523   3
 -10 -16 -10 196.278 251.964   3
 -10 -16 -11-19.6421 270.768   3
 -10 -15  10 386.106 247.685   1
 -10 -15   9 112.351 103.385   1
 -10 -15   8 32.4220 66.4194   1
 -10 -15   7 86.1434 245.078   1
 -10 -15   6-38.8122 224.903   1
 -10 -15   5-2.39104 91.4713   1
  10 -15  -4 36.5097 90.0957   2
 -10 -15   4 142.959 36.9080   1
  10 -15  -3-167.692 232.644   2
 -10 -15   3 105.114 270.237   1
  10 -15  -2-168.566 210.877   2
 -10 -15   2-15.1902 70.9341   1
  10 -15  -1-215.872 253.380   2
 -10 -15   1 27.2230 59.4563   1
 -10 -15   0 55.4937 92.0606   1
 -10 -15  -1 183.346 183.600   1
 -10 -15  -2-4.71691 79.7248   1
 -10 -15  -2 485.484 341.803   3
 -10 -15  -3-23.7063 86.7051   1
 -10 -15  -3-35.0959 69.3982   3
 -10 -15  -4 79.6267 151.969   3
 -10 -15  -5-75.1109 201.511   3
 -10 -15  -6 13.5705 177.979   3
 -10 -15  -7-84.3848 187.679   3
 -10 -15  -8-112.890 125.557   3
 -10 -15  -9-61.0765 145.479   3
 -10 -15 -10 204.084 246.562   3
 -10 -14  10-104.711 132.037   1
 -10 -14   9 111.024 318.669   1
 -10 -14   8 372.723 348.885   1
 -10 -14   7 98.9787 134.148   1
 -10 -14   6-197.957 150.005   1
 -10 -14   5-331.155 308.403   1
 -10 -14   4-162.179 137.629   1
  10 -14  -4 109.161 164.534   2
  10 -14  -3-140.460 202.418   2
 -10 -14   3-83.2777 108.066   1
  10 -14  -2-382.836 285.616   2
 -10 -14   2 15.4109 15.9134   1
  10 -14  -1 634.934 253.741   2
 -10 -14   1 681.952 285.587   1
 -10 -14   0 85.9510 47.5311   1
 -10 -14  -1 594.233 297.731   1
 -10 -14  -2 129.799 130.251   1
 -10 -14  -2 117.497 108.274   3
 -10 -14  -3 111.262 109.030   1
 -10 -14  -3 96.7994 153.364   3
 -10 -14  -4 105.607 98.5742   3
 -10 -14  -5 98.2449 100.387   3
 -10 -14  -6 59.2972 183.699   3
 -10 -14  -7-150.759 172.756   3
 -10 -14  -8-134.229 92.3652   3
 -10 -14  -9 211.161 124.940   3
 -10 -14 -10-87.8639 77.6434   3
 -10 -13  11-88.3563 198.670   1
 -10 -13  10-32.6622 137.349   1
 -10 -13   9 179.494 122.520   1
 -10 -13   8 441.552 429.978   1
 -10 -13   7 146.467 259.236   1
 -10 -13   6 396.360 257.013   1
 -10 -13   5 44.1833 46.1940   1
 -10 -13   4 652.205 345.254   1
  10 -13  -4 660.785 274.730   2
  10 -13  -3-130.768 200.052   2
 -10 -13   3 114.678 97.0679   1
  10 -13  -2 44.1688 209.198   2
 -10 -13   2 188.614 123.465   1
  10 -13  -1 1.22199 66.9780   2
 -10 -13   1-147.285 126.779   1
  10 -13   0 163.288 113.164   2
 -10 -13   0 73.8311 154.761   1
 -10 -13  -1 220.664 218.845   1
 -10 -13  -2 241.307 155.311   1
 -10 -13  -2 98.8815 198.866   3
 -10 -13  -3 101.176 78.4831   1
 -10 -13  -3 67.9479 44.5283   3
 -10 -13  -4 115.170 136.281   3
 -10 -13  -5 289.722 255.208   3
 -10 -13  -6 61.1379 25.4740   3
 -10 -13  -7 39.2162 155.884   3
 -10 -13  -8 183.816 143.224   3
 -10 -13  -9-142.409 183.686   3
 -10 -13 -10 31.4113 138.935   3
 -10 -12  11-17.5962 238.558   1
 -10 -12  10 119.592 236.588   1
 -10 -12   9-222.094 201.896   1
 -10 -12   8 62.1147 190.882   1
 -10 -12   7 349.226 318.497   1
 -10 -12   6-458.331 300.721   1
 -10 -12   5 35.6482 259.492   1
 -10 -12   4 212.721 303.230   1
  10 -12  -4 228.460 213.677   2
 -10 -12   3-4.03887 151.294   1
  10 -12  -3-48.9089 68.0182   2
  10 -12  -2-163.194 189.229   2
 -10 -12   2-36.9713 154.360   1
  10 -12  -1-106.796 177.819   2
 -10 -12   1 215.629 208.967   1
  10 -12   0 173.356 149.600   2
 -10 -12   0 263.350 188.440   1
 -10 -12  -1 37.8206 196.655   1
 -10 -12  -2 238.974 181.607   1
 -10 -12  -2 493.033 331.233   3
 -10 -12  -3 933.953 315.693   1
 -10 -12  -3 656.121 343.702   3
 -10 -12  -4 233.217 247.332   3
 -10 -12  -5-3.42133 195.639   3
 -10 -12  -6 94.4180 123.750   3
 -10 -12  -7-5.22289 146.267   3
 -10 -12  -8 77.3198 73.9851   3
 -10 -12  -9-75.5499 76.7469   3
 -10 -12 -10 263.357 204.137   3
 -10 -11  11 9.24502 185.840   1
 -10 -11  10 372.105 328.502   1
 -10 -11   9 253.546 282.131   1
 -10 -11   8-59.3934 111.271   1
 -10 -11   7 398.993 284.553   1
 -10 -11   6-15.9531 164.356   1
 -10 -11   5 130.833 143.594   1
 -10 -11   4 47.7723 154.969   1
  10 -11  -4 301.446 236.575   2
 -10 -11   3 707.150 368.387   1
  10 -11  -3 708.074 267.700   2
 -10 -11   2 98.5810 116.599   1
  10 -11  -2-70.0727 149.207   2
  10 -11  -1-157.330 248.435   2
 -10 -11   1 49.0996 114.137   1
  10 -11   0-177.491 230.958   2
 -10 -11   0 381.254 213.997   1
  10 -11   1 221.550 184.452   2
 -10 -11  -1 446.655 222.483   1
 -10 -11  -2 200.404 178.115   1
 -10 -11  -3 66.9179 133.773   1
 -10 -11  -3 10.0769 239.942   3
 -10 -11  -4 230.720 244.082   3
 -10 -11  -5 276.001 259.070   3
 -10 -11  -6 47.4977 98.2430   3
 -10 -11  -7-36.6712 31.6754   3
 -10 -11  -8 155.168 207.710   3
 -10 -11  -9 19.6995 67.4561   3
 -10 -11 -10 334.527 328.975   3
 -10 -10  11 126.636 61.8113   1
 -10 -10  10 165.672 257.106   1
 -10 -10   9 67.6400 292.354   1
 -10 -10   8 263.532 313.665   1
 -10 -10   7 36.3430 226.019   1
 -10 -10   6 732.946 423.075   1
 -10 -10   5 179.753 278.059   1
 -10 -10   4 173.404 153.495   1
  10 -10  -4 842.504 337.291   2
 -10 -10   3-66.5060 55.0295   1
  10 -10  -3 120.773 226.757   2
 -10 -10   2-71.6120 142.806   1
  10 -10  -2 3.36926 24.3842   2
 -10 -10   1-26.3005 132.126   1
  10 -10  -1-321.155 279.080   2
 -10 -10   0 500.794 281.334   1
  10 -10   0 101.515 138.280   2
 -10 -10  -1 189.985 189.911   1
  10 -10   1-368.462 281.393   2
 -10 -10  -2 1144.93 333.742   1
  10 -10   2 665.260 231.321   2
 -10 -10  -3 30.0668 79.4069   1
 -10 -10  -3 108.433 82.9432   3
 -10 -10  -4 770.101 359.261   3
 -10 -10  -5 167.054 84.6021   3
 -10 -10  -6 214.318 152.991   3
 -10 -10  -7-50.8000 19.4019   3
 -10 -10  -8 164.565 171.749   3
 -10 -10  -9-216.457 258.577   3
 -10  -9  11-8.32682 168.596   1
 -10  -9  10-153.710 203.321   1
 -10  -9   9 112.105 33.3482   1
 -10  -9   8 297.445 264.359   1
 -10  -9   7 334.669 275.662   1
 -10  -9   6 221.387 257.793   1
 -10  -9   5 167.122 212.821   1
 -10  -9   4-66.7088 43.6400   1
 -10  -9   3 138.914 55.4123   1
  10  -9  -3 159.765 212.984   2
 -10  -9   2 214.980 125.626   1
  10  -9  -2 109.077 35.3678   2
 -10  -9   1-2.58288 213.747   1
  10  -9  -1 28.5184 65.5843   2
 -10  -9   0 123.573 160.656   1
  10  -9   0-263.763 263.839   2
 -10  -9  -1 264.488 174.718   1
  10  -9   1-123.577 171.098   2
 -10  -9  -2 79.8414 117.920   1
  10  -9   2 78.1299 143.320   2
 -10  -9  -3-4.24145 75.5017   1
  10  -9   3-331.757 258.433   2
 -10  -9  -3 234.901 248.227   3
 -10  -9  -4 218.754 124.660   3
 -10  -9  -5 145.074 201.598   3
 -10  -9  -6 158.283 252.040   3
 -10  -9  -7 19.9127 113.702   3
 -10  -9  -8 61.0664 53.9274   3
 -10  -9  -9-28.4081 46.2903   3
 -10  -8  11-69.8187 189.508   1
 -10  -8  10 29.4682 83.4275   1
 -10  -8   9-109.339 124.260   1
 -10  -8   8 2.08820 82.3919   1
 -10  -8   7-37.7431 180.786   1
 -10  -8   6 9.48575 156.046   1
 -10  -8   5 459.014 320.512   1
 -10  -8   4 333.686 292.934   1
 -10  -8   3-135.352 123.258   1
  10  -8  -3 313.188 225.233   2
 -10  -8   2 75.2475 189.374   1
  10  -8  -2 54.4670 148.590   2
 -10  -8   1 419.236 234.993   1
  10  -8  -1 343.806 189.441   2
 -10  -8   0 24.1820 88.5675   1
  10  -8   0-185.035 238.431   2
 -10  -8  -1 43.4247 101.272   1
  10  -8   1-449.914 318.043   2
 -10  -8  -2-9.26791 43.3671   1
  10  -8   2-212.445 188.279   2
 -10  -8  -3 433.479 173.170   1
  10  -8   3 133.050 33.7013   2
 -10  -8  -3 477.054 278.732   3
  10  -8   4-127.784 250.396   2
 -10  -8  -4-18.6921 86.9831   3
 -10  -8  -5 462.864 282.919   3
 -10  -8  -6 143.030 118.854   3
 -10  -8  -7 67.4042 60.9640   3
 -10  -8  -8 214.367 190.561   3
 -10  -8  -9 161.711 277.401   3
 -10  -7  12 157.102 267.103   1
 -10  -7  11-122.044 218.004   1
 -10  -7  10-29.8234 305.020   1
 -10  -7   9 249.718 293.963   1
 -10  -7   8 66.5120 213.782   1
 -10  -7   7 322.206 305.630   1
 -10  -7   6 73.5077 152.467   1
 -10  -7   5 21.0616 169.394   1
 -10  -7   4 303.901 229.246   1
 -10  -7   3 225.980 237.386   1
  10  -7  -3 377.867 247.414   2
 -10  -7   2 464.186 250.749   1
  10  -7  -2 459.310 261.284   2
 -10  -7   1-239.094 173.085   1
  10  -7  -1-153.609 183.184   2
 -10  -7   0 144.486 125.465   1
  10  -7   0-368.094 250.743   2
 -10  -7  -1-24.0733 46.7152   1
  10  -7   1-167.192 190.856   2
 -10  -7  -2 30.7876 68.2829   1
  10  -7   2-498.362 324.455   2
 -10  -7  -3 118.384 129.113   1
  10  -7   3-29.9090 88.2075   2
 -10  -7  -3 171.590 201.263   3
  10  -7   4-105.219 171.769   2
 -10  -7  -4 22.6904 128.950   3
  10  -7   5-159.492 196.053   2
 -10  -7  -5 85.8800 111.435   3
  10  -7   6-214.010 276.084   2
 -10  -7  -6 11.0006 44.7901   3
  10  -7   7-260.493 222.062   2
 -10  -7  -7-45.1610 67.3598   3
 -10  -7  -8 228.613 150.053   3
  10  -7   8-601.200 453.020   2
 -10  -7  -9 369.499 280.722   3
  10  -7   9-677.351 489.375   2
  10  -7  10-56.0865 221.387   2
 -10  -6  12 495.285 469.885   1
 -10  -6  11 167.161 133.957   1
 -10  -6  10-78.6514 152.093   1
 -10  -6   9 152.193 304.215   1
 -10  -6   8 23.5331 125.468   1
 -10  -6   7-89.3314 116.151   1
 -10  -6   6 425.431 316.025   1
 -10  -6   5-59.1286 166.032   1
 -10  -6   4 501.116 301.467   1
 -10  -6   3 294.128 290.733   1
  10  -6  -3 707.460 343.872   2
 -10  -6   2 73.0447 185.251   1
  10  -6  -2 345.247 266.797   2
 -10  -6   1 353.133 182.568   1
  10  -6  -1 189.053 76.8120   2
 -10  -6   0 108.485 158.245   1
  10  -6   0 96.5527 63.4704   2
 -10  -6  -1 251.016 172.702   1
  10  -6   1-146.038 204.146   2
 -10  -6  -2 130.356 139.585   1
  10  -6   2-273.472 284.266   2
 -10  -6  -3 39.8120 128.107   3
 -10  -6  -3 24.1995 20.3131   1
  10  -6   4 286.432 123.505   2
 -10  -6  -4 260.769 184.195   3
  10  -6   5-42.9673 159.955   2
 -10  -6  -5 132.786 39.5878   3
  10  -6   6-38.2103 188.846   2
 -10  -6  -6 97.9010 169.925   3
  10  -6   7 170.381 119.720   2
 -10  -6  -7-76.0322 136.284   3
 -10  -6  -8 199.444 182.304   3
  10  -6   8-424.920 340.666   2
  10  -6   9-656.805 489.682   2
  10  -6  10-151.908 289.789   2
 -10  -5  12 201.536 319.617   1
 -10  -5  11 60.2990 224.971   1
 -10  -5  10 46.5934 261.412   1
 -10  -5   9 51.0584 60.4262   1
 -10  -5   8-226.170 219.875   1
 -10  -5   7 166.267 189.884   1
 -10  -5   6 180.388 260.798   1
 -10  -5   5 123.949 120.066   1
 -10  -5   4-40.8704 127.365   1
 -10  -5   3 438.520 260.334   1
 -10  -5   2 73.0415 139.725   1
  10  -5  -2 375.348 259.204   2
 -10  -5   1-10.7687 99.5032   1
  10  -5  -1 221.417 204.419   2
 -10  -5   0 289.228 213.774   1
  10  -5   0-56.6840 23.1301   2
 -10  -5  -1 329.485 191.808   1
  10  -5   1-122.891 167.972   2
  10  -5   2-260.215 241.855   2
 -10  -5  -2 6.65228 85.9562   1
  10  -5   3-349.028 322.124   2
 -10  -5  -3-7.60626 38.5789   1
  10  -5   4-300.328 238.716   2
 -10  -5  -4 107.868 161.883   3
  10  -5   5 255.607 194.580   2
 -10  -5  -5 283.875 218.867   3
  10  -5   6-118.117 247.664   2
 -10  -5  -6 238.910 194.469   3
  10  -5   7-198.309 215.135   2
 -10  -5  -7-66.6519 38.1746   3
 -10  -5  -8 136.387 156.547   3
  10  -5   8-309.097 288.366   2
  10  -5   9-528.952 388.631   2
  10  -5  10-514.430 465.457   2
 -10  -4  12 104.486 310.035   1
 -10  -4  11-207.792 54.9494   1
 -10  -4  10 193.149 111.107   1
 -10  -4   9-37.7972 180.889   1
 -10  -4   8 91.0726 270.848   1
 -10  -4   7 227.335 129.189   1
 -10  -4   6 56.2492 197.435   1
 -10  -4   5-62.7582 70.3656   1
 -10  -4   4 22.7324 57.9199   1
 -10  -4   3 65.7258 170.101   1
 -10  -4   2 601.096 295.035   1
  10  -4  -2 910.785 369.511   2
 -10  -4   1 3.27593 98.7173   1
  10  -4  -1 210.247 235.778   2
 -10  -4   0 459.262 210.106   1
  10  -4   0 223.350 164.574   2
  10  -4   1 53.6839 81.7668   2
 -10  -4  -1-59.2500 91.1594   1
  10  -4   2-158.473 232.372   2
 -10  -4  -2-22.6997 62.2584   1
 -10  -4  -3 111.457 94.5275   1
  10  -4   3-210.406 237.816   2
  10  -4   4 45.4903 140.434   2
 -10  -4  -4 162.560 130.432   3
  10  -4   5-523.214 361.965   2
 -10  -4  -5 257.629 209.380   3
  10  -4   6-273.365 258.975   2
 -10  -4  -6 65.3283 177.042   3
  10  -4   7-207.537 283.592   2
 -10  -4  -7 221.724 151.342   3
 -10  -4  -8 155.728 129.291   3
  10  -4   8-0.57492 243.693   2
  10  -4   9-569.531 435.455   2
  10  -4  10-696.766 497.903   2
 -10  -3  12 306.226 329.782   1
 -10  -3  11 393.576 354.156   1
 -10  -3  10-311.377 332.969   1
 -10  -3   9-68.7771 203.052   1
 -10  -3   8 253.323 245.985   1
 -10  -3   7-197.998 202.587   1
 -10  -3   6 72.1554 151.964   1
 -10  -3   5 119.474 132.169   1
 -10  -3   4-3.85774 165.593   1
 -10  -3   3 162.320 181.853   1
 -10  -3   2-54.1550 126.744   1
  10  -3  -2 580.300 329.872   2
 -10  -3   1 27.0556 57.5137   1
  10  -3  -1 345.675 259.063   2
  10  -3   0 33.5526 171.618   2
 -10  -3   0-23.3412 74.9931   1
  10  -3   1-60.7719 120.728   2
 -10  -3  -1-101.838 139.854   1
  10  -3   2 133.604 93.5492   2
 -10  -3  -2-8.74185 49.2731   1
  10  -3   3-89.8707 247.414   2
  10  -3   4-434.727 285.727   2
 -10  -3  -4 147.655 113.588   3
  10  -3   5-508.336 378.096   2
 -10  -3  -5-30.3398 121.788   3
  10  -3   6-139.626 219.709   2
 -10  -3  -6 193.406 210.558   3
  10  -3   7-513.421 358.457   2
 -10  -3  -7 70.9601 118.023   3
 -10  -3  -8-52.5385 121.452   3
  10  -3   8-807.195 438.463   2
  10  -3   9-486.362 413.856   2
  10  -3  10-513.491 469.276   2
 -10  -2  12 70.2904 180.115   1
 -10  -2  11 207.650 339.453   1
 -10  -2  10 12.7078 74.9931   1
 -10  -2   9 32.4085 134.447   1
 -10  -2   8-73.1822 180.885   1
 -10  -2   7-64.2850 92.5606   1
 -10  -2   6 117.055 157.976   1
 -10  -2   5-92.4762 202.678   1
 -10  -2   4-122.416 224.619   1
 -10  -2   3-51.8759 137.754   1
 -10  -2   2 16.7849 51.5699   1
  10  -2  -1 982.219 388.483   2
 -10  -2   1 365.774 223.348   1
  10  -2   0 371.712 238.764   2
 -10  -2   0 76.2416 87.9690   1
  10  -2   1-97.8903 137.936   2
 -10  -2  -1-5.75640 58.1285   1
  10  -2   2-173.787 233.950   2
 -10  -2  -2 84.7591 78.0104   1
  10  -2   3-175.187 136.277   2
  10  -2   4-141.706 201.828   2
 -10  -2  -4 113.521 179.651   3
  10  -2   5-119.802 173.293   2
 -10  -2  -5 213.593 161.709   3
  10  -2   6-445.502 342.769   2
 -10  -2  -6 41.2238 85.9010   3
  10  -2   7-484.704 362.235   2
 -10  -2  -7 271.759 195.062   3
  10  -2   8-384.565 351.840   2
  10  -2   9-329.516 347.992   2
  10  -2  10-710.160 476.479   2
 -10  -1  12-12.9039 107.866   1
 -10  -1  11-48.3851 102.700   1
 -10  -1  10 333.389 314.406   1
 -10  -1   9-102.895 151.084   1
 -10  -1   8 99.0896 123.418   1
 -10  -1   7 300.486 217.507   1
 -10  -1   6-229.120 211.853   1
 -10  -1   5-60.0427 128.934   1
 -10  -1   4 41.8934 118.446   1
 -10  -1   3-94.9483 192.535   1
 -10  -1   2 20.0148 107.103   1
  10  -1  -1 851.487 366.115   2
 -10  -1   1 112.948 72.2552   1
  10  -1   0 131.870 228.535   2
 -10  -1   0 46.6751 51.1251   1
  10  -1   1-144.112 128.537   2
 -10  -1  -1-9.07342 88.1967   1
  10  -1   2-66.3198 97.6445   2
  10  -1   3 170.816 132.417   2
  10  -1   4-267.876 237.288   2
 -10  -1  -4 11.6300 111.041   3
  10  -1   5-511.228 324.120   2
 -10  -1  -5-3.60534 110.540   3
  10  -1   6-137.841 229.079   2
 -10  -1  -6 244.840 232.600   3
  10  -1   7-761.642 444.305   2
 -10  -1  -7-56.6610 89.7573   3
  10  -1   8-307.256 330.741   2
  10  -1   9-134.876 260.773   2
  10  -1  10-365.796 391.528   2
 -10   0  12-89.2639 134.883   1
 -10   0  11 243.076 276.285   1
 -10   0  10 21.8902 170.562   1
 -10   0   9-66.7384 227.936   1
 -10   0   8-58.4098 200.420   1
 -10   0   7 47.9986 167.178   1
 -10   0   6 616.054 333.919   1
 -10   0   5-4.60331 104.241   1
 -10   0   4 76.0154 101.358   1
 -10   0   3 71.0670 54.3023   1
 -10   0   2 502.914 260.193   1
  10   0  -1 571.492 353.429   2
 -10   0   1-159.198 230.831   1
  10   0   0 733.278 327.757   2
 -10   0   0 458.676 217.945   1
  10   0   1 347.604 225.257   2
 -10   0  -1 196.081 163.955   1
  10   0   2-274.870 207.848   2
  10   0   3 11.1006 84.4539   2
  10   0   4 59.4696 79.0527   2
 -10   0  -4 252.133 189.692   3
  10   0   5 97.2394 155.395   2
 -10   0  -5 363.826 213.629   3
  10   0   6 31.5031 141.756   2
 -10   0  -6 68.5662 112.396   3
  10   0   7-408.554 339.556   2
 -10   0  -7 130.756 74.3021   3
  10   0   8-407.816 356.671   2
  10   0   9-90.6642 87.8370   2
  10   0  10-308.428 394.306   2
 -10   1  12 85.4465 275.239   1
 -10   1  11-47.8063 65.8353   1
 -10   1  10 64.2763 158.566   1
 -10   1   9 29.7126 153.171   1
 -10   1   8 332.197 266.277   1
 -10   1   7 603.194 306.837   1
 -10   1   6 388.966 301.451   1
 -10   1   5 37.5275 126.097   1
 -10   1   4 246.083 273.897   1
 -10   1   3-89.2150 162.383   1
 -10   1   2 122.094 114.895   1
 -10   1   1 41.4382 67.7251   1
  10   1   0 468.076 318.742   2
 -10   1   0-66.8597 130.069   1
  10   1   1 112.680 146.939   2
  10   1   2 15.6907 122.644   2
  10   1   3-54.6181 54.4305   2
  10   1   4 27.6838 52.5749   2
 -10   1  -4 207.422 138.773   3
  10   1   5-228.262 252.094   2
 -10   1  -5 20.3435 94.0966   3
  10   1   6-9.45521 35.3904   2
 -10   1  -6 72.7078 104.986   3
  10   1   7-4.51175 108.292   2
  10   1   8-259.055 219.433   2
  10   1   9-347.772 316.767   2
  10   1  10-472.356 379.466   2
 -10   2  12 38.8873 59.2575   1
 -10   2  11-80.4039 150.736   1
 -10   2  10 258.965 283.147   1
 -10   2   9-3.07446 175.417   1
 -10   2   8-36.8666 161.840   1
 -10   2   7-70.4653 148.041   1
 -10   2   6 154.000 268.773   1
 -10   2   5 15.0831 87.2267   1
 -10   2   4 283.657 261.373   1
 -10   2   3 69.8014 135.060   1
 -10   2   2-49.5720 173.707   1
 -10   2   1 659.216 289.812   1
  10   2   0 771.942 374.542   2
  10   2   1 216.672 211.385   2
  10   2   2 72.5009 175.219   2
  10   2   3 123.230 77.8213   2
  10   2   4-287.138 273.788   2
 -10   2  -4 81.7894 81.9641   3
  10   2   5-257.020 255.208   2
 -10   2  -5 257.335 215.204   3
  10   2   6-62.7887 154.976   2
 -10   2  -6 108.301 113.719   3
  10   2   7 96.8381 124.126   2
  10   2   8-18.9367 146.078   2
  10   2   9-151.711 273.160   2
  10   2  10-344.695 349.220   2
 -10   3  12 97.3576 198.092   1
 -10   3  11 164.491 306.492   1
 -10   3  10-130.139 36.1522   1
 -10   3   9 50.0705 37.5527   1
 -10   3   8 5.81607 164.126   1
 -10   3   7 278.469 197.817   1
 -10   3   6-46.2267 18.9340   1
 -10   3   5 69.0798 105.903   1
 -10   3   4 58.5073 154.884   1
 -10   3   3-49.6192 112.975   1
 -10   3   2-33.6206 161.513   1
 -10   3   1-30.3932 64.3154   1
  10   3   1 323.451 269.620   2
  10   3   2 265.694 269.195   2
  10   3   3 309.387 223.410   2
  10   3   4-210.043 203.396   2
  10   3   5-189.084 157.806   2
 -10   3  -5 62.5111 156.374   3
  10   3   6-145.064 182.315   2
 -10   3  -6 158.878 120.502   3
  10   3   7 146.493 147.386   2
  10   3   8 199.836 228.607   2
  10   3   9-146.833 239.914   2
  10   3  10-94.6303 232.823   2
 -10   4  12 53.3942 208.576   1
 -10   4  11 231.045 259.389   1
 -10   4  10 85.4465 79.2119   1
 -10   4   9 114.028 91.5513   1
 -10   4   8 152.454 204.610   1
 -10   4   7-85.3222 154.845   1
 -10   4   6-178.024 191.963   1
 -10   4   5 101.138 174.966   1
 -10   4   4-105.267 99.4255   1
 -10   4   3 180.311 155.752   1
 -10   4   2 519.319 237.288   1
  10   4   1 496.399 314.964   2
  10   4   2 629.351 329.493   2
  10   4   3 415.537 260.697   2
  10   4   4-12.6813 129.274   2
  10   4   5 241.203 178.190   2
 -10   4  -5 24.8236 72.5543   3
  10   4   6 223.160 210.250   2
 -10   4  -6 11.6848 109.661   3
  10   4   7-167.331 158.716   2
  10   4   8 452.122 320.601   2
  10   4   9-107.190 100.578   2
  10   4  10-158.497 238.886   2
 -10   5  12-16.3937 14.7894   1
 -10   5  11 319.786 348.925   1
 -10   5  10-228.203 217.195   1
 -10   5   9 249.625 271.301   1
 -10   5   8 125.051 245.067   1
 -10   5   7 174.811 181.653   1
 -10   5   6-94.2858 174.976   1
 -10   5   5 74.2532 50.7314   1
 -10   5   4-72.8889 66.9566   1
  10   5   2 687.409 397.187   2
  10   5   3 273.004 235.453   2
  10   5   4 161.340 184.436   2
  10   5   5 52.7477 155.583   2
 -10   5  -5 55.9453 107.192   3
  10   5   6 116.258 189.757   2
  10   5   7-4.78510 68.2487   2
  10   5   8 410.901 344.170   2
  10   5   9 388.788 304.160   2
  10   5  10 326.850 292.103   2
 -10   6  10 182.257 155.926   1
 -10   6   9-70.5888 139.543   1
 -10   6   8-136.207 158.417   1
 -10   6   7 30.1912 148.010   1
 -10   6   6 184.437 217.700   1
 -10   6   5 127.048 165.466   1
  10   6   2 665.349 407.295   2
  10   6   3 418.648 315.484   2
  10   6   4 616.901 355.241   2
  10   6   5 511.905 335.445   2
 -10   6  -5 126.692 140.090   3
  10   6   6 364.885 340.911   2
  10   6   7 299.510 260.663   2
  10   6   8 479.682 358.507   2
  10   6   9 295.214 303.557   2
  10   6  10 316.581 299.090   2
  10   7   3 537.465 344.720   2
  10   7   4 396.024 301.589   2
  10   7   5 836.691 451.460   2
 -10   7  -5 84.8332 90.9744   3
  10   7   6 310.752 247.654   2
  10   7   7 342.413 297.665   2
  10   7   8 561.227 341.445   2
  10   7   9 249.134 330.606   2
  10   7  10 435.567 351.752   2
  10   8   4 515.099 364.659   2
  10   8   5 768.214 403.142   2
  10   8   6 528.783 382.997   2
  10   8   7 502.171 365.503   2
  10   8   8 281.611 324.137   2
  10   8   9 475.840 396.101   2
  10   8  10 535.450 409.627   2
  10   9   5 665.982 431.316   2
  10   9   6 1065.69 492.797   2
  10   9   7 658.437 423.866   2
  10   9   8 568.494 379.627   2
  10   9   9 471.252 372.502   2
  10   9  10 726.675 489.432   2
  10  10   6 1059.66 493.092   2
  10  10   7 761.135 461.156   2
  10  10   8 809.219 461.545   2
  10  10   9 583.865 415.678   2
  10  10  10 1370.82 608.286   2
  10  11   7 1133.62 548.546   2
  10  11   8 1079.88 542.570   2
  10  11   9 1161.06 584.190   2
  10  11  10 1543.59 671.039   2
  10  12   9 1386.75 599.785   2
  10  12  10 1906.65 754.874   2
 -11 -33   0 346.007 443.446   1
 -11 -32   1-24.6210 205.010   1
 -11 -32   0-82.1509 143.693   1
 -11 -31   2-45.6676 240.170   1
 -11 -31   1-73.3125 224.979   1
 -11 -31   0 322.237 229.281   1
 -11 -30   3-83.1546 89.1875   1
 -11 -30   2 170.554 210.349   1
 -11 -30   1 15.1660 215.621   1
 -11 -30   0 231.350 273.074   1
 -11 -30  -1 230.748 320.548   1
 -11 -29   3 385.290 381.509   1
 -11 -29   2-213.910 288.074   1
 -11 -29   1-162.389 118.476   1
 -11 -29   0 233.268 236.058   1
 -11 -29  -1-104.682 95.5126   1
 -11 -28   4 288.960 125.889   1
 -11 -28   3-24.7146 280.073   1
 -11 -28   2 247.954 66.4900   1
 -11 -28   1-28.0130 155.292   1
 -11 -28   0 268.850 326.294   1
 -11 -28  -1-278.850 281.282   1
 -11 -27   5-22.4080 166.093   1
 -11 -27   4-123.168 306.000   1
 -11 -27   3-22.8278 214.128   1
 -11 -27   2-316.569 244.641   3
 -11 -27   2 231.960 352.710   1
 -11 -27   1 230.261 352.303   3
 -11 -27   1-70.2587 131.876   1
 -11 -27   0 317.374 474.252   3
 -11 -27   0 261.571 244.090   1
 -11 -27  -1-142.362 208.784   1
 -11 -26   5-147.660 328.734   1
 -11 -26   4 388.367 278.757   1
 -11 -26   3-98.0046 297.805   1
 -11 -26   2 482.285 492.845   3
 -11 -26   2 233.928 269.667   1
 -11 -26   1 237.475 369.410   3
 -11 -26   1 176.178 322.649   1
 -11 -26   0 136.967 175.547   3
 -11 -26   0-121.719 185.363   1
 -11 -26  -1 310.385 416.987   3
 -11 -26  -1 256.323 238.346   1
 -11 -26  -2-158.546 252.302   3
 -11 -25   6 419.439 374.011   1
 -11 -25   5 203.441 234.488   1
 -11 -25   4-16.3057 32.0684   1
 -11 -25   3-324.701 350.253   1
 -11 -25   2 465.519 365.916   3
 -11 -25   2-206.237 224.264   1
 -11 -25   1 96.6995 228.249   3
 -11 -25   1 301.249 408.138   1
 -11 -25   0 113.929 206.995   3
 -11 -25   0-26.6001 162.764   1
 -11 -25  -1 8.68926 204.535   3
 -11 -25  -1 114.876 155.237   1
 -11 -25  -2 129.543 288.914   3
 -11 -25  -3 159.237 153.775   3
 -11 -25  -4 257.731 329.145   3
 -11 -24   6 100.934 204.505   1
 -11 -24   5-273.270 326.476   1
 -11 -24   4-138.724 234.608   1
 -11 -24   3 395.369 306.774   1
 -11 -24   2 227.562 289.373   3
 -11 -24   2 236.715 284.617   1
 -11 -24   1 72.3593 229.467   3
 -11 -24   1 396.515 413.207   1
 -11 -24   0 241.061 338.677   3
 -11 -24   0 77.3292 185.130   1
 -11 -24  -1 203.903 207.059   3
 -11 -24  -1 217.096 222.181   1
 -11 -24  -2 135.162 247.203   3
 -11 -24  -3 181.814 260.088   3
 -11 -24  -4-47.1144 93.5038   3
 -11 -24  -5 189.224 302.582   3
 -11 -23   7-224.170 233.649   1
 -11 -23   6-98.7725 243.017   1
 -11 -23   5 40.4949 176.233   1
 -11 -23   4 164.117 246.792   1
 -11 -23   3 102.723 235.486   1
 -11 -23   2 74.9524 70.8031   1
 -11 -23   1 209.891 371.702   3
 -11 -23   1 415.939 311.182   1
 -11 -23   0-443.087 394.136   3
 -11 -23   0 87.8421 147.968   1
 -11 -23  -1 335.769 361.142   3
 -11 -23  -1-67.6936 127.813   1
 -11 -23  -2 238.201 171.834   3
 -11 -23  -3 108.608 68.5505   3
 -11 -23  -4-494.569 395.256   3
 -11 -23  -5-51.5644 137.616   3
 -11 -23  -6-86.8089 28.4280   3
 -11 -22   7 38.6055 298.198   1
 -11 -22   6 401.816 298.505   1
 -11 -22   5 374.286 325.280   1
 -11 -22   4 436.197 346.364   1
 -11 -22   3 26.2782 178.392   1
 -11 -22   2 63.1513 164.846   1
 -11 -22   1 475.901 382.844   3
 -11 -22   1 219.482 268.799   1
 -11 -22   0 551.290 389.710   3
 -11 -22   0 174.436 185.020   1
 -11 -22  -1 112.629 129.515   1
 -11 -22  -1 451.991 404.900   3
 -11 -22  -2-57.9050 123.142   3
 -11 -22  -3 116.027 248.545   3
 -11 -22  -4-22.5993 171.253   3
 -11 -22  -5 103.819 317.075   3
 -11 -22  -6 360.356 328.978   3
 -11 -22  -7 210.829 161.578   3
 -11 -21   7 194.166 272.524   1
 -11 -21   6-94.9216 16.6736   1
 -11 -21   5-74.5005 283.345   1
 -11 -21   4-152.468 218.118   1
 -11 -21   3 5.41399 240.908   1
  11 -21  -2-147.063 204.241   2
 -11 -21   2 312.145 240.102   1
 -11 -21   1 58.1425 63.5551   1
 -11 -21   0-159.392 79.5768   1
 -11 -21   0 401.555 371.486   3
 -11 -21  -1-76.0902 88.8075   1
 -11 -21  -1-188.293 276.687   3
 -11 -21  -2-25.1712 242.605   3
 -11 -21  -3 101.526 158.279   3
 -11 -21  -4 160.030 271.816   3
 -11 -21  -5 173.382 281.957   3
 -11 -21  -6 118.926 139.324   3
 -11 -21  -7 487.798 423.298   3
 -11 -20   8-4.10998 145.722   1
 -11 -20   7 13.1585 111.576   1
 -11 -20   6 199.337 186.895   1
 -11 -20   5 77.4283 281.613   1
 -11 -20   4-113.094 230.063   1
 -11 -20   3 328.220 317.665   1
  11 -20  -2 189.010 103.787   2
 -11 -20   2 130.282 191.479   1
 -11 -20   1 248.789 315.395   1
 -11 -20   0 50.7597 200.059   1
 -11 -20   0 73.4488 310.166   3
 -11 -20  -1-281.044 241.607   1
 -11 -20  -1-183.864 180.255   3
 -11 -20  -2 36.1191 61.3614   1
 -11 -20  -2-9.72364 137.515   3
 -11 -20  -3-198.885 164.652   3
 -11 -20  -4-101.669 24.8810   3
 -11 -20  -5-84.0492 340.984   3
 -11 -20  -6 4.27690 198.862   3
 -11 -20  -7-200.365 110.063   3
 -11 -20  -8 66.5701 193.116   3
 -11 -19   8 114.213 370.303   1
 -11 -19   7-268.231 211.624   1
 -11 -19   6 186.880 215.077   1
 -11 -19   5-228.062 264.946   1
 -11 -19   4 90.1909 220.767   1
 -11 -19   3 259.003 325.814   1
  11 -19  -2-224.603 223.235   2
 -11 -19   2 59.9906 102.829   1
 -11 -19   1 59.8412 162.583   1
 -11 -19   0-26.4455 84.6352   1
 -11 -19   0 47.8893 94.9994   3
 -11 -19  -1 38.8485 86.6006   1
 -11 -19  -1-199.083 113.431   3
 -11 -19  -2 89.4555 94.0142   1
 -11 -19  -2-172.616 114.817   3
 -11 -19  -3 238.714 211.187   3
 -11 -19  -4 350.674 344.153   3
 -11 -19  -5 108.408 225.385   3
 -11 -19  -6-95.7348 183.184   3
 -11 -19  -7-288.428 278.121   3
 -11 -19  -8 43.3105 105.798   3
 -11 -19  -9 293.868 309.867   3
 -11 -18   8 124.719 303.296   1
 -11 -18   7-2.65774 97.3100   1
 -11 -18   6-102.744 294.657   1
 -11 -18   5 49.8039 78.9809   1
 -11 -18   4 273.954 331.519   1
 -11 -18   3 250.094 271.036   1
  11 -18  -2 145.120 65.4780   2
 -11 -18   2 730.910 400.082   1
  11 -18  -1-209.275 278.017   2
 -11 -18   1 291.625 276.641   1
 -11 -18   0-42.7622 166.925   1
 -11 -18  -1 124.347 152.055   1
 -11 -18  -1 37.6244 203.361   3
 -11 -18  -2 117.765 103.339   1
 -11 -18  -2 21.0061 139.197   3
 -11 -18  -3-168.848 121.548   3
 -11 -18  -4 36.8964 225.764   3
 -11 -18  -5-201.328 307.345   3
 -11 -18  -6 223.897 337.419   3
 -11 -18  -7 2.51601 250.677   3
 -11 -18  -8-54.8197 54.5751   3
 -11 -18  -9 352.490 318.303   3
 -11 -17   9 672.743 500.298   1
 -11 -17   8 113.131 58.3213   1
 -11 -17   7-100.454 243.690   1
 -11 -17   6 169.573 243.142   1
 -11 -17   5 186.924 171.742   1
 -11 -17   4 207.689 232.338   1
  11 -17  -3-327.161 262.678   2
 -11 -17   3-18.6236 174.793   1
  11 -17  -2-241.200 186.294   2
 -11 -17   2 307.961 311.471   1
  11 -17  -1-202.991 241.668   2
 -11 -17   1 120.929 281.934   1
 -11 -17   0 65.3509 209.641   1
 -11 -17  -1 204.593 220.220   1
 -11 -17  -1 115.753 162.421   3
 -11 -17  -2 47.9043 118.808   1
 -11 -17  -2 263.230 211.495   3
 -11 -17  -3 256.759 273.984   3
 -11 -17  -4-115.983 168.198   3
 -11 -17  -5 23.6726 55.7718   3
 -11 -17  -6-15.3283 239.149   3
 -11 -17  -7 51.5542 173.610   3
 -11 -17  -8-176.743 199.568   3
 -11 -17  -9 166.028 195.931   3
 -11 -17 -10-349.428 223.966   3
 -11 -16   9 132.812 309.912   1
 -11 -16   8 212.988 266.933   1
 -11 -16   7 176.868 274.887   1
 -11 -16   6 145.451 231.115   1
 -11 -16   5-136.178 160.988   1
 -11 -16   4 209.423 249.729   1
  11 -16  -3 111.245 145.798   2
 -11 -16   3 715.105 403.041   1
  11 -16  -2-211.154 257.970   2
 -11 -16   2 132.972 258.071   1
  11 -16  -1 125.394 169.100   2
 -11 -16   1 386.145 294.277   1
  11 -16   0-79.4604 184.540   2
 -11 -16   0-213.063 125.621   1
 -11 -16  -1 125.230 203.826   1
 -11 -16  -1 61.0937 126.605   3
 -11 -16  -2-72.4107 35.8405   1
 -11 -16  -2-37.9105 155.632   3
 -11 -16  -3 86.3174 130.623   3
 -11 -16  -4-102.829 114.076   3
 -11 -16  -5 131.983 271.674   3
 -11 -16  -6 160.369 231.047   3
 -11 -16  -7-119.287 145.641   3
 -11 -16  -8-78.5990 170.670   3
 -11 -16  -9-102.144 185.963   3
 -11 -16 -10-178.683 154.943   3
 -11 -15   9-29.8943 147.486   1
 -11 -15   8-13.7229 160.147   1
 -11 -15   7 320.706 292.198   1
 -11 -15   6 131.055 241.007   1
 -11 -15   5 224.307 193.782   1
 -11 -15   4 9.01997 86.6426   1
 -11 -15   3 110.824 161.754   1
  11 -15  -3-91.4043 136.757   2
  11 -15  -2-148.537 186.994   2
 -11 -15   2-80.4663 136.443   1
  11 -15  -1-366.474 277.133   2
 -11 -15   1 88.5176 144.329   1
  11 -15   0-229.774 238.155   2
 -11 -15   0-85.7099 226.298   1
 -11 -15  -1-36.4034 27.7189   1
 -11 -15  -2 161.352 86.6979   1
 -11 -15  -2-72.6407 105.104   3
 -11 -15  -3-27.2411 105.728   3
 -11 -15  -4 268.723 241.482   3
 -11 -15  -5 16.6125 164.631   3
 -11 -15  -6-66.7643 184.361   3
 -11 -15  -7-79.2571 180.461   3
 -11 -15  -8 210.913 244.051   3
 -11 -15  -9-55.2792 87.4837   3
 -11 -15 -10 162.881 175.153   3
 -11 -14   9-54.0891 143.161   1
 -11 -14   8 1.68126 88.8997   1
 -11 -14   7-145.234 172.530   1
 -11 -14   6 366.468 377.740   1
 -11 -14   5 139.184 162.613   1
 -11 -14   4 131.659 243.885   1
 -11 -14   3-42.8562 157.954   1
  11 -14  -3-146.949 156.334   2
  11 -14  -2 246.176 41.0989   2
 -11 -14   2 280.446 238.635   1
  11 -14  -1-479.047 345.677   2
 -11 -14   1 9.85597 170.776   1
  11 -14   0 10.5973 85.4101   2
 -11 -14   0 278.424 217.788   1
  11 -14   1-275.792 276.517   2
 -11 -14  -1 162.345 80.8579   1
 -11 -14  -2 0.90573 94.6726   1
 -11 -14  -2 40.3492 148.074   3
 -11 -14  -3 390.502 308.304   3
 -11 -14  -4 142.114 220.838   3
 -11 -14  -5 27.9437 90.9804   3
 -11 -14  -6-197.567 245.455   3
 -11 -14  -7-204.501 199.835   3
 -11 -14  -8-30.6339 75.7837   3
 -11 -14  -9 180.323 167.769   3
 -11 -13  10 552.417 521.148   1
 -11 -13   9 394.705 413.813   1
 -11 -13   8 11.5666 134.979   1
 -11 -13   7 69.4569 238.094   1
 -11 -13   6 224.820 261.086   1
 -11 -13   5 339.859 327.705   1
 -11 -13   4 84.0853 187.312   1
  11 -13  -4 85.3238 130.723   2
 -11 -13   3-92.9262 110.898   1
  11 -13  -3-151.759 145.958   2
 -11 -13   2 211.107 188.793   1
  11 -13  -2-217.092 150.981   2
 -11 -13   1 18.0070 116.993   1
  11 -13  -1-304.542 320.176   2
  11 -13   0 132.563 182.482   2
 -11 -13   0 190.826 201.291   1
  11 -13   1-212.740 258.475   2
 -11 -13  -1-54.1709 92.4186   1
  11 -13   2 6.72797 208.959   2
 -11 -13  -2 192.920 194.858   1
 -11 -13  -2 199.581 286.562   3
 -11 -13  -3 123.521 277.123   3
 -11 -13  -4-16.0285 196.293   3
 -11 -13  -5 125.141 245.566   3
 -11 -13  -6-35.3059 118.252   3
 -11 -13  -7-267.157 190.582   3
 -11 -13  -8 6.96886 105.873   3
 -11 -13  -9-45.7945 143.923   3
 -11 -12  10 76.9265 344.344   1
 -11 -12   9 141.879 352.572   1
 -11 -12   8 48.2374 160.768   1
 -11 -12   7 195.818 290.955   1
 -11 -12   6 56.7639 177.146   1
 -11 -12   5-106.643 58.2843   1
 -11 -12   4 252.642 304.174   1
  11 -12  -4 306.846 235.401   2
 -11 -12   3 267.340 231.645   1
  11 -12  -3 90.6600 109.265   2
 -11 -12   2-28.2607 116.781   1
  11 -12  -2 71.2498 83.5210   2
 -11 -12   1 138.970 181.282   1
  11 -12  -1-320.923 302.594   2
 -11 -12   0-93.3216 63.8305   1
  11 -12   0-316.229 294.250   2
 -11 -12  -1 183.883 177.050   1
  11 -12   1-480.347 339.262   2
 -11 -12  -2 472.641 230.505   1
  11 -12   2 172.794 88.7574   2
 -11 -12  -2 599.581 405.126   3
  11 -12   3-208.097 276.453   2
 -11 -12  -3 134.740 235.652   3
 -11 -12  -4 434.302 330.651   3
 -11 -12  -5 84.6799 120.027   3
 -11 -12  -6-122.552 58.4118   3
 -11 -12  -7 300.207 237.515   3
 -11 -12  -8-204.060 108.490   3
 -11 -12  -9 325.903 330.536   3
 -11 -11  10 193.645 237.442   1
 -11 -11   9-64.7077 6.60874   1
 -11 -11   8 39.1809 261.493   1
 -11 -11   7 5.70857 366.500   1
 -11 -11   6 211.032 306.176   1
 -11 -11   5-52.7853 121.138   1
 -11 -11   4 526.364 405.777   1
  11 -11  -4 722.202 344.269   2
 -11 -11   3-106.504 79.0795   1
  11 -11  -3 300.421 200.704   2
 -11 -11   2 266.904 233.319   1
  11 -11  -2 136.242 120.125   2
 -11 -11   1 23.9471 59.9863   1
  11 -11  -1-223.080 257.506   2
 -11 -11   0 352.271 239.471   1
  11 -11   0-192.426 218.718   2
 -11 -11  -1-105.003 59.2152   1
  11 -11   1-354.613 267.573   2
 -11 -11  -2 76.4660 98.3995   1
  11 -11   2-181.846 180.834   2
  11 -11   3-16.5151 165.707   2
 -11 -11  -3-38.7652 83.8776   3
  11 -11   4-42.3828 200.829   2
 -11 -11  -4-59.6688 203.767   3
 -11 -11  -5 61.9385 158.065   3
 -11 -11  -6-17.5036 143.744   3
 -11 -11  -7-253.044 258.922   3
 -11 -11  -8 157.304 188.785   3
 -11 -11  -9 150.239 207.074   3
 -11 -10  10 244.484 311.579   1
 -11 -10   9 6.48519 284.567   1
 -11 -10   8 366.903 294.064   1
 -11 -10   7 745.015 425.257   1
 -11 -10   6 431.519 416.625   1
 -11 -10   5 6.47631 25.5052   1
 -11 -10   4 121.242 237.352   1
 -11 -10   3 146.527 184.805   1
  11 -10  -3 351.543 241.802   2
 -11 -10   2-89.8648 52.1764   1
  11 -10  -2-13.0782 137.201   2
 -11 -10   1 184.785 246.109   1
  11 -10  -1-120.636 183.572   2
 -11 -10   0 321.170 237.910   1
  11 -10   0-25.0836 133.384   2
 -11 -10  -1 343.788 206.522   1
  11 -10   1-196.798 247.662   2
 -11 -10  -2 481.306 232.470   1
  11 -10   2 123.016 192.486   2
  11 -10   3 60.9717 58.9959   2
 -11 -10  -3 265.429 181.063   3
  11 -10   4-400.130 334.158   2
 -11 -10  -4 65.2409 81.0536   3
  11 -10   5-300.042 342.371   2
 -11 -10  -5 17.8871 126.894   3
  11 -10   6-406.603 384.829   2
 -11 -10  -6 61.2830 184.327   3
  11 -10   7-377.038 338.651   2
 -11 -10  -7-298.993 257.457   3
 -11 -10  -8-77.8015 128.373   3
  11 -10   8 206.422 193.836   2
 -11  -9  10 75.4449 261.242   1
 -11  -9   9 309.577 206.035   1
 -11  -9   8 285.204 348.422   1
 -11  -9   7 551.520 360.895   1
 -11  -9   6 223.777 382.671   1
 -11  -9   5-130.451 106.713   1
 -11  -9   4-28.7805 114.558   1
 -11  -9   3 250.818 257.547   1
  11  -9  -3 284.243 233.676   2
 -11  -9   2-163.077 163.509   1
  11  -9  -2 392.510 269.286   2
 -11  -9   1 163.105 206.458   1
  11  -9  -1 91.2526 46.8015   2
 -11  -9   0 9.89962 60.8483   1
  11  -9   0 22.7033 133.482   2
 -11  -9  -1 63.2346 174.702   1
  11  -9   1-181.998 227.179   2
 -11  -9  -2 207.957 191.584   1
  11  -9   2-162.679 203.461   2
  11  -9   3-234.612 249.447   2
 -11  -9  -3-62.0232 141.665   3
  11  -9   4-624.850 354.945   2
 -11  -9  -4-87.1153 148.930   3
  11  -9   5-212.074 242.009   2
 -11  -9  -5 229.448 246.710   3
  11  -9   6-430.102 359.719   2
 -11  -9  -6 156.902 161.008   3
  11  -9   7-552.799 402.185   2
 -11  -9  -7 198.347 226.438   3
 -11  -9  -8-182.095 228.931   3
  11  -9   8-247.694 286.076   2
 -11  -8  10 311.631 223.458   1
 -11  -8   9-18.8804 180.117   1
 -11  -8   8 480.532 470.477   1
 -11  -8   7 176.731 233.764   1
 -11  -8   6 282.816 274.838   1
 -11  -8   5 338.890 292.522   1
 -11  -8   4 117.600 110.686   1
 -11  -8   3-31.4898 114.882   1
  11  -8  -3 236.870 246.850   2
 -11  -8   2 312.896 234.273   1
  11  -8  -2 495.075 319.543   2
 -11  -8   1 70.1828 61.8295   1
  11  -8  -1-8.02141 33.1179   2
 -11  -8   0-22.5910 115.719   1
  11  -8   0-133.803 208.927   2
 -11  -8  -1 355.099 245.980   1
  11  -8   1 191.632 49.4362   2
 -11  -8  -2 408.541 230.886   1
  11  -8   2 30.3168 206.149   2
  11  -8   3-467.436 364.234   2
 -11  -8  -3 87.8536 92.2250   3
  11  -8   4 195.413 112.797   2
 -11  -8  -4 349.051 272.159   3
  11  -8   5-414.813 315.488   2
 -11  -8  -5 25.9498 174.521   3
  11  -8   6-267.956 299.915   2
 -11  -8  -6-164.059 162.602   3
  11  -8   7-442.060 359.770   2
 -11  -8  -7 42.2138 153.835   3
 -11  -8  -8 15.0290 43.9678   3
  11  -8   8-346.328 407.422   2
 -11  -7  10-58.8327 283.140   1
 -11  -7   9-100.058 88.3626   1
 -11  -7   8 325.233 295.619   1
 -11  -7   7-57.8601 213.052   1
 -11  -7   6 42.8217 90.6132   1
 -11  -7   5 64.4753 150.535   1
 -11  -7   4 44.0771 129.709   1
 -11  -7   3-172.479 154.154   1
  11  -7  -3 297.974 309.691   2
 -11  -7   2 167.205 185.512   1
  11  -7  -2 399.241 270.068   2
 -11  -7   1 35.2895 53.9515   1
  11  -7  -1-65.8683 117.134   2
 -11  -7   0 53.1879 75.3841   1
  11  -7   0-303.328 238.097   2
 -11  -7  -1 102.987 174.310   1
  11  -7   1-236.400 187.476   2
 -11  -7  -2 36.2560 136.499   1
  11  -7   2-320.302 261.808   2
  11  -7   3-484.629 313.703   2
 -11  -7  -3 27.5531 84.7670   3
  11  -7   4-371.340 257.951   2
 -11  -7  -4 227.205 244.884   3
  11  -7   5-159.246 317.627   2
 -11  -7  -5 231.053 249.738   3
  11  -7   6-186.103 243.049   2
 -11  -7  -6-153.982 184.800   3
  11  -7   7-133.320 339.138   2
 -11  -7  -7 177.610 197.348   3
 -11  -7  -8-10.4540 199.622   3
  11  -7   8-392.724 411.353   2
  11  -7   9-250.793 318.746   2
 -11  -6  11-305.134 220.664   1
 -11  -6  10 303.431 244.500   1
 -11  -6   9 145.582 178.876   1
 -11  -6   8-147.357 219.053   1
 -11  -6   7 478.817 266.044   1
 -11  -6   6-149.438 187.043   1
 -11  -6   5 92.7233 82.4363   1
 -11  -6   4-104.038 120.702   1
 -11  -6   3 41.4024 96.9293   1
 -11  -6   2 94.5608 182.733   1
  11  -6  -2 364.768 308.415   2
 -11  -6   1 280.751 268.091   1
  11  -6  -1 199.357 219.712   2
 -11  -6   0 72.0979 168.788   1
  11  -6   0-33.3015 163.170   2
 -11  -6  -1 92.3788 134.878   1
  11  -6   1-36.6245 194.289   2
  11  -6   2-271.011 291.578   2
 -11  -6  -2 48.6458 64.2743   1
  11  -6   3 153.152 123.763   2
 -11  -6  -3 509.005 298.587   3
  11  -6   4-510.087 384.682   2
 -11  -6  -4 17.1392 50.8542   3
  11  -6   5-280.679 255.417   2
 -11  -6  -5 7.56001 151.390   3
  11  -6   6-554.801 363.693   2
 -11  -6  -6 57.7905 73.9870   3
  11  -6   7-416.542 343.106   2
 -11  -6  -7-99.5659 157.142   3
  11  -6   8-393.038 372.402   2
  11  -6   9-658.389 439.983   2
 -11  -5  11 80.6069 79.9162   1
 -11  -5  10-71.9825 187.218   1
 -11  -5   9-157.198 49.6483   1
 -11  -5   8-244.846 289.088   1
 -11  -5   7 19.9864 193.701   1
 -11  -5   6 14.1842 180.846   1
 -11  -5   5 130.232 259.744   1
 -11  -5   4 197.515 158.211   1
 -11  -5   3 140.436 149.976   1
 -11  -5   2 44.5335 77.5899   1
  11  -5  -2 505.751 325.526   2
 -11  -5   1 260.804 277.494   1
  11  -5  -1 307.079 243.503   2
 -11  -5   0 434.217 216.756   1
  11  -5   0-13.5558 43.3753   2
  11  -5   1-19.0330 67.5135   2
 -11  -5  -1 44.2563 133.671   1
  11  -5   2-247.021 263.222   2
 -11  -5  -2 170.323 159.670   1
  11  -5   3-255.306 277.295   2
  11  -5   4-460.400 357.389   2
 -11  -5  -4 210.377 270.187   3
  11  -5   5-881.497 489.857   2
 -11  -5  -5 67.0636 157.655   3
  11  -5   6-521.130 415.414   2
 -11  -5  -6 143.470 214.490   3
  11  -5   7-368.305 350.449   2
 -11  -5  -7 25.0662 153.857   3
  11  -5   8-575.939 431.503   2
  11  -5   9-424.753 446.256   2
 -11  -4  11 236.731 294.083   1
 -11  -4  10 309.632 256.117   1
 -11  -4   9 130.620 145.717   1
 -11  -4   8-87.0956 187.142   1
 -11  -4   7 118.435 122.364   1
 -11  -4   6 304.404 279.084   1
 -11  -4   5-80.0272 89.6052   1
 -11  -4   4 142.922 210.189   1
 -11  -4   3 357.244 207.150   1
 -11  -4   2-143.219 188.224   1
  11  -4  -2 437.645 329.398   2
 -11  -4   1 168.888 204.125   1
  11  -4  -1 290.762 257.779   2
  11  -4   0-30.3317 41.0110   2
 -11  -4   0-47.1557 130.464   1
  11  -4   1 81.0778 169.841   2
 -11  -4  -1 119.649 169.567   1
  11  -4   2 88.4066 166.787   2
 -11  -4  -2 115.925 178.739   1
  11  -4   3-69.3832 169.655   2
  11  -4   4-318.984 331.797   2
 -11  -4  -4 92.9452 159.975   3
  11  -4   5-544.232 389.103   2
 -11  -4  -5-90.5527 35.0073   3
  11  -4   6-605.086 408.183   2
 -11  -4  -6 113.250 210.147   3
  11  -4   7-640.335 463.325   2
 -11  -4  -7-9.72384 105.472   3
  11  -4   8-217.183 400.724   2
  11  -4   9-535.478 421.678   2
 -11  -3  11 99.6210 316.126   1
 -11  -3  10-62.3226 152.586   1
 -11  -3   9-77.9780 102.939   1
 -11  -3   8 33.6756 36.5660   1
 -11  -3   7-29.9380 184.745   1
 -11  -3   6 163.210 179.176   1
 -11  -3   5 130.659 177.551   1
 -11  -3   4 15.3421 108.633   1
 -11  -3   3 7.08286 17.5714   1
 -11  -3   2-71.5226 92.0569   1
  11  -3  -1 190.492 256.979   2
 -11  -3   1-18.7683 11.7256   1
  11  -3   0 175.527 154.763   2
 -11  -3   0 51.7787 154.801   1
  11  -3   1 107.307 114.314   2
 -11  -3  -1 32.0781 61.9086   1
  11  -3   2 52.0168 111.814   2
 -11  -3  -2 330.474 223.166   1
  11  -3   3-125.730 129.374   2
  11  -3   4-465.456 300.144   2
 -11  -3  -4-108.579 86.1945   3
  11  -3   5 168.267 149.565   2
 -11  -3  -5 457.015 297.408   3
  11  -3   6-368.391 297.604   2
 -11  -3  -6 63.1495 125.870   3
  11  -3   7-391.083 311.248   2
 -11  -3  -7-98.0137 147.687   3
  11  -3   8-258.100 283.505   2
  11  -3   9-211.920 346.075   2
 -11  -2  11 331.271 350.106   1
 -11  -2  10-90.6336 24.0177   1
 -11  -2   9 219.401 218.511   1
 -11  -2   8 77.7332 242.809   1
 -11  -2   7-105.406 122.213   1
 -11  -2   6-163.138 61.4652   1
 -11  -2   5 312.601 374.727   1
 -11  -2   4 321.724 314.616   1
 -11  -2   3-34.2819 169.578   1
 -11  -2   2 550.035 256.839   1
  11  -2  -1 332.018 309.760   2
 -11  -2   1 28.4132 79.5906   1
  11  -2   0 201.259 203.347   2
 -11  -2   0 165.078 149.603   1
  11  -2   1 1.39897 36.2409   2
 -11  -2  -1 25.4358 129.969   1
  11  -2   2 329.718 210.911   2
  11  -2   3-320.330 269.062   2
  11  -2   4 32.1671 124.834   2
 -11  -2  -4 0.08613 158.249   3
  11  -2   5-82.1660 71.8307   2
 -11  -2  -5 255.809 265.734   3
  11  -2   6-25.7884 184.847   2
 -11  -2  -6 110.411 208.206   3
  11  -2   7-191.046 255.218   2
  11  -2   8-376.788 309.147   2
  11  -2   9-388.737 350.157   2
 -11  -1  11 142.310 378.595   1
 -11  -1  10 178.774 177.936   1
 -11  -1   9 134.566 197.870   1
 -11  -1   8 161.275 73.3595   1
 -11  -1   7 325.891 252.409   1
 -11  -1   6-104.327 81.6227   1
 -11  -1   5 289.458 325.982   1
 -11  -1   4 17.3390 183.087   1
 -11  -1   3-15.7726 143.418   1
 -11  -1   2-84.1155 57.3831   1
  11  -1  -1 865.120 435.707   2
 -11  -1   1 4.87958 204.631   1
  11  -1   0 292.936 289.327   2
 -11  -1   0-21.4974 59.9985   1
  11  -1   1 380.249 239.869   2
 -11  -1  -1 39.4131 115.853   1
  11  -1   2 266.647 244.769   2
  11  -1   3-103.057 162.376   2
  11  -1   4-73.4279 206.128   2
 -11  -1  -4 87.8933 126.925   3
  11  -1   5 20.6189 99.9331   2
 -11  -1  -5 201.578 247.601   3
  11  -1   6-271.165 244.873   2
 -11  -1  -6-98.8477 100.110   3
  11  -1   7-267.134 253.946   2
  11  -1   8-18.1691 439.936   2
  11  -1   9-225.474 332.944   2
 -11   0  11 640.767 482.283   1
 -11   0  10-34.8639 56.5713   1
 -11   0   9 130.132 237.318   1
 -11   0   8-58.0115 112.617   1
 -11   0   7 201.405 187.507   1
 -11   0   6 294.910 243.112   1
 -11   0   5-76.2312 166.225   1
 -11   0   4-34.5979 200.779   1
 -11   0   3 398.936 244.649   1
 -11   0   2 137.297 114.016   1
 -11   0   1 1019.62 374.668   1
  11   0   0 719.543 390.041   2
 -11   0   0-63.4091 135.625   1
  11   0   1 118.566 206.390   2
  11   0   2 279.963 258.113   2
  11   0   3 255.104 125.641   2
  11   0   4-136.063 184.485   2
 -11   0  -4 4.54232 155.377   3
  11   0   5-258.644 304.484   2
 -11   0  -5-31.4992 96.2784   3
  11   0   6 300.871 211.135   2
 -11   0  -6 98.2228 67.4145   3
  11   0   7 740.732 363.665   2
  11   0   8 21.6187 160.404   2
  11   0   9-414.567 350.891   2
 -11   1  11 246.507 283.408   1
 -11   1  10 236.124 275.041   1
 -11   1   9 250.724 241.996   1
 -11   1   8-290.758 177.341   1
 -11   1   7-9.79649 146.812   1
 -11   1   6 191.621 206.464   1
 -11   1   5-6.42314 62.9696   1
 -11   1   4-54.6260 73.0550   1
 -11   1   3-93.6563 143.111   1
 -11   1   2-86.7339 69.8649   1
 -11   1   1-63.3960 138.424   1
  11   1   0 671.717 392.392   2
  11   1   1 390.836 292.072   2
  11   1   2 333.846 267.393   2
  11   1   3 65.0304 133.375   2
  11   1   4 319.785 258.962   2
 -11   1  -4 134.100 180.864   3
  11   1   5-267.330 244.120   2
 -11   1  -5 140.325 162.781   3
  11   1   6 160.911 226.923   2
  11   1   7 125.440 168.045   2
  11   1   8-254.578 278.487   2
  11   1   9-261.365 354.830   2
 -11   2  11-93.5919 125.500   1
 -11   2  10 157.246 294.651   1
 -11   2   9-144.504 77.0945   1
 -11   2   8 45.8788 192.701   1
 -11   2   7 5.28073 62.3331   1
 -11   2   6-201.423 220.129   1
 -11   2   5-178.012 227.946   1
 -11   2   4 187.618 235.873   1
 -11   2   3 27.1931 88.9316   1
 -11   2   2 623.986 288.015   1
 -11   2   1-122.101 117.281   1
  11   2   1 49.1447 223.614   2
  11   2   2 267.967 242.634   2
  11   2   3 238.126 252.063   2
  11   2   4 442.815 297.988   2
 -11   2  -4 197.711 148.007   3
  11   2   5 22.0987 141.709   2
 -11   2  -5 193.086 211.444   3
  11   2   6 138.716 139.041   2
  11   2   7 15.0946 133.203   2
  11   2   8 89.3531 210.474   2
  11   2   9-11.1518 48.7613   2
 -11   3  11 234.058 294.551   1
 -11   3  10 100.054 123.931   1
 -11   3   9 300.539 361.305   1
 -11   3   8-7.31756 142.485   1
 -11   3   7-85.6661 227.588   1
 -11   3   6 43.6921 156.825   1
 -11   3   5-91.5138 214.922   1
 -11   3   4 102.204 159.667   1
 -11   3   3 311.129 265.283   1
 -11   3   2-34.8583 64.1722   1
  11   3   1 388.909 281.239   2
  11   3   2 403.286 286.345   2
  11   3   3 431.513 285.214   2
  11   3   4 185.914 224.932   2
  11   3   5 683.579 405.600   2
 -11   3  -5 215.224 152.802   3
  11   3   6-0.87195 85.9570   2
  11   3   7 115.224 181.969   2
  11   3   8 308.194 230.690   2
  11   3   9 494.389 321.238   2
 -11   4  11 290.623 336.358   1
 -11   4  10 190.339 325.776   1
 -11   4   9 453.968 403.932   1
 -11   4   8 129.665 251.999   1
 -11   4   7 283.590 246.150   1
 -11   4   6 381.715 275.962   1
 -11   4   5-13.7899 125.270   1
 -11   4   4-10.5349 36.2724   1
 -11   4   3 12.7199 131.356   1
  11   4   2 510.270 346.106   2
  11   4   3 372.359 335.610   2
  11   4   4 301.208 305.974   2
  11   4   5 671.323 416.603   2
 -11   4  -5 122.511 103.429   3
  11   4   6 266.429 226.038   2
  11   4   7 118.780 232.233   2
  11   4   8-61.7397 72.0479   2
  11   4   9 248.498 234.730   2
 -11   5  11 187.236 270.443   1
 -11   5  10 456.576 414.990   1
 -11   5   9 39.0006 145.401   1
 -11   5   8-2.27624 101.423   1
 -11   5   7 154.658 355.960   1
 -11   5   6 70.3240 167.274   1
 -11   5   5 243.116 201.804   1
  11   5   2 779.422 368.056   2
  11   5   3 712.762 443.222   2
  11   5   4 747.009 394.409   2
  11   5   5 305.181 288.576   2
  11   5   6 308.637 278.595   2
  11   5   7 288.677 284.815   2
  11   5   8 425.761 302.116   2
  11   5   9 1.71782 114.466   2
 -11   6   8-89.2973 156.765   1
 -11   6   7 443.793 259.135   1
  11   6   3 1080.88 480.310   2
  11   6   4 557.541 374.352   2
  11   6   5 650.483 374.735   2
  11   6   6 215.192 246.267   2
  11   6   7 405.425 321.173   2
  11   6   8 410.772 357.518   2
  11   6   9 270.856 274.709   2
  11   7   4 720.202 417.456   2
  11   7   5 536.356 359.022   2
  11   7   6 340.675 248.452   2
  11   7   7 501.723 381.778   2
  11   7   8 365.204 354.832   2
  11   7   9 366.671 366.167   2
  11   8   4 1193.58 529.563   2
  11   8   5 923.890 504.008   2
  11   8   6 568.374 406.046   2
  11   8   7 576.164 364.187   2
  11   8   8 583.872 413.227   2
  11   8   9 470.268 391.687   2
  11   9   5 862.529 487.346   2
  11   9   6 1076.81 550.473   2
  11   9   7 697.216 437.085   2
  11   9   8 680.908 458.675   2
  11   9   9 770.462 500.432   2
  11  10   7 947.062 539.582   2
  11  10   8 1573.33 658.189   2
  11  10   9 1387.55 653.433   2
 -12 -30   1 507.821 375.668   1
 -12 -29   2 133.242 341.176   1
 -12 -29   1 482.723 517.494   1
 -12 -28   3 420.477 473.934   1
 -12 -28   2 362.820 505.762   1
 -12 -28   1 432.814 477.514   1
 -12 -27   3-82.7541 114.837   1
 -12 -27   2 338.658 393.970   1
 -12 -27   1 740.447 539.714   1
 -12 -27   0 366.498 378.881   1
 -12 -26   4-147.452 314.474   1
 -12 -26   3 67.1219 243.169   1
 -12 -26   2 245.673 282.677   1
 -12 -26   1 567.970 451.436   1
 -12 -26   0 115.522 162.600   1
 -12 -25   4 477.384 370.231   1
 -12 -25   3 288.761 367.169   1
 -12 -25   2 29.2891 91.6675   1
 -12 -25   1-88.0903 182.204   1
 -12 -25   0 253.061 272.176   1
 -12 -24   5 8.05697 147.949   1
 -12 -24   4 172.351 255.561   1
 -12 -24   3-229.899 244.579   1
 -12 -24   2 334.375 311.965   1
 -12 -24   1-226.620 171.391   1
 -12 -24   0 367.539 314.486   1
 -12 -23   5 4.69664 183.082   1
 -12 -23   4-25.9055 199.040   1
 -12 -23   3-36.5373 289.008   1
 -12 -23   2 43.0777 110.606   1
 -12 -23   1 193.584 155.672   1
 -12 -23   1 204.358 433.086   3
 -12 -23   0 139.967 146.288   1
 -12 -23   0-74.6808 135.881   3
 -12 -23  -1 630.996 411.032   3
 -12 -23  -2-8.57261 205.975   3
 -12 -22   6 455.616 439.218   1
 -12 -22   5-96.8800 124.193   1
 -12 -22   4 4.64202 243.037   1
 -12 -22   3-24.7917 150.301   1
 -12 -22   2 48.7183 105.814   1
 -12 -22   1-133.189 223.980   1
 -12 -22   1 579.645 512.424   3
 -12 -22   0 131.885 247.018   1
 -12 -22   0 179.607 306.250   3
 -12 -22  -1 110.072 63.0569   3
 -12 -22  -2-32.1587 185.011   3
 -12 -22  -3 743.178 469.666   3
 -12 -22  -4 86.6321 233.394   3
 -12 -21   6 84.3297 279.742   1
 -12 -21   5-320.063 229.928   1
 -12 -21   4-56.2960 223.301   1
 -12 -21   3 13.9548 246.821   1
 -12 -21   2 184.374 58.0383   1
  12 -21  -1-4.40715 203.787   2
 -12 -21   1 91.7783 166.372   1
 -12 -21   0 215.734 255.858   1
 -12 -21   0-15.3064 264.882   3
 -12 -21  -1 293.928 409.424   3
 -12 -21  -2 470.924 440.034   3
 -12 -21  -3 102.041 238.598   3
 -12 -21  -4 273.539 344.813   3
 -12 -21  -5-200.529 399.725   3
 -12 -20   6 107.572 143.073   1
 -12 -20   5-85.4400 252.616   1
 -12 -20   4 3.82655 143.662   1
 -12 -20   3 146.984 303.369   1
 -12 -20   2 27.2160 136.273   1
  12 -20  -1-214.173 294.142   2
 -12 -20   1-135.759 134.821   1
  12 -20   0-202.657 233.011   2
 -12 -20   0-60.4961 103.032   1
 -12 -20   0 101.354 171.536   3
 -12 -20  -1 118.789 276.203   3
 -12 -20  -2 276.089 353.323   3
 -12 -20  -3 447.633 480.446   3
 -12 -20  -4 159.589 184.374   3
 -12 -20  -5-3.81853 86.8618   3
 -12 -20  -6 278.848 267.997   3
 -12 -19   7 178.420 355.617   1
 -12 -19   6-8.96151 264.530   1
 -12 -19   5-60.9520 128.156   1
 -12 -19   4-229.769 141.139   1
 -12 -19   3-69.1213 163.818   1
 -12 -19   2 553.069 431.192   1
  12 -19  -1-223.157 322.185   2
 -12 -19   1-98.5022 158.449   1
  12 -19   0-101.331 191.278   2
 -12 -19   0 15.1538 127.585   1
 -12 -19   0 93.5324 270.438   3
 -12 -19  -1 31.6795 73.1085   3
 -12 -19  -2-234.845 269.249   3
 -12 -19  -3 456.147 460.556   3
 -12 -19  -4 47.1533 264.521   3
 -12 -19  -5 198.267 259.219   3
 -12 -19  -6-41.7842 204.811   3
 -12 -19  -7 35.4076 220.198   3
 -12 -18   7 423.625 356.023   1
 -12 -18   6 256.621 297.524   1
 -12 -18   5 307.802 236.354   1
 -12 -18   4 182.057 225.746   1
 -12 -18   3 165.759 123.620   1
  12 -18  -2-332.802 277.699   2
 -12 -18   2 68.3481 270.155   1
  12 -18  -1-275.111 324.380   2
 -12 -18   1-1.88297 68.9015   1
  12 -18   0-186.313 251.797   2
 -12 -18   0-40.2253 117.580   1
  12 -18   1 139.773 79.0298   2
 -12 -18  -1 107.117 230.161   3
 -12 -18  -2 297.938 283.108   3
 -12 -18  -3 89.1416 115.527   3
 -12 -18  -4 173.212 340.451   3
 -12 -18  -5 152.073 170.135   3
 -12 -18  -6 334.154 344.126   3
 -12 -18  -7 157.335 198.116   3
 -12 -18  -8 177.586 264.683   3
 -12 -17   7 133.655 295.509   1
 -12 -17   6 132.156 158.424   1
 -12 -17   5 254.467 334.798   1
 -12 -17   4 27.7998 132.564   1
 -12 -17   3-31.0623 84.0427   1
  12 -17  -2-408.043 312.430   2
 -12 -17   2 297.815 236.484   1
  12 -17  -1-256.174 249.132   2
 -12 -17   1-165.446 86.2106   1
  12 -17   0-395.028 326.964   2
 -12 -17   0 138.952 92.1544   1
  12 -17   1-163.231 227.659   2
 -12 -17  -1-145.023 119.837   1
 -12 -17  -1-133.208 55.8004   3
  12 -17   2-189.940 265.557   2
 -12 -17  -2-7.37003 90.0440   3
 -12 -17  -3-86.1396 277.748   3
 -12 -17  -4 126.308 210.098   3
 -12 -17  -5-10.9825 99.2283   3
 -12 -17  -6-120.450 78.0286   3
 -12 -17  -7-217.810 231.450   3
 -12 -17  -8-74.5850 73.3301   3
 -12 -16   8 414.194 238.969   1
 -12 -16   7 346.971 336.968   1
 -12 -16   6 148.082 217.607   1
 -12 -16   5 335.350 324.615   1
 -12 -16   4 181.760 193.009   1
 -12 -16   3 305.389 273.576   1
 -12 -16   2-128.243 266.589   1
  12 -16  -2-21.3409 121.394   2
 -12 -16   1 55.2187 100.424   1
  12 -16  -1-116.408 224.666   2
  12 -16   0-153.401 242.292   2
 -12 -16   0 311.841 286.359   1
  12 -16   1-351.724 324.059   2
 -12 -16  -1-57.6360 84.3183   1
 -12 -16  -1 124.481 186.566   3
  12 -16   2-217.954 206.857   2
 -12 -16  -2 117.943 227.453   3
 -12 -16  -3-270.679 242.502   3
 -12 -16  -4 149.357 100.800   3
 -12 -16  -5 255.097 224.437   3
 -12 -16  -6-43.4265 161.805   3
 -12 -16  -7 97.4811 250.369   3
 -12 -16  -8-306.751 197.889   3
 -12 -16  -9-114.240 208.874   3
 -12 -15   8 114.073 260.570   1
 -12 -15   7 57.2830 194.990   1
 -12 -15   6 155.908 294.622   1
 -12 -15   5 111.560 267.046   1
 -12 -15   4 4.05103 173.788   1
 -12 -15   3 120.579 204.445   1
 -12 -15   2 105.229 41.0091   1
  12 -15  -2-23.7566 187.598   2
 -12 -15   1-53.4652 152.123   1
  12 -15  -1-93.2837 158.293   2
 -12 -15   0 244.850 257.272   1
  12 -15   0 4.46023 150.010   2
 -12 -15  -1 111.952 123.594   1
  12 -15   1-243.515 283.133   2
 -12 -15  -1-14.2548 207.252   3
  12 -15   2 15.0750 231.340   2
 -12 -15  -2-12.9278 168.964   3
  12 -15   3 49.3999 158.350   2
 -12 -15  -3-36.9749 66.6163   3
 -12 -15  -4-74.0478 126.129   3
 -12 -15  -5 82.1581 151.192   3
 -12 -15  -6-78.6157 95.0315   3
 -12 -15  -7-58.1791 226.197   3
 -12 -15  -8-48.8194 93.3731   3
 -12 -15  -9-174.219 222.233   3
 -12 -14   8-142.824 28.8196   1
 -12 -14   7 56.6258 133.958   1
 -12 -14   6 153.320 223.998   1
 -12 -14   5-80.3807 126.830   1
 -12 -14   4-27.3782 141.123   1
 -12 -14   3 3.45960 139.872   1
  12 -14  -3 364.120 245.347   2
 -12 -14   2 15.4848 173.536   1
  12 -14  -2-132.462 137.788   2
 -12 -14   1-62.7338 140.581   1
  12 -14  -1-97.9533 205.329   2
 -12 -14   0 155.486 199.813   1
  12 -14   0-343.461 309.460   2
 -12 -14  -1 20.6746 79.4109   1
  12 -14   1-119.269 175.769   2
  12 -14   2-209.152 301.205   2
 -12 -14  -2 32.9243 145.179   3
  12 -14   3-111.454 171.101   2
 -12 -14  -3 63.9270 174.529   3
  12 -14   4-226.541 254.587   2
 -12 -14  -4 269.543 287.649   3
  12 -14   5 339.741 308.525   2
 -12 -14  -5 270.252 373.327   3
 -12 -14  -6 252.176 289.669   3
 -12 -14  -7 66.2045 179.114   3
 -12 -14  -8 131.657 217.919   3
 -12 -13   8-23.6214 269.473   1
 -12 -13   7 192.287 249.051   1
 -12 -13   6 130.114 180.690   1
 -12 -13   5-58.2049 129.549   1
 -12 -13   4-272.464 260.006   1
 -12 -13   3 88.4266 138.645   1
  12 -13  -3 146.707 190.953   2
 -12 -13   2 67.8670 128.186   1
  12 -13  -2-38.4161 161.259   2
 -12 -13   1 7.85479 152.015   1
  12 -13  -1-106.038 174.264   2
 -12 -13   0 54.2166 57.4212   1
  12 -13   0-377.825 343.458   2
 -12 -13  -1 140.965 133.991   1
  12 -13   1-264.743 319.517   2
  12 -13   2-9.48333 145.864   2
 -12 -13  -2 454.735 261.298   3
  12 -13   3-213.247 263.532   2
 -12 -13  -3-8.64812 57.2765   3
  12 -13   4-219.458 228.914   2
 -12 -13  -4-67.0493 130.238   3
  12 -13   5-60.6106 165.357   2
 -12 -13  -5 474.012 348.185   3
  12 -13   6-456.863 350.402   2
 -12 -13  -6 187.866 80.1810   3
 -12 -13  -7-90.4469 59.7030   3
 -12 -13  -8 103.301 23.3156   3
 -12 -12   9-13.6391 253.263   1
 -12 -12   8-196.217 122.885   1
 -12 -12   7 376.137 366.050   1
 -12 -12   6 307.994 346.495   1
 -12 -12   5 148.017 180.368   1
 -12 -12   4 399.687 209.442   1
 -12 -12   3-10.0209 63.5296   1
  12 -12  -3 133.068 250.179   2
 -12 -12   2 204.403 187.264   1
  12 -12  -2 261.685 181.478   2
 -12 -12   1 13.5362 139.894   1
  12 -12  -1 41.0928 58.6183   2
 -12 -12   0-42.3221 151.241   1
  12 -12   0-394.510 313.784   2
 -12 -12  -1 10.0657 120.173   1
  12 -12   1-293.021 293.023   2
  12 -12   2-37.1211 192.697   2
 -12 -12  -2-104.284 86.7721   3
  12 -12   3-156.434 278.716   2
 -12 -12  -3 139.791 253.041   3
  12 -12   4-92.0085 137.070   2
 -12 -12  -4 68.1435 89.3750   3
  12 -12   5-129.048 237.731   2
 -12 -12  -5 89.9749 180.903   3
  12 -12   6-355.936 421.888   2
 -12 -12  -6 18.0478 183.088   3
  12 -12   7-228.220 365.600   2
 -12 -12  -7 154.723 274.588   3
 -12 -12  -8 93.1578 15.7095   3
 -12 -11   9 198.879 91.0789   1
 -12 -11   8 172.928 284.294   1
 -12 -11   7 135.209 304.949   1
 -12 -11   6 411.634 353.211   1
 -12 -11   5-80.7238 34.0672   1
 -12 -11   4 50.0897 186.572   1
 -12 -11   3 98.5598 125.257   1
  12 -11  -3 352.259 250.356   2
 -12 -11   2-41.8632 122.498   1
  12 -11  -2 210.508 261.468   2
 -12 -11   1 163.280 183.245   1
  12 -11  -1-89.7385 120.117   2
 -12 -11   0 94.0912 190.810   1
  12 -11   0-332.496 292.379   2
 -12 -11  -1 166.890 188.294   1
  12 -11   1-129.370 249.676   2
  12 -11   2-470.053 403.229   2
 -12 -11  -2 117.750 195.309   3
  12 -11   3-109.458 182.886   2
 -12 -11  -3 240.228 265.305   3
  12 -11   4-171.071 307.564   2
 -12 -11  -4 339.739 302.718   3
  12 -11   5 27.8256 126.485   2
 -12 -11  -5 107.205 182.777   3
  12 -11   6-337.154 355.734   2
 -12 -11  -6-123.939 183.007   3
  12 -11   7-419.007 341.969   2
 -12 -11  -7 425.780 332.320   3
 -12 -11  -8 40.6370 83.3767   3
 -12 -10   9-310.278 258.506   1
 -12 -10   8 516.605 506.580   1
 -12 -10   7 223.075 302.287   1
 -12 -10   6 80.1045 194.257   1
 -12 -10   5-214.535 272.047   1
 -12 -10   4-63.2031 134.443   1
 -12 -10   3-66.0135 96.4717   1
  12 -10  -3 391.101 283.983   2
 -12 -10   2 16.8122 78.4342   1
  12 -10  -2 350.073 222.824   2
 -12 -10   1 441.054 262.141   1
  12 -10  -1 76.7860 52.2962   2
 -12 -10   0 148.739 218.842   1
  12 -10   0 131.785 61.4270   2
 -12 -10  -1-25.1210 60.0034   1
  12 -10   1-217.289 283.740   2
  12 -10   2-343.373 373.431   2
  12 -10   3-257.328 316.895   2
 -12 -10  -3 87.1467 184.976   3
  12 -10   4-477.645 330.930   2
 -12 -10  -4 165.404 269.200   3
  12 -10   5-155.965 172.127   2
 -12 -10  -5-110.302 166.488   3
  12 -10   6-147.187 305.073   2
 -12 -10  -6 243.550 289.027   3
  12 -10   7-415.541 410.866   2
 -12 -10  -7 87.3440 206.054   3
 -12  -9   9 170.594 191.956   1
 -12  -9   8 315.071 319.975   1
 -12  -9   7 100.660 266.296   1
 -12  -9   6 22.5602 194.457   1
 -12  -9   5 39.6457 180.047   1
 -12  -9   4-315.436 238.766   1
 -12  -9   3 378.488 298.798   1
  12  -9  -3 339.699 299.420   2
 -12  -9   2-92.7563 174.058   1
  12  -9  -2 45.5696 110.872   2
 -12  -9   1 129.772 186.103   1
  12  -9  -1 50.9800 138.785   2
 -12  -9   0 40.6258 216.000   1
  12  -9   0 26.6834 84.3713   2
 -12  -9  -1 159.544 161.193   1
  12  -9   1-213.741 251.272   2
  12  -9   2-618.353 394.453   2
  12  -9   3-425.038 398.897   2
 -12  -9  -3-231.458 269.353   3
  12  -9   4-41.5998 212.801   2
 -12  -9  -4 273.949 290.971   3
  12  -9   5-425.242 355.138   2
 -12  -9  -5 54.7303 96.6768   3
  12  -9   6-326.555 304.892   2
 -12  -9  -6 176.177 248.318   3
  12  -9   7-259.369 240.891   2
 -12  -9  -7 103.285 235.099   3
 -12  -8   9 153.038 287.567   1
 -12  -8   8-287.721 241.249   1
 -12  -8   7 608.943 391.951   1
 -12  -8   6 154.677 298.911   1
 -12  -8   5 52.1697 128.469   1
 -12  -8   4 89.0747 159.328   1
 -12  -8   3 278.829 304.474   1
 -12  -8   2 18.3392 253.589   1
  12  -8  -2 112.615 196.670   2
 -12  -8   1 83.5156 106.227   1
  12  -8  -1-25.0652 58.8506   2
 -12  -8   0 727.111 379.953   1
  12  -8   0 423.752 241.191   2
 -12  -8  -1 178.835 168.302   1
  12  -8   1 164.274 101.741   2
  12  -8   2-324.299 295.045   2
  12  -8   3-259.609 245.406   2
 -12  -8  -3 239.073 255.597   3
  12  -8   4-596.424 339.202   2
 -12  -8  -4 97.5377 218.465   3
  12  -8   5-438.237 416.904   2
 -12  -8  -5 226.667 188.488   3
  12  -8   6-387.246 358.940   2
 -12  -8  -6 20.3128 122.539   3
  12  -8   7-356.984 319.316   2
 -12  -8  -7 4.14504 33.5029   3
 -12  -7   9-25.2168 217.696   1
 -12  -7   8-154.555 50.1159   1
 -12  -7   7 66.0390 287.186   1
 -12  -7   6 203.839 260.373   1
 -12  -7   5-43.8655 50.4239   1
 -12  -7   4-175.838 205.729   1
 -12  -7   3 132.698 231.854   1
 -12  -7   2-105.757 101.642   1
  12  -7  -2 436.500 310.992   2
 -12  -7   1 89.0576 139.423   1
  12  -7  -1 98.3849 168.842   2
 -12  -7   0 145.183 240.066   1
  12  -7   0 94.0578 215.151   2
  12  -7   1-192.236 166.672   2
 -12  -7  -1 58.5522 60.6545   1
  12  -7   2-58.6880 184.931   2
  12  -7   3-118.992 236.673   2
 -12  -7  -3 233.295 213.566   3
  12  -7   4-125.182 246.709   2
 -12  -7  -4 372.689 190.316   3
  12  -7   5-501.132 396.775   2
 -12  -7  -5-43.4867 51.3840   3
  12  -7   6-350.132 281.680   2
 -12  -7  -6-30.6113 100.858   3
  12  -7   7-570.242 432.540   2
 -12  -7  -7-84.0778 106.855   3
 -12  -6   9 204.466 179.136   1
 -12  -6   8 367.098 325.475   1
 -12  -6   7-161.492 149.768   1
 -12  -6   6 306.797 258.199   1
 -12  -6   5 160.153 207.666   1
 -12  -6   4 37.7822 218.747   1
 -12  -6   3 175.525 210.981   1
 -12  -6   2-211.858 176.255   1
  12  -6  -2 238.350 282.238   2
 -12  -6   1 279.114 181.007   1
  12  -6  -1 215.826 225.644   2
 -12  -6   0 215.352 134.586   1
  12  -6   0 358.046 243.690   2
  12  -6   1 61.3564 107.350   2
 -12  -6  -1 67.5044 133.048   1
  12  -6   2 217.213 42.5599   2
  12  -6   3-528.289 364.838   2
 -12  -6  -3-106.203 157.016   3
  12  -6   4 150.999 34.2775   2
 -12  -6  -4-156.117 210.963   3
  12  -6   5-245.449 230.919   2
 -12  -6  -5 249.919 208.378   3
  12  -6   6-76.3152 302.414   2
 -12  -6  -6 138.023 205.425   3
  12  -6   7-540.977 421.925   2
 -12  -5   9 21.2828 215.914   1
 -12  -5   8 234.669 336.772   1
 -12  -5   7 159.433 302.067   1
 -12  -5   6-57.2295 139.642   1
 -12  -5   5-36.0617 103.464   1
 -12  -5   4 9.15691 61.0707   1
 -12  -5   3 297.051 280.194   1
 -12  -5   2 218.563 87.5056   1
  12  -5  -2 635.455 404.394   2
  12  -5  -1 174.704 226.115   2
 -12  -5   1 296.546 211.254   1
  12  -5   0 208.531 260.875   2
 -12  -5   0 122.517 137.591   1
  12  -5   1-72.9162 112.143   2
 -12  -5  -1 113.557 158.766   1
  12  -5   2-180.538 147.096   2
  12  -5   3 148.163 58.8286   2
  12  -5   4-13.8360 133.232   2
 -12  -5  -4-95.2628 136.735   3
  12  -5   5-99.5104 242.443   2
 -12  -5  -5 291.381 285.489   3
  12  -5   6-491.535 405.274   2
 -12  -5  -6 13.8142 151.636   3
  12  -5   7-356.440 378.347   2
 -12  -4   9 53.1510 145.664   1
 -12  -4   8-35.7517 121.069   1
 -12  -4   7 93.7696 127.228   1
 -12  -4   6 164.214 161.364   1
 -12  -4   5-181.607 214.259   1
 -12  -4   4 55.4284 140.276   1
 -12  -4   3 64.6267 204.400   1
 -12  -4   2 95.3197 124.028   1
  12  -4  -1 188.985 251.362   2
 -12  -4   1-269.573 224.083   1
  12  -4   0 176.762 162.825   2
 -12  -4   0-46.0234 92.7206   1
  12  -4   1 145.797 211.573   2
 -12  -4  -1 165.238 151.057   1
  12  -4   2-40.3204 115.797   2
  12  -4   3-322.069 223.784   2
  12  -4   4-119.251 115.037   2
 -12  -4  -4 117.577 190.415   3
  12  -4   5-60.4323 166.703   2
 -12  -4  -5 347.426 274.045   3
  12  -4   6-364.541 322.103   2
 -12  -4  -6 84.7484 128.037   3
  12  -4   7-357.474 336.647   2
 -12  -3  10-10.4720 240.321   1
 -12  -3   9-73.3224 120.261   1
 -12  -3   8-2.55608 197.830   1
 -12  -3   7 149.807 98.6013   1
 -12  -3   6 69.7895 209.388   1
 -12  -3   5 170.188 262.005   1
 -12  -3   4-8.32426 155.827   1
 -12  -3   3 65.5140 221.098   1
 -12  -3   2 464.478 300.527   1
  12  -3  -1 520.725 336.631   2
 -12  -3   1-153.656 216.749   1
  12  -3   0 63.7658 259.349   2
 -12  -3   0-24.2050 73.8411   1
  12  -3   1 115.337 207.621   2
 -12  -3  -1 81.2420 170.320   1
  12  -3   2 542.828 340.749   2
  12  -3   3 91.7723 78.4503   2
  12  -3   4 53.8675 94.4061   2
 -12  -3  -4 209.119 235.353   3
  12  -3   5 102.449 211.846   2
 -12  -3  -5 278.751 200.467   3
  12  -3   6-68.4980 197.959   2
 -12  -3  -6 224.876 217.897   3
  12  -3   7-319.613 332.638   2
 -12  -2  10 318.694 208.854   1
 -12  -2   9-85.7573 95.9724   1
 -12  -2   8-153.339 170.260   1
 -12  -2   7 56.8945 197.409   1
 -12  -2   6 105.658 197.992   1
 -12  -2   5 265.419 272.054   1
 -12  -2   4-24.9365 108.688   1
 -12  -2   3 301.790 248.493   1
 -12  -2   2 31.0894 224.739   1
  12  -2  -1 556.556 372.510   2
 -12  -2   1-49.2252 111.447   1
  12  -2   0 523.674 317.361   2
 -12  -2   0 80.2277 141.697   1
  12  -2   1 200.198 264.236   2
 -12  -2  -1 155.123 108.713   1
  12  -2   2 222.452 256.333   2
  12  -2   3-37.4620 78.2033   2
  12  -2   4 97.2173 211.968   2
 -12  -2  -4 424.947 324.288   3
  12  -2   5 66.3280 71.6742   2
 -12  -2  -5 355.096 263.336   3
  12  -2   6-161.880 205.339   2
  12  -2   7-183.293 317.199   2
 -12  -1  10 190.011 315.911   1
 -12  -1   9 345.018 259.257   1
 -12  -1   8-305.896 306.808   1
 -12  -1   7 83.4957 186.602   1
 -12  -1   6-123.281 153.727   1
 -12  -1   5-52.6748 10.3322   1
 -12  -1   4 19.6405 171.851   1
 -12  -1   3 197.755 279.253   1
 -12  -1   2 185.639 170.996   1
 -12  -1   1 143.878 227.511   1
  12  -1   0 616.130 395.658   2
 -12  -1   0 41.2090 72.1889   1
  12  -1   1 136.370 196.404   2
  12  -1   2 270.662 273.406   2
  12  -1   3 285.385 267.138   2
  12  -1   4 97.7499 126.781   2
 -12  -1  -4 150.613 187.600   3
  12  -1   5-398.580 272.121   2
 -12  -1  -5 126.650 189.425   3
  12  -1   6-13.4567 160.464   2
  12  -1   7 62.5467 131.054   2
 -12   0  10 161.133 72.9370   1
 -12   0   9-64.0955 66.2774   1
 -12   0   8-177.247 321.321   1
 -12   0   7 213.507 226.380   1
 -12   0   6 224.360 219.987   1
 -12   0   5 131.706 158.414   1
 -12   0   4 436.697 270.325   1
 -12   0   3 55.8840 181.774   1
 -12   0   2 218.372 233.824   1
 -12   0   1 701.862 371.651   1
  12   0   0 638.374 374.695   2
  12   0   1 300.941 281.602   2
  12   0   2 289.363 195.688   2
  12   0   3 444.254 304.022   2
  12   0   4-30.8510 106.009   2
 -12   0  -4-262.078 253.590   3
  12   0   5-163.129 277.886   2
 -12   0  -5 268.233 154.175   3
  12   0   6 277.676 174.520   2
  12   0   7 130.324 181.533   2
  12   0   8-18.4789 82.0542   2
 -12   1  10-51.9786 100.922   1
 -12   1   9-195.339 283.705   1
 -12   1   8-176.496 299.636   1
 -12   1   7 205.264 315.753   1
 -12   1   6 45.6368 173.376   1
 -12   1   5-154.482 189.631   1
 -12   1   4-23.0120 251.376   1
 -12   1   3-172.994 146.995   1
 -12   1   2-55.2223 41.0128   1
 -12   1   1 203.096 207.212   1
  12   1   1 402.091 337.629   2
  12   1   2 14.3125 247.583   2
  12   1   3 435.684 305.578   2
  12   1   4 754.673 400.746   2
 -12   1  -4 181.915 171.458   3
  12   1   5-194.711 38.0974   2
  12   1   6-42.6398 103.113   2
  12   1   7-262.064 250.570   2
 -12   2  10-32.1937 69.2748   1
 -12   2   9 69.9945 124.926   1
 -12   2   8-61.5952 73.5064   1
 -12   2   7 458.855 367.435   1
 -12   2   6 83.9712 206.297   1
 -12   2   5 84.5047 118.439   1
 -12   2   4 248.710 266.932   1
 -12   2   3 101.539 135.221   1
 -12   2   2 13.8887 149.755   1
  12   2   1 869.703 434.404   2
  12   2   2 540.371 362.768   2
  12   2   3 241.247 288.655   2
  12   2   4 556.378 373.329   2
 -12   2  -4 325.658 232.355   3
  12   2   5 410.122 314.767   2
  12   2   6 367.335 331.751   2
  12   2   7 223.152 261.007   2
 -12   3  10-128.175 180.981   1
 -12   3   9 70.5396 312.124   1
 -12   3   8 64.9673 247.341   1
 -12   3   7 46.5518 192.440   1
 -12   3   6 411.652 230.537   1
 -12   3   5 128.413 238.555   1
 -12   3   4 262.992 241.770   1
 -12   3   3-66.7672 138.802   1
  12   3   2 884.292 446.337   2
  12   3   3 319.365 329.916   2
  12   3   4 208.012 185.253   2
 -12   3  -4 228.500 203.577   3
  12   3   5 295.202 318.088   2
  12   3   6 215.570 261.850   2
  12   3   7 400.120 348.394   2
 -12   4   9 209.046 172.625   1
 -12   4   8 347.548 305.923   1
 -12   4   7 227.425 237.840   1
 -12   4   6-69.0478 226.891   1
 -12   4   5 197.015 225.362   1
  12   4   2 845.586 473.081   2
  12   4   3 620.472 380.006   2
  12   4   4 319.469 300.047   2
  12   4   5 675.618 391.640   2
  12   4   6 119.476 211.418   2
  12   4   7 478.721 353.765   2
 -12   5   9 250.114 291.300   1
 -12   5   8 174.822 279.896   1
 -12   5   7 257.535 283.567   1
  12   5   3 982.210 499.631   2
  12   5   4 532.221 365.670   2
  12   5   5 324.967 334.819   2
  12   5   6 481.165 345.279   2
  12   5   7 778.441 471.360   2
  12   6   4 886.190 467.617   2
  12   6   5 586.055 399.726   2
  12   6   6 389.679 364.008   2
  12   6   7 593.575 450.865   2
  12   7   5 1149.35 530.672   2
  12   7   6 629.745 454.769   2
  12   7   7 1098.80 571.893   2
  12   8   6 674.341 435.119   2
  12   8   7 1148.84 577.990   2
  12   9   7 1219.11 607.840   2
 -13 -27   2 166.625 378.598   1
 -13 -26   2-209.768 235.970   1
 -13 -25   3 134.418 334.233   1
 -13 -25   2 170.566 165.242   1
 -13 -24   3 448.623 499.224   1
 -13 -24   2 405.714 466.773   1
 -13 -24   1 203.760 261.952   1
 -13 -23   4-146.098 47.1759   1
 -13 -23   3 600.719 353.141   1
 -13 -23   2-179.220 198.196   1
 -13 -23   1 330.244 266.050   1
  13 -23   1-170.613 180.918   2
 -13 -22   4 167.886 306.841   1
 -13 -22   3 175.213 336.099   1
 -13 -22   2 386.333 419.868   1
 -13 -22   1-226.134 259.151   1
  13 -22   1-145.139 206.453   2
 -13 -21   5-51.4003 271.041   1
 -13 -21   4 316.926 294.484   1
 -13 -21   3 65.8150 255.442   1
 -13 -21   2 61.5675 144.322   1
 -13 -21   1-40.8862 237.727   1
  13 -21   0-487.653 434.457   2
  13 -21   1-125.028 225.038   2
  13 -21   2-168.404 318.970   2
 -13 -20   5 20.1564 268.801   1
 -13 -20   4 307.964 389.022   1
 -13 -20   3 158.560 225.819   1
 -13 -20   2 95.3676 191.626   1
 -13 -20   1 120.327 170.910   1
  13 -20   0-595.013 348.137   2
 -13 -20   0 84.7241 170.707   3
  13 -20   1-395.246 365.571   2
 -13 -20  -1-363.506 406.230   3
  13 -20   2-117.508 282.963   2
  13 -20   3-368.455 394.861   2
 -13 -19   5 27.3405 206.130   1
 -13 -19   4-54.4464 85.9744   1
 -13 -19   3 350.001 425.742   1
 -13 -19   2 20.0150 75.7686   1
 -13 -19   1 241.764 301.784   1
  13 -19   0-307.587 345.601   2
 -13 -19   0 197.604 309.462   3
  13 -19   1-286.741 329.241   2
 -13 -19  -1 14.8360 234.558   3
  13 -19   2-325.062 316.485   2
 -13 -19  -2 231.389 337.908   3
  13 -19   3-456.558 424.437   2
 -13 -19  -3 295.964 313.224   3
  13 -19   4-777.092 485.027   2
 -13 -19  -4 158.896 363.006   3
 -13 -18   6-49.0869 149.540   1
 -13 -18   5 379.503 354.564   1
 -13 -18   4-19.1351 227.510   1
 -13 -18   3 441.464 395.788   1
 -13 -18   2-21.3614 137.200   1
 -13 -18   1-67.4931 140.243   1
  13 -18  -1-375.841 361.699   2
  13 -18   0-389.498 373.182   2
 -13 -18   0 55.9029 147.723   3
  13 -18   1-714.282 495.268   2
 -13 -18  -1 222.395 230.937   3
  13 -18   2-80.3469 188.304   2
 -13 -18  -2 446.277 408.466   3
  13 -18   3-632.590 440.669   2
 -13 -18  -3-21.5234 245.010   3
  13 -18   4-361.542 327.726   2
 -13 -18  -4-420.155 377.269   3
 -13 -18  -5 13.8411 291.854   3
 -13 -17   6 31.6853 44.9798   1
 -13 -17   5-52.0829 32.5125   1
 -13 -17   4 100.680 164.508   1
 -13 -17   3 275.827 198.634   1
 -13 -17   2-92.9988 223.398   1
 -13 -17   1-83.0761 203.966   1
  13 -17  -1-85.4259 188.163   2
  13 -17   0-303.037 307.205   2
  13 -17   1-707.045 450.040   2
 -13 -17  -1 23.9306 236.366   3
  13 -17   2 140.152 184.727   2
 -13 -17  -2 298.918 426.500   3
  13 -17   3-487.046 408.080   2
 -13 -17  -3 223.207 278.912   3
  13 -17   4-472.771 389.681   2
 -13 -17  -4 202.737 363.089   3
 -13 -17  -5 310.378 264.142   3
 -13 -17  -6 34.6622 91.2454   3
 -13 -16   6 405.143 445.225   1
 -13 -16   5-98.8571 344.955   1
 -13 -16   4 86.6902 201.525   1
 -13 -16   3 213.048 283.677   1
 -13 -16   2-55.9542 196.258   1
 -13 -16   1-71.1351 215.673   1
  13 -16  -1-75.3096 270.272   2
  13 -16   0-156.026 215.646   2
  13 -16   1-267.871 272.199   2
 -13 -16  -1 124.637 330.810   3
  13 -16   2-144.470 245.697   2
 -13 -16  -2 52.2232 196.939   3
  13 -16   3-147.303 329.345   2
 -13 -16  -3 10.8870 223.931   3
  13 -16   4-623.586 454.385   2
 -13 -16  -4 331.013 315.086   3
 -13 -16  -5 105.630 282.384   3
 -13 -16  -6 26.4273 128.721   3
 -13 -16  -7 144.876 216.248   3
 -13 -15   7-21.0114 122.754   1
 -13 -15   6 347.672 364.432   1
 -13 -15   5-70.6383 180.809   1
 -13 -15   4-128.103 83.3177   1
 -13 -15   3 80.0752 298.134   1
 -13 -15   2-132.901 309.701   1
  13 -15  -2 67.7599 110.544   2
 -13 -15   1 265.353 165.976   1
  13 -15  -1-26.3075 67.0404   2
  13 -15   0-74.5472 169.363   2
  13 -15   1-213.737 306.941   2
 -13 -15  -1 522.518 435.061   3
  13 -15   2-428.750 407.280   2
 -13 -15  -2 123.423 226.247   3
  13 -15   3-408.112 383.226   2
 -13 -15  -3 147.591 158.008   3
  13 -15   4-678.735 456.507   2
 -13 -15  -4 229.873 335.331   3
  13 -15   5-269.240 302.994   2
 -13 -15  -5 60.0789 292.887   3
 -13 -15  -6-35.1011 291.520   3
 -13 -15  -7 289.094 281.220   3
 -13 -14   7 98.9630 298.211   1
 -13 -14   6-53.5719 251.573   1
 -13 -14   5-105.136 273.385   1
 -13 -14   4 375.150 381.578   1
 -13 -14   3 590.659 374.031   1
 -13 -14   2-99.3937 168.570   1
  13 -14  -2-107.619 118.077   2
 -13 -14   1 185.059 203.835   1
  13 -14  -1-30.6630 187.627   2
  13 -14   0-78.6130 165.589   2
  13 -14   1-436.669 368.523   2
  13 -14   2-449.249 412.569   2
 -13 -14  -2 9.14030 123.304   3
  13 -14   3-63.7160 161.524   2
 -13 -14  -3 101.349 174.315   3
  13 -14   4-364.840 337.560   2
 -13 -14  -4 47.0226 181.617   3
  13 -14   5-437.274 422.668   2
 -13 -14  -5-57.6865 61.1353   3
 -13 -14  -6 227.179 258.597   3
 -13 -14  -7-334.777 285.207   3
 -13 -13   7 125.553 24.8880   1
 -13 -13   6 141.519 257.389   1
 -13 -13   5 92.4662 180.741   1
 -13 -13   4 487.621 394.680   1
 -13 -13   3-113.064 145.889   1
 -13 -13   2 204.012 219.751   1
  13 -13  -2-137.702 62.1069   2
 -13 -13   1 245.556 215.730   1
  13 -13  -1-137.413 141.226   2
 -13 -13   0 266.403 222.378   1
  13 -13   0 253.882 263.185   2
  13 -13   1-320.132 274.847   2
  13 -13   2-326.791 322.962   2
 -13 -13  -2 134.910 320.490   3
  13 -13   3-28.9682 217.231   2
 -13 -13  -3 406.275 336.240   3
  13 -13   4-491.570 347.042   2
 -13 -13  -4-72.2688 166.521   3
  13 -13   5-307.560 302.916   2
 -13 -13  -5 83.1304 263.032   3
 -13 -13  -6-399.918 377.374   3
 -13 -13  -7 106.368 271.097   3
 -13 -12   7-125.319 117.444   1
 -13 -12   6 249.095 295.825   1
 -13 -12   5 47.5879 162.009   1
 -13 -12   4 373.930 364.771   1
 -13 -12   3-41.2142 234.688   1
 -13 -12   2-214.025 284.424   1
  13 -12  -2 147.054 160.951   2
 -13 -12   1-75.4983 118.459   1
  13 -12  -1-17.2251 87.2345   2
 -13 -12   0 116.233 187.473   1
  13 -12   0 96.7606 82.9812   2
  13 -12   1-43.9907 57.5659   2
  13 -12   2 36.9770 108.869   2
 -13 -12  -2-41.0763 85.9406   3
  13 -12   3-118.163 225.727   2
 -13 -12  -3 364.177 404.525   3
  13 -12   4-658.124 377.379   2
 -13 -12  -4-227.567 268.047   3
  13 -12   5-507.511 368.799   2
 -13 -12  -5 189.404 308.761   3
 -13 -12  -6-189.064 257.864   3
 -13 -12  -7 379.328 390.462   3
 -13 -11   7-142.656 157.238   1
 -13 -11   6-164.084 238.038   1
 -13 -11   5-180.324 194.656   1
 -13 -11   4 315.240 294.212   1
 -13 -11   3-82.6988 88.5887   1
  13 -11  -3 496.327 386.474   2
 -13 -11   2 10.1541 15.0515   1
  13 -11  -2 140.896 245.257   2
 -13 -11   1-55.9271 76.3818   1
  13 -11  -1-73.9213 58.8465   2
 -13 -11   0 387.222 228.002   1
  13 -11   0-199.652 196.013   2
  13 -11   1 294.663 178.205   2
  13 -11   2-207.612 230.202   2
 -13 -11  -2 282.846 310.321   3
  13 -11   3-417.982 333.750   2
 -13 -11  -3-175.490 142.364   3
  13 -11   4-223.245 349.542   2
 -13 -11  -4-34.1505 119.555   3
  13 -11   5-883.971 557.259   2
 -13 -11  -5 272.838 334.779   3
 -13 -11  -6-49.5839 141.059   3
 -13 -11  -7 225.926 284.249   3
 -13 -10   8 63.8717 422.732   1
 -13 -10   7 167.321 91.9361   1
 -13 -10   6-33.7407 255.197   1
 -13 -10   5 146.917 131.948   1
 -13 -10   4 223.121 306.321   1
 -13 -10   3-1.92616 176.999   1
 -13 -10   2 18.0496 237.321   1
  13 -10  -2 493.739 317.712   2
 -13 -10   1 211.617 172.080   1
  13 -10  -1 85.8124 194.830   2
 -13 -10   0 107.932 161.771   1
  13 -10   0-10.8776 159.931   2
  13 -10   1-247.460 211.999   2
  13 -10   2-205.447 260.128   2
 -13 -10  -2-55.9462 238.390   3
  13 -10   3-395.129 378.513   2
 -13 -10  -3 255.150 318.196   3
  13 -10   4-89.1478 233.732   2
 -13 -10  -4 491.789 309.402   3
  13 -10   5-351.332 393.106   2
 -13 -10  -5 13.6366 142.821   3
 -13 -10  -6 157.454 215.828   3
 -13  -9   8 191.861 46.4588   1
 -13  -9   7-24.6205 269.453   1
 -13  -9   6 306.194 393.999   1
 -13  -9   5-119.277 107.342   1
 -13  -9   4-46.4876 107.770   1
 -13  -9   3-13.1585 277.778   1
 -13  -9   2 283.232 257.604   1
  13  -9  -2 535.501 353.123   2
 -13  -9   1 13.4041 232.506   1
  13  -9  -1 79.3922 199.182   2
 -13  -9   0 78.4821 151.041   1
  13  -9   0 171.879 231.075   2
  13  -9   1 105.870 97.6603   2
  13  -9   2 74.4850 123.491   2
  13  -9   3-79.6361 167.480   2
 -13  -9  -3 11.9622 160.827   3
  13  -9   4-269.360 312.119   2
 -13  -9  -4 164.921 229.294   3
  13  -9   5-539.198 448.844   2
 -13  -9  -5-321.827 234.297   3
 -13  -9  -6 319.050 289.430   3
 -13  -8   8-46.6066 128.147   1
 -13  -8   7-11.7733 204.607   1
 -13  -8   6 376.384 363.009   1
 -13  -8   5-27.0007 203.899   1
 -13  -8   4-217.057 197.090   1
 -13  -8   3 347.823 284.054   1
 -13  -8   2 189.005 232.332   1
  13  -8  -2 584.903 395.761   2
 -13  -8   1 22.8352 153.276   1
  13  -8  -1 247.690 223.634   2
 -13  -8   0 184.769 194.536   1
  13  -8   0 167.549 228.571   2
  13  -8   1 105.232 204.364   2
  13  -8   2-244.267 267.944   2
  13  -8   3-225.632 248.223   2
 -13  -8  -3 88.5118 257.832   3
  13  -8   4-404.304 321.886   2
 -13  -8  -4 145.132 184.025   3
  13  -8   5-678.573 500.378   2
 -13  -8  -5-47.9662 34.7674   3
  13  -8   6-110.610 226.792   2
 -13  -8  -6-67.2498 120.215   3
 -13  -7   8-210.620 278.995   1
 -13  -7   7-152.091 157.736   1
 -13  -7   6-166.206 245.314   1
 -13  -7   5 160.497 327.774   1
 -13  -7   4 128.216 83.3416   1
 -13  -7   3 106.843 305.476   1
 -13  -7   2 114.737 99.9624   1
  13  -7  -2 552.025 401.556   2
 -13  -7   1 387.099 240.413   1
  13  -7  -1 541.884 366.922   2
  13  -7   0 236.343 251.616   2
 -13  -7   0 215.307 271.042   1
  13  -7   1-13.1152 104.448   2
  13  -7   2 65.0874 192.900   2
  13  -7   3-2.70682 90.4872   2
 -13  -7  -3 844.887 460.867   3
  13  -7   4-111.517 255.180   2
 -13  -7  -4 216.407 172.313   3
  13  -7   5-163.985 284.487   2
 -13  -7  -5 72.4087 194.920   3
  13  -7   6-542.653 329.247   2
 -13  -7  -6 204.105 274.698   3
 -13  -6   8 8.15596 288.471   1
 -13  -6   7 55.8322 146.877   1
 -13  -6   6 135.118 174.797   1
 -13  -6   5 94.6023 211.378   1
 -13  -6   4 175.237 242.391   1
 -13  -6   3 225.892 193.440   1
 -13  -6   2 272.459 286.998   1
  13  -6  -1 819.257 420.946   2
 -13  -6   1-133.705 4.98099   1
  13  -6   0 268.279 256.017   2
 -13  -6   0 57.4570 199.880   1
  13  -6   1 148.796 166.003   2
  13  -6   2 290.811 281.281   2
  13  -6   3 307.573 182.685   2
 -13  -6  -3 281.801 288.372   3
  13  -6   4 163.162 225.160   2
 -13  -6  -4 386.756 289.960   3
  13  -6   5 191.843 152.721   2
 -13  -6  -5 39.2098 124.721   3
  13  -6   6 31.8300 199.867   2
 -13  -5   8 363.977 328.278   1
 -13  -5   7 236.367 193.208   1
 -13  -5   6 137.264 267.945   1
 -13  -5   5-115.341 197.064   1
 -13  -5   4 25.9362 15.2778   1
 -13  -5   3-79.8497 132.522   1
 -13  -5   2 395.245 301.210   1
  13  -5  -1 551.740 421.152   2
 -13  -5   1 11.6336 137.580   1
  13  -5   0 173.016 266.767   2
 -13  -5   0-181.065 241.673   1
  13  -5   1 69.5514 185.407   2
  13  -5   2 22.9690 208.553   2
  13  -5   3-86.9538 19.7672   2
 -13  -5  -3 159.934 183.532   3
  13  -5   4-81.7206 175.524   2
 -13  -5  -4 358.710 284.374   3
  13  -5   5 129.868 110.518   2
 -13  -5  -5 339.366 268.818   3
  13  -5   6-240.564 127.735   2
 -13  -4   8 207.418 375.714   1
 -13  -4   7-82.7409 66.6449   1
 -13  -4   6-0.42896 166.423   1
 -13  -4   5-129.394 175.145   1
 -13  -4   4-213.059 289.116   1
 -13  -4   3 61.4038 183.563   1
 -13  -4   2-151.778 79.3351   1
  13  -4  -1 720.802 407.042   2
 -13  -4   1 259.835 213.645   1
  13  -4   0 219.149 245.326   2
 -13  -4   0-42.9313 87.1050   1
  13  -4   1 89.2967 99.1616   2
  13  -4   2 301.416 216.418   2
  13  -4   3 296.542 317.324   2
  13  -4   4 125.201 284.660   2
 -13  -4  -4 27.6090 247.492   3
  13  -4   5-267.660 272.845   2
 -13  -4  -5 288.444 290.620   3
  13  -4   6 30.6800 162.759   2
 -13  -3   8 111.554 254.098   1
 -13  -3   7 260.307 276.748   1
 -13  -3   6 84.8739 32.2984   1
 -13  -3   5 238.035 255.442   1
 -13  -3   4-154.201 231.998   1
 -13  -3   3 166.036 233.269   1
 -13  -3   2 45.5856 195.771   1
 -13  -3   1-74.8836 109.559   1
  13  -3   0 411.905 322.593   2
 -13  -3   0 66.6639 79.8058   1
  13  -3   1-5.72665 174.319   2
  13  -3   2 98.6594 212.706   2
  13  -3   3 284.628 265.920   2
  13  -3   4 1113.23 476.145   2
 -13  -3  -4 307.216 306.276   3
  13  -3   5-417.955 307.874   2
 -13  -3  -5 25.6885 164.258   3
  13  -3   6 174.640 249.271   2
 -13  -2   8 118.985 171.919   1
 -13  -2   7 151.976 157.862   1
 -13  -2   6-126.498 257.942   1
 -13  -2   5 143.166 271.122   1
 -13  -2   4-85.3285 104.535   1
 -13  -2   3 182.683 192.026   1
 -13  -2   2-188.438 33.4460   1
 -13  -2   1-90.9951 127.017   1
  13  -2   0 460.749 349.617   2
 -13  -2   0-177.221 199.510   1
  13  -2   1 499.512 356.114   2
  13  -2   2 305.515 275.429   2
  13  -2   3-138.202 111.836   2
  13  -2   4 598.977 418.317   2
 -13  -2  -4 468.083 270.086   3
  13  -2   5-377.475 309.006   2
  13  -2   6-112.041 32.5600   2
 -13  -1   8-11.4139 154.193   1
 -13  -1   7-51.9964 122.894   1
 -13  -1   6-71.4443 148.008   1
 -13  -1   5 227.221 304.835   1
 -13  -1   4 209.541 61.3829   1
 -13  -1   3-129.212 207.683   1
 -13  -1   2 214.205 167.717   1
 -13  -1   1 109.758 131.796   1
  13  -1   0 805.829 429.239   2
  13  -1   1 699.996 439.710   2
  13  -1   2 341.059 312.408   2
  13  -1   3 177.718 217.193   2
  13  -1   4 148.150 229.689   2
 -13  -1  -4 149.567 245.538   3
  13  -1   5-162.096 216.666   2
  13  -1   6 217.867 272.376   2
 -13   0   8 185.984 261.673   1
 -13   0   7-193.141 217.363   1
 -13   0   6 378.469 349.714   1
 -13   0   5 174.700 236.697   1
 -13   0   4-240.136 253.055   1
 -13   0   3-40.0104 124.051   1
 -13   0   2 145.098 207.347   1
 -13   0   1 305.292 289.501   1
  13   0   1 688.283 453.914   2
  13   0   2 848.132 439.457   2
  13   0   3 356.213 309.587   2
  13   0   4 7.32773 125.744   2
 -13   0  -4 34.2874 87.0271   3
  13   0   5 287.941 258.997   2
  13   0   6 601.196 407.366   2
 -13   1   8 220.434 327.793   1
 -13   1   7 108.210 185.878   1
 -13   1   6-103.122 270.599   1
 -13   1   5-75.5152 45.3235   1
 -13   1   4 279.090 312.809   1
 -13   1   3-5.39671 49.0096   1
 -13   1   2 28.7702 140.702   1
  13   1   1 487.920 365.616   2
  13   1   2 806.822 471.115   2
  13   1   3 539.529 360.772   2
  13   1   4 12.3774 135.177   2
  13   1   5 464.534 382.704   2
  13   1   6 228.491 258.244   2
 -13   2   8 145.435 374.598   1
 -13   2   7 612.897 393.776   1
 -13   2   6 460.878 331.272   1
 -13   2   5 102.986 117.220   1
 -13   2   4 302.253 362.970   1
 -13   2   3 258.791 333.703   1
  13   2   2 929.863 488.781   2
  13   2   3 547.089 395.873   2
  13   2   4 532.082 385.465   2
  13   2   5 393.892 351.721   2
  13   2   6 435.578 360.037   2
 -13   3   8 536.916 442.549   1
 -13   3   7 29.4854 230.745   1
 -13   3   6 17.5690 190.688   1
 -13   3   5-227.759 216.994   1
  13   3   3 536.723 420.079   2
  13   3   4 564.372 434.581   2
  13   3   5 422.513 318.870   2
  13   3   6 288.094 372.646   2
 -13   4   8 148.983 343.023   1
 -13   4   7-34.6631 87.7440   1
  13   4   3 823.903 463.181   2
  13   4   4 852.273 487.120   2
  13   4   5 367.733 373.223   2
  13   4   6 344.446 401.124   2
  13   5   4 727.864 447.970   2
  13   5   5 689.628 447.753   2
  13   5   6 1052.49 501.299   2
  13   6   5 752.900 496.297   2
 -14 -22   3 384.468 479.785   1
 -14 -21   3 479.308 355.061   1
  14 -21   1-273.659 337.958   2
  14 -21   2-642.905 488.534   2
 -14 -20   4-155.888 130.598   1
 -14 -20   3 133.775 231.612   1
 -14 -20   2-254.688 195.945   1
  14 -20   1-499.920 424.061   2
  14 -20   2-882.431 513.309   2
 -14 -19   4-57.3236 282.228   1
 -14 -19   3 312.618 178.788   1
 -14 -19   2-144.241 62.0312   1
  14 -19   1-914.563 562.805   2
  14 -19   2-481.580 508.757   2
 -14 -18   4 83.7969 123.602   1
 -14 -18   3 39.3564 83.1368   1
 -14 -18   2 208.210 239.712   1
  14 -18   0-154.894 92.2221   2
  14 -18   1-433.881 487.027   2
  14 -18   2-335.960 323.495   2
 -14 -17   5-118.044 200.518   1
 -14 -17   4-108.537 259.820   1
 -14 -17   3 237.540 381.868   1
 -14 -17   2 157.410 84.7898   1
  14 -17   0 154.859 92.7643   2
  14 -17   1-454.990 386.514   2
  14 -17   2-205.439 284.146   2
  14 -17   3-282.632 384.814   2
 -14 -16   5 152.422 173.995   1
 -14 -16   4-188.034 261.706   1
 -14 -16   3 99.6187 114.458   1
 -14 -16   2-118.146 195.310   1
  14 -16   0-33.7100 229.115   2
  14 -16   1-300.334 327.692   2
  14 -16   2-431.174 452.438   2
  14 -16   3-446.542 370.199   2
 -14 -15   5 141.749 96.6331   1
 -14 -15   4 65.3852 190.443   1
 -14 -15   3 216.893 161.143   1
 -14 -15   2 258.502 302.063   1
  14 -15  -1 88.0561 130.746   2
  14 -15   0-113.851 151.601   2
  14 -15   1 88.9249 174.559   2
 -14 -15  -1-273.266 127.189   3
  14 -15   2-324.549 341.638   2
 -14 -15  -2 23.3693 307.992   3
  14 -15   3-368.180 322.889   2
 -14 -15  -3 73.7076 76.2205   3
 -14 -15  -4 187.317 248.735   3
 -14 -14   5-364.342 387.754   1
 -14 -14   4 173.656 286.714   1
 -14 -14   3-172.118 153.830   1
 -14 -14   2 193.436 194.434   1
  14 -14  -1 156.634 348.899   2
  14 -14   0 134.058 104.497   2
  14 -14   1-74.2484 223.030   2
 -14 -14  -1 582.992 433.549   3
  14 -14   2-411.657 315.886   2
 -14 -14  -2 297.285 352.537   3
  14 -14   3-421.920 435.729   2
 -14 -14  -3 191.516 180.659   3
 -14 -14  -4 68.1284 423.838   3
 -14 -14  -5 89.3777 300.634   3
 -14 -13   6-99.6553 158.022   1
 -14 -13   5 5.56492 91.4463   1
 -14 -13   4 132.491 125.681   1
 -14 -13   3-237.032 293.649   1
 -14 -13   2 180.381 320.774   1
  14 -13  -1 566.076 425.460   2
  14 -13   0-42.1678 77.1861   2
  14 -13   1 107.472 136.829   2
  14 -13   2-32.7129 195.050   2
 -14 -13  -2-40.6423 199.770   3
  14 -13   3-555.003 432.377   2
 -14 -13  -3-367.247 384.930   3
 -14 -13  -4 58.0081 247.886   3
 -14 -13  -5 269.731 359.677   3
 -14 -13  -6-306.235 344.085   3
 -14 -12   6 367.892 423.856   1
 -14 -12   5-113.773 86.1399   1
 -14 -12   4-105.203 100.254   1
 -14 -12   3-135.688 108.391   1
 -14 -12   2 435.448 355.010   1
  14 -12  -1 593.371 408.136   2
  14 -12   0-49.9126 93.3789   2
  14 -12   1-168.663 54.2510   2
  14 -12   2 233.784 197.406   2
 -14 -12  -2-135.064 219.566   3
  14 -12   3-522.703 388.484   2
 -14 -12  -3 4.45020 105.468   3
 -14 -12  -4 403.690 371.620   3
 -14 -12  -5 231.811 214.403   3
 -14 -12  -6 221.776 145.716   3
 -14 -11   6 233.082 282.736   1
 -14 -11   5 342.485 329.127   1
 -14 -11   4-169.584 174.688   1
 -14 -11   3 336.350 338.966   1
 -14 -11   2 53.9999 325.277   1
  14 -11  -2 545.393 380.594   2
  14 -11  -1 237.015 300.720   2
  14 -11   0 239.643 301.407   2
  14 -11   1 170.334 39.2547   2
  14 -11   2-119.981 248.791   2
 -14 -11  -2-94.1056 84.6644   3
  14 -11   3-146.724 349.011   2
 -14 -11  -3 223.613 218.924   3
  14 -11   4-153.403 120.020   2
 -14 -11  -4 3.83195 194.023   3
 -14 -11  -5 40.9313 210.657   3
 -14 -11  -6 266.688 255.290   3
 -14 -10   6 259.361 308.060   1
 -14 -10   5 308.135 430.554   1
 -14 -10   4 133.148 237.161   1
 -14 -10   3 430.090 431.341   1
 -14 -10   2 416.255 348.710   1
  14 -10  -2 361.851 361.108   2
  14 -10  -1 202.232 301.680   2
  14 -10   0 606.227 394.873   2
  14 -10   1 172.992 132.981   2
  14 -10   2 36.7342 144.428   2
 -14 -10  -2 354.646 395.539   3
  14 -10   3 248.702 224.602   2
 -14 -10  -3 388.827 380.396   3
  14 -10   4-24.6723 189.702   2
 -14 -10  -4 397.250 376.269   3
 -14 -10  -5 182.714 201.942   3
 -14  -9   6 333.648 335.730   1
 -14  -9   5 298.337 262.250   1
 -14  -9   4 207.129 287.934   1
 -14  -9   3 312.177 410.547   1
 -14  -9   2 10.7495 61.3575   1
  14  -9  -2 505.585 391.984   2
  14  -9  -1 365.319 380.125   2
  14  -9   0 318.712 308.188   2
  14  -9   1 437.634 364.602   2
  14  -9   2 413.124 324.050   2
 -14  -9  -2 468.234 384.265   3
  14  -9   3 124.003 189.559   2
 -14  -9  -3 47.3199 142.859   3
  14  -9   4-196.195 262.872   2
 -14  -9  -4 147.553 328.209   3
 -14  -9  -5-24.2113 34.2448   3
 -14  -8   7-375.049 392.227   1
 -14  -8   6 171.251 222.972   1
 -14  -8   5-51.4816 79.5782   1
 -14  -8   4 143.724 135.996   1
 -14  -8   3 100.174 208.803   1
 -14  -8   2 94.3722 100.331   1
  14  -8  -1 434.002 358.434   2
  14  -8   0 148.728 268.251   2
  14  -8   1 539.333 355.848   2
  14  -8   2 467.873 339.489   2
  14  -8   3-88.8292 203.852   2
 -14  -8  -3 17.7959 64.6633   3
  14  -8   4-68.8146 160.830   2
 -14  -8  -4 81.9310 75.5184   3
 -14  -8  -5-57.7583 183.747   3
 -14  -7   7 238.869 93.7877   1
 -14  -7   6 227.662 327.659   1
 -14  -7   5 19.9659 109.831   1
 -14  -7   4 95.8696 153.732   1
 -14  -7   3 142.043 234.722   1
 -14  -7   2 137.110 238.694   1
  14  -7  -1 716.919 428.674   2
 -14  -7   1 162.242 149.028   1
  14  -7   0 375.873 359.029   2
  14  -7   1 481.675 388.818   2
  14  -7   2 255.002 338.182   2
  14  -7   3-140.942 222.512   2
 -14  -7  -3 281.503 312.691   3
  14  -7   4 93.5666 154.318   2
 -14  -7  -4 220.887 227.915   3
 -14  -7  -5-17.1677 191.444   3
 -14  -6   7 272.842 321.441   1
 -14  -6   6 187.029 384.281   1
 -14  -6   5 42.8438 108.383   1
 -14  -6   4-103.316 183.021   1
 -14  -6   3 53.7358 246.534   1
 -14  -6   2-10.3723 188.892   1
  14  -6  -1 717.874 455.097   2
 -14  -6   1 67.9053 61.5559   1
  14  -6   0 573.751 416.448   2
  14  -6   1 380.494 359.925   2
  14  -6   2 354.619 303.086   2
  14  -6   3-7.67296 122.606   2
 -14  -6  -3 284.662 216.254   3
  14  -6   4 196.351 226.640   2
 -14  -6  -4 253.626 271.342   3
 -14  -5   7 79.2465 290.814   1
 -14  -5   6 364.083 446.453   1
 -14  -5   5 6.34729 274.265   1
 -14  -5   4-56.7194 91.4831   1
 -14  -5   3 154.075 178.119   1
 -14  -5   2 227.911 262.975   1
 -14  -5   1 135.028 215.583   1
  14  -5   0 717.825 403.984   2
  14  -5   1 398.159 405.546   2
  14  -5   2 699.014 419.846   2
  14  -5   3 11.2674 71.0559   2
 -14  -5  -3 66.6154 228.304   3
  14  -5   4 43.1185 198.860   2
 -14  -5  -4 47.3187 226.582   3
 -14  -4   7 160.281 324.560   1
 -14  -4   6 333.853 334.004   1
 -14  -4   5 249.936 289.611   1
 -14  -4   4 160.449 243.243   1
 -14  -4   3-34.2067 203.289   1
 -14  -4   2 267.404 304.857   1
 -14  -4   1-23.8296 163.318   1
  14  -4   0 582.901 423.272   2
  14  -4   1 297.780 292.753   2
  14  -4   2 834.357 411.369   2
  14  -4   3-73.8146 207.819   2
 -14  -4  -3-81.1256 101.801   3
  14  -4   4 8.89279 159.911   2
 -14  -4  -4 165.690 236.233   3
 -14  -3   7 118.726 300.500   1
 -14  -3   6 208.437 309.460   1
 -14  -3   5 69.5298 176.281   1
 -14  -3   4 414.608 297.509   1
 -14  -3   3 327.139 248.070   1
 -14  -3   2 159.313 204.408   1
 -14  -3   1 23.9032 148.343   1
  14  -3   0 659.378 496.950   2
  14  -3   1 558.897 425.867   2
  14  -3   2 346.204 366.872   2
  14  -3   3 390.046 354.400   2
 -14  -3  -3 153.852 278.886   3
  14  -3   4 422.596 350.571   2
 -14  -2   7-63.7889 62.9530   1
 -14  -2   6 437.361 403.226   1
 -14  -2   5-48.7709 172.236   1
 -14  -2   4 87.3776 224.410   1
 -14  -2   3-100.939 89.8001   1
 -14  -2   2-94.3516 133.783   1
 -14  -2   1-61.9922 71.9371   1
  14  -2   1 728.413 445.119   2
  14  -2   2 266.950 296.109   2
  14  -2   3 527.232 385.049   2
  14  -2   4 465.978 445.013   2
 -14  -1   7-159.438 338.933   1
 -14  -1   6 28.8625 248.083   1
 -14  -1   5 27.9094 112.360   1
 -14  -1   4-128.240 164.986   1
 -14  -1   3-59.5515 160.103   1
 -14  -1   2 86.9559 128.902   1
  14  -1   1 929.653 545.509   2
  14  -1   2 710.765 445.535   2
  14  -1   3 695.192 425.817   2
  14  -1   4 622.569 442.666   2
 -14   0   7 67.3488 139.027   1
 -14   0   6-217.368 313.293   1
 -14   0   5 136.737 231.184   1
 -14   0   4-295.544 289.938   1
 -14   0   3 368.720 317.271   1
  14   0   2 718.573 399.864   2
  14   0   3 692.495 451.737   2
  14   0   4 567.242 421.188   2
 -14   1   7 204.625 300.772   1
 -14   1   6-83.2133 230.565   1
 -14   1   5 223.929 305.035   1
 -14   1   4 43.8927 134.173   1
  14   1   2 607.835 469.214   2
  14   1   3 662.443 404.582   2
  14   1   4 579.704 436.668   2
 -14   2   7 357.013 379.042   1
 -14   2   6-9.07635 244.132   1
 -14   2   5 44.1235 122.418   1
  14   2   3 787.535 525.454   2
  14   2   4 1052.45 549.654   2
  14   3   4 1185.22 575.930   2
  14   4   4 1069.95 553.953   2
  15 -17   1-101.936 51.4551   2
  15 -16   1 403.193 222.687   2
 -15 -15   4-585.259 473.779   1
 -15 -15   3-3.22360 28.8681   1
  15 -15   1 15.7300 121.584   2
 -15 -14   4-288.717 260.552   1
 -15 -14   3 170.525 76.4826   1
  15 -14   0 163.271 258.914   2
  15 -14   1-360.443 335.669   2
 -15 -13   4-20.2287 268.414   1
 -15 -13   3-122.007 218.207   1
  15 -13   0 359.290 291.045   2
  15 -13   1 191.058 184.595   2
 -15 -12   4 103.187 189.263   1
 -15 -12   3-179.232 199.768   1
  15 -12   0 332.685 304.048   2
  15 -12   1 278.059 335.070   2
  15 -12   2-35.3915 99.9519   2
 -15 -11   5 239.356 500.165   1
 -15 -11   4 264.946 423.126   1
 -15 -11   3 426.708 448.112   1
  15 -11  -1 737.033 469.170   2
  15 -11   0 248.437 326.543   2
  15 -11   1 316.630 375.567   2
  15 -11   2-104.880 30.4709   2
 -15 -11  -2 310.983 382.676   3
 -15 -11  -3-97.6680 58.8059   3
 -15 -11  -4 53.9899 217.169   3
 -15 -10   5 71.5203 215.144   1
 -15 -10   4 345.320 219.404   1
 -15 -10   3 582.007 454.177   1
  15 -10  -1 799.812 499.691   2
  15 -10   0 494.816 423.983   2
  15 -10   1 338.153 340.825   2
  15 -10   2 356.931 332.145   2
 -15 -10  -2 471.201 430.476   3
 -15 -10  -3 620.159 328.515   3
 -15 -10  -4 134.383 278.861   3
 -15  -9   5 99.7641 142.539   1
 -15  -9   4-58.2120 119.137   1
 -15  -9   3 221.346 354.875   1
  15  -9  -1 798.644 524.237   2
  15  -9   0 583.294 433.780   2
  15  -9   1 400.321 352.028   2
  15  -9   2 410.665 367.137   2
 -15  -9  -2-63.9809 192.412   3
 -15  -9  -3 253.320 390.013   3
 -15  -9  -4 72.3788 299.406   3
 -15  -8   5 196.403 218.139   1
 -15  -8   4 145.920 194.929   1
 -15  -8   3 135.333 114.233   1
  15  -8  -1 1005.84 559.298   2
  15  -8   0 611.507 445.981   2
  15  -8   1 552.708 484.741   2
  15  -8   2 759.736 458.484   2
 -15  -8  -2 287.243 296.819   3
 -15  -8  -3-157.360 214.068   3
 -15  -8  -4-61.3659 109.115   3
 -15  -7   5-45.1132 210.279   1
 -15  -7   4 339.940 331.377   1
 -15  -7   3 111.929 298.788   1
  15  -7   0 896.427 543.680   2
  15  -7   1 554.100 483.442   2
  15  -7   2-104.465 124.571   2
 -15  -7  -3-517.679 331.161   3
 -15  -6   5 275.552 262.960   1
 -15  -6   4 55.0796 224.509   1
 -15  -6   3 268.369 350.384   1
  15  -6   0 1067.17 578.352   2
  15  -6   1 626.141 415.759   2
  15  -6   2 324.993 293.473   2
 -15  -6  -3 40.0153 266.772   3
 -15  -5   5-80.2739 220.569   1
 -15  -5   4 115.139 275.050   1
 -15  -5   3 148.498 312.338   1
  15  -5   0 1018.02 549.349   2
  15  -5   1 718.083 521.988   2
  15  -5   2 523.975 409.135   2
 -15  -5  -3 156.179 298.524   3
 -15  -4   5-89.3042 158.790   1
 -15  -4   4 272.654 381.966   1
 -15  -4   3 180.393 195.220   1
  15  -4   1 970.050 530.270   2
  15  -4   2 664.925 502.039   2
 -15  -4  -3 203.015 296.635   3
 -15  -3   5 195.085 260.888   1
 -15  -3   4 224.409 300.318   1
 -15  -3   3 58.4455 182.853   1
  15  -3   1 826.258 550.821   2
  15  -3   2 1123.61 568.231   2
 -15  -2   6 14.0276 232.654   1
 -15  -2   5-31.3993 222.600   1
 -15  -2   4-70.3897 302.480   1
 -15  -2   3-49.5636 157.125   1
  15  -2   2 747.055 519.879   2
 -15  -1   6 76.4401 347.207   1
 -15  -1   5 674.222 401.203   1
 -15  -1   4-237.775 309.623   1
 -15  -1   3 129.951 119.617   1
  15  -1   2 998.422 558.308   2
 -15   0   6 396.615 360.588   1
 -15   0   5 121.903 452.234   1
 -15   1   6 314.462 374.733   1
  16  -9   0 852.943 613.510   2
  16  -8   0 1003.89 614.163   2
 -16  -5   4 410.346 474.447   1
 -16  -4   4 247.445 367.858   1
 -16  -3   4 216.890 249.132   1
 -16  -2   4 246.642 314.559   1
   0   0   0    0.00    0.00   0
TITL CuCl_NaI_Cyclohexane in P2
REM P2 (#3 in standard setting)
CELL 0.71073  12.334348  34.440022  13.084129  90.0000  94.4717  90.0000
ZERR    9.00   0.002448   0.008151   0.002261   0.0000   0.0199   0.0000
LATT -1
SYMM -x, y,-z
SFAC C H N O Cu
UNIT 225.00 270.00 36.00 36.00 9.00
TREF
HKLF 4
END
;
_shelx_hkl_checksum              71396
_shelx_fab_file
;
-16 2 4 0.0000 0.0000
-16 3 4 0.0000 0.0000
-16 4 4 0.0000 0.0000
-16 5 4 0.0000 0.0000
-15 0 5 0.0000 0.0000
-15 0 6 0.0000 0.0000
-15 1 3 0.0000 0.0000
-15 1 4 0.0000 0.0000
-15 1 5 0.0000 0.0000
-15 1 6 0.0000 0.0000
-15 2 3 0.0000 0.0000
-15 2 4 0.0000 0.0000
-15 2 5 0.0000 0.0000
-15 2 6 0.0000 0.0000
-15 3 3 0.0000 0.0000
-15 3 4 0.0000 0.0000
-15 3 5 0.0000 0.0000
-15 4 3 0.0000 0.0000
-15 4 4 0.0000 0.0000
-15 4 5 0.0000 0.0000
-15 5 3 0.0000 0.0000
-15 5 4 0.0000 0.0000
-15 5 5 0.0000 0.0000
-15 6 3 0.0000 0.0000
-15 6 4 0.0000 0.0000
-15 6 5 0.0000 0.0000
-15 7 3 0.0000 0.0000
-15 7 4 0.0000 0.0000
-15 7 5 0.0000 0.0000
-15 8 1 0.0000 0.0000
-15 8 3 0.0000 0.0000
-15 8 4 0.0000 0.0000
-15 8 5 0.0000 0.0000
-15 9 1 0.0000 0.0000
-15 9 3 0.0000 0.0000
-15 9 4 0.0000 0.0000
-15 9 5 0.0000 0.0000
-15 10 1 0.0000 0.0000
-15 10 3 0.0000 0.0000
-15 10 4 0.0000 0.0000
-15 10 5 0.0000 0.0000
-15 11 1 0.0000 0.0000
-15 11 3 0.0000 0.0000
-15 11 4 0.0000 0.0000
-15 11 5 0.0000 0.0000
-15 12 3 0.0000 0.0000
-15 12 4 0.0000 0.0000
-15 13 3 0.0000 0.0000
-15 13 4 0.0000 0.0000
-15 14 3 0.0000 0.0000
-15 14 4 0.0000 0.0000
-15 15 3 0.0000 0.0000
-15 15 4 0.0000 0.0000
-14 0 3 0.0000 0.0000
-14 0 4 0.0000 0.0000
-14 0 5 0.0000 0.0000
-14 0 6 0.0000 0.0000
-14 0 7 0.0000 0.0000
-14 1 2 0.0000 0.0000
-14 1 3 0.0000 0.0000
-14 1 4 0.0000 0.0000
-14 1 5 0.0000 0.0000
-14 1 6 0.0000 0.0000
-14 1 7 0.0000 0.0000
-14 2 1 0.0000 0.0000
-14 2 2 0.0000 0.0000
-14 2 3 0.0000 0.0000
-14 2 4 0.0000 0.0000
-14 2 5 0.0000 0.0000
-14 2 6 0.0000 0.0000
-14 2 7 0.0000 0.0000
-14 3 1 0.0000 0.0000
-14 3 2 0.0000 0.0000
-14 3 3 0.0000 0.0000
-14 3 4 0.0000 0.0000
-14 3 5 0.0000 0.0000
-14 3 6 0.0000 0.0000
-14 3 7 0.0000 0.0000
-14 4 1 0.0000 0.0000
-14 4 2 0.0000 0.0000
-14 4 3 0.0000 0.0000
-14 4 4 0.0000 0.0000
-14 4 5 0.0000 0.0000
-14 4 6 0.0000 0.0000
-14 4 7 0.0000 0.0000
-14 5 1 0.0000 0.0000
-14 5 2 0.0000 0.0000
-14 5 3 0.0000 0.0000
-14 5 4 0.0000 0.0000
-14 5 5 0.0000 0.0000
-14 5 6 0.0000 0.0000
-14 5 7 0.0000 0.0000
-14 6 1 0.0000 0.0000
-14 6 2 0.0000 0.0000
-14 6 3 0.0000 0.0000
-14 6 4 0.0000 0.0000
-14 6 5 0.0000 0.0000
-14 6 6 0.0000 0.0000
-14 6 7 0.0000 0.0000
-14 7 1 0.0000 0.0000
-14 7 2 0.0000 0.0000
-14 7 3 0.0000 0.0000
-14 7 4 0.0000 0.0000
-14 7 5 0.0000 0.0000
-14 7 6 0.0000 0.0000
-14 7 7 0.0000 0.0000
-14 8 1 0.0000 0.0000
-14 8 2 0.0000 0.0000
-14 8 3 0.0000 0.0000
-14 8 4 0.0000 0.0000
-14 8 5 0.0000 0.0000
-14 8 6 0.0000 0.0000
-14 8 7 0.0000 0.0000
-14 9 1 0.0000 0.0000
-14 9 2 0.0000 0.0000
-14 9 3 0.0000 0.0000
-14 9 4 0.0000 0.0000
-14 9 5 0.0000 0.0000
-14 9 6 0.0000 0.0000
-14 10 1 0.0000 0.0000
-14 10 2 0.0000 0.0000
-14 10 3 0.0000 0.0000
-14 10 4 0.0000 0.0000
-14 10 5 0.0000 0.0000
-14 10 6 0.0000 0.0000
-14 11 1 0.0000 0.0000
-14 11 2 0.0000 0.0000
-14 11 3 0.0000 0.0000
-14 11 4 0.0000 0.0000
-14 11 5 0.0000 0.0000
-14 11 6 0.0000 0.0000
-14 12 1 0.0000 0.0000
-14 12 2 0.0000 0.0000
-14 12 3 0.0000 0.0000
-14 12 4 0.0000 0.0000
-14 12 5 0.0000 0.0000
-14 12 6 0.0000 0.0000
-14 13 1 0.0000 0.0000
-14 13 2 0.0000 0.0000
-14 13 3 0.0000 0.0000
-14 13 4 0.0000 0.0000
-14 13 5 0.0000 0.0000
-14 13 6 0.0000 0.0000
-14 14 1 0.0000 0.0000
-14 14 2 0.0000 0.0000
-14 14 3 0.0000 0.0000
-14 14 4 0.0000 0.0000
-14 14 5 0.0000 0.0000
-14 15 1 0.0000 0.0000
-14 15 2 0.0000 0.0000
-14 15 3 0.0000 0.0000
-14 15 4 0.0000 0.0000
-14 15 5 0.0000 0.0000
-14 16 2 0.0000 0.0000
-14 16 3 0.0000 0.0000
-14 16 4 0.0000 0.0000
-14 16 5 0.0000 0.0000
-14 17 2 0.0000 0.0000
-14 17 3 0.0000 0.0000
-14 17 4 0.0000 0.0000
-14 17 5 0.0000 0.0000
-14 18 2 0.0000 0.0000
-14 18 3 0.0000 0.0000
-14 18 4 0.0000 0.0000
-14 19 2 0.0000 0.0000
-14 19 3 0.0000 0.0000
-14 19 4 0.0000 0.0000
-14 20 2 0.0000 0.0000
-14 20 3 0.0000 0.0000
-14 20 4 0.0000 0.0000
-14 21 3 0.0000 0.0000
-14 22 3 0.0000 0.0000
-13 0 1 0.0000 0.0000
-13 0 2 0.0000 0.0000
-13 0 3 0.0000 0.0000
-13 0 4 0.0000 0.0000
-13 0 5 0.0000 0.0000
-13 0 6 0.0000 0.0000
-13 0 7 0.0000 0.0000
-13 0 8 0.0000 0.0000
-13 1 1 0.0000 0.0000
-13 1 2 0.0000 0.0000
-13 1 3 0.0000 0.0000
-13 1 4 0.0000 0.0000
-13 1 5 0.0000 0.0000
-13 1 6 0.0000 0.0000
-13 1 7 0.0000 0.0000
-13 1 8 0.0000 0.0000
-13 2 1 0.0000 0.0000
-13 2 2 0.0000 0.0000
-13 2 3 0.0000 0.0000
-13 2 4 0.0000 0.0000
-13 2 5 0.0000 0.0000
-13 2 6 0.0000 0.0000
-13 2 7 0.0000 0.0000
-13 2 8 0.0000 0.0000
-13 3 1 0.0000 0.0000
-13 3 2 0.0000 0.0000
-13 3 3 0.0000 0.0000
-13 3 4 0.0000 0.0000
-13 3 5 0.0000 0.0000
-13 3 6 0.0000 0.0000
-13 3 7 0.0000 0.0000
-13 3 8 0.0000 0.0000
-13 4 1 0.0000 0.0000
-13 4 2 0.0000 0.0000
-13 4 3 0.0000 0.0000
-13 4 4 0.0000 0.0000
-13 4 5 0.0000 0.0000
-13 4 6 0.0000 0.0000
-13 4 7 0.0000 0.0000
-13 4 8 0.0000 0.0000
-13 5 1 0.0000 0.0000
-13 5 2 0.0000 0.0000
-13 5 3 0.0000 0.0000
-13 5 4 0.0000 0.0000
-13 5 5 0.0000 0.0000
-13 5 6 0.0000 0.0000
-13 5 7 0.0000 0.0000
-13 5 8 0.0000 0.0000
-13 6 1 0.0000 0.0000
-13 6 2 0.0000 0.0000
-13 6 3 0.0000 0.0000
-13 6 4 0.0000 0.0000
-13 6 5 0.0000 0.0000
-13 6 6 0.0000 0.0000
-13 6 7 0.0000 0.0000
-13 6 8 0.0000 0.0000
-13 7 1 0.0000 0.0000
-13 7 2 0.0000 0.0000
-13 7 3 0.0000 0.0000
-13 7 4 0.0000 0.0000
-13 7 5 0.0000 0.0000
-13 7 6 0.0000 0.0000
-13 7 7 0.0000 0.0000
-13 7 8 0.0000 0.0000
-13 8 1 0.0000 0.0000
-13 8 2 0.0000 0.0000
-13 8 3 0.0000 0.0000
-13 8 4 0.0000 0.0000
-13 8 5 0.0000 0.0000
-13 8 6 0.0000 0.0000
-13 8 7 0.0000 0.0000
-13 8 8 0.0000 0.0000
-13 9 1 0.0000 0.0000
-13 9 2 0.0000 0.0000
-13 9 3 0.0000 0.0000
-13 9 4 0.0000 0.0000
-13 9 5 0.0000 0.0000
-13 9 6 0.0000 0.0000
-13 9 7 0.0000 0.0000
-13 9 8 0.0000 0.0000
-13 10 1 0.0000 0.0000
-13 10 2 0.0000 0.0000
-13 10 3 0.0000 0.0000
-13 10 4 0.0000 0.0000
-13 10 5 0.0000 0.0000
-13 10 6 0.0000 0.0000
-13 10 7 0.0000 0.0000
-13 10 8 0.0000 0.0000
-13 11 1 0.0000 0.0000
-13 11 2 0.0000 0.0000
-13 11 3 0.0000 0.0000
-13 11 4 0.0000 0.0000
-13 11 5 0.0000 0.0000
-13 11 6 0.0000 0.0000
-13 11 7 0.0000 0.0000
-13 12 1 0.0000 0.0000
-13 12 2 0.0000 0.0000
-13 12 3 0.0000 0.0000
-13 12 4 0.0000 0.0000
-13 12 5 0.0000 0.0000
-13 12 6 0.0000 0.0000
-13 12 7 0.0000 0.0000
-13 13 1 0.0000 0.0000
-13 13 2 0.0000 0.0000
-13 13 3 0.0000 0.0000
-13 13 4 0.0000 0.0000
-13 13 5 0.0000 0.0000
-13 13 6 0.0000 0.0000
-13 13 7 0.0000 0.0000
-13 14 1 0.0000 0.0000
-13 14 2 0.0000 0.0000
-13 14 3 0.0000 0.0000
-13 14 4 0.0000 0.0000
-13 14 5 0.0000 0.0000
-13 14 6 0.0000 0.0000
-13 14 7 0.0000 0.0000
-13 15 1 0.0000 0.0000
-13 15 2 0.0000 0.0000
-13 15 3 0.0000 0.0000
-13 15 4 0.0000 0.0000
-13 15 5 0.0000 0.0000
-13 15 6 0.0000 0.0000
-13 15 7 0.0000 0.0000
-13 16 1 0.0000 0.0000
-13 16 2 0.0000 0.0000
-13 16 3 0.0000 0.0000
-13 16 4 0.0000 0.0000
-13 16 5 0.0000 0.0000
-13 16 6 0.0000 0.0000
-13 17 1 0.0000 0.0000
-13 17 2 0.0000 0.0000
-13 17 3 0.0000 0.0000
-13 17 4 0.0000 0.0000
-13 17 5 0.0000 0.0000
-13 17 6 0.0000 0.0000
-13 18 1 0.0000 0.0000
-13 18 2 0.0000 0.0000
-13 18 3 0.0000 0.0000
-13 18 4 0.0000 0.0000
-13 18 5 0.0000 0.0000
-13 18 6 0.0000 0.0000
-13 19 1 0.0000 0.0000
-13 19 2 0.0000 0.0000
-13 19 3 0.0000 0.0000
-13 19 4 0.0000 0.0000
-13 19 5 0.0000 0.0000
-13 20 1 0.0000 0.0000
-13 20 2 0.0000 0.0000
-13 20 3 0.0000 0.0000
-13 20 4 0.0000 0.0000
-13 20 5 0.0000 0.0000
-13 21 1 0.0000 0.0000
-13 21 2 0.0000 0.0000
-13 21 3 0.0000 0.0000
-13 21 4 0.0000 0.0000
-13 21 5 0.0000 0.0000
-13 22 1 0.0000 0.0000
-13 22 2 0.0000 0.0000
-13 22 3 0.0000 0.0000
-13 22 4 0.0000 0.0000
-13 23 1 0.0000 0.0000
-13 23 2 0.0000 0.0000
-13 23 3 0.0000 0.0000
-13 23 4 0.0000 0.0000
-13 24 1 0.0000 0.0000
-13 24 2 0.0000 0.0000
-13 24 3 0.0000 0.0000
-13 25 2 0.0000 0.0000
-13 25 3 0.0000 0.0000
-13 26 2 0.0000 0.0000
-13 27 2 0.0000 0.0000
-12 0 1 0.0000 0.0000
-12 0 2 0.0000 0.0000
-12 0 3 0.0000 0.0000
-12 0 4 0.0000 0.0000
-12 0 5 0.0000 0.0000
-12 0 6 0.0000 0.0000
-12 0 7 0.0000 0.0000
-12 0 8 0.0000 0.0000
-12 0 9 0.0000 0.0000
-12 0 10 0.0000 0.0000
-12 1 1 0.0000 0.0000
-12 1 2 0.0000 0.0000
-12 1 3 0.0000 0.0000
-12 1 4 0.0000 0.0000
-12 1 5 0.0000 0.0000
-12 1 6 0.0000 0.0000
-12 1 7 0.0000 0.0000
-12 1 8 0.0000 0.0000
-12 1 9 0.0000 0.0000
-12 1 10 0.0000 0.0000
-12 2 1 0.0000 0.0000
-12 2 2 0.0000 0.0000
-12 2 3 0.0000 0.0000
-12 2 4 0.0000 0.0000
-12 2 5 0.0000 0.0000
-12 2 6 0.0000 0.0000
-12 2 7 0.0000 0.0000
-12 2 8 0.0000 0.0000
-12 2 9 0.0000 0.0000
-12 2 10 0.0000 0.0000
-12 3 1 0.0000 0.0000
-12 3 2 0.0000 0.0000
-12 3 3 0.0000 0.0000
-12 3 4 0.0000 0.0000
-12 3 5 0.0000 0.0000
-12 3 6 0.0000 0.0000
-12 3 7 0.0000 0.0000
-12 3 8 0.0000 0.0000
-12 3 9 0.0000 0.0000
-12 3 10 0.0000 0.0000
-12 4 1 0.0000 0.0000
-12 4 2 0.0000 0.0000
-12 4 3 0.0000 0.0000
-12 4 4 0.0000 0.0000
-12 4 5 0.0000 0.0000
-12 4 6 0.0000 0.0000
-12 4 7 0.0000 0.0000
-12 4 8 0.0000 0.0000
-12 4 9 0.0000 0.0000
-12 5 1 0.0000 0.0000
-12 5 2 0.0000 0.0000
-12 5 3 0.0000 0.0000
-12 5 4 0.0000 0.0000
-12 5 5 0.0000 0.0000
-12 5 6 0.0000 0.0000
-12 5 7 0.0000 0.0000
-12 5 8 0.0000 0.0000
-12 5 9 0.0000 0.0000
-12 6 1 0.0000 0.0000
-12 6 2 0.0000 0.0000
-12 6 3 0.0000 0.0000
-12 6 4 0.0000 0.0000
-12 6 5 0.0000 0.0000
-12 6 6 0.0000 0.0000
-12 6 7 0.0000 0.0000
-12 6 8 0.0000 0.0000
-12 6 9 0.0000 0.0000
-12 7 1 0.0000 0.0000
-12 7 2 0.0000 0.0000
-12 7 3 0.0000 0.0000
-12 7 4 0.0000 0.0000
-12 7 5 0.0000 0.0000
-12 7 6 0.0000 0.0000
-12 7 7 0.0000 0.0000
-12 7 8 0.0000 0.0000
-12 7 9 0.0000 0.0000
-12 8 1 0.0000 0.0000
-12 8 2 0.0000 0.0000
-12 8 3 0.0000 0.0000
-12 8 4 0.0000 0.0000
-12 8 5 0.0000 0.0000
-12 8 6 0.0000 0.0000
-12 8 7 0.0000 0.0000
-12 8 8 0.0000 0.0000
-12 8 9 0.0000 0.0000
-12 9 1 0.0000 0.0000
-12 9 2 0.0000 0.0000
-12 9 3 0.0000 0.0000
-12 9 4 0.0000 0.0000
-12 9 5 0.0000 0.0000
-12 9 6 0.0000 0.0000
-12 9 7 0.0000 0.0000
-12 9 8 0.0000 0.0000
-12 9 9 0.0000 0.0000
-12 10 1 0.0000 0.0000
-12 10 2 0.0000 0.0000
-12 10 3 0.0000 0.0000
-12 10 4 0.0000 0.0000
-12 10 5 0.0000 0.0000
-12 10 6 0.0000 0.0000
-12 10 7 0.0000 0.0000
-12 10 8 0.0000 0.0000
-12 10 9 0.0000 0.0000
-12 11 1 0.0000 0.0000
-12 11 2 0.0000 0.0000
-12 11 3 0.0000 0.0000
-12 11 4 0.0000 0.0000
-12 11 5 0.0000 0.0000
-12 11 6 0.0000 0.0000
-12 11 7 0.0000 0.0000
-12 11 8 0.0000 0.0000
-12 11 9 0.0000 0.0000
-12 12 1 0.0000 0.0000
-12 12 2 0.0000 0.0000
-12 12 3 0.0000 0.0000
-12 12 4 0.0000 0.0000
-12 12 5 0.0000 0.0000
-12 12 6 0.0000 0.0000
-12 12 7 0.0000 0.0000
-12 12 8 0.0000 0.0000
-12 12 9 0.0000 0.0000
-12 13 1 0.0000 0.0000
-12 13 2 0.0000 0.0000
-12 13 3 0.0000 0.0000
-12 13 4 0.0000 0.0000
-12 13 5 0.0000 0.0000
-12 13 6 0.0000 0.0000
-12 13 7 0.0000 0.0000
-12 13 8 0.0000 0.0000
-12 14 1 0.0000 0.0000
-12 14 2 0.0000 0.0000
-12 14 3 0.0000 0.0000
-12 14 4 0.0000 0.0000
-12 14 5 0.0000 0.0000
-12 14 6 0.0000 0.0000
-12 14 7 0.0000 0.0000
-12 14 8 0.0000 0.0000
-12 15 1 0.0000 0.0000
-12 15 2 0.0000 0.0000
-12 15 3 0.0000 0.0000
-12 15 4 0.0000 0.0000
-12 15 5 0.0000 0.0000
-12 15 6 0.0000 0.0000
-12 15 7 0.0000 0.0000
-12 15 8 0.0000 0.0000
-12 16 1 0.0000 0.0000
-12 16 2 0.0000 0.0000
-12 16 3 0.0000 0.0000
-12 16 4 0.0000 0.0000
-12 16 5 0.0000 0.0000
-12 16 6 0.0000 0.0000
-12 16 7 0.0000 0.0000
-12 16 8 0.0000 0.0000
-12 17 1 0.0000 0.0000
-12 17 2 0.0000 0.0000
-12 17 3 0.0000 0.0000
-12 17 4 0.0000 0.0000
-12 17 5 0.0000 0.0000
-12 17 6 0.0000 0.0000
-12 17 7 0.0000 0.0000
-12 18 1 0.0000 0.0000
-12 18 2 0.0000 0.0000
-12 18 3 0.0000 0.0000
-12 18 4 0.0000 0.0000
-12 18 5 0.0000 0.0000
-12 18 6 0.0000 0.0000
-12 18 7 0.0000 0.0000
-12 19 1 0.0000 0.0000
-12 19 2 0.0000 0.0000
-12 19 3 0.0000 0.0000
-12 19 4 0.0000 0.0000
-12 19 5 0.0000 0.0000
-12 19 6 0.0000 0.0000
-12 19 7 0.0000 0.0000
-12 20 1 0.0000 0.0000
-12 20 2 0.0000 0.0000
-12 20 3 0.0000 0.0000
-12 20 4 0.0000 0.0000
-12 20 5 0.0000 0.0000
-12 20 6 0.0000 0.0000
-12 21 1 0.0000 0.0000
-12 21 2 0.0000 0.0000
-12 21 3 0.0000 0.0000
-12 21 4 0.0000 0.0000
-12 21 5 0.0000 0.0000
-12 21 6 0.0000 0.0000
-12 22 1 0.0000 0.0000
-12 22 2 0.0000 0.0000
-12 22 3 0.0000 0.0000
-12 22 4 0.0000 0.0000
-12 22 5 0.0000 0.0000
-12 22 6 0.0000 0.0000
-12 23 1 0.0000 0.0000
-12 23 2 0.0000 0.0000
-12 23 3 0.0000 0.0000
-12 23 4 0.0000 0.0000
-12 23 5 0.0000 0.0000
-12 24 1 0.0000 0.0000
-12 24 2 0.0000 0.0000
-12 24 3 0.0000 0.0000
-12 24 4 0.0000 0.0000
-12 24 5 0.0000 0.0000
-12 25 1 0.0000 0.0000
-12 25 2 0.0000 0.0000
-12 25 3 0.0000 0.0000
-12 25 4 0.0000 0.0000
-12 26 1 0.0000 0.0000
-12 26 2 0.0000 0.0000
-12 26 3 0.0000 0.0000
-12 26 4 0.0000 0.0000
-12 27 1 0.0000 0.0000
-12 27 2 0.0000 0.0000
-12 27 3 0.0000 0.0000
-12 28 1 0.0000 0.0000
-12 28 2 0.0000 0.0000
-12 28 3 0.0000 0.0000
-12 29 1 0.0000 0.0000
-12 29 2 0.0000 0.0000
-12 30 1 0.0000 0.0000
-11 0 1 0.0000 0.0000
-11 0 2 0.0000 0.0000
-11 0 3 0.0000 0.0000
-11 0 4 0.0000 0.0000
-11 0 5 0.0000 0.0000
-11 0 6 0.0000 0.0000
-11 0 7 0.0000 0.0000
-11 0 8 0.0000 0.0000
-11 0 9 0.0000 0.0000
-11 0 10 0.0000 0.0000
-11 0 11 0.0000 0.0000
-11 1 1 0.0000 0.0000
-11 1 2 0.0000 0.0000
-11 1 3 0.0000 0.0000
-11 1 4 0.0000 0.0000
-11 1 5 0.0000 0.0000
-11 1 6 0.0000 0.0000
-11 1 7 0.0000 0.0000
-11 1 8 0.0000 0.0000
-11 1 9 0.0000 0.0000
-11 1 10 0.0000 0.0000
-11 1 11 0.0000 0.0000
-11 2 1 0.0000 0.0000
-11 2 2 0.0000 0.0000
-11 2 3 0.0000 0.0000
-11 2 4 0.0000 0.0000
-11 2 5 0.0000 0.0000
-11 2 6 0.0000 0.0000
-11 2 7 0.0000 0.0000
-11 2 8 0.0000 0.0000
-11 2 9 0.0000 0.0000
-11 2 10 0.0000 0.0000
-11 2 11 0.0000 0.0000
-11 3 1 0.0000 0.0000
-11 3 2 0.0000 0.0000
-11 3 3 0.0000 0.0000
-11 3 4 0.0000 0.0000
-11 3 5 0.0000 0.0000
-11 3 6 0.0000 0.0000
-11 3 7 0.0000 0.0000
-11 3 8 0.0000 0.0000
-11 3 9 0.0000 0.0000
-11 3 10 0.0000 0.0000
-11 3 11 0.0000 0.0000
-11 4 1 0.0000 0.0000
-11 4 2 0.0000 0.0000
-11 4 3 0.0000 0.0000
-11 4 4 0.0000 0.0000
-11 4 5 0.0000 0.0000
-11 4 6 0.0000 0.0000
-11 4 7 0.0000 0.0000
-11 4 8 0.0000 0.0000
-11 4 9 0.0000 0.0000
-11 4 10 0.0000 0.0000
-11 4 11 0.0000 0.0000
-11 5 1 0.0000 0.0000
-11 5 2 0.0000 0.0000
-11 5 3 0.0000 0.0000
-11 5 4 0.0000 0.0000
-11 5 5 0.0000 0.0000
-11 5 6 0.0000 0.0000
-11 5 7 0.0000 0.0000
-11 5 8 0.0000 0.0000
-11 5 9 0.0000 0.0000
-11 5 10 0.0000 0.0000
-11 5 11 0.0000 0.0000
-11 6 1 0.0000 0.0000
-11 6 2 0.0000 0.0000
-11 6 3 0.0000 0.0000
-11 6 4 0.0000 0.0000
-11 6 5 0.0000 0.0000
-11 6 6 0.0000 0.0000
-11 6 7 0.0000 0.0000
-11 6 8 0.0000 0.0000
-11 6 9 0.0000 0.0000
-11 6 10 0.0000 0.0000
-11 6 11 0.0000 0.0000
-11 7 1 0.0000 0.0000
-11 7 2 0.0000 0.0000
-11 7 3 0.0000 0.0000
-11 7 4 0.0000 0.0000
-11 7 5 0.0000 0.0000
-11 7 6 0.0000 0.0000
-11 7 7 0.0000 0.0000
-11 7 8 0.0000 0.0000
-11 7 9 0.0000 0.0000
-11 7 10 0.0000 0.0000
-11 8 1 0.0000 0.0000
-11 8 2 0.0000 0.0000
-11 8 3 0.0000 0.0000
-11 8 4 0.0000 0.0000
-11 8 5 0.0000 0.0000
-11 8 6 0.0000 0.0000
-11 8 7 0.0000 0.0000
-11 8 8 0.0000 0.0000
-11 8 9 0.0000 0.0000
-11 8 10 0.0000 0.0000
-11 9 1 0.0000 0.0000
-11 9 2 0.0000 0.0000
-11 9 3 0.0000 0.0000
-11 9 4 0.0000 0.0000
-11 9 5 0.0000 0.0000
-11 9 6 0.0000 0.0000
-11 9 7 0.0000 0.0000
-11 9 8 0.0000 0.0000
-11 9 9 0.0000 0.0000
-11 9 10 0.0000 0.0000
-11 10 1 0.0000 0.0000
-11 10 2 0.0000 0.0000
-11 10 3 0.0000 0.0000
-11 10 4 0.0000 0.0000
-11 10 5 0.0000 0.0000
-11 10 6 0.0000 0.0000
-11 10 7 0.0000 0.0000
-11 10 8 0.0000 0.0000
-11 10 9 0.0000 0.0000
-11 10 10 0.0000 0.0000
-11 11 1 0.0000 0.0000
-11 11 2 0.0000 0.0000
-11 11 3 0.0000 0.0000
-11 11 4 0.0000 0.0000
-11 11 5 0.0000 0.0000
-11 11 6 0.0000 0.0000
-11 11 7 0.0000 0.0000
-11 11 8 0.0000 0.0000
-11 11 9 0.0000 0.0000
-11 11 10 0.0000 0.0000
-11 12 1 0.0000 0.0000
-11 12 2 0.0000 0.0000
-11 12 3 0.0000 0.0000
-11 12 4 0.0000 0.0000
-11 12 5 0.0000 0.0000
-11 12 6 0.0000 0.0000
-11 12 7 0.0000 0.0000
-11 12 8 0.0000 0.0000
-11 12 9 0.0000 0.0000
-11 12 10 0.0000 0.0000
-11 13 1 0.0000 0.0000
-11 13 2 0.0000 0.0000
-11 13 3 0.0000 0.0000
-11 13 4 0.0000 0.0000
-11 13 5 0.0000 0.0000
-11 13 6 0.0000 0.0000
-11 13 7 0.0000 0.0000
-11 13 8 0.0000 0.0000
-11 13 9 0.0000 0.0000
-11 13 10 0.0000 0.0000
-11 14 1 0.0000 0.0000
-11 14 2 0.0000 0.0000
-11 14 3 0.0000 0.0000
-11 14 4 0.0000 0.0000
-11 14 5 0.0000 0.0000
-11 14 6 0.0000 0.0000
-11 14 7 0.0000 0.0000
-11 14 8 0.0000 0.0000
-11 14 9 0.0000 0.0000
-11 15 1 0.0000 0.0000
-11 15 2 0.0000 0.0000
-11 15 3 0.0000 0.0000
-11 15 4 0.0000 0.0000
-11 15 5 0.0000 0.0000
-11 15 6 0.0000 0.0000
-11 15 7 0.0000 0.0000
-11 15 8 0.0000 0.0000
-11 15 9 0.0000 0.0000
-11 16 1 0.0000 0.0000
-11 16 2 0.0000 0.0000
-11 16 3 0.0000 0.0000
-11 16 4 0.0000 0.0000
-11 16 5 0.0000 0.0000
-11 16 6 0.0000 0.0000
-11 16 7 0.0000 0.0000
-11 16 8 0.0000 0.0000
-11 16 9 0.0000 0.0000
-11 17 1 0.0000 0.0000
-11 17 2 0.0000 0.0000
-11 17 3 0.0000 0.0000
-11 17 4 0.0000 0.0000
-11 17 5 0.0000 0.0000
-11 17 6 0.0000 0.0000
-11 17 7 0.0000 0.0000
-11 17 8 0.0000 0.0000
-11 17 9 0.0000 0.0000
-11 18 1 0.0000 0.0000
-11 18 2 0.0000 0.0000
-11 18 3 0.0000 0.0000
-11 18 4 0.0000 0.0000
-11 18 5 0.0000 0.0000
-11 18 6 0.0000 0.0000
-11 18 7 0.0000 0.0000
-11 18 8 0.0000 0.0000
-11 19 1 0.0000 0.0000
-11 19 2 0.0000 0.0000
-11 19 3 0.0000 0.0000
-11 19 4 0.0000 0.0000
-11 19 5 0.0000 0.0000
-11 19 6 0.0000 0.0000
-11 19 7 0.0000 0.0000
-11 19 8 0.0000 0.0000
-11 20 1 0.0000 0.0000
-11 20 2 0.0000 0.0000
-11 20 3 0.0000 0.0000
-11 20 4 0.0000 0.0000
-11 20 5 0.0000 0.0000
-11 20 6 0.0000 0.0000
-11 20 7 0.0000 0.0000
-11 20 8 0.0000 0.0000
-11 21 1 0.0000 0.0000
-11 21 2 0.0000 0.0000
-11 21 3 0.0000 0.0000
-11 21 4 0.0000 0.0000
-11 21 5 0.0000 0.0000
-11 21 6 0.0000 0.0000
-11 21 7 0.0000 0.0000
-11 22 1 0.0000 0.0000
-11 22 2 0.0000 0.0000
-11 22 3 0.0000 0.0000
-11 22 4 0.0000 0.0000
-11 22 5 0.0000 0.0000
-11 22 6 0.0000 0.0000
-11 22 7 0.0000 0.0000
-11 23 1 0.0000 0.0000
-11 23 2 0.0000 0.0000
-11 23 3 0.0000 0.0000
-11 23 4 0.0000 0.0000
-11 23 5 0.0000 0.0000
-11 23 6 0.0000 0.0000
-11 23 7 0.0000 0.0000
-11 24 1 0.0000 0.0000
-11 24 2 0.0000 0.0000
-11 24 3 0.0000 0.0000
-11 24 4 0.0000 0.0000
-11 24 5 0.0000 0.0000
-11 24 6 0.0000 0.0000
-11 25 1 0.0000 0.0000
-11 25 2 0.0000 0.0000
-11 25 3 0.0000 0.0000
-11 25 4 0.0000 0.0000
-11 25 5 0.0000 0.0000
-11 25 6 0.0000 0.0000
-11 26 1 0.0000 0.0000
-11 26 2 0.0000 0.0000
-11 26 3 0.0000 0.0000
-11 26 4 0.0000 0.0000
-11 26 5 0.0000 0.0000
-11 27 1 0.0000 0.0000
-11 27 2 0.0000 0.0000
-11 27 3 0.0000 0.0000
-11 27 4 0.0000 0.0000
-11 27 5 0.0000 0.0000
-11 28 1 0.0000 0.0000
-11 28 2 0.0000 0.0000
-11 28 3 0.0000 0.0000
-11 28 4 0.0000 0.0000
-11 29 1 0.0000 0.0000
-11 29 2 0.0000 0.0000
-11 29 3 0.0000 0.0000
-11 30 1 0.0000 0.0000
-11 30 2 0.0000 0.0000
-11 30 3 0.0000 0.0000
-11 31 1 0.0000 0.0000
-11 31 2 0.0000 0.0000
-11 32 1 0.0000 0.0000
-10 0 1 0.0000 0.0000
-10 0 2 0.0000 0.0000
-10 0 3 0.0000 0.0000
-10 0 4 0.0000 0.0000
-10 0 5 0.0000 0.0000
-10 0 6 0.0000 0.0000
-10 0 7 0.0000 0.0000
-10 0 8 0.0000 0.0000
-10 0 9 0.0000 0.0000
-10 0 10 0.0000 0.0000
-10 0 11 0.0000 0.0000
-10 0 12 0.0000 0.0000
-10 1 1 0.0000 0.0000
-10 1 2 0.0000 0.0000
-10 1 3 0.0000 0.0000
-10 1 4 0.0000 0.0000
-10 1 5 0.0000 0.0000
-10 1 6 0.0000 0.0000
-10 1 7 0.0000 0.0000
-10 1 8 0.0000 0.0000
-10 1 9 0.0000 0.0000
-10 1 10 0.0000 0.0000
-10 1 11 0.0000 0.0000
-10 1 12 0.0000 0.0000
-10 2 1 0.0000 0.0000
-10 2 2 0.0000 0.0000
-10 2 3 0.0000 0.0000
-10 2 4 0.0000 0.0000
-10 2 5 0.0000 0.0000
-10 2 6 0.0000 0.0000
-10 2 7 0.0000 0.0000
-10 2 8 0.0000 0.0000
-10 2 9 0.0000 0.0000
-10 2 10 0.0000 0.0000
-10 2 11 0.0000 0.0000
-10 2 12 0.0000 0.0000
-10 3 1 0.0000 0.0000
-10 3 2 0.0000 0.0000
-10 3 3 0.0000 0.0000
-10 3 4 0.0000 0.0000
-10 3 5 0.0000 0.0000
-10 3 6 0.0000 0.0000
-10 3 7 0.0000 0.0000
-10 3 8 0.0000 0.0000
-10 3 9 0.0000 0.0000
-10 3 10 0.0000 0.0000
-10 3 11 0.0000 0.0000
-10 3 12 0.0000 0.0000
-10 4 1 0.0000 0.0000
-10 4 2 0.0000 0.0000
-10 4 3 0.0000 0.0000
-10 4 4 0.0000 0.0000
-10 4 5 0.0000 0.0000
-10 4 6 0.0000 0.0000
-10 4 7 0.0000 0.0000
-10 4 8 0.0000 0.0000
-10 4 9 0.0000 0.0000
-10 4 10 0.0000 0.0000
-10 4 11 0.0000 0.0000
-10 4 12 0.0000 0.0000
-10 5 1 0.0000 0.0000
-10 5 2 0.0000 0.0000
-10 5 3 0.0000 0.0000
-10 5 4 0.0000 0.0000
-10 5 5 0.0000 0.0000
-10 5 6 0.0000 0.0000
-10 5 7 0.0000 0.0000
-10 5 8 0.0000 0.0000
-10 5 9 0.0000 0.0000
-10 5 10 0.0000 0.0000
-10 5 11 0.0000 0.0000
-10 5 12 0.0000 0.0000
-10 6 1 0.0000 0.0000
-10 6 2 0.0000 0.0000
-10 6 3 0.0000 0.0000
-10 6 4 0.0000 0.0000
-10 6 5 0.0000 0.0000
-10 6 6 0.0000 0.0000
-10 6 7 0.0000 0.0000
-10 6 8 0.0000 0.0000
-10 6 9 0.0000 0.0000
-10 6 10 0.0000 0.0000
-10 6 11 0.0000 0.0000
-10 6 12 0.0000 0.0000
-10 7 1 0.0000 0.0000
-10 7 2 0.0000 0.0000
-10 7 3 0.0000 0.0000
-10 7 4 0.0000 0.0000
-10 7 5 0.0000 0.0000
-10 7 6 0.0000 0.0000
-10 7 7 0.0000 0.0000
-10 7 8 0.0000 0.0000
-10 7 9 0.0000 0.0000
-10 7 10 0.0000 0.0000
-10 7 11 0.0000 0.0000
-10 7 12 0.0000 0.0000
-10 8 1 0.0000 0.0000
-10 8 2 0.0000 0.0000
-10 8 3 0.0000 0.0000
-10 8 4 0.0000 0.0000
-10 8 5 0.0000 0.0000
-10 8 6 0.0000 0.0000
-10 8 7 0.0000 0.0000
-10 8 8 0.0000 0.0000
-10 8 9 0.0000 0.0000
-10 8 10 0.0000 0.0000
-10 8 11 0.0000 0.0000
-10 9 1 0.0000 0.0000
-10 9 2 0.0000 0.0000
-10 9 3 0.0000 0.0000
-10 9 4 0.0000 0.0000
-10 9 5 0.0000 0.0000
-10 9 6 0.0000 0.0000
-10 9 7 0.0000 0.0000
-10 9 8 0.0000 0.0000
-10 9 9 0.0000 0.0000
-10 9 10 0.0000 0.0000
-10 9 11 0.0000 0.0000
-10 10 1 0.0000 0.0000
-10 10 2 0.0000 0.0000
-10 10 3 0.0000 0.0000
-10 10 4 0.0000 0.0000
-10 10 5 0.0000 0.0000
-10 10 6 0.0000 0.0000
-10 10 7 0.0000 0.0000
-10 10 8 0.0000 0.0000
-10 10 9 0.0000 0.0000
-10 10 10 0.0000 0.0000
-10 10 11 0.0000 0.0000
-10 11 1 0.0000 0.0000
-10 11 2 0.0000 0.0000
-10 11 3 0.0000 0.0000
-10 11 4 0.0000 0.0000
-10 11 5 0.0000 0.0000
-10 11 6 0.0000 0.0000
-10 11 7 0.0000 0.0000
-10 11 8 0.0000 0.0000
-10 11 9 0.0000 0.0000
-10 11 10 0.0000 0.0000
-10 11 11 0.0000 0.0000
-10 12 1 0.0000 0.0000
-10 12 2 0.0000 0.0000
-10 12 3 0.0000 0.0000
-10 12 4 0.0000 0.0000
-10 12 5 0.0000 0.0000
-10 12 6 0.0000 0.0000
-10 12 7 0.0000 0.0000
-10 12 8 0.0000 0.0000
-10 12 9 0.0000 0.0000
-10 12 10 0.0000 0.0000
-10 12 11 0.0000 0.0000
-10 13 1 0.0000 0.0000
-10 13 2 0.0000 0.0000
-10 13 3 0.0000 0.0000
-10 13 4 0.0000 0.0000
-10 13 5 0.0000 0.0000
-10 13 6 0.0000 0.0000
-10 13 7 0.0000 0.0000
-10 13 8 0.0000 0.0000
-10 13 9 0.0000 0.0000
-10 13 10 0.0000 0.0000
-10 13 11 0.0000 0.0000
-10 14 1 0.0000 0.0000
-10 14 2 0.0000 0.0000
-10 14 3 0.0000 0.0000
-10 14 4 0.0000 0.0000
-10 14 5 0.0000 0.0000
-10 14 6 0.0000 0.0000
-10 14 7 0.0000 0.0000
-10 14 8 0.0000 0.0000
-10 14 9 0.0000 0.0000
-10 14 10 0.0000 0.0000
-10 15 1 0.0000 0.0000
-10 15 2 0.0000 0.0000
-10 15 3 0.0000 0.0000
-10 15 4 0.0000 0.0000
-10 15 5 0.0000 0.0000
-10 15 6 0.0000 0.0000
-10 15 7 0.0000 0.0000
-10 15 8 0.0000 0.0000
-10 15 9 0.0000 0.0000
-10 15 10 0.0000 0.0000
-10 16 1 0.0000 0.0000
-10 16 2 0.0000 0.0000
-10 16 3 0.0000 0.0000
-10 16 4 0.0000 0.0000
-10 16 5 0.0000 0.0000
-10 16 6 0.0000 0.0000
-10 16 7 0.0000 0.0000
-10 16 8 0.0000 0.0000
-10 16 9 0.0000 0.0000
-10 16 10 0.0000 0.0000
-10 17 1 0.0000 0.0000
-10 17 2 0.0000 0.0000
-10 17 3 0.0000 0.0000
-10 17 4 0.0000 0.0000
-10 17 5 0.0000 0.0000
-10 17 6 0.0000 0.0000
-10 17 7 0.0000 0.0000
-10 17 8 0.0000 0.0000
-10 17 9 0.0000 0.0000
-10 17 10 0.0000 0.0000
-10 18 1 0.0000 0.0000
-10 18 2 0.0000 0.0000
-10 18 3 0.0000 0.0000
-10 18 4 0.0000 0.0000
-10 18 5 0.0000 0.0000
-10 18 6 0.0000 0.0000
-10 18 7 0.0000 0.0000
-10 18 8 0.0000 0.0000
-10 18 9 0.0000 0.0000
-10 18 10 0.0000 0.0000
-10 19 1 0.0000 0.0000
-10 19 2 0.0000 0.0000
-10 19 3 0.0000 0.0000
-10 19 4 0.0000 0.0000
-10 19 5 0.0000 0.0000
-10 19 6 0.0000 0.0000
-10 19 7 0.0000 0.0000
-10 19 8 0.0000 0.0000
-10 19 9 0.0000 0.0000
-10 20 1 0.0000 0.0000
-10 20 2 0.0000 0.0000
-10 20 3 0.0000 0.0000
-10 20 4 0.0000 0.0000
-10 20 5 0.0000 0.0000
-10 20 6 0.0000 0.0000
-10 20 7 0.0000 0.0000
-10 20 8 0.0000 0.0000
-10 20 9 0.0000 0.0000
-10 21 1 0.0000 0.0000
-10 21 2 0.0000 0.0000
-10 21 3 0.0000 0.0000
-10 21 4 0.0000 0.0000
-10 21 5 0.0000 0.0000
-10 21 6 0.0000 0.0000
-10 21 7 0.0000 0.0000
-10 21 8 0.0000 0.0000
-10 21 9 0.0000 0.0000
-10 22 1 0.0000 0.0000
-10 22 2 0.0000 0.0000
-10 22 3 0.0000 0.0000
-10 22 4 0.0000 0.0000
-10 22 5 0.0000 0.0000
-10 22 6 0.0000 0.0000
-10 22 7 0.0000 0.0000
-10 22 8 0.0000 0.0000
-10 23 1 0.0000 0.0000
-10 23 2 0.0000 0.0000
-10 23 3 0.0000 0.0000
-10 23 4 0.0000 0.0000
-10 23 5 0.0000 0.0000
-10 23 6 0.0000 0.0000
-10 23 7 0.0000 0.0000
-10 23 8 0.0000 0.0000
-10 24 1 0.0000 0.0000
-10 24 2 0.0000 0.0000
-10 24 3 0.0000 0.0000
-10 24 4 0.0000 0.0000
-10 24 5 0.0000 0.0000
-10 24 6 0.0000 0.0000
-10 24 7 0.0000 0.0000
-10 25 1 0.0000 0.0000
-10 25 2 0.0000 0.0000
-10 25 3 0.0000 0.0000
-10 25 4 0.0000 0.0000
-10 25 5 0.0000 0.0000
-10 25 6 0.0000 0.0000
-10 25 7 0.0000 0.0000
-10 26 1 0.0000 0.0000
-10 26 2 0.0000 0.0000
-10 26 3 0.0000 0.0000
-10 26 4 0.0000 0.0000
-10 26 5 0.0000 0.0000
-10 26 6 0.0000 0.0000
-10 26 7 0.0000 0.0000
-10 27 1 0.0000 0.0000
-10 27 2 0.0000 0.0000
-10 27 3 0.0000 0.0000
-10 27 4 0.0000 0.0000
-10 27 5 0.0000 0.0000
-10 27 6 0.0000 0.0000
-10 28 1 0.0000 0.0000
-10 28 2 0.0000 0.0000
-10 28 3 0.0000 0.0000
-10 28 4 0.0000 0.0000
-10 28 5 0.0000 0.0000
-10 29 1 0.0000 0.0000
-10 29 2 0.0000 0.0000
-10 29 3 0.0000 0.0000
-10 29 4 0.0000 0.0000
-10 29 5 0.0000 0.0000
-10 30 1 0.0000 0.0000
-10 30 2 0.0000 0.0000
-10 30 3 0.0000 0.0000
-10 30 4 0.0000 0.0000
-10 31 1 0.0000 0.0000
-10 31 2 0.0000 0.0000
-10 31 3 0.0000 0.0000
-10 31 4 0.0000 0.0000
-10 32 1 0.0000 0.0000
-10 32 2 0.0000 0.0000
-10 32 3 0.0000 0.0000
-10 33 1 0.0000 0.0000
-10 33 2 0.0000 0.0000
-10 34 1 0.0000 0.0000
-9 0 1 0.0000 0.0000
-9 0 2 0.0000 0.0000
-9 0 3 0.0000 0.0000
-9 0 4 0.0000 0.0000
-9 0 5 0.0000 0.0000
-9 0 6 0.0000 0.0000
-9 0 7 0.0000 0.0000
-9 0 8 0.0000 0.0000
-9 0 9 0.0000 0.0000
-9 0 10 0.0000 0.0000
-9 0 11 0.0000 0.0000
-9 0 12 0.0000 0.0000
-9 0 13 0.0000 0.0000
-9 1 1 0.0000 0.0000
-9 1 2 0.0000 0.0000
-9 1 3 0.0000 0.0000
-9 1 4 0.0000 0.0000
-9 1 5 0.0000 0.0000
-9 1 6 0.0000 0.0000
-9 1 7 0.0000 0.0000
-9 1 8 0.0000 0.0000
-9 1 9 0.0000 0.0000
-9 1 10 0.0000 0.0000
-9 1 11 0.0000 0.0000
-9 1 12 0.0000 0.0000
-9 1 13 0.0000 0.0000
-9 2 1 0.0000 0.0000
-9 2 2 0.0000 0.0000
-9 2 3 0.0000 0.0000
-9 2 4 0.0000 0.0000
-9 2 5 0.0000 0.0000
-9 2 6 0.0000 0.0000
-9 2 7 0.0000 0.0000
-9 2 8 0.0000 0.0000
-9 2 9 0.0000 0.0000
-9 2 10 0.0000 0.0000
-9 2 11 0.0000 0.0000
-9 2 12 0.0000 0.0000
-9 2 13 0.0000 0.0000
-9 3 1 0.0000 0.0000
-9 3 2 0.0000 0.0000
-9 3 3 0.0000 0.0000
-9 3 4 0.0000 0.0000
-9 3 5 0.0000 0.0000
-9 3 6 0.0000 0.0000
-9 3 7 0.0000 0.0000
-9 3 8 0.0000 0.0000
-9 3 9 0.0000 0.0000
-9 3 10 0.0000 0.0000
-9 3 11 0.0000 0.0000
-9 3 12 0.0000 0.0000
-9 3 13 0.0000 0.0000
-9 4 1 0.0000 0.0000
-9 4 2 0.0000 0.0000
-9 4 3 0.0000 0.0000
-9 4 4 0.0000 0.0000
-9 4 5 0.0000 0.0000
-9 4 6 0.0000 0.0000
-9 4 7 0.0000 0.0000
-9 4 8 0.0000 0.0000
-9 4 9 0.0000 0.0000
-9 4 10 0.0000 0.0000
-9 4 11 0.0000 0.0000
-9 4 12 0.0000 0.0000
-9 4 13 0.0000 0.0000
-9 5 1 0.0000 0.0000
-9 5 2 0.0000 0.0000
-9 5 3 0.0000 0.0000
-9 5 4 0.0000 0.0000
-9 5 5 0.0000 0.0000
-9 5 6 0.0000 0.0000
-9 5 7 0.0000 0.0000
-9 5 8 0.0000 0.0000
-9 5 9 0.0000 0.0000
-9 5 10 0.0000 0.0000
-9 5 11 0.0000 0.0000
-9 5 12 0.0000 0.0000
-9 5 13 0.0000 0.0000
-9 6 1 0.0000 0.0000
-9 6 2 0.0000 0.0000
-9 6 3 0.0000 0.0000
-9 6 4 0.0000 0.0000
-9 6 5 0.0000 0.0000
-9 6 6 0.0000 0.0000
-9 6 7 0.0000 0.0000
-9 6 8 0.0000 0.0000
-9 6 9 0.0000 0.0000
-9 6 10 0.0000 0.0000
-9 6 11 0.0000 0.0000
-9 6 12 0.0000 0.0000
-9 6 13 0.0000 0.0000
-9 7 1 0.0000 0.0000
-9 7 2 0.0000 0.0000
-9 7 3 0.0000 0.0000
-9 7 4 0.0000 0.0000
-9 7 5 0.0000 0.0000
-9 7 6 0.0000 0.0000
-9 7 7 0.0000 0.0000
-9 7 8 0.0000 0.0000
-9 7 9 0.0000 0.0000
-9 7 10 0.0000 0.0000
-9 7 11 0.0000 0.0000
-9 7 12 0.0000 0.0000
-9 7 13 0.0000 0.0000
-9 8 1 0.0000 0.0000
-9 8 2 0.0000 0.0000
-9 8 3 0.0000 0.0000
-9 8 4 0.0000 0.0000
-9 8 5 0.0000 0.0000
-9 8 6 0.0000 0.0000
-9 8 7 0.0000 0.0000
-9 8 8 0.0000 0.0000
-9 8 9 0.0000 0.0000
-9 8 10 0.0000 0.0000
-9 8 11 0.0000 0.0000
-9 8 12 0.0000 0.0000
-9 9 1 0.0000 0.0000
-9 9 2 0.0000 0.0000
-9 9 3 0.0000 0.0000
-9 9 4 0.0000 0.0000
-9 9 5 0.0000 0.0000
-9 9 6 0.0000 0.0000
-9 9 7 0.0000 0.0000
-9 9 8 0.0000 0.0000
-9 9 9 0.0000 0.0000
-9 9 10 0.0000 0.0000
-9 9 11 0.0000 0.0000
-9 9 12 0.0000 0.0000
-9 10 1 0.0000 0.0000
-9 10 2 0.0000 0.0000
-9 10 3 0.0000 0.0000
-9 10 4 0.0000 0.0000
-9 10 5 0.0000 0.0000
-9 10 6 0.0000 0.0000
-9 10 7 0.0000 0.0000
-9 10 8 0.0000 0.0000
-9 10 9 0.0000 0.0000
-9 10 10 0.0000 0.0000
-9 10 11 0.0000 0.0000
-9 10 12 0.0000 0.0000
-9 11 1 0.0000 0.0000
-9 11 2 0.0000 0.0000
-9 11 3 0.0000 0.0000
-9 11 4 0.0000 0.0000
-9 11 5 0.0000 0.0000
-9 11 6 0.0000 0.0000
-9 11 7 0.0000 0.0000
-9 11 8 0.0000 0.0000
-9 11 9 0.0000 0.0000
-9 11 10 0.0000 0.0000
-9 11 11 0.0000 0.0000
-9 11 12 0.0000 0.0000
-9 12 1 0.0000 0.0000
-9 12 2 0.0000 0.0000
-9 12 3 0.0000 0.0000
-9 12 4 0.0000 0.0000
-9 12 5 0.0000 0.0000
-9 12 6 0.0000 0.0000
-9 12 7 0.0000 0.0000
-9 12 8 0.0000 0.0000
-9 12 9 0.0000 0.0000
-9 12 10 0.0000 0.0000
-9 12 11 0.0000 0.0000
-9 12 12 0.0000 0.0000
-9 13 1 0.0000 0.0000
-9 13 2 0.0000 0.0000
-9 13 3 0.0000 0.0000
-9 13 4 0.0000 0.0000
-9 13 5 0.0000 0.0000
-9 13 6 0.0000 0.0000
-9 13 7 0.0000 0.0000
-9 13 8 0.0000 0.0000
-9 13 9 0.0000 0.0000
-9 13 10 0.0000 0.0000
-9 13 11 0.0000 0.0000
-9 13 12 0.0000 0.0000
-9 14 1 0.0000 0.0000
-9 14 2 0.0000 0.0000
-9 14 3 0.0000 0.0000
-9 14 4 0.0000 0.0000
-9 14 5 0.0000 0.0000
-9 14 6 0.0000 0.0000
-9 14 7 0.0000 0.0000
-9 14 8 0.0000 0.0000
-9 14 9 0.0000 0.0000
-9 14 10 0.0000 0.0000
-9 14 11 0.0000 0.0000
-9 14 12 0.0000 0.0000
-9 15 1 0.0000 0.0000
-9 15 2 0.0000 0.0000
-9 15 3 0.0000 0.0000
-9 15 4 0.0000 0.0000
-9 15 5 0.0000 0.0000
-9 15 6 0.0000 0.0000
-9 15 7 0.0000 0.0000
-9 15 8 0.0000 0.0000
-9 15 9 0.0000 0.0000
-9 15 10 0.0000 0.0000
-9 15 11 0.0000 0.0000
-9 16 1 0.0000 0.0000
-9 16 2 0.0000 0.0000
-9 16 3 0.0000 0.0000
-9 16 4 0.0000 0.0000
-9 16 5 0.0000 0.0000
-9 16 6 0.0000 0.0000
-9 16 7 0.0000 0.0000
-9 16 8 0.0000 0.0000
-9 16 9 0.0000 0.0000
-9 16 10 0.0000 0.0000
-9 16 11 0.0000 0.0000
-9 17 1 0.0000 0.0000
-9 17 2 0.0000 0.0000
-9 17 3 0.0000 0.0000
-9 17 4 0.0000 0.0000
-9 17 5 0.0000 0.0000
-9 17 6 0.0000 0.0000
-9 17 7 0.0000 0.0000
-9 17 8 0.0000 0.0000
-9 17 9 0.0000 0.0000
-9 17 10 0.0000 0.0000
-9 17 11 0.0000 0.0000
-9 18 1 0.0000 0.0000
-9 18 2 0.0000 0.0000
-9 18 3 0.0000 0.0000
-9 18 4 0.0000 0.0000
-9 18 5 0.0000 0.0000
-9 18 6 0.0000 0.0000
-9 18 7 0.0000 0.0000
-9 18 8 0.0000 0.0000
-9 18 9 0.0000 0.0000
-9 18 10 0.0000 0.0000
-9 18 11 0.0000 0.0000
-9 19 1 0.0000 0.0000
-9 19 2 0.0000 0.0000
-9 19 3 0.0000 0.0000
-9 19 4 0.0000 0.0000
-9 19 5 0.0000 0.0000
-9 19 6 0.0000 0.0000
-9 19 7 0.0000 0.0000
-9 19 8 0.0000 0.0000
-9 19 9 0.0000 0.0000
-9 19 10 0.0000 0.0000
-9 20 1 0.0000 0.0000
-9 20 2 0.0000 0.0000
-9 20 3 0.0000 0.0000
-9 20 4 0.0000 0.0000
-9 20 5 0.0000 0.0000
-9 20 6 0.0000 0.0000
-9 20 7 0.0000 0.0000
-9 20 8 0.0000 0.0000
-9 20 9 0.0000 0.0000
-9 20 10 0.0000 0.0000
-9 21 1 0.0000 0.0000
-9 21 2 0.0000 0.0000
-9 21 3 0.0000 0.0000
-9 21 4 0.0000 0.0000
-9 21 5 0.0000 0.0000
-9 21 6 0.0000 0.0000
-9 21 7 0.0000 0.0000
-9 21 8 0.0000 0.0000
-9 21 9 0.0000 0.0000
-9 21 10 0.0000 0.0000
-9 22 1 0.0000 0.0000
-9 22 2 0.0000 0.0000
-9 22 3 0.0000 0.0000
-9 22 4 0.0000 0.0000
-9 22 5 0.0000 0.0000
-9 22 6 0.0000 0.0000
-9 22 7 0.0000 0.0000
-9 22 8 0.0000 0.0000
-9 22 9 0.0000 0.0000
-9 23 1 0.0000 0.0000
-9 23 2 0.0000 0.0000
-9 23 3 0.0000 0.0000
-9 23 4 0.0000 0.0000
-9 23 5 0.0000 0.0000
-9 23 6 0.0000 0.0000
-9 23 7 0.0000 0.0000
-9 23 8 0.0000 0.0000
-9 23 9 0.0000 0.0000
-9 24 1 0.0000 0.0000
-9 24 2 0.0000 0.0000
-9 24 3 0.0000 0.0000
-9 24 4 0.0000 0.0000
-9 24 5 0.0000 0.0000
-9 24 6 0.0000 0.0000
-9 24 7 0.0000 0.0000
-9 24 8 0.0000 0.0000
-9 24 9 0.0000 0.0000
-9 25 1 0.0000 0.0000
-9 25 2 0.0000 0.0000
-9 25 3 0.0000 0.0000
-9 25 4 0.0000 0.0000
-9 25 5 0.0000 0.0000
-9 25 6 0.0000 0.0000
-9 25 7 0.0000 0.0000
-9 25 8 0.0000 0.0000
-9 26 1 0.0000 0.0000
-9 26 2 0.0000 0.0000
-9 26 3 0.0000 0.0000
-9 26 4 0.0000 0.0000
-9 26 5 0.0000 0.0000
-9 26 6 0.0000 0.0000
-9 26 7 0.0000 0.0000
-9 26 8 0.0000 0.0000
-9 27 1 0.0000 0.0000
-9 27 2 0.0000 0.0000
-9 27 3 0.0000 0.0000
-9 27 4 0.0000 0.0000
-9 27 5 0.0000 0.0000
-9 27 6 0.0000 0.0000
-9 27 7 0.0000 0.0000
-9 28 1 0.0000 0.0000
-9 28 2 0.0000 0.0000
-9 28 3 0.0000 0.0000
-9 28 4 0.0000 0.0000
-9 28 5 0.0000 0.0000
-9 28 6 0.0000 0.0000
-9 28 7 0.0000 0.0000
-9 29 1 0.0000 0.0000
-9 29 2 0.0000 0.0000
-9 29 3 0.0000 0.0000
-9 29 4 0.0000 0.0000
-9 29 5 0.0000 0.0000
-9 29 6 0.0000 0.0000
-9 30 1 0.0000 0.0000
-9 30 2 0.0000 0.0000
-9 30 3 0.0000 0.0000
-9 30 4 0.0000 0.0000
-9 30 5 0.0000 0.0000
-9 30 6 0.0000 0.0000
-9 31 1 0.0000 0.0000
-9 31 2 0.0000 0.0000
-9 31 3 0.0000 0.0000
-9 31 4 0.0000 0.0000
-9 31 5 0.0000 0.0000
-9 31 6 0.0000 0.0000
-9 32 1 0.0000 0.0000
-9 32 2 0.0000 0.0000
-9 32 3 0.0000 0.0000
-9 32 4 0.0000 0.0000
-9 32 5 0.0000 0.0000
-9 33 1 0.0000 0.0000
-9 33 2 0.0000 0.0000
-9 33 3 0.0000 0.0000
-9 34 1 0.0000 0.0000
-9 34 2 0.0000 0.0000
-9 35 1 0.0000 0.0000
-8 0 1 0.0000 0.0000
-8 0 2 0.0000 0.0000
-8 0 3 0.0000 0.0000
-8 0 4 0.0000 0.0000
-8 0 5 0.0000 0.0000
-8 0 6 0.0000 0.0000
-8 0 7 0.0000 0.0000
-8 0 8 0.0000 0.0000
-8 0 9 0.0000 0.0000
-8 0 10 0.0000 0.0000
-8 0 11 0.0000 0.0000
-8 0 12 0.0000 0.0000
-8 0 13 0.0000 0.0000
-8 0 14 0.0000 0.0000
-8 1 1 0.0000 0.0000
-8 1 2 0.0000 0.0000
-8 1 3 0.0000 0.0000
-8 1 4 0.0000 0.0000
-8 1 5 0.0000 0.0000
-8 1 6 0.0000 0.0000
-8 1 7 0.0000 0.0000
-8 1 8 0.0000 0.0000
-8 1 9 0.0000 0.0000
-8 1 10 0.0000 0.0000
-8 1 11 0.0000 0.0000
-8 1 12 0.0000 0.0000
-8 1 13 0.0000 0.0000
-8 1 14 0.0000 0.0000
-8 2 1 0.0000 0.0000
-8 2 2 0.0000 0.0000
-8 2 3 0.0000 0.0000
-8 2 4 0.0000 0.0000
-8 2 5 0.0000 0.0000
-8 2 6 0.0000 0.0000
-8 2 7 0.0000 0.0000
-8 2 8 0.0000 0.0000
-8 2 9 0.0000 0.0000
-8 2 10 0.0000 0.0000
-8 2 11 0.0000 0.0000
-8 2 12 0.0000 0.0000
-8 2 13 0.0000 0.0000
-8 2 14 0.0000 0.0000
-8 3 1 0.0000 0.0000
-8 3 2 0.0000 0.0000
-8 3 3 0.0000 0.0000
-8 3 4 0.0000 0.0000
-8 3 5 0.0000 0.0000
-8 3 6 0.0000 0.0000
-8 3 7 0.0000 0.0000
-8 3 8 0.0000 0.0000
-8 3 9 0.0000 0.0000
-8 3 10 0.0000 0.0000
-8 3 11 0.0000 0.0000
-8 3 12 0.0000 0.0000
-8 3 13 0.0000 0.0000
-8 3 14 0.0000 0.0000
-8 4 1 0.0000 0.0000
-8 4 2 0.0000 0.0000
-8 4 3 0.0000 0.0000
-8 4 4 0.0000 0.0000
-8 4 5 0.0000 0.0000
-8 4 6 0.0000 0.0000
-8 4 7 0.0000 0.0000
-8 4 8 0.0000 0.0000
-8 4 9 0.0000 0.0000
-8 4 10 0.0000 0.0000
-8 4 11 0.0000 0.0000
-8 4 12 0.0000 0.0000
-8 4 13 0.0000 0.0000
-8 4 14 0.0000 0.0000
-8 5 1 0.0000 0.0000
-8 5 2 0.0000 0.0000
-8 5 3 0.0000 0.0000
-8 5 4 0.0000 0.0000
-8 5 5 0.0000 0.0000
-8 5 6 0.0000 0.0000
-8 5 7 0.0000 0.0000
-8 5 8 0.0000 0.0000
-8 5 9 0.0000 0.0000
-8 5 10 0.0000 0.0000
-8 5 11 0.0000 0.0000
-8 5 12 0.0000 0.0000
-8 5 13 0.0000 0.0000
-8 5 14 0.0000 0.0000
-8 6 1 0.0000 0.0000
-8 6 2 0.0000 0.0000
-8 6 3 0.0000 0.0000
-8 6 4 0.0000 0.0000
-8 6 5 0.0000 0.0000
-8 6 6 0.0000 0.0000
-8 6 7 0.0000 0.0000
-8 6 8 0.0000 0.0000
-8 6 9 0.0000 0.0000
-8 6 10 0.0000 0.0000
-8 6 11 0.0000 0.0000
-8 6 12 0.0000 0.0000
-8 6 13 0.0000 0.0000
-8 6 14 0.0000 0.0000
-8 7 1 0.0000 0.0000
-8 7 2 0.0000 0.0000
-8 7 3 0.0000 0.0000
-8 7 4 0.0000 0.0000
-8 7 5 0.0000 0.0000
-8 7 6 0.0000 0.0000
-8 7 7 0.0000 0.0000
-8 7 8 0.0000 0.0000
-8 7 9 0.0000 0.0000
-8 7 10 0.0000 0.0000
-8 7 11 0.0000 0.0000
-8 7 12 0.0000 0.0000
-8 7 13 0.0000 0.0000
-8 8 1 0.0000 0.0000
-8 8 2 0.0000 0.0000
-8 8 3 0.0000 0.0000
-8 8 4 0.0000 0.0000
-8 8 5 0.0000 0.0000
-8 8 6 0.0000 0.0000
-8 8 7 0.0000 0.0000
-8 8 8 0.0000 0.0000
-8 8 9 0.0000 0.0000
-8 8 10 0.0000 0.0000
-8 8 11 0.0000 0.0000
-8 8 12 0.0000 0.0000
-8 8 13 0.0000 0.0000
-8 9 1 0.0000 0.0000
-8 9 2 0.0000 0.0000
-8 9 3 0.0000 0.0000
-8 9 4 0.0000 0.0000
-8 9 5 0.0000 0.0000
-8 9 6 0.0000 0.0000
-8 9 7 0.0000 0.0000
-8 9 8 0.0000 0.0000
-8 9 9 0.0000 0.0000
-8 9 10 0.0000 0.0000
-8 9 11 0.0000 0.0000
-8 9 12 0.0000 0.0000
-8 9 13 0.0000 0.0000
-8 10 1 0.0000 0.0000
-8 10 2 0.0000 0.0000
-8 10 3 0.0000 0.0000
-8 10 4 0.0000 0.0000
-8 10 5 0.0000 0.0000
-8 10 6 0.0000 0.0000
-8 10 7 0.0000 0.0000
-8 10 8 0.0000 0.0000
-8 10 9 0.0000 0.0000
-8 10 10 0.0000 0.0000
-8 10 11 0.0000 0.0000
-8 10 12 0.0000 0.0000
-8 10 13 0.0000 0.0000
-8 11 1 0.0000 0.0000
-8 11 2 0.0000 0.0000
-8 11 3 0.0000 0.0000
-8 11 4 0.0000 0.0000
-8 11 5 0.0000 0.0000
-8 11 6 0.0000 0.0000
-8 11 7 0.0000 0.0000
-8 11 8 0.0000 0.0000
-8 11 9 0.0000 0.0000
-8 11 10 0.0000 0.0000
-8 11 11 0.0000 0.0000
-8 11 12 0.0000 0.0000
-8 11 13 0.0000 0.0000
-8 12 1 0.0000 0.0000
-8 12 2 0.0000 0.0000
-8 12 3 0.0000 0.0000
-8 12 4 0.0000 0.0000
-8 12 5 0.0000 0.0000
-8 12 6 0.0000 0.0000
-8 12 7 0.0000 0.0000
-8 12 8 0.0000 0.0000
-8 12 9 0.0000 0.0000
-8 12 10 0.0000 0.0000
-8 12 11 0.0000 0.0000
-8 12 12 0.0000 0.0000
-8 12 13 0.0000 0.0000
-8 13 1 0.0000 0.0000
-8 13 2 0.0000 0.0000
-8 13 3 0.0000 0.0000
-8 13 4 0.0000 0.0000
-8 13 5 0.0000 0.0000
-8 13 6 0.0000 0.0000
-8 13 7 0.0000 0.0000
-8 13 8 0.0000 0.0000
-8 13 9 0.0000 0.0000
-8 13 10 0.0000 0.0000
-8 13 11 0.0000 0.0000
-8 13 12 0.0000 0.0000
-8 13 13 0.0000 0.0000
-8 14 1 0.0000 0.0000
-8 14 2 0.0000 0.0000
-8 14 3 0.0000 0.0000
-8 14 4 0.0000 0.0000
-8 14 5 0.0000 0.0000
-8 14 6 0.0000 0.0000
-8 14 7 0.0000 0.0000
-8 14 8 0.0000 0.0000
-8 14 9 0.0000 0.0000
-8 14 10 0.0000 0.0000
-8 14 11 0.0000 0.0000
-8 14 12 0.0000 0.0000
-8 15 1 0.0000 0.0000
-8 15 2 0.0000 0.0000
-8 15 3 0.0000 0.0000
-8 15 4 0.0000 0.0000
-8 15 5 0.0000 0.0000
-8 15 6 0.0000 0.0000
-8 15 7 0.0000 0.0000
-8 15 8 0.0000 0.0000
-8 15 9 0.0000 0.0000
-8 15 10 0.0000 0.0000
-8 15 11 0.0000 0.0000
-8 15 12 0.0000 0.0000
-8 16 1 0.0000 0.0000
-8 16 2 0.0000 0.0000
-8 16 3 0.0000 0.0000
-8 16 4 0.0000 0.0000
-8 16 5 0.0000 0.0000
-8 16 6 0.0000 0.0000
-8 16 7 0.0000 0.0000
-8 16 8 0.0000 0.0000
-8 16 9 0.0000 0.0000
-8 16 10 0.0000 0.0000
-8 16 11 0.0000 0.0000
-8 16 12 0.0000 0.0000
-8 17 1 0.0000 0.0000
-8 17 2 0.0000 0.0000
-8 17 3 0.0000 0.0000
-8 17 4 0.0000 0.0000
-8 17 5 0.0000 0.0000
-8 17 6 0.0000 0.0000
-8 17 7 0.0000 0.0000
-8 17 8 0.0000 0.0000
-8 17 9 0.0000 0.0000
-8 17 10 0.0000 0.0000
-8 17 11 0.0000 0.0000
-8 17 12 0.0000 0.0000
-8 18 1 0.0000 0.0000
-8 18 2 0.0000 0.0000
-8 18 3 0.0000 0.0000
-8 18 4 0.0000 0.0000
-8 18 5 0.0000 0.0000
-8 18 6 0.0000 0.0000
-8 18 7 0.0000 0.0000
-8 18 8 0.0000 0.0000
-8 18 9 0.0000 0.0000
-8 18 10 0.0000 0.0000
-8 18 11 0.0000 0.0000
-8 18 12 0.0000 0.0000
-8 19 1 0.0000 0.0000
-8 19 2 0.0000 0.0000
-8 19 3 0.0000 0.0000
-8 19 4 0.0000 0.0000
-8 19 5 0.0000 0.0000
-8 19 6 0.0000 0.0000
-8 19 7 0.0000 0.0000
-8 19 8 0.0000 0.0000
-8 19 9 0.0000 0.0000
-8 19 10 0.0000 0.0000
-8 19 11 0.0000 0.0000
-8 20 1 0.0000 0.0000
-8 20 2 0.0000 0.0000
-8 20 3 0.0000 0.0000
-8 20 4 0.0000 0.0000
-8 20 5 0.0000 0.0000
-8 20 6 0.0000 0.0000
-8 20 7 0.0000 0.0000
-8 20 8 0.0000 0.0000
-8 20 9 0.0000 0.0000
-8 20 10 0.0000 0.0000
-8 20 11 0.0000 0.0000
-8 21 1 0.0000 0.0000
-8 21 2 0.0000 0.0000
-8 21 3 0.0000 0.0000
-8 21 4 0.0000 0.0000
-8 21 5 0.0000 0.0000
-8 21 6 0.0000 0.0000
-8 21 7 0.0000 0.0000
-8 21 8 0.0000 0.0000
-8 21 9 0.0000 0.0000
-8 21 10 0.0000 0.0000
-8 21 11 0.0000 0.0000
-8 22 1 0.0000 0.0000
-8 22 2 0.0000 0.0000
-8 22 3 0.0000 0.0000
-8 22 4 0.0000 0.0000
-8 22 5 0.0000 0.0000
-8 22 6 0.0000 0.0000
-8 22 7 0.0000 0.0000
-8 22 8 0.0000 0.0000
-8 22 9 0.0000 0.0000
-8 22 10 0.0000 0.0000
-8 23 1 0.0000 0.0000
-8 23 2 0.0000 0.0000
-8 23 3 0.0000 0.0000
-8 23 4 0.0000 0.0000
-8 23 5 0.0000 0.0000
-8 23 6 0.0000 0.0000
-8 23 7 0.0000 0.0000
-8 23 8 0.0000 0.0000
-8 23 9 0.0000 0.0000
-8 23 10 0.0000 0.0000
-8 24 1 0.0000 0.0000
-8 24 2 0.0000 0.0000
-8 24 3 0.0000 0.0000
-8 24 4 0.0000 0.0000
-8 24 5 0.0000 0.0000
-8 24 6 0.0000 0.0000
-8 24 7 0.0000 0.0000
-8 24 8 0.0000 0.0000
-8 24 9 0.0000 0.0000
-8 24 10 0.0000 0.0000
-8 25 1 0.0000 0.0000
-8 25 2 0.0000 0.0000
-8 25 3 0.0000 0.0000
-8 25 4 0.0000 0.0000
-8 25 5 0.0000 0.0000
-8 25 6 0.0000 0.0000
-8 25 7 0.0000 0.0000
-8 25 8 0.0000 0.0000
-8 25 9 0.0000 0.0000
-8 26 1 0.0000 0.0000
-8 26 2 0.0000 0.0000
-8 26 3 0.0000 0.0000
-8 26 4 0.0000 0.0000
-8 26 5 0.0000 0.0000
-8 26 6 0.0000 0.0000
-8 26 7 0.0000 0.0000
-8 26 8 0.0000 0.0000
-8 26 9 0.0000 0.0000
-8 27 1 0.0000 0.0000
-8 27 2 0.0000 0.0000
-8 27 3 0.0000 0.0000
-8 27 4 0.0000 0.0000
-8 27 5 0.0000 0.0000
-8 27 6 0.0000 0.0000
-8 27 7 0.0000 0.0000
-8 27 8 0.0000 0.0000
-8 28 1 0.0000 0.0000
-8 28 2 0.0000 0.0000
-8 28 3 0.0000 0.0000
-8 28 4 0.0000 0.0000
-8 28 5 0.0000 0.0000
-8 28 6 0.0000 0.0000
-8 28 7 0.0000 0.0000
-8 28 8 0.0000 0.0000
-8 29 1 0.0000 0.0000
-8 29 2 0.0000 0.0000
-8 29 3 0.0000 0.0000
-8 29 4 0.0000 0.0000
-8 29 5 0.0000 0.0000
-8 29 6 0.0000 0.0000
-8 29 7 0.0000 0.0000
-8 30 1 0.0000 0.0000
-8 30 2 0.0000 0.0000
-8 30 3 0.0000 0.0000
-8 30 4 0.0000 0.0000
-8 30 5 0.0000 0.0000
-8 30 6 0.0000 0.0000
-8 30 7 0.0000 0.0000
-8 31 1 0.0000 0.0000
-8 31 2 0.0000 0.0000
-8 31 3 0.0000 0.0000
-8 31 4 0.0000 0.0000
-8 31 5 0.0000 0.0000
-8 31 6 0.0000 0.0000
-8 32 1 0.0000 0.0000
-8 32 2 0.0000 0.0000
-8 32 3 0.0000 0.0000
-8 32 4 0.0000 0.0000
-8 32 5 0.0000 0.0000
-8 32 6 0.0000 0.0000
-8 32 7 0.0000 0.0000
-8 33 1 0.0000 0.0000
-8 33 2 0.0000 0.0000
-8 33 3 0.0000 0.0000
-8 33 4 0.0000 0.0000
-8 33 5 0.0000 0.0000
-8 33 6 0.0000 0.0000
-8 33 7 0.0000 0.0000
-8 33 8 0.0000 0.0000
-8 34 1 0.0000 0.0000
-8 34 2 0.0000 0.0000
-8 34 3 0.0000 0.0000
-8 34 4 0.0000 0.0000
-8 34 5 0.0000 0.0000
-8 34 6 0.0000 0.0000
-8 34 7 0.0000 0.0000
-8 35 1 0.0000 0.0000
-8 35 2 0.0000 0.0000
-8 35 3 0.0000 0.0000
-8 35 4 0.0000 0.0000
-8 35 5 0.0000 0.0000
-8 36 1 0.0000 0.0000
-8 36 2 0.0000 0.0000
-7 0 1 0.0000 0.0000
-7 0 2 0.0000 0.0000
-7 0 3 0.0000 0.0000
-7 0 4 0.0000 0.0000
-7 0 5 0.0000 0.0000
-7 0 6 0.0000 0.0000
-7 0 7 0.0000 0.0000
-7 0 8 0.0000 0.0000
-7 0 9 0.0000 0.0000
-7 0 10 0.0000 0.0000
-7 0 11 0.0000 0.0000
-7 0 12 0.0000 0.0000
-7 0 13 0.0000 0.0000
-7 0 14 0.0000 0.0000
-7 0 15 0.0000 0.0000
-7 1 1 0.0000 0.0000
-7 1 2 0.0000 0.0000
-7 1 3 0.0000 0.0000
-7 1 4 0.0000 0.0000
-7 1 5 0.0000 0.0000
-7 1 6 0.0000 0.0000
-7 1 7 0.0000 0.0000
-7 1 8 0.0000 0.0000
-7 1 9 0.0000 0.0000
-7 1 10 0.0000 0.0000
-7 1 11 0.0000 0.0000
-7 1 12 0.0000 0.0000
-7 1 13 0.0000 0.0000
-7 1 14 0.0000 0.0000
-7 1 15 0.0000 0.0000
-7 2 1 0.0000 0.0000
-7 2 2 0.0000 0.0000
-7 2 3 0.0000 0.0000
-7 2 4 0.0000 0.0000
-7 2 5 0.0000 0.0000
-7 2 6 0.0000 0.0000
-7 2 7 0.0000 0.0000
-7 2 8 0.0000 0.0000
-7 2 9 0.0000 0.0000
-7 2 10 0.0000 0.0000
-7 2 11 0.0000 0.0000
-7 2 12 0.0000 0.0000
-7 2 13 0.0000 0.0000
-7 2 14 0.0000 0.0000
-7 2 15 0.0000 0.0000
-7 3 1 0.0000 0.0000
-7 3 2 0.0000 0.0000
-7 3 3 0.0000 0.0000
-7 3 4 0.0000 0.0000
-7 3 5 0.0000 0.0000
-7 3 6 0.0000 0.0000
-7 3 7 0.0000 0.0000
-7 3 8 0.0000 0.0000
-7 3 9 0.0000 0.0000
-7 3 10 0.0000 0.0000
-7 3 11 0.0000 0.0000
-7 3 12 0.0000 0.0000
-7 3 13 0.0000 0.0000
-7 3 14 0.0000 0.0000
-7 3 15 0.0000 0.0000
-7 4 1 0.0000 0.0000
-7 4 2 0.0000 0.0000
-7 4 3 0.0000 0.0000
-7 4 4 0.0000 0.0000
-7 4 5 0.0000 0.0000
-7 4 6 0.0000 0.0000
-7 4 7 0.0000 0.0000
-7 4 8 0.0000 0.0000
-7 4 9 0.0000 0.0000
-7 4 10 0.0000 0.0000
-7 4 11 0.0000 0.0000
-7 4 12 0.0000 0.0000
-7 4 13 0.0000 0.0000
-7 4 14 0.0000 0.0000
-7 4 15 0.0000 0.0000
-7 5 1 0.0000 0.0000
-7 5 2 0.0000 0.0000
-7 5 3 0.0000 0.0000
-7 5 4 0.0000 0.0000
-7 5 5 0.0000 0.0000
-7 5 6 0.0000 0.0000
-7 5 7 0.0000 0.0000
-7 5 8 0.0000 0.0000
-7 5 9 0.0000 0.0000
-7 5 10 0.0000 0.0000
-7 5 11 0.0000 0.0000
-7 5 12 0.0000 0.0000
-7 5 13 0.0000 0.0000
-7 5 14 0.0000 0.0000
-7 5 15 0.0000 0.0000
-7 6 1 0.0000 0.0000
-7 6 2 0.0000 0.0000
-7 6 3 0.0000 0.0000
-7 6 4 0.0000 0.0000
-7 6 5 0.0000 0.0000
-7 6 6 0.0000 0.0000
-7 6 7 0.0000 0.0000
-7 6 8 0.0000 0.0000
-7 6 9 0.0000 0.0000
-7 6 10 0.0000 0.0000
-7 6 11 0.0000 0.0000
-7 6 12 0.0000 0.0000
-7 6 13 0.0000 0.0000
-7 6 14 0.0000 0.0000
-7 7 1 0.0000 0.0000
-7 7 2 0.0000 0.0000
-7 7 3 0.0000 0.0000
-7 7 4 0.0000 0.0000
-7 7 5 0.0000 0.0000
-7 7 6 0.0000 0.0000
-7 7 7 0.0000 0.0000
-7 7 8 0.0000 0.0000
-7 7 9 0.0000 0.0000
-7 7 10 0.0000 0.0000
-7 7 11 0.0000 0.0000
-7 7 12 0.0000 0.0000
-7 7 13 0.0000 0.0000
-7 7 14 0.0000 0.0000
-7 8 1 0.0000 0.0000
-7 8 2 0.0000 0.0000
-7 8 3 0.0000 0.0000
-7 8 4 0.0000 0.0000
-7 8 5 0.0000 0.0000
-7 8 6 0.0000 0.0000
-7 8 7 0.0000 0.0000
-7 8 8 0.0000 0.0000
-7 8 9 0.0000 0.0000
-7 8 10 0.0000 0.0000
-7 8 11 0.0000 0.0000
-7 8 12 0.0000 0.0000
-7 8 13 0.0000 0.0000
-7 8 14 0.0000 0.0000
-7 9 1 0.0000 0.0000
-7 9 2 0.0000 0.0000
-7 9 3 0.0000 0.0000
-7 9 4 0.0000 0.0000
-7 9 5 0.0000 0.0000
-7 9 6 0.0000 0.0000
-7 9 7 0.0000 0.0000
-7 9 8 0.0000 0.0000
-7 9 9 0.0000 0.0000
-7 9 10 0.0000 0.0000
-7 9 11 0.0000 0.0000
-7 9 12 0.0000 0.0000
-7 9 13 0.0000 0.0000
-7 9 14 0.0000 0.0000
-7 10 1 0.0000 0.0000
-7 10 2 0.0000 0.0000
-7 10 3 0.0000 0.0000
-7 10 4 0.0000 0.0000
-7 10 5 0.0000 0.0000
-7 10 6 0.0000 0.0000
-7 10 7 0.0000 0.0000
-7 10 8 0.0000 0.0000
-7 10 9 0.0000 0.0000
-7 10 10 0.0000 0.0000
-7 10 11 0.0000 0.0000
-7 10 12 0.0000 0.0000
-7 10 13 0.0000 0.0000
-7 10 14 0.0000 0.0000
-7 11 1 0.0000 0.0000
-7 11 2 0.0000 0.0000
-7 11 3 0.0000 0.0000
-7 11 4 0.0000 0.0000
-7 11 5 0.0000 0.0000
-7 11 6 0.0000 0.0000
-7 11 7 0.0000 0.0000
-7 11 8 0.0000 0.0000
-7 11 9 0.0000 0.0000
-7 11 10 0.0000 0.0000
-7 11 11 0.0000 0.0000
-7 11 12 0.0000 0.0000
-7 11 13 0.0000 0.0000
-7 11 14 0.0000 0.0000
-7 12 1 0.0000 0.0000
-7 12 2 0.0000 0.0000
-7 12 3 0.0000 0.0000
-7 12 4 0.0000 0.0000
-7 12 5 0.0000 0.0000
-7 12 6 0.0000 0.0000
-7 12 7 0.0000 0.0000
-7 12 8 0.0000 0.0000
-7 12 9 0.0000 0.0000
-7 12 10 0.0000 0.0000
-7 12 11 0.0000 0.0000
-7 12 12 0.0000 0.0000
-7 12 13 0.0000 0.0000
-7 12 14 0.0000 0.0000
-7 13 1 0.0000 0.0000
-7 13 2 0.0000 0.0000
-7 13 3 0.0000 0.0000
-7 13 4 0.0000 0.0000
-7 13 5 0.0000 0.0000
-7 13 6 0.0000 0.0000
-7 13 7 0.0000 0.0000
-7 13 8 0.0000 0.0000
-7 13 9 0.0000 0.0000
-7 13 10 0.0000 0.0000
-7 13 11 0.0000 0.0000
-7 13 12 0.0000 0.0000
-7 13 13 0.0000 0.0000
-7 13 14 0.0000 0.0000
-7 14 1 0.0000 0.0000
-7 14 2 0.0000 0.0000
-7 14 3 0.0000 0.0000
-7 14 4 0.0000 0.0000
-7 14 5 0.0000 0.0000
-7 14 6 0.0000 0.0000
-7 14 7 0.0000 0.0000
-7 14 8 0.0000 0.0000
-7 14 9 0.0000 0.0000
-7 14 10 0.0000 0.0000
-7 14 11 0.0000 0.0000
-7 14 12 0.0000 0.0000
-7 14 13 0.0000 0.0000
-7 15 1 0.0000 0.0000
-7 15 2 0.0000 0.0000
-7 15 3 0.0000 0.0000
-7 15 4 0.0000 0.0000
-7 15 5 0.0000 0.0000
-7 15 6 0.0000 0.0000
-7 15 7 0.0000 0.0000
-7 15 8 0.0000 0.0000
-7 15 9 0.0000 0.0000
-7 15 10 0.0000 0.0000
-7 15 11 0.0000 0.0000
-7 15 12 0.0000 0.0000
-7 15 13 0.0000 0.0000
-7 16 1 0.0000 0.0000
-7 16 2 0.0000 0.0000
-7 16 3 0.0000 0.0000
-7 16 4 0.0000 0.0000
-7 16 5 0.0000 0.0000
-7 16 6 0.0000 0.0000
-7 16 7 0.0000 0.0000
-7 16 8 0.0000 0.0000
-7 16 9 0.0000 0.0000
-7 16 10 0.0000 0.0000
-7 16 11 0.0000 0.0000
-7 16 12 0.0000 0.0000
-7 16 13 0.0000 0.0000
-7 17 1 0.0000 0.0000
-7 17 2 0.0000 0.0000
-7 17 3 0.0000 0.0000
-7 17 4 0.0000 0.0000
-7 17 5 0.0000 0.0000
-7 17 6 0.0000 0.0000
-7 17 7 0.0000 0.0000
-7 17 8 0.0000 0.0000
-7 17 9 0.0000 0.0000
-7 17 10 0.0000 0.0000
-7 17 11 0.0000 0.0000
-7 17 12 0.0000 0.0000
-7 17 13 0.0000 0.0000
-7 18 1 0.0000 0.0000
-7 18 2 0.0000 0.0000
-7 18 3 0.0000 0.0000
-7 18 4 0.0000 0.0000
-7 18 5 0.0000 0.0000
-7 18 6 0.0000 0.0000
-7 18 7 0.0000 0.0000
-7 18 8 0.0000 0.0000
-7 18 9 0.0000 0.0000
-7 18 10 0.0000 0.0000
-7 18 11 0.0000 0.0000
-7 18 12 0.0000 0.0000
-7 19 1 0.0000 0.0000
-7 19 2 0.0000 0.0000
-7 19 3 0.0000 0.0000
-7 19 4 0.0000 0.0000
-7 19 5 0.0000 0.0000
-7 19 6 0.0000 0.0000
-7 19 7 0.0000 0.0000
-7 19 8 0.0000 0.0000
-7 19 9 0.0000 0.0000
-7 19 10 0.0000 0.0000
-7 19 11 0.0000 0.0000
-7 19 12 0.0000 0.0000
-7 20 1 0.0000 0.0000
-7 20 2 0.0000 0.0000
-7 20 3 0.0000 0.0000
-7 20 4 0.0000 0.0000
-7 20 5 0.0000 0.0000
-7 20 6 0.0000 0.0000
-7 20 7 0.0000 0.0000
-7 20 8 0.0000 0.0000
-7 20 9 0.0000 0.0000
-7 20 10 0.0000 0.0000
-7 20 11 0.0000 0.0000
-7 20 12 0.0000 0.0000
-7 21 1 0.0000 0.0000
-7 21 2 0.0000 0.0000
-7 21 3 0.0000 0.0000
-7 21 4 0.0000 0.0000
-7 21 5 0.0000 0.0000
-7 21 6 0.0000 0.0000
-7 21 7 0.0000 0.0000
-7 21 8 0.0000 0.0000
-7 21 9 0.0000 0.0000
-7 21 10 0.0000 0.0000
-7 21 11 0.0000 0.0000
-7 21 12 0.0000 0.0000
-7 22 1 0.0000 0.0000
-7 22 2 0.0000 0.0000
-7 22 3 0.0000 0.0000
-7 22 4 0.0000 0.0000
-7 22 5 0.0000 0.0000
-7 22 6 0.0000 0.0000
-7 22 7 0.0000 0.0000
-7 22 8 0.0000 0.0000
-7 22 9 0.0000 0.0000
-7 22 10 0.0000 0.0000
-7 22 11 0.0000 0.0000
-7 23 1 0.0000 0.0000
-7 23 2 0.0000 0.0000
-7 23 3 0.0000 0.0000
-7 23 4 0.0000 0.0000
-7 23 5 0.0000 0.0000
-7 23 6 0.0000 0.0000
-7 23 7 0.0000 0.0000
-7 23 8 0.0000 0.0000
-7 23 9 0.0000 0.0000
-7 23 10 0.0000 0.0000
-7 23 11 0.0000 0.0000
-7 24 1 0.0000 0.0000
-7 24 2 0.0000 0.0000
-7 24 3 0.0000 0.0000
-7 24 4 0.0000 0.0000
-7 24 5 0.0000 0.0000
-7 24 6 0.0000 0.0000
-7 24 7 0.0000 0.0000
-7 24 8 0.0000 0.0000
-7 24 9 0.0000 0.0000
-7 24 10 0.0000 0.0000
-7 24 11 0.0000 0.0000
-7 25 1 0.0000 0.0000
-7 25 2 0.0000 0.0000
-7 25 3 0.0000 0.0000
-7 25 4 0.0000 0.0000
-7 25 5 0.0000 0.0000
-7 25 6 0.0000 0.0000
-7 25 7 0.0000 0.0000
-7 25 8 0.0000 0.0000
-7 25 9 0.0000 0.0000
-7 25 10 0.0000 0.0000
-7 26 1 0.0000 0.0000
-7 26 2 0.0000 0.0000
-7 26 3 0.0000 0.0000
-7 26 4 0.0000 0.0000
-7 26 5 0.0000 0.0000
-7 26 6 0.0000 0.0000
-7 26 7 0.0000 0.0000
-7 26 8 0.0000 0.0000
-7 26 9 0.0000 0.0000
-7 26 10 0.0000 0.0000
-7 27 1 0.0000 0.0000
-7 27 2 0.0000 0.0000
-7 27 3 0.0000 0.0000
-7 27 4 0.0000 0.0000
-7 27 5 0.0000 0.0000
-7 27 6 0.0000 0.0000
-7 27 7 0.0000 0.0000
-7 27 8 0.0000 0.0000
-7 27 9 0.0000 0.0000
-7 28 1 0.0000 0.0000
-7 28 2 0.0000 0.0000
-7 28 3 0.0000 0.0000
-7 28 4 0.0000 0.0000
-7 28 5 0.0000 0.0000
-7 28 6 0.0000 0.0000
-7 28 7 0.0000 0.0000
-7 28 8 0.0000 0.0000
-7 28 9 0.0000 0.0000
-7 29 1 0.0000 0.0000
-7 29 2 0.0000 0.0000
-7 29 3 0.0000 0.0000
-7 29 4 0.0000 0.0000
-7 29 5 0.0000 0.0000
-7 29 6 0.0000 0.0000
-7 29 7 0.0000 0.0000
-7 29 8 0.0000 0.0000
-7 30 1 0.0000 0.0000
-7 30 2 0.0000 0.0000
-7 30 3 0.0000 0.0000
-7 30 4 0.0000 0.0000
-7 30 5 0.0000 0.0000
-7 30 6 0.0000 0.0000
-7 30 7 0.0000 0.0000
-7 30 8 0.0000 0.0000
-7 31 1 0.0000 0.0000
-7 31 2 0.0000 0.0000
-7 31 3 0.0000 0.0000
-7 31 4 0.0000 0.0000
-7 31 5 0.0000 0.0000
-7 31 6 0.0000 0.0000
-7 31 7 0.0000 0.0000
-7 32 1 0.0000 0.0000
-7 32 2 0.0000 0.0000
-7 32 3 0.0000 0.0000
-7 32 4 0.0000 0.0000
-7 32 5 0.0000 0.0000
-7 32 6 0.0000 0.0000
-7 32 7 0.0000 0.0000
-7 33 1 0.0000 0.0000
-7 33 2 0.0000 0.0000
-7 33 3 0.0000 0.0000
-7 33 4 0.0000 0.0000
-7 33 5 0.0000 0.0000
-7 33 6 0.0000 0.0000
-7 33 7 0.0000 0.0000
-7 33 8 0.0000 0.0000
-7 34 1 0.0000 0.0000
-7 34 2 0.0000 0.0000
-7 34 3 0.0000 0.0000
-7 34 4 0.0000 0.0000
-7 34 5 0.0000 0.0000
-7 34 6 0.0000 0.0000
-7 34 7 0.0000 0.0000
-7 34 8 0.0000 0.0000
-7 35 1 0.0000 0.0000
-7 35 2 0.0000 0.0000
-7 35 3 0.0000 0.0000
-7 35 4 0.0000 0.0000
-7 35 5 0.0000 0.0000
-7 35 6 0.0000 0.0000
-7 35 7 0.0000 0.0000
-7 36 1 0.0000 0.0000
-7 36 2 0.0000 0.0000
-7 36 3 0.0000 0.0000
-7 36 4 0.0000 0.0000
-7 36 5 0.0000 0.0000
-7 36 6 0.0000 0.0000
-7 36 7 0.0000 0.0000
-7 37 1 0.0000 0.0000
-7 37 2 0.0000 0.0000
-7 37 3 0.0000 0.0000
-7 37 4 0.0000 0.0000
-7 37 5 0.0000 0.0000
-7 37 6 0.0000 0.0000
-6 0 1 0.0000 0.0000
-6 0 2 0.0000 0.0000
-6 0 3 0.0000 0.0000
-6 0 4 0.0000 0.0000
-6 0 5 0.0000 0.0000
-6 0 6 0.0000 0.0000
-6 0 7 0.0000 0.0000
-6 0 8 0.0000 0.0000
-6 0 9 0.0000 0.0000
-6 0 10 0.0000 0.0000
-6 0 11 0.0000 0.0000
-6 0 12 0.0000 0.0000
-6 0 13 0.0000 0.0000
-6 0 14 0.0000 0.0000
-6 0 15 0.0000 0.0000
-6 0 16 0.0000 0.0000
-6 1 1 0.0000 0.0000
-6 1 2 0.0000 0.0000
-6 1 3 0.0000 0.0000
-6 1 4 0.0000 0.0000
-6 1 5 0.0000 0.0000
-6 1 6 0.0000 0.0000
-6 1 7 0.0000 0.0000
-6 1 8 0.0000 0.0000
-6 1 9 0.0000 0.0000
-6 1 10 0.0000 0.0000
-6 1 11 0.0000 0.0000
-6 1 12 0.0000 0.0000
-6 1 13 0.0000 0.0000
-6 1 14 0.0000 0.0000
-6 1 15 0.0000 0.0000
-6 1 16 0.0000 0.0000
-6 2 1 0.0000 0.0000
-6 2 2 0.0000 0.0000
-6 2 3 0.0000 0.0000
-6 2 4 0.0000 0.0000
-6 2 5 0.0000 0.0000
-6 2 6 0.0000 0.0000
-6 2 7 0.0000 0.0000
-6 2 8 0.0000 0.0000
-6 2 9 0.0000 0.0000
-6 2 10 0.0000 0.0000
-6 2 11 0.0000 0.0000
-6 2 12 0.0000 0.0000
-6 2 13 0.0000 0.0000
-6 2 14 0.0000 0.0000
-6 2 15 0.0000 0.0000
-6 2 16 0.0000 0.0000
-6 3 1 0.0000 0.0000
-6 3 2 0.0000 0.0000
-6 3 3 0.0000 0.0000
-6 3 4 0.0000 0.0000
-6 3 5 0.0000 0.0000
-6 3 6 0.0000 0.0000
-6 3 7 0.0000 0.0000
-6 3 8 0.0000 0.0000
-6 3 9 0.0000 0.0000
-6 3 10 0.0000 0.0000
-6 3 11 0.0000 0.0000
-6 3 12 0.0000 0.0000
-6 3 13 0.0000 0.0000
-6 3 14 0.0000 0.0000
-6 3 15 0.0000 0.0000
-6 4 1 0.0000 0.0000
-6 4 2 0.0000 0.0000
-6 4 3 0.0000 0.0000
-6 4 4 0.0000 0.0000
-6 4 5 0.0000 0.0000
-6 4 6 0.0000 0.0000
-6 4 7 0.0000 0.0000
-6 4 8 0.0000 0.0000
-6 4 9 0.0000 0.0000
-6 4 10 0.0000 0.0000
-6 4 11 0.0000 0.0000
-6 4 12 0.0000 0.0000
-6 4 13 0.0000 0.0000
-6 4 14 0.0000 0.0000
-6 4 15 0.0000 0.0000
-6 5 1 0.0000 0.0000
-6 5 2 0.0000 0.0000
-6 5 3 0.0000 0.0000
-6 5 4 0.0000 0.0000
-6 5 5 0.0000 0.0000
-6 5 6 0.0000 0.0000
-6 5 7 0.0000 0.0000
-6 5 8 0.0000 0.0000
-6 5 9 0.0000 0.0000
-6 5 10 0.0000 0.0000
-6 5 11 0.0000 0.0000
-6 5 12 0.0000 0.0000
-6 5 13 0.0000 0.0000
-6 5 14 0.0000 0.0000
-6 5 15 0.0000 0.0000
-6 6 1 0.0000 0.0000
-6 6 2 0.0000 0.0000
-6 6 3 0.0000 0.0000
-6 6 4 0.0000 0.0000
-6 6 5 0.0000 0.0000
-6 6 6 0.0000 0.0000
-6 6 7 0.0000 0.0000
-6 6 8 0.0000 0.0000
-6 6 9 0.0000 0.0000
-6 6 10 0.0000 0.0000
-6 6 11 0.0000 0.0000
-6 6 12 0.0000 0.0000
-6 6 13 0.0000 0.0000
-6 6 14 0.0000 0.0000
-6 6 15 0.0000 0.0000
-6 7 1 0.0000 0.0000
-6 7 2 0.0000 0.0000
-6 7 3 0.0000 0.0000
-6 7 4 0.0000 0.0000
-6 7 5 0.0000 0.0000
-6 7 6 0.0000 0.0000
-6 7 7 0.0000 0.0000
-6 7 8 0.0000 0.0000
-6 7 9 0.0000 0.0000
-6 7 10 0.0000 0.0000
-6 7 11 0.0000 0.0000
-6 7 12 0.0000 0.0000
-6 7 13 0.0000 0.0000
-6 7 14 0.0000 0.0000
-6 7 15 0.0000 0.0000
-6 8 1 0.0000 0.0000
-6 8 2 0.0000 0.0000
-6 8 3 0.0000 0.0000
-6 8 4 0.0000 0.0000
-6 8 5 0.0000 0.0000
-6 8 6 0.0000 0.0000
-6 8 7 0.0000 0.0000
-6 8 8 0.0000 0.0000
-6 8 9 0.0000 0.0000
-6 8 10 0.0000 0.0000
-6 8 11 0.0000 0.0000
-6 8 12 0.0000 0.0000
-6 8 13 0.0000 0.0000
-6 8 14 0.0000 0.0000
-6 8 15 0.0000 0.0000
-6 9 1 0.0000 0.0000
-6 9 2 0.0000 0.0000
-6 9 3 0.0000 0.0000
-6 9 4 0.0000 0.0000
-6 9 5 0.0000 0.0000
-6 9 6 0.0000 0.0000
-6 9 7 0.0000 0.0000
-6 9 8 0.0000 0.0000
-6 9 9 0.0000 0.0000
-6 9 10 0.0000 0.0000
-6 9 11 0.0000 0.0000
-6 9 12 0.0000 0.0000
-6 9 13 0.0000 0.0000
-6 9 14 0.0000 0.0000
-6 9 15 0.0000 0.0000
-6 10 1 0.0000 0.0000
-6 10 2 0.0000 0.0000
-6 10 3 0.0000 0.0000
-6 10 4 0.0000 0.0000
-6 10 5 0.0000 0.0000
-6 10 6 0.0000 0.0000
-6 10 7 0.0000 0.0000
-6 10 8 0.0000 0.0000
-6 10 9 0.0000 0.0000
-6 10 10 0.0000 0.0000
-6 10 11 0.0000 0.0000
-6 10 12 0.0000 0.0000
-6 10 13 0.0000 0.0000
-6 10 14 0.0000 0.0000
-6 10 15 0.0000 0.0000
-6 11 1 0.0000 0.0000
-6 11 2 0.0000 0.0000
-6 11 3 0.0000 0.0000
-6 11 4 0.0000 0.0000
-6 11 5 0.0000 0.0000
-6 11 6 0.0000 0.0000
-6 11 7 0.0000 0.0000
-6 11 8 0.0000 0.0000
-6 11 9 0.0000 0.0000
-6 11 10 0.0000 0.0000
-6 11 11 0.0000 0.0000
-6 11 12 0.0000 0.0000
-6 11 13 0.0000 0.0000
-6 11 14 0.0000 0.0000
-6 11 15 0.0000 0.0000
-6 12 1 0.0000 0.0000
-6 12 2 0.0000 0.0000
-6 12 3 0.0000 0.0000
-6 12 4 0.0000 0.0000
-6 12 5 0.0000 0.0000
-6 12 6 0.0000 0.0000
-6 12 7 0.0000 0.0000
-6 12 8 0.0000 0.0000
-6 12 9 0.0000 0.0000
-6 12 10 0.0000 0.0000
-6 12 11 0.0000 0.0000
-6 12 12 0.0000 0.0000
-6 12 13 0.0000 0.0000
-6 12 14 0.0000 0.0000
-6 12 15 0.0000 0.0000
-6 13 1 0.0000 0.0000
-6 13 2 0.0000 0.0000
-6 13 3 0.0000 0.0000
-6 13 4 0.0000 0.0000
-6 13 5 0.0000 0.0000
-6 13 6 0.0000 0.0000
-6 13 7 0.0000 0.0000
-6 13 8 0.0000 0.0000
-6 13 9 0.0000 0.0000
-6 13 10 0.0000 0.0000
-6 13 11 0.0000 0.0000
-6 13 12 0.0000 0.0000
-6 13 13 0.0000 0.0000
-6 13 14 0.0000 0.0000
-6 14 1 0.0000 0.0000
-6 14 2 0.0000 0.0000
-6 14 3 0.0000 0.0000
-6 14 4 0.0000 0.0000
-6 14 5 0.0000 0.0000
-6 14 6 0.0000 0.0000
-6 14 7 0.0000 0.0000
-6 14 8 0.0000 0.0000
-6 14 9 0.0000 0.0000
-6 14 10 0.0000 0.0000
-6 14 11 0.0000 0.0000
-6 14 12 0.0000 0.0000
-6 14 13 0.0000 0.0000
-6 14 14 0.0000 0.0000
-6 15 1 0.0000 0.0000
-6 15 2 0.0000 0.0000
-6 15 3 0.0000 0.0000
-6 15 4 0.0000 0.0000
-6 15 5 0.0000 0.0000
-6 15 6 0.0000 0.0000
-6 15 7 0.0000 0.0000
-6 15 8 0.0000 0.0000
-6 15 9 0.0000 0.0000
-6 15 10 0.0000 0.0000
-6 15 11 0.0000 0.0000
-6 15 12 0.0000 0.0000
-6 15 13 0.0000 0.0000
-6 15 14 0.0000 0.0000
-6 16 1 0.0000 0.0000
-6 16 2 0.0000 0.0000
-6 16 3 0.0000 0.0000
-6 16 4 0.0000 0.0000
-6 16 5 0.0000 0.0000
-6 16 6 0.0000 0.0000
-6 16 7 0.0000 0.0000
-6 16 8 0.0000 0.0000
-6 16 9 0.0000 0.0000
-6 16 10 0.0000 0.0000
-6 16 11 0.0000 0.0000
-6 16 12 0.0000 0.0000
-6 16 13 0.0000 0.0000
-6 16 14 0.0000 0.0000
-6 17 1 0.0000 0.0000
-6 17 2 0.0000 0.0000
-6 17 3 0.0000 0.0000
-6 17 4 0.0000 0.0000
-6 17 5 0.0000 0.0000
-6 17 6 0.0000 0.0000
-6 17 7 0.0000 0.0000
-6 17 8 0.0000 0.0000
-6 17 9 0.0000 0.0000
-6 17 10 0.0000 0.0000
-6 17 11 0.0000 0.0000
-6 17 12 0.0000 0.0000
-6 17 13 0.0000 0.0000
-6 17 14 0.0000 0.0000
-6 18 1 0.0000 0.0000
-6 18 2 0.0000 0.0000
-6 18 3 0.0000 0.0000
-6 18 4 0.0000 0.0000
-6 18 5 0.0000 0.0000
-6 18 6 0.0000 0.0000
-6 18 7 0.0000 0.0000
-6 18 8 0.0000 0.0000
-6 18 9 0.0000 0.0000
-6 18 10 0.0000 0.0000
-6 18 11 0.0000 0.0000
-6 18 12 0.0000 0.0000
-6 18 13 0.0000 0.0000
-6 19 1 0.0000 0.0000
-6 19 2 0.0000 0.0000
-6 19 3 0.0000 0.0000
-6 19 4 0.0000 0.0000
-6 19 5 0.0000 0.0000
-6 19 6 0.0000 0.0000
-6 19 7 0.0000 0.0000
-6 19 8 0.0000 0.0000
-6 19 9 0.0000 0.0000
-6 19 10 0.0000 0.0000
-6 19 11 0.0000 0.0000
-6 19 12 0.0000 0.0000
-6 19 13 0.0000 0.0000
-6 20 1 0.0000 0.0000
-6 20 2 0.0000 0.0000
-6 20 3 0.0000 0.0000
-6 20 4 0.0000 0.0000
-6 20 5 0.0000 0.0000
-6 20 6 0.0000 0.0000
-6 20 7 0.0000 0.0000
-6 20 8 0.0000 0.0000
-6 20 9 0.0000 0.0000
-6 20 10 0.0000 0.0000
-6 20 11 0.0000 0.0000
-6 20 12 0.0000 0.0000
-6 20 13 0.0000 0.0000
-6 21 1 0.0000 0.0000
-6 21 2 0.0000 0.0000
-6 21 3 0.0000 0.0000
-6 21 4 0.0000 0.0000
-6 21 5 0.0000 0.0000
-6 21 6 0.0000 0.0000
-6 21 7 0.0000 0.0000
-6 21 8 0.0000 0.0000
-6 21 9 0.0000 0.0000
-6 21 10 0.0000 0.0000
-6 21 11 0.0000 0.0000
-6 21 12 0.0000 0.0000
-6 22 1 0.0000 0.0000
-6 22 2 0.0000 0.0000
-6 22 3 0.0000 0.0000
-6 22 4 0.0000 0.0000
-6 22 5 0.0000 0.0000
-6 22 6 0.0000 0.0000
-6 22 7 0.0000 0.0000
-6 22 8 0.0000 0.0000
-6 22 9 0.0000 0.0000
-6 22 10 0.0000 0.0000
-6 22 11 0.0000 0.0000
-6 22 12 0.0000 0.0000
-6 23 1 0.0000 0.0000
-6 23 2 0.0000 0.0000
-6 23 3 0.0000 0.0000
-6 23 4 0.0000 0.0000
-6 23 5 0.0000 0.0000
-6 23 6 0.0000 0.0000
-6 23 7 0.0000 0.0000
-6 23 8 0.0000 0.0000
-6 23 9 0.0000 0.0000
-6 23 10 0.0000 0.0000
-6 23 11 0.0000 0.0000
-6 23 12 0.0000 0.0000
-6 24 1 0.0000 0.0000
-6 24 2 0.0000 0.0000
-6 24 3 0.0000 0.0000
-6 24 4 0.0000 0.0000
-6 24 5 0.0000 0.0000
-6 24 6 0.0000 0.0000
-6 24 7 0.0000 0.0000
-6 24 8 0.0000 0.0000
-6 24 9 0.0000 0.0000
-6 24 10 0.0000 0.0000
-6 24 11 0.0000 0.0000
-6 25 1 0.0000 0.0000
-6 25 2 0.0000 0.0000
-6 25 3 0.0000 0.0000
-6 25 4 0.0000 0.0000
-6 25 5 0.0000 0.0000
-6 25 6 0.0000 0.0000
-6 25 7 0.0000 0.0000
-6 25 8 0.0000 0.0000
-6 25 9 0.0000 0.0000
-6 25 10 0.0000 0.0000
-6 25 11 0.0000 0.0000
-6 26 1 0.0000 0.0000
-6 26 2 0.0000 0.0000
-6 26 3 0.0000 0.0000
-6 26 4 0.0000 0.0000
-6 26 5 0.0000 0.0000
-6 26 6 0.0000 0.0000
-6 26 7 0.0000 0.0000
-6 26 8 0.0000 0.0000
-6 26 9 0.0000 0.0000
-6 26 10 0.0000 0.0000
-6 26 11 0.0000 0.0000
-6 27 1 0.0000 0.0000
-6 27 2 0.0000 0.0000
-6 27 3 0.0000 0.0000
-6 27 4 0.0000 0.0000
-6 27 5 0.0000 0.0000
-6 27 6 0.0000 0.0000
-6 27 7 0.0000 0.0000
-6 27 8 0.0000 0.0000
-6 27 9 0.0000 0.0000
-6 27 10 0.0000 0.0000
-6 28 1 0.0000 0.0000
-6 28 2 0.0000 0.0000
-6 28 3 0.0000 0.0000
-6 28 4 0.0000 0.0000
-6 28 5 0.0000 0.0000
-6 28 6 0.0000 0.0000
-6 28 7 0.0000 0.0000
-6 28 8 0.0000 0.0000
-6 28 9 0.0000 0.0000
-6 28 10 0.0000 0.0000
-6 29 1 0.0000 0.0000
-6 29 2 0.0000 0.0000
-6 29 3 0.0000 0.0000
-6 29 4 0.0000 0.0000
-6 29 5 0.0000 0.0000
-6 29 6 0.0000 0.0000
-6 29 7 0.0000 0.0000
-6 29 8 0.0000 0.0000
-6 29 9 0.0000 0.0000
-6 30 1 0.0000 0.0000
-6 30 2 0.0000 0.0000
-6 30 3 0.0000 0.0000
-6 30 4 0.0000 0.0000
-6 30 5 0.0000 0.0000
-6 30 6 0.0000 0.0000
-6 30 7 0.0000 0.0000
-6 30 8 0.0000 0.0000
-6 30 9 0.0000 0.0000
-6 31 1 0.0000 0.0000
-6 31 2 0.0000 0.0000
-6 31 3 0.0000 0.0000
-6 31 4 0.0000 0.0000
-6 31 5 0.0000 0.0000
-6 31 6 0.0000 0.0000
-6 31 7 0.0000 0.0000
-6 31 8 0.0000 0.0000
-6 32 1 0.0000 0.0000
-6 32 2 0.0000 0.0000
-6 32 3 0.0000 0.0000
-6 32 4 0.0000 0.0000
-6 32 5 0.0000 0.0000
-6 32 6 0.0000 0.0000
-6 32 7 0.0000 0.0000
-6 32 8 0.0000 0.0000
-6 33 1 0.0000 0.0000
-6 33 2 0.0000 0.0000
-6 33 3 0.0000 0.0000
-6 33 4 0.0000 0.0000
-6 33 5 0.0000 0.0000
-6 33 6 0.0000 0.0000
-6 33 7 0.0000 0.0000
-6 33 8 0.0000 0.0000
-6 34 1 0.0000 0.0000
-6 34 2 0.0000 0.0000
-6 34 3 0.0000 0.0000
-6 34 4 0.0000 0.0000
-6 34 5 0.0000 0.0000
-6 34 6 0.0000 0.0000
-6 34 7 0.0000 0.0000
-6 35 1 0.0000 0.0000
-6 35 2 0.0000 0.0000
-6 35 3 0.0000 0.0000
-6 35 4 0.0000 0.0000
-6 35 5 0.0000 0.0000
-6 35 6 0.0000 0.0000
-6 35 7 0.0000 0.0000
-6 36 1 0.0000 0.0000
-6 36 2 0.0000 0.0000
-6 36 3 0.0000 0.0000
-6 36 4 0.0000 0.0000
-6 36 5 0.0000 0.0000
-6 36 6 0.0000 0.0000
-6 37 1 0.0000 0.0000
-6 37 2 0.0000 0.0000
-6 37 3 0.0000 0.0000
-6 37 4 0.0000 0.0000
-6 37 5 0.0000 0.0000
-6 37 6 0.0000 0.0000
-6 38 1 0.0000 0.0000
-6 38 2 0.0000 0.0000
-6 38 3 0.0000 0.0000
-6 38 4 0.0000 0.0000
-6 38 5 0.0000 0.0000
-6 38 6 0.0000 0.0000
-6 39 1 0.0000 0.0000
-6 39 2 0.0000 0.0000
-6 39 3 0.0000 0.0000
-6 39 4 0.0000 0.0000
-6 39 5 0.0000 0.0000
-6 40 3 0.0000 0.0000
-6 40 4 0.0000 0.0000
-5 0 1 0.0000 0.0000
-5 0 2 0.0000 0.0000
-5 0 3 0.0000 0.0000
-5 0 4 0.0000 0.0000
-5 0 5 0.0000 0.0000
-5 0 6 0.0000 0.0000
-5 0 7 0.0000 0.0000
-5 0 8 0.0000 0.0000
-5 0 9 0.0000 0.0000
-5 0 10 0.0000 0.0000
-5 0 11 0.0000 0.0000
-5 0 12 0.0000 0.0000
-5 0 13 0.0000 0.0000
-5 0 14 0.0000 0.0000
-5 0 15 0.0000 0.0000
-5 0 16 0.0000 0.0000
-5 1 1 0.0000 0.0000
-5 1 2 0.0000 0.0000
-5 1 3 0.0000 0.0000
-5 1 4 0.0000 0.0000
-5 1 5 0.0000 0.0000
-5 1 6 0.0000 0.0000
-5 1 7 0.0000 0.0000
-5 1 8 0.0000 0.0000
-5 1 9 0.0000 0.0000
-5 1 10 0.0000 0.0000
-5 1 11 0.0000 0.0000
-5 1 12 0.0000 0.0000
-5 1 13 0.0000 0.0000
-5 1 14 0.0000 0.0000
-5 1 15 0.0000 0.0000
-5 1 16 0.0000 0.0000
-5 2 1 0.0000 0.0000
-5 2 2 0.0000 0.0000
-5 2 3 0.0000 0.0000
-5 2 4 0.0000 0.0000
-5 2 5 0.0000 0.0000
-5 2 6 0.0000 0.0000
-5 2 7 0.0000 0.0000
-5 2 8 0.0000 0.0000
-5 2 9 0.0000 0.0000
-5 2 10 0.0000 0.0000
-5 2 11 0.0000 0.0000
-5 2 12 0.0000 0.0000
-5 2 13 0.0000 0.0000
-5 2 14 0.0000 0.0000
-5 2 15 0.0000 0.0000
-5 2 16 0.0000 0.0000
-5 3 1 0.0000 0.0000
-5 3 2 0.0000 0.0000
-5 3 3 0.0000 0.0000
-5 3 4 0.0000 0.0000
-5 3 5 0.0000 0.0000
-5 3 6 0.0000 0.0000
-5 3 7 0.0000 0.0000
-5 3 8 0.0000 0.0000
-5 3 9 0.0000 0.0000
-5 3 10 0.0000 0.0000
-5 3 11 0.0000 0.0000
-5 3 12 0.0000 0.0000
-5 3 13 0.0000 0.0000
-5 3 14 0.0000 0.0000
-5 3 15 0.0000 0.0000
-5 3 16 0.0000 0.0000
-5 4 1 0.0000 0.0000
-5 4 2 0.0000 0.0000
-5 4 3 0.0000 0.0000
-5 4 4 0.0000 0.0000
-5 4 5 0.0000 0.0000
-5 4 6 0.0000 0.0000
-5 4 7 0.0000 0.0000
-5 4 8 0.0000 0.0000
-5 4 9 0.0000 0.0000
-5 4 10 0.0000 0.0000
-5 4 11 0.0000 0.0000
-5 4 12 0.0000 0.0000
-5 4 13 0.0000 0.0000
-5 4 14 0.0000 0.0000
-5 4 15 0.0000 0.0000
-5 4 16 0.0000 0.0000
-5 5 1 0.0000 0.0000
-5 5 2 0.0000 0.0000
-5 5 3 0.0000 0.0000
-5 5 4 0.0000 0.0000
-5 5 5 0.0000 0.0000
-5 5 6 0.0000 0.0000
-5 5 7 0.0000 0.0000
-5 5 8 0.0000 0.0000
-5 5 9 0.0000 0.0000
-5 5 10 0.0000 0.0000
-5 5 11 0.0000 0.0000
-5 5 12 0.0000 0.0000
-5 5 13 0.0000 0.0000
-5 5 14 0.0000 0.0000
-5 5 15 0.0000 0.0000
-5 5 16 0.0000 0.0000
-5 6 1 0.0000 0.0000
-5 6 2 0.0000 0.0000
-5 6 3 0.0000 0.0000
-5 6 4 0.0000 0.0000
-5 6 5 0.0000 0.0000
-5 6 6 0.0000 0.0000
-5 6 7 0.0000 0.0000
-5 6 8 0.0000 0.0000
-5 6 9 0.0000 0.0000
-5 6 10 0.0000 0.0000
-5 6 11 0.0000 0.0000
-5 6 12 0.0000 0.0000
-5 6 13 0.0000 0.0000
-5 6 14 0.0000 0.0000
-5 6 15 0.0000 0.0000
-5 6 16 0.0000 0.0000
-5 7 1 0.0000 0.0000
-5 7 2 0.0000 0.0000
-5 7 3 0.0000 0.0000
-5 7 4 0.0000 0.0000
-5 7 5 0.0000 0.0000
-5 7 6 0.0000 0.0000
-5 7 7 0.0000 0.0000
-5 7 8 0.0000 0.0000
-5 7 9 0.0000 0.0000
-5 7 10 0.0000 0.0000
-5 7 11 0.0000 0.0000
-5 7 12 0.0000 0.0000
-5 7 13 0.0000 0.0000
-5 7 14 0.0000 0.0000
-5 7 15 0.0000 0.0000
-5 7 16 0.0000 0.0000
-5 8 1 0.0000 0.0000
-5 8 2 0.0000 0.0000
-5 8 3 0.0000 0.0000
-5 8 4 0.0000 0.0000
-5 8 5 0.0000 0.0000
-5 8 6 0.0000 0.0000
-5 8 7 0.0000 0.0000
-5 8 8 0.0000 0.0000
-5 8 9 0.0000 0.0000
-5 8 10 0.0000 0.0000
-5 8 11 0.0000 0.0000
-5 8 12 0.0000 0.0000
-5 8 13 0.0000 0.0000
-5 8 14 0.0000 0.0000
-5 8 15 0.0000 0.0000
-5 8 16 0.0000 0.0000
-5 9 1 0.0000 0.0000
-5 9 2 0.0000 0.0000
-5 9 3 0.0000 0.0000
-5 9 4 0.0000 0.0000
-5 9 5 0.0000 0.0000
-5 9 6 0.0000 0.0000
-5 9 7 0.0000 0.0000
-5 9 8 0.0000 0.0000
-5 9 9 0.0000 0.0000
-5 9 10 0.0000 0.0000
-5 9 11 0.0000 0.0000
-5 9 12 0.0000 0.0000
-5 9 13 0.0000 0.0000
-5 9 14 0.0000 0.0000
-5 9 15 0.0000 0.0000
-5 9 16 0.0000 0.0000
-5 10 1 0.0000 0.0000
-5 10 2 0.0000 0.0000
-5 10 3 0.0000 0.0000
-5 10 4 0.0000 0.0000
-5 10 5 0.0000 0.0000
-5 10 6 0.0000 0.0000
-5 10 7 0.0000 0.0000
-5 10 8 0.0000 0.0000
-5 10 9 0.0000 0.0000
-5 10 10 0.0000 0.0000
-5 10 11 0.0000 0.0000
-5 10 12 0.0000 0.0000
-5 10 13 0.0000 0.0000
-5 10 14 0.0000 0.0000
-5 10 15 0.0000 0.0000
-5 10 16 0.0000 0.0000
-5 11 1 0.0000 0.0000
-5 11 2 0.0000 0.0000
-5 11 3 0.0000 0.0000
-5 11 4 0.0000 0.0000
-5 11 5 0.0000 0.0000
-5 11 6 0.0000 0.0000
-5 11 7 0.0000 0.0000
-5 11 8 0.0000 0.0000
-5 11 9 0.0000 0.0000
-5 11 10 0.0000 0.0000
-5 11 11 0.0000 0.0000
-5 11 12 0.0000 0.0000
-5 11 13 0.0000 0.0000
-5 11 14 0.0000 0.0000
-5 11 15 0.0000 0.0000
-5 11 16 0.0000 0.0000
-5 12 1 0.0000 0.0000
-5 12 2 0.0000 0.0000
-5 12 3 0.0000 0.0000
-5 12 4 0.0000 0.0000
-5 12 5 0.0000 0.0000
-5 12 6 0.0000 0.0000
-5 12 7 0.0000 0.0000
-5 12 8 0.0000 0.0000
-5 12 9 0.0000 0.0000
-5 12 10 0.0000 0.0000
-5 12 11 0.0000 0.0000
-5 12 12 0.0000 0.0000
-5 12 13 0.0000 0.0000
-5 12 14 0.0000 0.0000
-5 12 15 0.0000 0.0000
-5 13 1 0.0000 0.0000
-5 13 2 0.0000 0.0000
-5 13 3 0.0000 0.0000
-5 13 4 0.0000 0.0000
-5 13 5 0.0000 0.0000
-5 13 6 0.0000 0.0000
-5 13 7 0.0000 0.0000
-5 13 8 0.0000 0.0000
-5 13 9 0.0000 0.0000
-5 13 10 0.0000 0.0000
-5 13 11 0.0000 0.0000
-5 13 12 0.0000 0.0000
-5 13 13 0.0000 0.0000
-5 13 14 0.0000 0.0000
-5 13 15 0.0000 0.0000
-5 14 1 0.0000 0.0000
-5 14 2 0.0000 0.0000
-5 14 3 0.0000 0.0000
-5 14 4 0.0000 0.0000
-5 14 5 0.0000 0.0000
-5 14 6 0.0000 0.0000
-5 14 7 0.0000 0.0000
-5 14 8 0.0000 0.0000
-5 14 9 0.0000 0.0000
-5 14 10 0.0000 0.0000
-5 14 11 0.0000 0.0000
-5 14 12 0.0000 0.0000
-5 14 13 0.0000 0.0000
-5 14 14 0.0000 0.0000
-5 14 15 0.0000 0.0000
-5 15 1 0.0000 0.0000
-5 15 2 0.0000 0.0000
-5 15 3 0.0000 0.0000
-5 15 4 0.0000 0.0000
-5 15 5 0.0000 0.0000
-5 15 6 0.0000 0.0000
-5 15 7 0.0000 0.0000
-5 15 8 0.0000 0.0000
-5 15 9 0.0000 0.0000
-5 15 10 0.0000 0.0000
-5 15 11 0.0000 0.0000
-5 15 12 0.0000 0.0000
-5 15 13 0.0000 0.0000
-5 15 14 0.0000 0.0000
-5 15 15 0.0000 0.0000
-5 16 1 0.0000 0.0000
-5 16 2 0.0000 0.0000
-5 16 3 0.0000 0.0000
-5 16 4 0.0000 0.0000
-5 16 5 0.0000 0.0000
-5 16 6 0.0000 0.0000
-5 16 7 0.0000 0.0000
-5 16 8 0.0000 0.0000
-5 16 9 0.0000 0.0000
-5 16 10 0.0000 0.0000
-5 16 11 0.0000 0.0000
-5 16 12 0.0000 0.0000
-5 16 13 0.0000 0.0000
-5 16 14 0.0000 0.0000
-5 16 15 0.0000 0.0000
-5 17 1 0.0000 0.0000
-5 17 2 0.0000 0.0000
-5 17 3 0.0000 0.0000
-5 17 4 0.0000 0.0000
-5 17 5 0.0000 0.0000
-5 17 6 0.0000 0.0000
-5 17 7 0.0000 0.0000
-5 17 8 0.0000 0.0000
-5 17 9 0.0000 0.0000
-5 17 10 0.0000 0.0000
-5 17 11 0.0000 0.0000
-5 17 12 0.0000 0.0000
-5 17 13 0.0000 0.0000
-5 17 14 0.0000 0.0000
-5 18 1 0.0000 0.0000
-5 18 2 0.0000 0.0000
-5 18 3 0.0000 0.0000
-5 18 4 0.0000 0.0000
-5 18 5 0.0000 0.0000
-5 18 6 0.0000 0.0000
-5 18 7 0.0000 0.0000
-5 18 8 0.0000 0.0000
-5 18 9 0.0000 0.0000
-5 18 10 0.0000 0.0000
-5 18 11 0.0000 0.0000
-5 18 12 0.0000 0.0000
-5 18 13 0.0000 0.0000
-5 18 14 0.0000 0.0000
-5 19 1 0.0000 0.0000
-5 19 2 0.0000 0.0000
-5 19 3 0.0000 0.0000
-5 19 4 0.0000 0.0000
-5 19 5 0.0000 0.0000
-5 19 6 0.0000 0.0000
-5 19 7 0.0000 0.0000
-5 19 8 0.0000 0.0000
-5 19 9 0.0000 0.0000
-5 19 10 0.0000 0.0000
-5 19 11 0.0000 0.0000
-5 19 12 0.0000 0.0000
-5 19 13 0.0000 0.0000
-5 19 14 0.0000 0.0000
-5 20 1 0.0000 0.0000
-5 20 2 0.0000 0.0000
-5 20 3 0.0000 0.0000
-5 20 4 0.0000 0.0000
-5 20 5 0.0000 0.0000
-5 20 6 0.0000 0.0000
-5 20 7 0.0000 0.0000
-5 20 8 0.0000 0.0000
-5 20 9 0.0000 0.0000
-5 20 10 0.0000 0.0000
-5 20 11 0.0000 0.0000
-5 20 12 0.0000 0.0000
-5 20 13 0.0000 0.0000
-5 20 14 0.0000 0.0000
-5 21 1 0.0000 0.0000
-5 21 2 0.0000 0.0000
-5 21 3 0.0000 0.0000
-5 21 4 0.0000 0.0000
-5 21 5 0.0000 0.0000
-5 21 6 0.0000 0.0000
-5 21 7 0.0000 0.0000
-5 21 8 0.0000 0.0000
-5 21 9 0.0000 0.0000
-5 21 10 0.0000 0.0000
-5 21 11 0.0000 0.0000
-5 21 12 0.0000 0.0000
-5 21 13 0.0000 0.0000
-5 22 1 0.0000 0.0000
-5 22 2 0.0000 0.0000
-5 22 3 0.0000 0.0000
-5 22 4 0.0000 0.0000
-5 22 5 0.0000 0.0000
-5 22 6 0.0000 0.0000
-5 22 7 0.0000 0.0000
-5 22 8 0.0000 0.0000
-5 22 9 0.0000 0.0000
-5 22 10 0.0000 0.0000
-5 22 11 0.0000 0.0000
-5 22 12 0.0000 0.0000
-5 22 13 0.0000 0.0000
-5 23 1 0.0000 0.0000
-5 23 2 0.0000 0.0000
-5 23 3 0.0000 0.0000
-5 23 4 0.0000 0.0000
-5 23 5 0.0000 0.0000
-5 23 6 0.0000 0.0000
-5 23 7 0.0000 0.0000
-5 23 8 0.0000 0.0000
-5 23 9 0.0000 0.0000
-5 23 10 0.0000 0.0000
-5 23 11 0.0000 0.0000
-5 23 12 0.0000 0.0000
-5 23 13 0.0000 0.0000
-5 24 1 0.0000 0.0000
-5 24 2 0.0000 0.0000
-5 24 3 0.0000 0.0000
-5 24 4 0.0000 0.0000
-5 24 5 0.0000 0.0000
-5 24 6 0.0000 0.0000
-5 24 7 0.0000 0.0000
-5 24 8 0.0000 0.0000
-5 24 9 0.0000 0.0000
-5 24 10 0.0000 0.0000
-5 24 11 0.0000 0.0000
-5 24 12 0.0000 0.0000
-5 25 1 0.0000 0.0000
-5 25 2 0.0000 0.0000
-5 25 3 0.0000 0.0000
-5 25 4 0.0000 0.0000
-5 25 5 0.0000 0.0000
-5 25 6 0.0000 0.0000
-5 25 7 0.0000 0.0000
-5 25 8 0.0000 0.0000
-5 25 9 0.0000 0.0000
-5 25 10 0.0000 0.0000
-5 25 11 0.0000 0.0000
-5 25 12 0.0000 0.0000
-5 26 1 0.0000 0.0000
-5 26 2 0.0000 0.0000
-5 26 3 0.0000 0.0000
-5 26 4 0.0000 0.0000
-5 26 5 0.0000 0.0000
-5 26 6 0.0000 0.0000
-5 26 7 0.0000 0.0000
-5 26 8 0.0000 0.0000
-5 26 9 0.0000 0.0000
-5 26 10 0.0000 0.0000
-5 26 11 0.0000 0.0000
-5 27 1 0.0000 0.0000
-5 27 2 0.0000 0.0000
-5 27 3 0.0000 0.0000
-5 27 4 0.0000 0.0000
-5 27 5 0.0000 0.0000
-5 27 6 0.0000 0.0000
-5 27 7 0.0000 0.0000
-5 27 8 0.0000 0.0000
-5 27 9 0.0000 0.0000
-5 27 10 0.0000 0.0000
-5 27 11 0.0000 0.0000
-5 28 1 0.0000 0.0000
-5 28 2 0.0000 0.0000
-5 28 3 0.0000 0.0000
-5 28 4 0.0000 0.0000
-5 28 5 0.0000 0.0000
-5 28 6 0.0000 0.0000
-5 28 7 0.0000 0.0000
-5 28 8 0.0000 0.0000
-5 28 9 0.0000 0.0000
-5 28 10 0.0000 0.0000
-5 28 11 0.0000 0.0000
-5 29 1 0.0000 0.0000
-5 29 2 0.0000 0.0000
-5 29 3 0.0000 0.0000
-5 29 4 0.0000 0.0000
-5 29 5 0.0000 0.0000
-5 29 6 0.0000 0.0000
-5 29 7 0.0000 0.0000
-5 29 8 0.0000 0.0000
-5 29 9 0.0000 0.0000
-5 29 10 0.0000 0.0000
-5 30 1 0.0000 0.0000
-5 30 2 0.0000 0.0000
-5 30 3 0.0000 0.0000
-5 30 4 0.0000 0.0000
-5 30 5 0.0000 0.0000
-5 30 6 0.0000 0.0000
-5 30 7 0.0000 0.0000
-5 30 8 0.0000 0.0000
-5 30 9 0.0000 0.0000
-5 30 10 0.0000 0.0000
-5 31 1 0.0000 0.0000
-5 31 2 0.0000 0.0000
-5 31 3 0.0000 0.0000
-5 31 4 0.0000 0.0000
-5 31 5 0.0000 0.0000
-5 31 6 0.0000 0.0000
-5 31 7 0.0000 0.0000
-5 31 8 0.0000 0.0000
-5 31 9 0.0000 0.0000
-5 32 1 0.0000 0.0000
-5 32 2 0.0000 0.0000
-5 32 3 0.0000 0.0000
-5 32 4 0.0000 0.0000
-5 32 5 0.0000 0.0000
-5 32 6 0.0000 0.0000
-5 32 7 0.0000 0.0000
-5 32 8 0.0000 0.0000
-5 33 1 0.0000 0.0000
-5 33 2 0.0000 0.0000
-5 33 3 0.0000 0.0000
-5 33 4 0.0000 0.0000
-5 33 5 0.0000 0.0000
-5 33 6 0.0000 0.0000
-5 33 7 0.0000 0.0000
-5 33 8 0.0000 0.0000
-5 34 1 0.0000 0.0000
-5 34 2 0.0000 0.0000
-5 34 3 0.0000 0.0000
-5 34 4 0.0000 0.0000
-5 34 5 0.0000 0.0000
-5 34 6 0.0000 0.0000
-5 34 7 0.0000 0.0000
-5 35 1 0.0000 0.0000
-5 35 2 0.0000 0.0000
-5 35 3 0.0000 0.0000
-5 35 4 0.0000 0.0000
-5 35 5 0.0000 0.0000
-5 35 6 0.0000 0.0000
-5 36 1 0.0000 0.0000
-5 36 2 0.0000 0.0000
-5 36 3 0.0000 0.0000
-5 36 4 0.0000 0.0000
-5 36 5 0.0000 0.0000
-5 36 6 0.0000 0.0000
-5 37 1 0.0000 0.0000
-5 37 2 0.0000 0.0000
-5 37 3 0.0000 0.0000
-5 37 4 0.0000 0.0000
-5 37 5 0.0000 0.0000
-5 38 1 0.0000 0.0000
-5 38 2 0.0000 0.0000
-5 38 3 0.0000 0.0000
-5 38 4 0.0000 0.0000
-5 38 5 0.0000 0.0000
-5 39 1 0.0000 0.0000
-5 39 2 0.0000 0.0000
-5 39 3 0.0000 0.0000
-5 39 4 0.0000 0.0000
-5 39 5 0.0000 0.0000
-5 40 1 0.0000 0.0000
-5 40 2 0.0000 0.0000
-5 40 3 0.0000 0.0000
-5 40 4 0.0000 0.0000
-5 41 1 0.0000 0.0000
-5 41 2 0.0000 0.0000
-5 41 3 0.0000 0.0000
-5 41 4 0.0000 0.0000
-5 42 3 0.0000 0.0000
-4 0 1 0.0000 0.0000
-4 0 2 0.0000 0.0000
-4 0 3 0.0000 0.0000
-4 0 4 0.0000 0.0000
-4 0 5 0.0000 0.0000
-4 0 6 0.0000 0.0000
-4 0 7 0.0000 0.0000
-4 0 8 0.0000 0.0000
-4 0 9 0.0000 0.0000
-4 0 10 0.0000 0.0000
-4 0 11 0.0000 0.0000
-4 0 12 0.0000 0.0000
-4 0 13 0.0000 0.0000
-4 0 14 0.0000 0.0000
-4 0 15 0.0000 0.0000
-4 1 1 0.0000 0.0000
-4 1 2 0.0000 0.0000
-4 1 3 0.0000 0.0000
-4 1 4 0.0000 0.0000
-4 1 5 0.0000 0.0000
-4 1 6 0.0000 0.0000
-4 1 7 0.0000 0.0000
-4 1 8 0.0000 0.0000
-4 1 9 0.0000 0.0000
-4 1 10 0.0000 0.0000
-4 1 11 0.0000 0.0000
-4 1 12 0.0000 0.0000
-4 1 13 0.0000 0.0000
-4 1 14 0.0000 0.0000
-4 1 15 0.0000 0.0000
-4 2 1 0.0000 0.0000
-4 2 2 0.0000 0.0000
-4 2 3 0.0000 0.0000
-4 2 4 0.0000 0.0000
-4 2 5 0.0000 0.0000
-4 2 6 0.0000 0.0000
-4 2 7 0.0000 0.0000
-4 2 8 0.0000 0.0000
-4 2 9 0.0000 0.0000
-4 2 10 0.0000 0.0000
-4 2 11 0.0000 0.0000
-4 2 12 0.0000 0.0000
-4 2 13 0.0000 0.0000
-4 2 14 0.0000 0.0000
-4 2 15 0.0000 0.0000
-4 3 1 0.0000 0.0000
-4 3 2 0.0000 0.0000
-4 3 3 0.0000 0.0000
-4 3 4 0.0000 0.0000
-4 3 5 0.0000 0.0000
-4 3 6 0.0000 0.0000
-4 3 7 0.0000 0.0000
-4 3 8 0.0000 0.0000
-4 3 9 0.0000 0.0000
-4 3 10 0.0000 0.0000
-4 3 11 0.0000 0.0000
-4 3 12 0.0000 0.0000
-4 3 13 0.0000 0.0000
-4 3 14 0.0000 0.0000
-4 3 15 0.0000 0.0000
-4 4 1 0.0000 0.0000
-4 4 2 0.0000 0.0000
-4 4 3 0.0000 0.0000
-4 4 4 0.0000 0.0000
-4 4 5 0.0000 0.0000
-4 4 6 0.0000 0.0000
-4 4 7 0.0000 0.0000
-4 4 8 0.0000 0.0000
-4 4 9 0.0000 0.0000
-4 4 10 0.0000 0.0000
-4 4 11 0.0000 0.0000
-4 4 12 0.0000 0.0000
-4 4 13 0.0000 0.0000
-4 4 14 0.0000 0.0000
-4 4 15 0.0000 0.0000
-4 5 1 0.0000 0.0000
-4 5 2 0.0000 0.0000
-4 5 3 0.0000 0.0000
-4 5 4 0.0000 0.0000
-4 5 5 0.0000 0.0000
-4 5 6 0.0000 0.0000
-4 5 7 0.0000 0.0000
-4 5 8 0.0000 0.0000
-4 5 9 0.0000 0.0000
-4 5 10 0.0000 0.0000
-4 5 11 0.0000 0.0000
-4 5 12 0.0000 0.0000
-4 5 13 0.0000 0.0000
-4 5 14 0.0000 0.0000
-4 5 15 0.0000 0.0000
-4 6 1 0.0000 0.0000
-4 6 2 0.0000 0.0000
-4 6 3 0.0000 0.0000
-4 6 4 0.0000 0.0000
-4 6 5 0.0000 0.0000
-4 6 6 0.0000 0.0000
-4 6 7 0.0000 0.0000
-4 6 8 0.0000 0.0000
-4 6 9 0.0000 0.0000
-4 6 10 0.0000 0.0000
-4 6 11 0.0000 0.0000
-4 6 12 0.0000 0.0000
-4 6 13 0.0000 0.0000
-4 6 14 0.0000 0.0000
-4 6 15 0.0000 0.0000
-4 7 1 0.0000 0.0000
-4 7 2 0.0000 0.0000
-4 7 3 0.0000 0.0000
-4 7 4 0.0000 0.0000
-4 7 5 0.0000 0.0000
-4 7 6 0.0000 0.0000
-4 7 7 0.0000 0.0000
-4 7 8 0.0000 0.0000
-4 7 9 0.0000 0.0000
-4 7 10 0.0000 0.0000
-4 7 11 0.0000 0.0000
-4 7 12 0.0000 0.0000
-4 7 13 0.0000 0.0000
-4 7 14 0.0000 0.0000
-4 7 15 0.0000 0.0000
-4 8 1 0.0000 0.0000
-4 8 2 0.0000 0.0000
-4 8 3 0.0000 0.0000
-4 8 4 0.0000 0.0000
-4 8 5 0.0000 0.0000
-4 8 6 0.0000 0.0000
-4 8 7 0.0000 0.0000
-4 8 8 0.0000 0.0000
-4 8 9 0.0000 0.0000
-4 8 10 0.0000 0.0000
-4 8 11 0.0000 0.0000
-4 8 12 0.0000 0.0000
-4 8 13 0.0000 0.0000
-4 8 14 0.0000 0.0000
-4 8 15 0.0000 0.0000
-4 9 1 0.0000 0.0000
-4 9 2 0.0000 0.0000
-4 9 3 0.0000 0.0000
-4 9 4 0.0000 0.0000
-4 9 5 0.0000 0.0000
-4 9 6 0.0000 0.0000
-4 9 7 0.0000 0.0000
-4 9 8 0.0000 0.0000
-4 9 9 0.0000 0.0000
-4 9 10 0.0000 0.0000
-4 9 11 0.0000 0.0000
-4 9 12 0.0000 0.0000
-4 9 13 0.0000 0.0000
-4 9 14 0.0000 0.0000
-4 9 15 0.0000 0.0000
-4 10 1 0.0000 0.0000
-4 10 2 0.0000 0.0000
-4 10 3 0.0000 0.0000
-4 10 4 0.0000 0.0000
-4 10 5 0.0000 0.0000
-4 10 6 0.0000 0.0000
-4 10 7 0.0000 0.0000
-4 10 8 0.0000 0.0000
-4 10 9 0.0000 0.0000
-4 10 10 0.0000 0.0000
-4 10 11 0.0000 0.0000
-4 10 12 0.0000 0.0000
-4 10 13 0.0000 0.0000
-4 10 14 0.0000 0.0000
-4 10 15 0.0000 0.0000
-4 11 1 0.0000 0.0000
-4 11 2 0.0000 0.0000
-4 11 3 0.0000 0.0000
-4 11 4 0.0000 0.0000
-4 11 5 0.0000 0.0000
-4 11 6 0.0000 0.0000
-4 11 7 0.0000 0.0000
-4 11 8 0.0000 0.0000
-4 11 9 0.0000 0.0000
-4 11 10 0.0000 0.0000
-4 11 11 0.0000 0.0000
-4 11 12 0.0000 0.0000
-4 11 13 0.0000 0.0000
-4 11 14 0.0000 0.0000
-4 11 15 0.0000 0.0000
-4 12 1 0.0000 0.0000
-4 12 2 0.0000 0.0000
-4 12 3 0.0000 0.0000
-4 12 4 0.0000 0.0000
-4 12 5 0.0000 0.0000
-4 12 6 0.0000 0.0000
-4 12 7 0.0000 0.0000
-4 12 8 0.0000 0.0000
-4 12 9 0.0000 0.0000
-4 12 10 0.0000 0.0000
-4 12 11 0.0000 0.0000
-4 12 12 0.0000 0.0000
-4 12 13 0.0000 0.0000
-4 12 14 0.0000 0.0000
-4 12 15 0.0000 0.0000
-4 13 1 0.0000 0.0000
-4 13 2 0.0000 0.0000
-4 13 3 0.0000 0.0000
-4 13 4 0.0000 0.0000
-4 13 5 0.0000 0.0000
-4 13 6 0.0000 0.0000
-4 13 7 0.0000 0.0000
-4 13 8 0.0000 0.0000
-4 13 9 0.0000 0.0000
-4 13 10 0.0000 0.0000
-4 13 11 0.0000 0.0000
-4 13 12 0.0000 0.0000
-4 13 13 0.0000 0.0000
-4 13 14 0.0000 0.0000
-4 13 15 0.0000 0.0000
-4 14 1 0.0000 0.0000
-4 14 2 0.0000 0.0000
-4 14 3 0.0000 0.0000
-4 14 4 0.0000 0.0000
-4 14 5 0.0000 0.0000
-4 14 6 0.0000 0.0000
-4 14 7 0.0000 0.0000
-4 14 8 0.0000 0.0000
-4 14 9 0.0000 0.0000
-4 14 10 0.0000 0.0000
-4 14 11 0.0000 0.0000
-4 14 12 0.0000 0.0000
-4 14 13 0.0000 0.0000
-4 14 14 0.0000 0.0000
-4 14 15 0.0000 0.0000
-4 15 1 0.0000 0.0000
-4 15 2 0.0000 0.0000
-4 15 3 0.0000 0.0000
-4 15 4 0.0000 0.0000
-4 15 5 0.0000 0.0000
-4 15 6 0.0000 0.0000
-4 15 7 0.0000 0.0000
-4 15 8 0.0000 0.0000
-4 15 9 0.0000 0.0000
-4 15 10 0.0000 0.0000
-4 15 11 0.0000 0.0000
-4 15 12 0.0000 0.0000
-4 15 13 0.0000 0.0000
-4 15 14 0.0000 0.0000
-4 15 15 0.0000 0.0000
-4 16 1 0.0000 0.0000
-4 16 2 0.0000 0.0000
-4 16 3 0.0000 0.0000
-4 16 4 0.0000 0.0000
-4 16 5 0.0000 0.0000
-4 16 6 0.0000 0.0000
-4 16 7 0.0000 0.0000
-4 16 8 0.0000 0.0000
-4 16 9 0.0000 0.0000
-4 16 10 0.0000 0.0000
-4 16 11 0.0000 0.0000
-4 16 12 0.0000 0.0000
-4 16 13 0.0000 0.0000
-4 16 14 0.0000 0.0000
-4 16 15 0.0000 0.0000
-4 17 1 0.0000 0.0000
-4 17 2 0.0000 0.0000
-4 17 3 0.0000 0.0000
-4 17 4 0.0000 0.0000
-4 17 5 0.0000 0.0000
-4 17 6 0.0000 0.0000
-4 17 7 0.0000 0.0000
-4 17 8 0.0000 0.0000
-4 17 9 0.0000 0.0000
-4 17 10 0.0000 0.0000
-4 17 11 0.0000 0.0000
-4 17 12 0.0000 0.0000
-4 17 13 0.0000 0.0000
-4 17 14 0.0000 0.0000
-4 17 15 0.0000 0.0000
-4 18 1 0.0000 0.0000
-4 18 2 0.0000 0.0000
-4 18 3 0.0000 0.0000
-4 18 4 0.0000 0.0000
-4 18 5 0.0000 0.0000
-4 18 6 0.0000 0.0000
-4 18 7 0.0000 0.0000
-4 18 8 0.0000 0.0000
-4 18 9 0.0000 0.0000
-4 18 10 0.0000 0.0000
-4 18 11 0.0000 0.0000
-4 18 12 0.0000 0.0000
-4 18 13 0.0000 0.0000
-4 18 14 0.0000 0.0000
-4 18 15 0.0000 0.0000
-4 19 1 0.0000 0.0000
-4 19 2 0.0000 0.0000
-4 19 3 0.0000 0.0000
-4 19 4 0.0000 0.0000
-4 19 5 0.0000 0.0000
-4 19 6 0.0000 0.0000
-4 19 7 0.0000 0.0000
-4 19 8 0.0000 0.0000
-4 19 9 0.0000 0.0000
-4 19 10 0.0000 0.0000
-4 19 11 0.0000 0.0000
-4 19 12 0.0000 0.0000
-4 19 13 0.0000 0.0000
-4 19 14 0.0000 0.0000
-4 19 15 0.0000 0.0000
-4 20 1 0.0000 0.0000
-4 20 2 0.0000 0.0000
-4 20 3 0.0000 0.0000
-4 20 4 0.0000 0.0000
-4 20 5 0.0000 0.0000
-4 20 6 0.0000 0.0000
-4 20 7 0.0000 0.0000
-4 20 8 0.0000 0.0000
-4 20 9 0.0000 0.0000
-4 20 10 0.0000 0.0000
-4 20 11 0.0000 0.0000
-4 20 12 0.0000 0.0000
-4 20 13 0.0000 0.0000
-4 20 14 0.0000 0.0000
-4 21 1 0.0000 0.0000
-4 21 2 0.0000 0.0000
-4 21 3 0.0000 0.0000
-4 21 4 0.0000 0.0000
-4 21 5 0.0000 0.0000
-4 21 6 0.0000 0.0000
-4 21 7 0.0000 0.0000
-4 21 8 0.0000 0.0000
-4 21 9 0.0000 0.0000
-4 21 10 0.0000 0.0000
-4 21 11 0.0000 0.0000
-4 21 12 0.0000 0.0000
-4 21 13 0.0000 0.0000
-4 21 14 0.0000 0.0000
-4 22 1 0.0000 0.0000
-4 22 2 0.0000 0.0000
-4 22 3 0.0000 0.0000
-4 22 4 0.0000 0.0000
-4 22 5 0.0000 0.0000
-4 22 6 0.0000 0.0000
-4 22 7 0.0000 0.0000
-4 22 8 0.0000 0.0000
-4 22 9 0.0000 0.0000
-4 22 10 0.0000 0.0000
-4 22 11 0.0000 0.0000
-4 22 12 0.0000 0.0000
-4 22 13 0.0000 0.0000
-4 22 14 0.0000 0.0000
-4 23 1 0.0000 0.0000
-4 23 2 0.0000 0.0000
-4 23 3 0.0000 0.0000
-4 23 4 0.0000 0.0000
-4 23 5 0.0000 0.0000
-4 23 6 0.0000 0.0000
-4 23 7 0.0000 0.0000
-4 23 8 0.0000 0.0000
-4 23 9 0.0000 0.0000
-4 23 10 0.0000 0.0000
-4 23 11 0.0000 0.0000
-4 23 12 0.0000 0.0000
-4 23 13 0.0000 0.0000
-4 24 1 0.0000 0.0000
-4 24 2 0.0000 0.0000
-4 24 3 0.0000 0.0000
-4 24 4 0.0000 0.0000
-4 24 5 0.0000 0.0000
-4 24 6 0.0000 0.0000
-4 24 7 0.0000 0.0000
-4 24 8 0.0000 0.0000
-4 24 9 0.0000 0.0000
-4 24 10 0.0000 0.0000
-4 24 11 0.0000 0.0000
-4 24 12 0.0000 0.0000
-4 24 13 0.0000 0.0000
-4 25 1 0.0000 0.0000
-4 25 2 0.0000 0.0000
-4 25 3 0.0000 0.0000
-4 25 4 0.0000 0.0000
-4 25 5 0.0000 0.0000
-4 25 6 0.0000 0.0000
-4 25 7 0.0000 0.0000
-4 25 8 0.0000 0.0000
-4 25 9 0.0000 0.0000
-4 25 10 0.0000 0.0000
-4 25 11 0.0000 0.0000
-4 25 12 0.0000 0.0000
-4 25 13 0.0000 0.0000
-4 26 1 0.0000 0.0000
-4 26 2 0.0000 0.0000
-4 26 3 0.0000 0.0000
-4 26 4 0.0000 0.0000
-4 26 5 0.0000 0.0000
-4 26 6 0.0000 0.0000
-4 26 7 0.0000 0.0000
-4 26 8 0.0000 0.0000
-4 26 9 0.0000 0.0000
-4 26 10 0.0000 0.0000
-4 26 11 0.0000 0.0000
-4 26 12 0.0000 0.0000
-4 27 1 0.0000 0.0000
-4 27 2 0.0000 0.0000
-4 27 3 0.0000 0.0000
-4 27 4 0.0000 0.0000
-4 27 5 0.0000 0.0000
-4 27 6 0.0000 0.0000
-4 27 7 0.0000 0.0000
-4 27 8 0.0000 0.0000
-4 27 9 0.0000 0.0000
-4 27 10 0.0000 0.0000
-4 27 11 0.0000 0.0000
-4 27 12 0.0000 0.0000
-4 28 1 0.0000 0.0000
-4 28 2 0.0000 0.0000
-4 28 3 0.0000 0.0000
-4 28 4 0.0000 0.0000
-4 28 5 0.0000 0.0000
-4 28 6 0.0000 0.0000
-4 28 7 0.0000 0.0000
-4 28 8 0.0000 0.0000
-4 28 9 0.0000 0.0000
-4 28 10 0.0000 0.0000
-4 28 11 0.0000 0.0000
-4 29 1 0.0000 0.0000
-4 29 2 0.0000 0.0000
-4 29 3 0.0000 0.0000
-4 29 4 0.0000 0.0000
-4 29 5 0.0000 0.0000
-4 29 6 0.0000 0.0000
-4 29 7 0.0000 0.0000
-4 29 8 0.0000 0.0000
-4 29 9 0.0000 0.0000
-4 29 10 0.0000 0.0000
-4 29 11 0.0000 0.0000
-4 30 1 0.0000 0.0000
-4 30 2 0.0000 0.0000
-4 30 3 0.0000 0.0000
-4 30 4 0.0000 0.0000
-4 30 5 0.0000 0.0000
-4 30 6 0.0000 0.0000
-4 30 7 0.0000 0.0000
-4 30 8 0.0000 0.0000
-4 30 9 0.0000 0.0000
-4 30 10 0.0000 0.0000
-4 31 1 0.0000 0.0000
-4 31 2 0.0000 0.0000
-4 31 3 0.0000 0.0000
-4 31 4 0.0000 0.0000
-4 31 5 0.0000 0.0000
-4 31 6 0.0000 0.0000
-4 31 7 0.0000 0.0000
-4 31 8 0.0000 0.0000
-4 31 9 0.0000 0.0000
-4 31 10 0.0000 0.0000
-4 32 1 0.0000 0.0000
-4 32 2 0.0000 0.0000
-4 32 3 0.0000 0.0000
-4 32 4 0.0000 0.0000
-4 32 5 0.0000 0.0000
-4 32 6 0.0000 0.0000
-4 32 7 0.0000 0.0000
-4 32 8 0.0000 0.0000
-4 32 9 0.0000 0.0000
-4 33 1 0.0000 0.0000
-4 33 2 0.0000 0.0000
-4 33 3 0.0000 0.0000
-4 33 4 0.0000 0.0000
-4 33 5 0.0000 0.0000
-4 33 6 0.0000 0.0000
-4 33 7 0.0000 0.0000
-4 33 8 0.0000 0.0000
-4 33 9 0.0000 0.0000
-4 34 1 0.0000 0.0000
-4 34 2 0.0000 0.0000
-4 34 3 0.0000 0.0000
-4 34 4 0.0000 0.0000
-4 34 5 0.0000 0.0000
-4 34 6 0.0000 0.0000
-4 34 7 0.0000 0.0000
-4 34 8 0.0000 0.0000
-4 35 1 0.0000 0.0000
-4 35 2 0.0000 0.0000
-4 35 3 0.0000 0.0000
-4 35 4 0.0000 0.0000
-4 35 5 0.0000 0.0000
-4 35 6 0.0000 0.0000
-4 35 7 0.0000 0.0000
-4 36 1 0.0000 0.0000
-4 36 2 0.0000 0.0000
-4 36 3 0.0000 0.0000
-4 36 4 0.0000 0.0000
-4 36 5 0.0000 0.0000
-4 36 6 0.0000 0.0000
-4 37 1 0.0000 0.0000
-4 37 2 0.0000 0.0000
-4 37 3 0.0000 0.0000
-4 37 4 0.0000 0.0000
-4 37 5 0.0000 0.0000
-4 38 1 0.0000 0.0000
-4 38 2 0.0000 0.0000
-4 38 3 0.0000 0.0000
-4 38 4 0.0000 0.0000
-4 39 1 0.0000 0.0000
-4 39 2 0.0000 0.0000
-4 39 3 0.0000 0.0000
-4 39 4 0.0000 0.0000
-4 40 1 0.0000 0.0000
-4 40 2 0.0000 0.0000
-4 40 3 0.0000 0.0000
-4 41 1 0.0000 0.0000
-4 41 2 0.0000 0.0000
-4 41 3 0.0000 0.0000
-4 42 1 0.0000 0.0000
-4 42 2 0.0000 0.0000
-4 42 3 0.0000 0.0000
-4 43 2 0.0000 0.0000
-3 0 1 0.0000 0.0000
-3 0 2 0.0000 0.0000
-3 0 3 0.0000 0.0000
-3 0 4 0.0000 0.0000
-3 0 5 0.0000 0.0000
-3 0 6 0.0000 0.0000
-3 0 7 0.0000 0.0000
-3 0 8 0.0000 0.0000
-3 0 9 0.0000 0.0000
-3 0 10 0.0000 0.0000
-3 0 11 0.0000 0.0000
-3 0 12 0.0000 0.0000
-3 0 13 0.0000 0.0000
-3 0 14 0.0000 0.0000
-3 0 15 0.0000 0.0000
-3 1 1 0.0000 0.0000
-3 1 2 0.0000 0.0000
-3 1 3 0.0000 0.0000
-3 1 4 0.0000 0.0000
-3 1 5 0.0000 0.0000
-3 1 6 0.0000 0.0000
-3 1 7 0.0000 0.0000
-3 1 8 0.0000 0.0000
-3 1 9 0.0000 0.0000
-3 1 10 0.0000 0.0000
-3 1 11 0.0000 0.0000
-3 1 12 0.0000 0.0000
-3 1 13 0.0000 0.0000
-3 1 14 0.0000 0.0000
-3 1 15 0.0000 0.0000
-3 2 1 0.0000 0.0000
-3 2 2 0.0000 0.0000
-3 2 3 0.0000 0.0000
-3 2 4 0.0000 0.0000
-3 2 5 0.0000 0.0000
-3 2 6 0.0000 0.0000
-3 2 7 0.0000 0.0000
-3 2 8 0.0000 0.0000
-3 2 9 0.0000 0.0000
-3 2 10 0.0000 0.0000
-3 2 11 0.0000 0.0000
-3 2 12 0.0000 0.0000
-3 2 13 0.0000 0.0000
-3 2 14 0.0000 0.0000
-3 2 15 0.0000 0.0000
-3 3 1 0.0000 0.0000
-3 3 2 0.0000 0.0000
-3 3 3 0.0000 0.0000
-3 3 4 0.0000 0.0000
-3 3 5 0.0000 0.0000
-3 3 6 0.0000 0.0000
-3 3 7 0.0000 0.0000
-3 3 8 0.0000 0.0000
-3 3 9 0.0000 0.0000
-3 3 10 0.0000 0.0000
-3 3 11 0.0000 0.0000
-3 3 12 0.0000 0.0000
-3 3 13 0.0000 0.0000
-3 3 14 0.0000 0.0000
-3 3 15 0.0000 0.0000
-3 4 1 0.0000 0.0000
-3 4 2 0.0000 0.0000
-3 4 3 0.0000 0.0000
-3 4 4 0.0000 0.0000
-3 4 5 0.0000 0.0000
-3 4 6 0.0000 0.0000
-3 4 7 0.0000 0.0000
-3 4 8 0.0000 0.0000
-3 4 9 0.0000 0.0000
-3 4 10 0.0000 0.0000
-3 4 11 0.0000 0.0000
-3 4 12 0.0000 0.0000
-3 4 13 0.0000 0.0000
-3 4 14 0.0000 0.0000
-3 4 15 0.0000 0.0000
-3 5 1 0.0000 0.0000
-3 5 2 0.0000 0.0000
-3 5 3 0.0000 0.0000
-3 5 4 0.0000 0.0000
-3 5 5 0.0000 0.0000
-3 5 6 0.0000 0.0000
-3 5 7 0.0000 0.0000
-3 5 8 0.0000 0.0000
-3 5 9 0.0000 0.0000
-3 5 10 0.0000 0.0000
-3 5 11 0.0000 0.0000
-3 5 12 0.0000 0.0000
-3 5 13 0.0000 0.0000
-3 5 14 0.0000 0.0000
-3 5 15 0.0000 0.0000
-3 6 1 0.0000 0.0000
-3 6 2 0.0000 0.0000
-3 6 3 0.0000 0.0000
-3 6 4 0.0000 0.0000
-3 6 5 0.0000 0.0000
-3 6 6 0.0000 0.0000
-3 6 7 0.0000 0.0000
-3 6 8 0.0000 0.0000
-3 6 9 0.0000 0.0000
-3 6 10 0.0000 0.0000
-3 6 11 0.0000 0.0000
-3 6 12 0.0000 0.0000
-3 6 13 0.0000 0.0000
-3 6 14 0.0000 0.0000
-3 6 15 0.0000 0.0000
-3 7 1 0.0000 0.0000
-3 7 2 0.0000 0.0000
-3 7 3 0.0000 0.0000
-3 7 4 0.0000 0.0000
-3 7 5 0.0000 0.0000
-3 7 6 0.0000 0.0000
-3 7 7 0.0000 0.0000
-3 7 8 0.0000 0.0000
-3 7 9 0.0000 0.0000
-3 7 10 0.0000 0.0000
-3 7 11 0.0000 0.0000
-3 7 12 0.0000 0.0000
-3 7 13 0.0000 0.0000
-3 7 14 0.0000 0.0000
-3 7 15 0.0000 0.0000
-3 8 1 0.0000 0.0000
-3 8 2 0.0000 0.0000
-3 8 3 0.0000 0.0000
-3 8 4 0.0000 0.0000
-3 8 5 0.0000 0.0000
-3 8 6 0.0000 0.0000
-3 8 7 0.0000 0.0000
-3 8 8 0.0000 0.0000
-3 8 9 0.0000 0.0000
-3 8 10 0.0000 0.0000
-3 8 11 0.0000 0.0000
-3 8 12 0.0000 0.0000
-3 8 13 0.0000 0.0000
-3 8 14 0.0000 0.0000
-3 8 15 0.0000 0.0000
-3 9 1 0.0000 0.0000
-3 9 2 0.0000 0.0000
-3 9 3 0.0000 0.0000
-3 9 4 0.0000 0.0000
-3 9 5 0.0000 0.0000
-3 9 6 0.0000 0.0000
-3 9 7 0.0000 0.0000
-3 9 8 0.0000 0.0000
-3 9 9 0.0000 0.0000
-3 9 10 0.0000 0.0000
-3 9 11 0.0000 0.0000
-3 9 12 0.0000 0.0000
-3 9 13 0.0000 0.0000
-3 9 14 0.0000 0.0000
-3 9 15 0.0000 0.0000
-3 10 1 0.0000 0.0000
-3 10 2 0.0000 0.0000
-3 10 3 0.0000 0.0000
-3 10 4 0.0000 0.0000
-3 10 5 0.0000 0.0000
-3 10 6 0.0000 0.0000
-3 10 7 0.0000 0.0000
-3 10 8 0.0000 0.0000
-3 10 9 0.0000 0.0000
-3 10 10 0.0000 0.0000
-3 10 11 0.0000 0.0000
-3 10 12 0.0000 0.0000
-3 10 13 0.0000 0.0000
-3 10 14 0.0000 0.0000
-3 10 15 0.0000 0.0000
-3 11 1 0.0000 0.0000
-3 11 2 0.0000 0.0000
-3 11 3 0.0000 0.0000
-3 11 4 0.0000 0.0000
-3 11 5 0.0000 0.0000
-3 11 6 0.0000 0.0000
-3 11 7 0.0000 0.0000
-3 11 8 0.0000 0.0000
-3 11 9 0.0000 0.0000
-3 11 10 0.0000 0.0000
-3 11 11 0.0000 0.0000
-3 11 12 0.0000 0.0000
-3 11 13 0.0000 0.0000
-3 11 14 0.0000 0.0000
-3 11 15 0.0000 0.0000
-3 12 1 0.0000 0.0000
-3 12 2 0.0000 0.0000
-3 12 3 0.0000 0.0000
-3 12 4 0.0000 0.0000
-3 12 5 0.0000 0.0000
-3 12 6 0.0000 0.0000
-3 12 7 0.0000 0.0000
-3 12 8 0.0000 0.0000
-3 12 9 0.0000 0.0000
-3 12 10 0.0000 0.0000
-3 12 11 0.0000 0.0000
-3 12 12 0.0000 0.0000
-3 12 13 0.0000 0.0000
-3 12 14 0.0000 0.0000
-3 12 15 0.0000 0.0000
-3 13 1 0.0000 0.0000
-3 13 2 0.0000 0.0000
-3 13 3 0.0000 0.0000
-3 13 4 0.0000 0.0000
-3 13 5 0.0000 0.0000
-3 13 6 0.0000 0.0000
-3 13 7 0.0000 0.0000
-3 13 8 0.0000 0.0000
-3 13 9 0.0000 0.0000
-3 13 10 0.0000 0.0000
-3 13 11 0.0000 0.0000
-3 13 12 0.0000 0.0000
-3 13 13 0.0000 0.0000
-3 13 14 0.0000 0.0000
-3 13 15 0.0000 0.0000
-3 14 1 0.0000 0.0000
-3 14 2 0.0000 0.0000
-3 14 3 0.0000 0.0000
-3 14 4 0.0000 0.0000
-3 14 5 0.0000 0.0000
-3 14 6 0.0000 0.0000
-3 14 7 0.0000 0.0000
-3 14 8 0.0000 0.0000
-3 14 9 0.0000 0.0000
-3 14 10 0.0000 0.0000
-3 14 11 0.0000 0.0000
-3 14 12 0.0000 0.0000
-3 14 13 0.0000 0.0000
-3 14 14 0.0000 0.0000
-3 14 15 0.0000 0.0000
-3 15 1 0.0000 0.0000
-3 15 2 0.0000 0.0000
-3 15 3 0.0000 0.0000
-3 15 4 0.0000 0.0000
-3 15 5 0.0000 0.0000
-3 15 6 0.0000 0.0000
-3 15 7 0.0000 0.0000
-3 15 8 0.0000 0.0000
-3 15 9 0.0000 0.0000
-3 15 10 0.0000 0.0000
-3 15 11 0.0000 0.0000
-3 15 12 0.0000 0.0000
-3 15 13 0.0000 0.0000
-3 15 14 0.0000 0.0000
-3 15 15 0.0000 0.0000
-3 16 1 0.0000 0.0000
-3 16 2 0.0000 0.0000
-3 16 3 0.0000 0.0000
-3 16 4 0.0000 0.0000
-3 16 5 0.0000 0.0000
-3 16 6 0.0000 0.0000
-3 16 7 0.0000 0.0000
-3 16 8 0.0000 0.0000
-3 16 9 0.0000 0.0000
-3 16 10 0.0000 0.0000
-3 16 11 0.0000 0.0000
-3 16 12 0.0000 0.0000
-3 16 13 0.0000 0.0000
-3 16 14 0.0000 0.0000
-3 16 15 0.0000 0.0000
-3 17 1 0.0000 0.0000
-3 17 2 0.0000 0.0000
-3 17 3 0.0000 0.0000
-3 17 4 0.0000 0.0000
-3 17 5 0.0000 0.0000
-3 17 6 0.0000 0.0000
-3 17 7 0.0000 0.0000
-3 17 8 0.0000 0.0000
-3 17 9 0.0000 0.0000
-3 17 10 0.0000 0.0000
-3 17 11 0.0000 0.0000
-3 17 12 0.0000 0.0000
-3 17 13 0.0000 0.0000
-3 17 14 0.0000 0.0000
-3 17 15 0.0000 0.0000
-3 18 1 0.0000 0.0000
-3 18 2 0.0000 0.0000
-3 18 3 0.0000 0.0000
-3 18 4 0.0000 0.0000
-3 18 5 0.0000 0.0000
-3 18 6 0.0000 0.0000
-3 18 7 0.0000 0.0000
-3 18 8 0.0000 0.0000
-3 18 9 0.0000 0.0000
-3 18 10 0.0000 0.0000
-3 18 11 0.0000 0.0000
-3 18 12 0.0000 0.0000
-3 18 13 0.0000 0.0000
-3 18 14 0.0000 0.0000
-3 18 15 0.0000 0.0000
-3 19 1 0.0000 0.0000
-3 19 2 0.0000 0.0000
-3 19 3 0.0000 0.0000
-3 19 4 0.0000 0.0000
-3 19 5 0.0000 0.0000
-3 19 6 0.0000 0.0000
-3 19 7 0.0000 0.0000
-3 19 8 0.0000 0.0000
-3 19 9 0.0000 0.0000
-3 19 10 0.0000 0.0000
-3 19 11 0.0000 0.0000
-3 19 12 0.0000 0.0000
-3 19 13 0.0000 0.0000
-3 19 14 0.0000 0.0000
-3 19 15 0.0000 0.0000
-3 20 1 0.0000 0.0000
-3 20 2 0.0000 0.0000
-3 20 3 0.0000 0.0000
-3 20 4 0.0000 0.0000
-3 20 5 0.0000 0.0000
-3 20 6 0.0000 0.0000
-3 20 7 0.0000 0.0000
-3 20 8 0.0000 0.0000
-3 20 9 0.0000 0.0000
-3 20 10 0.0000 0.0000
-3 20 11 0.0000 0.0000
-3 20 12 0.0000 0.0000
-3 20 13 0.0000 0.0000
-3 20 14 0.0000 0.0000
-3 21 1 0.0000 0.0000
-3 21 2 0.0000 0.0000
-3 21 3 0.0000 0.0000
-3 21 4 0.0000 0.0000
-3 21 5 0.0000 0.0000
-3 21 6 0.0000 0.0000
-3 21 7 0.0000 0.0000
-3 21 8 0.0000 0.0000
-3 21 9 0.0000 0.0000
-3 21 10 0.0000 0.0000
-3 21 11 0.0000 0.0000
-3 21 12 0.0000 0.0000
-3 21 13 0.0000 0.0000
-3 21 14 0.0000 0.0000
-3 22 1 0.0000 0.0000
-3 22 2 0.0000 0.0000
-3 22 3 0.0000 0.0000
-3 22 4 0.0000 0.0000
-3 22 5 0.0000 0.0000
-3 22 6 0.0000 0.0000
-3 22 7 0.0000 0.0000
-3 22 8 0.0000 0.0000
-3 22 9 0.0000 0.0000
-3 22 10 0.0000 0.0000
-3 22 11 0.0000 0.0000
-3 22 12 0.0000 0.0000
-3 22 13 0.0000 0.0000
-3 22 14 0.0000 0.0000
-3 23 1 0.0000 0.0000
-3 23 2 0.0000 0.0000
-3 23 3 0.0000 0.0000
-3 23 4 0.0000 0.0000
-3 23 5 0.0000 0.0000
-3 23 6 0.0000 0.0000
-3 23 7 0.0000 0.0000
-3 23 8 0.0000 0.0000
-3 23 9 0.0000 0.0000
-3 23 10 0.0000 0.0000
-3 23 11 0.0000 0.0000
-3 23 12 0.0000 0.0000
-3 23 13 0.0000 0.0000
-3 23 14 0.0000 0.0000
-3 24 1 0.0000 0.0000
-3 24 2 0.0000 0.0000
-3 24 3 0.0000 0.0000
-3 24 4 0.0000 0.0000
-3 24 5 0.0000 0.0000
-3 24 6 0.0000 0.0000
-3 24 7 0.0000 0.0000
-3 24 8 0.0000 0.0000
-3 24 9 0.0000 0.0000
-3 24 10 0.0000 0.0000
-3 24 11 0.0000 0.0000
-3 24 12 0.0000 0.0000
-3 24 13 0.0000 0.0000
-3 24 14 0.0000 0.0000
-3 25 1 0.0000 0.0000
-3 25 2 0.0000 0.0000
-3 25 3 0.0000 0.0000
-3 25 4 0.0000 0.0000
-3 25 5 0.0000 0.0000
-3 25 6 0.0000 0.0000
-3 25 7 0.0000 0.0000
-3 25 8 0.0000 0.0000
-3 25 9 0.0000 0.0000
-3 25 10 0.0000 0.0000
-3 25 11 0.0000 0.0000
-3 25 12 0.0000 0.0000
-3 25 13 0.0000 0.0000
-3 26 1 0.0000 0.0000
-3 26 2 0.0000 0.0000
-3 26 3 0.0000 0.0000
-3 26 4 0.0000 0.0000
-3 26 5 0.0000 0.0000
-3 26 6 0.0000 0.0000
-3 26 7 0.0000 0.0000
-3 26 8 0.0000 0.0000
-3 26 9 0.0000 0.0000
-3 26 10 0.0000 0.0000
-3 26 11 0.0000 0.0000
-3 26 12 0.0000 0.0000
-3 26 13 0.0000 0.0000
-3 27 1 0.0000 0.0000
-3 27 2 0.0000 0.0000
-3 27 3 0.0000 0.0000
-3 27 4 0.0000 0.0000
-3 27 5 0.0000 0.0000
-3 27 6 0.0000 0.0000
-3 27 7 0.0000 0.0000
-3 27 8 0.0000 0.0000
-3 27 9 0.0000 0.0000
-3 27 10 0.0000 0.0000
-3 27 11 0.0000 0.0000
-3 27 12 0.0000 0.0000
-3 27 13 0.0000 0.0000
-3 28 1 0.0000 0.0000
-3 28 2 0.0000 0.0000
-3 28 3 0.0000 0.0000
-3 28 4 0.0000 0.0000
-3 28 5 0.0000 0.0000
-3 28 6 0.0000 0.0000
-3 28 7 0.0000 0.0000
-3 28 8 0.0000 0.0000
-3 28 9 0.0000 0.0000
-3 28 10 0.0000 0.0000
-3 28 11 0.0000 0.0000
-3 28 12 0.0000 0.0000
-3 29 1 0.0000 0.0000
-3 29 2 0.0000 0.0000
-3 29 3 0.0000 0.0000
-3 29 4 0.0000 0.0000
-3 29 5 0.0000 0.0000
-3 29 6 0.0000 0.0000
-3 29 7 0.0000 0.0000
-3 29 8 0.0000 0.0000
-3 29 9 0.0000 0.0000
-3 29 10 0.0000 0.0000
-3 29 11 0.0000 0.0000
-3 29 12 0.0000 0.0000
-3 30 1 0.0000 0.0000
-3 30 2 0.0000 0.0000
-3 30 3 0.0000 0.0000
-3 30 4 0.0000 0.0000
-3 30 5 0.0000 0.0000
-3 30 6 0.0000 0.0000
-3 30 7 0.0000 0.0000
-3 30 8 0.0000 0.0000
-3 30 9 0.0000 0.0000
-3 30 10 0.0000 0.0000
-3 30 11 0.0000 0.0000
-3 31 1 0.0000 0.0000
-3 31 2 0.0000 0.0000
-3 31 3 0.0000 0.0000
-3 31 4 0.0000 0.0000
-3 31 5 0.0000 0.0000
-3 31 6 0.0000 0.0000
-3 31 7 0.0000 0.0000
-3 31 8 0.0000 0.0000
-3 31 9 0.0000 0.0000
-3 31 10 0.0000 0.0000
-3 31 11 0.0000 0.0000
-3 32 1 0.0000 0.0000
-3 32 2 0.0000 0.0000
-3 32 3 0.0000 0.0000
-3 32 4 0.0000 0.0000
-3 32 5 0.0000 0.0000
-3 32 6 0.0000 0.0000
-3 32 7 0.0000 0.0000
-3 32 8 0.0000 0.0000
-3 32 9 0.0000 0.0000
-3 32 10 0.0000 0.0000
-3 33 1 0.0000 0.0000
-3 33 2 0.0000 0.0000
-3 33 3 0.0000 0.0000
-3 33 4 0.0000 0.0000
-3 33 5 0.0000 0.0000
-3 33 6 0.0000 0.0000
-3 33 7 0.0000 0.0000
-3 33 8 0.0000 0.0000
-3 33 9 0.0000 0.0000
-3 34 1 0.0000 0.0000
-3 34 2 0.0000 0.0000
-3 34 3 0.0000 0.0000
-3 34 4 0.0000 0.0000
-3 34 5 0.0000 0.0000
-3 34 6 0.0000 0.0000
-3 34 7 0.0000 0.0000
-3 34 8 0.0000 0.0000
-3 34 9 0.0000 0.0000
-3 35 1 0.0000 0.0000
-3 35 2 0.0000 0.0000
-3 35 3 0.0000 0.0000
-3 35 4 0.0000 0.0000
-3 35 5 0.0000 0.0000
-3 35 6 0.0000 0.0000
-3 35 7 0.0000 0.0000
-3 35 8 0.0000 0.0000
-3 36 1 0.0000 0.0000
-3 36 2 0.0000 0.0000
-3 36 3 0.0000 0.0000
-3 36 4 0.0000 0.0000
-3 36 5 0.0000 0.0000
-3 36 6 0.0000 0.0000
-3 36 7 0.0000 0.0000
-3 37 1 0.0000 0.0000
-3 37 2 0.0000 0.0000
-3 37 3 0.0000 0.0000
-3 37 4 0.0000 0.0000
-3 37 5 0.0000 0.0000
-3 37 6 0.0000 0.0000
-3 38 1 0.0000 0.0000
-3 38 2 0.0000 0.0000
-3 38 3 0.0000 0.0000
-3 38 4 0.0000 0.0000
-3 38 5 0.0000 0.0000
-3 39 1 0.0000 0.0000
-3 39 2 0.0000 0.0000
-3 39 3 0.0000 0.0000
-3 39 4 0.0000 0.0000
-3 40 1 0.0000 0.0000
-3 40 2 0.0000 0.0000
-3 40 3 0.0000 0.0000
-3 41 1 0.0000 0.0000
-3 41 2 0.0000 0.0000
-3 42 1 0.0000 0.0000
-3 42 2 0.0000 0.0000
-3 43 1 0.0000 0.0000
-3 44 1 0.0000 0.0000
-2 0 1 0.0000 0.0000
-2 0 2 0.0000 0.0000
-2 0 3 0.0000 0.0000
-2 0 4 0.0000 0.0000
-2 0 5 0.0000 0.0000
-2 0 6 0.0000 0.0000
-2 0 7 0.0000 0.0000
-2 0 8 0.0000 0.0000
-2 0 9 0.0000 0.0000
-2 0 10 0.0000 0.0000
-2 0 11 0.0000 0.0000
-2 0 12 0.0000 0.0000
-2 0 13 0.0000 0.0000
-2 0 14 0.0000 0.0000
-2 1 1 0.0000 0.0000
-2 1 2 0.0000 0.0000
-2 1 3 0.0000 0.0000
-2 1 4 0.0000 0.0000
-2 1 5 0.0000 0.0000
-2 1 6 0.0000 0.0000
-2 1 7 0.0000 0.0000
-2 1 8 0.0000 0.0000
-2 1 9 0.0000 0.0000
-2 1 10 0.0000 0.0000
-2 1 11 0.0000 0.0000
-2 1 12 0.0000 0.0000
-2 1 13 0.0000 0.0000
-2 1 14 0.0000 0.0000
-2 2 1 0.0000 0.0000
-2 2 2 0.0000 0.0000
-2 2 3 0.0000 0.0000
-2 2 4 0.0000 0.0000
-2 2 5 0.0000 0.0000
-2 2 6 0.0000 0.0000
-2 2 7 0.0000 0.0000
-2 2 8 0.0000 0.0000
-2 2 9 0.0000 0.0000
-2 2 10 0.0000 0.0000
-2 2 11 0.0000 0.0000
-2 2 12 0.0000 0.0000
-2 2 13 0.0000 0.0000
-2 2 14 0.0000 0.0000
-2 3 1 0.0000 0.0000
-2 3 2 0.0000 0.0000
-2 3 3 0.0000 0.0000
-2 3 4 0.0000 0.0000
-2 3 5 0.0000 0.0000
-2 3 6 0.0000 0.0000
-2 3 7 0.0000 0.0000
-2 3 8 0.0000 0.0000
-2 3 9 0.0000 0.0000
-2 3 10 0.0000 0.0000
-2 3 11 0.0000 0.0000
-2 3 12 0.0000 0.0000
-2 3 13 0.0000 0.0000
-2 3 14 0.0000 0.0000
-2 4 1 0.0000 0.0000
-2 4 2 0.0000 0.0000
-2 4 3 0.0000 0.0000
-2 4 4 0.0000 0.0000
-2 4 5 0.0000 0.0000
-2 4 6 0.0000 0.0000
-2 4 7 0.0000 0.0000
-2 4 8 0.0000 0.0000
-2 4 9 0.0000 0.0000
-2 4 10 0.0000 0.0000
-2 4 11 0.0000 0.0000
-2 4 12 0.0000 0.0000
-2 4 13 0.0000 0.0000
-2 4 14 0.0000 0.0000
-2 5 1 0.0000 0.0000
-2 5 2 0.0000 0.0000
-2 5 3 0.0000 0.0000
-2 5 4 0.0000 0.0000
-2 5 5 0.0000 0.0000
-2 5 6 0.0000 0.0000
-2 5 7 0.0000 0.0000
-2 5 8 0.0000 0.0000
-2 5 9 0.0000 0.0000
-2 5 10 0.0000 0.0000
-2 5 11 0.0000 0.0000
-2 5 12 0.0000 0.0000
-2 5 13 0.0000 0.0000
-2 5 14 0.0000 0.0000
-2 6 1 0.0000 0.0000
-2 6 2 0.0000 0.0000
-2 6 3 0.0000 0.0000
-2 6 4 0.0000 0.0000
-2 6 5 0.0000 0.0000
-2 6 6 0.0000 0.0000
-2 6 7 0.0000 0.0000
-2 6 8 0.0000 0.0000
-2 6 9 0.0000 0.0000
-2 6 10 0.0000 0.0000
-2 6 11 0.0000 0.0000
-2 6 12 0.0000 0.0000
-2 6 13 0.0000 0.0000
-2 6 14 0.0000 0.0000
-2 7 1 0.0000 0.0000
-2 7 2 0.0000 0.0000
-2 7 3 0.0000 0.0000
-2 7 4 0.0000 0.0000
-2 7 5 0.0000 0.0000
-2 7 6 0.0000 0.0000
-2 7 7 0.0000 0.0000
-2 7 8 0.0000 0.0000
-2 7 9 0.0000 0.0000
-2 7 10 0.0000 0.0000
-2 7 11 0.0000 0.0000
-2 7 12 0.0000 0.0000
-2 7 13 0.0000 0.0000
-2 7 14 0.0000 0.0000
-2 8 1 0.0000 0.0000
-2 8 2 0.0000 0.0000
-2 8 3 0.0000 0.0000
-2 8 4 0.0000 0.0000
-2 8 5 0.0000 0.0000
-2 8 6 0.0000 0.0000
-2 8 7 0.0000 0.0000
-2 8 8 0.0000 0.0000
-2 8 9 0.0000 0.0000
-2 8 10 0.0000 0.0000
-2 8 11 0.0000 0.0000
-2 8 12 0.0000 0.0000
-2 8 13 0.0000 0.0000
-2 8 14 0.0000 0.0000
-2 9 1 0.0000 0.0000
-2 9 2 0.0000 0.0000
-2 9 3 0.0000 0.0000
-2 9 4 0.0000 0.0000
-2 9 5 0.0000 0.0000
-2 9 6 0.0000 0.0000
-2 9 7 0.0000 0.0000
-2 9 8 0.0000 0.0000
-2 9 9 0.0000 0.0000
-2 9 10 0.0000 0.0000
-2 9 11 0.0000 0.0000
-2 9 12 0.0000 0.0000
-2 9 13 0.0000 0.0000
-2 9 14 0.0000 0.0000
-2 10 1 0.0000 0.0000
-2 10 2 0.0000 0.0000
-2 10 3 0.0000 0.0000
-2 10 4 0.0000 0.0000
-2 10 5 0.0000 0.0000
-2 10 6 0.0000 0.0000
-2 10 7 0.0000 0.0000
-2 10 8 0.0000 0.0000
-2 10 9 0.0000 0.0000
-2 10 10 0.0000 0.0000
-2 10 11 0.0000 0.0000
-2 10 12 0.0000 0.0000
-2 10 13 0.0000 0.0000
-2 10 14 0.0000 0.0000
-2 11 1 0.0000 0.0000
-2 11 2 0.0000 0.0000
-2 11 3 0.0000 0.0000
-2 11 4 0.0000 0.0000
-2 11 5 0.0000 0.0000
-2 11 6 0.0000 0.0000
-2 11 7 0.0000 0.0000
-2 11 8 0.0000 0.0000
-2 11 9 0.0000 0.0000
-2 11 10 0.0000 0.0000
-2 11 11 0.0000 0.0000
-2 11 12 0.0000 0.0000
-2 11 13 0.0000 0.0000
-2 11 14 0.0000 0.0000
-2 12 1 0.0000 0.0000
-2 12 2 0.0000 0.0000
-2 12 3 0.0000 0.0000
-2 12 4 0.0000 0.0000
-2 12 5 0.0000 0.0000
-2 12 6 0.0000 0.0000
-2 12 7 0.0000 0.0000
-2 12 8 0.0000 0.0000
-2 12 9 0.0000 0.0000
-2 12 10 0.0000 0.0000
-2 12 11 0.0000 0.0000
-2 12 12 0.0000 0.0000
-2 12 13 0.0000 0.0000
-2 12 14 0.0000 0.0000
-2 13 1 0.0000 0.0000
-2 13 2 0.0000 0.0000
-2 13 3 0.0000 0.0000
-2 13 4 0.0000 0.0000
-2 13 5 0.0000 0.0000
-2 13 6 0.0000 0.0000
-2 13 7 0.0000 0.0000
-2 13 8 0.0000 0.0000
-2 13 9 0.0000 0.0000
-2 13 10 0.0000 0.0000
-2 13 11 0.0000 0.0000
-2 13 12 0.0000 0.0000
-2 13 13 0.0000 0.0000
-2 13 14 0.0000 0.0000
-2 14 1 0.0000 0.0000
-2 14 2 0.0000 0.0000
-2 14 3 0.0000 0.0000
-2 14 4 0.0000 0.0000
-2 14 5 0.0000 0.0000
-2 14 6 0.0000 0.0000
-2 14 7 0.0000 0.0000
-2 14 8 0.0000 0.0000
-2 14 9 0.0000 0.0000
-2 14 10 0.0000 0.0000
-2 14 11 0.0000 0.0000
-2 14 12 0.0000 0.0000
-2 14 13 0.0000 0.0000
-2 14 14 0.0000 0.0000
-2 15 1 0.0000 0.0000
-2 15 2 0.0000 0.0000
-2 15 3 0.0000 0.0000
-2 15 4 0.0000 0.0000
-2 15 5 0.0000 0.0000
-2 15 6 0.0000 0.0000
-2 15 7 0.0000 0.0000
-2 15 8 0.0000 0.0000
-2 15 9 0.0000 0.0000
-2 15 10 0.0000 0.0000
-2 15 11 0.0000 0.0000
-2 15 12 0.0000 0.0000
-2 15 13 0.0000 0.0000
-2 15 14 0.0000 0.0000
-2 16 1 0.0000 0.0000
-2 16 2 0.0000 0.0000
-2 16 3 0.0000 0.0000
-2 16 4 0.0000 0.0000
-2 16 5 0.0000 0.0000
-2 16 6 0.0000 0.0000
-2 16 7 0.0000 0.0000
-2 16 8 0.0000 0.0000
-2 16 9 0.0000 0.0000
-2 16 10 0.0000 0.0000
-2 16 11 0.0000 0.0000
-2 16 12 0.0000 0.0000
-2 16 13 0.0000 0.0000
-2 16 14 0.0000 0.0000
-2 17 1 0.0000 0.0000
-2 17 2 0.0000 0.0000
-2 17 3 0.0000 0.0000
-2 17 4 0.0000 0.0000
-2 17 5 0.0000 0.0000
-2 17 6 0.0000 0.0000
-2 17 7 0.0000 0.0000
-2 17 8 0.0000 0.0000
-2 17 9 0.0000 0.0000
-2 17 10 0.0000 0.0000
-2 17 11 0.0000 0.0000
-2 17 12 0.0000 0.0000
-2 17 13 0.0000 0.0000
-2 17 14 0.0000 0.0000
-2 18 1 0.0000 0.0000
-2 18 2 0.0000 0.0000
-2 18 3 0.0000 0.0000
-2 18 4 0.0000 0.0000
-2 18 5 0.0000 0.0000
-2 18 6 0.0000 0.0000
-2 18 7 0.0000 0.0000
-2 18 8 0.0000 0.0000
-2 18 9 0.0000 0.0000
-2 18 10 0.0000 0.0000
-2 18 11 0.0000 0.0000
-2 18 12 0.0000 0.0000
-2 18 13 0.0000 0.0000
-2 18 14 0.0000 0.0000
-2 19 1 0.0000 0.0000
-2 19 2 0.0000 0.0000
-2 19 3 0.0000 0.0000
-2 19 4 0.0000 0.0000
-2 19 5 0.0000 0.0000
-2 19 6 0.0000 0.0000
-2 19 7 0.0000 0.0000
-2 19 8 0.0000 0.0000
-2 19 9 0.0000 0.0000
-2 19 10 0.0000 0.0000
-2 19 11 0.0000 0.0000
-2 19 12 0.0000 0.0000
-2 19 13 0.0000 0.0000
-2 19 14 0.0000 0.0000
-2 20 1 0.0000 0.0000
-2 20 2 0.0000 0.0000
-2 20 3 0.0000 0.0000
-2 20 4 0.0000 0.0000
-2 20 5 0.0000 0.0000
-2 20 6 0.0000 0.0000
-2 20 7 0.0000 0.0000
-2 20 8 0.0000 0.0000
-2 20 9 0.0000 0.0000
-2 20 10 0.0000 0.0000
-2 20 11 0.0000 0.0000
-2 20 12 0.0000 0.0000
-2 20 13 0.0000 0.0000
-2 20 14 0.0000 0.0000
-2 21 1 0.0000 0.0000
-2 21 2 0.0000 0.0000
-2 21 3 0.0000 0.0000
-2 21 4 0.0000 0.0000
-2 21 5 0.0000 0.0000
-2 21 6 0.0000 0.0000
-2 21 7 0.0000 0.0000
-2 21 8 0.0000 0.0000
-2 21 9 0.0000 0.0000
-2 21 10 0.0000 0.0000
-2 21 11 0.0000 0.0000
-2 21 12 0.0000 0.0000
-2 21 13 0.0000 0.0000
-2 21 14 0.0000 0.0000
-2 22 1 0.0000 0.0000
-2 22 2 0.0000 0.0000
-2 22 3 0.0000 0.0000
-2 22 4 0.0000 0.0000
-2 22 5 0.0000 0.0000
-2 22 6 0.0000 0.0000
-2 22 7 0.0000 0.0000
-2 22 8 0.0000 0.0000
-2 22 9 0.0000 0.0000
-2 22 10 0.0000 0.0000
-2 22 11 0.0000 0.0000
-2 22 12 0.0000 0.0000
-2 22 13 0.0000 0.0000
-2 22 14 0.0000 0.0000
-2 23 1 0.0000 0.0000
-2 23 2 0.0000 0.0000
-2 23 3 0.0000 0.0000
-2 23 4 0.0000 0.0000
-2 23 5 0.0000 0.0000
-2 23 6 0.0000 0.0000
-2 23 7 0.0000 0.0000
-2 23 8 0.0000 0.0000
-2 23 9 0.0000 0.0000
-2 23 10 0.0000 0.0000
-2 23 11 0.0000 0.0000
-2 23 12 0.0000 0.0000
-2 23 13 0.0000 0.0000
-2 23 14 0.0000 0.0000
-2 24 1 0.0000 0.0000
-2 24 2 0.0000 0.0000
-2 24 3 0.0000 0.0000
-2 24 4 0.0000 0.0000
-2 24 5 0.0000 0.0000
-2 24 6 0.0000 0.0000
-2 24 7 0.0000 0.0000
-2 24 8 0.0000 0.0000
-2 24 9 0.0000 0.0000
-2 24 10 0.0000 0.0000
-2 24 11 0.0000 0.0000
-2 24 12 0.0000 0.0000
-2 24 13 0.0000 0.0000
-2 24 14 0.0000 0.0000
-2 25 1 0.0000 0.0000
-2 25 2 0.0000 0.0000
-2 25 3 0.0000 0.0000
-2 25 4 0.0000 0.0000
-2 25 5 0.0000 0.0000
-2 25 6 0.0000 0.0000
-2 25 7 0.0000 0.0000
-2 25 8 0.0000 0.0000
-2 25 9 0.0000 0.0000
-2 25 10 0.0000 0.0000
-2 25 11 0.0000 0.0000
-2 25 12 0.0000 0.0000
-2 25 13 0.0000 0.0000
-2 25 14 0.0000 0.0000
-2 26 1 0.0000 0.0000
-2 26 2 0.0000 0.0000
-2 26 3 0.0000 0.0000
-2 26 4 0.0000 0.0000
-2 26 5 0.0000 0.0000
-2 26 6 0.0000 0.0000
-2 26 7 0.0000 0.0000
-2 26 8 0.0000 0.0000
-2 26 9 0.0000 0.0000
-2 26 10 0.0000 0.0000
-2 26 11 0.0000 0.0000
-2 26 12 0.0000 0.0000
-2 26 13 0.0000 0.0000
-2 27 1 0.0000 0.0000
-2 27 2 0.0000 0.0000
-2 27 3 0.0000 0.0000
-2 27 4 0.0000 0.0000
-2 27 5 0.0000 0.0000
-2 27 6 0.0000 0.0000
-2 27 7 0.0000 0.0000
-2 27 8 0.0000 0.0000
-2 27 9 0.0000 0.0000
-2 27 10 0.0000 0.0000
-2 27 11 0.0000 0.0000
-2 27 12 0.0000 0.0000
-2 27 13 0.0000 0.0000
-2 28 1 0.0000 0.0000
-2 28 2 0.0000 0.0000
-2 28 3 0.0000 0.0000
-2 28 4 0.0000 0.0000
-2 28 5 0.0000 0.0000
-2 28 6 0.0000 0.0000
-2 28 7 0.0000 0.0000
-2 28 8 0.0000 0.0000
-2 28 9 0.0000 0.0000
-2 28 10 0.0000 0.0000
-2 28 11 0.0000 0.0000
-2 28 12 0.0000 0.0000
-2 28 13 0.0000 0.0000
-2 29 1 0.0000 0.0000
-2 29 2 0.0000 0.0000
-2 29 3 0.0000 0.0000
-2 29 4 0.0000 0.0000
-2 29 5 0.0000 0.0000
-2 29 6 0.0000 0.0000
-2 29 7 0.0000 0.0000
-2 29 8 0.0000 0.0000
-2 29 9 0.0000 0.0000
-2 29 10 0.0000 0.0000
-2 29 11 0.0000 0.0000
-2 29 12 0.0000 0.0000
-2 30 1 0.0000 0.0000
-2 30 2 0.0000 0.0000
-2 30 3 0.0000 0.0000
-2 30 4 0.0000 0.0000
-2 30 5 0.0000 0.0000
-2 30 6 0.0000 0.0000
-2 30 7 0.0000 0.0000
-2 30 8 0.0000 0.0000
-2 30 9 0.0000 0.0000
-2 30 10 0.0000 0.0000
-2 30 11 0.0000 0.0000
-2 30 12 0.0000 0.0000
-2 31 1 0.0000 0.0000
-2 31 2 0.0000 0.0000
-2 31 3 0.0000 0.0000
-2 31 4 0.0000 0.0000
-2 31 5 0.0000 0.0000
-2 31 6 0.0000 0.0000
-2 31 7 0.0000 0.0000
-2 31 8 0.0000 0.0000
-2 31 9 0.0000 0.0000
-2 31 10 0.0000 0.0000
-2 31 11 0.0000 0.0000
-2 32 1 0.0000 0.0000
-2 32 2 0.0000 0.0000
-2 32 3 0.0000 0.0000
-2 32 4 0.0000 0.0000
-2 32 5 0.0000 0.0000
-2 32 6 0.0000 0.0000
-2 32 7 0.0000 0.0000
-2 32 8 0.0000 0.0000
-2 32 9 0.0000 0.0000
-2 32 10 0.0000 0.0000
-2 32 11 0.0000 0.0000
-2 33 1 0.0000 0.0000
-2 33 2 0.0000 0.0000
-2 33 3 0.0000 0.0000
-2 33 4 0.0000 0.0000
-2 33 5 0.0000 0.0000
-2 33 6 0.0000 0.0000
-2 33 7 0.0000 0.0000
-2 33 8 0.0000 0.0000
-2 33 9 0.0000 0.0000
-2 33 10 0.0000 0.0000
-2 34 1 0.0000 0.0000
-2 34 2 0.0000 0.0000
-2 34 3 0.0000 0.0000
-2 34 4 0.0000 0.0000
-2 34 5 0.0000 0.0000
-2 34 6 0.0000 0.0000
-2 34 7 0.0000 0.0000
-2 34 8 0.0000 0.0000
-2 34 9 0.0000 0.0000
-2 35 1 0.0000 0.0000
-2 35 2 0.0000 0.0000
-2 35 3 0.0000 0.0000
-2 35 4 0.0000 0.0000
-2 35 5 0.0000 0.0000
-2 35 6 0.0000 0.0000
-2 35 7 0.0000 0.0000
-2 35 8 0.0000 0.0000
-2 35 9 0.0000 0.0000
-2 36 1 0.0000 0.0000
-2 36 2 0.0000 0.0000
-2 36 3 0.0000 0.0000
-2 36 4 0.0000 0.0000
-2 36 5 0.0000 0.0000
-2 36 6 0.0000 0.0000
-2 36 7 0.0000 0.0000
-2 36 8 0.0000 0.0000
-2 37 1 0.0000 0.0000
-2 37 2 0.0000 0.0000
-2 37 3 0.0000 0.0000
-2 37 4 0.0000 0.0000
-2 37 5 0.0000 0.0000
-2 37 6 0.0000 0.0000
-2 37 7 0.0000 0.0000
-2 38 1 0.0000 0.0000
-2 38 2 0.0000 0.0000
-2 38 3 0.0000 0.0000
-2 38 4 0.0000 0.0000
-2 38 5 0.0000 0.0000
-2 38 6 0.0000 0.0000
-2 39 1 0.0000 0.0000
-2 39 2 0.0000 0.0000
-2 39 3 0.0000 0.0000
-2 39 4 0.0000 0.0000
-2 40 1 0.0000 0.0000
-2 40 2 0.0000 0.0000
-2 40 3 0.0000 0.0000
-2 41 1 0.0000 0.0000
-2 41 2 0.0000 0.0000
-2 42 1 0.0000 0.0000
-2 43 1 0.0000 0.0000
-1 0 2 0.0000 0.0000
-1 0 3 0.0000 0.0000
-1 0 4 0.0000 0.0000
-1 0 5 0.0000 0.0000
-1 0 6 0.0000 0.0000
-1 0 7 0.0000 0.0000
-1 0 8 0.0000 0.0000
-1 0 9 0.0000 0.0000
-1 0 10 0.0000 0.0000
-1 0 11 0.0000 0.0000
-1 0 12 0.0000 0.0000
-1 0 13 0.0000 0.0000
-1 1 2 0.0000 0.0000
-1 1 3 0.0000 0.0000
-1 1 4 0.0000 0.0000
-1 1 5 0.0000 0.0000
-1 1 6 0.0000 0.0000
-1 1 7 0.0000 0.0000
-1 1 8 0.0000 0.0000
-1 1 9 0.0000 0.0000
-1 1 10 0.0000 0.0000
-1 1 11 0.0000 0.0000
-1 1 12 0.0000 0.0000
-1 1 13 0.0000 0.0000
-1 2 2 0.0000 0.0000
-1 2 3 0.0000 0.0000
-1 2 4 0.0000 0.0000
-1 2 5 0.0000 0.0000
-1 2 6 0.0000 0.0000
-1 2 7 0.0000 0.0000
-1 2 8 0.0000 0.0000
-1 2 9 0.0000 0.0000
-1 2 10 0.0000 0.0000
-1 2 11 0.0000 0.0000
-1 2 12 0.0000 0.0000
-1 2 13 0.0000 0.0000
-1 3 2 0.0000 0.0000
-1 3 3 0.0000 0.0000
-1 3 4 0.0000 0.0000
-1 3 5 0.0000 0.0000
-1 3 6 0.0000 0.0000
-1 3 7 0.0000 0.0000
-1 3 8 0.0000 0.0000
-1 3 9 0.0000 0.0000
-1 3 10 0.0000 0.0000
-1 3 11 0.0000 0.0000
-1 3 12 0.0000 0.0000
-1 3 13 0.0000 0.0000
-1 4 2 0.0000 0.0000
-1 4 3 0.0000 0.0000
-1 4 4 0.0000 0.0000
-1 4 5 0.0000 0.0000
-1 4 6 0.0000 0.0000
-1 4 7 0.0000 0.0000
-1 4 8 0.0000 0.0000
-1 4 9 0.0000 0.0000
-1 4 10 0.0000 0.0000
-1 4 11 0.0000 0.0000
-1 4 12 0.0000 0.0000
-1 4 13 0.0000 0.0000
-1 5 1 0.0000 0.0000
-1 5 2 0.0000 0.0000
-1 5 3 0.0000 0.0000
-1 5 4 0.0000 0.0000
-1 5 5 0.0000 0.0000
-1 5 6 0.0000 0.0000
-1 5 7 0.0000 0.0000
-1 5 8 0.0000 0.0000
-1 5 9 0.0000 0.0000
-1 5 10 0.0000 0.0000
-1 5 11 0.0000 0.0000
-1 5 12 0.0000 0.0000
-1 5 13 0.0000 0.0000
-1 6 1 0.0000 0.0000
-1 6 2 0.0000 0.0000
-1 6 3 0.0000 0.0000
-1 6 4 0.0000 0.0000
-1 6 5 0.0000 0.0000
-1 6 6 0.0000 0.0000
-1 6 7 0.0000 0.0000
-1 6 8 0.0000 0.0000
-1 6 9 0.0000 0.0000
-1 6 10 0.0000 0.0000
-1 6 11 0.0000 0.0000
-1 6 12 0.0000 0.0000
-1 6 13 0.0000 0.0000
-1 7 1 0.0000 0.0000
-1 7 2 0.0000 0.0000
-1 7 3 0.0000 0.0000
-1 7 4 0.0000 0.0000
-1 7 5 0.0000 0.0000
-1 7 6 0.0000 0.0000
-1 7 7 0.0000 0.0000
-1 7 8 0.0000 0.0000
-1 7 9 0.0000 0.0000
-1 7 10 0.0000 0.0000
-1 7 11 0.0000 0.0000
-1 7 12 0.0000 0.0000
-1 7 13 0.0000 0.0000
-1 8 1 0.0000 0.0000
-1 8 2 0.0000 0.0000
-1 8 3 0.0000 0.0000
-1 8 4 0.0000 0.0000
-1 8 5 0.0000 0.0000
-1 8 6 0.0000 0.0000
-1 8 7 0.0000 0.0000
-1 8 8 0.0000 0.0000
-1 8 9 0.0000 0.0000
-1 8 10 0.0000 0.0000
-1 8 11 0.0000 0.0000
-1 8 12 0.0000 0.0000
-1 8 13 0.0000 0.0000
-1 9 1 0.0000 0.0000
-1 9 2 0.0000 0.0000
-1 9 3 0.0000 0.0000
-1 9 4 0.0000 0.0000
-1 9 5 0.0000 0.0000
-1 9 6 0.0000 0.0000
-1 9 7 0.0000 0.0000
-1 9 8 0.0000 0.0000
-1 9 9 0.0000 0.0000
-1 9 10 0.0000 0.0000
-1 9 11 0.0000 0.0000
-1 9 12 0.0000 0.0000
-1 9 13 0.0000 0.0000
-1 10 1 0.0000 0.0000
-1 10 2 0.0000 0.0000
-1 10 3 0.0000 0.0000
-1 10 4 0.0000 0.0000
-1 10 5 0.0000 0.0000
-1 10 6 0.0000 0.0000
-1 10 7 0.0000 0.0000
-1 10 8 0.0000 0.0000
-1 10 9 0.0000 0.0000
-1 10 10 0.0000 0.0000
-1 10 11 0.0000 0.0000
-1 10 12 0.0000 0.0000
-1 10 13 0.0000 0.0000
-1 11 1 0.0000 0.0000
-1 11 2 0.0000 0.0000
-1 11 3 0.0000 0.0000
-1 11 4 0.0000 0.0000
-1 11 5 0.0000 0.0000
-1 11 6 0.0000 0.0000
-1 11 7 0.0000 0.0000
-1 11 8 0.0000 0.0000
-1 11 9 0.0000 0.0000
-1 11 10 0.0000 0.0000
-1 11 11 0.0000 0.0000
-1 11 12 0.0000 0.0000
-1 11 13 0.0000 0.0000
-1 12 1 0.0000 0.0000
-1 12 2 0.0000 0.0000
-1 12 3 0.0000 0.0000
-1 12 4 0.0000 0.0000
-1 12 5 0.0000 0.0000
-1 12 6 0.0000 0.0000
-1 12 7 0.0000 0.0000
-1 12 8 0.0000 0.0000
-1 12 9 0.0000 0.0000
-1 12 10 0.0000 0.0000
-1 12 11 0.0000 0.0000
-1 12 12 0.0000 0.0000
-1 12 13 0.0000 0.0000
-1 13 1 0.0000 0.0000
-1 13 2 0.0000 0.0000
-1 13 3 0.0000 0.0000
-1 13 4 0.0000 0.0000
-1 13 5 0.0000 0.0000
-1 13 6 0.0000 0.0000
-1 13 7 0.0000 0.0000
-1 13 8 0.0000 0.0000
-1 13 9 0.0000 0.0000
-1 13 10 0.0000 0.0000
-1 13 11 0.0000 0.0000
-1 13 12 0.0000 0.0000
-1 13 13 0.0000 0.0000
-1 14 1 0.0000 0.0000
-1 14 2 0.0000 0.0000
-1 14 3 0.0000 0.0000
-1 14 4 0.0000 0.0000
-1 14 5 0.0000 0.0000
-1 14 6 0.0000 0.0000
-1 14 7 0.0000 0.0000
-1 14 8 0.0000 0.0000
-1 14 9 0.0000 0.0000
-1 14 10 0.0000 0.0000
-1 14 11 0.0000 0.0000
-1 14 12 0.0000 0.0000
-1 14 13 0.0000 0.0000
-1 15 1 0.0000 0.0000
-1 15 2 0.0000 0.0000
-1 15 3 0.0000 0.0000
-1 15 4 0.0000 0.0000
-1 15 5 0.0000 0.0000
-1 15 6 0.0000 0.0000
-1 15 7 0.0000 0.0000
-1 15 8 0.0000 0.0000
-1 15 9 0.0000 0.0000
-1 15 10 0.0000 0.0000
-1 15 11 0.0000 0.0000
-1 15 12 0.0000 0.0000
-1 15 13 0.0000 0.0000
-1 16 1 0.0000 0.0000
-1 16 2 0.0000 0.0000
-1 16 3 0.0000 0.0000
-1 16 4 0.0000 0.0000
-1 16 5 0.0000 0.0000
-1 16 6 0.0000 0.0000
-1 16 7 0.0000 0.0000
-1 16 8 0.0000 0.0000
-1 16 9 0.0000 0.0000
-1 16 10 0.0000 0.0000
-1 16 11 0.0000 0.0000
-1 16 12 0.0000 0.0000
-1 16 13 0.0000 0.0000
-1 17 1 0.0000 0.0000
-1 17 2 0.0000 0.0000
-1 17 3 0.0000 0.0000
-1 17 4 0.0000 0.0000
-1 17 5 0.0000 0.0000
-1 17 6 0.0000 0.0000
-1 17 7 0.0000 0.0000
-1 17 8 0.0000 0.0000
-1 17 9 0.0000 0.0000
-1 17 10 0.0000 0.0000
-1 17 11 0.0000 0.0000
-1 17 12 0.0000 0.0000
-1 17 13 0.0000 0.0000
-1 18 1 0.0000 0.0000
-1 18 2 0.0000 0.0000
-1 18 3 0.0000 0.0000
-1 18 4 0.0000 0.0000
-1 18 5 0.0000 0.0000
-1 18 6 0.0000 0.0000
-1 18 7 0.0000 0.0000
-1 18 8 0.0000 0.0000
-1 18 9 0.0000 0.0000
-1 18 10 0.0000 0.0000
-1 18 11 0.0000 0.0000
-1 18 12 0.0000 0.0000
-1 18 13 0.0000 0.0000
-1 19 1 0.0000 0.0000
-1 19 2 0.0000 0.0000
-1 19 3 0.0000 0.0000
-1 19 4 0.0000 0.0000
-1 19 5 0.0000 0.0000
-1 19 6 0.0000 0.0000
-1 19 7 0.0000 0.0000
-1 19 8 0.0000 0.0000
-1 19 9 0.0000 0.0000
-1 19 10 0.0000 0.0000
-1 19 11 0.0000 0.0000
-1 19 12 0.0000 0.0000
-1 19 13 0.0000 0.0000
-1 20 1 0.0000 0.0000
-1 20 2 0.0000 0.0000
-1 20 3 0.0000 0.0000
-1 20 4 0.0000 0.0000
-1 20 5 0.0000 0.0000
-1 20 6 0.0000 0.0000
-1 20 7 0.0000 0.0000
-1 20 8 0.0000 0.0000
-1 20 9 0.0000 0.0000
-1 20 10 0.0000 0.0000
-1 20 11 0.0000 0.0000
-1 20 12 0.0000 0.0000
-1 20 13 0.0000 0.0000
-1 21 1 0.0000 0.0000
-1 21 2 0.0000 0.0000
-1 21 3 0.0000 0.0000
-1 21 4 0.0000 0.0000
-1 21 5 0.0000 0.0000
-1 21 6 0.0000 0.0000
-1 21 7 0.0000 0.0000
-1 21 8 0.0000 0.0000
-1 21 9 0.0000 0.0000
-1 21 10 0.0000 0.0000
-1 21 11 0.0000 0.0000
-1 21 12 0.0000 0.0000
-1 21 13 0.0000 0.0000
-1 22 1 0.0000 0.0000
-1 22 2 0.0000 0.0000
-1 22 3 0.0000 0.0000
-1 22 4 0.0000 0.0000
-1 22 5 0.0000 0.0000
-1 22 6 0.0000 0.0000
-1 22 7 0.0000 0.0000
-1 22 8 0.0000 0.0000
-1 22 9 0.0000 0.0000
-1 22 10 0.0000 0.0000
-1 22 11 0.0000 0.0000
-1 22 12 0.0000 0.0000
-1 22 13 0.0000 0.0000
-1 23 1 0.0000 0.0000
-1 23 2 0.0000 0.0000
-1 23 3 0.0000 0.0000
-1 23 4 0.0000 0.0000
-1 23 5 0.0000 0.0000
-1 23 6 0.0000 0.0000
-1 23 7 0.0000 0.0000
-1 23 8 0.0000 0.0000
-1 23 9 0.0000 0.0000
-1 23 10 0.0000 0.0000
-1 23 11 0.0000 0.0000
-1 23 12 0.0000 0.0000
-1 23 13 0.0000 0.0000
-1 24 1 0.0000 0.0000
-1 24 2 0.0000 0.0000
-1 24 3 0.0000 0.0000
-1 24 4 0.0000 0.0000
-1 24 5 0.0000 0.0000
-1 24 6 0.0000 0.0000
-1 24 7 0.0000 0.0000
-1 24 8 0.0000 0.0000
-1 24 9 0.0000 0.0000
-1 24 10 0.0000 0.0000
-1 24 11 0.0000 0.0000
-1 24 12 0.0000 0.0000
-1 24 13 0.0000 0.0000
-1 25 1 0.0000 0.0000
-1 25 2 0.0000 0.0000
-1 25 3 0.0000 0.0000
-1 25 4 0.0000 0.0000
-1 25 5 0.0000 0.0000
-1 25 6 0.0000 0.0000
-1 25 7 0.0000 0.0000
-1 25 8 0.0000 0.0000
-1 25 9 0.0000 0.0000
-1 25 10 0.0000 0.0000
-1 25 11 0.0000 0.0000
-1 25 12 0.0000 0.0000
-1 25 13 0.0000 0.0000
-1 26 1 0.0000 0.0000
-1 26 2 0.0000 0.0000
-1 26 3 0.0000 0.0000
-1 26 4 0.0000 0.0000
-1 26 5 0.0000 0.0000
-1 26 6 0.0000 0.0000
-1 26 7 0.0000 0.0000
-1 26 8 0.0000 0.0000
-1 26 9 0.0000 0.0000
-1 26 10 0.0000 0.0000
-1 26 11 0.0000 0.0000
-1 26 12 0.0000 0.0000
-1 26 13 0.0000 0.0000
-1 27 1 0.0000 0.0000
-1 27 2 0.0000 0.0000
-1 27 3 0.0000 0.0000
-1 27 4 0.0000 0.0000
-1 27 5 0.0000 0.0000
-1 27 6 0.0000 0.0000
-1 27 7 0.0000 0.0000
-1 27 8 0.0000 0.0000
-1 27 9 0.0000 0.0000
-1 27 10 0.0000 0.0000
-1 27 11 0.0000 0.0000
-1 27 12 0.0000 0.0000
-1 27 13 0.0000 0.0000
-1 28 1 0.0000 0.0000
-1 28 2 0.0000 0.0000
-1 28 3 0.0000 0.0000
-1 28 4 0.0000 0.0000
-1 28 5 0.0000 0.0000
-1 28 6 0.0000 0.0000
-1 28 7 0.0000 0.0000
-1 28 8 0.0000 0.0000
-1 28 9 0.0000 0.0000
-1 28 10 0.0000 0.0000
-1 28 11 0.0000 0.0000
-1 28 12 0.0000 0.0000
-1 28 13 0.0000 0.0000
-1 29 1 0.0000 0.0000
-1 29 2 0.0000 0.0000
-1 29 3 0.0000 0.0000
-1 29 4 0.0000 0.0000
-1 29 5 0.0000 0.0000
-1 29 6 0.0000 0.0000
-1 29 7 0.0000 0.0000
-1 29 8 0.0000 0.0000
-1 29 9 0.0000 0.0000
-1 29 10 0.0000 0.0000
-1 29 11 0.0000 0.0000
-1 29 12 0.0000 0.0000
-1 29 13 0.0000 0.0000
-1 30 1 0.0000 0.0000
-1 30 2 0.0000 0.0000
-1 30 3 0.0000 0.0000
-1 30 4 0.0000 0.0000
-1 30 5 0.0000 0.0000
-1 30 6 0.0000 0.0000
-1 30 7 0.0000 0.0000
-1 30 8 0.0000 0.0000
-1 30 9 0.0000 0.0000
-1 30 10 0.0000 0.0000
-1 30 11 0.0000 0.0000
-1 30 12 0.0000 0.0000
-1 31 1 0.0000 0.0000
-1 31 2 0.0000 0.0000
-1 31 3 0.0000 0.0000
-1 31 4 0.0000 0.0000
-1 31 5 0.0000 0.0000
-1 31 6 0.0000 0.0000
-1 31 7 0.0000 0.0000
-1 31 8 0.0000 0.0000
-1 31 9 0.0000 0.0000
-1 31 10 0.0000 0.0000
-1 31 11 0.0000 0.0000
-1 31 12 0.0000 0.0000
-1 32 1 0.0000 0.0000
-1 32 2 0.0000 0.0000
-1 32 3 0.0000 0.0000
-1 32 4 0.0000 0.0000
-1 32 5 0.0000 0.0000
-1 32 6 0.0000 0.0000
-1 32 7 0.0000 0.0000
-1 32 8 0.0000 0.0000
-1 32 9 0.0000 0.0000
-1 32 10 0.0000 0.0000
-1 32 11 0.0000 0.0000
-1 33 1 0.0000 0.0000
-1 33 2 0.0000 0.0000
-1 33 3 0.0000 0.0000
-1 33 4 0.0000 0.0000
-1 33 5 0.0000 0.0000
-1 33 6 0.0000 0.0000
-1 33 7 0.0000 0.0000
-1 33 8 0.0000 0.0000
-1 33 9 0.0000 0.0000
-1 33 10 0.0000 0.0000
-1 33 11 0.0000 0.0000
-1 34 1 0.0000 0.0000
-1 34 2 0.0000 0.0000
-1 34 3 0.0000 0.0000
-1 34 4 0.0000 0.0000
-1 34 5 0.0000 0.0000
-1 34 6 0.0000 0.0000
-1 34 7 0.0000 0.0000
-1 34 8 0.0000 0.0000
-1 34 9 0.0000 0.0000
-1 34 10 0.0000 0.0000
-1 35 1 0.0000 0.0000
-1 35 2 0.0000 0.0000
-1 35 3 0.0000 0.0000
-1 35 4 0.0000 0.0000
-1 35 5 0.0000 0.0000
-1 35 6 0.0000 0.0000
-1 35 7 0.0000 0.0000
-1 35 8 0.0000 0.0000
-1 35 9 0.0000 0.0000
-1 36 1 0.0000 0.0000
-1 36 2 0.0000 0.0000
-1 36 3 0.0000 0.0000
-1 36 4 0.0000 0.0000
-1 36 5 0.0000 0.0000
-1 36 6 0.0000 0.0000
-1 36 7 0.0000 0.0000
-1 36 8 0.0000 0.0000
-1 37 1 0.0000 0.0000
-1 37 2 0.0000 0.0000
-1 37 3 0.0000 0.0000
-1 37 4 0.0000 0.0000
-1 37 5 0.0000 0.0000
-1 37 6 0.0000 0.0000
-1 37 7 0.0000 0.0000
-1 38 1 0.0000 0.0000
-1 38 2 0.0000 0.0000
-1 38 3 0.0000 0.0000
-1 38 4 0.0000 0.0000
-1 38 5 0.0000 0.0000
-1 38 6 0.0000 0.0000
-1 39 1 0.0000 0.0000
-1 39 2 0.0000 0.0000
-1 39 3 0.0000 0.0000
-1 39 4 0.0000 0.0000
-1 39 5 0.0000 0.0000
-1 40 1 0.0000 0.0000
-1 40 2 0.0000 0.0000
-1 40 3 0.0000 0.0000
-1 41 1 0.0000 0.0000
-1 41 2 0.0000 0.0000
-1 42 1 0.0000 0.0000
0 0 3 0.0000 0.0000
0 0 4 0.0000 0.0000
0 0 5 0.0000 0.0000
0 0 6 0.0000 0.0000
0 0 7 0.0000 0.0000
0 0 8 0.0000 0.0000
0 0 9 0.0000 0.0000
0 0 10 0.0000 0.0000
0 0 11 0.0000 0.0000
0 0 12 0.0000 0.0000
0 1 3 0.0000 0.0000
0 1 4 0.0000 0.0000
0 1 5 0.0000 0.0000
0 1 6 0.0000 0.0000
0 1 7 0.0000 0.0000
0 1 8 0.0000 0.0000
0 1 9 0.0000 0.0000
0 1 10 0.0000 0.0000
0 1 11 0.0000 0.0000
0 1 12 0.0000 0.0000
0 2 2 0.0000 0.0000
0 2 3 0.0000 0.0000
0 2 4 0.0000 0.0000
0 2 5 0.0000 0.0000
0 2 6 0.0000 0.0000
0 2 7 0.0000 0.0000
0 2 8 0.0000 0.0000
0 2 9 0.0000 0.0000
0 2 10 0.0000 0.0000
0 2 11 0.0000 0.0000
0 2 12 0.0000 0.0000
0 2 13 0.0000 0.0000
0 3 2 0.0000 0.0000
0 3 3 0.0000 0.0000
0 3 4 0.0000 0.0000
0 3 5 0.0000 0.0000
0 3 6 0.0000 0.0000
0 3 7 0.0000 0.0000
0 3 8 0.0000 0.0000
0 3 9 0.0000 0.0000
0 3 10 0.0000 0.0000
0 3 11 0.0000 0.0000
0 3 12 0.0000 0.0000
0 3 13 0.0000 0.0000
0 4 2 0.0000 0.0000
0 4 3 0.0000 0.0000
0 4 4 0.0000 0.0000
0 4 5 0.0000 0.0000
0 4 6 0.0000 0.0000
0 4 7 0.0000 0.0000
0 4 8 0.0000 0.0000
0 4 9 0.0000 0.0000
0 4 10 0.0000 0.0000
0 4 11 0.0000 0.0000
0 4 12 0.0000 0.0000
0 4 13 0.0000 0.0000
0 5 1 0.0000 0.0000
0 5 2 0.0000 0.0000
0 5 3 0.0000 0.0000
0 5 4 0.0000 0.0000
0 5 5 0.0000 0.0000
0 5 6 0.0000 0.0000
0 5 7 0.0000 0.0000
0 5 8 0.0000 0.0000
0 5 9 0.0000 0.0000
0 5 10 0.0000 0.0000
0 5 11 0.0000 0.0000
0 5 12 0.0000 0.0000
0 5 13 0.0000 0.0000
0 6 0 0.0000 0.0000
0 6 1 0.0000 0.0000
0 6 2 0.0000 0.0000
0 6 3 0.0000 0.0000
0 6 4 0.0000 0.0000
0 6 5 0.0000 0.0000
0 6 6 0.0000 0.0000
0 6 7 0.0000 0.0000
0 6 8 0.0000 0.0000
0 6 9 0.0000 0.0000
0 6 10 0.0000 0.0000
0 6 11 0.0000 0.0000
0 6 12 0.0000 0.0000
0 6 13 0.0000 0.0000
0 7 1 0.0000 0.0000
0 7 2 0.0000 0.0000
0 7 3 0.0000 0.0000
0 7 4 0.0000 0.0000
0 7 5 0.0000 0.0000
0 7 6 0.0000 0.0000
0 7 7 0.0000 0.0000
0 7 8 0.0000 0.0000
0 7 9 0.0000 0.0000
0 7 10 0.0000 0.0000
0 7 11 0.0000 0.0000
0 7 12 0.0000 0.0000
0 7 13 0.0000 0.0000
0 8 0 0.0000 0.0000
0 8 1 0.0000 0.0000
0 8 2 0.0000 0.0000
0 8 3 0.0000 0.0000
0 8 4 0.0000 0.0000
0 8 5 0.0000 0.0000
0 8 6 0.0000 0.0000
0 8 7 0.0000 0.0000
0 8 8 0.0000 0.0000
0 8 9 0.0000 0.0000
0 8 10 0.0000 0.0000
0 8 11 0.0000 0.0000
0 8 12 0.0000 0.0000
0 8 13 0.0000 0.0000
0 9 1 0.0000 0.0000
0 9 2 0.0000 0.0000
0 9 3 0.0000 0.0000
0 9 4 0.0000 0.0000
0 9 5 0.0000 0.0000
0 9 6 0.0000 0.0000
0 9 7 0.0000 0.0000
0 9 8 0.0000 0.0000
0 9 9 0.0000 0.0000
0 9 10 0.0000 0.0000
0 9 11 0.0000 0.0000
0 9 12 0.0000 0.0000
0 9 13 0.0000 0.0000
0 10 0 0.0000 0.0000
0 10 1 0.0000 0.0000
0 10 2 0.0000 0.0000
0 10 3 0.0000 0.0000
0 10 4 0.0000 0.0000
0 10 5 0.0000 0.0000
0 10 6 0.0000 0.0000
0 10 7 0.0000 0.0000
0 10 8 0.0000 0.0000
0 10 9 0.0000 0.0000
0 10 10 0.0000 0.0000
0 10 11 0.0000 0.0000
0 10 12 0.0000 0.0000
0 10 13 0.0000 0.0000
0 11 1 0.0000 0.0000
0 11 2 0.0000 0.0000
0 11 3 0.0000 0.0000
0 11 4 0.0000 0.0000
0 11 5 0.0000 0.0000
0 11 6 0.0000 0.0000
0 11 7 0.0000 0.0000
0 11 8 0.0000 0.0000
0 11 9 0.0000 0.0000
0 11 10 0.0000 0.0000
0 11 11 0.0000 0.0000
0 11 12 0.0000 0.0000
0 11 13 0.0000 0.0000
0 12 0 0.0000 0.0000
0 12 1 0.0000 0.0000
0 12 2 0.0000 0.0000
0 12 3 0.0000 0.0000
0 12 4 0.0000 0.0000
0 12 5 0.0000 0.0000
0 12 6 0.0000 0.0000
0 12 7 0.0000 0.0000
0 12 8 0.0000 0.0000
0 12 9 0.0000 0.0000
0 12 10 0.0000 0.0000
0 12 11 0.0000 0.0000
0 12 12 0.0000 0.0000
0 12 13 0.0000 0.0000
0 13 1 0.0000 0.0000
0 13 2 0.0000 0.0000
0 13 3 0.0000 0.0000
0 13 4 0.0000 0.0000
0 13 5 0.0000 0.0000
0 13 6 0.0000 0.0000
0 13 7 0.0000 0.0000
0 13 8 0.0000 0.0000
0 13 9 0.0000 0.0000
0 13 10 0.0000 0.0000
0 13 11 0.0000 0.0000
0 13 12 0.0000 0.0000
0 14 0 0.0000 0.0000
0 14 1 0.0000 0.0000
0 14 2 0.0000 0.0000
0 14 3 0.0000 0.0000
0 14 4 0.0000 0.0000
0 14 5 0.0000 0.0000
0 14 6 0.0000 0.0000
0 14 7 0.0000 0.0000
0 14 8 0.0000 0.0000
0 14 9 0.0000 0.0000
0 14 10 0.0000 0.0000
0 14 11 0.0000 0.0000
0 14 12 0.0000 0.0000
0 15 1 0.0000 0.0000
0 15 2 0.0000 0.0000
0 15 3 0.0000 0.0000
0 15 4 0.0000 0.0000
0 15 5 0.0000 0.0000
0 15 6 0.0000 0.0000
0 15 7 0.0000 0.0000
0 15 8 0.0000 0.0000
0 15 9 0.0000 0.0000
0 15 10 0.0000 0.0000
0 15 11 0.0000 0.0000
0 15 12 0.0000 0.0000
0 16 0 0.0000 0.0000
0 16 1 0.0000 0.0000
0 16 2 0.0000 0.0000
0 16 3 0.0000 0.0000
0 16 4 0.0000 0.0000
0 16 5 0.0000 0.0000
0 16 6 0.0000 0.0000
0 16 7 0.0000 0.0000
0 16 8 0.0000 0.0000
0 16 9 0.0000 0.0000
0 16 10 0.0000 0.0000
0 16 11 0.0000 0.0000
0 16 12 0.0000 0.0000
0 17 1 0.0000 0.0000
0 17 2 0.0000 0.0000
0 17 3 0.0000 0.0000
0 17 4 0.0000 0.0000
0 17 5 0.0000 0.0000
0 17 6 0.0000 0.0000
0 17 7 0.0000 0.0000
0 17 8 0.0000 0.0000
0 17 9 0.0000 0.0000
0 17 10 0.0000 0.0000
0 17 11 0.0000 0.0000
0 17 12 0.0000 0.0000
0 18 0 0.0000 0.0000
0 18 1 0.0000 0.0000
0 18 2 0.0000 0.0000
0 18 3 0.0000 0.0000
0 18 4 0.0000 0.0000
0 18 5 0.0000 0.0000
0 18 6 0.0000 0.0000
0 18 7 0.0000 0.0000
0 18 8 0.0000 0.0000
0 18 9 0.0000 0.0000
0 18 10 0.0000 0.0000
0 18 11 0.0000 0.0000
0 18 12 0.0000 0.0000
0 19 1 0.0000 0.0000
0 19 2 0.0000 0.0000
0 19 3 0.0000 0.0000
0 19 4 0.0000 0.0000
0 19 5 0.0000 0.0000
0 19 6 0.0000 0.0000
0 19 7 0.0000 0.0000
0 19 8 0.0000 0.0000
0 19 9 0.0000 0.0000
0 19 10 0.0000 0.0000
0 19 11 0.0000 0.0000
0 19 12 0.0000 0.0000
0 20 0 0.0000 0.0000
0 20 1 0.0000 0.0000
0 20 2 0.0000 0.0000
0 20 3 0.0000 0.0000
0 20 4 0.0000 0.0000
0 20 5 0.0000 0.0000
0 20 6 0.0000 0.0000
0 20 7 0.0000 0.0000
0 20 8 0.0000 0.0000
0 20 9 0.0000 0.0000
0 20 10 0.0000 0.0000
0 20 11 0.0000 0.0000
0 20 12 0.0000 0.0000
0 21 1 0.0000 0.0000
0 21 2 0.0000 0.0000
0 21 3 0.0000 0.0000
0 21 4 0.0000 0.0000
0 21 5 0.0000 0.0000
0 21 6 0.0000 0.0000
0 21 7 0.0000 0.0000
0 21 8 0.0000 0.0000
0 21 9 0.0000 0.0000
0 21 10 0.0000 0.0000
0 21 11 0.0000 0.0000
0 21 12 0.0000 0.0000
0 22 0 0.0000 0.0000
0 22 1 0.0000 0.0000
0 22 2 0.0000 0.0000
0 22 3 0.0000 0.0000
0 22 4 0.0000 0.0000
0 22 5 0.0000 0.0000
0 22 6 0.0000 0.0000
0 22 7 0.0000 0.0000
0 22 8 0.0000 0.0000
0 22 9 0.0000 0.0000
0 22 10 0.0000 0.0000
0 22 11 0.0000 0.0000
0 22 12 0.0000 0.0000
0 23 1 0.0000 0.0000
0 23 2 0.0000 0.0000
0 23 3 0.0000 0.0000
0 23 4 0.0000 0.0000
0 23 5 0.0000 0.0000
0 23 6 0.0000 0.0000
0 23 7 0.0000 0.0000
0 23 8 0.0000 0.0000
0 23 9 0.0000 0.0000
0 23 10 0.0000 0.0000
0 23 11 0.0000 0.0000
0 23 12 0.0000 0.0000
0 24 0 0.0000 0.0000
0 24 1 0.0000 0.0000
0 24 2 0.0000 0.0000
0 24 3 0.0000 0.0000
0 24 4 0.0000 0.0000
0 24 5 0.0000 0.0000
0 24 6 0.0000 0.0000
0 24 7 0.0000 0.0000
0 24 8 0.0000 0.0000
0 24 9 0.0000 0.0000
0 24 10 0.0000 0.0000
0 24 11 0.0000 0.0000
0 24 12 0.0000 0.0000
0 25 1 0.0000 0.0000
0 25 2 0.0000 0.0000
0 25 3 0.0000 0.0000
0 25 4 0.0000 0.0000
0 25 5 0.0000 0.0000
0 25 6 0.0000 0.0000
0 25 7 0.0000 0.0000
0 25 8 0.0000 0.0000
0 25 9 0.0000 0.0000
0 25 10 0.0000 0.0000
0 25 11 0.0000 0.0000
0 25 12 0.0000 0.0000
0 26 0 0.0000 0.0000
0 26 1 0.0000 0.0000
0 26 2 0.0000 0.0000
0 26 3 0.0000 0.0000
0 26 4 0.0000 0.0000
0 26 5 0.0000 0.0000
0 26 6 0.0000 0.0000
0 26 7 0.0000 0.0000
0 26 8 0.0000 0.0000
0 26 9 0.0000 0.0000
0 26 10 0.0000 0.0000
0 26 11 0.0000 0.0000
0 26 12 0.0000 0.0000
0 27 1 0.0000 0.0000
0 27 2 0.0000 0.0000
0 27 3 0.0000 0.0000
0 27 4 0.0000 0.0000
0 27 5 0.0000 0.0000
0 27 6 0.0000 0.0000
0 27 7 0.0000 0.0000
0 27 8 0.0000 0.0000
0 27 9 0.0000 0.0000
0 27 10 0.0000 0.0000
0 27 11 0.0000 0.0000
0 27 12 0.0000 0.0000
0 28 0 0.0000 0.0000
0 28 1 0.0000 0.0000
0 28 2 0.0000 0.0000
0 28 3 0.0000 0.0000
0 28 4 0.0000 0.0000
0 28 5 0.0000 0.0000
0 28 6 0.0000 0.0000
0 28 7 0.0000 0.0000
0 28 8 0.0000 0.0000
0 28 9 0.0000 0.0000
0 28 10 0.0000 0.0000
0 28 11 0.0000 0.0000
0 28 12 0.0000 0.0000
0 29 1 0.0000 0.0000
0 29 2 0.0000 0.0000
0 29 3 0.0000 0.0000
0 29 4 0.0000 0.0000
0 29 5 0.0000 0.0000
0 29 6 0.0000 0.0000
0 29 7 0.0000 0.0000
0 29 8 0.0000 0.0000
0 29 9 0.0000 0.0000
0 29 10 0.0000 0.0000
0 29 11 0.0000 0.0000
0 29 12 0.0000 0.0000
0 30 0 0.0000 0.0000
0 30 1 0.0000 0.0000
0 30 2 0.0000 0.0000
0 30 3 0.0000 0.0000
0 30 4 0.0000 0.0000
0 30 5 0.0000 0.0000
0 30 6 0.0000 0.0000
0 30 7 0.0000 0.0000
0 30 8 0.0000 0.0000
0 30 9 0.0000 0.0000
0 30 10 0.0000 0.0000
0 30 11 0.0000 0.0000
0 30 12 0.0000 0.0000
0 31 1 0.0000 0.0000
0 31 2 0.0000 0.0000
0 31 3 0.0000 0.0000
0 31 4 0.0000 0.0000
0 31 5 0.0000 0.0000
0 31 6 0.0000 0.0000
0 31 7 0.0000 0.0000
0 31 8 0.0000 0.0000
0 31 9 0.0000 0.0000
0 31 10 0.0000 0.0000
0 31 11 0.0000 0.0000
0 31 12 0.0000 0.0000
0 32 0 0.0000 0.0000
0 32 1 0.0000 0.0000
0 32 2 0.0000 0.0000
0 32 3 0.0000 0.0000
0 32 4 0.0000 0.0000
0 32 5 0.0000 0.0000
0 32 6 0.0000 0.0000
0 32 7 0.0000 0.0000
0 32 8 0.0000 0.0000
0 32 9 0.0000 0.0000
0 32 10 0.0000 0.0000
0 32 11 0.0000 0.0000
0 33 1 0.0000 0.0000
0 33 2 0.0000 0.0000
0 33 3 0.0000 0.0000
0 33 4 0.0000 0.0000
0 33 5 0.0000 0.0000
0 33 6 0.0000 0.0000
0 33 7 0.0000 0.0000
0 33 8 0.0000 0.0000
0 33 9 0.0000 0.0000
0 33 10 0.0000 0.0000
0 33 11 0.0000 0.0000
0 34 0 0.0000 0.0000
0 34 1 0.0000 0.0000
0 34 2 0.0000 0.0000
0 34 3 0.0000 0.0000
0 34 4 0.0000 0.0000
0 34 5 0.0000 0.0000
0 34 6 0.0000 0.0000
0 34 7 0.0000 0.0000
0 34 8 0.0000 0.0000
0 34 9 0.0000 0.0000
0 34 10 0.0000 0.0000
0 35 1 0.0000 0.0000
0 35 2 0.0000 0.0000
0 35 3 0.0000 0.0000
0 35 4 0.0000 0.0000
0 35 5 0.0000 0.0000
0 35 6 0.0000 0.0000
0 35 7 0.0000 0.0000
0 35 8 0.0000 0.0000
0 35 9 0.0000 0.0000
0 35 10 0.0000 0.0000
0 36 0 0.0000 0.0000
0 36 1 0.0000 0.0000
0 36 2 0.0000 0.0000
0 36 3 0.0000 0.0000
0 36 4 0.0000 0.0000
0 36 5 0.0000 0.0000
0 36 6 0.0000 0.0000
0 36 7 0.0000 0.0000
0 36 8 0.0000 0.0000
0 36 9 0.0000 0.0000
0 37 1 0.0000 0.0000
0 37 2 0.0000 0.0000
0 37 3 0.0000 0.0000
0 37 4 0.0000 0.0000
0 37 5 0.0000 0.0000
0 37 6 0.0000 0.0000
0 37 7 0.0000 0.0000
0 37 8 0.0000 0.0000
0 38 0 0.0000 0.0000
0 38 1 0.0000 0.0000
0 38 2 0.0000 0.0000
0 38 3 0.0000 0.0000
0 38 4 0.0000 0.0000
0 38 5 0.0000 0.0000
0 38 6 0.0000 0.0000
0 38 7 0.0000 0.0000
0 39 1 0.0000 0.0000
0 39 2 0.0000 0.0000
0 39 3 0.0000 0.0000
0 39 4 0.0000 0.0000
0 39 5 0.0000 0.0000
0 40 0 0.0000 0.0000
0 40 1 0.0000 0.0000
0 40 2 0.0000 0.0000
0 40 3 0.0000 0.0000
0 40 4 0.0000 0.0000
0 40 5 0.0000 0.0000
0 41 1 0.0000 0.0000
0 41 2 0.0000 0.0000
0 41 3 0.0000 0.0000
0 41 4 0.0000 0.0000
0 42 1 0.0000 0.0000
0 42 2 0.0000 0.0000
0 42 3 0.0000 0.0000
0 42 4 0.0000 0.0000
0 43 1 0.0000 0.0000
0 43 2 0.0000 0.0000
0 43 3 0.0000 0.0000
0 44 2 0.0000 0.0000
1 0 2 0.0000 0.0000
1 0 3 0.0000 0.0000
1 0 4 0.0000 0.0000
1 0 5 0.0000 0.0000
1 0 6 0.0000 0.0000
1 0 7 0.0000 0.0000
1 0 8 0.0000 0.0000
1 0 9 0.0000 0.0000
1 0 10 0.0000 0.0000
1 0 11 0.0000 0.0000
1 0 12 0.0000 0.0000
1 1 2 0.0000 0.0000
1 1 3 0.0000 0.0000
1 1 4 0.0000 0.0000
1 1 5 0.0000 0.0000
1 1 6 0.0000 0.0000
1 1 7 0.0000 0.0000
1 1 8 0.0000 0.0000
1 1 9 0.0000 0.0000
1 1 10 0.0000 0.0000
1 1 11 0.0000 0.0000
1 1 12 0.0000 0.0000
1 2 2 0.0000 0.0000
1 2 3 0.0000 0.0000
1 2 4 0.0000 0.0000
1 2 5 0.0000 0.0000
1 2 6 0.0000 0.0000
1 2 7 0.0000 0.0000
1 2 8 0.0000 0.0000
1 2 9 0.0000 0.0000
1 2 10 0.0000 0.0000
1 2 11 0.0000 0.0000
1 2 12 0.0000 0.0000
1 3 2 0.0000 0.0000
1 3 3 0.0000 0.0000
1 3 4 0.0000 0.0000
1 3 5 0.0000 0.0000
1 3 6 0.0000 0.0000
1 3 7 0.0000 0.0000
1 3 8 0.0000 0.0000
1 3 9 0.0000 0.0000
1 3 10 0.0000 0.0000
1 3 11 0.0000 0.0000
1 3 12 0.0000 0.0000
1 4 1 0.0000 0.0000
1 4 2 0.0000 0.0000
1 4 3 0.0000 0.0000
1 4 4 0.0000 0.0000
1 4 5 0.0000 0.0000
1 4 6 0.0000 0.0000
1 4 7 0.0000 0.0000
1 4 8 0.0000 0.0000
1 4 9 0.0000 0.0000
1 4 10 0.0000 0.0000
1 4 11 0.0000 0.0000
1 4 12 0.0000 0.0000
1 5 1 0.0000 0.0000
1 5 2 0.0000 0.0000
1 5 3 0.0000 0.0000
1 5 4 0.0000 0.0000
1 5 5 0.0000 0.0000
1 5 6 0.0000 0.0000
1 5 7 0.0000 0.0000
1 5 8 0.0000 0.0000
1 5 9 0.0000 0.0000
1 5 10 0.0000 0.0000
1 5 11 0.0000 0.0000
1 5 12 0.0000 0.0000
1 6 0 0.0000 0.0000
1 6 1 0.0000 0.0000
1 6 2 0.0000 0.0000
1 6 3 0.0000 0.0000
1 6 4 0.0000 0.0000
1 6 5 0.0000 0.0000
1 6 6 0.0000 0.0000
1 6 7 0.0000 0.0000
1 6 8 0.0000 0.0000
1 6 9 0.0000 0.0000
1 6 10 0.0000 0.0000
1 6 11 0.0000 0.0000
1 6 12 0.0000 0.0000
1 7 0 0.0000 0.0000
1 7 1 0.0000 0.0000
1 7 2 0.0000 0.0000
1 7 3 0.0000 0.0000
1 7 4 0.0000 0.0000
1 7 5 0.0000 0.0000
1 7 6 0.0000 0.0000
1 7 7 0.0000 0.0000
1 7 8 0.0000 0.0000
1 7 9 0.0000 0.0000
1 7 10 0.0000 0.0000
1 7 11 0.0000 0.0000
1 7 12 0.0000 0.0000
1 8 0 0.0000 0.0000
1 8 1 0.0000 0.0000
1 8 2 0.0000 0.0000
1 8 3 0.0000 0.0000
1 8 4 0.0000 0.0000
1 8 5 0.0000 0.0000
1 8 6 0.0000 0.0000
1 8 7 0.0000 0.0000
1 8 8 0.0000 0.0000
1 8 9 0.0000 0.0000
1 8 10 0.0000 0.0000
1 8 11 0.0000 0.0000
1 8 12 0.0000 0.0000
1 9 0 0.0000 0.0000
1 9 1 0.0000 0.0000
1 9 2 0.0000 0.0000
1 9 3 0.0000 0.0000
1 9 4 0.0000 0.0000
1 9 5 0.0000 0.0000
1 9 6 0.0000 0.0000
1 9 7 0.0000 0.0000
1 9 8 0.0000 0.0000
1 9 9 0.0000 0.0000
1 9 10 0.0000 0.0000
1 9 11 0.0000 0.0000
1 9 12 0.0000 0.0000
1 10 0 0.0000 0.0000
1 10 1 0.0000 0.0000
1 10 2 0.0000 0.0000
1 10 3 0.0000 0.0000
1 10 4 0.0000 0.0000
1 10 5 0.0000 0.0000
1 10 6 0.0000 0.0000
1 10 7 0.0000 0.0000
1 10 8 0.0000 0.0000
1 10 9 0.0000 0.0000
1 10 10 0.0000 0.0000
1 10 11 0.0000 0.0000
1 10 12 0.0000 0.0000
1 11 0 0.0000 0.0000
1 11 1 0.0000 0.0000
1 11 2 0.0000 0.0000
1 11 3 0.0000 0.0000
1 11 4 0.0000 0.0000
1 11 5 0.0000 0.0000
1 11 6 0.0000 0.0000
1 11 7 0.0000 0.0000
1 11 8 0.0000 0.0000
1 11 9 0.0000 0.0000
1 11 10 0.0000 0.0000
1 11 11 0.0000 0.0000
1 11 12 0.0000 0.0000
1 12 0 0.0000 0.0000
1 12 1 0.0000 0.0000
1 12 2 0.0000 0.0000
1 12 3 0.0000 0.0000
1 12 4 0.0000 0.0000
1 12 5 0.0000 0.0000
1 12 6 0.0000 0.0000
1 12 7 0.0000 0.0000
1 12 8 0.0000 0.0000
1 12 9 0.0000 0.0000
1 12 10 0.0000 0.0000
1 12 11 0.0000 0.0000
1 12 12 0.0000 0.0000
1 13 0 0.0000 0.0000
1 13 1 0.0000 0.0000
1 13 2 0.0000 0.0000
1 13 3 0.0000 0.0000
1 13 4 0.0000 0.0000
1 13 5 0.0000 0.0000
1 13 6 0.0000 0.0000
1 13 7 0.0000 0.0000
1 13 8 0.0000 0.0000
1 13 9 0.0000 0.0000
1 13 10 0.0000 0.0000
1 13 11 0.0000 0.0000
1 13 12 0.0000 0.0000
1 14 0 0.0000 0.0000
1 14 1 0.0000 0.0000
1 14 2 0.0000 0.0000
1 14 3 0.0000 0.0000
1 14 4 0.0000 0.0000
1 14 5 0.0000 0.0000
1 14 6 0.0000 0.0000
1 14 7 0.0000 0.0000
1 14 8 0.0000 0.0000
1 14 9 0.0000 0.0000
1 14 10 0.0000 0.0000
1 14 11 0.0000 0.0000
1 14 12 0.0000 0.0000
1 15 0 0.0000 0.0000
1 15 1 0.0000 0.0000
1 15 2 0.0000 0.0000
1 15 3 0.0000 0.0000
1 15 4 0.0000 0.0000
1 15 5 0.0000 0.0000
1 15 6 0.0000 0.0000
1 15 7 0.0000 0.0000
1 15 8 0.0000 0.0000
1 15 9 0.0000 0.0000
1 15 10 0.0000 0.0000
1 15 11 0.0000 0.0000
1 15 12 0.0000 0.0000
1 16 0 0.0000 0.0000
1 16 1 0.0000 0.0000
1 16 2 0.0000 0.0000
1 16 3 0.0000 0.0000
1 16 4 0.0000 0.0000
1 16 5 0.0000 0.0000
1 16 6 0.0000 0.0000
1 16 7 0.0000 0.0000
1 16 8 0.0000 0.0000
1 16 9 0.0000 0.0000
1 16 10 0.0000 0.0000
1 16 11 0.0000 0.0000
1 16 12 0.0000 0.0000
1 17 0 0.0000 0.0000
1 17 1 0.0000 0.0000
1 17 2 0.0000 0.0000
1 17 3 0.0000 0.0000
1 17 4 0.0000 0.0000
1 17 5 0.0000 0.0000
1 17 6 0.0000 0.0000
1 17 7 0.0000 0.0000
1 17 8 0.0000 0.0000
1 17 9 0.0000 0.0000
1 17 10 0.0000 0.0000
1 17 11 0.0000 0.0000
1 17 12 0.0000 0.0000
1 18 0 0.0000 0.0000
1 18 1 0.0000 0.0000
1 18 2 0.0000 0.0000
1 18 3 0.0000 0.0000
1 18 4 0.0000 0.0000
1 18 5 0.0000 0.0000
1 18 6 0.0000 0.0000
1 18 7 0.0000 0.0000
1 18 8 0.0000 0.0000
1 18 9 0.0000 0.0000
1 18 10 0.0000 0.0000
1 18 11 0.0000 0.0000
1 18 12 0.0000 0.0000
1 19 0 0.0000 0.0000
1 19 1 0.0000 0.0000
1 19 2 0.0000 0.0000
1 19 3 0.0000 0.0000
1 19 4 0.0000 0.0000
1 19 5 0.0000 0.0000
1 19 6 0.0000 0.0000
1 19 7 0.0000 0.0000
1 19 8 0.0000 0.0000
1 19 9 0.0000 0.0000
1 19 10 0.0000 0.0000
1 19 11 0.0000 0.0000
1 19 12 0.0000 0.0000
1 20 0 0.0000 0.0000
1 20 1 0.0000 0.0000
1 20 2 0.0000 0.0000
1 20 3 0.0000 0.0000
1 20 4 0.0000 0.0000
1 20 5 0.0000 0.0000
1 20 6 0.0000 0.0000
1 20 7 0.0000 0.0000
1 20 8 0.0000 0.0000
1 20 9 0.0000 0.0000
1 20 10 0.0000 0.0000
1 20 11 0.0000 0.0000
1 20 12 0.0000 0.0000
1 21 0 0.0000 0.0000
1 21 1 0.0000 0.0000
1 21 2 0.0000 0.0000
1 21 3 0.0000 0.0000
1 21 4 0.0000 0.0000
1 21 5 0.0000 0.0000
1 21 6 0.0000 0.0000
1 21 7 0.0000 0.0000
1 21 8 0.0000 0.0000
1 21 9 0.0000 0.0000
1 21 10 0.0000 0.0000
1 21 11 0.0000 0.0000
1 22 0 0.0000 0.0000
1 22 1 0.0000 0.0000
1 22 2 0.0000 0.0000
1 22 3 0.0000 0.0000
1 22 4 0.0000 0.0000
1 22 5 0.0000 0.0000
1 22 6 0.0000 0.0000
1 22 7 0.0000 0.0000
1 22 8 0.0000 0.0000
1 22 9 0.0000 0.0000
1 22 10 0.0000 0.0000
1 22 11 0.0000 0.0000
1 23 0 0.0000 0.0000
1 23 1 0.0000 0.0000
1 23 2 0.0000 0.0000
1 23 3 0.0000 0.0000
1 23 4 0.0000 0.0000
1 23 5 0.0000 0.0000
1 23 6 0.0000 0.0000
1 23 7 0.0000 0.0000
1 23 8 0.0000 0.0000
1 23 9 0.0000 0.0000
1 23 10 0.0000 0.0000
1 23 11 0.0000 0.0000
1 24 0 0.0000 0.0000
1 24 1 0.0000 0.0000
1 24 2 0.0000 0.0000
1 24 3 0.0000 0.0000
1 24 4 0.0000 0.0000
1 24 5 0.0000 0.0000
1 24 6 0.0000 0.0000
1 24 7 0.0000 0.0000
1 24 8 0.0000 0.0000
1 24 9 0.0000 0.0000
1 24 10 0.0000 0.0000
1 24 11 0.0000 0.0000
1 25 0 0.0000 0.0000
1 25 1 0.0000 0.0000
1 25 2 0.0000 0.0000
1 25 3 0.0000 0.0000
1 25 4 0.0000 0.0000
1 25 5 0.0000 0.0000
1 25 6 0.0000 0.0000
1 25 7 0.0000 0.0000
1 25 8 0.0000 0.0000
1 25 9 0.0000 0.0000
1 25 10 0.0000 0.0000
1 25 11 0.0000 0.0000
1 26 0 0.0000 0.0000
1 26 1 0.0000 0.0000
1 26 2 0.0000 0.0000
1 26 3 0.0000 0.0000
1 26 4 0.0000 0.0000
1 26 5 0.0000 0.0000
1 26 6 0.0000 0.0000
1 26 7 0.0000 0.0000
1 26 8 0.0000 0.0000
1 26 9 0.0000 0.0000
1 26 10 0.0000 0.0000
1 26 11 0.0000 0.0000
1 27 0 0.0000 0.0000
1 27 1 0.0000 0.0000
1 27 2 0.0000 0.0000
1 27 3 0.0000 0.0000
1 27 4 0.0000 0.0000
1 27 5 0.0000 0.0000
1 27 6 0.0000 0.0000
1 27 7 0.0000 0.0000
1 27 8 0.0000 0.0000
1 27 9 0.0000 0.0000
1 27 10 0.0000 0.0000
1 27 11 0.0000 0.0000
1 28 0 0.0000 0.0000
1 28 1 0.0000 0.0000
1 28 2 0.0000 0.0000
1 28 3 0.0000 0.0000
1 28 4 0.0000 0.0000
1 28 5 0.0000 0.0000
1 28 6 0.0000 0.0000
1 28 7 0.0000 0.0000
1 28 8 0.0000 0.0000
1 28 9 0.0000 0.0000
1 28 10 0.0000 0.0000
1 28 11 0.0000 0.0000
1 29 0 0.0000 0.0000
1 29 1 0.0000 0.0000
1 29 2 0.0000 0.0000
1 29 3 0.0000 0.0000
1 29 4 0.0000 0.0000
1 29 5 0.0000 0.0000
1 29 6 0.0000 0.0000
1 29 7 0.0000 0.0000
1 29 8 0.0000 0.0000
1 29 9 0.0000 0.0000
1 29 10 0.0000 0.0000
1 29 11 0.0000 0.0000
1 30 0 0.0000 0.0000
1 30 1 0.0000 0.0000
1 30 2 0.0000 0.0000
1 30 3 0.0000 0.0000
1 30 4 0.0000 0.0000
1 30 5 0.0000 0.0000
1 30 6 0.0000 0.0000
1 30 7 0.0000 0.0000
1 30 8 0.0000 0.0000
1 30 9 0.0000 0.0000
1 30 10 0.0000 0.0000
1 30 11 0.0000 0.0000
1 31 0 0.0000 0.0000
1 31 1 0.0000 0.0000
1 31 2 0.0000 0.0000
1 31 3 0.0000 0.0000
1 31 4 0.0000 0.0000
1 31 5 0.0000 0.0000
1 31 6 0.0000 0.0000
1 31 7 0.0000 0.0000
1 31 8 0.0000 0.0000
1 31 9 0.0000 0.0000
1 31 10 0.0000 0.0000
1 31 11 0.0000 0.0000
1 32 0 0.0000 0.0000
1 32 1 0.0000 0.0000
1 32 2 0.0000 0.0000
1 32 3 0.0000 0.0000
1 32 4 0.0000 0.0000
1 32 5 0.0000 0.0000
1 32 6 0.0000 0.0000
1 32 7 0.0000 0.0000
1 32 8 0.0000 0.0000
1 32 9 0.0000 0.0000
1 32 10 0.0000 0.0000
1 32 11 0.0000 0.0000
1 33 0 0.0000 0.0000
1 33 1 0.0000 0.0000
1 33 2 0.0000 0.0000
1 33 3 0.0000 0.0000
1 33 4 0.0000 0.0000
1 33 5 0.0000 0.0000
1 33 6 0.0000 0.0000
1 33 7 0.0000 0.0000
1 33 8 0.0000 0.0000
1 33 9 0.0000 0.0000
1 33 10 0.0000 0.0000
1 33 11 0.0000 0.0000
1 34 0 0.0000 0.0000
1 34 1 0.0000 0.0000
1 34 2 0.0000 0.0000
1 34 3 0.0000 0.0000
1 34 4 0.0000 0.0000
1 34 5 0.0000 0.0000
1 34 6 0.0000 0.0000
1 34 7 0.0000 0.0000
1 34 8 0.0000 0.0000
1 34 9 0.0000 0.0000
1 34 10 0.0000 0.0000
1 34 11 0.0000 0.0000
1 35 0 0.0000 0.0000
1 35 1 0.0000 0.0000
1 35 2 0.0000 0.0000
1 35 3 0.0000 0.0000
1 35 4 0.0000 0.0000
1 35 5 0.0000 0.0000
1 35 6 0.0000 0.0000
1 35 7 0.0000 0.0000
1 35 8 0.0000 0.0000
1 35 9 0.0000 0.0000
1 35 10 0.0000 0.0000
1 36 0 0.0000 0.0000
1 36 1 0.0000 0.0000
1 36 2 0.0000 0.0000
1 36 3 0.0000 0.0000
1 36 4 0.0000 0.0000
1 36 5 0.0000 0.0000
1 36 6 0.0000 0.0000
1 36 7 0.0000 0.0000
1 36 8 0.0000 0.0000
1 36 9 0.0000 0.0000
1 37 0 0.0000 0.0000
1 37 1 0.0000 0.0000
1 37 2 0.0000 0.0000
1 37 3 0.0000 0.0000
1 37 4 0.0000 0.0000
1 37 5 0.0000 0.0000
1 37 6 0.0000 0.0000
1 37 7 0.0000 0.0000
1 37 8 0.0000 0.0000
1 38 0 0.0000 0.0000
1 38 1 0.0000 0.0000
1 38 2 0.0000 0.0000
1 38 3 0.0000 0.0000
1 38 4 0.0000 0.0000
1 38 5 0.0000 0.0000
1 38 6 0.0000 0.0000
1 38 7 0.0000 0.0000
1 39 0 0.0000 0.0000
1 39 1 0.0000 0.0000
1 39 2 0.0000 0.0000
1 39 3 0.0000 0.0000
1 39 4 0.0000 0.0000
1 39 5 0.0000 0.0000
1 39 6 0.0000 0.0000
1 40 0 0.0000 0.0000
1 40 1 0.0000 0.0000
1 40 2 0.0000 0.0000
1 40 3 0.0000 0.0000
1 40 4 0.0000 0.0000
1 40 5 0.0000 0.0000
1 41 0 0.0000 0.0000
1 41 1 0.0000 0.0000
1 41 2 0.0000 0.0000
1 41 3 0.0000 0.0000
1 41 4 0.0000 0.0000
1 42 0 0.0000 0.0000
1 42 1 0.0000 0.0000
1 42 2 0.0000 0.0000
1 42 3 0.0000 0.0000
1 43 0 0.0000 0.0000
1 43 1 0.0000 0.0000
1 43 2 0.0000 0.0000
1 44 1 0.0000 0.0000
1 44 2 0.0000 0.0000
2 0 0 0.0000 0.0000
2 0 2 0.0000 0.0000
2 0 3 0.0000 0.0000
2 0 4 0.0000 0.0000
2 0 5 0.0000 0.0000
2 0 6 0.0000 0.0000
2 0 7 0.0000 0.0000
2 0 8 0.0000 0.0000
2 0 9 0.0000 0.0000
2 0 10 0.0000 0.0000
2 1 0 0.0000 0.0000
2 1 1 0.0000 0.0000
2 1 2 0.0000 0.0000
2 1 3 0.0000 0.0000
2 1 4 0.0000 0.0000
2 1 5 0.0000 0.0000
2 1 6 0.0000 0.0000
2 1 7 0.0000 0.0000
2 1 8 0.0000 0.0000
2 1 9 0.0000 0.0000
2 1 10 0.0000 0.0000
2 1 11 0.0000 0.0000
2 2 0 0.0000 0.0000
2 2 1 0.0000 0.0000
2 2 2 0.0000 0.0000
2 2 3 0.0000 0.0000
2 2 4 0.0000 0.0000
2 2 5 0.0000 0.0000
2 2 6 0.0000 0.0000
2 2 7 0.0000 0.0000
2 2 8 0.0000 0.0000
2 2 9 0.0000 0.0000
2 2 10 0.0000 0.0000
2 2 11 0.0000 0.0000
2 3 0 0.0000 0.0000
2 3 1 0.0000 0.0000
2 3 2 0.0000 0.0000
2 3 3 0.0000 0.0000
2 3 4 0.0000 0.0000
2 3 5 0.0000 0.0000
2 3 6 0.0000 0.0000
2 3 7 0.0000 0.0000
2 3 8 0.0000 0.0000
2 3 9 0.0000 0.0000
2 3 10 0.0000 0.0000
2 3 11 0.0000 0.0000
2 4 0 0.0000 0.0000
2 4 1 0.0000 0.0000
2 4 2 0.0000 0.0000
2 4 3 0.0000 0.0000
2 4 4 0.0000 0.0000
2 4 5 0.0000 0.0000
2 4 6 0.0000 0.0000
2 4 7 0.0000 0.0000
2 4 8 0.0000 0.0000
2 4 9 0.0000 0.0000
2 4 10 0.0000 0.0000
2 4 11 0.0000 0.0000
2 4 12 0.0000 0.0000
2 4 13 0.0000 0.0000
2 5 0 0.0000 0.0000
2 5 1 0.0000 0.0000
2 5 2 0.0000 0.0000
2 5 3 0.0000 0.0000
2 5 4 0.0000 0.0000
2 5 5 0.0000 0.0000
2 5 6 0.0000 0.0000
2 5 7 0.0000 0.0000
2 5 8 0.0000 0.0000
2 5 9 0.0000 0.0000
2 5 10 0.0000 0.0000
2 5 11 0.0000 0.0000
2 5 12 0.0000 0.0000
2 5 13 0.0000 0.0000
2 6 0 0.0000 0.0000
2 6 1 0.0000 0.0000
2 6 2 0.0000 0.0000
2 6 3 0.0000 0.0000
2 6 4 0.0000 0.0000
2 6 5 0.0000 0.0000
2 6 6 0.0000 0.0000
2 6 7 0.0000 0.0000
2 6 8 0.0000 0.0000
2 6 9 0.0000 0.0000
2 6 10 0.0000 0.0000
2 6 11 0.0000 0.0000
2 6 12 0.0000 0.0000
2 7 0 0.0000 0.0000
2 7 1 0.0000 0.0000
2 7 2 0.0000 0.0000
2 7 3 0.0000 0.0000
2 7 4 0.0000 0.0000
2 7 5 0.0000 0.0000
2 7 6 0.0000 0.0000
2 7 7 0.0000 0.0000
2 7 8 0.0000 0.0000
2 7 9 0.0000 0.0000
2 7 10 0.0000 0.0000
2 7 11 0.0000 0.0000
2 7 12 0.0000 0.0000
2 8 0 0.0000 0.0000
2 8 1 0.0000 0.0000
2 8 2 0.0000 0.0000
2 8 3 0.0000 0.0000
2 8 4 0.0000 0.0000
2 8 5 0.0000 0.0000
2 8 6 0.0000 0.0000
2 8 7 0.0000 0.0000
2 8 8 0.0000 0.0000
2 8 9 0.0000 0.0000
2 8 10 0.0000 0.0000
2 8 11 0.0000 0.0000
2 8 12 0.0000 0.0000
2 9 0 0.0000 0.0000
2 9 1 0.0000 0.0000
2 9 2 0.0000 0.0000
2 9 3 0.0000 0.0000
2 9 4 0.0000 0.0000
2 9 5 0.0000 0.0000
2 9 6 0.0000 0.0000
2 9 7 0.0000 0.0000
2 9 8 0.0000 0.0000
2 9 9 0.0000 0.0000
2 9 10 0.0000 0.0000
2 9 11 0.0000 0.0000
2 9 12 0.0000 0.0000
2 10 0 0.0000 0.0000
2 10 1 0.0000 0.0000
2 10 2 0.0000 0.0000
2 10 3 0.0000 0.0000
2 10 4 0.0000 0.0000
2 10 5 0.0000 0.0000
2 10 6 0.0000 0.0000
2 10 7 0.0000 0.0000
2 10 8 0.0000 0.0000
2 10 9 0.0000 0.0000
2 10 10 0.0000 0.0000
2 10 11 0.0000 0.0000
2 10 12 0.0000 0.0000
2 11 0 0.0000 0.0000
2 11 1 0.0000 0.0000
2 11 2 0.0000 0.0000
2 11 3 0.0000 0.0000
2 11 4 0.0000 0.0000
2 11 5 0.0000 0.0000
2 11 6 0.0000 0.0000
2 11 7 0.0000 0.0000
2 11 8 0.0000 0.0000
2 11 9 0.0000 0.0000
2 11 10 0.0000 0.0000
2 11 11 0.0000 0.0000
2 12 0 0.0000 0.0000
2 12 1 0.0000 0.0000
2 12 2 0.0000 0.0000
2 12 3 0.0000 0.0000
2 12 4 0.0000 0.0000
2 12 5 0.0000 0.0000
2 12 6 0.0000 0.0000
2 12 7 0.0000 0.0000
2 12 8 0.0000 0.0000
2 12 9 0.0000 0.0000
2 12 10 0.0000 0.0000
2 12 11 0.0000 0.0000
2 13 0 0.0000 0.0000
2 13 1 0.0000 0.0000
2 13 2 0.0000 0.0000
2 13 3 0.0000 0.0000
2 13 4 0.0000 0.0000
2 13 5 0.0000 0.0000
2 13 6 0.0000 0.0000
2 13 7 0.0000 0.0000
2 13 8 0.0000 0.0000
2 13 9 0.0000 0.0000
2 13 10 0.0000 0.0000
2 13 11 0.0000 0.0000
2 14 0 0.0000 0.0000
2 14 1 0.0000 0.0000
2 14 2 0.0000 0.0000
2 14 3 0.0000 0.0000
2 14 4 0.0000 0.0000
2 14 5 0.0000 0.0000
2 14 6 0.0000 0.0000
2 14 7 0.0000 0.0000
2 14 8 0.0000 0.0000
2 14 9 0.0000 0.0000
2 14 10 0.0000 0.0000
2 14 11 0.0000 0.0000
2 15 0 0.0000 0.0000
2 15 1 0.0000 0.0000
2 15 2 0.0000 0.0000
2 15 3 0.0000 0.0000
2 15 4 0.0000 0.0000
2 15 5 0.0000 0.0000
2 15 6 0.0000 0.0000
2 15 7 0.0000 0.0000
2 15 8 0.0000 0.0000
2 15 9 0.0000 0.0000
2 15 10 0.0000 0.0000
2 15 11 0.0000 0.0000
2 16 0 0.0000 0.0000
2 16 1 0.0000 0.0000
2 16 2 0.0000 0.0000
2 16 3 0.0000 0.0000
2 16 4 0.0000 0.0000
2 16 5 0.0000 0.0000
2 16 6 0.0000 0.0000
2 16 7 0.0000 0.0000
2 16 8 0.0000 0.0000
2 16 9 0.0000 0.0000
2 16 10 0.0000 0.0000
2 16 11 0.0000 0.0000
2 17 0 0.0000 0.0000
2 17 1 0.0000 0.0000
2 17 2 0.0000 0.0000
2 17 3 0.0000 0.0000
2 17 4 0.0000 0.0000
2 17 5 0.0000 0.0000
2 17 6 0.0000 0.0000
2 17 7 0.0000 0.0000
2 17 8 0.0000 0.0000
2 17 9 0.0000 0.0000
2 17 10 0.0000 0.0000
2 17 11 0.0000 0.0000
2 18 0 0.0000 0.0000
2 18 1 0.0000 0.0000
2 18 2 0.0000 0.0000
2 18 3 0.0000 0.0000
2 18 4 0.0000 0.0000
2 18 5 0.0000 0.0000
2 18 6 0.0000 0.0000
2 18 7 0.0000 0.0000
2 18 8 0.0000 0.0000
2 18 9 0.0000 0.0000
2 18 10 0.0000 0.0000
2 18 11 0.0000 0.0000
2 19 0 0.0000 0.0000
2 19 1 0.0000 0.0000
2 19 2 0.0000 0.0000
2 19 3 0.0000 0.0000
2 19 4 0.0000 0.0000
2 19 5 0.0000 0.0000
2 19 6 0.0000 0.0000
2 19 7 0.0000 0.0000
2 19 8 0.0000 0.0000
2 19 9 0.0000 0.0000
2 19 10 0.0000 0.0000
2 19 11 0.0000 0.0000
2 20 0 0.0000 0.0000
2 20 1 0.0000 0.0000
2 20 2 0.0000 0.0000
2 20 3 0.0000 0.0000
2 20 4 0.0000 0.0000
2 20 5 0.0000 0.0000
2 20 6 0.0000 0.0000
2 20 7 0.0000 0.0000
2 20 8 0.0000 0.0000
2 20 9 0.0000 0.0000
2 20 10 0.0000 0.0000
2 20 11 0.0000 0.0000
2 21 0 0.0000 0.0000
2 21 1 0.0000 0.0000
2 21 2 0.0000 0.0000
2 21 3 0.0000 0.0000
2 21 4 0.0000 0.0000
2 21 5 0.0000 0.0000
2 21 6 0.0000 0.0000
2 21 7 0.0000 0.0000
2 21 8 0.0000 0.0000
2 21 9 0.0000 0.0000
2 21 10 0.0000 0.0000
2 21 11 0.0000 0.0000
2 22 0 0.0000 0.0000
2 22 1 0.0000 0.0000
2 22 2 0.0000 0.0000
2 22 3 0.0000 0.0000
2 22 4 0.0000 0.0000
2 22 5 0.0000 0.0000
2 22 6 0.0000 0.0000
2 22 7 0.0000 0.0000
2 22 8 0.0000 0.0000
2 22 9 0.0000 0.0000
2 22 10 0.0000 0.0000
2 22 11 0.0000 0.0000
2 23 0 0.0000 0.0000
2 23 1 0.0000 0.0000
2 23 2 0.0000 0.0000
2 23 3 0.0000 0.0000
2 23 4 0.0000 0.0000
2 23 5 0.0000 0.0000
2 23 6 0.0000 0.0000
2 23 7 0.0000 0.0000
2 23 8 0.0000 0.0000
2 23 9 0.0000 0.0000
2 23 10 0.0000 0.0000
2 23 11 0.0000 0.0000
2 24 0 0.0000 0.0000
2 24 1 0.0000 0.0000
2 24 2 0.0000 0.0000
2 24 3 0.0000 0.0000
2 24 4 0.0000 0.0000
2 24 5 0.0000 0.0000
2 24 6 0.0000 0.0000
2 24 7 0.0000 0.0000
2 24 8 0.0000 0.0000
2 24 9 0.0000 0.0000
2 24 10 0.0000 0.0000
2 25 0 0.0000 0.0000
2 25 1 0.0000 0.0000
2 25 2 0.0000 0.0000
2 25 3 0.0000 0.0000
2 25 4 0.0000 0.0000
2 25 5 0.0000 0.0000
2 25 6 0.0000 0.0000
2 25 7 0.0000 0.0000
2 25 8 0.0000 0.0000
2 25 9 0.0000 0.0000
2 25 10 0.0000 0.0000
2 26 0 0.0000 0.0000
2 26 1 0.0000 0.0000
2 26 2 0.0000 0.0000
2 26 3 0.0000 0.0000
2 26 4 0.0000 0.0000
2 26 5 0.0000 0.0000
2 26 6 0.0000 0.0000
2 26 7 0.0000 0.0000
2 26 8 0.0000 0.0000
2 26 9 0.0000 0.0000
2 26 10 0.0000 0.0000
2 27 0 0.0000 0.0000
2 27 1 0.0000 0.0000
2 27 2 0.0000 0.0000
2 27 3 0.0000 0.0000
2 27 4 0.0000 0.0000
2 27 5 0.0000 0.0000
2 27 6 0.0000 0.0000
2 27 7 0.0000 0.0000
2 27 8 0.0000 0.0000
2 27 9 0.0000 0.0000
2 27 10 0.0000 0.0000
2 28 0 0.0000 0.0000
2 28 1 0.0000 0.0000
2 28 2 0.0000 0.0000
2 28 3 0.0000 0.0000
2 28 4 0.0000 0.0000
2 28 5 0.0000 0.0000
2 28 6 0.0000 0.0000
2 28 7 0.0000 0.0000
2 28 8 0.0000 0.0000
2 28 9 0.0000 0.0000
2 28 10 0.0000 0.0000
2 29 0 0.0000 0.0000
2 29 1 0.0000 0.0000
2 29 2 0.0000 0.0000
2 29 3 0.0000 0.0000
2 29 4 0.0000 0.0000
2 29 5 0.0000 0.0000
2 29 6 0.0000 0.0000
2 29 7 0.0000 0.0000
2 29 8 0.0000 0.0000
2 29 9 0.0000 0.0000
2 29 10 0.0000 0.0000
2 30 0 0.0000 0.0000
2 30 1 0.0000 0.0000
2 30 2 0.0000 0.0000
2 30 3 0.0000 0.0000
2 30 4 0.0000 0.0000
2 30 5 0.0000 0.0000
2 30 6 0.0000 0.0000
2 30 7 0.0000 0.0000
2 30 8 0.0000 0.0000
2 30 9 0.0000 0.0000
2 30 10 0.0000 0.0000
2 31 0 0.0000 0.0000
2 31 1 0.0000 0.0000
2 31 2 0.0000 0.0000
2 31 3 0.0000 0.0000
2 31 4 0.0000 0.0000
2 31 5 0.0000 0.0000
2 31 6 0.0000 0.0000
2 31 7 0.0000 0.0000
2 31 8 0.0000 0.0000
2 31 9 0.0000 0.0000
2 31 10 0.0000 0.0000
2 32 0 0.0000 0.0000
2 32 1 0.0000 0.0000
2 32 2 0.0000 0.0000
2 32 3 0.0000 0.0000
2 32 4 0.0000 0.0000
2 32 5 0.0000 0.0000
2 32 6 0.0000 0.0000
2 32 7 0.0000 0.0000
2 32 8 0.0000 0.0000
2 32 9 0.0000 0.0000
2 32 10 0.0000 0.0000
2 33 0 0.0000 0.0000
2 33 1 0.0000 0.0000
2 33 2 0.0000 0.0000
2 33 3 0.0000 0.0000
2 33 4 0.0000 0.0000
2 33 5 0.0000 0.0000
2 33 6 0.0000 0.0000
2 33 7 0.0000 0.0000
2 33 8 0.0000 0.0000
2 33 9 0.0000 0.0000
2 33 10 0.0000 0.0000
2 34 0 0.0000 0.0000
2 34 1 0.0000 0.0000
2 34 2 0.0000 0.0000
2 34 3 0.0000 0.0000
2 34 4 0.0000 0.0000
2 34 5 0.0000 0.0000
2 34 6 0.0000 0.0000
2 34 7 0.0000 0.0000
2 34 8 0.0000 0.0000
2 34 9 0.0000 0.0000
2 34 10 0.0000 0.0000
2 35 0 0.0000 0.0000
2 35 1 0.0000 0.0000
2 35 2 0.0000 0.0000
2 35 3 0.0000 0.0000
2 35 4 0.0000 0.0000
2 35 5 0.0000 0.0000
2 35 6 0.0000 0.0000
2 35 7 0.0000 0.0000
2 35 8 0.0000 0.0000
2 35 9 0.0000 0.0000
2 35 10 0.0000 0.0000
2 36 0 0.0000 0.0000
2 36 1 0.0000 0.0000
2 36 2 0.0000 0.0000
2 36 3 0.0000 0.0000
2 36 4 0.0000 0.0000
2 36 5 0.0000 0.0000
2 36 6 0.0000 0.0000
2 36 7 0.0000 0.0000
2 36 8 0.0000 0.0000
2 36 9 0.0000 0.0000
2 37 0 0.0000 0.0000
2 37 1 0.0000 0.0000
2 37 2 0.0000 0.0000
2 37 3 0.0000 0.0000
2 37 4 0.0000 0.0000
2 37 5 0.0000 0.0000
2 37 6 0.0000 0.0000
2 37 7 0.0000 0.0000
2 37 8 0.0000 0.0000
2 37 9 0.0000 0.0000
2 38 0 0.0000 0.0000
2 38 1 0.0000 0.0000
2 38 2 0.0000 0.0000
2 38 3 0.0000 0.0000
2 38 4 0.0000 0.0000
2 38 5 0.0000 0.0000
2 38 6 0.0000 0.0000
2 38 7 0.0000 0.0000
2 39 0 0.0000 0.0000
2 39 1 0.0000 0.0000
2 39 2 0.0000 0.0000
2 39 3 0.0000 0.0000
2 39 4 0.0000 0.0000
2 39 5 0.0000 0.0000
2 39 6 0.0000 0.0000
2 40 0 0.0000 0.0000
2 40 1 0.0000 0.0000
2 40 2 0.0000 0.0000
2 40 3 0.0000 0.0000
2 40 4 0.0000 0.0000
2 41 0 0.0000 0.0000
2 41 1 0.0000 0.0000
2 41 2 0.0000 0.0000
2 41 3 0.0000 0.0000
2 42 0 0.0000 0.0000
2 42 1 0.0000 0.0000
2 42 2 0.0000 0.0000
2 43 0 0.0000 0.0000
2 43 1 0.0000 0.0000
2 43 2 0.0000 0.0000
2 44 0 0.0000 0.0000
2 44 1 0.0000 0.0000
3 0 0 0.0000 0.0000
3 0 1 0.0000 0.0000
3 0 3 0.0000 0.0000
3 0 4 0.0000 0.0000
3 0 5 0.0000 0.0000
3 0 6 0.0000 0.0000
3 0 7 0.0000 0.0000
3 0 8 0.0000 0.0000
3 0 9 0.0000 0.0000
3 1 0 0.0000 0.0000
3 1 1 0.0000 0.0000
3 1 2 0.0000 0.0000
3 1 3 0.0000 0.0000
3 1 4 0.0000 0.0000
3 1 5 0.0000 0.0000
3 1 6 0.0000 0.0000
3 1 7 0.0000 0.0000
3 1 8 0.0000 0.0000
3 1 9 0.0000 0.0000
3 2 0 0.0000 0.0000
3 2 1 0.0000 0.0000
3 2 2 0.0000 0.0000
3 2 3 0.0000 0.0000
3 2 4 0.0000 0.0000
3 2 5 0.0000 0.0000
3 2 6 0.0000 0.0000
3 2 7 0.0000 0.0000
3 2 8 0.0000 0.0000
3 2 9 0.0000 0.0000
3 2 10 0.0000 0.0000
3 2 14 0.0000 0.0000
3 3 0 0.0000 0.0000
3 3 1 0.0000 0.0000
3 3 2 0.0000 0.0000
3 3 3 0.0000 0.0000
3 3 4 0.0000 0.0000
3 3 5 0.0000 0.0000
3 3 6 0.0000 0.0000
3 3 7 0.0000 0.0000
3 3 8 0.0000 0.0000
3 3 9 0.0000 0.0000
3 3 10 0.0000 0.0000
3 3 12 0.0000 0.0000
3 3 13 0.0000 0.0000
3 4 0 0.0000 0.0000
3 4 1 0.0000 0.0000
3 4 2 0.0000 0.0000
3 4 3 0.0000 0.0000
3 4 4 0.0000 0.0000
3 4 5 0.0000 0.0000
3 4 6 0.0000 0.0000
3 4 7 0.0000 0.0000
3 4 8 0.0000 0.0000
3 4 9 0.0000 0.0000
3 4 10 0.0000 0.0000
3 4 11 0.0000 0.0000
3 4 12 0.0000 0.0000
3 4 13 0.0000 0.0000
3 5 0 0.0000 0.0000
3 5 1 0.0000 0.0000
3 5 2 0.0000 0.0000
3 5 3 0.0000 0.0000
3 5 4 0.0000 0.0000
3 5 5 0.0000 0.0000
3 5 6 0.0000 0.0000
3 5 7 0.0000 0.0000
3 5 8 0.0000 0.0000
3 5 9 0.0000 0.0000
3 5 10 0.0000 0.0000
3 5 11 0.0000 0.0000
3 5 12 0.0000 0.0000
3 5 13 0.0000 0.0000
3 6 0 0.0000 0.0000
3 6 1 0.0000 0.0000
3 6 2 0.0000 0.0000
3 6 3 0.0000 0.0000
3 6 4 0.0000 0.0000
3 6 5 0.0000 0.0000
3 6 6 0.0000 0.0000
3 6 7 0.0000 0.0000
3 6 8 0.0000 0.0000
3 6 9 0.0000 0.0000
3 6 10 0.0000 0.0000
3 6 11 0.0000 0.0000
3 6 12 0.0000 0.0000
3 6 13 0.0000 0.0000
3 7 0 0.0000 0.0000
3 7 1 0.0000 0.0000
3 7 2 0.0000 0.0000
3 7 3 0.0000 0.0000
3 7 4 0.0000 0.0000
3 7 5 0.0000 0.0000
3 7 6 0.0000 0.0000
3 7 7 0.0000 0.0000
3 7 8 0.0000 0.0000
3 7 9 0.0000 0.0000
3 7 10 0.0000 0.0000
3 7 11 0.0000 0.0000
3 7 12 0.0000 0.0000
3 7 13 0.0000 0.0000
3 8 0 0.0000 0.0000
3 8 1 0.0000 0.0000
3 8 2 0.0000 0.0000
3 8 3 0.0000 0.0000
3 8 4 0.0000 0.0000
3 8 5 0.0000 0.0000
3 8 6 0.0000 0.0000
3 8 7 0.0000 0.0000
3 8 8 0.0000 0.0000
3 8 9 0.0000 0.0000
3 8 10 0.0000 0.0000
3 8 11 0.0000 0.0000
3 8 12 0.0000 0.0000
3 8 13 0.0000 0.0000
3 9 0 0.0000 0.0000
3 9 1 0.0000 0.0000
3 9 2 0.0000 0.0000
3 9 3 0.0000 0.0000
3 9 4 0.0000 0.0000
3 9 5 0.0000 0.0000
3 9 6 0.0000 0.0000
3 9 7 0.0000 0.0000
3 9 8 0.0000 0.0000
3 9 9 0.0000 0.0000
3 9 10 0.0000 0.0000
3 9 11 0.0000 0.0000
3 9 12 0.0000 0.0000
3 10 0 0.0000 0.0000
3 10 1 0.0000 0.0000
3 10 2 0.0000 0.0000
3 10 3 0.0000 0.0000
3 10 4 0.0000 0.0000
3 10 5 0.0000 0.0000
3 10 6 0.0000 0.0000
3 10 7 0.0000 0.0000
3 10 8 0.0000 0.0000
3 10 9 0.0000 0.0000
3 10 10 0.0000 0.0000
3 10 11 0.0000 0.0000
3 10 12 0.0000 0.0000
3 11 0 0.0000 0.0000
3 11 1 0.0000 0.0000
3 11 2 0.0000 0.0000
3 11 3 0.0000 0.0000
3 11 4 0.0000 0.0000
3 11 5 0.0000 0.0000
3 11 6 0.0000 0.0000
3 11 7 0.0000 0.0000
3 11 8 0.0000 0.0000
3 11 9 0.0000 0.0000
3 11 10 0.0000 0.0000
3 11 11 0.0000 0.0000
3 11 12 0.0000 0.0000
3 12 0 0.0000 0.0000
3 12 1 0.0000 0.0000
3 12 2 0.0000 0.0000
3 12 3 0.0000 0.0000
3 12 4 0.0000 0.0000
3 12 5 0.0000 0.0000
3 12 6 0.0000 0.0000
3 12 7 0.0000 0.0000
3 12 8 0.0000 0.0000
3 12 9 0.0000 0.0000
3 12 10 0.0000 0.0000
3 12 11 0.0000 0.0000
3 12 12 0.0000 0.0000
3 13 0 0.0000 0.0000
3 13 1 0.0000 0.0000
3 13 2 0.0000 0.0000
3 13 3 0.0000 0.0000
3 13 4 0.0000 0.0000
3 13 5 0.0000 0.0000
3 13 6 0.0000 0.0000
3 13 7 0.0000 0.0000
3 13 8 0.0000 0.0000
3 13 9 0.0000 0.0000
3 13 10 0.0000 0.0000
3 13 11 0.0000 0.0000
3 13 12 0.0000 0.0000
3 14 0 0.0000 0.0000
3 14 1 0.0000 0.0000
3 14 2 0.0000 0.0000
3 14 3 0.0000 0.0000
3 14 4 0.0000 0.0000
3 14 5 0.0000 0.0000
3 14 6 0.0000 0.0000
3 14 7 0.0000 0.0000
3 14 8 0.0000 0.0000
3 14 9 0.0000 0.0000
3 14 10 0.0000 0.0000
3 15 0 0.0000 0.0000
3 15 1 0.0000 0.0000
3 15 2 0.0000 0.0000
3 15 3 0.0000 0.0000
3 15 4 0.0000 0.0000
3 15 5 0.0000 0.0000
3 15 6 0.0000 0.0000
3 15 7 0.0000 0.0000
3 15 8 0.0000 0.0000
3 15 9 0.0000 0.0000
3 15 10 0.0000 0.0000
3 16 0 0.0000 0.0000
3 16 1 0.0000 0.0000
3 16 2 0.0000 0.0000
3 16 3 0.0000 0.0000
3 16 4 0.0000 0.0000
3 16 5 0.0000 0.0000
3 16 6 0.0000 0.0000
3 16 7 0.0000 0.0000
3 16 8 0.0000 0.0000
3 16 9 0.0000 0.0000
3 16 10 0.0000 0.0000
3 17 0 0.0000 0.0000
3 17 1 0.0000 0.0000
3 17 2 0.0000 0.0000
3 17 3 0.0000 0.0000
3 17 4 0.0000 0.0000
3 17 5 0.0000 0.0000
3 17 6 0.0000 0.0000
3 17 7 0.0000 0.0000
3 17 8 0.0000 0.0000
3 17 9 0.0000 0.0000
3 17 10 0.0000 0.0000
3 18 0 0.0000 0.0000
3 18 1 0.0000 0.0000
3 18 2 0.0000 0.0000
3 18 3 0.0000 0.0000
3 18 4 0.0000 0.0000
3 18 5 0.0000 0.0000
3 18 6 0.0000 0.0000
3 18 7 0.0000 0.0000
3 18 8 0.0000 0.0000
3 18 9 0.0000 0.0000
3 18 10 0.0000 0.0000
3 19 0 0.0000 0.0000
3 19 1 0.0000 0.0000
3 19 2 0.0000 0.0000
3 19 3 0.0000 0.0000
3 19 4 0.0000 0.0000
3 19 5 0.0000 0.0000
3 19 6 0.0000 0.0000
3 19 7 0.0000 0.0000
3 19 8 0.0000 0.0000
3 19 9 0.0000 0.0000
3 19 10 0.0000 0.0000
3 20 0 0.0000 0.0000
3 20 1 0.0000 0.0000
3 20 2 0.0000 0.0000
3 20 3 0.0000 0.0000
3 20 4 0.0000 0.0000
3 20 5 0.0000 0.0000
3 20 6 0.0000 0.0000
3 20 7 0.0000 0.0000
3 20 8 0.0000 0.0000
3 20 9 0.0000 0.0000
3 20 10 0.0000 0.0000
3 21 0 0.0000 0.0000
3 21 1 0.0000 0.0000
3 21 2 0.0000 0.0000
3 21 3 0.0000 0.0000
3 21 4 0.0000 0.0000
3 21 5 0.0000 0.0000
3 21 6 0.0000 0.0000
3 21 7 0.0000 0.0000
3 21 8 0.0000 0.0000
3 21 9 0.0000 0.0000
3 21 10 0.0000 0.0000
3 22 0 0.0000 0.0000
3 22 1 0.0000 0.0000
3 22 2 0.0000 0.0000
3 22 3 0.0000 0.0000
3 22 4 0.0000 0.0000
3 22 5 0.0000 0.0000
3 22 6 0.0000 0.0000
3 22 7 0.0000 0.0000
3 22 8 0.0000 0.0000
3 22 9 0.0000 0.0000
3 22 10 0.0000 0.0000
3 23 0 0.0000 0.0000
3 23 1 0.0000 0.0000
3 23 2 0.0000 0.0000
3 23 3 0.0000 0.0000
3 23 4 0.0000 0.0000
3 23 5 0.0000 0.0000
3 23 6 0.0000 0.0000
3 23 7 0.0000 0.0000
3 23 8 0.0000 0.0000
3 23 9 0.0000 0.0000
3 23 10 0.0000 0.0000
3 24 0 0.0000 0.0000
3 24 1 0.0000 0.0000
3 24 2 0.0000 0.0000
3 24 3 0.0000 0.0000
3 24 4 0.0000 0.0000
3 24 5 0.0000 0.0000
3 24 6 0.0000 0.0000
3 24 7 0.0000 0.0000
3 24 8 0.0000 0.0000
3 24 9 0.0000 0.0000
3 24 10 0.0000 0.0000
3 25 0 0.0000 0.0000
3 25 1 0.0000 0.0000
3 25 2 0.0000 0.0000
3 25 3 0.0000 0.0000
3 25 4 0.0000 0.0000
3 25 5 0.0000 0.0000
3 25 6 0.0000 0.0000
3 25 7 0.0000 0.0000
3 25 8 0.0000 0.0000
3 25 9 0.0000 0.0000
3 25 10 0.0000 0.0000
3 26 0 0.0000 0.0000
3 26 1 0.0000 0.0000
3 26 2 0.0000 0.0000
3 26 3 0.0000 0.0000
3 26 4 0.0000 0.0000
3 26 5 0.0000 0.0000
3 26 6 0.0000 0.0000
3 26 7 0.0000 0.0000
3 26 8 0.0000 0.0000
3 26 9 0.0000 0.0000
3 26 10 0.0000 0.0000
3 27 0 0.0000 0.0000
3 27 1 0.0000 0.0000
3 27 2 0.0000 0.0000
3 27 3 0.0000 0.0000
3 27 4 0.0000 0.0000
3 27 5 0.0000 0.0000
3 27 6 0.0000 0.0000
3 27 7 0.0000 0.0000
3 27 8 0.0000 0.0000
3 27 9 0.0000 0.0000
3 27 10 0.0000 0.0000
3 28 0 0.0000 0.0000
3 28 1 0.0000 0.0000
3 28 2 0.0000 0.0000
3 28 3 0.0000 0.0000
3 28 4 0.0000 0.0000
3 28 5 0.0000 0.0000
3 28 6 0.0000 0.0000
3 28 7 0.0000 0.0000
3 28 8 0.0000 0.0000
3 28 9 0.0000 0.0000
3 28 10 0.0000 0.0000
3 29 0 0.0000 0.0000
3 29 1 0.0000 0.0000
3 29 2 0.0000 0.0000
3 29 3 0.0000 0.0000
3 29 4 0.0000 0.0000
3 29 5 0.0000 0.0000
3 29 6 0.0000 0.0000
3 29 7 0.0000 0.0000
3 29 8 0.0000 0.0000
3 29 9 0.0000 0.0000
3 29 10 0.0000 0.0000
3 30 0 0.0000 0.0000
3 30 1 0.0000 0.0000
3 30 2 0.0000 0.0000
3 30 3 0.0000 0.0000
3 30 4 0.0000 0.0000
3 30 5 0.0000 0.0000
3 30 6 0.0000 0.0000
3 30 7 0.0000 0.0000
3 30 8 0.0000 0.0000
3 30 9 0.0000 0.0000
3 30 10 0.0000 0.0000
3 31 0 0.0000 0.0000
3 31 1 0.0000 0.0000
3 31 2 0.0000 0.0000
3 31 3 0.0000 0.0000
3 31 4 0.0000 0.0000
3 31 5 0.0000 0.0000
3 31 6 0.0000 0.0000
3 31 7 0.0000 0.0000
3 31 8 0.0000 0.0000
3 31 9 0.0000 0.0000
3 32 0 0.0000 0.0000
3 32 1 0.0000 0.0000
3 32 2 0.0000 0.0000
3 32 3 0.0000 0.0000
3 32 4 0.0000 0.0000
3 32 5 0.0000 0.0000
3 32 6 0.0000 0.0000
3 32 7 0.0000 0.0000
3 32 8 0.0000 0.0000
3 32 9 0.0000 0.0000
3 33 0 0.0000 0.0000
3 33 1 0.0000 0.0000
3 33 2 0.0000 0.0000
3 33 3 0.0000 0.0000
3 33 4 0.0000 0.0000
3 33 5 0.0000 0.0000
3 33 6 0.0000 0.0000
3 33 7 0.0000 0.0000
3 33 8 0.0000 0.0000
3 33 9 0.0000 0.0000
3 34 0 0.0000 0.0000
3 34 1 0.0000 0.0000
3 34 2 0.0000 0.0000
3 34 3 0.0000 0.0000
3 34 4 0.0000 0.0000
3 34 5 0.0000 0.0000
3 34 6 0.0000 0.0000
3 34 7 0.0000 0.0000
3 34 8 0.0000 0.0000
3 34 9 0.0000 0.0000
3 35 0 0.0000 0.0000
3 35 1 0.0000 0.0000
3 35 2 0.0000 0.0000
3 35 3 0.0000 0.0000
3 35 4 0.0000 0.0000
3 35 5 0.0000 0.0000
3 35 6 0.0000 0.0000
3 35 7 0.0000 0.0000
3 35 8 0.0000 0.0000
3 35 9 0.0000 0.0000
3 36 0 0.0000 0.0000
3 36 1 0.0000 0.0000
3 36 2 0.0000 0.0000
3 36 3 0.0000 0.0000
3 36 4 0.0000 0.0000
3 36 5 0.0000 0.0000
3 36 6 0.0000 0.0000
3 36 7 0.0000 0.0000
3 36 8 0.0000 0.0000
3 36 9 0.0000 0.0000
3 37 0 0.0000 0.0000
3 37 1 0.0000 0.0000
3 37 2 0.0000 0.0000
3 37 3 0.0000 0.0000
3 37 4 0.0000 0.0000
3 37 5 0.0000 0.0000
3 37 6 0.0000 0.0000
3 37 7 0.0000 0.0000
3 37 8 0.0000 0.0000
3 38 0 0.0000 0.0000
3 38 1 0.0000 0.0000
3 38 2 0.0000 0.0000
3 38 3 0.0000 0.0000
3 38 4 0.0000 0.0000
3 38 5 0.0000 0.0000
3 38 6 0.0000 0.0000
3 38 7 0.0000 0.0000
3 39 0 0.0000 0.0000
3 39 1 0.0000 0.0000
3 39 2 0.0000 0.0000
3 39 3 0.0000 0.0000
3 39 4 0.0000 0.0000
3 39 5 0.0000 0.0000
3 39 6 0.0000 0.0000
3 40 0 0.0000 0.0000
3 40 1 0.0000 0.0000
3 40 2 0.0000 0.0000
3 40 3 0.0000 0.0000
3 41 0 0.0000 0.0000
3 41 1 0.0000 0.0000
3 41 2 0.0000 0.0000
3 42 0 0.0000 0.0000
3 42 1 0.0000 0.0000
3 43 0 0.0000 0.0000
4 0 0 0.0000 0.0000
4 0 1 0.0000 0.0000
4 0 2 0.0000 0.0000
4 0 3 0.0000 0.0000
4 0 4 0.0000 0.0000
4 0 5 0.0000 0.0000
4 0 6 0.0000 0.0000
4 0 7 0.0000 0.0000
4 0 8 0.0000 0.0000
4 1 0 0.0000 0.0000
4 1 1 0.0000 0.0000
4 1 2 0.0000 0.0000
4 1 3 0.0000 0.0000
4 1 4 0.0000 0.0000
4 1 5 0.0000 0.0000
4 1 6 0.0000 0.0000
4 1 7 0.0000 0.0000
4 1 8 0.0000 0.0000
4 1 14 0.0000 0.0000
4 2 0 0.0000 0.0000
4 2 1 0.0000 0.0000
4 2 2 0.0000 0.0000
4 2 3 0.0000 0.0000
4 2 4 0.0000 0.0000
4 2 5 0.0000 0.0000
4 2 6 0.0000 0.0000
4 2 7 0.0000 0.0000
4 2 8 0.0000 0.0000
4 2 12 0.0000 0.0000
4 2 13 0.0000 0.0000
4 2 14 0.0000 0.0000
4 3 0 0.0000 0.0000
4 3 1 0.0000 0.0000
4 3 2 0.0000 0.0000
4 3 3 0.0000 0.0000
4 3 4 0.0000 0.0000
4 3 5 0.0000 0.0000
4 3 6 0.0000 0.0000
4 3 7 0.0000 0.0000
4 3 8 0.0000 0.0000
4 3 9 0.0000 0.0000
4 3 10 0.0000 0.0000
4 3 11 0.0000 0.0000
4 3 12 0.0000 0.0000
4 3 13 0.0000 0.0000
4 3 14 0.0000 0.0000
4 4 0 0.0000 0.0000
4 4 1 0.0000 0.0000
4 4 2 0.0000 0.0000
4 4 3 0.0000 0.0000
4 4 4 0.0000 0.0000
4 4 5 0.0000 0.0000
4 4 6 0.0000 0.0000
4 4 7 0.0000 0.0000
4 4 8 0.0000 0.0000
4 4 9 0.0000 0.0000
4 4 10 0.0000 0.0000
4 4 11 0.0000 0.0000
4 4 12 0.0000 0.0000
4 4 13 0.0000 0.0000
4 4 14 0.0000 0.0000
4 5 0 0.0000 0.0000
4 5 1 0.0000 0.0000
4 5 2 0.0000 0.0000
4 5 3 0.0000 0.0000
4 5 4 0.0000 0.0000
4 5 5 0.0000 0.0000
4 5 6 0.0000 0.0000
4 5 7 0.0000 0.0000
4 5 8 0.0000 0.0000
4 5 9 0.0000 0.0000
4 5 10 0.0000 0.0000
4 5 11 0.0000 0.0000
4 5 12 0.0000 0.0000
4 5 13 0.0000 0.0000
4 5 14 0.0000 0.0000
4 6 0 0.0000 0.0000
4 6 1 0.0000 0.0000
4 6 2 0.0000 0.0000
4 6 3 0.0000 0.0000
4 6 4 0.0000 0.0000
4 6 5 0.0000 0.0000
4 6 6 0.0000 0.0000
4 6 7 0.0000 0.0000
4 6 8 0.0000 0.0000
4 6 9 0.0000 0.0000
4 6 10 0.0000 0.0000
4 6 11 0.0000 0.0000
4 6 12 0.0000 0.0000
4 6 13 0.0000 0.0000
4 7 0 0.0000 0.0000
4 7 1 0.0000 0.0000
4 7 2 0.0000 0.0000
4 7 3 0.0000 0.0000
4 7 4 0.0000 0.0000
4 7 5 0.0000 0.0000
4 7 6 0.0000 0.0000
4 7 7 0.0000 0.0000
4 7 8 0.0000 0.0000
4 7 9 0.0000 0.0000
4 7 10 0.0000 0.0000
4 7 11 0.0000 0.0000
4 7 12 0.0000 0.0000
4 7 13 0.0000 0.0000
4 8 0 0.0000 0.0000
4 8 1 0.0000 0.0000
4 8 2 0.0000 0.0000
4 8 3 0.0000 0.0000
4 8 4 0.0000 0.0000
4 8 5 0.0000 0.0000
4 8 6 0.0000 0.0000
4 8 7 0.0000 0.0000
4 8 8 0.0000 0.0000
4 8 9 0.0000 0.0000
4 8 10 0.0000 0.0000
4 8 11 0.0000 0.0000
4 8 12 0.0000 0.0000
4 8 13 0.0000 0.0000
4 9 0 0.0000 0.0000
4 9 1 0.0000 0.0000
4 9 2 0.0000 0.0000
4 9 3 0.0000 0.0000
4 9 4 0.0000 0.0000
4 9 5 0.0000 0.0000
4 9 6 0.0000 0.0000
4 9 7 0.0000 0.0000
4 9 8 0.0000 0.0000
4 9 9 0.0000 0.0000
4 9 10 0.0000 0.0000
4 9 11 0.0000 0.0000
4 9 12 0.0000 0.0000
4 9 13 0.0000 0.0000
4 10 0 0.0000 0.0000
4 10 1 0.0000 0.0000
4 10 2 0.0000 0.0000
4 10 3 0.0000 0.0000
4 10 4 0.0000 0.0000
4 10 5 0.0000 0.0000
4 10 6 0.0000 0.0000
4 10 7 0.0000 0.0000
4 10 8 0.0000 0.0000
4 10 9 0.0000 0.0000
4 10 10 0.0000 0.0000
4 10 11 0.0000 0.0000
4 10 12 0.0000 0.0000
4 10 13 0.0000 0.0000
4 11 0 0.0000 0.0000
4 11 1 0.0000 0.0000
4 11 2 0.0000 0.0000
4 11 3 0.0000 0.0000
4 11 4 0.0000 0.0000
4 11 5 0.0000 0.0000
4 11 6 0.0000 0.0000
4 11 7 0.0000 0.0000
4 11 8 0.0000 0.0000
4 11 9 0.0000 0.0000
4 11 10 0.0000 0.0000
4 11 11 0.0000 0.0000
4 11 12 0.0000 0.0000
4 12 0 0.0000 0.0000
4 12 1 0.0000 0.0000
4 12 2 0.0000 0.0000
4 12 3 0.0000 0.0000
4 12 4 0.0000 0.0000
4 12 5 0.0000 0.0000
4 12 6 0.0000 0.0000
4 12 7 0.0000 0.0000
4 12 8 0.0000 0.0000
4 12 9 0.0000 0.0000
4 12 10 0.0000 0.0000
4 12 11 0.0000 0.0000
4 12 12 0.0000 0.0000
4 13 0 0.0000 0.0000
4 13 1 0.0000 0.0000
4 13 2 0.0000 0.0000
4 13 3 0.0000 0.0000
4 13 4 0.0000 0.0000
4 13 5 0.0000 0.0000
4 13 6 0.0000 0.0000
4 13 7 0.0000 0.0000
4 13 8 0.0000 0.0000
4 13 9 0.0000 0.0000
4 13 10 0.0000 0.0000
4 13 11 0.0000 0.0000
4 13 12 0.0000 0.0000
4 14 0 0.0000 0.0000
4 14 1 0.0000 0.0000
4 14 2 0.0000 0.0000
4 14 3 0.0000 0.0000
4 14 4 0.0000 0.0000
4 14 5 0.0000 0.0000
4 14 6 0.0000 0.0000
4 14 7 0.0000 0.0000
4 14 8 0.0000 0.0000
4 14 9 0.0000 0.0000
4 14 10 0.0000 0.0000
4 15 0 0.0000 0.0000
4 15 1 0.0000 0.0000
4 15 2 0.0000 0.0000
4 15 3 0.0000 0.0000
4 15 4 0.0000 0.0000
4 15 5 0.0000 0.0000
4 15 6 0.0000 0.0000
4 15 7 0.0000 0.0000
4 15 8 0.0000 0.0000
4 15 9 0.0000 0.0000
4 15 10 0.0000 0.0000
4 16 0 0.0000 0.0000
4 16 1 0.0000 0.0000
4 16 2 0.0000 0.0000
4 16 3 0.0000 0.0000
4 16 4 0.0000 0.0000
4 16 5 0.0000 0.0000
4 16 6 0.0000 0.0000
4 16 7 0.0000 0.0000
4 16 8 0.0000 0.0000
4 16 9 0.0000 0.0000
4 16 10 0.0000 0.0000
4 17 0 0.0000 0.0000
4 17 1 0.0000 0.0000
4 17 2 0.0000 0.0000
4 17 3 0.0000 0.0000
4 17 4 0.0000 0.0000
4 17 5 0.0000 0.0000
4 17 6 0.0000 0.0000
4 17 7 0.0000 0.0000
4 17 8 0.0000 0.0000
4 17 9 0.0000 0.0000
4 17 10 0.0000 0.0000
4 18 0 0.0000 0.0000
4 18 1 0.0000 0.0000
4 18 2 0.0000 0.0000
4 18 3 0.0000 0.0000
4 18 4 0.0000 0.0000
4 18 5 0.0000 0.0000
4 18 6 0.0000 0.0000
4 18 7 0.0000 0.0000
4 18 8 0.0000 0.0000
4 18 9 0.0000 0.0000
4 18 10 0.0000 0.0000
4 19 0 0.0000 0.0000
4 19 1 0.0000 0.0000
4 19 2 0.0000 0.0000
4 19 3 0.0000 0.0000
4 19 4 0.0000 0.0000
4 19 5 0.0000 0.0000
4 19 6 0.0000 0.0000
4 19 7 0.0000 0.0000
4 19 8 0.0000 0.0000
4 19 9 0.0000 0.0000
4 19 10 0.0000 0.0000
4 19 11 0.0000 0.0000
4 20 0 0.0000 0.0000
4 20 1 0.0000 0.0000
4 20 2 0.0000 0.0000
4 20 3 0.0000 0.0000
4 20 4 0.0000 0.0000
4 20 5 0.0000 0.0000
4 20 6 0.0000 0.0000
4 20 7 0.0000 0.0000
4 20 8 0.0000 0.0000
4 20 9 0.0000 0.0000
4 20 10 0.0000 0.0000
4 20 11 0.0000 0.0000
4 21 0 0.0000 0.0000
4 21 1 0.0000 0.0000
4 21 2 0.0000 0.0000
4 21 3 0.0000 0.0000
4 21 4 0.0000 0.0000
4 21 5 0.0000 0.0000
4 21 6 0.0000 0.0000
4 21 7 0.0000 0.0000
4 21 8 0.0000 0.0000
4 21 9 0.0000 0.0000
4 21 10 0.0000 0.0000
4 21 11 0.0000 0.0000
4 22 0 0.0000 0.0000
4 22 1 0.0000 0.0000
4 22 2 0.0000 0.0000
4 22 3 0.0000 0.0000
4 22 4 0.0000 0.0000
4 22 5 0.0000 0.0000
4 22 6 0.0000 0.0000
4 22 7 0.0000 0.0000
4 22 8 0.0000 0.0000
4 22 9 0.0000 0.0000
4 22 10 0.0000 0.0000
4 22 11 0.0000 0.0000
4 23 0 0.0000 0.0000
4 23 1 0.0000 0.0000
4 23 2 0.0000 0.0000
4 23 3 0.0000 0.0000
4 23 4 0.0000 0.0000
4 23 5 0.0000 0.0000
4 23 6 0.0000 0.0000
4 23 7 0.0000 0.0000
4 23 8 0.0000 0.0000
4 23 9 0.0000 0.0000
4 23 10 0.0000 0.0000
4 23 11 0.0000 0.0000
4 24 0 0.0000 0.0000
4 24 1 0.0000 0.0000
4 24 2 0.0000 0.0000
4 24 3 0.0000 0.0000
4 24 4 0.0000 0.0000
4 24 5 0.0000 0.0000
4 24 6 0.0000 0.0000
4 24 7 0.0000 0.0000
4 24 8 0.0000 0.0000
4 24 9 0.0000 0.0000
4 24 10 0.0000 0.0000
4 24 11 0.0000 0.0000
4 25 0 0.0000 0.0000
4 25 1 0.0000 0.0000
4 25 2 0.0000 0.0000
4 25 3 0.0000 0.0000
4 25 4 0.0000 0.0000
4 25 5 0.0000 0.0000
4 25 6 0.0000 0.0000
4 25 7 0.0000 0.0000
4 25 8 0.0000 0.0000
4 25 9 0.0000 0.0000
4 25 10 0.0000 0.0000
4 25 11 0.0000 0.0000
4 26 0 0.0000 0.0000
4 26 1 0.0000 0.0000
4 26 2 0.0000 0.0000
4 26 3 0.0000 0.0000
4 26 4 0.0000 0.0000
4 26 5 0.0000 0.0000
4 26 6 0.0000 0.0000
4 26 7 0.0000 0.0000
4 26 8 0.0000 0.0000
4 26 9 0.0000 0.0000
4 26 10 0.0000 0.0000
4 26 11 0.0000 0.0000
4 27 0 0.0000 0.0000
4 27 1 0.0000 0.0000
4 27 2 0.0000 0.0000
4 27 3 0.0000 0.0000
4 27 4 0.0000 0.0000
4 27 5 0.0000 0.0000
4 27 6 0.0000 0.0000
4 27 7 0.0000 0.0000
4 27 8 0.0000 0.0000
4 27 9 0.0000 0.0000
4 27 10 0.0000 0.0000
4 27 11 0.0000 0.0000
4 28 0 0.0000 0.0000
4 28 1 0.0000 0.0000
4 28 2 0.0000 0.0000
4 28 3 0.0000 0.0000
4 28 4 0.0000 0.0000
4 28 5 0.0000 0.0000
4 28 6 0.0000 0.0000
4 28 7 0.0000 0.0000
4 28 8 0.0000 0.0000
4 28 9 0.0000 0.0000
4 28 10 0.0000 0.0000
4 29 0 0.0000 0.0000
4 29 1 0.0000 0.0000
4 29 2 0.0000 0.0000
4 29 3 0.0000 0.0000
4 29 4 0.0000 0.0000
4 29 5 0.0000 0.0000
4 29 6 0.0000 0.0000
4 29 7 0.0000 0.0000
4 29 8 0.0000 0.0000
4 29 9 0.0000 0.0000
4 29 10 0.0000 0.0000
4 30 0 0.0000 0.0000
4 30 1 0.0000 0.0000
4 30 2 0.0000 0.0000
4 30 3 0.0000 0.0000
4 30 4 0.0000 0.0000
4 30 5 0.0000 0.0000
4 30 6 0.0000 0.0000
4 30 7 0.0000 0.0000
4 30 8 0.0000 0.0000
4 30 9 0.0000 0.0000
4 31 0 0.0000 0.0000
4 31 1 0.0000 0.0000
4 31 2 0.0000 0.0000
4 31 3 0.0000 0.0000
4 31 4 0.0000 0.0000
4 31 5 0.0000 0.0000
4 31 6 0.0000 0.0000
4 31 7 0.0000 0.0000
4 31 8 0.0000 0.0000
4 31 9 0.0000 0.0000
4 32 0 0.0000 0.0000
4 32 1 0.0000 0.0000
4 32 2 0.0000 0.0000
4 32 3 0.0000 0.0000
4 32 4 0.0000 0.0000
4 32 5 0.0000 0.0000
4 32 6 0.0000 0.0000
4 32 7 0.0000 0.0000
4 32 8 0.0000 0.0000
4 33 0 0.0000 0.0000
4 33 1 0.0000 0.0000
4 33 2 0.0000 0.0000
4 33 3 0.0000 0.0000
4 33 4 0.0000 0.0000
4 33 5 0.0000 0.0000
4 33 6 0.0000 0.0000
4 33 7 0.0000 0.0000
4 33 8 0.0000 0.0000
4 34 0 0.0000 0.0000
4 34 1 0.0000 0.0000
4 34 2 0.0000 0.0000
4 34 3 0.0000 0.0000
4 34 4 0.0000 0.0000
4 34 5 0.0000 0.0000
4 34 6 0.0000 0.0000
4 34 7 0.0000 0.0000
4 34 8 0.0000 0.0000
4 35 0 0.0000 0.0000
4 35 1 0.0000 0.0000
4 35 2 0.0000 0.0000
4 35 3 0.0000 0.0000
4 35 4 0.0000 0.0000
4 35 5 0.0000 0.0000
4 35 6 0.0000 0.0000
4 35 7 0.0000 0.0000
4 35 8 0.0000 0.0000
4 36 0 0.0000 0.0000
4 36 1 0.0000 0.0000
4 36 2 0.0000 0.0000
4 36 3 0.0000 0.0000
4 36 4 0.0000 0.0000
4 36 5 0.0000 0.0000
4 36 6 0.0000 0.0000
4 36 7 0.0000 0.0000
4 36 8 0.0000 0.0000
4 37 0 0.0000 0.0000
4 37 1 0.0000 0.0000
4 37 2 0.0000 0.0000
4 37 3 0.0000 0.0000
4 37 4 0.0000 0.0000
4 37 5 0.0000 0.0000
4 37 6 0.0000 0.0000
4 37 7 0.0000 0.0000
4 37 8 0.0000 0.0000
4 38 0 0.0000 0.0000
4 38 1 0.0000 0.0000
4 38 2 0.0000 0.0000
4 38 3 0.0000 0.0000
4 38 4 0.0000 0.0000
4 38 6 0.0000 0.0000
4 38 7 0.0000 0.0000
4 39 0 0.0000 0.0000
4 39 1 0.0000 0.0000
4 39 2 0.0000 0.0000
4 39 3 0.0000 0.0000
4 39 6 0.0000 0.0000
4 40 0 0.0000 0.0000
4 40 1 0.0000 0.0000
4 40 2 0.0000 0.0000
4 40 3 0.0000 0.0000
4 41 0 0.0000 0.0000
4 41 1 0.0000 0.0000
4 42 0 0.0000 0.0000
5 0 0 0.0000 0.0000
5 0 1 0.0000 0.0000
5 0 2 0.0000 0.0000
5 0 3 0.0000 0.0000
5 0 4 0.0000 0.0000
5 0 5 0.0000 0.0000
5 0 6 0.0000 0.0000
5 0 7 0.0000 0.0000
5 0 8 0.0000 0.0000
5 0 13 0.0000 0.0000
5 0 14 0.0000 0.0000
5 0 15 0.0000 0.0000
5 1 0 0.0000 0.0000
5 1 1 0.0000 0.0000
5 1 2 0.0000 0.0000
5 1 3 0.0000 0.0000
5 1 4 0.0000 0.0000
5 1 5 0.0000 0.0000
5 1 6 0.0000 0.0000
5 1 7 0.0000 0.0000
5 1 8 0.0000 0.0000
5 1 12 0.0000 0.0000
5 1 13 0.0000 0.0000
5 1 14 0.0000 0.0000
5 1 15 0.0000 0.0000
5 2 0 0.0000 0.0000
5 2 1 0.0000 0.0000
5 2 2 0.0000 0.0000
5 2 3 0.0000 0.0000
5 2 4 0.0000 0.0000
5 2 5 0.0000 0.0000
5 2 6 0.0000 0.0000
5 2 7 0.0000 0.0000
5 2 8 0.0000 0.0000
5 2 9 0.0000 0.0000
5 2 10 0.0000 0.0000
5 2 11 0.0000 0.0000
5 2 12 0.0000 0.0000
5 2 13 0.0000 0.0000
5 2 14 0.0000 0.0000
5 2 15 0.0000 0.0000
5 3 0 0.0000 0.0000
5 3 1 0.0000 0.0000
5 3 2 0.0000 0.0000
5 3 3 0.0000 0.0000
5 3 4 0.0000 0.0000
5 3 5 0.0000 0.0000
5 3 6 0.0000 0.0000
5 3 7 0.0000 0.0000
5 3 8 0.0000 0.0000
5 3 9 0.0000 0.0000
5 3 10 0.0000 0.0000
5 3 11 0.0000 0.0000
5 3 12 0.0000 0.0000
5 3 13 0.0000 0.0000
5 3 14 0.0000 0.0000
5 4 0 0.0000 0.0000
5 4 1 0.0000 0.0000
5 4 2 0.0000 0.0000
5 4 3 0.0000 0.0000
5 4 4 0.0000 0.0000
5 4 5 0.0000 0.0000
5 4 6 0.0000 0.0000
5 4 7 0.0000 0.0000
5 4 8 0.0000 0.0000
5 4 9 0.0000 0.0000
5 4 10 0.0000 0.0000
5 4 11 0.0000 0.0000
5 4 12 0.0000 0.0000
5 4 13 0.0000 0.0000
5 4 14 0.0000 0.0000
5 5 0 0.0000 0.0000
5 5 1 0.0000 0.0000
5 5 2 0.0000 0.0000
5 5 3 0.0000 0.0000
5 5 4 0.0000 0.0000
5 5 5 0.0000 0.0000
5 5 6 0.0000 0.0000
5 5 7 0.0000 0.0000
5 5 8 0.0000 0.0000
5 5 9 0.0000 0.0000
5 5 10 0.0000 0.0000
5 5 11 0.0000 0.0000
5 5 12 0.0000 0.0000
5 5 13 0.0000 0.0000
5 5 14 0.0000 0.0000
5 6 0 0.0000 0.0000
5 6 1 0.0000 0.0000
5 6 2 0.0000 0.0000
5 6 3 0.0000 0.0000
5 6 4 0.0000 0.0000
5 6 5 0.0000 0.0000
5 6 6 0.0000 0.0000
5 6 7 0.0000 0.0000
5 6 8 0.0000 0.0000
5 6 9 0.0000 0.0000
5 6 10 0.0000 0.0000
5 6 11 0.0000 0.0000
5 6 12 0.0000 0.0000
5 6 13 0.0000 0.0000
5 6 14 0.0000 0.0000
5 7 0 0.0000 0.0000
5 7 1 0.0000 0.0000
5 7 2 0.0000 0.0000
5 7 3 0.0000 0.0000
5 7 4 0.0000 0.0000
5 7 5 0.0000 0.0000
5 7 6 0.0000 0.0000
5 7 7 0.0000 0.0000
5 7 8 0.0000 0.0000
5 7 9 0.0000 0.0000
5 7 10 0.0000 0.0000
5 7 11 0.0000 0.0000
5 7 12 0.0000 0.0000
5 7 13 0.0000 0.0000
5 7 14 0.0000 0.0000
5 8 0 0.0000 0.0000
5 8 1 0.0000 0.0000
5 8 2 0.0000 0.0000
5 8 3 0.0000 0.0000
5 8 4 0.0000 0.0000
5 8 5 0.0000 0.0000
5 8 6 0.0000 0.0000
5 8 7 0.0000 0.0000
5 8 8 0.0000 0.0000
5 8 9 0.0000 0.0000
5 8 10 0.0000 0.0000
5 8 11 0.0000 0.0000
5 8 12 0.0000 0.0000
5 8 13 0.0000 0.0000
5 9 0 0.0000 0.0000
5 9 1 0.0000 0.0000
5 9 2 0.0000 0.0000
5 9 3 0.0000 0.0000
5 9 4 0.0000 0.0000
5 9 5 0.0000 0.0000
5 9 6 0.0000 0.0000
5 9 7 0.0000 0.0000
5 9 8 0.0000 0.0000
5 9 9 0.0000 0.0000
5 9 10 0.0000 0.0000
5 9 11 0.0000 0.0000
5 9 12 0.0000 0.0000
5 9 13 0.0000 0.0000
5 10 0 0.0000 0.0000
5 10 1 0.0000 0.0000
5 10 2 0.0000 0.0000
5 10 3 0.0000 0.0000
5 10 4 0.0000 0.0000
5 10 5 0.0000 0.0000
5 10 6 0.0000 0.0000
5 10 7 0.0000 0.0000
5 10 8 0.0000 0.0000
5 10 9 0.0000 0.0000
5 10 10 0.0000 0.0000
5 10 11 0.0000 0.0000
5 10 12 0.0000 0.0000
5 10 13 0.0000 0.0000
5 11 0 0.0000 0.0000
5 11 1 0.0000 0.0000
5 11 2 0.0000 0.0000
5 11 3 0.0000 0.0000
5 11 4 0.0000 0.0000
5 11 5 0.0000 0.0000
5 11 6 0.0000 0.0000
5 11 7 0.0000 0.0000
5 11 8 0.0000 0.0000
5 11 9 0.0000 0.0000
5 11 10 0.0000 0.0000
5 11 11 0.0000 0.0000
5 11 12 0.0000 0.0000
5 11 13 0.0000 0.0000
5 12 0 0.0000 0.0000
5 12 1 0.0000 0.0000
5 12 2 0.0000 0.0000
5 12 3 0.0000 0.0000
5 12 4 0.0000 0.0000
5 12 5 0.0000 0.0000
5 12 6 0.0000 0.0000
5 12 7 0.0000 0.0000
5 12 8 0.0000 0.0000
5 12 9 0.0000 0.0000
5 12 10 0.0000 0.0000
5 12 11 0.0000 0.0000
5 12 12 0.0000 0.0000
5 12 13 0.0000 0.0000
5 13 0 0.0000 0.0000
5 13 1 0.0000 0.0000
5 13 2 0.0000 0.0000
5 13 3 0.0000 0.0000
5 13 4 0.0000 0.0000
5 13 5 0.0000 0.0000
5 13 6 0.0000 0.0000
5 13 7 0.0000 0.0000
5 13 8 0.0000 0.0000
5 13 9 0.0000 0.0000
5 13 10 0.0000 0.0000
5 13 11 0.0000 0.0000
5 13 12 0.0000 0.0000
5 14 0 0.0000 0.0000
5 14 1 0.0000 0.0000
5 14 2 0.0000 0.0000
5 14 3 0.0000 0.0000
5 14 4 0.0000 0.0000
5 14 5 0.0000 0.0000
5 14 6 0.0000 0.0000
5 14 7 0.0000 0.0000
5 14 8 0.0000 0.0000
5 14 9 0.0000 0.0000
5 14 10 0.0000 0.0000
5 14 11 0.0000 0.0000
5 15 0 0.0000 0.0000
5 15 1 0.0000 0.0000
5 15 2 0.0000 0.0000
5 15 3 0.0000 0.0000
5 15 4 0.0000 0.0000
5 15 5 0.0000 0.0000
5 15 6 0.0000 0.0000
5 15 7 0.0000 0.0000
5 15 8 0.0000 0.0000
5 15 9 0.0000 0.0000
5 15 10 0.0000 0.0000
5 15 11 0.0000 0.0000
5 16 0 0.0000 0.0000
5 16 1 0.0000 0.0000
5 16 2 0.0000 0.0000
5 16 3 0.0000 0.0000
5 16 4 0.0000 0.0000
5 16 5 0.0000 0.0000
5 16 6 0.0000 0.0000
5 16 7 0.0000 0.0000
5 16 8 0.0000 0.0000
5 16 9 0.0000 0.0000
5 16 10 0.0000 0.0000
5 16 11 0.0000 0.0000
5 17 0 0.0000 0.0000
5 17 1 0.0000 0.0000
5 17 2 0.0000 0.0000
5 17 3 0.0000 0.0000
5 17 4 0.0000 0.0000
5 17 5 0.0000 0.0000
5 17 6 0.0000 0.0000
5 17 7 0.0000 0.0000
5 17 8 0.0000 0.0000
5 17 9 0.0000 0.0000
5 17 10 0.0000 0.0000
5 17 11 0.0000 0.0000
5 18 0 0.0000 0.0000
5 18 1 0.0000 0.0000
5 18 2 0.0000 0.0000
5 18 3 0.0000 0.0000
5 18 4 0.0000 0.0000
5 18 5 0.0000 0.0000
5 18 6 0.0000 0.0000
5 18 7 0.0000 0.0000
5 18 8 0.0000 0.0000
5 18 9 0.0000 0.0000
5 18 10 0.0000 0.0000
5 18 11 0.0000 0.0000
5 19 0 0.0000 0.0000
5 19 1 0.0000 0.0000
5 19 2 0.0000 0.0000
5 19 3 0.0000 0.0000
5 19 4 0.0000 0.0000
5 19 5 0.0000 0.0000
5 19 6 0.0000 0.0000
5 19 7 0.0000 0.0000
5 19 8 0.0000 0.0000
5 19 9 0.0000 0.0000
5 19 10 0.0000 0.0000
5 19 11 0.0000 0.0000
5 20 0 0.0000 0.0000
5 20 1 0.0000 0.0000
5 20 2 0.0000 0.0000
5 20 3 0.0000 0.0000
5 20 4 0.0000 0.0000
5 20 5 0.0000 0.0000
5 20 6 0.0000 0.0000
5 20 7 0.0000 0.0000
5 20 8 0.0000 0.0000
5 20 9 0.0000 0.0000
5 20 10 0.0000 0.0000
5 20 11 0.0000 0.0000
5 21 0 0.0000 0.0000
5 21 1 0.0000 0.0000
5 21 2 0.0000 0.0000
5 21 3 0.0000 0.0000
5 21 4 0.0000 0.0000
5 21 5 0.0000 0.0000
5 21 6 0.0000 0.0000
5 21 7 0.0000 0.0000
5 21 8 0.0000 0.0000
5 21 9 0.0000 0.0000
5 21 10 0.0000 0.0000
5 21 11 0.0000 0.0000
5 22 0 0.0000 0.0000
5 22 1 0.0000 0.0000
5 22 2 0.0000 0.0000
5 22 3 0.0000 0.0000
5 22 4 0.0000 0.0000
5 22 5 0.0000 0.0000
5 22 6 0.0000 0.0000
5 22 7 0.0000 0.0000
5 22 8 0.0000 0.0000
5 22 9 0.0000 0.0000
5 22 10 0.0000 0.0000
5 22 11 0.0000 0.0000
5 23 0 0.0000 0.0000
5 23 1 0.0000 0.0000
5 23 2 0.0000 0.0000
5 23 3 0.0000 0.0000
5 23 4 0.0000 0.0000
5 23 5 0.0000 0.0000
5 23 6 0.0000 0.0000
5 23 7 0.0000 0.0000
5 23 8 0.0000 0.0000
5 23 9 0.0000 0.0000
5 23 10 0.0000 0.0000
5 23 11 0.0000 0.0000
5 24 0 0.0000 0.0000
5 24 1 0.0000 0.0000
5 24 2 0.0000 0.0000
5 24 3 0.0000 0.0000
5 24 4 0.0000 0.0000
5 24 5 0.0000 0.0000
5 24 6 0.0000 0.0000
5 24 7 0.0000 0.0000
5 24 8 0.0000 0.0000
5 24 9 0.0000 0.0000
5 24 10 0.0000 0.0000
5 24 11 0.0000 0.0000
5 25 0 0.0000 0.0000
5 25 1 0.0000 0.0000
5 25 2 0.0000 0.0000
5 25 3 0.0000 0.0000
5 25 4 0.0000 0.0000
5 25 5 0.0000 0.0000
5 25 6 0.0000 0.0000
5 25 7 0.0000 0.0000
5 25 8 0.0000 0.0000
5 25 9 0.0000 0.0000
5 25 10 0.0000 0.0000
5 25 11 0.0000 0.0000
5 26 0 0.0000 0.0000
5 26 1 0.0000 0.0000
5 26 2 0.0000 0.0000
5 26 3 0.0000 0.0000
5 26 4 0.0000 0.0000
5 26 5 0.0000 0.0000
5 26 6 0.0000 0.0000
5 26 7 0.0000 0.0000
5 26 8 0.0000 0.0000
5 26 9 0.0000 0.0000
5 26 10 0.0000 0.0000
5 26 11 0.0000 0.0000
5 27 0 0.0000 0.0000
5 27 1 0.0000 0.0000
5 27 2 0.0000 0.0000
5 27 3 0.0000 0.0000
5 27 4 0.0000 0.0000
5 27 5 0.0000 0.0000
5 27 6 0.0000 0.0000
5 27 7 0.0000 0.0000
5 27 8 0.0000 0.0000
5 27 9 0.0000 0.0000
5 27 10 0.0000 0.0000
5 28 0 0.0000 0.0000
5 28 1 0.0000 0.0000
5 28 2 0.0000 0.0000
5 28 3 0.0000 0.0000
5 28 4 0.0000 0.0000
5 28 5 0.0000 0.0000
5 28 6 0.0000 0.0000
5 28 7 0.0000 0.0000
5 28 8 0.0000 0.0000
5 28 9 0.0000 0.0000
5 28 10 0.0000 0.0000
5 29 0 0.0000 0.0000
5 29 1 0.0000 0.0000
5 29 2 0.0000 0.0000
5 29 3 0.0000 0.0000
5 29 4 0.0000 0.0000
5 29 5 0.0000 0.0000
5 29 6 0.0000 0.0000
5 29 7 0.0000 0.0000
5 29 8 0.0000 0.0000
5 29 9 0.0000 0.0000
5 30 0 0.0000 0.0000
5 30 1 0.0000 0.0000
5 30 2 0.0000 0.0000
5 30 3 0.0000 0.0000
5 30 4 0.0000 0.0000
5 30 5 0.0000 0.0000
5 30 6 0.0000 0.0000
5 30 7 0.0000 0.0000
5 30 8 0.0000 0.0000
5 30 9 0.0000 0.0000
5 31 0 0.0000 0.0000
5 31 1 0.0000 0.0000
5 31 2 0.0000 0.0000
5 31 3 0.0000 0.0000
5 31 4 0.0000 0.0000
5 31 5 0.0000 0.0000
5 31 6 0.0000 0.0000
5 31 7 0.0000 0.0000
5 31 8 0.0000 0.0000
5 32 0 0.0000 0.0000
5 32 1 0.0000 0.0000
5 32 2 0.0000 0.0000
5 32 3 0.0000 0.0000
5 32 4 0.0000 0.0000
5 32 5 0.0000 0.0000
5 32 6 0.0000 0.0000
5 32 7 0.0000 0.0000
5 33 0 0.0000 0.0000
5 33 1 0.0000 0.0000
5 33 2 0.0000 0.0000
5 33 3 0.0000 0.0000
5 33 4 0.0000 0.0000
5 33 5 0.0000 0.0000
5 33 6 0.0000 0.0000
5 33 7 0.0000 0.0000
5 34 0 0.0000 0.0000
5 34 1 0.0000 0.0000
5 34 2 0.0000 0.0000
5 34 3 0.0000 0.0000
5 34 4 0.0000 0.0000
5 34 5 0.0000 0.0000
5 34 6 0.0000 0.0000
5 34 7 0.0000 0.0000
5 35 0 0.0000 0.0000
5 35 1 0.0000 0.0000
5 35 2 0.0000 0.0000
5 35 3 0.0000 0.0000
5 35 4 0.0000 0.0000
5 35 5 0.0000 0.0000
5 35 7 0.0000 0.0000
5 36 0 0.0000 0.0000
5 36 1 0.0000 0.0000
5 36 2 0.0000 0.0000
5 36 3 0.0000 0.0000
5 36 4 0.0000 0.0000
5 36 5 0.0000 0.0000
5 36 7 0.0000 0.0000
5 37 0 0.0000 0.0000
5 37 1 0.0000 0.0000
5 37 2 0.0000 0.0000
5 37 3 0.0000 0.0000
5 37 4 0.0000 0.0000
5 37 5 0.0000 0.0000
5 37 7 0.0000 0.0000
5 38 0 0.0000 0.0000
5 38 1 0.0000 0.0000
5 38 2 0.0000 0.0000
5 38 3 0.0000 0.0000
5 38 4 0.0000 0.0000
5 38 5 0.0000 0.0000
5 38 6 0.0000 0.0000
5 38 7 0.0000 0.0000
5 39 0 0.0000 0.0000
5 39 1 0.0000 0.0000
5 39 2 0.0000 0.0000
5 39 3 0.0000 0.0000
5 39 4 0.0000 0.0000
5 39 5 0.0000 0.0000
5 39 6 0.0000 0.0000
5 40 0 0.0000 0.0000
5 40 1 0.0000 0.0000
5 40 2 0.0000 0.0000
5 40 3 0.0000 0.0000
5 40 4 0.0000 0.0000
5 40 5 0.0000 0.0000
5 40 6 0.0000 0.0000
6 0 0 0.0000 0.0000
6 0 1 0.0000 0.0000
6 0 2 0.0000 0.0000
6 0 3 0.0000 0.0000
6 0 4 0.0000 0.0000
6 0 5 0.0000 0.0000
6 0 6 0.0000 0.0000
6 0 7 0.0000 0.0000
6 0 8 0.0000 0.0000
6 0 9 0.0000 0.0000
6 0 11 0.0000 0.0000
6 0 12 0.0000 0.0000
6 0 13 0.0000 0.0000
6 0 14 0.0000 0.0000
6 0 15 0.0000 0.0000
6 1 0 0.0000 0.0000
6 1 1 0.0000 0.0000
6 1 2 0.0000 0.0000
6 1 3 0.0000 0.0000
6 1 4 0.0000 0.0000
6 1 5 0.0000 0.0000
6 1 6 0.0000 0.0000
6 1 7 0.0000 0.0000
6 1 8 0.0000 0.0000
6 1 9 0.0000 0.0000
6 1 10 0.0000 0.0000
6 1 11 0.0000 0.0000
6 1 12 0.0000 0.0000
6 1 13 0.0000 0.0000
6 1 14 0.0000 0.0000
6 1 15 0.0000 0.0000
6 2 0 0.0000 0.0000
6 2 1 0.0000 0.0000
6 2 2 0.0000 0.0000
6 2 3 0.0000 0.0000
6 2 4 0.0000 0.0000
6 2 5 0.0000 0.0000
6 2 6 0.0000 0.0000
6 2 7 0.0000 0.0000
6 2 8 0.0000 0.0000
6 2 9 0.0000 0.0000
6 2 10 0.0000 0.0000
6 2 11 0.0000 0.0000
6 2 12 0.0000 0.0000
6 2 13 0.0000 0.0000
6 2 14 0.0000 0.0000
6 2 15 0.0000 0.0000
6 3 0 0.0000 0.0000
6 3 1 0.0000 0.0000
6 3 2 0.0000 0.0000
6 3 3 0.0000 0.0000
6 3 4 0.0000 0.0000
6 3 5 0.0000 0.0000
6 3 6 0.0000 0.0000
6 3 7 0.0000 0.0000
6 3 8 0.0000 0.0000
6 3 9 0.0000 0.0000
6 3 10 0.0000 0.0000
6 3 11 0.0000 0.0000
6 3 12 0.0000 0.0000
6 3 13 0.0000 0.0000
6 3 14 0.0000 0.0000
6 3 15 0.0000 0.0000
6 4 0 0.0000 0.0000
6 4 1 0.0000 0.0000
6 4 2 0.0000 0.0000
6 4 3 0.0000 0.0000
6 4 4 0.0000 0.0000
6 4 5 0.0000 0.0000
6 4 6 0.0000 0.0000
6 4 7 0.0000 0.0000
6 4 8 0.0000 0.0000
6 4 9 0.0000 0.0000
6 4 10 0.0000 0.0000
6 4 11 0.0000 0.0000
6 4 12 0.0000 0.0000
6 4 13 0.0000 0.0000
6 4 14 0.0000 0.0000
6 5 0 0.0000 0.0000
6 5 1 0.0000 0.0000
6 5 2 0.0000 0.0000
6 5 3 0.0000 0.0000
6 5 4 0.0000 0.0000
6 5 5 0.0000 0.0000
6 5 6 0.0000 0.0000
6 5 7 0.0000 0.0000
6 5 8 0.0000 0.0000
6 5 9 0.0000 0.0000
6 5 10 0.0000 0.0000
6 5 11 0.0000 0.0000
6 5 12 0.0000 0.0000
6 5 13 0.0000 0.0000
6 5 14 0.0000 0.0000
6 6 0 0.0000 0.0000
6 6 1 0.0000 0.0000
6 6 2 0.0000 0.0000
6 6 3 0.0000 0.0000
6 6 4 0.0000 0.0000
6 6 5 0.0000 0.0000
6 6 6 0.0000 0.0000
6 6 7 0.0000 0.0000
6 6 8 0.0000 0.0000
6 6 9 0.0000 0.0000
6 6 10 0.0000 0.0000
6 6 11 0.0000 0.0000
6 6 12 0.0000 0.0000
6 6 13 0.0000 0.0000
6 6 14 0.0000 0.0000
6 7 0 0.0000 0.0000
6 7 1 0.0000 0.0000
6 7 2 0.0000 0.0000
6 7 3 0.0000 0.0000
6 7 4 0.0000 0.0000
6 7 5 0.0000 0.0000
6 7 6 0.0000 0.0000
6 7 7 0.0000 0.0000
6 7 8 0.0000 0.0000
6 7 9 0.0000 0.0000
6 7 10 0.0000 0.0000
6 7 11 0.0000 0.0000
6 7 12 0.0000 0.0000
6 7 13 0.0000 0.0000
6 7 14 0.0000 0.0000
6 8 0 0.0000 0.0000
6 8 1 0.0000 0.0000
6 8 2 0.0000 0.0000
6 8 3 0.0000 0.0000
6 8 4 0.0000 0.0000
6 8 5 0.0000 0.0000
6 8 6 0.0000 0.0000
6 8 7 0.0000 0.0000
6 8 8 0.0000 0.0000
6 8 9 0.0000 0.0000
6 8 10 0.0000 0.0000
6 8 11 0.0000 0.0000
6 8 12 0.0000 0.0000
6 8 13 0.0000 0.0000
6 8 14 0.0000 0.0000
6 9 0 0.0000 0.0000
6 9 1 0.0000 0.0000
6 9 2 0.0000 0.0000
6 9 3 0.0000 0.0000
6 9 4 0.0000 0.0000
6 9 5 0.0000 0.0000
6 9 6 0.0000 0.0000
6 9 7 0.0000 0.0000
6 9 8 0.0000 0.0000
6 9 9 0.0000 0.0000
6 9 10 0.0000 0.0000
6 9 11 0.0000 0.0000
6 9 12 0.0000 0.0000
6 9 13 0.0000 0.0000
6 10 0 0.0000 0.0000
6 10 1 0.0000 0.0000
6 10 2 0.0000 0.0000
6 10 3 0.0000 0.0000
6 10 4 0.0000 0.0000
6 10 5 0.0000 0.0000
6 10 6 0.0000 0.0000
6 10 7 0.0000 0.0000
6 10 8 0.0000 0.0000
6 10 9 0.0000 0.0000
6 10 10 0.0000 0.0000
6 10 11 0.0000 0.0000
6 10 12 0.0000 0.0000
6 10 13 0.0000 0.0000
6 11 0 0.0000 0.0000
6 11 1 0.0000 0.0000
6 11 2 0.0000 0.0000
6 11 3 0.0000 0.0000
6 11 4 0.0000 0.0000
6 11 5 0.0000 0.0000
6 11 6 0.0000 0.0000
6 11 7 0.0000 0.0000
6 11 8 0.0000 0.0000
6 11 9 0.0000 0.0000
6 11 10 0.0000 0.0000
6 11 11 0.0000 0.0000
6 11 12 0.0000 0.0000
6 11 13 0.0000 0.0000
6 12 0 0.0000 0.0000
6 12 1 0.0000 0.0000
6 12 2 0.0000 0.0000
6 12 3 0.0000 0.0000
6 12 4 0.0000 0.0000
6 12 5 0.0000 0.0000
6 12 6 0.0000 0.0000
6 12 7 0.0000 0.0000
6 12 8 0.0000 0.0000
6 12 9 0.0000 0.0000
6 12 10 0.0000 0.0000
6 12 11 0.0000 0.0000
6 12 12 0.0000 0.0000
6 12 13 0.0000 0.0000
6 13 0 0.0000 0.0000
6 13 1 0.0000 0.0000
6 13 2 0.0000 0.0000
6 13 3 0.0000 0.0000
6 13 4 0.0000 0.0000
6 13 5 0.0000 0.0000
6 13 6 0.0000 0.0000
6 13 7 0.0000 0.0000
6 13 8 0.0000 0.0000
6 13 9 0.0000 0.0000
6 13 10 0.0000 0.0000
6 13 11 0.0000 0.0000
6 13 12 0.0000 0.0000
6 13 13 0.0000 0.0000
6 14 0 0.0000 0.0000
6 14 1 0.0000 0.0000
6 14 2 0.0000 0.0000
6 14 3 0.0000 0.0000
6 14 4 0.0000 0.0000
6 14 5 0.0000 0.0000
6 14 6 0.0000 0.0000
6 14 7 0.0000 0.0000
6 14 8 0.0000 0.0000
6 14 9 0.0000 0.0000
6 14 10 0.0000 0.0000
6 14 11 0.0000 0.0000
6 15 0 0.0000 0.0000
6 15 1 0.0000 0.0000
6 15 2 0.0000 0.0000
6 15 3 0.0000 0.0000
6 15 4 0.0000 0.0000
6 15 5 0.0000 0.0000
6 15 6 0.0000 0.0000
6 15 7 0.0000 0.0000
6 15 8 0.0000 0.0000
6 15 9 0.0000 0.0000
6 15 10 0.0000 0.0000
6 15 11 0.0000 0.0000
6 16 0 0.0000 0.0000
6 16 1 0.0000 0.0000
6 16 2 0.0000 0.0000
6 16 3 0.0000 0.0000
6 16 4 0.0000 0.0000
6 16 5 0.0000 0.0000
6 16 6 0.0000 0.0000
6 16 7 0.0000 0.0000
6 16 8 0.0000 0.0000
6 16 9 0.0000 0.0000
6 16 10 0.0000 0.0000
6 16 11 0.0000 0.0000
6 16 12 0.0000 0.0000
6 17 0 0.0000 0.0000
6 17 1 0.0000 0.0000
6 17 2 0.0000 0.0000
6 17 3 0.0000 0.0000
6 17 4 0.0000 0.0000
6 17 5 0.0000 0.0000
6 17 6 0.0000 0.0000
6 17 7 0.0000 0.0000
6 17 8 0.0000 0.0000
6 17 9 0.0000 0.0000
6 17 10 0.0000 0.0000
6 17 11 0.0000 0.0000
6 17 12 0.0000 0.0000
6 18 0 0.0000 0.0000
6 18 1 0.0000 0.0000
6 18 2 0.0000 0.0000
6 18 3 0.0000 0.0000
6 18 4 0.0000 0.0000
6 18 5 0.0000 0.0000
6 18 6 0.0000 0.0000
6 18 7 0.0000 0.0000
6 18 8 0.0000 0.0000
6 18 9 0.0000 0.0000
6 18 10 0.0000 0.0000
6 18 11 0.0000 0.0000
6 18 12 0.0000 0.0000
6 19 0 0.0000 0.0000
6 19 1 0.0000 0.0000
6 19 2 0.0000 0.0000
6 19 3 0.0000 0.0000
6 19 4 0.0000 0.0000
6 19 5 0.0000 0.0000
6 19 6 0.0000 0.0000
6 19 7 0.0000 0.0000
6 19 8 0.0000 0.0000
6 19 9 0.0000 0.0000
6 19 10 0.0000 0.0000
6 19 11 0.0000 0.0000
6 19 12 0.0000 0.0000
6 20 0 0.0000 0.0000
6 20 1 0.0000 0.0000
6 20 2 0.0000 0.0000
6 20 3 0.0000 0.0000
6 20 4 0.0000 0.0000
6 20 5 0.0000 0.0000
6 20 6 0.0000 0.0000
6 20 7 0.0000 0.0000
6 20 8 0.0000 0.0000
6 20 9 0.0000 0.0000
6 20 10 0.0000 0.0000
6 20 11 0.0000 0.0000
6 20 12 0.0000 0.0000
6 21 0 0.0000 0.0000
6 21 1 0.0000 0.0000
6 21 2 0.0000 0.0000
6 21 3 0.0000 0.0000
6 21 4 0.0000 0.0000
6 21 5 0.0000 0.0000
6 21 6 0.0000 0.0000
6 21 7 0.0000 0.0000
6 21 8 0.0000 0.0000
6 21 9 0.0000 0.0000
6 21 10 0.0000 0.0000
6 21 11 0.0000 0.0000
6 21 12 0.0000 0.0000
6 22 0 0.0000 0.0000
6 22 1 0.0000 0.0000
6 22 2 0.0000 0.0000
6 22 3 0.0000 0.0000
6 22 4 0.0000 0.0000
6 22 5 0.0000 0.0000
6 22 6 0.0000 0.0000
6 22 7 0.0000 0.0000
6 22 8 0.0000 0.0000
6 22 9 0.0000 0.0000
6 22 10 0.0000 0.0000
6 22 11 0.0000 0.0000
6 22 12 0.0000 0.0000
6 23 0 0.0000 0.0000
6 23 1 0.0000 0.0000
6 23 2 0.0000 0.0000
6 23 3 0.0000 0.0000
6 23 4 0.0000 0.0000
6 23 5 0.0000 0.0000
6 23 6 0.0000 0.0000
6 23 7 0.0000 0.0000
6 23 8 0.0000 0.0000
6 23 9 0.0000 0.0000
6 23 10 0.0000 0.0000
6 23 11 0.0000 0.0000
6 24 0 0.0000 0.0000
6 24 1 0.0000 0.0000
6 24 2 0.0000 0.0000
6 24 3 0.0000 0.0000
6 24 4 0.0000 0.0000
6 24 5 0.0000 0.0000
6 24 6 0.0000 0.0000
6 24 7 0.0000 0.0000
6 24 8 0.0000 0.0000
6 24 9 0.0000 0.0000
6 24 10 0.0000 0.0000
6 24 11 0.0000 0.0000
6 25 0 0.0000 0.0000
6 25 1 0.0000 0.0000
6 25 2 0.0000 0.0000
6 25 3 0.0000 0.0000
6 25 4 0.0000 0.0000
6 25 5 0.0000 0.0000
6 25 6 0.0000 0.0000
6 25 7 0.0000 0.0000
6 25 8 0.0000 0.0000
6 25 9 0.0000 0.0000
6 25 10 0.0000 0.0000
6 25 11 0.0000 0.0000
6 26 0 0.0000 0.0000
6 26 1 0.0000 0.0000
6 26 2 0.0000 0.0000
6 26 3 0.0000 0.0000
6 26 4 0.0000 0.0000
6 26 5 0.0000 0.0000
6 26 6 0.0000 0.0000
6 26 7 0.0000 0.0000
6 26 8 0.0000 0.0000
6 26 9 0.0000 0.0000
6 26 10 0.0000 0.0000
6 27 0 0.0000 0.0000
6 27 1 0.0000 0.0000
6 27 2 0.0000 0.0000
6 27 3 0.0000 0.0000
6 27 4 0.0000 0.0000
6 27 5 0.0000 0.0000
6 27 6 0.0000 0.0000
6 27 7 0.0000 0.0000
6 27 8 0.0000 0.0000
6 27 9 0.0000 0.0000
6 27 10 0.0000 0.0000
6 28 0 0.0000 0.0000
6 28 1 0.0000 0.0000
6 28 2 0.0000 0.0000
6 28 3 0.0000 0.0000
6 28 4 0.0000 0.0000
6 28 5 0.0000 0.0000
6 28 6 0.0000 0.0000
6 28 7 0.0000 0.0000
6 28 8 0.0000 0.0000
6 28 9 0.0000 0.0000
6 29 0 0.0000 0.0000
6 29 1 0.0000 0.0000
6 29 2 0.0000 0.0000
6 29 3 0.0000 0.0000
6 29 4 0.0000 0.0000
6 29 5 0.0000 0.0000
6 29 6 0.0000 0.0000
6 29 7 0.0000 0.0000
6 29 8 0.0000 0.0000
6 30 0 0.0000 0.0000
6 30 1 0.0000 0.0000
6 30 2 0.0000 0.0000
6 30 3 0.0000 0.0000
6 30 4 0.0000 0.0000
6 30 5 0.0000 0.0000
6 30 6 0.0000 0.0000
6 30 7 0.0000 0.0000
6 30 8 0.0000 0.0000
6 31 0 0.0000 0.0000
6 31 1 0.0000 0.0000
6 31 2 0.0000 0.0000
6 31 3 0.0000 0.0000
6 31 4 0.0000 0.0000
6 31 5 0.0000 0.0000
6 31 6 0.0000 0.0000
6 31 7 0.0000 0.0000
6 32 0 0.0000 0.0000
6 32 1 0.0000 0.0000
6 32 2 0.0000 0.0000
6 32 3 0.0000 0.0000
6 32 4 0.0000 0.0000
6 32 5 0.0000 0.0000
6 32 6 0.0000 0.0000
6 32 7 0.0000 0.0000
6 33 0 0.0000 0.0000
6 33 1 0.0000 0.0000
6 33 2 0.0000 0.0000
6 33 3 0.0000 0.0000
6 33 4 0.0000 0.0000
6 33 5 0.0000 0.0000
6 33 6 0.0000 0.0000
6 34 0 0.0000 0.0000
6 34 1 0.0000 0.0000
6 34 2 0.0000 0.0000
6 34 3 0.0000 0.0000
6 34 4 0.0000 0.0000
6 34 5 0.0000 0.0000
6 34 6 0.0000 0.0000
6 35 0 0.0000 0.0000
6 35 1 0.0000 0.0000
6 35 2 0.0000 0.0000
6 35 3 0.0000 0.0000
6 35 4 0.0000 0.0000
6 35 5 0.0000 0.0000
6 35 6 0.0000 0.0000
6 36 0 0.0000 0.0000
6 36 1 0.0000 0.0000
6 36 2 0.0000 0.0000
6 36 3 0.0000 0.0000
6 36 4 0.0000 0.0000
6 36 5 0.0000 0.0000
6 37 0 0.0000 0.0000
6 37 1 0.0000 0.0000
6 37 2 0.0000 0.0000
6 37 3 0.0000 0.0000
6 37 4 0.0000 0.0000
6 37 5 0.0000 0.0000
6 38 0 0.0000 0.0000
6 38 1 0.0000 0.0000
6 38 2 0.0000 0.0000
6 38 3 0.0000 0.0000
6 38 4 0.0000 0.0000
6 38 5 0.0000 0.0000
6 39 0 0.0000 0.0000
6 39 1 0.0000 0.0000
6 39 2 0.0000 0.0000
6 39 3 0.0000 0.0000
6 39 4 0.0000 0.0000
6 39 5 0.0000 0.0000
7 0 0 0.0000 0.0000
7 0 1 0.0000 0.0000
7 0 2 0.0000 0.0000
7 0 3 0.0000 0.0000
7 0 4 0.0000 0.0000
7 0 5 0.0000 0.0000
7 0 6 0.0000 0.0000
7 0 7 0.0000 0.0000
7 0 8 0.0000 0.0000
7 0 9 0.0000 0.0000
7 0 10 0.0000 0.0000
7 0 11 0.0000 0.0000
7 0 12 0.0000 0.0000
7 0 13 0.0000 0.0000
7 0 14 0.0000 0.0000
7 1 0 0.0000 0.0000
7 1 1 0.0000 0.0000
7 1 2 0.0000 0.0000
7 1 3 0.0000 0.0000
7 1 4 0.0000 0.0000
7 1 5 0.0000 0.0000
7 1 6 0.0000 0.0000
7 1 7 0.0000 0.0000
7 1 8 0.0000 0.0000
7 1 9 0.0000 0.0000
7 1 10 0.0000 0.0000
7 1 11 0.0000 0.0000
7 1 12 0.0000 0.0000
7 1 13 0.0000 0.0000
7 1 14 0.0000 0.0000
7 2 0 0.0000 0.0000
7 2 1 0.0000 0.0000
7 2 2 0.0000 0.0000
7 2 3 0.0000 0.0000
7 2 4 0.0000 0.0000
7 2 5 0.0000 0.0000
7 2 6 0.0000 0.0000
7 2 7 0.0000 0.0000
7 2 8 0.0000 0.0000
7 2 9 0.0000 0.0000
7 2 10 0.0000 0.0000
7 2 11 0.0000 0.0000
7 2 12 0.0000 0.0000
7 2 13 0.0000 0.0000
7 2 14 0.0000 0.0000
7 3 0 0.0000 0.0000
7 3 1 0.0000 0.0000
7 3 2 0.0000 0.0000
7 3 3 0.0000 0.0000
7 3 4 0.0000 0.0000
7 3 5 0.0000 0.0000
7 3 6 0.0000 0.0000
7 3 7 0.0000 0.0000
7 3 8 0.0000 0.0000
7 3 9 0.0000 0.0000
7 3 10 0.0000 0.0000
7 3 11 0.0000 0.0000
7 3 12 0.0000 0.0000
7 3 13 0.0000 0.0000
7 3 14 0.0000 0.0000
7 4 0 0.0000 0.0000
7 4 1 0.0000 0.0000
7 4 2 0.0000 0.0000
7 4 3 0.0000 0.0000
7 4 4 0.0000 0.0000
7 4 5 0.0000 0.0000
7 4 6 0.0000 0.0000
7 4 7 0.0000 0.0000
7 4 8 0.0000 0.0000
7 4 9 0.0000 0.0000
7 4 10 0.0000 0.0000
7 4 11 0.0000 0.0000
7 4 12 0.0000 0.0000
7 4 13 0.0000 0.0000
7 4 14 0.0000 0.0000
7 5 0 0.0000 0.0000
7 5 1 0.0000 0.0000
7 5 2 0.0000 0.0000
7 5 3 0.0000 0.0000
7 5 4 0.0000 0.0000
7 5 5 0.0000 0.0000
7 5 6 0.0000 0.0000
7 5 7 0.0000 0.0000
7 5 8 0.0000 0.0000
7 5 9 0.0000 0.0000
7 5 10 0.0000 0.0000
7 5 11 0.0000 0.0000
7 5 12 0.0000 0.0000
7 5 13 0.0000 0.0000
7 5 14 0.0000 0.0000
7 6 0 0.0000 0.0000
7 6 1 0.0000 0.0000
7 6 2 0.0000 0.0000
7 6 3 0.0000 0.0000
7 6 4 0.0000 0.0000
7 6 5 0.0000 0.0000
7 6 6 0.0000 0.0000
7 6 7 0.0000 0.0000
7 6 8 0.0000 0.0000
7 6 9 0.0000 0.0000
7 6 10 0.0000 0.0000
7 6 11 0.0000 0.0000
7 6 12 0.0000 0.0000
7 6 13 0.0000 0.0000
7 6 14 0.0000 0.0000
7 7 0 0.0000 0.0000
7 7 1 0.0000 0.0000
7 7 2 0.0000 0.0000
7 7 3 0.0000 0.0000
7 7 4 0.0000 0.0000
7 7 5 0.0000 0.0000
7 7 6 0.0000 0.0000
7 7 7 0.0000 0.0000
7 7 8 0.0000 0.0000
7 7 9 0.0000 0.0000
7 7 10 0.0000 0.0000
7 7 11 0.0000 0.0000
7 7 12 0.0000 0.0000
7 7 13 0.0000 0.0000
7 7 14 0.0000 0.0000
7 8 0 0.0000 0.0000
7 8 1 0.0000 0.0000
7 8 2 0.0000 0.0000
7 8 3 0.0000 0.0000
7 8 4 0.0000 0.0000
7 8 5 0.0000 0.0000
7 8 6 0.0000 0.0000
7 8 7 0.0000 0.0000
7 8 8 0.0000 0.0000
7 8 9 0.0000 0.0000
7 8 10 0.0000 0.0000
7 8 11 0.0000 0.0000
7 8 12 0.0000 0.0000
7 8 13 0.0000 0.0000
7 8 14 0.0000 0.0000
7 9 0 0.0000 0.0000
7 9 1 0.0000 0.0000
7 9 2 0.0000 0.0000
7 9 3 0.0000 0.0000
7 9 4 0.0000 0.0000
7 9 5 0.0000 0.0000
7 9 6 0.0000 0.0000
7 9 7 0.0000 0.0000
7 9 8 0.0000 0.0000
7 9 9 0.0000 0.0000
7 9 10 0.0000 0.0000
7 9 11 0.0000 0.0000
7 9 12 0.0000 0.0000
7 9 13 0.0000 0.0000
7 9 14 0.0000 0.0000
7 10 0 0.0000 0.0000
7 10 1 0.0000 0.0000
7 10 2 0.0000 0.0000
7 10 3 0.0000 0.0000
7 10 4 0.0000 0.0000
7 10 5 0.0000 0.0000
7 10 6 0.0000 0.0000
7 10 7 0.0000 0.0000
7 10 8 0.0000 0.0000
7 10 9 0.0000 0.0000
7 10 10 0.0000 0.0000
7 10 11 0.0000 0.0000
7 10 12 0.0000 0.0000
7 10 13 0.0000 0.0000
7 10 14 0.0000 0.0000
7 11 0 0.0000 0.0000
7 11 1 0.0000 0.0000
7 11 2 0.0000 0.0000
7 11 3 0.0000 0.0000
7 11 4 0.0000 0.0000
7 11 5 0.0000 0.0000
7 11 6 0.0000 0.0000
7 11 7 0.0000 0.0000
7 11 8 0.0000 0.0000
7 11 9 0.0000 0.0000
7 11 10 0.0000 0.0000
7 11 11 0.0000 0.0000
7 11 12 0.0000 0.0000
7 11 13 0.0000 0.0000
7 12 0 0.0000 0.0000
7 12 1 0.0000 0.0000
7 12 2 0.0000 0.0000
7 12 3 0.0000 0.0000
7 12 4 0.0000 0.0000
7 12 5 0.0000 0.0000
7 12 6 0.0000 0.0000
7 12 7 0.0000 0.0000
7 12 8 0.0000 0.0000
7 12 9 0.0000 0.0000
7 12 10 0.0000 0.0000
7 12 11 0.0000 0.0000
7 12 12 0.0000 0.0000
7 12 13 0.0000 0.0000
7 13 0 0.0000 0.0000
7 13 1 0.0000 0.0000
7 13 2 0.0000 0.0000
7 13 3 0.0000 0.0000
7 13 4 0.0000 0.0000
7 13 5 0.0000 0.0000
7 13 6 0.0000 0.0000
7 13 7 0.0000 0.0000
7 13 8 0.0000 0.0000
7 13 9 0.0000 0.0000
7 13 10 0.0000 0.0000
7 13 11 0.0000 0.0000
7 13 12 0.0000 0.0000
7 13 13 0.0000 0.0000
7 14 0 0.0000 0.0000
7 14 1 0.0000 0.0000
7 14 2 0.0000 0.0000
7 14 3 0.0000 0.0000
7 14 4 0.0000 0.0000
7 14 5 0.0000 0.0000
7 14 6 0.0000 0.0000
7 14 7 0.0000 0.0000
7 14 8 0.0000 0.0000
7 14 9 0.0000 0.0000
7 14 10 0.0000 0.0000
7 14 11 0.0000 0.0000
7 14 12 0.0000 0.0000
7 15 0 0.0000 0.0000
7 15 1 0.0000 0.0000
7 15 2 0.0000 0.0000
7 15 3 0.0000 0.0000
7 15 4 0.0000 0.0000
7 15 5 0.0000 0.0000
7 15 6 0.0000 0.0000
7 15 7 0.0000 0.0000
7 15 8 0.0000 0.0000
7 15 9 0.0000 0.0000
7 15 10 0.0000 0.0000
7 15 11 0.0000 0.0000
7 15 12 0.0000 0.0000
7 16 0 0.0000 0.0000
7 16 1 0.0000 0.0000
7 16 2 0.0000 0.0000
7 16 3 0.0000 0.0000
7 16 4 0.0000 0.0000
7 16 5 0.0000 0.0000
7 16 6 0.0000 0.0000
7 16 7 0.0000 0.0000
7 16 8 0.0000 0.0000
7 16 9 0.0000 0.0000
7 16 10 0.0000 0.0000
7 16 11 0.0000 0.0000
7 16 12 0.0000 0.0000
7 17 0 0.0000 0.0000
7 17 1 0.0000 0.0000
7 17 2 0.0000 0.0000
7 17 3 0.0000 0.0000
7 17 4 0.0000 0.0000
7 17 5 0.0000 0.0000
7 17 6 0.0000 0.0000
7 17 7 0.0000 0.0000
7 17 8 0.0000 0.0000
7 17 9 0.0000 0.0000
7 17 10 0.0000 0.0000
7 17 11 0.0000 0.0000
7 17 12 0.0000 0.0000
7 18 0 0.0000 0.0000
7 18 1 0.0000 0.0000
7 18 2 0.0000 0.0000
7 18 3 0.0000 0.0000
7 18 4 0.0000 0.0000
7 18 5 0.0000 0.0000
7 18 6 0.0000 0.0000
7 18 7 0.0000 0.0000
7 18 8 0.0000 0.0000
7 18 9 0.0000 0.0000
7 18 10 0.0000 0.0000
7 18 11 0.0000 0.0000
7 18 12 0.0000 0.0000
7 19 0 0.0000 0.0000
7 19 1 0.0000 0.0000
7 19 2 0.0000 0.0000
7 19 3 0.0000 0.0000
7 19 4 0.0000 0.0000
7 19 5 0.0000 0.0000
7 19 6 0.0000 0.0000
7 19 7 0.0000 0.0000
7 19 8 0.0000 0.0000
7 19 9 0.0000 0.0000
7 19 10 0.0000 0.0000
7 19 11 0.0000 0.0000
7 19 12 0.0000 0.0000
7 20 0 0.0000 0.0000
7 20 1 0.0000 0.0000
7 20 2 0.0000 0.0000
7 20 3 0.0000 0.0000
7 20 4 0.0000 0.0000
7 20 5 0.0000 0.0000
7 20 6 0.0000 0.0000
7 20 7 0.0000 0.0000
7 20 8 0.0000 0.0000
7 20 9 0.0000 0.0000
7 20 10 0.0000 0.0000
7 20 11 0.0000 0.0000
7 20 12 0.0000 0.0000
7 21 0 0.0000 0.0000
7 21 1 0.0000 0.0000
7 21 2 0.0000 0.0000
7 21 3 0.0000 0.0000
7 21 4 0.0000 0.0000
7 21 5 0.0000 0.0000
7 21 6 0.0000 0.0000
7 21 7 0.0000 0.0000
7 21 8 0.0000 0.0000
7 21 9 0.0000 0.0000
7 21 10 0.0000 0.0000
7 21 11 0.0000 0.0000
7 21 12 0.0000 0.0000
7 22 0 0.0000 0.0000
7 22 1 0.0000 0.0000
7 22 2 0.0000 0.0000
7 22 3 0.0000 0.0000
7 22 4 0.0000 0.0000
7 22 5 0.0000 0.0000
7 22 6 0.0000 0.0000
7 22 7 0.0000 0.0000
7 22 8 0.0000 0.0000
7 22 9 0.0000 0.0000
7 22 10 0.0000 0.0000
7 22 11 0.0000 0.0000
7 23 0 0.0000 0.0000
7 23 1 0.0000 0.0000
7 23 2 0.0000 0.0000
7 23 3 0.0000 0.0000
7 23 4 0.0000 0.0000
7 23 5 0.0000 0.0000
7 23 6 0.0000 0.0000
7 23 7 0.0000 0.0000
7 23 8 0.0000 0.0000
7 23 9 0.0000 0.0000
7 23 10 0.0000 0.0000
7 23 11 0.0000 0.0000
7 24 0 0.0000 0.0000
7 24 1 0.0000 0.0000
7 24 2 0.0000 0.0000
7 24 3 0.0000 0.0000
7 24 4 0.0000 0.0000
7 24 5 0.0000 0.0000
7 24 6 0.0000 0.0000
7 24 7 0.0000 0.0000
7 24 8 0.0000 0.0000
7 24 9 0.0000 0.0000
7 24 10 0.0000 0.0000
7 25 0 0.0000 0.0000
7 25 1 0.0000 0.0000
7 25 2 0.0000 0.0000
7 25 3 0.0000 0.0000
7 25 4 0.0000 0.0000
7 25 5 0.0000 0.0000
7 25 6 0.0000 0.0000
7 25 7 0.0000 0.0000
7 25 8 0.0000 0.0000
7 25 9 0.0000 0.0000
7 25 10 0.0000 0.0000
7 26 0 0.0000 0.0000
7 26 1 0.0000 0.0000
7 26 2 0.0000 0.0000
7 26 3 0.0000 0.0000
7 26 4 0.0000 0.0000
7 26 5 0.0000 0.0000
7 26 6 0.0000 0.0000
7 26 7 0.0000 0.0000
7 26 8 0.0000 0.0000
7 26 9 0.0000 0.0000
7 27 0 0.0000 0.0000
7 27 1 0.0000 0.0000
7 27 2 0.0000 0.0000
7 27 3 0.0000 0.0000
7 27 4 0.0000 0.0000
7 27 5 0.0000 0.0000
7 27 6 0.0000 0.0000
7 27 7 0.0000 0.0000
7 27 8 0.0000 0.0000
7 27 9 0.0000 0.0000
7 28 0 0.0000 0.0000
7 28 1 0.0000 0.0000
7 28 2 0.0000 0.0000
7 28 3 0.0000 0.0000
7 28 4 0.0000 0.0000
7 28 5 0.0000 0.0000
7 28 6 0.0000 0.0000
7 28 7 0.0000 0.0000
7 28 8 0.0000 0.0000
7 29 0 0.0000 0.0000
7 29 1 0.0000 0.0000
7 29 2 0.0000 0.0000
7 29 3 0.0000 0.0000
7 29 4 0.0000 0.0000
7 29 5 0.0000 0.0000
7 29 6 0.0000 0.0000
7 29 7 0.0000 0.0000
7 29 8 0.0000 0.0000
7 30 0 0.0000 0.0000
7 30 1 0.0000 0.0000
7 30 2 0.0000 0.0000
7 30 3 0.0000 0.0000
7 30 4 0.0000 0.0000
7 30 5 0.0000 0.0000
7 30 6 0.0000 0.0000
7 30 7 0.0000 0.0000
7 31 0 0.0000 0.0000
7 31 1 0.0000 0.0000
7 31 2 0.0000 0.0000
7 31 3 0.0000 0.0000
7 31 4 0.0000 0.0000
7 31 5 0.0000 0.0000
7 31 6 0.0000 0.0000
7 32 0 0.0000 0.0000
7 32 1 0.0000 0.0000
7 32 2 0.0000 0.0000
7 32 3 0.0000 0.0000
7 32 4 0.0000 0.0000
7 32 5 0.0000 0.0000
7 33 0 0.0000 0.0000
7 33 1 0.0000 0.0000
7 33 2 0.0000 0.0000
7 33 3 0.0000 0.0000
7 33 4 0.0000 0.0000
7 33 5 0.0000 0.0000
7 34 0 0.0000 0.0000
7 34 1 0.0000 0.0000
7 34 2 0.0000 0.0000
7 34 3 0.0000 0.0000
7 34 4 0.0000 0.0000
7 34 5 0.0000 0.0000
7 35 0 0.0000 0.0000
7 35 1 0.0000 0.0000
7 35 2 0.0000 0.0000
7 35 3 0.0000 0.0000
7 35 4 0.0000 0.0000
7 35 5 0.0000 0.0000
7 36 0 0.0000 0.0000
7 36 1 0.0000 0.0000
7 36 2 0.0000 0.0000
7 36 3 0.0000 0.0000
7 36 4 0.0000 0.0000
7 37 0 0.0000 0.0000
7 37 1 0.0000 0.0000
7 37 2 0.0000 0.0000
7 37 3 0.0000 0.0000
7 37 4 0.0000 0.0000
7 38 0 0.0000 0.0000
7 38 1 0.0000 0.0000
7 38 2 0.0000 0.0000
7 38 3 0.0000 0.0000
7 38 4 0.0000 0.0000
7 39 2 0.0000 0.0000
7 39 3 0.0000 0.0000
7 39 4 0.0000 0.0000
8 0 0 0.0000 0.0000
8 0 1 0.0000 0.0000
8 0 2 0.0000 0.0000
8 0 3 0.0000 0.0000
8 0 4 0.0000 0.0000
8 0 5 0.0000 0.0000
8 0 6 0.0000 0.0000
8 0 7 0.0000 0.0000
8 0 8 0.0000 0.0000
8 0 9 0.0000 0.0000
8 0 10 0.0000 0.0000
8 0 11 0.0000 0.0000
8 0 12 0.0000 0.0000
8 0 13 0.0000 0.0000
8 1 0 0.0000 0.0000
8 1 1 0.0000 0.0000
8 1 2 0.0000 0.0000
8 1 3 0.0000 0.0000
8 1 4 0.0000 0.0000
8 1 5 0.0000 0.0000
8 1 6 0.0000 0.0000
8 1 7 0.0000 0.0000
8 1 8 0.0000 0.0000
8 1 9 0.0000 0.0000
8 1 10 0.0000 0.0000
8 1 11 0.0000 0.0000
8 1 12 0.0000 0.0000
8 1 13 0.0000 0.0000
8 2 0 0.0000 0.0000
8 2 1 0.0000 0.0000
8 2 2 0.0000 0.0000
8 2 3 0.0000 0.0000
8 2 4 0.0000 0.0000
8 2 5 0.0000 0.0000
8 2 6 0.0000 0.0000
8 2 7 0.0000 0.0000
8 2 8 0.0000 0.0000
8 2 9 0.0000 0.0000
8 2 10 0.0000 0.0000
8 2 11 0.0000 0.0000
8 2 12 0.0000 0.0000
8 2 13 0.0000 0.0000
8 3 0 0.0000 0.0000
8 3 1 0.0000 0.0000
8 3 2 0.0000 0.0000
8 3 3 0.0000 0.0000
8 3 4 0.0000 0.0000
8 3 5 0.0000 0.0000
8 3 6 0.0000 0.0000
8 3 7 0.0000 0.0000
8 3 8 0.0000 0.0000
8 3 9 0.0000 0.0000
8 3 10 0.0000 0.0000
8 3 11 0.0000 0.0000
8 3 12 0.0000 0.0000
8 3 13 0.0000 0.0000
8 4 0 0.0000 0.0000
8 4 1 0.0000 0.0000
8 4 2 0.0000 0.0000
8 4 3 0.0000 0.0000
8 4 4 0.0000 0.0000
8 4 5 0.0000 0.0000
8 4 6 0.0000 0.0000
8 4 7 0.0000 0.0000
8 4 8 0.0000 0.0000
8 4 9 0.0000 0.0000
8 4 10 0.0000 0.0000
8 4 11 0.0000 0.0000
8 4 12 0.0000 0.0000
8 4 13 0.0000 0.0000
8 5 0 0.0000 0.0000
8 5 1 0.0000 0.0000
8 5 2 0.0000 0.0000
8 5 3 0.0000 0.0000
8 5 4 0.0000 0.0000
8 5 5 0.0000 0.0000
8 5 6 0.0000 0.0000
8 5 7 0.0000 0.0000
8 5 8 0.0000 0.0000
8 5 9 0.0000 0.0000
8 5 10 0.0000 0.0000
8 5 11 0.0000 0.0000
8 5 12 0.0000 0.0000
8 5 13 0.0000 0.0000
8 6 0 0.0000 0.0000
8 6 1 0.0000 0.0000
8 6 2 0.0000 0.0000
8 6 3 0.0000 0.0000
8 6 4 0.0000 0.0000
8 6 5 0.0000 0.0000
8 6 6 0.0000 0.0000
8 6 7 0.0000 0.0000
8 6 8 0.0000 0.0000
8 6 9 0.0000 0.0000
8 6 10 0.0000 0.0000
8 6 11 0.0000 0.0000
8 6 12 0.0000 0.0000
8 6 13 0.0000 0.0000
8 7 0 0.0000 0.0000
8 7 1 0.0000 0.0000
8 7 2 0.0000 0.0000
8 7 3 0.0000 0.0000
8 7 4 0.0000 0.0000
8 7 5 0.0000 0.0000
8 7 6 0.0000 0.0000
8 7 7 0.0000 0.0000
8 7 8 0.0000 0.0000
8 7 9 0.0000 0.0000
8 7 10 0.0000 0.0000
8 7 11 0.0000 0.0000
8 7 12 0.0000 0.0000
8 7 13 0.0000 0.0000
8 8 0 0.0000 0.0000
8 8 1 0.0000 0.0000
8 8 2 0.0000 0.0000
8 8 3 0.0000 0.0000
8 8 4 0.0000 0.0000
8 8 5 0.0000 0.0000
8 8 6 0.0000 0.0000
8 8 7 0.0000 0.0000
8 8 8 0.0000 0.0000
8 8 9 0.0000 0.0000
8 8 10 0.0000 0.0000
8 8 11 0.0000 0.0000
8 8 12 0.0000 0.0000
8 8 13 0.0000 0.0000
8 9 0 0.0000 0.0000
8 9 1 0.0000 0.0000
8 9 2 0.0000 0.0000
8 9 3 0.0000 0.0000
8 9 4 0.0000 0.0000
8 9 5 0.0000 0.0000
8 9 6 0.0000 0.0000
8 9 7 0.0000 0.0000
8 9 8 0.0000 0.0000
8 9 9 0.0000 0.0000
8 9 10 0.0000 0.0000
8 9 11 0.0000 0.0000
8 9 12 0.0000 0.0000
8 9 13 0.0000 0.0000
8 10 0 0.0000 0.0000
8 10 1 0.0000 0.0000
8 10 2 0.0000 0.0000
8 10 3 0.0000 0.0000
8 10 4 0.0000 0.0000
8 10 5 0.0000 0.0000
8 10 6 0.0000 0.0000
8 10 7 0.0000 0.0000
8 10 8 0.0000 0.0000
8 10 9 0.0000 0.0000
8 10 10 0.0000 0.0000
8 10 11 0.0000 0.0000
8 10 12 0.0000 0.0000
8 10 13 0.0000 0.0000
8 11 0 0.0000 0.0000
8 11 1 0.0000 0.0000
8 11 2 0.0000 0.0000
8 11 3 0.0000 0.0000
8 11 4 0.0000 0.0000
8 11 5 0.0000 0.0000
8 11 6 0.0000 0.0000
8 11 7 0.0000 0.0000
8 11 8 0.0000 0.0000
8 11 9 0.0000 0.0000
8 11 10 0.0000 0.0000
8 11 11 0.0000 0.0000
8 11 12 0.0000 0.0000
8 11 13 0.0000 0.0000
8 12 0 0.0000 0.0000
8 12 1 0.0000 0.0000
8 12 2 0.0000 0.0000
8 12 3 0.0000 0.0000
8 12 4 0.0000 0.0000
8 12 5 0.0000 0.0000
8 12 6 0.0000 0.0000
8 12 7 0.0000 0.0000
8 12 8 0.0000 0.0000
8 12 9 0.0000 0.0000
8 12 10 0.0000 0.0000
8 12 11 0.0000 0.0000
8 12 12 0.0000 0.0000
8 12 13 0.0000 0.0000
8 13 0 0.0000 0.0000
8 13 1 0.0000 0.0000
8 13 2 0.0000 0.0000
8 13 3 0.0000 0.0000
8 13 4 0.0000 0.0000
8 13 5 0.0000 0.0000
8 13 6 0.0000 0.0000
8 13 7 0.0000 0.0000
8 13 8 0.0000 0.0000
8 13 9 0.0000 0.0000
8 13 10 0.0000 0.0000
8 13 11 0.0000 0.0000
8 13 12 0.0000 0.0000
8 13 13 0.0000 0.0000
8 14 0 0.0000 0.0000
8 14 1 0.0000 0.0000
8 14 2 0.0000 0.0000
8 14 3 0.0000 0.0000
8 14 4 0.0000 0.0000
8 14 5 0.0000 0.0000
8 14 6 0.0000 0.0000
8 14 7 0.0000 0.0000
8 14 8 0.0000 0.0000
8 14 9 0.0000 0.0000
8 14 10 0.0000 0.0000
8 14 11 0.0000 0.0000
8 14 12 0.0000 0.0000
8 15 0 0.0000 0.0000
8 15 1 0.0000 0.0000
8 15 2 0.0000 0.0000
8 15 3 0.0000 0.0000
8 15 4 0.0000 0.0000
8 15 5 0.0000 0.0000
8 15 6 0.0000 0.0000
8 15 7 0.0000 0.0000
8 15 8 0.0000 0.0000
8 15 9 0.0000 0.0000
8 15 10 0.0000 0.0000
8 15 11 0.0000 0.0000
8 15 12 0.0000 0.0000
8 16 0 0.0000 0.0000
8 16 1 0.0000 0.0000
8 16 2 0.0000 0.0000
8 16 3 0.0000 0.0000
8 16 4 0.0000 0.0000
8 16 5 0.0000 0.0000
8 16 6 0.0000 0.0000
8 16 7 0.0000 0.0000
8 16 8 0.0000 0.0000
8 16 9 0.0000 0.0000
8 16 10 0.0000 0.0000
8 16 11 0.0000 0.0000
8 16 12 0.0000 0.0000
8 17 0 0.0000 0.0000
8 17 1 0.0000 0.0000
8 17 2 0.0000 0.0000
8 17 3 0.0000 0.0000
8 17 4 0.0000 0.0000
8 17 5 0.0000 0.0000
8 17 6 0.0000 0.0000
8 17 7 0.0000 0.0000
8 17 8 0.0000 0.0000
8 17 9 0.0000 0.0000
8 17 10 0.0000 0.0000
8 17 11 0.0000 0.0000
8 17 12 0.0000 0.0000
8 18 0 0.0000 0.0000
8 18 1 0.0000 0.0000
8 18 2 0.0000 0.0000
8 18 3 0.0000 0.0000
8 18 4 0.0000 0.0000
8 18 5 0.0000 0.0000
8 18 6 0.0000 0.0000
8 18 7 0.0000 0.0000
8 18 8 0.0000 0.0000
8 18 9 0.0000 0.0000
8 18 10 0.0000 0.0000
8 18 11 0.0000 0.0000
8 18 12 0.0000 0.0000
8 19 0 0.0000 0.0000
8 19 1 0.0000 0.0000
8 19 2 0.0000 0.0000
8 19 3 0.0000 0.0000
8 19 4 0.0000 0.0000
8 19 5 0.0000 0.0000
8 19 6 0.0000 0.0000
8 19 7 0.0000 0.0000
8 19 8 0.0000 0.0000
8 19 9 0.0000 0.0000
8 19 10 0.0000 0.0000
8 19 11 0.0000 0.0000
8 19 12 0.0000 0.0000
8 20 0 0.0000 0.0000
8 20 1 0.0000 0.0000
8 20 2 0.0000 0.0000
8 20 3 0.0000 0.0000
8 20 4 0.0000 0.0000
8 20 5 0.0000 0.0000
8 20 6 0.0000 0.0000
8 20 7 0.0000 0.0000
8 20 8 0.0000 0.0000
8 20 9 0.0000 0.0000
8 20 10 0.0000 0.0000
8 20 11 0.0000 0.0000
8 20 12 0.0000 0.0000
8 21 0 0.0000 0.0000
8 21 1 0.0000 0.0000
8 21 2 0.0000 0.0000
8 21 3 0.0000 0.0000
8 21 4 0.0000 0.0000
8 21 5 0.0000 0.0000
8 21 6 0.0000 0.0000
8 21 7 0.0000 0.0000
8 21 8 0.0000 0.0000
8 21 9 0.0000 0.0000
8 21 10 0.0000 0.0000
8 21 11 0.0000 0.0000
8 22 0 0.0000 0.0000
8 22 1 0.0000 0.0000
8 22 2 0.0000 0.0000
8 22 3 0.0000 0.0000
8 22 4 0.0000 0.0000
8 22 5 0.0000 0.0000
8 22 6 0.0000 0.0000
8 22 7 0.0000 0.0000
8 22 8 0.0000 0.0000
8 22 9 0.0000 0.0000
8 22 10 0.0000 0.0000
8 22 11 0.0000 0.0000
8 23 0 0.0000 0.0000
8 23 1 0.0000 0.0000
8 23 2 0.0000 0.0000
8 23 3 0.0000 0.0000
8 23 4 0.0000 0.0000
8 23 5 0.0000 0.0000
8 23 6 0.0000 0.0000
8 23 7 0.0000 0.0000
8 23 8 0.0000 0.0000
8 23 9 0.0000 0.0000
8 23 10 0.0000 0.0000
8 24 0 0.0000 0.0000
8 24 1 0.0000 0.0000
8 24 2 0.0000 0.0000
8 24 3 0.0000 0.0000
8 24 4 0.0000 0.0000
8 24 5 0.0000 0.0000
8 24 6 0.0000 0.0000
8 24 7 0.0000 0.0000
8 24 8 0.0000 0.0000
8 24 9 0.0000 0.0000
8 25 0 0.0000 0.0000
8 25 1 0.0000 0.0000
8 25 2 0.0000 0.0000
8 25 3 0.0000 0.0000
8 25 4 0.0000 0.0000
8 25 5 0.0000 0.0000
8 25 6 0.0000 0.0000
8 25 7 0.0000 0.0000
8 25 8 0.0000 0.0000
8 25 9 0.0000 0.0000
8 26 0 0.0000 0.0000
8 26 1 0.0000 0.0000
8 26 2 0.0000 0.0000
8 26 3 0.0000 0.0000
8 26 4 0.0000 0.0000
8 26 5 0.0000 0.0000
8 26 6 0.0000 0.0000
8 26 7 0.0000 0.0000
8 26 8 0.0000 0.0000
8 27 0 0.0000 0.0000
8 27 1 0.0000 0.0000
8 27 2 0.0000 0.0000
8 27 3 0.0000 0.0000
8 27 4 0.0000 0.0000
8 27 5 0.0000 0.0000
8 27 6 0.0000 0.0000
8 27 7 0.0000 0.0000
8 27 8 0.0000 0.0000
8 28 0 0.0000 0.0000
8 28 1 0.0000 0.0000
8 28 2 0.0000 0.0000
8 28 3 0.0000 0.0000
8 28 4 0.0000 0.0000
8 28 5 0.0000 0.0000
8 28 6 0.0000 0.0000
8 28 7 0.0000 0.0000
8 29 0 0.0000 0.0000
8 29 1 0.0000 0.0000
8 29 2 0.0000 0.0000
8 29 3 0.0000 0.0000
8 29 4 0.0000 0.0000
8 29 5 0.0000 0.0000
8 29 6 0.0000 0.0000
8 30 0 0.0000 0.0000
8 30 1 0.0000 0.0000
8 30 2 0.0000 0.0000
8 30 3 0.0000 0.0000
8 30 4 0.0000 0.0000
8 30 5 0.0000 0.0000
8 30 6 0.0000 0.0000
8 31 0 0.0000 0.0000
8 31 1 0.0000 0.0000
8 31 2 0.0000 0.0000
8 31 3 0.0000 0.0000
8 31 4 0.0000 0.0000
8 31 5 0.0000 0.0000
8 32 0 0.0000 0.0000
8 32 1 0.0000 0.0000
8 32 2 0.0000 0.0000
8 32 3 0.0000 0.0000
8 32 4 0.0000 0.0000
8 33 0 0.0000 0.0000
8 33 1 0.0000 0.0000
8 33 2 0.0000 0.0000
8 33 3 0.0000 0.0000
8 33 4 0.0000 0.0000
8 34 0 0.0000 0.0000
8 34 1 0.0000 0.0000
8 34 2 0.0000 0.0000
8 34 3 0.0000 0.0000
8 34 4 0.0000 0.0000
8 35 0 0.0000 0.0000
8 35 1 0.0000 0.0000
8 35 2 0.0000 0.0000
8 35 3 0.0000 0.0000
8 36 0 0.0000 0.0000
8 36 1 0.0000 0.0000
8 36 2 0.0000 0.0000
8 36 3 0.0000 0.0000
8 37 0 0.0000 0.0000
8 37 1 0.0000 0.0000
8 37 2 0.0000 0.0000
8 37 3 0.0000 0.0000
8 38 2 0.0000 0.0000
8 38 3 0.0000 0.0000
9 0 0 0.0000 0.0000
9 0 1 0.0000 0.0000
9 0 2 0.0000 0.0000
9 0 3 0.0000 0.0000
9 0 4 0.0000 0.0000
9 0 5 0.0000 0.0000
9 0 6 0.0000 0.0000
9 0 7 0.0000 0.0000
9 0 8 0.0000 0.0000
9 0 9 0.0000 0.0000
9 0 10 0.0000 0.0000
9 0 11 0.0000 0.0000
9 0 12 0.0000 0.0000
9 1 0 0.0000 0.0000
9 1 1 0.0000 0.0000
9 1 2 0.0000 0.0000
9 1 3 0.0000 0.0000
9 1 4 0.0000 0.0000
9 1 5 0.0000 0.0000
9 1 6 0.0000 0.0000
9 1 7 0.0000 0.0000
9 1 8 0.0000 0.0000
9 1 9 0.0000 0.0000
9 1 10 0.0000 0.0000
9 1 11 0.0000 0.0000
9 1 12 0.0000 0.0000
9 2 0 0.0000 0.0000
9 2 1 0.0000 0.0000
9 2 2 0.0000 0.0000
9 2 3 0.0000 0.0000
9 2 4 0.0000 0.0000
9 2 5 0.0000 0.0000
9 2 6 0.0000 0.0000
9 2 7 0.0000 0.0000
9 2 8 0.0000 0.0000
9 2 9 0.0000 0.0000
9 2 10 0.0000 0.0000
9 2 11 0.0000 0.0000
9 2 12 0.0000 0.0000
9 3 0 0.0000 0.0000
9 3 1 0.0000 0.0000
9 3 2 0.0000 0.0000
9 3 3 0.0000 0.0000
9 3 4 0.0000 0.0000
9 3 5 0.0000 0.0000
9 3 6 0.0000 0.0000
9 3 7 0.0000 0.0000
9 3 8 0.0000 0.0000
9 3 9 0.0000 0.0000
9 3 10 0.0000 0.0000
9 3 11 0.0000 0.0000
9 3 12 0.0000 0.0000
9 4 0 0.0000 0.0000
9 4 1 0.0000 0.0000
9 4 2 0.0000 0.0000
9 4 3 0.0000 0.0000
9 4 4 0.0000 0.0000
9 4 5 0.0000 0.0000
9 4 6 0.0000 0.0000
9 4 7 0.0000 0.0000
9 4 8 0.0000 0.0000
9 4 9 0.0000 0.0000
9 4 10 0.0000 0.0000
9 4 11 0.0000 0.0000
9 4 12 0.0000 0.0000
9 5 0 0.0000 0.0000
9 5 1 0.0000 0.0000
9 5 2 0.0000 0.0000
9 5 3 0.0000 0.0000
9 5 4 0.0000 0.0000
9 5 5 0.0000 0.0000
9 5 6 0.0000 0.0000
9 5 7 0.0000 0.0000
9 5 8 0.0000 0.0000
9 5 9 0.0000 0.0000
9 5 10 0.0000 0.0000
9 5 11 0.0000 0.0000
9 5 12 0.0000 0.0000
9 6 0 0.0000 0.0000
9 6 1 0.0000 0.0000
9 6 2 0.0000 0.0000
9 6 3 0.0000 0.0000
9 6 4 0.0000 0.0000
9 6 5 0.0000 0.0000
9 6 6 0.0000 0.0000
9 6 7 0.0000 0.0000
9 6 8 0.0000 0.0000
9 6 9 0.0000 0.0000
9 6 10 0.0000 0.0000
9 6 11 0.0000 0.0000
9 6 12 0.0000 0.0000
9 7 0 0.0000 0.0000
9 7 1 0.0000 0.0000
9 7 2 0.0000 0.0000
9 7 3 0.0000 0.0000
9 7 4 0.0000 0.0000
9 7 5 0.0000 0.0000
9 7 6 0.0000 0.0000
9 7 7 0.0000 0.0000
9 7 8 0.0000 0.0000
9 7 9 0.0000 0.0000
9 7 10 0.0000 0.0000
9 7 11 0.0000 0.0000
9 7 12 0.0000 0.0000
9 8 0 0.0000 0.0000
9 8 1 0.0000 0.0000
9 8 2 0.0000 0.0000
9 8 3 0.0000 0.0000
9 8 4 0.0000 0.0000
9 8 5 0.0000 0.0000
9 8 6 0.0000 0.0000
9 8 7 0.0000 0.0000
9 8 8 0.0000 0.0000
9 8 9 0.0000 0.0000
9 8 10 0.0000 0.0000
9 8 11 0.0000 0.0000
9 8 12 0.0000 0.0000
9 9 0 0.0000 0.0000
9 9 1 0.0000 0.0000
9 9 2 0.0000 0.0000
9 9 3 0.0000 0.0000
9 9 4 0.0000 0.0000
9 9 5 0.0000 0.0000
9 9 6 0.0000 0.0000
9 9 7 0.0000 0.0000
9 9 8 0.0000 0.0000
9 9 9 0.0000 0.0000
9 9 10 0.0000 0.0000
9 9 11 0.0000 0.0000
9 9 12 0.0000 0.0000
9 10 0 0.0000 0.0000
9 10 1 0.0000 0.0000
9 10 2 0.0000 0.0000
9 10 3 0.0000 0.0000
9 10 4 0.0000 0.0000
9 10 5 0.0000 0.0000
9 10 6 0.0000 0.0000
9 10 7 0.0000 0.0000
9 10 8 0.0000 0.0000
9 10 9 0.0000 0.0000
9 10 10 0.0000 0.0000
9 10 11 0.0000 0.0000
9 10 12 0.0000 0.0000
9 11 0 0.0000 0.0000
9 11 1 0.0000 0.0000
9 11 2 0.0000 0.0000
9 11 3 0.0000 0.0000
9 11 4 0.0000 0.0000
9 11 5 0.0000 0.0000
9 11 6 0.0000 0.0000
9 11 7 0.0000 0.0000
9 11 8 0.0000 0.0000
9 11 9 0.0000 0.0000
9 11 10 0.0000 0.0000
9 11 11 0.0000 0.0000
9 12 0 0.0000 0.0000
9 12 1 0.0000 0.0000
9 12 2 0.0000 0.0000
9 12 3 0.0000 0.0000
9 12 4 0.0000 0.0000
9 12 5 0.0000 0.0000
9 12 6 0.0000 0.0000
9 12 7 0.0000 0.0000
9 12 8 0.0000 0.0000
9 12 9 0.0000 0.0000
9 12 10 0.0000 0.0000
9 12 11 0.0000 0.0000
9 13 0 0.0000 0.0000
9 13 1 0.0000 0.0000
9 13 2 0.0000 0.0000
9 13 3 0.0000 0.0000
9 13 4 0.0000 0.0000
9 13 5 0.0000 0.0000
9 13 6 0.0000 0.0000
9 13 7 0.0000 0.0000
9 13 8 0.0000 0.0000
9 13 9 0.0000 0.0000
9 13 10 0.0000 0.0000
9 13 11 0.0000 0.0000
9 14 0 0.0000 0.0000
9 14 1 0.0000 0.0000
9 14 2 0.0000 0.0000
9 14 3 0.0000 0.0000
9 14 4 0.0000 0.0000
9 14 5 0.0000 0.0000
9 14 6 0.0000 0.0000
9 14 7 0.0000 0.0000
9 14 8 0.0000 0.0000
9 14 9 0.0000 0.0000
9 14 10 0.0000 0.0000
9 14 11 0.0000 0.0000
9 15 0 0.0000 0.0000
9 15 1 0.0000 0.0000
9 15 2 0.0000 0.0000
9 15 3 0.0000 0.0000
9 15 4 0.0000 0.0000
9 15 5 0.0000 0.0000
9 15 6 0.0000 0.0000
9 15 7 0.0000 0.0000
9 15 8 0.0000 0.0000
9 15 9 0.0000 0.0000
9 15 10 0.0000 0.0000
9 15 11 0.0000 0.0000
9 16 0 0.0000 0.0000
9 16 1 0.0000 0.0000
9 16 2 0.0000 0.0000
9 16 3 0.0000 0.0000
9 16 4 0.0000 0.0000
9 16 5 0.0000 0.0000
9 16 6 0.0000 0.0000
9 16 7 0.0000 0.0000
9 16 8 0.0000 0.0000
9 16 9 0.0000 0.0000
9 16 10 0.0000 0.0000
9 16 11 0.0000 0.0000
9 16 12 0.0000 0.0000
9 17 0 0.0000 0.0000
9 17 1 0.0000 0.0000
9 17 2 0.0000 0.0000
9 17 3 0.0000 0.0000
9 17 4 0.0000 0.0000
9 17 5 0.0000 0.0000
9 17 6 0.0000 0.0000
9 17 7 0.0000 0.0000
9 17 8 0.0000 0.0000
9 17 9 0.0000 0.0000
9 17 10 0.0000 0.0000
9 17 11 0.0000 0.0000
9 17 12 0.0000 0.0000
9 18 0 0.0000 0.0000
9 18 1 0.0000 0.0000
9 18 2 0.0000 0.0000
9 18 3 0.0000 0.0000
9 18 4 0.0000 0.0000
9 18 5 0.0000 0.0000
9 18 6 0.0000 0.0000
9 18 7 0.0000 0.0000
9 18 8 0.0000 0.0000
9 18 9 0.0000 0.0000
9 18 10 0.0000 0.0000
9 18 11 0.0000 0.0000
9 18 12 0.0000 0.0000
9 19 0 0.0000 0.0000
9 19 1 0.0000 0.0000
9 19 2 0.0000 0.0000
9 19 3 0.0000 0.0000
9 19 4 0.0000 0.0000
9 19 5 0.0000 0.0000
9 19 6 0.0000 0.0000
9 19 7 0.0000 0.0000
9 19 8 0.0000 0.0000
9 19 9 0.0000 0.0000
9 19 10 0.0000 0.0000
9 19 11 0.0000 0.0000
9 20 0 0.0000 0.0000
9 20 1 0.0000 0.0000
9 20 2 0.0000 0.0000
9 20 3 0.0000 0.0000
9 20 4 0.0000 0.0000
9 20 5 0.0000 0.0000
9 20 6 0.0000 0.0000
9 20 7 0.0000 0.0000
9 20 8 0.0000 0.0000
9 20 9 0.0000 0.0000
9 20 10 0.0000 0.0000
9 20 11 0.0000 0.0000
9 21 0 0.0000 0.0000
9 21 1 0.0000 0.0000
9 21 2 0.0000 0.0000
9 21 3 0.0000 0.0000
9 21 4 0.0000 0.0000
9 21 5 0.0000 0.0000
9 21 6 0.0000 0.0000
9 21 7 0.0000 0.0000
9 21 8 0.0000 0.0000
9 21 9 0.0000 0.0000
9 21 10 0.0000 0.0000
9 22 0 0.0000 0.0000
9 22 1 0.0000 0.0000
9 22 2 0.0000 0.0000
9 22 3 0.0000 0.0000
9 22 4 0.0000 0.0000
9 22 5 0.0000 0.0000
9 22 6 0.0000 0.0000
9 22 7 0.0000 0.0000
9 22 8 0.0000 0.0000
9 22 9 0.0000 0.0000
9 22 10 0.0000 0.0000
9 23 0 0.0000 0.0000
9 23 1 0.0000 0.0000
9 23 2 0.0000 0.0000
9 23 3 0.0000 0.0000
9 23 4 0.0000 0.0000
9 23 5 0.0000 0.0000
9 23 6 0.0000 0.0000
9 23 7 0.0000 0.0000
9 23 8 0.0000 0.0000
9 23 9 0.0000 0.0000
9 24 0 0.0000 0.0000
9 24 1 0.0000 0.0000
9 24 2 0.0000 0.0000
9 24 3 0.0000 0.0000
9 24 4 0.0000 0.0000
9 24 5 0.0000 0.0000
9 24 6 0.0000 0.0000
9 24 7 0.0000 0.0000
9 24 8 0.0000 0.0000
9 25 0 0.0000 0.0000
9 25 1 0.0000 0.0000
9 25 2 0.0000 0.0000
9 25 3 0.0000 0.0000
9 25 4 0.0000 0.0000
9 25 5 0.0000 0.0000
9 25 6 0.0000 0.0000
9 25 7 0.0000 0.0000
9 25 8 0.0000 0.0000
9 26 0 0.0000 0.0000
9 26 1 0.0000 0.0000
9 26 2 0.0000 0.0000
9 26 3 0.0000 0.0000
9 26 4 0.0000 0.0000
9 26 5 0.0000 0.0000
9 26 6 0.0000 0.0000
9 26 7 0.0000 0.0000
9 27 0 0.0000 0.0000
9 27 1 0.0000 0.0000
9 27 2 0.0000 0.0000
9 27 3 0.0000 0.0000
9 27 4 0.0000 0.0000
9 27 5 0.0000 0.0000
9 27 6 0.0000 0.0000
9 28 0 0.0000 0.0000
9 28 1 0.0000 0.0000
9 28 2 0.0000 0.0000
9 28 3 0.0000 0.0000
9 28 4 0.0000 0.0000
9 28 5 0.0000 0.0000
9 28 6 0.0000 0.0000
9 29 0 0.0000 0.0000
9 29 1 0.0000 0.0000
9 29 2 0.0000 0.0000
9 29 3 0.0000 0.0000
9 29 4 0.0000 0.0000
9 29 5 0.0000 0.0000
9 30 0 0.0000 0.0000
9 30 1 0.0000 0.0000
9 30 2 0.0000 0.0000
9 30 3 0.0000 0.0000
9 30 4 0.0000 0.0000
9 31 0 0.0000 0.0000
9 31 1 0.0000 0.0000
9 31 2 0.0000 0.0000
9 31 3 0.0000 0.0000
9 32 0 0.0000 0.0000
9 32 1 0.0000 0.0000
9 32 2 0.0000 0.0000
9 32 3 0.0000 0.0000
9 33 0 0.0000 0.0000
9 33 1 0.0000 0.0000
9 33 2 0.0000 0.0000
9 33 3 0.0000 0.0000
9 34 0 0.0000 0.0000
9 34 1 0.0000 0.0000
9 34 2 0.0000 0.0000
9 35 0 0.0000 0.0000
9 35 1 0.0000 0.0000
9 35 2 0.0000 0.0000
9 36 0 0.0000 0.0000
9 36 1 0.0000 0.0000
9 36 2 0.0000 0.0000
9 37 2 0.0000 0.0000
10 0 0 0.0000 0.0000
10 0 1 0.0000 0.0000
10 0 2 0.0000 0.0000
10 0 3 0.0000 0.0000
10 0 4 0.0000 0.0000
10 0 5 0.0000 0.0000
10 0 6 0.0000 0.0000
10 0 7 0.0000 0.0000
10 0 8 0.0000 0.0000
10 0 9 0.0000 0.0000
10 0 10 0.0000 0.0000
10 1 0 0.0000 0.0000
10 1 1 0.0000 0.0000
10 1 2 0.0000 0.0000
10 1 3 0.0000 0.0000
10 1 4 0.0000 0.0000
10 1 5 0.0000 0.0000
10 1 6 0.0000 0.0000
10 1 7 0.0000 0.0000
10 1 8 0.0000 0.0000
10 1 9 0.0000 0.0000
10 1 10 0.0000 0.0000
10 2 0 0.0000 0.0000
10 2 1 0.0000 0.0000
10 2 2 0.0000 0.0000
10 2 3 0.0000 0.0000
10 2 4 0.0000 0.0000
10 2 5 0.0000 0.0000
10 2 6 0.0000 0.0000
10 2 7 0.0000 0.0000
10 2 8 0.0000 0.0000
10 2 9 0.0000 0.0000
10 2 10 0.0000 0.0000
10 3 0 0.0000 0.0000
10 3 1 0.0000 0.0000
10 3 2 0.0000 0.0000
10 3 3 0.0000 0.0000
10 3 4 0.0000 0.0000
10 3 5 0.0000 0.0000
10 3 6 0.0000 0.0000
10 3 7 0.0000 0.0000
10 3 8 0.0000 0.0000
10 3 9 0.0000 0.0000
10 3 10 0.0000 0.0000
10 4 0 0.0000 0.0000
10 4 1 0.0000 0.0000
10 4 2 0.0000 0.0000
10 4 3 0.0000 0.0000
10 4 4 0.0000 0.0000
10 4 5 0.0000 0.0000
10 4 6 0.0000 0.0000
10 4 7 0.0000 0.0000
10 4 8 0.0000 0.0000
10 4 9 0.0000 0.0000
10 4 10 0.0000 0.0000
10 5 0 0.0000 0.0000
10 5 1 0.0000 0.0000
10 5 2 0.0000 0.0000
10 5 3 0.0000 0.0000
10 5 4 0.0000 0.0000
10 5 5 0.0000 0.0000
10 5 6 0.0000 0.0000
10 5 7 0.0000 0.0000
10 5 8 0.0000 0.0000
10 5 9 0.0000 0.0000
10 5 10 0.0000 0.0000
10 6 0 0.0000 0.0000
10 6 1 0.0000 0.0000
10 6 2 0.0000 0.0000
10 6 3 0.0000 0.0000
10 6 4 0.0000 0.0000
10 6 5 0.0000 0.0000
10 6 6 0.0000 0.0000
10 6 7 0.0000 0.0000
10 6 8 0.0000 0.0000
10 6 9 0.0000 0.0000
10 6 10 0.0000 0.0000
10 7 0 0.0000 0.0000
10 7 1 0.0000 0.0000
10 7 2 0.0000 0.0000
10 7 3 0.0000 0.0000
10 7 4 0.0000 0.0000
10 7 5 0.0000 0.0000
10 7 6 0.0000 0.0000
10 7 7 0.0000 0.0000
10 7 8 0.0000 0.0000
10 7 9 0.0000 0.0000
10 7 10 0.0000 0.0000
10 8 0 0.0000 0.0000
10 8 1 0.0000 0.0000
10 8 2 0.0000 0.0000
10 8 3 0.0000 0.0000
10 8 4 0.0000 0.0000
10 8 5 0.0000 0.0000
10 8 6 0.0000 0.0000
10 8 7 0.0000 0.0000
10 8 8 0.0000 0.0000
10 8 9 0.0000 0.0000
10 8 10 0.0000 0.0000
10 9 0 0.0000 0.0000
10 9 1 0.0000 0.0000
10 9 2 0.0000 0.0000
10 9 3 0.0000 0.0000
10 9 4 0.0000 0.0000
10 9 5 0.0000 0.0000
10 9 6 0.0000 0.0000
10 9 7 0.0000 0.0000
10 9 8 0.0000 0.0000
10 9 9 0.0000 0.0000
10 9 10 0.0000 0.0000
10 10 0 0.0000 0.0000
10 10 1 0.0000 0.0000
10 10 2 0.0000 0.0000
10 10 3 0.0000 0.0000
10 10 4 0.0000 0.0000
10 10 5 0.0000 0.0000
10 10 6 0.0000 0.0000
10 10 7 0.0000 0.0000
10 10 8 0.0000 0.0000
10 10 9 0.0000 0.0000
10 10 10 0.0000 0.0000
10 11 0 0.0000 0.0000
10 11 1 0.0000 0.0000
10 11 2 0.0000 0.0000
10 11 3 0.0000 0.0000
10 11 4 0.0000 0.0000
10 11 5 0.0000 0.0000
10 11 6 0.0000 0.0000
10 11 7 0.0000 0.0000
10 11 8 0.0000 0.0000
10 11 9 0.0000 0.0000
10 11 10 0.0000 0.0000
10 12 0 0.0000 0.0000
10 12 1 0.0000 0.0000
10 12 2 0.0000 0.0000
10 12 3 0.0000 0.0000
10 12 4 0.0000 0.0000
10 12 5 0.0000 0.0000
10 12 6 0.0000 0.0000
10 12 7 0.0000 0.0000
10 12 8 0.0000 0.0000
10 12 9 0.0000 0.0000
10 12 10 0.0000 0.0000
10 13 0 0.0000 0.0000
10 13 1 0.0000 0.0000
10 13 2 0.0000 0.0000
10 13 3 0.0000 0.0000
10 13 4 0.0000 0.0000
10 13 5 0.0000 0.0000
10 13 6 0.0000 0.0000
10 13 7 0.0000 0.0000
10 13 8 0.0000 0.0000
10 13 9 0.0000 0.0000
10 13 10 0.0000 0.0000
10 14 0 0.0000 0.0000
10 14 1 0.0000 0.0000
10 14 2 0.0000 0.0000
10 14 3 0.0000 0.0000
10 14 4 0.0000 0.0000
10 14 5 0.0000 0.0000
10 14 6 0.0000 0.0000
10 14 7 0.0000 0.0000
10 14 8 0.0000 0.0000
10 14 9 0.0000 0.0000
10 14 10 0.0000 0.0000
10 15 0 0.0000 0.0000
10 15 1 0.0000 0.0000
10 15 2 0.0000 0.0000
10 15 3 0.0000 0.0000
10 15 4 0.0000 0.0000
10 15 5 0.0000 0.0000
10 15 6 0.0000 0.0000
10 15 7 0.0000 0.0000
10 15 8 0.0000 0.0000
10 15 9 0.0000 0.0000
10 15 10 0.0000 0.0000
10 16 0 0.0000 0.0000
10 16 1 0.0000 0.0000
10 16 2 0.0000 0.0000
10 16 3 0.0000 0.0000
10 16 4 0.0000 0.0000
10 16 5 0.0000 0.0000
10 16 6 0.0000 0.0000
10 16 7 0.0000 0.0000
10 16 8 0.0000 0.0000
10 16 9 0.0000 0.0000
10 16 10 0.0000 0.0000
10 16 11 0.0000 0.0000
10 17 0 0.0000 0.0000
10 17 1 0.0000 0.0000
10 17 2 0.0000 0.0000
10 17 3 0.0000 0.0000
10 17 4 0.0000 0.0000
10 17 5 0.0000 0.0000
10 17 6 0.0000 0.0000
10 17 7 0.0000 0.0000
10 17 8 0.0000 0.0000
10 17 9 0.0000 0.0000
10 17 10 0.0000 0.0000
10 17 11 0.0000 0.0000
10 18 0 0.0000 0.0000
10 18 1 0.0000 0.0000
10 18 2 0.0000 0.0000
10 18 3 0.0000 0.0000
10 18 4 0.0000 0.0000
10 18 5 0.0000 0.0000
10 18 6 0.0000 0.0000
10 18 7 0.0000 0.0000
10 18 8 0.0000 0.0000
10 18 9 0.0000 0.0000
10 18 10 0.0000 0.0000
10 18 11 0.0000 0.0000
10 19 0 0.0000 0.0000
10 19 1 0.0000 0.0000
10 19 2 0.0000 0.0000
10 19 3 0.0000 0.0000
10 19 4 0.0000 0.0000
10 19 5 0.0000 0.0000
10 19 6 0.0000 0.0000
10 19 7 0.0000 0.0000
10 19 8 0.0000 0.0000
10 19 9 0.0000 0.0000
10 19 10 0.0000 0.0000
10 20 0 0.0000 0.0000
10 20 1 0.0000 0.0000
10 20 2 0.0000 0.0000
10 20 3 0.0000 0.0000
10 20 4 0.0000 0.0000
10 20 5 0.0000 0.0000
10 20 6 0.0000 0.0000
10 20 7 0.0000 0.0000
10 20 8 0.0000 0.0000
10 20 9 0.0000 0.0000
10 20 10 0.0000 0.0000
10 21 0 0.0000 0.0000
10 21 1 0.0000 0.0000
10 21 2 0.0000 0.0000
10 21 3 0.0000 0.0000
10 21 4 0.0000 0.0000
10 21 5 0.0000 0.0000
10 21 6 0.0000 0.0000
10 21 7 0.0000 0.0000
10 21 8 0.0000 0.0000
10 21 9 0.0000 0.0000
10 22 0 0.0000 0.0000
10 22 1 0.0000 0.0000
10 22 2 0.0000 0.0000
10 22 3 0.0000 0.0000
10 22 4 0.0000 0.0000
10 22 5 0.0000 0.0000
10 22 6 0.0000 0.0000
10 22 7 0.0000 0.0000
10 22 8 0.0000 0.0000
10 23 0 0.0000 0.0000
10 23 1 0.0000 0.0000
10 23 2 0.0000 0.0000
10 23 3 0.0000 0.0000
10 23 4 0.0000 0.0000
10 23 5 0.0000 0.0000
10 23 6 0.0000 0.0000
10 23 7 0.0000 0.0000
10 23 8 0.0000 0.0000
10 24 0 0.0000 0.0000
10 24 1 0.0000 0.0000
10 24 2 0.0000 0.0000
10 24 3 0.0000 0.0000
10 24 4 0.0000 0.0000
10 24 5 0.0000 0.0000
10 24 6 0.0000 0.0000
10 24 7 0.0000 0.0000
10 25 0 0.0000 0.0000
10 25 1 0.0000 0.0000
10 25 2 0.0000 0.0000
10 25 3 0.0000 0.0000
10 25 4 0.0000 0.0000
10 25 5 0.0000 0.0000
10 25 6 0.0000 0.0000
10 26 0 0.0000 0.0000
10 26 1 0.0000 0.0000
10 26 2 0.0000 0.0000
10 26 3 0.0000 0.0000
10 26 4 0.0000 0.0000
10 26 5 0.0000 0.0000
10 27 0 0.0000 0.0000
10 27 1 0.0000 0.0000
10 27 2 0.0000 0.0000
10 27 3 0.0000 0.0000
10 27 4 0.0000 0.0000
10 28 0 0.0000 0.0000
10 28 1 0.0000 0.0000
10 28 2 0.0000 0.0000
10 28 3 0.0000 0.0000
10 29 0 0.0000 0.0000
10 29 1 0.0000 0.0000
10 29 2 0.0000 0.0000
10 30 0 0.0000 0.0000
10 30 1 0.0000 0.0000
10 30 2 0.0000 0.0000
10 31 0 0.0000 0.0000
10 31 1 0.0000 0.0000
10 31 2 0.0000 0.0000
10 32 0 0.0000 0.0000
10 32 1 0.0000 0.0000
10 32 2 0.0000 0.0000
10 33 0 0.0000 0.0000
10 33 1 0.0000 0.0000
10 34 0 0.0000 0.0000
10 34 1 0.0000 0.0000
10 35 0 0.0000 0.0000
10 35 1 0.0000 0.0000
11 0 0 0.0000 0.0000
11 0 1 0.0000 0.0000
11 0 2 0.0000 0.0000
11 0 3 0.0000 0.0000
11 0 4 0.0000 0.0000
11 0 5 0.0000 0.0000
11 0 6 0.0000 0.0000
11 0 7 0.0000 0.0000
11 0 8 0.0000 0.0000
11 0 9 0.0000 0.0000
11 1 0 0.0000 0.0000
11 1 1 0.0000 0.0000
11 1 2 0.0000 0.0000
11 1 3 0.0000 0.0000
11 1 4 0.0000 0.0000
11 1 5 0.0000 0.0000
11 1 6 0.0000 0.0000
11 1 7 0.0000 0.0000
11 1 8 0.0000 0.0000
11 1 9 0.0000 0.0000
11 2 0 0.0000 0.0000
11 2 1 0.0000 0.0000
11 2 2 0.0000 0.0000
11 2 3 0.0000 0.0000
11 2 4 0.0000 0.0000
11 2 5 0.0000 0.0000
11 2 6 0.0000 0.0000
11 2 7 0.0000 0.0000
11 2 8 0.0000 0.0000
11 2 9 0.0000 0.0000
11 3 0 0.0000 0.0000
11 3 1 0.0000 0.0000
11 3 2 0.0000 0.0000
11 3 3 0.0000 0.0000
11 3 4 0.0000 0.0000
11 3 5 0.0000 0.0000
11 3 6 0.0000 0.0000
11 3 7 0.0000 0.0000
11 3 8 0.0000 0.0000
11 3 9 0.0000 0.0000
11 4 0 0.0000 0.0000
11 4 1 0.0000 0.0000
11 4 2 0.0000 0.0000
11 4 3 0.0000 0.0000
11 4 4 0.0000 0.0000
11 4 5 0.0000 0.0000
11 4 6 0.0000 0.0000
11 4 7 0.0000 0.0000
11 4 8 0.0000 0.0000
11 4 9 0.0000 0.0000
11 5 0 0.0000 0.0000
11 5 1 0.0000 0.0000
11 5 2 0.0000 0.0000
11 5 3 0.0000 0.0000
11 5 4 0.0000 0.0000
11 5 5 0.0000 0.0000
11 5 6 0.0000 0.0000
11 5 7 0.0000 0.0000
11 5 8 0.0000 0.0000
11 5 9 0.0000 0.0000
11 6 0 0.0000 0.0000
11 6 1 0.0000 0.0000
11 6 2 0.0000 0.0000
11 6 3 0.0000 0.0000
11 6 4 0.0000 0.0000
11 6 5 0.0000 0.0000
11 6 6 0.0000 0.0000
11 6 7 0.0000 0.0000
11 6 8 0.0000 0.0000
11 6 9 0.0000 0.0000
11 7 0 0.0000 0.0000
11 7 1 0.0000 0.0000
11 7 2 0.0000 0.0000
11 7 3 0.0000 0.0000
11 7 4 0.0000 0.0000
11 7 5 0.0000 0.0000
11 7 6 0.0000 0.0000
11 7 7 0.0000 0.0000
11 7 8 0.0000 0.0000
11 7 9 0.0000 0.0000
11 8 0 0.0000 0.0000
11 8 1 0.0000 0.0000
11 8 2 0.0000 0.0000
11 8 3 0.0000 0.0000
11 8 4 0.0000 0.0000
11 8 5 0.0000 0.0000
11 8 6 0.0000 0.0000
11 8 7 0.0000 0.0000
11 8 8 0.0000 0.0000
11 8 9 0.0000 0.0000
11 9 0 0.0000 0.0000
11 9 1 0.0000 0.0000
11 9 2 0.0000 0.0000
11 9 3 0.0000 0.0000
11 9 4 0.0000 0.0000
11 9 5 0.0000 0.0000
11 9 6 0.0000 0.0000
11 9 7 0.0000 0.0000
11 9 8 0.0000 0.0000
11 9 9 0.0000 0.0000
11 10 0 0.0000 0.0000
11 10 1 0.0000 0.0000
11 10 2 0.0000 0.0000
11 10 3 0.0000 0.0000
11 10 4 0.0000 0.0000
11 10 5 0.0000 0.0000
11 10 6 0.0000 0.0000
11 10 7 0.0000 0.0000
11 10 8 0.0000 0.0000
11 10 9 0.0000 0.0000
11 11 0 0.0000 0.0000
11 11 1 0.0000 0.0000
11 11 2 0.0000 0.0000
11 11 3 0.0000 0.0000
11 11 4 0.0000 0.0000
11 11 5 0.0000 0.0000
11 11 6 0.0000 0.0000
11 11 7 0.0000 0.0000
11 11 8 0.0000 0.0000
11 11 9 0.0000 0.0000
11 12 0 0.0000 0.0000
11 12 1 0.0000 0.0000
11 12 2 0.0000 0.0000
11 12 3 0.0000 0.0000
11 12 4 0.0000 0.0000
11 12 5 0.0000 0.0000
11 12 6 0.0000 0.0000
11 12 7 0.0000 0.0000
11 12 8 0.0000 0.0000
11 12 9 0.0000 0.0000
11 13 0 0.0000 0.0000
11 13 1 0.0000 0.0000
11 13 2 0.0000 0.0000
11 13 3 0.0000 0.0000
11 13 4 0.0000 0.0000
11 13 5 0.0000 0.0000
11 13 6 0.0000 0.0000
11 13 7 0.0000 0.0000
11 13 8 0.0000 0.0000
11 13 9 0.0000 0.0000
11 14 0 0.0000 0.0000
11 14 1 0.0000 0.0000
11 14 2 0.0000 0.0000
11 14 3 0.0000 0.0000
11 14 4 0.0000 0.0000
11 14 5 0.0000 0.0000
11 14 6 0.0000 0.0000
11 14 7 0.0000 0.0000
11 14 8 0.0000 0.0000
11 14 9 0.0000 0.0000
11 15 0 0.0000 0.0000
11 15 1 0.0000 0.0000
11 15 2 0.0000 0.0000
11 15 3 0.0000 0.0000
11 15 4 0.0000 0.0000
11 15 5 0.0000 0.0000
11 15 6 0.0000 0.0000
11 15 7 0.0000 0.0000
11 15 8 0.0000 0.0000
11 15 9 0.0000 0.0000
11 15 10 0.0000 0.0000
11 16 0 0.0000 0.0000
11 16 1 0.0000 0.0000
11 16 2 0.0000 0.0000
11 16 3 0.0000 0.0000
11 16 4 0.0000 0.0000
11 16 5 0.0000 0.0000
11 16 6 0.0000 0.0000
11 16 7 0.0000 0.0000
11 16 8 0.0000 0.0000
11 16 9 0.0000 0.0000
11 16 10 0.0000 0.0000
11 17 0 0.0000 0.0000
11 17 1 0.0000 0.0000
11 17 2 0.0000 0.0000
11 17 3 0.0000 0.0000
11 17 4 0.0000 0.0000
11 17 5 0.0000 0.0000
11 17 6 0.0000 0.0000
11 17 7 0.0000 0.0000
11 17 8 0.0000 0.0000
11 17 9 0.0000 0.0000
11 17 10 0.0000 0.0000
11 18 0 0.0000 0.0000
11 18 1 0.0000 0.0000
11 18 2 0.0000 0.0000
11 18 3 0.0000 0.0000
11 18 4 0.0000 0.0000
11 18 5 0.0000 0.0000
11 18 6 0.0000 0.0000
11 18 7 0.0000 0.0000
11 18 8 0.0000 0.0000
11 18 9 0.0000 0.0000
11 19 0 0.0000 0.0000
11 19 1 0.0000 0.0000
11 19 2 0.0000 0.0000
11 19 3 0.0000 0.0000
11 19 4 0.0000 0.0000
11 19 5 0.0000 0.0000
11 19 6 0.0000 0.0000
11 19 7 0.0000 0.0000
11 19 8 0.0000 0.0000
11 19 9 0.0000 0.0000
11 20 0 0.0000 0.0000
11 20 1 0.0000 0.0000
11 20 2 0.0000 0.0000
11 20 3 0.0000 0.0000
11 20 4 0.0000 0.0000
11 20 5 0.0000 0.0000
11 20 6 0.0000 0.0000
11 20 7 0.0000 0.0000
11 20 8 0.0000 0.0000
11 21 0 0.0000 0.0000
11 21 1 0.0000 0.0000
11 21 2 0.0000 0.0000
11 21 3 0.0000 0.0000
11 21 4 0.0000 0.0000
11 21 5 0.0000 0.0000
11 21 6 0.0000 0.0000
11 21 7 0.0000 0.0000
11 22 0 0.0000 0.0000
11 22 1 0.0000 0.0000
11 22 2 0.0000 0.0000
11 22 3 0.0000 0.0000
11 22 4 0.0000 0.0000
11 22 5 0.0000 0.0000
11 22 6 0.0000 0.0000
11 22 7 0.0000 0.0000
11 23 0 0.0000 0.0000
11 23 1 0.0000 0.0000
11 23 2 0.0000 0.0000
11 23 3 0.0000 0.0000
11 23 4 0.0000 0.0000
11 23 5 0.0000 0.0000
11 23 6 0.0000 0.0000
11 24 0 0.0000 0.0000
11 24 1 0.0000 0.0000
11 24 2 0.0000 0.0000
11 24 3 0.0000 0.0000
11 24 4 0.0000 0.0000
11 24 5 0.0000 0.0000
11 25 0 0.0000 0.0000
11 25 1 0.0000 0.0000
11 25 2 0.0000 0.0000
11 25 3 0.0000 0.0000
11 25 4 0.0000 0.0000
11 26 0 0.0000 0.0000
11 26 1 0.0000 0.0000
11 26 2 0.0000 0.0000
11 27 0 0.0000 0.0000
11 27 1 0.0000 0.0000
11 28 0 0.0000 0.0000
11 28 1 0.0000 0.0000
11 29 0 0.0000 0.0000
11 29 1 0.0000 0.0000
11 30 0 0.0000 0.0000
11 30 1 0.0000 0.0000
11 31 0 0.0000 0.0000
11 32 0 0.0000 0.0000
11 33 0 0.0000 0.0000
12 0 0 0.0000 0.0000
12 0 1 0.0000 0.0000
12 0 2 0.0000 0.0000
12 0 3 0.0000 0.0000
12 0 4 0.0000 0.0000
12 0 5 0.0000 0.0000
12 0 6 0.0000 0.0000
12 0 7 0.0000 0.0000
12 0 8 0.0000 0.0000
12 1 0 0.0000 0.0000
12 1 1 0.0000 0.0000
12 1 2 0.0000 0.0000
12 1 3 0.0000 0.0000
12 1 4 0.0000 0.0000
12 1 5 0.0000 0.0000
12 1 6 0.0000 0.0000
12 1 7 0.0000 0.0000
12 2 0 0.0000 0.0000
12 2 1 0.0000 0.0000
12 2 2 0.0000 0.0000
12 2 3 0.0000 0.0000
12 2 4 0.0000 0.0000
12 2 5 0.0000 0.0000
12 2 6 0.0000 0.0000
12 2 7 0.0000 0.0000
12 3 0 0.0000 0.0000
12 3 1 0.0000 0.0000
12 3 2 0.0000 0.0000
12 3 3 0.0000 0.0000
12 3 4 0.0000 0.0000
12 3 5 0.0000 0.0000
12 3 6 0.0000 0.0000
12 3 7 0.0000 0.0000
12 4 0 0.0000 0.0000
12 4 1 0.0000 0.0000
12 4 2 0.0000 0.0000
12 4 3 0.0000 0.0000
12 4 4 0.0000 0.0000
12 4 5 0.0000 0.0000
12 4 6 0.0000 0.0000
12 4 7 0.0000 0.0000
12 5 0 0.0000 0.0000
12 5 1 0.0000 0.0000
12 5 2 0.0000 0.0000
12 5 3 0.0000 0.0000
12 5 4 0.0000 0.0000
12 5 5 0.0000 0.0000
12 5 6 0.0000 0.0000
12 5 7 0.0000 0.0000
12 6 0 0.0000 0.0000
12 6 1 0.0000 0.0000
12 6 2 0.0000 0.0000
12 6 3 0.0000 0.0000
12 6 4 0.0000 0.0000
12 6 5 0.0000 0.0000
12 6 6 0.0000 0.0000
12 6 7 0.0000 0.0000
12 7 0 0.0000 0.0000
12 7 1 0.0000 0.0000
12 7 2 0.0000 0.0000
12 7 3 0.0000 0.0000
12 7 4 0.0000 0.0000
12 7 5 0.0000 0.0000
12 7 6 0.0000 0.0000
12 7 7 0.0000 0.0000
12 8 0 0.0000 0.0000
12 8 1 0.0000 0.0000
12 8 2 0.0000 0.0000
12 8 3 0.0000 0.0000
12 8 4 0.0000 0.0000
12 8 5 0.0000 0.0000
12 8 6 0.0000 0.0000
12 8 7 0.0000 0.0000
12 9 0 0.0000 0.0000
12 9 1 0.0000 0.0000
12 9 2 0.0000 0.0000
12 9 3 0.0000 0.0000
12 9 4 0.0000 0.0000
12 9 5 0.0000 0.0000
12 9 6 0.0000 0.0000
12 9 7 0.0000 0.0000
12 10 0 0.0000 0.0000
12 10 1 0.0000 0.0000
12 10 2 0.0000 0.0000
12 10 3 0.0000 0.0000
12 10 4 0.0000 0.0000
12 10 5 0.0000 0.0000
12 10 6 0.0000 0.0000
12 10 7 0.0000 0.0000
12 11 0 0.0000 0.0000
12 11 1 0.0000 0.0000
12 11 2 0.0000 0.0000
12 11 3 0.0000 0.0000
12 11 4 0.0000 0.0000
12 11 5 0.0000 0.0000
12 11 6 0.0000 0.0000
12 11 7 0.0000 0.0000
12 11 8 0.0000 0.0000
12 12 0 0.0000 0.0000
12 12 1 0.0000 0.0000
12 12 2 0.0000 0.0000
12 12 3 0.0000 0.0000
12 12 4 0.0000 0.0000
12 12 5 0.0000 0.0000
12 12 6 0.0000 0.0000
12 12 7 0.0000 0.0000
12 12 8 0.0000 0.0000
12 13 0 0.0000 0.0000
12 13 1 0.0000 0.0000
12 13 2 0.0000 0.0000
12 13 3 0.0000 0.0000
12 13 4 0.0000 0.0000
12 13 5 0.0000 0.0000
12 13 6 0.0000 0.0000
12 13 7 0.0000 0.0000
12 13 8 0.0000 0.0000
12 14 0 0.0000 0.0000
12 14 1 0.0000 0.0000
12 14 2 0.0000 0.0000
12 14 3 0.0000 0.0000
12 14 4 0.0000 0.0000
12 14 5 0.0000 0.0000
12 14 6 0.0000 0.0000
12 14 7 0.0000 0.0000
12 14 8 0.0000 0.0000
12 15 0 0.0000 0.0000
12 15 1 0.0000 0.0000
12 15 2 0.0000 0.0000
12 15 3 0.0000 0.0000
12 15 4 0.0000 0.0000
12 15 5 0.0000 0.0000
12 15 6 0.0000 0.0000
12 15 7 0.0000 0.0000
12 15 8 0.0000 0.0000
12 15 9 0.0000 0.0000
12 16 0 0.0000 0.0000
12 16 1 0.0000 0.0000
12 16 2 0.0000 0.0000
12 16 3 0.0000 0.0000
12 16 4 0.0000 0.0000
12 16 5 0.0000 0.0000
12 16 6 0.0000 0.0000
12 16 7 0.0000 0.0000
12 16 8 0.0000 0.0000
12 16 9 0.0000 0.0000
12 17 0 0.0000 0.0000
12 17 1 0.0000 0.0000
12 17 2 0.0000 0.0000
12 17 3 0.0000 0.0000
12 17 4 0.0000 0.0000
12 17 5 0.0000 0.0000
12 17 6 0.0000 0.0000
12 17 7 0.0000 0.0000
12 17 8 0.0000 0.0000
12 18 0 0.0000 0.0000
12 18 1 0.0000 0.0000
12 18 2 0.0000 0.0000
12 18 3 0.0000 0.0000
12 18 4 0.0000 0.0000
12 18 5 0.0000 0.0000
12 18 6 0.0000 0.0000
12 18 7 0.0000 0.0000
12 18 8 0.0000 0.0000
12 19 0 0.0000 0.0000
12 19 1 0.0000 0.0000
12 19 2 0.0000 0.0000
12 19 3 0.0000 0.0000
12 19 4 0.0000 0.0000
12 19 5 0.0000 0.0000
12 19 6 0.0000 0.0000
12 19 7 0.0000 0.0000
12 20 0 0.0000 0.0000
12 20 1 0.0000 0.0000
12 20 2 0.0000 0.0000
12 20 3 0.0000 0.0000
12 20 4 0.0000 0.0000
12 20 5 0.0000 0.0000
12 20 6 0.0000 0.0000
12 21 0 0.0000 0.0000
12 21 1 0.0000 0.0000
12 21 2 0.0000 0.0000
12 21 3 0.0000 0.0000
12 21 4 0.0000 0.0000
12 21 5 0.0000 0.0000
12 22 0 0.0000 0.0000
12 22 1 0.0000 0.0000
12 22 2 0.0000 0.0000
12 22 3 0.0000 0.0000
12 22 4 0.0000 0.0000
12 23 0 0.0000 0.0000
12 23 1 0.0000 0.0000
12 23 2 0.0000 0.0000
12 24 0 0.0000 0.0000
12 25 0 0.0000 0.0000
12 26 0 0.0000 0.0000
12 27 0 0.0000 0.0000
13 0 1 0.0000 0.0000
13 0 2 0.0000 0.0000
13 0 3 0.0000 0.0000
13 0 4 0.0000 0.0000
13 0 5 0.0000 0.0000
13 0 6 0.0000 0.0000
13 1 0 0.0000 0.0000
13 1 1 0.0000 0.0000
13 1 2 0.0000 0.0000
13 1 3 0.0000 0.0000
13 1 4 0.0000 0.0000
13 1 5 0.0000 0.0000
13 1 6 0.0000 0.0000
13 2 0 0.0000 0.0000
13 2 1 0.0000 0.0000
13 2 2 0.0000 0.0000
13 2 3 0.0000 0.0000
13 2 4 0.0000 0.0000
13 2 5 0.0000 0.0000
13 2 6 0.0000 0.0000
13 3 0 0.0000 0.0000
13 3 1 0.0000 0.0000
13 3 2 0.0000 0.0000
13 3 3 0.0000 0.0000
13 3 4 0.0000 0.0000
13 3 5 0.0000 0.0000
13 3 6 0.0000 0.0000
13 4 0 0.0000 0.0000
13 4 1 0.0000 0.0000
13 4 2 0.0000 0.0000
13 4 3 0.0000 0.0000
13 4 4 0.0000 0.0000
13 4 5 0.0000 0.0000
13 4 6 0.0000 0.0000
13 5 0 0.0000 0.0000
13 5 1 0.0000 0.0000
13 5 2 0.0000 0.0000
13 5 3 0.0000 0.0000
13 5 4 0.0000 0.0000
13 5 5 0.0000 0.0000
13 5 6 0.0000 0.0000
13 6 0 0.0000 0.0000
13 6 1 0.0000 0.0000
13 6 2 0.0000 0.0000
13 6 3 0.0000 0.0000
13 6 4 0.0000 0.0000
13 6 5 0.0000 0.0000
13 6 6 0.0000 0.0000
13 7 0 0.0000 0.0000
13 7 1 0.0000 0.0000
13 7 2 0.0000 0.0000
13 7 3 0.0000 0.0000
13 7 4 0.0000 0.0000
13 7 5 0.0000 0.0000
13 7 6 0.0000 0.0000
13 8 0 0.0000 0.0000
13 8 1 0.0000 0.0000
13 8 2 0.0000 0.0000
13 8 3 0.0000 0.0000
13 8 4 0.0000 0.0000
13 8 5 0.0000 0.0000
13 8 6 0.0000 0.0000
13 9 0 0.0000 0.0000
13 9 1 0.0000 0.0000
13 9 2 0.0000 0.0000
13 9 3 0.0000 0.0000
13 9 4 0.0000 0.0000
13 9 5 0.0000 0.0000
13 9 6 0.0000 0.0000
13 10 0 0.0000 0.0000
13 10 1 0.0000 0.0000
13 10 2 0.0000 0.0000
13 10 3 0.0000 0.0000
13 10 4 0.0000 0.0000
13 10 5 0.0000 0.0000
13 10 6 0.0000 0.0000
13 11 0 0.0000 0.0000
13 11 1 0.0000 0.0000
13 11 2 0.0000 0.0000
13 11 3 0.0000 0.0000
13 11 4 0.0000 0.0000
13 11 5 0.0000 0.0000
13 11 6 0.0000 0.0000
13 11 7 0.0000 0.0000
13 12 0 0.0000 0.0000
13 12 1 0.0000 0.0000
13 12 2 0.0000 0.0000
13 12 3 0.0000 0.0000
13 12 4 0.0000 0.0000
13 12 5 0.0000 0.0000
13 12 6 0.0000 0.0000
13 12 7 0.0000 0.0000
13 13 0 0.0000 0.0000
13 13 1 0.0000 0.0000
13 13 2 0.0000 0.0000
13 13 3 0.0000 0.0000
13 13 4 0.0000 0.0000
13 13 5 0.0000 0.0000
13 13 6 0.0000 0.0000
13 13 7 0.0000 0.0000
13 14 0 0.0000 0.0000
13 14 1 0.0000 0.0000
13 14 2 0.0000 0.0000
13 14 3 0.0000 0.0000
13 14 4 0.0000 0.0000
13 14 5 0.0000 0.0000
13 14 6 0.0000 0.0000
13 14 7 0.0000 0.0000
13 15 0 0.0000 0.0000
13 15 1 0.0000 0.0000
13 15 2 0.0000 0.0000
13 15 3 0.0000 0.0000
13 15 4 0.0000 0.0000
13 15 5 0.0000 0.0000
13 15 6 0.0000 0.0000
13 15 7 0.0000 0.0000
13 16 0 0.0000 0.0000
13 16 1 0.0000 0.0000
13 16 2 0.0000 0.0000
13 16 3 0.0000 0.0000
13 16 4 0.0000 0.0000
13 16 5 0.0000 0.0000
13 16 6 0.0000 0.0000
13 16 7 0.0000 0.0000
13 17 0 0.0000 0.0000
13 17 1 0.0000 0.0000
13 17 2 0.0000 0.0000
13 17 3 0.0000 0.0000
13 17 4 0.0000 0.0000
13 17 5 0.0000 0.0000
13 17 6 0.0000 0.0000
13 18 0 0.0000 0.0000
13 18 1 0.0000 0.0000
13 18 2 0.0000 0.0000
13 18 3 0.0000 0.0000
13 18 4 0.0000 0.0000
13 18 5 0.0000 0.0000
13 19 0 0.0000 0.0000
13 19 1 0.0000 0.0000
13 19 2 0.0000 0.0000
13 19 3 0.0000 0.0000
13 19 4 0.0000 0.0000
13 20 0 0.0000 0.0000
13 20 1 0.0000 0.0000
13 20 2 0.0000 0.0000
13 20 3 0.0000 0.0000
13 21 0 0.0000 0.0000
13 21 1 0.0000 0.0000
13 21 2 0.0000 0.0000
13 22 1 0.0000 0.0000
13 23 1 0.0000 0.0000
14 0 2 0.0000 0.0000
14 0 3 0.0000 0.0000
14 0 4 0.0000 0.0000
14 1 1 0.0000 0.0000
14 1 2 0.0000 0.0000
14 1 3 0.0000 0.0000
14 1 4 0.0000 0.0000
14 2 1 0.0000 0.0000
14 2 2 0.0000 0.0000
14 2 3 0.0000 0.0000
14 2 4 0.0000 0.0000
14 3 0 0.0000 0.0000
14 3 1 0.0000 0.0000
14 3 2 0.0000 0.0000
14 3 3 0.0000 0.0000
14 3 4 0.0000 0.0000
14 4 0 0.0000 0.0000
14 4 1 0.0000 0.0000
14 4 2 0.0000 0.0000
14 4 3 0.0000 0.0000
14 4 4 0.0000 0.0000
14 5 0 0.0000 0.0000
14 5 1 0.0000 0.0000
14 5 2 0.0000 0.0000
14 5 3 0.0000 0.0000
14 5 4 0.0000 0.0000
14 6 0 0.0000 0.0000
14 6 1 0.0000 0.0000
14 6 2 0.0000 0.0000
14 6 3 0.0000 0.0000
14 6 4 0.0000 0.0000
14 7 0 0.0000 0.0000
14 7 1 0.0000 0.0000
14 7 2 0.0000 0.0000
14 7 3 0.0000 0.0000
14 7 4 0.0000 0.0000
14 7 5 0.0000 0.0000
14 8 0 0.0000 0.0000
14 8 1 0.0000 0.0000
14 8 2 0.0000 0.0000
14 8 3 0.0000 0.0000
14 8 4 0.0000 0.0000
14 8 5 0.0000 0.0000
14 9 0 0.0000 0.0000
14 9 1 0.0000 0.0000
14 9 2 0.0000 0.0000
14 9 3 0.0000 0.0000
14 9 4 0.0000 0.0000
14 9 5 0.0000 0.0000
14 10 0 0.0000 0.0000
14 10 1 0.0000 0.0000
14 10 2 0.0000 0.0000
14 10 3 0.0000 0.0000
14 10 4 0.0000 0.0000
14 10 5 0.0000 0.0000
14 11 0 0.0000 0.0000
14 11 1 0.0000 0.0000
14 11 2 0.0000 0.0000
14 11 3 0.0000 0.0000
14 11 4 0.0000 0.0000
14 11 5 0.0000 0.0000
14 11 6 0.0000 0.0000
14 12 0 0.0000 0.0000
14 12 1 0.0000 0.0000
14 12 2 0.0000 0.0000
14 12 3 0.0000 0.0000
14 12 4 0.0000 0.0000
14 12 5 0.0000 0.0000
14 12 6 0.0000 0.0000
14 13 0 0.0000 0.0000
14 13 1 0.0000 0.0000
14 13 2 0.0000 0.0000
14 13 3 0.0000 0.0000
14 13 4 0.0000 0.0000
14 13 5 0.0000 0.0000
14 13 6 0.0000 0.0000
14 14 0 0.0000 0.0000
14 14 1 0.0000 0.0000
14 14 2 0.0000 0.0000
14 14 3 0.0000 0.0000
14 14 4 0.0000 0.0000
14 14 5 0.0000 0.0000
14 15 0 0.0000 0.0000
14 15 1 0.0000 0.0000
14 15 2 0.0000 0.0000
14 15 3 0.0000 0.0000
14 15 4 0.0000 0.0000
14 16 0 0.0000 0.0000
14 16 1 0.0000 0.0000
14 16 2 0.0000 0.0000
14 16 3 0.0000 0.0000
14 17 0 0.0000 0.0000
14 17 1 0.0000 0.0000
14 17 2 0.0000 0.0000
14 17 3 0.0000 0.0000
14 18 0 0.0000 0.0000
14 18 1 0.0000 0.0000
14 18 2 0.0000 0.0000
14 19 1 0.0000 0.0000
14 19 2 0.0000 0.0000
14 20 1 0.0000 0.0000
14 20 2 0.0000 0.0000
14 21 1 0.0000 0.0000
14 21 2 0.0000 0.0000
15 1 2 0.0000 0.0000
15 2 2 0.0000 0.0000
15 3 1 0.0000 0.0000
15 3 2 0.0000 0.0000
15 4 1 0.0000 0.0000
15 4 2 0.0000 0.0000
15 4 3 0.0000 0.0000
15 5 0 0.0000 0.0000
15 5 1 0.0000 0.0000
15 5 2 0.0000 0.0000
15 5 3 0.0000 0.0000
15 6 0 0.0000 0.0000
15 6 1 0.0000 0.0000
15 6 2 0.0000 0.0000
15 6 3 0.0000 0.0000
15 7 0 0.0000 0.0000
15 7 1 0.0000 0.0000
15 7 2 0.0000 0.0000
15 7 3 0.0000 0.0000
15 8 0 0.0000 0.0000
15 8 1 0.0000 0.0000
15 8 2 0.0000 0.0000
15 8 3 0.0000 0.0000
15 8 4 0.0000 0.0000
15 9 0 0.0000 0.0000
15 9 1 0.0000 0.0000
15 9 2 0.0000 0.0000
15 9 3 0.0000 0.0000
15 9 4 0.0000 0.0000
15 10 0 0.0000 0.0000
15 10 1 0.0000 0.0000
15 10 2 0.0000 0.0000
15 10 3 0.0000 0.0000
15 10 4 0.0000 0.0000
15 11 0 0.0000 0.0000
15 11 1 0.0000 0.0000
15 11 2 0.0000 0.0000
15 11 3 0.0000 0.0000
15 11 4 0.0000 0.0000
15 12 0 0.0000 0.0000
15 12 1 0.0000 0.0000
15 12 2 0.0000 0.0000
15 13 0 0.0000 0.0000
15 13 1 0.0000 0.0000
15 14 0 0.0000 0.0000
15 14 1 0.0000 0.0000
15 15 1 0.0000 0.0000
15 16 1 0.0000 0.0000
15 17 1 0.0000 0.0000
16 8 0 0.0000 0.0000
16 9 0 0.0000 0.0000
0 0 0 0.0 0.0
;
_shelx_fab_checksum              73568
_olex2_submission_special_instructions 'No special instructions were received'
loop_
_space_group_symop_operation_xyz
'x, y, z'
'-x, y+1/2, -z'
'-x, -y, -z'
'x, -y-1/2, z'
loop_
_atom_site_label
_atom_site_type_symbol
_atom_site_fract_x
_atom_site_fract_y
_atom_site_fract_z
_atom_site_U_iso_or_equiv
_atom_site_adp_type
_atom_site_occupancy
_atom_site_site_symmetry_order
_atom_site_calc_flag
_atom_site_refinement_flags_posn
_atom_site_refinement_flags_adp
_atom_site_refinement_flags_occupancy
_atom_site_disorder_assembly
_atom_site_disorder_group
I1 I 0.8916(3) 0.250000 0.8873(2) 0.0509(11) Uani 1 2 d S T P . .
Mn1 Mn 1.2938(3) -0.06389(12) 1.3916(3) 0.0242(11) Uani 1 1 d . . . . .
C1 C 1.214(2) -0.1413(7) 1.2592(17) 0.021(5) Uani 1 1 d . U . . .
H1A H 1.194637 -0.166423 1.225564 0.025 Uiso 1 1 calc R U . . .
H1B H 1.271805 -0.146265 1.314381 0.025 Uiso 1 1 calc R U . . .
Mn2 Mn 1.500000 0.000000 1.500000 0.0244(15) Uani 1 2 d S . P . .
Cu3 Cu 0.9190(4) 0.250000 1.0752(4) 0.0450(16) Uani 1 2 d S T P . .
N11 N 1.1216(17) -0.1259(6) 1.3021(14) 0.023(4) Uani 1 1 d . U . . .
N12 N 1.1361(15) -0.0981(6) 1.3776(13) 0.016(4) Uani 1 1 d . U . . .
C13 C 1.036(2) -0.0859(8) 1.4016(19) 0.028(6) Uani 1 1 d . U . . .
C14 C 0.958(2) -0.1042(8) 1.346(2) 0.030(5) Uani 1 1 d . U . . .
C15 C 1.014(2) -0.1291(8) 1.2772(18) 0.024(5) Uani 1 1 d . U . . .
C16 C 1.0346(19) -0.0531(7) 1.4746(16) 0.016(6) Uiso 1 1 d . U . . .
H16A H 1.043039 -0.063109 1.544956 0.023 Uiso 1 1 calc R U . . .
H16B H 0.965150 -0.039339 1.463820 0.023 Uiso 1 1 calc R U . . .
H16C H 1.094372 -0.035262 1.463524 0.023 Uiso 1 1 calc R U . . .
C17 C 0.973(2) -0.1603(8) 1.203(2) 0.046(9) Uani 1 1 d . U . . .
H17A H 1.014717 -0.159564 1.141870 0.069 Uiso 1 1 calc R U . . .
H17B H 0.895907 -0.155813 1.182069 0.069 Uiso 1 1 calc R U . . .
H17C H 0.981713 -0.185820 1.235473 0.069 Uiso 1 1 calc R U . . .
C21 C 0.841(2) -0.1001(8) 1.3416(19) 0.027(5) Uani 1 1 d . U . . .
C22 C 0.773(2) -0.1318(9) 1.352(2) 0.041(7) Uani 1 1 d . U . . .
H22 H 0.803115 -0.157268 1.356512 0.049 Uiso 1 1 calc R U . . .
C23 C 0.659(2) -0.1265(8) 1.3562(18) 0.034(6) Uani 1 1 d . U . . .
H23 H 0.611515 -0.148062 1.356302 0.040 Uiso 1 1 calc R U . . .
C24 C 0.618(2) -0.0872(7) 1.3602(19) 0.024(6) Uiso 1 1 d . U . . .
C25 C 0.682(2) -0.0568(9) 1.3493(18) 0.033(7) Uiso 1 1 d . U . . .
H25 H 0.652675 -0.031329 1.350862 0.039 Uiso 1 1 calc R U . . .
C26 C 0.797(2) -0.0624(8) 1.3347(18) 0.028(6) Uani 1 1 d . U . . .
H26 H 0.841105 -0.040856 1.320741 0.033 Uiso 1 1 calc R U . . .
C27 C 0.497(2) -0.0833(7) 1.3721(18) 0.014(5) Uiso 1 1 d . U . . .
O28 O 0.4338(14) -0.1114(5) 1.3767(14) 0.039(5) Uani 1 1 d . U . . .
O29 O 0.4681(13) -0.0490(6) 1.3840(13) 0.038(5) Uani 1 1 d . U . . .
N31 N 1.2544(17) -0.1150(6) 1.1848(14) 0.023(5) Uani 1 1 d . U . . .
N32 N 1.2755(15) -0.0758(6) 1.2163(14) 0.016(5) Uiso 1 1 d . U . . .
C33 C 1.304(2) -0.0583(8) 1.1294(19) 0.025(6) Uiso 1 1 d . U . . .
C34 C 1.285(2) -0.0871(7) 1.045(2) 0.026(6) Uiso 1 1 d . U . . .
C35 C 1.267(2) -0.1215(7) 1.0811(18) 0.023(6) Uani 1 1 d . U . . .
C36 C 1.346(2) -0.0177(7) 1.140(2) 0.032(7) Uiso 1 1 d . U . . .
H36A H 1.284661 0.000315 1.142355 0.049 Uiso 1 1 calc R U . . .
H36B H 1.387390 -0.011341 1.081369 0.049 Uiso 1 1 calc R U . . .
H36C H 1.393288 -0.015391 1.203522 0.049 Uiso 1 1 calc R U . . .
C37 C 1.247(2) -0.1606(6) 1.0317(17) 0.027(7) Uani 1 1 d . U . . .
H37A H 1.285758 -0.162248 0.969327 0.040 Uiso 1 1 calc R U . . .
H37B H 1.168785 -0.164064 1.014130 0.040 Uiso 1 1 calc R U . . .
H37C H 1.273125 -0.181069 1.079597 0.040 Uiso 1 1 calc R U . . .
C41 C 1.301(2) -0.0761(8) 0.937(2) 0.029(6) Uani 1 1 d . U . . .
C42 C 1.375(2) -0.0507(7) 0.9074(18) 0.024(6) Uani 1 1 d . U . . .
H42 H 1.420356 -0.037070 0.957653 0.029 Uiso 1 1 calc R U . . .
C43 C 1.387(2) -0.0441(8) 0.8056(18) 0.023(6) Uani 1 1 d . U . . .
H43 H 1.441137 -0.025990 0.789524 0.027 Uiso 1 1 calc R U . . .
C44 C 1.3289(18) -0.0609(7) 0.7261(15) 0.015(5) Uiso 1 1 d D U . . .
C45 C 1.2558(19) -0.0888(7) 0.7608(18) 0.020(6) Uiso 1 1 d . U . . .
H45 H 1.214306 -0.103860 0.711089 0.024 Uiso 1 1 calc R U . . .
C46 C 1.241(2) -0.0955(7) 0.8670(18) 0.021(6) Uiso 1 1 d . U . . .
H46 H 1.188634 -0.113763 0.886327 0.026 Uiso 1 1 calc R U . . .
C47 C 1.342(2) -0.0557(8) 0.6163(16) 0.027(7) Uiso 1 1 d D U . . .
O48 O 1.2884(14) -0.0749(5) 0.5518(13) 0.031(5) Uiso 1 1 d . U . . .
O49 O 1.4041(16) -0.0293(6) 0.6006(14) 0.048(6) Uiso 1 1 d . U . . .
C51 C 0.873(3) 0.250000 1.314(3) 0.041(8) Uani 1 2 d S TU P . .
H51A H 0.795785 0.250000 1.287639 0.050 Uiso 1 2 calc R U P . .
H51B H 0.877189 0.250000 1.389728 0.050 Uiso 1 2 calc R U P . .
N61 N 0.9285(19) 0.2158(7) 1.2766(18) 0.043(5) Uani 1 1 d . U . . .
N62 N 0.9447(18) 0.2067(7) 1.1800(18) 0.038(5) Uani 1 1 d . U . . .
C63 C 0.999(2) 0.1735(8) 1.186(2) 0.036(6) Uani 1 1 d . U . . .
C64 C 1.021(2) 0.1596(8) 1.278(2) 0.031(5) Uani 1 1 d . U . . .
C65 C 0.978(2) 0.1843(8) 1.3423(18) 0.034(6) Uani 1 1 d D U . . .
C66 C 1.030(2) 0.1585(8) 1.0878(18) 0.037(8) Uani 1 1 d . U . . .
H66A H 1.049178 0.180269 1.044308 0.056 Uiso 1 1 calc R U . . .
H66B H 0.968756 0.144196 1.053619 0.056 Uiso 1 1 calc R U . . .
H66C H 1.092579 0.141174 1.099525 0.056 Uiso 1 1 calc R U . . .
C67 C 0.973(3) 0.1873(9) 1.4551(17) 0.063(10) Uani 1 1 d D U . . .
H67A H 0.943094 0.163307 1.481302 0.094 Uiso 1 1 calc R U . . .
H67B H 0.927274 0.209301 1.471071 0.094 Uiso 1 1 calc R U . . .
H67C H 1.046981 0.191289 1.487293 0.094 Uiso 1 1 calc R U . . .
C71 C 1.085(2) 0.1258(8) 1.3154(19) 0.025(5) Uani 1 1 d . U . . .
C72 C 1.181(2) 0.1272(7) 1.3719(19) 0.028(6) Uani 1 1 d . U . . .
H72 H 1.207329 0.151758 1.395482 0.034 Uiso 1 1 calc R U . . .
C73 C 1.239(2) 0.0958(7) 1.396(2) 0.032(6) Uani 1 1 d . U . . .
H73 H 1.303450 0.098084 1.440554 0.038 Uiso 1 1 calc R U . . .
C74 C 1.207(2) 0.0593(7) 1.357(2) 0.032(6) Uani 1 1 d D U . . .
C75 C 1.117(2) 0.0576(8) 1.2927(18) 0.029(7) Uiso 1 1 d . U . . .
H75 H 1.095343 0.033100 1.264514 0.035 Uiso 1 1 calc R U . . .
C76 C 1.052(2) 0.0910(8) 1.264(2) 0.032(7) Uiso 1 1 d . U . . .
H76 H 0.991477 0.089921 1.215208 0.038 Uiso 1 1 calc R U . . .
C77 C 1.267(2) 0.0240(7) 1.393(2) 0.026(6) Uani 1 1 d D U . . .
O78 O 1.3661(15) 0.0285(5) 1.4273(14) 0.040(5) Uani 1 1 d . U . . .
O79 O 1.2301(15) -0.0079(5) 1.3696(12) 0.033(5) Uani 1 1 d . U . . .
loop_
_atom_site_aniso_label
_atom_site_aniso_U_11
_atom_site_aniso_U_22
_atom_site_aniso_U_33
_atom_site_aniso_U_23
_atom_site_aniso_U_13
_atom_site_aniso_U_12
I1 0.072(2) 0.0256(17) 0.056(2) 0.000 0.0091(18) 0.000
Mn1 0.021(2) 0.029(2) 0.022(2) -0.003(2) 0.0013(18) 0.007(2)
C1 0.024(10) 0.027(12) 0.012(10) 0.004(8) 0.002(8) 0.016(9)
Mn2 0.021(3) 0.030(4) 0.022(3) 0.007(3) 0.002(3) 0.002(3)
Cu3 0.045(4) 0.028(3) 0.062(4) 0.000 0.000(3) 0.000
N11 0.024(8) 0.028(10) 0.019(9) -0.004(7) 0.009(6) -0.001(7)
N12 0.017(8) 0.025(10) 0.006(9) 0.003(7) 0.003(7) 0.007(7)
C13 0.024(9) 0.035(13) 0.026(12) -0.014(10) 0.009(8) 0.010(8)
C14 0.024(7) 0.039(12) 0.028(12) -0.009(9) 0.012(7) 0.001(7)
C15 0.026(8) 0.037(12) 0.011(11) -0.009(9) 0.009(7) 0.000(8)
C17 0.016(15) 0.043(16) 0.077(19) -0.039(14) -0.006(14) 0.011(12)
C21 0.028(7) 0.023(9) 0.032(13) 0.001(11) 0.017(9) -0.004(7)
C22 0.037(10) 0.037(11) 0.046(15) -0.001(13) -0.003(12) -0.019(10)
C23 0.035(10) 0.040(15) 0.024(14) 0.005(12) -0.011(11) -0.027(11)
C26 0.022(12) 0.032(10) 0.028(14) 0.003(11) -0.002(11) 0.003(9)
O28 0.030(11) 0.027(11) 0.058(13) -0.003(10) -0.004(10) -0.005(9)
O29 0.011(10) 0.067(14) 0.036(11) 0.009(11) 0.001(9) 0.007(10)
N31 0.032(11) 0.029(10) 0.008(8) -0.005(7) 0.002(7) 0.008(9)
C35 0.042(14) 0.017(10) 0.012(9) -0.004(8) 0.007(9) 0.008(11)
C37 0.06(2) 0.013(11) 0.004(12) 0.001(9) -0.003(13) 0.016(11)
C41 0.016(12) 0.036(13) 0.034(13) 0.012(11) -0.010(10) -0.012(10)
C42 0.029(13) 0.024(12) 0.021(10) -0.006(10) 0.008(10) -0.009(10)
C43 0.025(14) 0.025(13) 0.018(10) -0.005(10) 0.010(10) 0.008(11)
C51 0.05(2) 0.034(12) 0.046(19) 0.000 0.016(16) 0.000
N61 0.050(14) 0.034(10) 0.047(10) 0.001(8) 0.015(10) 0.005(9)
N62 0.035(13) 0.037(11) 0.042(9) 0.002(8) 0.007(10) 0.005(9)
C63 0.045(15) 0.034(11) 0.029(8) -0.007(8) 0.000(10) 0.005(10)
C64 0.031(13) 0.035(11) 0.028(9) -0.008(8) 0.004(9) 0.004(9)
C65 0.035(14) 0.030(11) 0.038(8) -0.003(8) 0.017(10) 0.000(10)
C66 0.030(17) 0.059(19) 0.023(10) 0.010(11) 0.002(12) 0.033(15)
C67 0.12(3) 0.027(18) 0.041(9) -0.001(12) 0.029(14) -0.001(19)
C71 0.020(11) 0.037(11) 0.020(12) -0.008(9) 0.009(9) 0.002(8)
C72 0.027(11) 0.009(9) 0.048(15) 0.001(10) -0.003(10) -0.006(8)
C73 0.040(13) 0.020(8) 0.037(15) -0.002(9) 0.002(11) 0.009(8)
C74 0.035(12) 0.013(7) 0.048(14) 0.003(9) -0.006(12) 0.013(8)
C77 0.028(10) 0.012(7) 0.038(14) 0.001(8) 0.002(9) 0.014(7)
O78 0.029(9) 0.032(10) 0.057(13) 0.002(10) -0.002(9) 0.017(8)
O79 0.062(12) 0.011(7) 0.027(10) 0.011(8) 0.014(9) 0.000(8)
loop_
_atom_type_symbol
_atom_type_description
_atom_type_scat_dispersion_real
_atom_type_scat_dispersion_imag
_atom_type_scat_source
C C 0.0033 0.0016 'International Tables Vol C Tables 4.2.6.8 and 6.1.1.4'
H H 0.0000 0.0000 'International Tables Vol C Tables 4.2.6.8 and 6.1.1.4'
Cu Cu 0.3201 1.2651 'International Tables Vol C Tables 4.2.6.8 and 6.1.1.4'
I I -0.4742 1.8119 'International Tables Vol C Tables 4.2.6.8 and 6.1.1.4'
Mn Mn 0.3368 0.7283 'International Tables Vol C Tables 4.2.6.8 and 6.1.1.4'
N N 0.0061 0.0033 'International Tables Vol C Tables 4.2.6.8 and 6.1.1.4'
O O 0.0106 0.0060 'International Tables Vol C Tables 4.2.6.8 and 6.1.1.4'
loop_
_geom_angle_atom_site_label_1
_geom_angle_atom_site_label_2
_geom_angle_atom_site_label_3
_geom_angle
_geom_angle_site_symmetry_1
_geom_angle_site_symmetry_3
_geom_angle_publ_flag
N12 Mn1 C27 132.7(8) . 1_655 ?
N12 Mn1 O28 104.9(7) . 1_655 ?
N12 Mn1 N32 79.2(7) . . ?
O28 Mn1 C27 28.3(6) 1_655 1_655 ?
O29 Mn1 N12 160.6(8) 1_655 . ?
O29 Mn1 C27 28.3(7) 1_655 1_655 ?
O29 Mn1 O28 56.5(7) 1_655 1_655 ?
O29 Mn1 N32 90.9(7) 1_655 . ?
N32 Mn1 C27 83.1(7) . 1_655 ?
N32 Mn1 O28 79.3(6) . 1_655 ?
O48 Mn1 N12 84.0(7) 1_556 . ?
O48 Mn1 C27 98.8(7) 1_556 1_655 ?
O48 Mn1 O28 92.1(7) 1_556 1_655 ?
O48 Mn1 O29 100.9(7) 1_556 1_655 ?
O48 Mn1 N32 158.3(7) 1_556 . ?
O79 Mn1 N12 99.1(7) . . ?
O79 Mn1 C27 124.9(8) . 1_655 ?
O79 Mn1 O28 151.9(7) . 1_655 ?
O79 Mn1 O29 97.7(8) . 1_655 ?
O79 Mn1 N32 91.2(7) . . ?
O79 Mn1 O48 105.0(7) . 1_556 ?
H1A C1 H1B 108.0 . . ?
N11 C1 H1A 109.4 . . ?
N11 C1 H1B 109.4 . . ?
N11 C1 N31 111(2) . . ?
N31 C1 H1A 109.4 . . ?
N31 C1 H1B 109.4 . . ?
O29 Mn2 O29 180.0 1_655 3_758 ?
O49 Mn2 O29 90.8(7) 3_857 1_655 ?
O49 Mn2 O29 90.8(7) 1_556 3_758 ?
O49 Mn2 O29 89.2(7) 3_857 3_758 ?
O49 Mn2 O29 89.2(7) 1_556 1_655 ?
O49 Mn2 O49 180.0(10) 3_857 1_556 ?
O78 Mn2 O29 92.6(7) 3_858 1_655 ?
O78 Mn2 O29 87.4(7) 3_858 3_758 ?
O78 Mn2 O29 87.4(7) . 1_655 ?
O78 Mn2 O29 92.6(7) . 3_758 ?
O78 Mn2 O49 92.7(8) . 1_556 ?
O78 Mn2 O49 92.7(8) 3_858 3_857 ?
O78 Mn2 O49 87.3(8) 3_858 1_556 ?
O78 Mn2 O49 87.3(8) . 3_857 ?
O78 Mn2 O78 180.0(9) . 3_858 ?
N62 Cu3 I1 132.6(7) . . ?
N62 Cu3 I1 132.6(7) 4_565 . ?
N62 Cu3 N62 94.4(13) . 4_565 ?
N12 N11 C1 119(2) . . ?
C15 N11 C1 133(2) . . ?
C15 N11 N12 108(2) . . ?
N11 N12 Mn1 118.8(15) . . ?
C13 N12 Mn1 127.2(17) . . ?
C13 N12 N11 108.2(19) . . ?
N12 C13 C16 116(2) . . ?
C14 C13 N12 111(2) . . ?
C14 C13 C16 133(2) . . ?
C13 C14 C15 105(2) . . ?
C13 C14 C21 131(3) . . ?
C15 C14 C21 124(2) . . ?
N11 C15 C14 108(2) . . ?
N11 C15 C17 119(2) . . ?
C14 C15 C17 132(2) . . ?
C13 C16 H16A 109.5 . . ?
C13 C16 H16B 109.5 . . ?
C13 C16 H16C 109.5 . . ?
H16A C16 H16B 109.5 . . ?
H16A C16 H16C 109.5 . . ?
H16B C16 H16C 109.5 . . ?
C15 C17 H17A 109.5 . . ?
C15 C17 H17B 109.5 . . ?
C15 C17 H17C 109.5 . . ?
H17A C17 H17B 109.5 . . ?
H17A C17 H17C 109.5 . . ?
H17B C17 H17C 109.5 . . ?
C22 C21 C14 122(3) . . ?
C22 C21 C26 120(3) . . ?
C26 C21 C14 118(3) . . ?
C21 C22 H22 119.8 . . ?
C21 C22 C23 120(3) . . ?
C23 C22 H22 119.8 . . ?
C22 C23 H23 120.9 . . ?
C22 C23 C24 118(2) . . ?
C24 C23 H23 120.9 . . ?
C23 C24 C27 116(2) . . ?
C25 C24 C23 122(3) . . ?
C25 C24 C27 123(2) . . ?
C24 C25 H25 120.0 . . ?
C24 C25 C26 120(3) . . ?
C26 C25 H25 120.0 . . ?
C21 C26 C25 119(3) . . ?
C21 C26 H26 120.3 . . ?
C25 C26 H26 120.3 . . ?
C24 C27 Mn1 170.2(18) . 1_455 ?
O28 C27 Mn1 65.7(13) . 1_455 ?
O28 C27 C24 124(2) . . ?
O28 C27 O29 123(2) . . ?
O29 C27 Mn1 57.5(13) . 1_455 ?
O29 C27 C24 113(2) . . ?
C27 O28 Mn1 86.1(15) . 1_455 ?
Mn1 O29 Mn2 105.0(7) 1_455 1_455 ?
C27 O29 Mn1 94.2(16) . 1_455 ?
C27 O29 Mn2 138.3(16) . 1_455 ?
N32 N31 C1 117.6(19) . . ?
C35 N31 C1 129(2) . . ?
C35 N31 N32 114(2) . . ?
N31 N32 Mn1 116.9(14) . . ?
C33 N32 Mn1 137.4(16) . . ?
C33 N32 N31 103.4(19) . . ?
N32 C33 C34 107(2) . . ?
N32 C33 C36 117(2) . . ?
C34 C33 C36 137(2) . . ?
C35 C34 C33 111(2) . . ?
C35 C34 C41 128(2) . . ?
C41 C34 C33 121(2) . . ?
N31 C35 C37 122(2) . . ?
C34 C35 N31 104(2) . . ?
C34 C35 C37 133(2) . . ?
C33 C36 H36A 109.5 . . ?
C33 C36 H36B 109.5 . . ?
C33 C36 H36C 109.5 . . ?
H36A C36 H36B 109.5 . . ?
H36A C36 H36C 109.5 . . ?
H36B C36 H36C 109.5 . . ?
C35 C37 H37A 109.5 . . ?
C35 C37 H37B 109.5 . . ?
C35 C37 H37C 109.5 . . ?
H37A C37 H37B 109.5 . . ?
H37A C37 H37C 109.5 . . ?
H37B C37 H37C 109.5 . . ?
C42 C41 C34 126(2) . . ?
C46 C41 C34 115(2) . . ?
C46 C41 C42 119(3) . . ?
C41 C42 H42 119.5 . . ?
C41 C42 C43 121(2) . . ?
C43 C42 H42 119.5 . . ?
C42 C43 H43 116.9 . . ?
C44 C43 C42 126(3) . . ?
C44 C43 H43 116.9 . . ?
C43 C44 C45 111(2) . . ?
C43 C44 C47 128(2) . . ?
C45 C44 C47 121(2) . . ?
C44 C45 H45 118.2 . . ?
C44 C45 C46 124(2) . . ?
C46 C45 H45 118.2 . . ?
C41 C46 C45 119(2) . . ?
C41 C46 H46 120.3 . . ?
C45 C46 H46 120.3 . . ?
O48 C47 C44 121(2) . . ?
O49 C47 C44 112(2) . . ?
O49 C47 O48 127(2) . . ?
C47 O48 Mn1 121.5(16) . 1_554 ?
C47 O49 Mn2 149.2(18) . 1_554 ?
H51A C51 H51B 108.5 . . ?
N61 C51 H51A 110.3 4_565 . ?
N61 C51 H51A 110.3 . . ?
N61 C51 H51B 110.3 . . ?
N61 C51 H51B 110.3 4_565 . ?
N61 C51 N61 107(3) 4_565 . ?
C51 N61 C65 125(2) . . ?
N62 N61 C51 128(3) . . ?
N62 N61 C65 107(2) . . ?
N61 N62 Cu3 116.1(18) . . ?
C63 N62 Cu3 137(2) . . ?
C63 N62 N61 105(2) . . ?
N62 C63 C66 115(3) . . ?
C64 C63 N62 116(3) . . ?
C64 C63 C66 129(3) . . ?
C63 C64 C65 106(3) . . ?
C63 C64 C71 132(3) . . ?
C65 C64 C71 122(2) . . ?
N61 C65 C67 119(2) . . ?
C64 C65 N61 106(2) . . ?
C64 C65 C67 136(3) . . ?
C63 C66 H66A 109.5 . . ?
C63 C66 H66B 109.5 . . ?
C63 C66 H66C 109.5 . . ?
H66A C66 H66B 109.5 . . ?
H66A C66 H66C 109.5 . . ?
H66B C66 H66C 109.5 . . ?
C65 C67 H67A 109.5 . . ?
C65 C67 H67B 109.5 . . ?
C65 C67 H67C 109.5 . . ?
H67A C67 H67B 109.5 . . ?
H67A C67 H67C 109.5 . . ?
H67B C67 H67C 109.5 . . ?
C72 C71 C64 126(2) . . ?
C72 C71 C76 120(3) . . ?
C76 C71 C64 113(2) . . ?
C71 C72 H72 118.6 . . ?
C73 C72 C71 123(3) . . ?
C73 C72 H72 118.6 . . ?
C72 C73 H73 119.6 . . ?
C72 C73 C74 121(2) . . ?
C74 C73 H73 119.6 . . ?
C73 C74 C77 120(2) . . ?
C75 C74 C73 118(2) . . ?
C75 C74 C77 122(2) . . ?
C74 C75 H75 118.5 . . ?
C74 C75 C76 123(2) . . ?
C76 C75 H75 118.5 . . ?
C71 C76 C75 115(2) . . ?
C71 C76 H76 122.5 . . ?
C75 C76 H76 122.5 . . ?
O78 C77 C74 117(2) . . ?
O79 C77 C74 119(2) . . ?
O79 C77 O78 122(2) . . ?
C77 O78 Mn2 143.5(17) . . ?
C77 O79 Mn1 131.7(17) . . ?
loop_
_geom_bond_atom_site_label_1
_geom_bond_atom_site_label_2
_geom_bond_distance
_geom_bond_site_symmetry_2
_geom_bond_publ_flag
I1 Cu3 2.455(6) . ?
Mn1 N12 2.27(2) . ?
Mn1 C27 2.63(3) 1_655 ?
Mn1 O28 2.398(19) 1_655 ?
Mn1 O29 2.220(17) 1_655 ?
Mn1 N32 2.324(18) . ?
Mn1 O48 2.136(17) 1_556 ?
Mn1 O79 2.094(17) . ?
C1 H1A 0.9900 . ?
C1 H1B 0.9900 . ?
C1 N11 1.41(3) . ?
C1 N31 1.45(3) . ?
Mn2 O29 2.28(2) 1_655 ?
Mn2 O29 2.28(2) 3_758 ?
Mn2 O49 2.10(2) 1_556 ?
Mn2 O49 2.10(2) 3_857 ?
Mn2 O78 2.085(17) 3_858 ?
Mn2 O78 2.085(16) . ?
Cu3 N62 2.03(2) . ?
Cu3 N62 2.03(2) 4_565 ?
N11 N12 1.38(3) . ?
N11 C15 1.35(3) . ?
N12 C13 1.36(3) . ?
C13 C14 1.32(3) . ?
C13 C16 1.48(3) . ?
C14 C15 1.45(3) . ?
C14 C21 1.45(3) . ?
C15 C17 1.51(3) . ?
C16 H16A 0.9800 . ?
C16 H16B 0.9800 . ?
C16 H16C 0.9800 . ?
C17 H17A 0.9800 . ?
C17 H17B 0.9800 . ?
C17 H17C 0.9800 . ?
C21 C22 1.39(3) . ?
C21 C26 1.41(3) . ?
C22 H22 0.9500 . ?
C22 C23 1.42(4) . ?
C23 H23 0.9500 . ?
C23 C24 1.45(4) . ?
C24 C25 1.32(3) . ?
C24 C27 1.52(3) . ?
C25 H25 0.9500 . ?
C25 C26 1.45(3) . ?
C26 H26 0.9500 . ?
C27 O28 1.25(3) . ?
C27 O29 1.25(3) . ?
N31 N32 1.43(3) . ?
N31 C35 1.39(3) . ?
N32 C33 1.36(3) . ?
C33 C34 1.49(3) . ?
C33 C36 1.49(3) . ?
C34 C35 1.30(3) . ?
C34 C41 1.49(3) . ?
C35 C37 1.51(3) . ?
C36 H36A 0.9800 . ?
C36 H36B 0.9800 . ?
C36 H36C 0.9800 . ?
C37 H37A 0.9800 . ?
C37 H37B 0.9800 . ?
C37 H37C 0.9800 . ?
C41 C42 1.35(3) . ?
C41 C46 1.32(3) . ?
C42 H42 0.9500 . ?
C42 C43 1.37(3) . ?
C43 H43 0.9500 . ?
C43 C44 1.35(3) . ?
C44 C45 1.42(3) . ?
C44 C47 1.469(17) . ?
C45 H45 0.9500 . ?
C45 C46 1.43(3) . ?
C46 H46 0.9500 . ?
C47 O48 1.23(3) . ?
C47 O49 1.22(3) . ?
C51 H51A 0.9900 . ?
C51 H51B 0.9900 . ?
C51 N61 1.46(3) 4_565 ?
C51 N61 1.46(3) . ?
N61 N62 1.33(3) . ?
N61 C65 1.48(3) . ?
N62 C63 1.32(3) . ?
C63 C64 1.31(3) . ?
C63 C66 1.46(3) . ?
C64 C65 1.33(3) . ?
C64 C71 1.47(4) . ?
C65 C67 1.485(18) . ?
C66 H66A 0.9800 . ?
C66 H66B 0.9800 . ?
C66 H66C 0.9800 . ?
C67 H67A 0.9800 . ?
C67 H67B 0.9800 . ?
C67 H67C 0.9800 . ?
C71 C72 1.34(3) . ?
C71 C76 1.42(3) . ?
C72 H72 0.9500 . ?
C72 C73 1.32(3) . ?
C73 H73 0.9500 . ?
C73 C74 1.40(3) . ?
C74 C75 1.34(3) . ?
C74 C77 1.482(17) . ?
C75 H75 0.9500 . ?
C75 C76 1.43(3) . ?
C76 H76 0.9500 . ?
C77 O78 1.27(3) . ?
C77 O79 1.22(3) . ?
loop_
_geom_torsion_atom_site_label_1
_geom_torsion_atom_site_label_2
_geom_torsion_atom_site_label_3
_geom_torsion_atom_site_label_4
_geom_torsion
_geom_torsion_site_symmetry_1
_geom_torsion_site_symmetry_2
_geom_torsion_site_symmetry_3
_geom_torsion_site_symmetry_4
_geom_torsion_publ_flag
Mn1 N12 C13 C14 152.3(18) . . . . ?
Mn1 N12 C13 C16 -22(3) . . . . ?
Mn1 C27 O29 Mn2 118(2) 1_455 . . 1_455 ?
Mn1 N32 C33 C34 168.3(17) . . . . ?
Mn1 N32 C33 C36 -11(4) . . . . ?
C1 N11 N12 Mn1 21(3) . . . . ?
C1 N11 N12 C13 176(2) . . . . ?
C1 N11 C15 C14 -176(3) . . . . ?
C1 N11 C15 C17 14(4) . . . . ?
C1 N31 N32 Mn1 18(2) . . . . ?
C1 N31 N32 C33 -175.8(19) . . . . ?
C1 N31 C35 C34 168(2) . . . . ?
C1 N31 C35 C37 -5(4) . . . . ?
Cu3 N62 C63 C64 160(2) . . . . ?
Cu3 N62 C63 C66 -17(4) . . . . ?
N11 C1 N31 N32 52(3) . . . . ?
N11 C1 N31 C35 -121(3) . . . . ?
N11 N12 C13 C14 0(3) . . . . ?
N11 N12 C13 C16 -174.4(19) . . . . ?
N12 N11 C15 C14 -4(3) . . . . ?
N12 N11 C15 C17 -174(2) . . . . ?
N12 C13 C14 C15 -2(3) . . . . ?
N12 C13 C14 C21 -178(3) . . . . ?
C13 C14 C15 N11 4(3) . . . . ?
C13 C14 C15 C17 173(3) . . . . ?
C13 C14 C21 C22 -128(3) . . . . ?
C13 C14 C21 C26 47(4) . . . . ?
C14 C21 C22 C23 175(2) . . . . ?
C14 C21 C26 C25 -169(2) . . . . ?
C15 N11 N12 Mn1 -152.3(16) . . . . ?
C15 N11 N12 C13 3(3) . . . . ?
C15 C14 C21 C22 58(4) . . . . ?
C15 C14 C21 C26 -127(3) . . . . ?
C16 C13 C14 C15 171(3) . . . . ?
C16 C13 C14 C21 -5(5) . . . . ?
C21 C14 C15 N11 180(3) . . . . ?
C21 C14 C15 C17 -12(5) . . . . ?
C21 C22 C23 C24 -6(4) . . . . ?
C22 C21 C26 C25 6(4) . . . . ?
C22 C23 C24 C25 7(4) . . . . ?
C22 C23 C24 C27 -176(2) . . . . ?
C23 C24 C25 C26 -1(4) . . . . ?
C23 C24 C27 O28 -1(4) . . . . ?
C23 C24 C27 O29 174(2) . . . . ?
C24 C25 C26 C21 -6(4) . . . . ?
C24 C27 O28 Mn1 -180(2) . . . 1_455 ?
C24 C27 O29 Mn1 178.7(17) . . . 1_455 ?
C24 C27 O29 Mn2 -63(3) . . . 1_455 ?
C25 C24 C27 O28 176(3) . . . . ?
C25 C24 C27 O29 -9(4) . . . . ?
C26 C21 C22 C23 0(4) . . . . ?
C27 C24 C25 C26 -178(2) . . . . ?
O28 C27 O29 Mn1 -6(3) . . . 1_455 ?
O28 C27 O29 Mn2 112(3) . . . 1_455 ?
O29 C27 O28 Mn1 5(2) . . . 1_455 ?
N31 C1 N11 N12 -79(2) . . . . ?
N31 C1 N11 C15 92(3) . . . . ?
N31 N32 C33 C34 7(2) . . . . ?
N31 N32 C33 C36 -172(2) . . . . ?
N32 N31 C35 C34 -6(3) . . . . ?
N32 N31 C35 C37 -179(2) . . . . ?
N32 C33 C34 C35 -11(3) . . . . ?
N32 C33 C34 C41 175(2) . . . . ?
C33 C34 C35 N31 10(3) . . . . ?
C33 C34 C35 C37 -178(3) . . . . ?
C33 C34 C41 C42 33(4) . . . . ?
C33 C34 C41 C46 -152(2) . . . . ?
C34 C41 C42 C43 176(3) . . . . ?
C34 C41 C46 C45 -176(2) . . . . ?
C35 N31 N32 Mn1 -167.3(15) . . . . ?
C35 N31 N32 C33 -1(3) . . . . ?
C35 C34 C41 C42 -139(3) . . . . ?
C35 C34 C41 C46 36(4) . . . . ?
C36 C33 C34 C35 167(3) . . . . ?
C36 C33 C34 C41 -6(5) . . . . ?
C41 C34 C35 N31 -177(2) . . . . ?
C41 C34 C35 C37 -5(5) . . . . ?
C41 C42 C43 C44 0(4) . . . . ?
C42 C41 C46 C45 -1(4) . . . . ?
C42 C43 C44 C45 -3(4) . . . . ?
C42 C43 C44 C47 -177(2) . . . . ?
C43 C44 C45 C46 4(3) . . . . ?
C43 C44 C47 O48 175(2) . . . . ?
C43 C44 C47 O49 -10(4) . . . . ?
C44 C45 C46 C41 -3(4) . . . . ?
C44 C47 O48 Mn1 173.5(16) . . . 1_554 ?
C44 C47 O49 Mn2 167(2) . . . 1_554 ?
C45 C44 C47 O48 2(4) . . . . ?
C45 C44 C47 O49 177(2) . . . . ?
C46 C41 C42 C43 2(4) . . . . ?
C47 C44 C45 C46 179(2) . . . . ?
O48 C47 O49 Mn2 -19(6) . . . 1_554 ?
O49 C47 O48 Mn1 -1(4) . . . 1_554 ?
C51 N61 N62 Cu3 14(4) . . . . ?
C51 N61 N62 C63 179(3) . . . . ?
C51 N61 C65 C64 -179(3) . . . . ?
C51 N61 C65 C67 -1(4) . . . . ?
N61 C51 N61 N62 -57(5) 4_565 . . . ?
N61 C51 N61 C65 123(3) 4_565 . . . ?
N61 N62 C63 C64 0(4) . . . . ?
N61 N62 C63 C66 -178(2) . . . . ?
N62 N61 C65 C64 1(3) . . . . ?
N62 N61 C65 C67 179(2) . . . . ?
N62 C63 C64 C65 1(4) . . . . ?
N62 C63 C64 C71 -175(3) . . . . ?
C63 C64 C65 N61 -2(3) . . . . ?
C63 C64 C65 C67 -178(3) . . . . ?
C63 C64 C71 C72 111(4) . . . . ?
C63 C64 C71 C76 -53(4) . . . . ?
C64 C71 C72 C73 -174(3) . . . . ?
C64 C71 C76 C75 176(2) . . . . ?
C65 N61 N62 Cu3 -165.8(16) . . . . ?
C65 N61 N62 C63 -1(3) . . . . ?
C65 C64 C71 C72 -64(4) . . . . ?
C65 C64 C71 C76 131(3) . . . . ?
C66 C63 C64 C65 178(3) . . . . ?
C66 C63 C64 C71 2(6) . . . . ?
C71 C64 C65 N61 175(2) . . . . ?
C71 C64 C65 C67 -2(5) . . . . ?
C71 C72 C73 C74 5(5) . . . . ?
C72 C71 C76 C75 10(4) . . . . ?
C72 C73 C74 C75 2(4) . . . . ?
C72 C73 C74 C77 -174(3) . . . . ?
C73 C74 C75 C76 -1(4) . . . . ?
C73 C74 C77 O78 -25(4) . . . . ?
C73 C74 C77 O79 170(3) . . . . ?
C74 C75 C76 C71 -4(4) . . . . ?
C74 C77 O78 Mn2 173(2) . . . . ?
C74 C77 O79 Mn1 173.5(18) . . . . ?
C75 C74 C77 O78 159(3) . . . . ?
C75 C74 C77 O79 -5(4) . . . . ?
C76 C71 C72 C73 -11(4) . . . . ?
C77 C74 C75 C76 174(3) . . . . ?
O78 C77 O79 Mn1 10(4) . . . . ?
O79 C77 O78 Mn2 -23(5) . . . . ?
loop_
_smtbx_masks_void_nr
_smtbx_masks_void_average_x
_smtbx_masks_void_average_y
_smtbx_masks_void_average_z
_smtbx_masks_void_volume
_smtbx_masks_void_count_electrons
_smtbx_masks_void_content
1 -0.766 0.025 -0.930 2634.4 0.0 '4 cyclohexane'
