#------------------------------------------------------------------------------
#$Date: 2021-07-16 11:25:34 +0300 (Fri, 16 Jul 2021) $
#$Revision: 267587 $
#$URL: file:///home/coder/svn-repositories/cod/cif/1/56/41/1564179.cif $
#------------------------------------------------------------------------------
#
# This file is available in the Crystallography Open Database (COD),
# http://www.crystallography.net/
#
# All data on this site have been placed in the public domain by the
# contributors.
#
data_1564179
loop_
_publ_author_name
'Wei, Wei'
'Zhang, Kai'
'Wang, Xue-Ting'
'Du, Shao-Wu'
_publ_section_title
;
 Construction of a highly stable lanthanide metal-organic framework for
 effective detection of aryl-organophosphorus flame retardants in
 simulated wastewater and fruit juices
;
_journal_name_full               'Inorganica Chimica Acta'
_journal_page_first              119840
_journal_paper_doi               10.1016/j.ica.2020.119840
_journal_volume                  511
_journal_year                    2020
_chemical_formula_moiety         'C14 H8 N2 O10 Tb2'
_chemical_formula_sum            'C14 H12 N2 O12 Tb2'
_chemical_formula_weight         718.10
_space_group_crystal_system      monoclinic
_space_group_IT_number           14
_space_group_name_Hall           '-P 2ybc'
_space_group_name_H-M_alt        'P 1 21/c 1'
_atom_sites_solution_hydrogens   geom
_cell_angle_alpha                90
_cell_angle_beta                 94.438(5)
_cell_angle_gamma                90
_cell_formula_units_Z            4
_cell_length_a                   7.5401(10)
_cell_length_b                   15.3400(14)
_cell_length_c                   16.8317(19)
_cell_measurement_reflns_used    3021
_cell_measurement_temperature    100(2)
_cell_measurement_theta_max      30.90
_cell_measurement_theta_min      2.43
_cell_volume                     1941.0(4)
_computing_cell_refinement       'SAINT V8.38A (?, 2016)'
_computing_data_reduction        'SAINT V8.38A (?, 2016)'
_computing_molecular_graphics    'Olex2 (Dolomanov et al., 2009)'
_computing_publication_material  'Olex2 (Dolomanov et al., 2009)'
_computing_structure_refinement  'ShelXL (Sheldrick, 2015)'
_computing_structure_solution    'SHELXT 2014/5 (Sheldrick, 2014)'
_diffrn_ambient_temperature      99.98
_diffrn_measured_fraction_theta_full 0.999
_diffrn_measured_fraction_theta_max 0.999
_diffrn_measurement_device_type  'CCD area detector'
_diffrn_measurement_method       'phi and omega scans'
_diffrn_radiation_monochromator  graphite
_diffrn_radiation_type           MoK\a
_diffrn_radiation_wavelength     0.71073
_diffrn_reflns_av_R_equivalents  0.1151
_diffrn_reflns_av_unetI/netI     0.0948
_diffrn_reflns_Laue_measured_fraction_full 0.999
_diffrn_reflns_Laue_measured_fraction_max 0.999
_diffrn_reflns_limit_h_max       10
_diffrn_reflns_limit_h_min       -10
_diffrn_reflns_limit_k_max       20
_diffrn_reflns_limit_k_min       -20
_diffrn_reflns_limit_l_max       22
_diffrn_reflns_limit_l_min       -22
_diffrn_reflns_number            25389
_diffrn_reflns_point_group_measured_fraction_full 0.999
_diffrn_reflns_point_group_measured_fraction_max 0.999
_diffrn_reflns_theta_full        25.242
_diffrn_reflns_theta_max         28.696
_diffrn_reflns_theta_min         2.709
_exptl_absorpt_coefficient_mu    7.295
_exptl_absorpt_correction_T_max  0.7462
_exptl_absorpt_correction_T_min  0.6283
_exptl_absorpt_correction_type   multi-scan
_exptl_absorpt_process_details
;
SADABS-2016/2 (Bruker,2016/2) was used for absorption correction.
wR2(int) was 0.1170 before and 0.0758 after correction.
The Ratio of minimum to maximum transmission is 0.8420.
The \l/2 correction factor is Not present.
;
_exptl_crystal_colour            colourless
_exptl_crystal_density_diffrn    2.457
_exptl_crystal_density_meas      .
_exptl_crystal_description       needlelike
_exptl_crystal_F_000             1344
_exptl_crystal_size_max          0.18
_exptl_crystal_size_mid          0.03
_exptl_crystal_size_min          0.03
_refine_diff_density_max         1.822
_refine_diff_density_min         -1.669
_refine_diff_density_rms         0.309
_refine_ls_extinction_coef       .
_refine_ls_extinction_method     none
_refine_ls_goodness_of_fit_ref   1.020
_refine_ls_hydrogen_treatment    constr
_refine_ls_matrix_type           full
_refine_ls_number_parameters     253
_refine_ls_number_reflns         5008
_refine_ls_number_restraints     6
_refine_ls_restrained_S_all      1.020
_refine_ls_R_factor_all          0.0757
_refine_ls_R_factor_gt           0.0421
_refine_ls_shift/su_max          0.002
_refine_ls_shift/su_mean         0.000
_refine_ls_structure_factor_coef Fsqd
_refine_ls_weighting_details
'w=1/[\s^2^(Fo^2^)+(0.0303P)^2^] where P=(Fo^2^+2Fc^2^)/3'
_refine_ls_weighting_scheme      calc
_refine_ls_wR_factor_gt          0.0794
_refine_ls_wR_factor_ref         0.0904
_reflns_Friedel_coverage         0.000
_reflns_Friedel_fraction_full    .
_reflns_Friedel_fraction_max     .
_reflns_number_gt                3508
_reflns_number_total             5008
_reflns_threshold_expression     'I > 2\s(I)'
_cod_data_source_file            ICA-2020-511-119840.cif
_cod_data_source_block           compound3
_cod_depositor_comments
;
The following automatic conversions were performed:

data item '_exptl_absorpt_correction_type' value 'Multi-scan' was
changed to 'multi-scan' in accordance with the built-in table derived
from the CIF Core dictionary named 'cif_core.dic' version 2.4.5 last
updated on 2014-11-21.

Automatic conversion script
Id: cif_fix_values 8369 2020-08-20 11:38:08Z andrius 
;
_cod_database_code               1564179
_shelx_space_group_comment
;
The symmetry employed for this shelxl refinement is uniquely defined
by the following loop, which should always be used as a source of
symmetry information in preference to the above space-group names.
They are only intended as comments.
;
_olex2_refinement_description
;
1. Fixed Uiso
 At 1.2 times of:
  All C(H) groups, All O(H) groups
2. Uiso/Uaniso restraints and constraints
Uanis(C7) \\sim Ueq: with sigma of 0.01 and sigma for terminal atoms of 0.02
3.a Ternary CH refined with riding coordinates:
 O1(H1), O2(H2)
3.b Aromatic/amide H refined with riding coordinates:
 C2(H2A), C4(H4), C5(H5), C9(H9), C11(H11), C12(H12)
;
_shelx_res_file
;
TITL du in P2(1)/c
    du_sq.res
    created by SHELXL-2017/1 at 21:59:08 on 03-Jun-2020
CELL 0.71073 7.5401 15.34 16.8317 90 94.438 90
ZERR 4 0.001 0.0014 0.0019 0 0.005 0
LATT 1
SYMM -X,0.5+Y,0.5-Z
SFAC C H N O Tb
UNIT 56 48 8 48 8
ISOR 0.01 0.02 C7

L.S. 5 0 71
PLAN  5
TEMP -173.17
BOND $H
ABIN
fmap 2
acta
OMIT 0 2 0
OMIT 0 2 2
REM <olex2.extras>
REM <HklSrc "%.\\du_sq.hkl">
REM </olex2.extras>

WGHT    0.030300
FVAR       0.07579
TB1   5   -0.866317    0.949043    0.591551    11.00000    0.00548    0.00888 =
         0.00618    0.00048    0.00124    0.00002
TB2   5   -0.626286    1.102306    0.461602    11.00000    0.00513    0.00841 =
         0.00602    0.00037    0.00098    0.00030
N1    3   -0.879288    1.055440    0.706496    11.00000    0.01048    0.00872 =
         0.01826   -0.00166   -0.00326   -0.00407
N2    3   -0.572328    1.213996    0.570710    11.00000    0.00465    0.02308 =
         0.00857   -0.00604    0.00070    0.00220
O1    4   -0.579371    1.008045    0.572541    11.00000    0.00722    0.01131 =
         0.00808   -0.00366    0.00317    0.00018
AFIX  13
H1    2   -0.531800    1.041030    0.620824    11.00000   -1.20000
AFIX   0
O2    4   -0.908081    1.076857    0.513107    11.00000    0.00675    0.00977 =
         0.00958   -0.00431   -0.00007    0.00159
AFIX  13
H2    2   -0.941510    1.127077    0.546762    11.00000   -1.20000
AFIX   0
O3    4   -1.162682    0.987127    0.624854    11.00000    0.00346    0.01395 =
         0.01075   -0.00805    0.00197   -0.00251
O4    4   -1.345861    1.068084    0.692870    11.00000    0.00935    0.02130 =
         0.01829   -0.01282    0.00009    0.00293
O5    4   -0.953539    0.807904    0.628193    11.00000    0.01203    0.01813 =
         0.02700    0.00260   -0.00614   -0.00592
O6    4   -0.782300    1.232253    0.430398    11.00000    0.01309    0.01381 =
         0.01335    0.00759    0.00166    0.00007
O7    4   -0.315368    1.140465    0.493354    11.00000    0.00730    0.01635 =
         0.01364   -0.00736    0.00452    0.00001
O8    4   -0.104053    1.207973    0.572412    11.00000    0.01090    0.02572 =
         0.02724   -0.01242    0.00384   -0.00312
O9    4   -0.693668    0.899863    0.705245    11.00000    0.01358    0.02314 =
         0.00723    0.00799   -0.00114    0.00045
O10   4   -0.571161    1.142750    0.332175    11.00000    0.02026    0.02373 =
         0.00947    0.00767    0.00934    0.00833
C1    1   -1.037354    1.084150    0.724760    11.00000    0.01125    0.01764 =
         0.01538   -0.00157    0.00613   -0.00505
C2    1   -1.060223    1.148543    0.781409    11.00000    0.01064    0.02297 =
         0.00805   -0.00240   -0.00005    0.00174
AFIX  43
H2A   2   -1.175344    1.169037    0.791314    11.00000   -1.20000
AFIX   0
C3    1   -0.905917    1.317688    0.323644    11.00000    0.01257    0.02498 =
         0.01240    0.00194   -0.00202   -0.00113
C4    1   -0.742553    1.146457    0.808978    11.00000    0.01671    0.02897 =
         0.01991   -0.01025    0.00202   -0.00155
AFIX  43
H4    2   -0.637148    1.164919    0.838830    11.00000   -1.20000
AFIX   0
C5    1   -0.735028    1.084641    0.751435    11.00000    0.00627    0.02575 =
         0.04280   -0.01140    0.00722    0.00200
AFIX  43
H5    2   -0.622241    1.060652    0.742304    11.00000   -1.20000
AFIX   0
C6    1   -1.197039    1.044327    0.678684    11.00000    0.00860    0.01828 =
         0.01721    0.00017    0.00085    0.00263
C8    1   -0.404006    1.234186    0.594724    11.00000    0.01354    0.01507 =
         0.01532    0.00000    0.00103    0.00590
C9    1   -0.359252    1.285751    0.662338    11.00000    0.00898    0.02149 =
         0.01505    0.00153   -0.00189   -0.00638
AFIX  43
H9    2   -0.238470    1.298113    0.678717    11.00000   -1.20000
AFIX   0
C10   1   -0.501904    0.818728    0.794678    11.00000    0.01020    0.01362 =
         0.01562    0.00315   -0.00135   -0.00230
C11   1   -0.670912    1.303173    0.675773    11.00000    0.01086    0.03269 =
         0.01998   -0.01267    0.00108    0.00588
AFIX  43
H11   2   -0.767486    1.326620    0.701897    11.00000   -1.20000
AFIX   0
C12   1   -0.702578    1.252922    0.607478    11.00000    0.00676    0.03150 =
         0.02518   -0.01219    0.00076   -0.00225
AFIX  43
H12   2   -0.821855    1.245820    0.585856    11.00000   -1.20000
AFIX   0
C13   1   -0.260582    1.192492    0.550737    11.00000    0.00561    0.02126 =
         0.01787   -0.00086    0.00461    0.00045
C14   1   -0.546940    0.862437    0.716720    11.00000    0.01595    0.00733 =
         0.01401    0.00327   -0.00410    0.00342
C7    1   -0.914300    1.242268    0.381051    11.00000    0.01820    0.00486 =
         0.01250    0.00164    0.00404    0.00672
HKLF 4




REM  du in P2(1)/c
REM R1 =  0.0421 for    3508 Fo > 4sig(Fo)  and  0.0757 for all    5008 data
REM    253 parameters refined using      6 restraints

END

WGHT      0.0302      0.0000

REM Highest difference peak  1.822,  deepest hole -1.669,  1-sigma level  0.309
Q1    1  -1.0284  0.9585  0.5954  11.00000  0.05    1.82
Q2    1  -0.7872  1.1008  0.4626  11.00000  0.05    1.43
Q3    1  -0.6144  1.1772  0.4596  11.00000  0.05    1.42
Q4    1  -0.3338  1.2175  0.4876  11.00000  0.05    1.41
Q5    1  -0.6864  1.2583  0.7315  11.00000  0.05    1.40
;
_shelx_res_checksum              42832
_shelx_hkl_file
;
   1   0   0   -0.28    0.76
   1   0   0    0.61    1.06
  -1   0   0    2.97    1.65
  -1   0   0   -0.60    0.54
   2   0   0   13.75    4.26
   2   0   0   12.08    3.71
  -2   0   0   16.74    3.83
  -2   0   0    9.57    4.64
   3   0   0    1.63    2.96
  -3   0   0    0.87    3.78
  -3   0   0    2.63    2.83
   3   0   0    3.56    3.22
   4   0   0  975.20   34.73
  -4   0   0  951.73   34.32
  -4   0   0  977.96   37.83
   4   0   0  958.10   36.18
   5   0   0    0.57    4.15
   5   0   0    1.83    4.42
  -5   0   0   -4.22    3.93
  -5   0   0    1.59    3.94
   6   0   0   -1.96    5.24
  -6   0   0   14.37    8.02
   7   0   0    7.88    6.35
  -7   0   0   -5.00    5.34
   8   0   0  242.53   20.73
  -8   0   0  341.75   28.52
   9   0   0    5.12    7.19
  -9   0   0   11.53    9.80
 -10   0   0   20.71   13.16
  10   0   0   11.99    9.57
   1  -1   0   14.76    2.11
  -1  -1   0   18.07    2.82
   1   1   0   17.47    2.40
  -1   1   0   18.43    2.66
  -2  -1   0  188.27    9.58
  -2  -1   0  206.02   11.75
   2  -1   0  196.06   10.28
   2  -1   0  193.36    9.56
  -2   1   0  196.91    9.47
   2   1   0  191.98   11.09
   3  -1   0   10.10    4.36
  -3  -1   0    4.70    3.48
  -3  -1   0   -0.66    3.30
   3  -1   0    7.50    3.56
  -3   1   0    5.27    2.83
   3   1   0    9.70    4.32
   3   1   0    5.98    3.89
  -3   1   0   11.36    4.90
  -4  -1   0   28.93    7.44
   4  -1   0   11.79    4.61
   4  -1   0   12.92    4.73
   4   1   0   16.05    5.27
  -4   1   0    9.07    4.26
  -4   1   0    9.06    5.34
  -5  -1   0   -2.78    3.55
   5  -1   0    6.25    4.89
  -5  -1   0   -3.20    5.04
   5  -1   0    0.11    4.43
  -5   1   0    0.41    5.28
   5   1   0    0.47    4.72
  -5   1   0    2.82    4.05
   5   1   0   -0.63    4.69
  -6  -1   0  106.26   16.54
   6  -1   0   84.34   12.15
  -6   1   0   81.61   14.59
   6   1   0   89.62   12.58
  -7  -1   0   19.46   10.38
   7  -1   0    5.66    6.51
  -7   1   0   12.03    9.54
   7   1   0   29.29    8.74
   8  -1   0    0.98    6.51
  -8  -1   0    1.00    7.40
   8   1   0  -10.89    4.38
  -8   1   0    8.65    9.55
  -9  -1   0   -4.79    7.87
   9  -1   0  -11.86    5.47
  -9   1   0   -0.32    8.59
   9   1   0    9.25    7.67
 -10  -1   0   35.31   17.85
  10  -1   0   34.40   12.87
  10   1   0   33.61   11.26
   0  -2   0  269.61    7.90
   0  -2   0  267.14    9.65
   0   2   0  271.77    7.82
   0   2   0  256.24    8.15
   1  -2   0   65.59    3.69
  -1  -2   0   66.10    5.51
  -1  -2   0   62.56    4.22
   1  -2   0   65.07    4.08
  -1   2   0   67.83    5.11
   1   2   0   69.56    4.54
   1   2   0   76.03    5.44
  -1   2   0   60.24    4.15
  -1   2   0   64.48    3.76
   2  -2   0    6.75    3.19
  -2  -2   0    9.53    4.58
   2  -2   0    5.19    3.20
  -2  -2   0    6.51    3.46
  -2   2   0    1.63    2.64
   2   2   0   10.05    4.51
  -2   2   0    7.14    3.79
   2   2   0    5.16    3.98
  -3  -2   0   72.91    9.48
   3  -2   0   97.88    7.61
   3  -2   0   92.04    8.20
  -3  -2   0   99.10    7.94
  -3   2   0   91.82    7.44
   3   2   0   95.14    8.43
  -3   2   0   93.16    8.84
   3   2   0   88.80    8.82
  -4  -2   0  292.80   15.80
  -4  -2   0  280.37   18.48
   4  -2   0  280.04   15.97
   4  -2   0  280.35   15.17
  -4   2   0  311.05   18.02
  -4   2   0  263.71   14.81
   4   2   0  318.24   16.87
   4   2   0  264.11   17.05
   5  -2   0   -1.60    4.10
  -5  -2   0    1.51    4.21
  -5  -2   0   -4.30    5.37
   5  -2   0   -2.00    4.04
  -5   2   0    5.71    6.13
   5   2   0    6.76    5.62
   5   2   0   -4.69    5.38
  -5   2   0    0.42    3.65
  -6  -2   0   20.39    9.33
   6  -2   0   38.07    8.80
  -6   2   0   12.43    8.27
   6   2   0   30.43    8.75
   7  -2   0   39.00    9.21
  -7  -2   0   46.51   11.83
  -7   2   0   23.08    9.92
   7   2   0   47.59   10.28
  -8  -2   0   79.78   18.03
   8  -2   0  102.55   15.22
  -8   2   0   88.21   18.01
   8   2   0   95.79   15.86
   9  -2   0   -1.51    6.75
  -9  -2   0   -4.61   10.00
   9   2   0   -7.37    6.09
  -9   2   0   -1.19    9.01
  10  -2   0   18.86   10.96
 -10  -2   0   18.33   13.39
 -10   2   0   -0.01   12.98
   0  -3   0    2.15    2.60
   0  -3   0   -0.72    0.82
   0   3   0   -0.84    1.58
   0   3   0   -0.72    1.10
   0   3   0   -0.03    1.34
   1  -3   0   10.55    4.03
  -1  -3   0    7.86    2.76
   1  -3   0   11.06    2.02
   1  -3   0   10.29    2.48
  -1  -3   0    9.63    4.05
   1   3   0   10.92    3.70
  -1   3   0    7.01    2.09
  -1   3   0   10.51    3.97
  -1   3   0    8.33    2.46
   1   3   0   13.18    3.17
  -2  -3   0  640.10   24.54
   2  -3   0  611.89   21.15
   2  -3   0  642.32   20.23
  -2  -3   0  613.95   21.43
  -2   3   0  626.30   20.59
  -2   3   0  638.75   21.87
   2   3   0  623.42   23.71
   2   3   0  622.00   22.00
  -2   3   0  610.83   22.95
  -3  -3   0   42.48    7.95
   3  -3   0   47.97    6.28
  -3  -3   0   52.06    7.02
   3  -3   0   51.88    6.78
  -3   3   0   39.96    6.76
   3   3   0   46.86    7.07
  -3   3   0   48.36    6.26
   3   3   0   43.78    7.71
   4  -3   0   -0.09    3.26
  -4  -3   0    6.06    5.47
   4  -3   0    0.29    3.44
  -4  -3   0    8.09    3.78
   4   3   0   11.93    5.59
  -4   3   0    1.66    3.26
  -4   3   0    4.48    5.33
   4   3   0   -0.14    4.12
   5  -3   0   -5.53    3.99
  -5  -3   0   -6.76    5.27
   5  -3   0   -2.38    3.87
  -5  -3   0    5.72    4.38
  -5   3   0    1.06    5.57
   5   3   0    0.97    4.85
   5   3   0   -3.25    5.24
  -5   3   0   -1.97    3.93
  -6  -3   0  299.09   24.74
   6  -3   0  362.93   21.11
   6   3   0  367.46   22.75
  -6   3   0  387.39   25.56
   7  -3   0   42.63    9.87
  -7  -3   0   42.49   12.90
  -7   3   0   80.57   16.22
   7   3   0   49.48   11.05
   8  -3   0   10.95    6.97
  -8  -3   0    9.35    8.58
   8   3   0    0.86    6.69
  -8   3   0   -0.16    8.50
  -9  -3   0   10.33   10.86
   9  -3   0   -0.90    6.54
   9   3   0    1.93    7.16
  10  -3   0  192.80   19.83
 -10  -3   0  145.68   26.39
  10   3   0  197.80   29.53
 -10   3   0  156.02   27.10
   0  -4   0   47.58    6.35
   0  -4   0   45.24    2.61
   0   4   0   41.09    4.00
   0   4   0   37.66    3.64
   0   4   0   55.71    5.99
   0   4   0   41.00    3.48
   0   4   0   35.83    5.13
  -1  -4   0  214.92    9.05
   1  -4   0  215.68    7.04
  -1  -4   0  228.86   12.01
   1  -4   0  219.93    8.59
   1   4   0  224.12   11.39
   1   4   0  212.21    9.52
  -1   4   0  214.27    9.02
  -1   4   0  223.32    8.30
  -1   4   0  222.90   11.23
  -2  -4   0    4.73    3.08
   2  -4   0    2.25    2.31
   2  -4   0    2.14    2.08
  -2  -4   0   -1.50    3.37
  -2   4   0   -0.17    2.15
  -2   4   0    0.04    2.82
   2   4   0   -1.08    2.72
  -2   4   0    0.95    2.58
   2   4   0    0.31    3.25
   3  -4   0  280.00   13.92
  -3  -4   0  284.77   14.31
   3  -4   0  284.33   12.94
  -3  -4   0  289.34   17.59
   3   4   0  300.74   16.86
   3   4   0  300.56   15.16
  -3   4   0  267.98   15.53
  -3   4   0  278.75   13.38
  -3   4   0  326.56   15.65
   4  -4   0   23.27    5.47
   4  -4   0   17.49    5.12
  -4  -4   0   28.45    6.22
  -4  -4   0   11.69    6.52
   4   4   0   22.89    6.43
  -4   4   0   23.56    5.56
  -4   4   0   21.76    6.19
   4   4   0   19.18    5.66
   5  -4   0   40.99    7.79
  -5  -4   0   33.43    7.51
  -5  -4   0   55.35   11.61
  -5   4   0   34.08    9.06
   5   4   0   34.37    8.30
   5   4   0   36.63    9.24
  -5   4   0   38.54    7.84
   6  -4   0   -4.98    4.40
  -6  -4   0    3.96    7.96
  -6   4   0    1.18    6.54
   6   4   0    1.30    6.28
  -7  -4   0   93.55   17.79
   7   4   0   93.28   14.73
  -7   4   0   80.12   15.72
   8  -4   0   26.96    8.19
  -8  -4   0   10.33   10.64
  -8   4   0   27.98   11.38
   8   4   0   25.80    9.72
   9  -4   0   24.01    9.02
  -9  -4   0   20.05   12.67
  -9   4   0   33.47   13.10
   9   4   0   12.64    9.24
   0  -5   0    3.76    3.72
   0  -5   0    0.07    0.93
   0   5   0   -0.67    1.84
   0   5   0   -0.21    1.66
   0   5   0   -1.36    1.74
   0   5   0    0.39    2.64
   1  -5   0  106.97    8.31
  -1  -5   0  110.40    9.00
  -1  -5   0   96.17    5.74
   1  -5   0   93.09    5.34
  -1   5   0   89.47    7.29
   1   5   0   84.22    6.09
  -1   5   0   96.44    5.14
   1   5   0  100.39    7.95
  -1   5   0   92.86    6.13
   2  -5   0  109.03    6.91
  -2  -5   0   97.23    9.74
   2  -5   0  107.07    5.69
  -2  -5   0  114.13    7.65
   2  -5   0  122.90   10.08
  -2   5   0  104.30    8.80
  -2   5   0  127.83    7.07
   2   5   0   96.70    8.99
  -2   5   0  105.13    7.51
   2   5   0  108.79    8.05
   3  -5   0   82.81    7.18
  -3  -5   0   66.76    7.14
   3  -5   0   71.78    6.33
  -3  -5   0   56.76    9.59
   3   5   0   91.22   11.10
   3   5   0   92.50    8.86
  -3   5   0   85.01    8.99
  -3   5   0   84.51    7.09
  -3   5   0   88.14    8.68
  -4  -5   0   29.97    8.69
  -4  -5   0   25.84    6.06
   4  -5   0   26.30    5.59
  -4   5   0   27.36    5.57
  -4   5   0   18.51    6.36
   4   5   0   23.93    6.85
  -4   5   0   27.57    7.22
   4   5   0   30.43    7.69
  -5  -5   0  158.36   17.32
   5  -5   0  142.27   11.64
  -5  -5   0  160.06   13.36
   5   5   0  148.03   13.95
  -5   5   0  178.07   15.72
   5   5   0  159.10   15.58
  -5   5   0  150.62   13.53
  -5   5   0  149.71   14.37
   6  -5   0   61.81    9.74
  -6  -5   0   56.64   13.54
  -6   5   0   68.65   15.21
   6   5   0   77.82   15.14
   7  -5   0   24.07    7.55
  -7  -5   0   16.55    9.77
   7   5   0   18.53    8.63
  -7   5   0   19.07    9.52
  -8  -5   0   24.83   12.52
   8  -5   0   18.66    7.96
   8   5   0   26.86    9.98
  -8   5   0   24.01   11.75
  -9  -5   0   67.22   19.81
   9  -5   0   88.81   15.11
  -9   5   0   58.31   15.95
   9   5   0   88.77   16.35
   0  -6   0  359.38   16.72
   0   6   0  329.31   12.01
   0   6   0  346.05   13.08
   0   6   0  310.93   14.93
   0   6   0  342.75   12.95
   1  -6   0    3.59    4.16
  -1  -6   0    6.08    2.24
  -1  -6   0    4.79    3.70
  -1  -6   0    4.15    2.27
   1  -6   0    5.67    1.93
  -1   6   0    6.91    3.46
   1   6   0    4.54    2.62
  -1   6   0    5.94    2.72
  -1   6   0   10.04    2.55
   1   6   0    2.92    3.41
   2  -6   0   20.35    6.01
   2  -6   0   13.52    3.19
   2  -6   0   14.78    2.26
  -2  -6   0   18.37    4.02
  -2  -6   0   16.05    5.89
  -2   6   0   20.58    3.64
   2   6   0   18.93    4.58
   2   6   0   29.16    6.22
  -2   6   0   15.25    3.94
  -2   6   0   15.47    5.33
  -3  -6   0   48.62    6.92
   3  -6   0   57.94    7.05
   3  -6   0   44.23    5.17
  -3  -6   0   50.15    9.80
   3   6   0   47.91    7.75
  -3   6   0   49.90    8.23
  -3   6   0   55.46    6.81
  -3   6   0   40.86    6.64
   3   6   0   58.62    9.40
  -4  -6   0  234.71   14.85
  -4  -6   0  248.99   19.32
   4  -6   0  226.89   13.98
   4  -6   0  223.51   12.16
  -4   6   0  218.90   13.44
  -4   6   0  220.61   15.10
   4   6   0  233.38   15.69
   4   6   0  221.58   17.06
  -5  -6   0    7.38    5.45
   5  -6   0    9.83    4.81
  -5  -6   0    9.91    7.33
   5   6   0   10.92    7.33
  -5   6   0    0.05    6.51
   5   6   0    6.55    5.92
  -5   6   0   10.76    6.94
  -6  -6   0    1.44    7.51
   6  -6   0   -4.61    4.01
  -6   6   0    9.65    7.74
   6   6   0   -0.23    5.75
  -7  -6   0    8.18    7.67
   7  -6   0   19.42    7.11
  -7   6   0   17.65    9.09
   7   6   0    7.71    7.46
  -8  -6   0   99.56   20.49
   8  -6   0  109.71   14.27
  -8   6   0   93.83   17.87
   8   6   0   86.78   15.43
  -9  -6   0   -4.88    8.64
   9  -6   0   -3.74    6.94
   9   6   0    4.90    8.08
  -9   6   0   13.78   11.64
   0  -7   0    1.84    3.33
   0   7   0   -0.05    1.86
   0   7   0   -1.90    2.00
   0   7   0    3.58    2.18
   0   7   0   -1.66    2.93
  -1  -7   0  339.82   17.73
  -1  -7   0  380.65   13.50
   1  -7   0  425.70   19.91
   1  -7   0  394.91   13.44
  -1  -7   0  387.10   13.90
  -1  -7   0  388.21   18.60
   1   7   0  386.32   15.23
  -1   7   0  373.48   13.60
  -1   7   0  374.67   15.01
  -1   7   0  372.82   18.18
   1   7   0  409.80   18.41
   2  -7   0   -2.19    3.86
   2  -7   0    4.42    2.36
  -2  -7   0   -0.05    4.25
  -2  -7   0   -2.26    2.11
  -2   7   0   -0.43    2.74
  -2   7   0   -0.08    3.58
   2   7   0   -1.73    2.78
   2   7   0   -6.60    2.93
  -2   7   0    3.36    2.31
  -3  -7   0  169.52   15.09
  -3  -7   0  191.73   11.45
   3  -7   0  172.89   10.46
  -3   7   0  164.26   13.02
  -3   7   0  165.75   11.40
  -3   7   0  155.29    9.99
   3   7   0  217.28   15.28
   3   7   0  195.06   12.81
   4  -7   0    2.49    3.27
   4  -7   0    1.92    4.41
  -4  -7   0   -3.17    3.93
  -4  -7   0    0.16    6.33
  -4   7   0    2.31    4.98
   4   7   0   -0.81    4.89
  -4   7   0    8.54    6.40
   4   7   0    5.03    6.15
  -5  -7   0  191.54   14.77
   5  -7   0  201.29   12.90
  -5  -7   0  186.58   19.73
   5   7   0  200.43   18.37
   5   7   0  192.44   16.79
  -5   7   0  254.46   18.50
   6  -7   0   18.49    6.06
  -6  -7   0   18.57    9.22
  -6   7   0   14.37    7.23
   6   7   0   12.34    7.05
  -7  -7   0   86.70   17.92
   7  -7   0  105.88   12.69
  -7   7   0   94.03   16.63
   7   7   0   88.89   15.17
   8  -7   0   13.33    6.70
  -8  -7   0   -8.09    9.04
  -8   7   0  -11.95    6.88
   8   7   0   -4.78    5.44
   9  -7   0  124.81   15.77
  -9  -7   0  130.06   25.96
  -9   7   0  137.74   22.83
   9   7   0  117.15   19.08
   0  -8   0   58.65    8.84
   0   8   0   53.29    7.68
   0   8   0   47.08    5.48
   0   8   0   57.99    5.74
  -1  -8   0  244.63   10.21
  -1  -8   0  265.20   10.16
   1  -8   0  271.11   16.95
  -1  -8   0  248.90   15.35
   1   8   0  276.49   14.29
  -1   8   0  259.22   10.87
   1   8   0  258.82   15.05
   1   8   0  265.78   13.28
  -1   8   0  241.67   12.12
  -1   8   0  279.41   15.92
   2  -8   0   -1.87    4.89
  -2  -8   0   -2.14    2.42
  -2  -8   0   -2.21    3.83
   2  -8   0   -1.01    1.94
  -2   8   0   -0.34    3.98
   2   8   0    0.56    3.01
   2   8   0    0.30    4.20
  -2   8   0    0.50    2.84
  -2   8   0    3.26    2.43
  -3  -8   0  128.53    9.92
   3  -8   0  142.99    5.89
  -3  -8   0  142.84   15.22
   3  -8   0  136.79    9.17
   3   8   0  153.48   12.12
  -3   8   0  142.60    9.74
  -3   8   0  133.22   11.80
   3   8   0  125.92   12.64
  -3   8   0  142.91   10.85
  -4  -8   0   29.98    7.09
   4  -8   0   29.04    6.56
  -4  -8   0   22.65    9.10
   4  -8   0   28.07    4.50
   4   8   0   25.11    7.42
   4   8   0   25.04    8.28
  -4   8   0   34.54    7.69
  -4   8   0   34.78    8.28
  -4   8   0   31.34    7.15
  -5  -8   0   97.69   16.66
   5  -8   0  116.71    9.27
  -5  -8   0   98.87   12.31
  -5   8   0   76.32   12.43
   5   8   0  105.62   14.08
   5   8   0  103.22   15.10
  -6  -8   0   12.51    9.14
   6  -8   0   15.01    5.30
  -6   8   0   18.24    7.34
   6   8   0   16.53    7.08
  -7  -8   0   58.41   16.25
   7  -8   0   52.32    8.86
   7   8   0   72.04   13.46
  -7   8   0   69.91   14.75
  -8  -8   0   24.21   14.05
   8  -8   0   12.13    7.18
   8   8   0    9.10    8.28
  -8   8   0   23.65    9.60
   9  -8   0   23.71    8.50
  -9  -8   0   29.25   16.39
   9   8   0   -0.98    8.57
  -9   8   0   15.00   11.98
   0  -9   0   -3.30    3.96
   0   9   0   -4.40    3.09
   0   9   0    0.53    2.36
   0   9   0   -0.25    2.70
  -1  -9   0   27.31    3.09
  -1  -9   0   19.18    6.86
  -1  -9   0   24.88    3.03
   1  -9   0   27.73    8.30
  -1   9   0   28.27    4.21
   1   9   0   26.35    4.77
   1   9   0   25.09    6.37
   1   9   0   25.43    5.30
  -1   9   0   23.76    4.80
  -2  -9   0   10.28    5.90
   2  -9   0   15.57    3.16
  -2  -9   0   14.18    3.76
  -2  -9   0   10.22    3.81
   2  -9   0   12.19    7.07
   2   9   0    7.56    5.37
  -2   9   0    9.25    3.53
  -2   9   0   11.56    5.01
  -2   9   0    8.46    3.99
   2   9   0    6.61    4.03
   3  -9   0   40.15    5.88
  -3  -9   0   26.85    5.73
  -3  -9   0   30.19    9.52
  -3   9   0   33.46    6.01
  -3   9   0   37.24    7.10
   3   9   0   39.40    9.06
  -3   9   0   35.81    8.74
   3   9   0   35.11    7.53
  -4  -9   0   -0.59    4.35
  -4  -9   0    0.81    7.53
   4  -9   0   -3.06    3.35
   4   9   0   -2.01    4.77
  -4   9   0   -4.40    3.61
   4   9   0    2.89    6.23
  -4   9   0    0.95    4.74
   5  -9   0   46.31    6.04
  -5  -9   0   38.94   11.55
  -5  -9   0   31.53    7.99
   5   9   0   64.06   12.91
  -5   9   0   47.47   10.02
   5   9   0   53.90   10.82
   6  -9   0    2.84    3.81
  -6  -9   0   -4.50    6.16
   6   9   0    8.20    6.37
  -6   9   0    6.67    6.54
   7  -9   0    7.35    5.32
  -7  -9   0   20.18   11.03
   7   9   0   21.53    9.02
  -7   9   0   30.98   10.05
  -8  -9   0    5.83    9.73
   8  -9   0    1.20    6.85
   8   9   0   -0.14    8.17
  -8   9   0   -4.53    7.44
   9  -9   0    7.09    7.27
  -9  -9   0   -1.80   12.26
  -9   9   0    8.04   11.52
   0 -10   0    0.26    5.15
   0  10   0   -0.39    3.88
   0  10   0    3.65    3.06
   0  10   0    0.00    2.88
  -1 -10   0  266.90   18.43
  -1 -10   0  280.06    9.04
   1 -10   0  281.90   19.40
   1  10   0  283.02   14.24
   1  10   0  298.02   15.28
  -1  10   0  268.26   12.65
  -1  10   0  292.97   14.45
  -1  10   0  267.76   17.35
   1  10   0  274.52   17.01
   2 -10   0    8.76    6.97
  -2 -10   0    2.15    3.05
   2 -10   0    5.36    2.32
  -2 -10   0   -1.53    4.72
  -2 -10   0    6.05    5.86
  -2  10   0    0.39    4.58
  -2  10   0    3.84    3.15
  -2  10   0    4.36    3.80
   2  10   0   -3.93    4.24
   2  10   0    8.82    4.72
   3 -10   0  351.72   15.18
   3 -10   0  344.90   23.53
  -3 -10   0  343.14   23.64
  -3 -10   0  340.97   16.72
   3  10   0  366.99   22.55
   3  10   0  359.38   19.44
  -3  10   0  384.94   18.58
  -3  10   0  333.93   16.52
  -4 -10   0   -1.56    4.44
   4 -10   0    1.78    4.11
  -4 -10   0    1.50    6.66
  -4  10   0   -1.01    3.69
  -4  10   0    2.50    5.09
   4  10   0  -10.05    5.58
   4  10   0   -1.72    5.21
  -5 -10   0  129.06   12.66
  -5 -10   0  150.48   21.40
   5  10   0  163.87   15.61
  -5  10   0  133.32   14.09
   6 -10   0   -0.50    3.20
  -6 -10   0    8.15    8.91
   6  10   0   -0.51    6.00
  -6  10   0   16.07    7.57
  -7 -10   0  180.07   26.45
   7 -10   0  209.33   12.90
  -7  10   0  154.00   20.49
   7  10   0  204.15   19.96
   8 -10   0   -3.59    4.92
  -8 -10   0   -1.35    8.75
   8  10   0   -9.87    6.36
  -8  10   0   19.16   10.60
   0 -11   0   -3.65    5.29
   0  11   0    2.72    4.23
   0  11   0   -2.52    2.99
  -1 -11   0   59.51   11.05
   1 -11   0   54.76   11.02
  -1  11   0   52.43    6.75
  -1  11   0   56.23    7.74
   1  11   0   60.64    9.93
  -1  11   0   57.44    9.34
   1  11   0   48.95    7.85
   1  11   0   66.04    8.11
   2 -11   0   39.77   10.55
  -2 -11   0   43.41   10.20
  -2 -11   0   38.11    4.98
  -2 -11   0   43.41    5.38
  -2  11   0   49.25    6.61
   2  11   0   48.25    8.54
   2  11   0   46.48    9.75
  -2  11   0   41.65    6.88
   2  11   0   52.80    8.48
  -3 -11   0   59.49    8.00
  -3 -11   0   74.30    7.89
   3 -11   0   73.62    6.55
   3 -11   0   47.84   12.18
  -3 -11   0   68.80   13.31
   3  11   0   76.84   11.00
   3  11   0   62.74   11.91
  -3  11   0   67.26    9.07
  -3  11   0   70.86    8.47
  -4 -11   0   11.27    8.74
  -4 -11   0   -1.70    4.74
   4 -11   0    5.46    4.08
   4  11   0   -3.89    6.53
  -4  11   0    9.28    5.18
  -4  11   0    9.80    5.74
   4  11   0    9.80    5.72
  -5 -11   0   80.71   16.81
  -5 -11   0  100.60   12.52
  -5  11   0   95.17   13.36
  -6 -11   0   22.52   11.78
  -6  11   0   35.17    9.69
   6  11   0   32.69    9.45
  -7 -11   0    1.30    9.37
   7  11   0   13.50    8.85
  -7  11   0    7.99    8.82
  -8 -11   0   -5.87   10.42
  -8  11   0    0.00    7.86
   8  11   0    0.23    7.74
   0 -12   0   30.24    9.26
   0  12   0   41.02    6.97
   0  12   0   36.32    8.32
   1 -12   0   20.87    9.27
  -1 -12   0   38.01   10.63
   1  12   0   31.38    6.47
   1  12   0   38.84    7.26
  -1  12   0   34.30    6.85
  -1  12   0   40.25    6.66
   1  12   0   37.77    9.12
  -1  12   0   24.93    7.67
   2 -12   0    9.20    7.26
  -2 -12   0   -0.20    2.07
  -2 -12   0   -0.90    6.59
  -2 -12   0    1.90    2.40
   2  12   0    2.17    4.94
   2  12   0   -3.30    5.28
   2  12   0   -2.73    4.46
  -2  12   0    4.42    4.61
  -2  12   0   -2.16    3.35
   3 -12   0   62.15   12.53
  -3 -12   0   68.94   13.42
  -3 -12   0   64.75    7.90
   3 -12   0   67.00    5.69
  -3 -12   0   76.11   13.63
  -3 -12   0   62.88    7.85
  -3  12   0   81.19    8.58
  -3  12   0   59.38    8.85
   3  12   0   79.21   11.22
   3  12   0   56.54   11.56
  -4 -12   0   45.23    8.10
   4 -12   0   50.13    6.45
  -4 -12   0   33.49   11.45
  -4  12   0   60.61    9.68
   4  12   0   40.00    9.39
  -5 -12   0    4.07    6.20
  -5 -12   0   16.16   10.66
   5  12   0   24.06    8.59
  -5  12   0   13.53    6.80
  -6 -12   0    9.72   10.05
  -6  12   0    6.55    7.40
   6  12   0   19.59    9.55
  -7 -12   0   32.35   14.79
   7  12   0   30.00   10.42
  -7  12   0   37.94   10.86
  -8 -12   0   41.45   16.12
   8  12   0    6.23    9.14
  -8  12   0   40.23   12.26
   0 -13   0    3.87    6.50
   0  13   0   -1.57    4.00
   0  13   0    8.00    5.16
   1 -13   0  249.95   20.46
  -1  13   0  225.27   16.56
   1  13   0  234.97   19.59
  -1  13   0  242.57   14.79
  -1  13   0  233.07   13.54
   1  13   0  238.07   15.39
  -2 -13   0    0.26    6.04
   2  13   0   -7.57    3.56
  -2  13   0    0.86    4.10
  -2  13   0   -0.48    3.89
   2  13   0   -9.22    4.73
   2  13   0    4.01    4.32
  -3 -13   0  137.76    9.40
  -3 -13   0  107.90    9.92
  -3 -13   0  115.30   16.50
   3 -13   0  106.71   17.54
  -3 -13   0  106.34   16.41
  -3  13   0  102.35    9.69
  -3  13   0  135.49   11.60
   3  13   0  125.44   13.63
   3  13   0  149.30   18.13
   3  13   0  139.98   12.96
  -4 -13   0    4.25    4.18
   4 -13   0    2.04    3.35
  -4 -13   0    0.63    7.82
  -4 -13   0    0.32    4.19
   4  13   0   -5.78    4.99
  -4  13   0   -1.46    4.52
   4  13   0   -1.50    7.36
  -5 -13   0  166.37   14.90
  -5 -13   0  215.68   23.25
   5  13   0  170.92   17.28
  -5  13   0  180.36   16.54
  -6 -13   0    9.30    9.90
   6  13   0   -0.05    6.46
  -6  13   0   -2.01    6.33
  -7 -13   0   21.62   12.71
  -7  13   0   40.08   12.94
   7  13   0   79.07   16.45
   0 -14   0   90.15   14.78
   0  14   0   97.07   12.83
   0  14   0   66.44    9.26
  -1 -14   0   17.21    7.55
   1 -14   0   18.12    8.49
  -1  14   0   17.68    5.61
   1  14   0   18.13    5.97
  -1  14   0   16.72    6.76
  -1  14   0   17.21    5.12
  -2 -14   0    4.39    6.15
   2 -14   0    5.98    6.79
   2  14   0  -11.51    4.51
   2  14   0   -2.12    4.21
   2  14   0    3.10    4.75
  -2  14   0    6.39    4.58
  -2  14   0   -0.71    4.02
   3 -14   0    8.83    8.67
  -3 -14   0   20.82    3.99
  -3 -14   0   25.64   10.51
  -3 -14   0   11.92    3.35
   3  14   0   14.63    6.88
   3  14   0   14.42    5.97
   3  14   0    3.70    7.33
  -3  14   0   34.00    6.91
  -4 -14   0   84.94   16.68
  -4 -14   0   62.29   14.04
  -4 -14   0   83.34    9.68
  -4 -14   0   56.45    7.78
   4  14   0   74.48   14.72
  -4  14   0   71.56   10.42
   4  14   0   79.78   14.19
  -5 -14   0   27.21   11.50
  -5 -14   0    6.92    5.53
   5  14   0   22.48    8.86
  -5  14   0   15.27    7.02
  -6 -14   0   -9.17    8.17
  -6  14   0    6.99    7.15
   6  14   0   -6.46    6.49
  -7 -14   0   27.52   13.24
   7  14   0   15.88   10.87
  -7  14   0   -3.76    8.01
   0 -15   0   14.69    8.35
   0  15   0   -4.03    6.02
   0  15   0    2.64    4.23
  -1 -15   0   46.27   11.03
   1 -15   0   37.87   12.27
   1  15   0   30.85    7.46
  -1  15   0   46.19    7.46
  -1  15   0   49.01    9.77
   1  15   0   18.33    8.30
  -1  15   0   50.59    8.03
   2 -15   0  118.16   19.33
  -2 -15   0  115.75   18.26
  -2  15   0  108.25   10.96
  -2  15   0  114.69   12.76
   2  15   0  120.32   15.46
   2  15   0  125.35   12.94
  -2  15   0  130.19   11.53
   3 -15   0   10.54    9.06
  -3 -15   0   11.87    8.04
   3  15   0    3.38    5.57
   3  15   0    5.13    8.47
   3  15   0   10.97    6.64
  -3  15   0    0.59    4.13
  -4 -15   0   15.47    4.73
  -4 -15   0   14.35    4.59
  -4 -15   0   35.22   11.92
  -4 -15   0   12.54    8.86
   4  15   0   13.26    7.96
  -4  15   0   22.09    6.99
   4  15   0   11.08    9.21
   4  15   0   29.39    8.83
  -5 -15   0   30.66   13.54
  -5 -15   0   15.39    6.20
  -5 -15   0   14.88    9.15
  -5 -15   0    6.83    7.21
   5  15   0   24.18    8.77
  -5  15   0   31.22    8.46
   5  15   0   24.75    9.32
  -6 -15   0   38.52   14.51
  -6 -15   0   82.65   12.40
   6  15   0   80.54   16.19
  -6  15   0   67.75   13.20
  -7 -15   0    3.78   11.70
  -7  15   0    7.48    8.76
   7  15   0   19.51   10.98
   0 -16   0    5.40    8.15
   0  16   0    7.36    6.45
   0  16   0    6.07    5.08
   1 -16   0   46.76   13.14
  -1 -16   0   42.36   11.82
  -1  16   0   50.41   10.37
   1  16   0   40.43    9.66
   1  16   0   29.02    7.64
  -1  16   0   50.03    8.57
   2 -16   0   -8.60    6.62
  -2 -16   0   -9.79    6.14
  -2  16   0    1.36    4.06
   2  16   0   -8.16    5.64
   2  16   0   -3.19    4.42
  -2  16   0   -9.67    4.84
  -3 -16   0   63.15   15.00
   3 -16   0   54.05   13.90
   3  16   0   43.88   12.07
   3  16   0   61.36   10.82
   3  16   0   56.03   11.18
  -3  16   0   41.02    8.17
  -4 -16   0   -0.66    6.56
  -4 -16   0   -0.33    2.75
  -4  16   0   12.28    6.64
   4  16   0   -8.83   10.01
   4  16   0   12.42    7.24
   4  16   0   12.01    7.33
  -5 -16   0   45.58    7.90
  -5 -16   0   11.73    7.03
  -5 -16   0   42.23   15.12
  -5 -16   0   44.49   13.71
  -5  16   0   40.92    9.46
   5  16   0   38.68   10.80
   5  16   0   39.20   10.87
  -6 -16   0   -0.61   10.19
  -6 -16   0   13.15   11.74
  -6 -16   0    2.88    5.47
  -6  16   0   -1.06    6.50
   6  16   0  -10.48    7.40
   6  16   0   -0.87    7.43
   0 -17   0    5.44    8.46
   0  17   0    5.82    4.78
   0  17   0    0.67    5.81
  -1 -17   0    6.74    8.06
   1 -17   0    0.05    7.89
   1  17   0   -2.25    4.21
  -1  17   0   -1.61    5.55
  -1  17   0    3.85    4.55
  -2 -17   0  274.16   24.15
   2 -17   0  241.09   24.75
  -2  17   0  205.08   18.10
  -2  17   0  247.33   15.75
   2  17   0  228.01   17.84
   2  17   0  250.58   20.67
  -3 -17   0   11.34    9.51
   3 -17   0   -7.67    7.59
  -3  17   0    4.39    4.87
   3  17   0    8.04    6.77
  -3  17   0    6.74    6.59
   3  17   0   -6.68   10.02
  -4 -17   0   -0.45    8.85
   4  17   0  -24.96    9.76
   4  17   0    8.97    8.08
   4  17   0    3.59    6.74
  -4  17   0   -1.58    5.40
  -5 -17   0    0.19    3.83
  -5 -17   0  -13.01    6.35
  -5 -17   0   -9.77    7.24
   5  17   0   -5.96    6.18
   5  17   0    0.71    8.33
  -5  17   0   -7.84    6.11
   0 -18   0   88.20   17.74
   0  18   0   89.05   12.83
   0  18   0  103.67   11.28
   1 -18   0   -2.01    8.41
  -1 -18   0   13.95   10.38
  -1  18   0    1.71    4.35
   1  18   0   -6.40    6.96
   1  18   0   -0.43    4.73
  -1  18   0   -6.84    6.22
  -2 -18   0    3.88    9.03
   2 -18   0   13.91   10.01
   2  18   0    7.85    9.08
   2  18   0   -0.46    4.78
  -2  18   0   -5.10    4.11
  -2  18   0   -7.75    5.70
  -3 -18   0   -7.18    9.07
   3 -18   0    7.93    9.96
  -3  18   0    3.44    7.45
   3  18   0   12.93   12.38
   3  18   0   15.91    8.09
  -3  18   0   16.96    6.08
  -4 -18   0  114.81   20.93
  -4  18   0  141.78   13.89
   4  18   0  107.09   16.56
  -5 -18   0    1.28    9.89
   5  18   0    4.84    8.79
  -5  18   0  -11.16    5.60
   5  18   0    1.23    5.21
   0 -19   0   -1.63    8.39
   0  19   0   -2.09    4.80
   1 -19   0   -5.73    7.98
  -1 -19   0   -4.14    8.24
   1  19   0    4.59    5.12
  -1  19   0   -0.67    4.72
  -1  19   0    2.44    7.02
   2 -19   0    6.03   10.25
  -2 -19   0    4.89    8.89
   2  19   0    6.99   10.22
  -2  19   0   29.14    6.63
   2  19   0   38.75   10.00
  -2  19   0   25.45    8.67
  -3 -19   0    2.25    8.22
   3 -19   0   -8.49    7.58
  -3  19   0   -5.27    8.14
   3  19   0   10.86    7.45
  -3  19   0   -9.76    4.04
  -4 -19   0   -8.13    9.82
   4  19   0   -1.80    6.86
  -4  19   0    0.71    5.74
   0 -20   0  179.38   26.93
   0  20   0  266.91   17.25
   0  20   0  226.21   19.64
  -1 -20   0   -4.40    6.20
   1 -20   0   10.56   10.85
   1  20   0   -3.46    4.91
  -1  20   0    7.54    7.49
  -1  20   0   -0.39    4.60
   2 -20   0   11.60   10.79
  -2  20   0    4.56    5.50
   2  20   0   -3.88    5.66
 -10   0   1   -1.89   10.50
  10   0  -1   10.34    9.35
   9   0  -1    3.57    7.14
  -9   0   1   -5.08    9.48
  -8   0   1    1.67    7.66
   8   0  -1    6.30    6.86
  -7   0   1   -4.87    5.75
   7   0  -1    0.92    5.77
  -6   0   1    6.86    8.24
   6   0  -1   -1.52    5.32
  -5   0   1    0.89    3.24
   5   0  -1   -1.87    4.19
  -5   0   1   13.85    6.88
   5   0  -1    1.88    4.64
   4   0  -1   -3.20    3.66
  -4   0   1    6.94    3.90
  -4   0   1   10.13    5.56
  -3   0   1   -2.71    2.44
  -3   0   1    3.10    3.77
   3   0  -1    4.25    3.65
   3   0  -1    0.25    3.10
  -2   0   1    1.66    3.86
   2   0  -1   -2.00    2.87
  -2   0   1   -2.02    2.78
   2   0  -1   -1.11    2.98
  -1   0   1    2.72    1.83
   1   0  -1    0.34    0.89
   1   0  -1    0.23    1.20
  -1   0   1    0.70    0.88
   1   0   1    0.09    0.69
   1   0   1    0.47    1.52
  -1   0  -1   -1.32    1.16
  -1   0  -1    0.68    1.05
  -2   0  -1   -0.69    2.54
  -2   0  -1    0.37    4.09
   2   0   1    1.41    2.74
   3   0   1   -1.12    3.02
  -3   0  -1   -0.38    3.77
  -3   0  -1   -1.96    1.81
   3   0   1   -1.21    2.76
  -4   0  -1    5.58    5.11
  -4   0  -1    0.56    3.52
   4   0   1   14.22    5.44
   4   0   1    4.74    4.35
   5   0   1    0.72    4.74
  -5   0  -1    5.12    4.44
  -5   0  -1    5.59    6.24
   5   0   1    0.15    4.56
  -6   0  -1   12.75    9.23
   6   0   1   12.34    6.67
   7   0   1   -3.54    5.27
  -7   0  -1  -13.23    4.31
   8   0   1   -0.14    5.93
  -8   0  -1    0.76    8.31
  -9   0  -1   -7.16    6.90
   9   0   1  -10.09    6.31
  10   0   1  -10.37    6.36
 -10   0  -1   -7.39   11.39
 -10  -1   1    7.06   12.11
  10  -1  -1    9.96    8.30
  10   1  -1   11.64    8.92
   9  -1  -1   -3.00    6.47
  -9  -1   1    5.91   10.18
  -9   1   1   -1.77    8.92
   9   1  -1   -0.90    6.96
   8  -1  -1  240.04   19.92
  -8  -1   1  237.40   24.76
   8   1  -1  249.03   20.93
  -8   1   1  248.05   25.13
   7  -1  -1   -7.90    4.27
  -7  -1   1  -11.59    5.21
   7   1  -1    8.05    6.60
  -7   1   1    0.65    7.13
   6  -1  -1   86.20   12.15
  -6  -1   1   73.85   13.91
   6   1  -1   47.29   10.23
  -6   1   1   75.11   13.75
   5  -1  -1   -3.15    4.09
  -5  -1   1   -2.74    3.36
  -5  -1   1    2.93    4.81
   5  -1  -1   -2.58    3.95
  -5   1   1    0.57    5.60
  -5   1   1   -1.99    3.54
   5   1  -1   -5.04    3.87
   5   1  -1   -1.58    5.05
   4  -1  -1  613.50   26.26
  -4  -1   1  662.26   29.35
   4  -1  -1  612.20   24.68
  -4  -1   1  629.70   25.28
   4   1  -1  665.20   26.08
  -4   1   1  603.34   24.67
   4   1  -1  585.38   26.90
  -4   1   1  626.23   28.01
   3  -1  -1   -1.92    2.91
  -3  -1   1    7.51    4.52
  -3  -1   1   -2.32    2.37
   3  -1  -1   -1.82    2.94
   3   1  -1    1.08    3.49
  -3   1   1    1.23    2.50
  -3   1   1    1.01    3.92
   3   1  -1    0.57    3.37
  -2  -1   1  119.13    9.45
   2  -1  -1  109.93    6.86
   2  -1  -1  114.82    7.79
  -2  -1   1  117.28    7.66
  -2   1   1  102.47    6.74
   2   1  -1  112.82    8.75
   1  -1  -1   16.67    2.03
   1  -1  -1   16.10    2.30
  -1  -1   1   19.84    3.77
  -1   1   1   11.62    1.83
   1   1  -1   21.98    2.82
  -1   1   1   19.82    2.71
  -1  -1  -1   32.64    3.83
   1  -1   1   29.52    3.15
   1  -1   1   33.60    3.21
  -1  -1  -1   31.90    2.94
   1   1   1   37.29    3.37
   1   1   1   32.97    3.39
  -1   1  -1   33.01    3.59
  -2  -1  -1  151.38   10.13
  -2  -1  -1  150.89    8.65
   2  -1   1  156.05    9.28
  -2   1  -1  159.74    9.98
   2   1   1  147.33    9.58
  -2   1  -1  137.91    8.34
   3  -1   1   18.36    5.06
  -3  -1  -1   26.14    5.28
  -3  -1  -1   17.43    5.66
   3  -1   1   19.82    4.92
  -3   1  -1   19.60    4.56
  -3   1  -1   26.01    5.66
   3   1   1   12.44    4.39
   3   1   1   17.96    4.92
  -4  -1  -1  550.61   26.51
   4  -1   1  539.91   24.32
  -4  -1  -1  560.81   23.61
   4  -1   1  570.96   23.71
  -4   1  -1  528.48   22.97
   4   1   1  531.16   24.90
  -4   1  -1  591.26   26.62
   4   1   1  573.13   24.27
  -5  -1  -1   11.79    7.15
   5  -1   1   31.72    7.91
   5  -1   1   13.65    5.91
  -5  -1  -1    9.53    5.26
  -5   1  -1   19.53    5.88
   5   1   1   10.62    6.06
  -5   1  -1   19.45    7.74
   5   1   1   19.92    7.05
  -6  -1  -1  160.30   19.98
   6  -1   1  181.35   15.43
  -6   1  -1  176.90   18.31
   6   1   1  152.72   15.03
  -7  -1  -1   32.96   10.92
   7  -1   1   28.32    8.83
  -7   1  -1   34.97   12.24
   7   1   1   21.85    9.11
   8  -1   1  119.20   17.28
  -8  -1  -1   95.40   19.03
   8   1   1  104.62   16.43
  -8   1  -1  135.80   21.33
   9  -1   1   22.96   10.38
  -9  -1  -1   26.47   12.91
   9   1   1   21.59    9.46
  -9   1  -1   22.40   12.69
 -10  -1  -1   60.43   17.93
  10  -1   1   49.96   13.57
  10   1   1   73.54   18.54
 -10  -2   1  131.86   24.54
  10  -2  -1  133.51   20.26
  10   2  -1  146.82   21.98
  -9  -2   1   -2.74    8.41
   9  -2  -1    1.96    6.26
  -9   2   1  -15.73    6.54
   9   2  -1   -0.90    6.12
   8  -2  -1   -2.96    5.94
  -8  -2   1    3.92    8.44
   8   2  -1   10.82    7.37
  -8   2   1    8.17    8.28
  -7  -2   1   10.49    7.67
   7  -2  -1   18.07    7.30
  -7   2   1   12.41    8.44
   7   2  -1    6.79    6.90
   6  -2  -1  412.80   22.43
  -6  -2   1  378.79   27.02
   6   2  -1  364.55   22.45
  -6   2   1  387.17   26.15
  -5  -2   1    6.88    4.93
   5  -2  -1   11.53    5.66
  -5  -2   1    2.19    5.55
   5  -2  -1    3.90    4.94
  -5   2   1   10.01    5.03
  -5   2   1    6.05    6.20
   5   2  -1    3.09    5.30
   5   2  -1   10.02    6.33
   4  -2  -1   68.06    8.87
  -4  -2   1   63.91   11.06
  -4  -2   1   65.09    8.60
   4  -2  -1   69.07    8.28
  -4   2   1   70.62   10.10
   4   2  -1   79.17   11.01
  -4   2   1   74.15    8.90
   4   2  -1   60.55    8.60
  -3  -2   1   38.27    5.96
   3  -2  -1   34.59    5.99
  -3  -2   1   42.72    7.25
   3  -2  -1   43.11    5.78
   3   2  -1   36.13    6.25
   3   2  -1   39.96    7.29
  -3   2   1   47.07    6.33
  -3   2   1   53.55    7.89
  -2  -2   1  441.72   19.22
   2  -2  -1  427.00   15.03
  -2  -2   1  428.57   16.56
   2  -2  -1  435.19   16.17
  -2   2   1  427.21   15.40
   2   2  -1  427.45   18.52
  -2   2   1  488.30   19.43
   2   2  -1  415.51   16.53
  -1  -2   1    6.99    2.34
   1  -2  -1    5.34    1.60
  -1  -2   1   10.27    3.68
   1  -2  -1    8.67    1.31
  -1   2   1    7.11    1.85
   1   2  -1    5.83    3.18
   1   2  -1    4.79    2.30
  -1   2   1   10.31    2.74
  -1   2   1    5.43    1.38
   1  -2   1   80.60    4.93
   1  -2   1   91.75    5.50
   1  -2   1   75.00    5.20
  -1  -2  -1   79.68    4.71
  -1  -2  -1   87.50    5.78
   1   2   1   74.72    4.99
  -1   2  -1   82.12    5.50
  -1   2  -1   82.08    5.17
   1   2   1   86.88    5.79
  -1   2  -1   80.96    4.82
  -2  -2  -1  592.20   20.53
  -2  -2  -1  582.71   22.37
   2  -2   1  586.98   20.93
  -2   2  -1  589.36   20.19
   2   2   1  545.58   21.49
  -2   2  -1  603.92   21.47
   2   2   1  613.52   22.91
  -3  -2  -1  117.02    8.67
   3  -2   1  114.24    8.50
  -3  -2  -1  125.52   10.87
   3  -2   1  120.99    9.31
  -3   2  -1  113.10    8.33
  -3   2  -1  111.42    9.82
   3   2   1  101.55    9.44
   3   2   1  120.28    9.27
   4  -2   1   35.94    6.92
  -4  -2  -1   36.33    8.55
   4  -2   1   29.02    6.38
  -4  -2  -1   29.15    6.25
  -4   2  -1   28.69    7.33
  -4   2  -1   24.38    5.59
   4   2   1   36.36    7.54
   4   2   1   48.69    8.26
  -5  -2  -1    8.39    6.64
   5  -2   1    8.97    5.58
   5  -2   1    6.13    5.23
  -5   2  -1    6.68    6.13
   5   2   1    4.50    5.47
   5   2   1    2.70    5.23
  -5   2  -1    3.81    4.76
   6  -2   1  180.36   15.50
  -6  -2  -1  219.17   20.68
  -6   2  -1  224.04   20.29
   6   2   1  217.31   17.34
   7  -2   1   52.94   10.70
  -7  -2  -1   52.97   12.60
   7   2   1   76.19   13.06
  -7   2  -1   58.85   13.61
  -8  -2  -1   38.09   12.25
   8  -2   1   38.84   10.39
  -8   2  -1   52.36   13.69
   8   2   1   42.81   11.36
  -9  -2  -1   -0.51   10.06
   9  -2   1    3.83    6.66
  -9   2  -1   16.78   11.67
   9   2   1    0.86    7.70
  10  -2   1  141.76   20.53
 -10  -2  -1   64.03   19.33
 -10   2  -1   39.83   17.99
 -10  -3   1   -8.67   10.40
  10  -3  -1    1.66    8.22
 -10   3   1   -4.06    9.41
   9  -3  -1   13.27    8.15
  -9  -3   1   17.56   11.44
  -9   3   1   15.32   11.31
   9   3  -1   42.26   13.34
  -8  -3   1    7.89    9.59
   8  -3  -1   15.17    7.59
  -8   3   1   -8.77    7.82
   8   3  -1   10.22    7.28
  -7  -3   1   19.50    9.81
  -7   3   1   32.29   10.82
   7   3  -1   10.65    7.27
   6  -3  -1   -2.41    4.67
  -6  -3   1   -5.59    6.46
  -6   3   1    4.15    7.50
   6   3  -1    8.65    6.19
  -5  -3   1   61.06   12.35
   5  -3  -1   96.09   10.21
   5  -3  -1   78.02   10.92
  -5  -3   1   73.07   10.42
  -5   3   1   87.15   10.56
  -5   3   1   92.97   13.97
   5   3  -1   76.57   10.89
   5   3  -1   79.57   12.23
  -4  -3   1   26.07    7.80
   4  -3  -1   15.98    4.69
   4  -3  -1   19.74    4.93
  -4  -3   1    9.91    4.81
   4   3  -1   18.90    6.03
  -4   3   1   17.90    6.20
  -4   3   1   18.45    4.90
   4   3  -1   27.45    6.77
   3  -3  -1   49.21    5.88
   3  -3  -1   48.94    6.63
  -3  -3   1   36.76    7.63
  -3  -3   1   48.33    6.89
  -3   3   1   47.00    7.04
  -3   3   1   42.25    5.80
   3   3  -1   61.92    8.77
   3   3  -1   49.68    6.70
   2  -3  -1    7.31    2.35
  -2  -3   1    4.41    2.85
   2  -3  -1    3.04    2.45
  -2  -3   1    7.26    4.42
  -2   3   1    1.82    2.30
   2   3  -1    2.91    3.45
  -2   3   1    0.22    2.62
   2   3  -1   -0.55    3.75
  -1  -3   1  156.37    7.78
  -1  -3   1  154.93   10.31
   1  -3  -1  146.34    5.70
   1  -3  -1  144.88    9.41
  -1   3   1  152.57    6.26
   1   3  -1  151.34    9.73
  -1   3   1  157.16    5.43
   1   3  -1  153.57    7.92
   0  -3   1    0.75    1.57
   0  -3   1    2.70    1.84
   0  -3   1    0.92    1.79
   0  -3   1   -0.30    2.55
   0  -3  -1   -2.68    2.55
   0   3  -1    0.12    1.91
   0   3   1    4.55    2.27
   0   3  -1    1.94    2.11
   0   3   1    0.48    1.36
   1  -3   1   36.00    5.15
  -1  -3  -1   34.82    3.79
   1  -3   1   30.41    4.20
  -1  -3  -1   27.23    4.61
   1  -3   1   31.74    3.68
  -1   3  -1   36.36    4.88
   1   3   1   34.10    4.75
  -1   3  -1   39.45    4.19
   1   3   1   35.92    4.33
  -1   3  -1   28.45    4.32
   2  -3   1   12.79    3.76
  -2  -3  -1    9.92    4.62
  -2  -3  -1   13.30    3.78
  -2   3  -1    9.91    3.64
   2   3   1   19.09    4.73
   2   3   1    9.00    3.65
  -2   3  -1   14.15    4.32
  -2   3  -1   20.49    3.92
   3  -3   1  282.86   13.57
   3  -3   1  303.99   14.93
  -3  -3  -1  281.68   14.06
  -3  -3  -1  282.26   16.40
   3   3   1  296.83   16.13
  -3   3  -1  274.03   13.54
   3   3   1  281.57   14.76
  -3   3  -1  297.93   15.59
  -4  -3  -1    4.20    5.80
   4  -3   1    6.52    4.12
   4  -3   1   12.29    4.85
  -4  -3  -1    7.04    3.88
  -4   3  -1    6.95    4.33
   4   3   1   -0.96    4.18
   4   3   1   13.13    5.29
  -4   3  -1    8.95    5.22
  -5  -3  -1   -0.37    4.75
   5  -3   1   -0.95    4.04
  -5  -3  -1   -5.46    3.75
  -5   3  -1   -0.48    4.33
  -5   3  -1    3.43    6.33
   5   3   1    0.95    5.41
   5   3   1    1.44    4.32
   6  -3   1   25.50    8.40
  -6  -3  -1   14.61    9.96
  -6   3  -1   31.00   10.21
   6   3   1   30.89    9.20
  -7  -3  -1  110.32   18.60
   7  -3   1   91.02   13.32
   7   3   1   99.91   14.70
  -7   3  -1   94.52   16.59
   8  -3   1    3.86    7.37
  -8  -3  -1    1.38    8.13
  -8   3  -1   -7.23    8.11
   8   3   1    1.56    5.92
   9  -3   1   -3.45    6.32
   9   3   1   -1.51    7.60
  -9   3  -1    6.90   10.89
 -10  -3  -1   11.69   13.13
  10  -3   1    9.33    8.44
  10   3   1   -3.20    8.22
 -10   3  -1   12.32   11.59
  -9  -4   1   -2.52    9.84
   9  -4  -1    4.34    7.11
   9   4  -1   14.12    9.55
  -9   4   1    4.21    8.77
   8  -4  -1    0.51    6.05
  -8  -4   1    6.51    9.69
   8   4  -1   11.31    7.81
  -8   4   1    8.15    8.98
   7  -4  -1   36.53    8.90
  -7  -4   1   20.20    9.83
  -7   4   1   10.13    8.44
   7   4  -1   18.67    8.06
   6  -4  -1  195.10   14.79
  -6  -4   1  155.95   20.96
  -6   4   1  194.87   18.33
   6   4  -1  161.00   15.78
  -5  -4   1   12.52    7.49
   5  -4  -1   -4.50    4.35
  -5  -4   1    5.19    5.03
   5  -4  -1   -5.84    3.90
   5   4  -1    4.97    5.62
  -5   4   1   -1.84    5.61
  -5   4   1   -0.55    3.92
   5   4  -1    4.63    6.59
  -4  -4   1    5.42    3.94
   4  -4  -1    7.73    3.79
   4  -4  -1   10.83    4.44
  -4  -4   1   17.86    7.76
   4   4  -1    9.79    5.21
  -4   4   1   12.04    4.49
   4   4  -1   12.59    4.84
  -4   4   1   10.66    5.32
   3  -4  -1   33.90    5.29
  -3  -4   1   33.02    7.93
  -3  -4   1   25.89    5.38
   3  -4  -1   29.39    4.49
  -3   4   1   29.87    4.87
   3   4  -1   37.25    6.54
  -3   4   1   30.99    6.93
   3   4  -1   22.23    6.47
  -3   4   1   26.18    5.48
   2  -4  -1  332.39   11.38
   2  -4  -1  364.27   13.20
  -2  -4   1  339.05   18.17
  -2  -4   1  352.26   14.63
  -2   4   1  345.77   16.39
   2   4  -1  336.86   14.80
  -2   4   1  324.78   12.58
  -2   4   1  346.40   13.82
   2   4  -1  350.35   17.22
  -1  -4   1   44.69    4.82
   1  -4  -1   40.00    2.69
  -1  -4   1   46.78    7.60
   1  -4  -1   36.72    5.78
  -1   4   1   38.12    3.30
   1   4  -1   44.55    6.67
  -1   4   1   39.23    2.48
   1   4  -1   41.94    4.91
  -1   4   1   42.44    6.14
   0  -4   1   14.53    3.59
   0  -4   1   20.94    3.11
   0  -4  -1   15.57    4.77
   0  -4   1   14.82    2.92
   0  -4   1   17.75    4.37
   0   4   1   18.39    1.80
   0   4   1   15.16    2.92
   0   4  -1   13.60    3.42
   0   4   1   18.60    4.06
   0   4  -1   18.88    3.47
   0   4   1   18.41    1.72
  -1  -4  -1   50.30    6.04
  -1  -4  -1   47.63    4.00
   1  -4   1   46.41    6.15
   1  -4   1   49.98    4.15
   1  -4   1   46.60    4.72
  -1   4  -1   43.59    4.30
   1   4   1   51.93    5.81
   1   4   1   52.91    4.76
  -1   4  -1   44.74    5.22
  -1   4  -1   51.26    5.44
  -2  -4  -1  206.23   12.68
  -2  -4  -1  232.05   10.88
   2  -4   1  222.87   10.89
  -2   4  -1  237.83   12.18
  -2   4  -1  225.75   11.49
   2   4   1  216.52   11.18
   2   4   1  262.69   15.42
  -2   4  -1  207.33   10.36
   3  -4   1   40.66    5.91
  -3  -4  -1   43.72    8.58
   3  -4   1   48.15    6.89
  -3  -4  -1   47.17    6.64
   3   4   1   33.09    6.24
  -3   4  -1   46.43    6.51
  -3   4  -1   44.40    7.24
  -3   4  -1   40.20    6.92
   3   4   1   38.62    7.06
   4  -4   1  216.73   13.16
  -4  -4  -1  212.36   13.54
  -4  -4  -1  238.51   17.53
   4   4   1  208.58   15.42
  -4   4  -1  224.54   15.47
  -4   4  -1  218.45   13.31
   4   4   1  212.44   14.45
   5  -4   1   53.67    8.95
  -5  -4  -1   56.32    9.49
  -5  -4  -1   57.90   12.20
   5   4   1   57.17    9.97
   5   4   1   55.05   10.91
  -5   4  -1   64.74   11.33
  -6  -4  -1  182.85   19.73
   6  -4   1  156.78   14.31
   6   4   1  157.07   15.31
  -6   4  -1  138.97   17.96
   7  -4   1   42.37    9.45
  -7  -4  -1   49.05   14.21
   7   4   1   52.56   11.48
  -7   4  -1   38.13   11.73
   8  -4   1   74.47   13.12
  -8  -4  -1   95.12   18.87
  -8   4  -1   90.73   16.64
   8   4   1   86.72   15.01
   9  -4   1   16.06    8.68
  -9  -4  -1   -6.73    9.25
   9   4   1    2.97    7.03
  -9   4  -1   12.60   10.85
  -9  -5   1   62.53   18.96
   9  -5  -1   65.06   13.17
  -9   5   1   40.86   14.11
   9   5  -1   43.66   12.24
   8  -5  -1   69.46   12.17
  -8  -5   1   86.24   18.65
   8   5  -1  110.37   16.68
  -8   5   1   81.82   17.07
   7  -5  -1   67.79   11.11
  -7  -5   1   40.08   12.19
  -7   5   1   50.00   12.28
   7   5  -1   44.33   10.68
   6  -5  -1    9.99    5.54
  -6  -5   1   -8.54    6.26
   6   5  -1    3.47    7.12
  -6   5   1   14.49    7.99
  -5  -5   1   47.82    8.59
  -5  -5   1   41.04   10.52
   5  -5  -1   50.54    7.91
  -5   5   1   46.94   10.10
   5   5  -1   48.69   10.65
   5   5  -1   43.94    9.59
  -5   5   1   37.76    7.49
   4  -5  -1  194.41   12.23
  -4  -5   1  168.73   12.38
   4  -5  -1  181.69   10.75
  -4  -5   1  180.11   16.69
  -4   5   1  214.83   15.62
  -4   5   1  185.24   11.85
  -4   5   1  175.74   13.69
   4   5  -1  195.83   15.51
   4   5  -1  193.09   14.00
  -3  -5   1   39.89    6.41
   3  -5  -1   31.68    5.18
   3  -5  -1   38.05    4.50
  -3  -5   1   44.20    8.78
  -3   5   1   27.23    5.72
  -3   5   1   42.10    8.35
   3   5  -1   40.22    7.94
   3   5  -1   40.70    6.82
  -3   5   1   31.76    5.00
  -2  -5   1   19.35    6.38
   2  -5  -1   17.55    3.16
   2  -5  -1   18.07    1.77
  -2  -5   1   17.03    4.10
  -2   5   1   17.28    5.04
  -2   5   1   16.75    3.61
   2   5  -1   17.88    4.41
  -2   5   1   20.41    3.29
   2   5  -1   25.34    6.19
   1  -5  -1  101.95    9.11
   1  -5  -1  106.81    4.22
  -1  -5   1  101.28    6.49
  -1  -5   1  103.88    7.71
  -1  -5   1   86.77    9.15
  -1   5   1  115.67    4.49
   1   5  -1  103.54    8.87
  -1   5   1  112.91    8.73
  -1   5   1  112.98    5.48
   1   5  -1  111.44    7.08
   0  -5  -1  141.68    9.95
   0  -5   1  139.47    9.43
   0  -5   1  136.77    7.31
   0  -5   1  145.41    6.54
   0  -5   1  139.11    6.65
   0   5   1  153.27    6.01
   0   5   1  137.18    5.65
   0   5   1  146.68    7.69
   0   5  -1  148.26    8.19
   0   5   1  135.22    9.22
   1  -5   1  127.93    6.16
   1  -5   1  134.29    7.36
   1  -5   1  139.14    9.74
  -1  -5  -1  112.37    8.44
  -1  -5  -1  136.90    6.29
  -1   5  -1  130.88    7.94
   1   5   1  132.84    7.14
  -1   5  -1  122.82    8.59
  -1   5  -1  131.79    7.02
   1   5   1  133.44    8.48
   2  -5   1   40.48    5.32
  -2  -5  -1   38.81    5.06
  -2  -5  -1   32.87    6.47
   2  -5   1   37.54    7.15
  -2   5  -1   40.84    5.64
   2   5   1   46.76    7.94
   2   5   1   37.52    5.65
  -2   5  -1   40.18    5.09
  -2   5  -1   40.29    6.53
  -3  -5  -1  326.96   19.08
  -3  -5  -1  338.01   15.86
   3  -5   1  338.12   14.76
   3  -5   1  340.05   16.10
   3   5   1  359.89   18.70
  -3   5  -1  342.55   17.11
  -3   5  -1  333.26   15.52
  -3   5  -1  345.75   17.56
   3   5   1  334.33   16.78
  -4  -5  -1  163.26   15.29
   4  -5   1  172.49   12.30
   4  -5   1  175.90   11.57
  -4  -5  -1  165.26   12.07
   4   5   1  187.39   13.75
   4   5   1  143.08   13.34
  -4   5  -1  168.68   13.35
  -4   5  -1  172.29   13.69
  -4   5  -1  167.94   13.15
  -5  -5  -1   21.26    6.84
   5  -5   1   16.80    6.30
  -5  -5  -1   31.07    9.52
   5   5   1   20.28    8.37
  -5   5  -1   27.50    9.32
   5   5   1   25.54    8.18
  -5   5  -1   20.50    7.60
  -6  -5  -1   39.40   11.75
   6  -5   1   50.77   10.06
   6   5   1   53.51   12.88
   7  -5   1  109.38   16.30
  -7  -5  -1   92.14   17.94
  -7   5  -1  106.13   16.87
   7   5   1  132.81   17.72
   8  -5   1   85.74   13.71
  -8  -5  -1   65.52   16.85
  -8   5  -1   70.54   15.99
   8   5   1   98.93   17.05
   9  -5   1   -0.23    7.37
  -9  -5  -1    0.22   10.17
  -9   5  -1    0.46    7.55
   9   5   1    2.26    7.20
  -9  -6   1   60.23   19.63
   9  -6  -1   78.30   13.95
   9   6  -1  112.65   18.08
  -9   6   1   61.65   16.89
   8  -6  -1   -0.42    5.51
  -8  -6   1   -1.85    9.97
  -8   6   1    1.97    7.65
   8   6  -1   -2.67    5.63
   7  -6  -1  142.92   13.81
  -7  -6   1  144.69   22.12
  -7   6   1  178.53   19.68
   7   6  -1  135.61   17.75
  -6  -6   1   11.34    9.26
   6  -6  -1   13.73    5.86
   6   6  -1   11.43    7.62
  -5  -6   1   81.58   15.24
  -5  -6   1   88.24   12.99
   5  -6  -1   85.67    8.84
  -5   6   1   71.16   10.07
   5   6  -1   83.81   12.16
   5   6  -1   71.95   13.81
  -5   6   1  102.49   13.37
   4  -6  -1    4.11    4.23
   4  -6  -1    2.16    3.52
  -4  -6   1    4.25    5.65
  -4  -6   1    7.80    4.31
   4   6  -1    2.49    4.54
  -4   6   1   12.34    4.96
  -4   6   1   -1.80    4.78
   4   6  -1    5.37    5.60
  -4   6   1    2.14    3.18
   3  -6  -1  360.33   15.45
  -3  -6   1  358.50   21.80
  -3  -6   1  354.27   17.14
   3  -6  -1  376.79   13.54
  -3   6   1  358.00   15.36
   3   6  -1  379.17   18.40
   3   6  -1  401.15   21.29
  -3   6   1  384.87   17.23
  -3   6   1  381.16   20.04
  -2  -6   1   31.18    7.98
   2  -6  -1   24.53    6.65
  -2  -6   1   36.90    5.52
   2  -6  -1   26.27    3.50
  -2   6   1   30.56    3.84
  -2   6   1   30.57    4.45
  -2   6   1   26.78    6.26
   2   6  -1   34.43    7.25
   2   6  -1   27.75    5.42
  -1  -6   1   25.21    6.07
  -1  -6   1   33.76    4.70
   1  -6  -1   35.37    6.98
  -1  -6   1   33.63    4.38
  -1   6   1   31.76    2.66
  -1   6   1   34.65    6.40
  -1   6   1   35.05    4.52
   1   6  -1   36.29    6.78
   1   6  -1   42.83    6.07
   1   6  -1   38.15    5.54
   0  -6   1   10.89    4.46
   0  -6  -1   12.02    4.76
   0  -6   1   12.87    2.54
   0  -6   1   11.17    2.34
   0   6   1    7.26    1.90
   0   6  -1    1.12    3.69
   0   6   1   10.16    2.26
   0   6  -1   12.53    3.42
   0   6   1    8.92    3.00
   0   6   1   10.22    3.88
   0   6  -1    8.15    2.99
  -1  -6  -1  557.51   22.24
   1  -6   1  594.00   24.04
  -1  -6  -1  612.40   23.86
   1  -6   1  610.01   18.17
  -1  -6  -1  588.66   18.31
   1  -6   1  591.96   19.96
  -1  -6  -1  608.31   18.16
  -1   6  -1  601.70   23.05
  -1   6  -1  604.09   21.28
   1   6   1  608.27   19.94
  -1   6  -1  582.42   19.64
   1   6   1  595.36   22.12
   2  -6   1    4.23    2.64
   2  -6   1    7.60    4.09
   2  -6   1    4.56    4.45
  -2  -6  -1    8.60    4.80
  -2  -6  -1    6.12    2.68
  -2   6  -1   10.97    4.46
  -2   6  -1    5.90    3.43
  -2   6  -1    7.25    2.95
   2   6   1    6.64    4.13
   2   6   1    6.12    3.35
  -3  -6  -1   67.11    8.05
  -3  -6  -1   75.81   10.67
   3  -6   1   60.09    7.46
   3  -6   1   68.42    6.30
   3   6   1   65.16    9.28
  -3   6  -1   77.27   10.01
  -3   6  -1   56.62    7.98
  -3   6  -1   62.22    6.51
   3   6   1   65.70    8.59
   4  -6   1   16.62    5.27
  -4  -6  -1   11.70    5.20
   4  -6   1   12.22    5.13
  -4  -6  -1   10.61    7.30
  -4   6  -1   10.82    5.44
  -4   6  -1    4.54    4.11
   4   6   1   14.91    6.05
  -4   6  -1   13.46    6.23
   4   6   1    8.86    5.77
  -5  -6  -1  313.68   23.59
   5  -6   1  315.27   17.14
  -5  -6  -1  247.86   17.11
  -5   6  -1  278.29   19.22
   5   6   1  294.97   19.76
   5   6   1  293.67   21.47
  -5   6  -1  310.70   20.60
   6  -6   1    8.42    5.42
  -6  -6  -1    6.71    8.48
  -6   6  -1    1.07    6.56
   6   6   1    1.88    6.13
  -7  -6  -1    7.54    8.80
  -7   6  -1    5.77    7.75
   7   6   1   15.00    8.31
   8  -6   1   39.29    9.73
  -8  -6  -1   36.10   14.67
  -8   6  -1   34.36   12.33
   8   6   1   22.05   10.01
  -9  -6  -1  121.80   24.87
   9  -6   1  137.48   17.17
  -9   6  -1  109.12   21.14
   9   6   1   98.75   17.46
  -9  -7   1   13.98   13.77
   9  -7  -1   -1.67    6.91
   9   7  -1   18.52   10.20
  -9   7   1    5.13    9.46
  -8  -7   1   62.33   16.94
   8  -7  -1   74.05   11.91
   8   7  -1   73.21   14.62
  -8   7   1   75.09   16.00
  -7  -7   1    4.71    8.42
   7  -7  -1   -4.90    4.17
  -7   7   1    2.19    7.94
   7   7  -1   -1.79    5.28
  -6  -7   1   16.87    9.84
   6  -7  -1   18.41    5.80
   6   7  -1   17.32    7.90
  -6   7   1   14.26    7.59
   5  -7  -1   26.70    5.56
  -5  -7   1   35.88   11.63
   5   7  -1   21.14    9.13
  -5   7   1   40.34    9.91
   5   7  -1   39.11    9.41
  -4  -7   1   89.93    9.67
   4  -7  -1  109.09    7.36
   4  -7  -1  102.84   10.94
  -4  -7   1   97.40   15.05
   4   7  -1  115.05   12.10
   4   7  -1  125.84   15.63
  -4   7   1  129.81   15.15
  -4   7   1  109.11   11.01
  -4   7   1   91.59    8.95
  -3  -7   1   -4.89    5.50
  -3  -7   1   -5.09    2.73
   3  -7  -1    2.99    2.88
  -3   7   1   -2.72    2.19
  -3   7   1    4.26    3.49
  -3   7   1   -6.96    3.30
   3   7  -1   -2.84    3.26
   3   7  -1    1.25    4.21
   2  -7  -1   49.21    9.39
   2  -7  -1   50.57    4.15
  -2  -7   1   45.91    6.15
  -2  -7   1   51.46   10.35
   2   7  -1   59.08    7.67
   2   7  -1   45.23    8.09
  -2   7   1   48.17    5.35
  -2   7   1   51.05    4.49
  -2   7   1   43.47    7.89
  -1  -7   1   98.43    6.63
  -1  -7   1  108.40    7.14
   1  -7  -1  126.37   10.55
  -1   7   1  113.51    6.41
   1   7  -1  103.92    7.78
  -1   7   1  102.12    5.19
  -1   7   1  114.08    9.86
   1   7  -1  100.54    8.30
   1   7  -1  107.14   10.14
   0  -7   1  184.77    7.56
   0  -7   1  197.31   12.37
   0  -7  -1  173.42   12.51
   0  -7   1  174.68    7.49
   0   7  -1  173.91    9.89
   0   7  -1  166.82   12.08
   0   7   1  181.67   10.04
   0   7   1  179.31    7.60
   0   7   1  181.47    8.37
   0   7   1  165.46    7.82
   0   7  -1  173.21    9.48
  -1  -7  -1   12.05    2.02
  -1  -7  -1    9.86    4.91
   1  -7   1   16.07    2.33
  -1  -7  -1   15.40    2.40
   1  -7   1   10.40    5.43
   1  -7   1   18.56    3.53
  -1  -7  -1   16.17    4.85
   1   7   1   27.39    5.42
  -1   7  -1   15.87    5.03
  -1   7  -1   18.03    4.38
  -1   7  -1   14.43    3.41
   1   7   1   15.67    3.63
   2  -7   1   54.91    4.54
   2  -7   1   60.55    9.66
  -2  -7  -1   54.34    8.86
   2  -7   1   65.18    6.11
  -2  -7  -1   67.09    5.94
  -2   7  -1   73.50    9.30
  -2   7  -1   52.69    6.97
   2   7   1   69.27    7.10
  -2   7  -1   52.45    5.56
   2   7   1   72.58    9.27
  -3  -7  -1   79.66   11.97
  -3  -7  -1   69.03    7.18
   3  -7   1   62.47    5.91
   3  -7   1   63.56    7.80
  -3   7  -1   68.64    9.81
  -3   7  -1   58.71    8.28
   3   7   1   56.60    8.24
  -3   7  -1   70.84    7.11
   3   7   1   59.73    9.49
  -4  -7  -1   47.58   10.98
  -4  -7  -1   68.59    9.61
   4  -7   1   57.79    8.31
   4  -7   1   72.54    7.76
  -4   7  -1   49.51    9.49
  -4   7  -1   71.39    9.20
  -4   7  -1   63.62    9.84
   4   7   1   56.84    9.33
   4   7   1   57.11   10.49
  -5  -7  -1    7.61    5.63
   5  -7   1    0.36    4.01
  -5  -7  -1    9.50    8.49
  -5   7  -1   -1.28    5.47
  -5   7  -1    7.02    6.60
   5   7   1   -2.97    5.70
   5   7   1    6.64    6.77
  -6  -7  -1   13.45    8.55
   6  -7   1    8.68    5.79
  -6   7  -1   15.28    8.27
   6   7   1    5.50    6.62
   7  -7   1    2.02    5.54
  -7  -7  -1    0.55    8.67
  -7   7  -1   11.15    9.72
   7   7   1   10.17    7.24
  -8  -7  -1    7.25    9.51
   8  -7   1   33.45    9.23
  -8   7  -1   25.06   11.11
   8   7   1   19.94    9.01
   9  -7   1    3.85    7.01
  -9  -7  -1   -4.01   10.09
  -9   7  -1  -13.77    8.40
   9   7   1    7.09    9.50
  -9  -8   1   17.75   14.06
   9  -8  -1   34.27    9.37
  -9   8   1   40.07   14.11
   9   8  -1   62.87   15.13
  -8  -8   1   18.19   10.96
  -8   8   1   -7.69    7.93
   8   8  -1   -3.88    5.74
  -7  -8   1  142.99   22.48
   7  -8  -1  163.04   13.14
   7   8  -1  196.65   18.82
  -7   8   1  165.21   18.39
   6  -8  -1   16.05    5.29
  -6  -8   1   28.01   11.25
   6   8  -1   25.89    8.96
  -6   8   1   31.73    9.54
  -5  -8   1   82.11   15.91
   5  -8  -1   73.94    7.44
   5   8  -1   83.99   12.93
  -5   8   1   90.22   12.39
   5   8  -1   76.14   15.31
   4  -8  -1   -1.93    3.49
  -4  -8   1   -0.36    3.58
  -4  -8   1   -4.25    5.70
   4   8  -1    5.57    5.32
  -4   8   1    4.95    5.23
   4   8  -1    4.76    6.47
  -4   8   1   -2.17    3.17
  -3  -8   1  278.52   14.90
   3  -8  -1  274.35   12.49
  -3  -8   1  272.78   20.25
  -3   8   1  258.06   12.83
   3   8  -1  296.68   19.27
  -3   8   1  259.00   17.51
  -3   8   1  283.96   14.60
   3   8  -1  268.65   16.17
  -2  -8   1   61.96   10.77
  -2  -8   1   76.24    6.90
   2  -8  -1   53.83    9.86
   2  -8  -1   66.87    4.41
  -2  -8   1   64.17    6.82
  -2   8   1   73.41   10.14
  -2   8   1   71.01    6.29
   2   8  -1   96.43   11.94
   2   8  -1   78.40    8.29
  -2   8   1   69.40    5.41
  -1  -8   1  129.38    7.41
   1  -8  -1  119.13   12.02
  -1  -8   1  128.73   10.77
  -1  -8   1  118.99    7.51
   1   8  -1  114.92   11.09
  -1   8   1  126.38    7.04
   1   8  -1  125.35    8.65
  -1   8   1  115.30   10.41
   1   8  -1  122.97    9.28
  -1   8   1  111.98    7.15
   0  -8   1    0.88    1.32
   0  -8  -1    1.31    3.13
   0  -8   1    0.67    3.77
   0  -8   1   -0.78    1.40
   0   8   1   -2.15    1.73
   0   8  -1    1.57    2.65
   0   8   1    0.76    2.97
   0   8  -1   -0.52    2.54
   0   8   1    2.20    2.43
   0   8  -1   -0.70    3.98
   0   8   1    2.39    1.80
   1  -8   1  338.08   18.92
   1  -8   1  337.19   13.51
  -1  -8  -1  341.63   18.27
  -1  -8  -1  319.09   10.07
   1  -8   1  328.49    9.94
  -1   8  -1  336.74   13.85
   1   8   1  325.04   13.73
  -1   8  -1  322.06   17.20
   1   8   1  320.44   16.05
  -1   8  -1  324.97   15.31
   2  -8   1   15.22    2.43
   2  -8   1   16.60    6.65
   2  -8   1   18.86    4.18
  -2  -8  -1   15.83    5.73
  -2   8  -1   12.77    5.42
  -2   8  -1   21.54    4.34
   2   8   1   18.68    5.80
  -2   8  -1   15.89    4.72
   2   8   1   17.40    4.66
  -3  -8  -1   17.88    7.44
   3  -8   1   11.58    4.37
   3  -8   1    9.69    3.11
  -3  -8  -1   12.30    4.28
   3   8   1   15.86    6.10
  -3   8  -1    4.61    4.78
  -3   8  -1   18.13    4.99
   3   8   1    9.94    4.86
  -4  -8  -1    3.36    7.06
   4  -8   1   -1.64    2.93
   4  -8   1   -0.89    4.40
  -4  -8  -1   -2.16    4.31
  -4   8  -1  -10.50    4.92
   4   8   1    1.44    5.02
  -4   8  -1    3.59    4.33
   4   8   1   10.75    7.23
  -4   8  -1   -0.33    4.95
   5  -8   1  217.56   13.24
  -5  -8  -1  181.14   19.62
  -5  -8  -1  182.01   14.91
   5   8   1  184.78   18.03
   5   8   1  172.35   15.90
  -5   8  -1  178.66   16.27
  -6  -8  -1   27.67   11.30
   6  -8   1   37.80    7.80
  -6   8  -1   25.44    9.20
   6   8   1   37.43    9.84
  -7  -8  -1    3.80    9.10
   7  -8   1   -0.16    4.78
  -7   8  -1   -0.59    6.65
   7   8   1    9.39    7.78
  -8  -8  -1  -15.66    6.61
   8  -8   1    4.11    6.41
  -8   8  -1    2.11    6.88
   8   8   1    1.00    6.69
  -9  -8  -1  103.57   23.30
   9  -8   1   73.25   12.51
   9   8   1   83.07   17.04
  -9   8  -1   84.34   19.12
  -9  -9   1   88.90   21.20
  -9   9   1  127.96   22.39
   8  -9  -1   -3.61    4.71
  -8  -9   1   -5.20    8.71
   8   9  -1   -1.13    6.98
  -8   9   1    8.03    8.66
   7  -9  -1   48.39    7.38
  -7  -9   1   35.07   13.78
   7   9  -1   53.23   12.81
  -7   9   1   47.68   12.27
  -6  -9   1   -1.02    7.19
   6  -9  -1   -3.61    3.30
   6   9  -1   -1.17    4.55
  -6   9   1   -1.43    4.80
  -5  -9   1  315.58   26.23
   5   9  -1  285.89   20.45
  -5   9   1  330.28   20.88
   4  -9  -1    1.10    3.69
  -4  -9   1    3.38    4.65
  -4  -9   1    2.99    7.94
  -4   9   1    3.20    4.97
   4   9  -1   -5.41    5.75
   4   9  -1    2.35    5.32
  -3  -9   1   54.57   11.69
  -3  -9   1   78.26    8.35
   3  -9  -1   66.87    5.94
  -3   9   1   51.41    9.90
   3   9  -1   91.51   13.41
  -3   9   1   64.17    7.78
  -3   9   1   68.06    6.92
   3   9  -1   59.56    9.38
  -2  -9   1   40.94    6.13
   2  -9  -1   52.05   10.25
   2  -9  -1   31.89    2.95
  -2  -9   1   39.77    9.53
  -2  -9   1   48.87    6.64
   2   9  -1   42.81    8.71
  -2   9   1   31.51    4.86
  -2   9   1   38.19    4.77
   2   9  -1   35.60    6.72
  -2   9   1   39.11    8.24
  -1  -9   1  536.92   18.22
   1  -9  -1  524.24   26.12
  -1  -9   1  527.51   17.98
  -1  -9   1  518.75   24.56
   1   9  -1  514.99   27.43
   1   9  -1  506.01   21.46
  -1   9   1  516.80   18.74
  -1   9   1  490.27   23.96
  -1   9   1  497.49   17.16
   1   9  -1  513.79   20.59
   0  -9  -1   18.40    6.55
   0  -9   1   12.64    5.92
   0  -9   1   21.42    2.35
   0   9  -1   20.09    4.70
   0   9  -1   17.40    4.30
   0   9   1   21.65    3.79
   0   9  -1   21.83    6.61
   0   9   1   15.30    3.59
   0   9   1   18.92    3.55
   0   9   1   12.69    4.39
   1  -9   1   77.12   11.19
  -1  -9  -1   69.94   10.86
   1  -9   1   87.86    6.55
  -1   9  -1  103.39   12.73
   1   9   1   84.25    8.68
  -1   9  -1   77.71    8.05
  -1   9  -1   71.59    6.63
   2  -9   1   78.55    6.85
  -2  -9  -1   76.47    6.45
  -2  -9  -1   96.49   12.24
  -2  -9  -1   86.57   11.38
  -2  -9  -1   79.97    6.13
   2  -9   1   79.43   11.95
  -2   9  -1   80.69    7.13
  -2   9  -1   70.04    8.51
  -2   9  -1   77.77   10.80
   2   9   1   77.03    8.24
   2   9   1   89.07   11.01
   3  -9   1  381.15   23.82
  -3  -9  -1  485.40   26.04
   3  -9   1  401.13   18.43
  -3  -9  -1  427.55   18.34
  -3   9  -1  358.32   21.39
   3   9   1  415.34   23.15
   3   9   1  444.64   21.04
  -3   9  -1  395.15   18.43
  -3   9  -1  423.57   20.40
   4  -9   1    5.43    3.38
  -4  -9  -1   14.35    5.07
  -4  -9  -1   10.68    7.87
   4  -9   1   11.05    5.24
  -4   9  -1    2.29    5.45
   4   9   1    2.48    7.19
  -4   9  -1    6.08    4.89
   4   9   1   12.45    7.06
   5  -9   1   23.00    5.27
  -5  -9  -1   19.75    6.69
  -5  -9  -1   22.42   10.06
   5   9   1   20.86    9.31
  -5   9  -1   28.82    8.22
   5   9   1   18.04    7.52
   6  -9   1   41.74    7.26
  -6  -9  -1   57.59   14.36
  -6   9  -1   31.39   10.17
   6   9   1   52.53   11.46
  -7  -9  -1  263.18   27.19
   7  -9   1  281.17   17.17
  -7   9  -1  198.28   21.23
   7   9   1  261.79   21.86
  -8  -9  -1   -2.17    9.51
   8  -9   1    8.57    6.15
  -8   9  -1    0.01    7.50
   8   9   1   23.64   10.95
   9  -9   1    0.77    7.13
  -9  -9  -1  -15.22    9.53
  -8 -10   1    3.04   10.93
   8  10  -1    8.76    9.09
  -8  10   1   -4.83    6.89
  -7 -10   1    6.94   10.28
  -7  10   1   -9.54    6.75
   7  10  -1   -5.68    5.50
  -6 -10   1    1.49    6.94
  -6  10   1    6.93    7.02
   6  10  -1    1.86    6.27
  -5 -10   1   -4.09    7.03
  -5  10   1   -7.28    4.16
   5  10  -1    1.69    5.75
   4 -10  -1    9.24    4.10
  -4 -10   1    7.63    5.70
  -4 -10   1   19.54   10.12
   4  10  -1    6.04    5.72
  -4  10   1   15.25    5.97
  -4  10   1    3.53    4.35
   3 -10  -1    6.74    2.66
  -3 -10   1    1.40    3.89
  -3 -10   1    5.55    6.96
   3 -10  -1   -0.69    4.53
  -3  10   1   10.89    3.57
   3  10  -1    4.79    6.57
   3  10  -1    7.00    5.38
  -3  10   1    1.03    3.74
  -2 -10   1    9.44    3.95
  -2 -10   1    7.11    3.54
  -2 -10   1   13.65    7.45
   2 -10  -1    8.90    6.66
  -2  10   1    6.25    6.63
   2  10  -1    7.21    5.66
  -2  10   1    9.46    3.50
  -2  10   1    7.46    2.94
   2  10  -1   10.05    4.95
   2  10  -1    5.79    4.87
  -1 -10   1    5.75    2.55
  -1 -10   1    8.82    5.72
  -1 -10   1    9.08    2.64
   1 -10  -1    9.73    6.48
  -1  10   1    8.95    3.63
   1  10  -1   14.04    5.13
   1  10  -1   11.74    7.45
   1  10  -1    6.79    4.05
  -1  10   1   10.67    2.85
  -1  10   1   16.17    6.74
   0 -10   1    9.41    6.34
   0 -10  -1    9.19    6.56
   0  10   1    4.36    3.31
   0  10   1   15.44    3.65
   0  10  -1    9.58    4.07
   0  10  -1    8.66    5.27
   0  10   1    9.75    4.44
   0  10  -1    6.69    3.76
   1 -10   1    0.04    5.57
  -1 -10  -1    9.57    5.31
   1  10   1    6.82    4.19
   1  10   1    3.38    4.58
  -1  10  -1   10.68    4.83
  -1  10  -1    1.01    3.39
   1  10   1    0.78    3.34
  -2 -10  -1   -1.56    2.33
  -2 -10  -1   -0.05    5.43
   2 -10   1    6.93    3.37
   2 -10   1   -0.23    4.96
  -2 -10  -1   -2.06    1.94
  -2 -10  -1    4.66    5.81
  -2  10  -1   -2.60    3.87
  -2  10  -1   -0.40    4.20
   2  10   1    3.56    4.83
   2  10   1    2.53    3.70
  -2  10  -1   -0.06    3.31
  -3 -10  -1   -6.71    5.17
   3 -10   1   -4.09    3.12
  -3 -10  -1   -0.89    3.10
   3 -10   1    3.11    6.72
   3  10   1   -2.92    4.45
  -3  10  -1   -0.35    3.95
   3  10   1    9.36    6.19
  -3  10  -1   -0.43    4.25
   4 -10   1    0.23    2.80
  -4 -10  -1    3.31    7.48
  -4 -10  -1   -2.10    4.47
   4  10   1    0.05    4.84
   4  10   1   -2.02    5.83
  -4  10  -1   -0.41    4.70
  -4  10  -1    7.57    4.62
   5 -10   1    0.55    3.02
  -5 -10  -1    2.99    5.11
  -5 -10  -1   14.35    8.72
   5  10   1   -1.17    6.43
  -5  10  -1    2.12    6.86
   5  10   1   -1.16    5.21
   6 -10   1    6.34    4.14
  -6 -10  -1    2.10    8.93
  -6  10  -1   -8.05    5.50
   6  10   1    7.80    7.35
  -7 -10  -1   -6.57    7.78
   7 -10   1   -7.99    3.66
  -7  10  -1    3.47    6.92
   7  10   1   -1.66    6.77
  -8 -10  -1   -7.23    9.29
   8 -10   1   -6.14    7.83
   8  10   1    6.68    9.16
  -8  10  -1  -10.27    6.58
  -8 -11   1   -0.57   10.24
   8  11  -1    3.64    8.02
  -8  11   1   -5.58    7.66
  -7 -11   1   51.08   15.74
   7  11  -1   90.47   15.92
  -7  11   1   76.19   14.54
  -6 -11   1    9.38   10.38
   6  11  -1    6.09    6.70
  -6  11   1   -0.14    5.68
  -5 -11   1  241.17   24.18
   5  11  -1  224.09   19.19
  -4 -11   1   -6.96    7.45
  -4 -11   1   -4.54    4.62
   4 -11  -1    9.30    3.57
  -4  11   1   12.34    5.35
  -4  11   1   -4.34    3.74
   4  11  -1    4.31    6.02
   4  11  -1   11.94    7.74
  -3 -11   1   59.98    8.55
   3 -11  -1   73.57    4.91
  -3 -11   1   75.80    9.19
  -3 -11   1   66.48   13.58
   3 -11  -1   92.97   14.79
  -3  11   1   88.36    9.21
   3  11  -1   78.74   12.69
   3  11  -1   88.10   11.98
  -3  11   1   77.95    8.15
   2 -11  -1    1.40    6.10
  -2 -11   1   15.48    7.94
  -2 -11   1   -1.69    2.91
  -2 -11   1    2.82    3.53
   2  11  -1    1.91    5.33
  -2  11   1    7.31    3.32
  -2  11   1    4.31    3.56
   2  11  -1   12.06    6.71
   2  11  -1    6.22    5.76
  -1 -11   1  237.25    9.60
   1 -11  -1  247.54   19.63
  -1 -11   1  268.23   19.25
   1  11  -1  261.59   15.38
  -1  11   1  221.29   14.38
  -1  11   1  218.21   11.26
   1  11  -1  251.40   17.59
  -1  11   1  231.74   12.42
   0 -11  -1    1.85    4.67
   0 -11   1    1.70    6.24
   0  11  -1    5.13    3.97
   0  11   1    4.36    3.51
   0  11   1    0.46    3.52
   0  11  -1    0.05    3.96
   0  11  -1   -1.11    4.43
  -1 -11  -1   30.15    9.44
   1 -11   1   42.49    9.94
  -1  11  -1   29.82    6.81
   1  11   1   27.85    6.09
   1  11   1   41.88    6.62
  -1  11  -1   44.44    6.72
   1  11   1   30.53    6.69
   2 -11   1   13.90    7.56
  -2 -11  -1   27.22    7.69
  -2 -11  -1   28.25    9.19
  -2 -11  -1   26.66    3.40
   2 -11   1   24.61    4.61
   2  11   1   25.85    7.54
  -2  11  -1   17.00    5.75
  -2  11  -1   33.12    6.16
   2  11   1   32.29    6.69
  -3 -11  -1  299.03   22.39
  -3 -11  -1  328.30   22.05
  -3 -11  -1  276.50   14.17
   3 -11   1  304.07   22.85
   3 -11   1  308.51   15.02
  -3 -11  -1  290.64   14.68
   3  11   1  293.09   18.23
  -3  11  -1  334.27   18.47
  -3  11  -1  295.43   16.15
   3  11   1  273.72   19.92
  -4 -11  -1    3.87    4.46
  -4 -11  -1   -6.03    6.42
   4  11   1    0.08    6.10
   4  11   1    4.23    5.26
  -4  11  -1    2.05    4.87
  -5 -11  -1    5.48    8.07
  -5 -11  -1    7.51    5.83
   5 -11   1    0.52    2.59
  -5  11  -1    6.13    6.14
  -6 -11  -1   31.23   13.01
   6 -11   1   32.68    5.14
   6  11   1   33.64   10.04
  -6  11  -1   36.53    9.92
   7 -11   1  157.08   10.81
  -7 -11  -1  132.60   24.01
   7  11   1  145.02   20.27
  -7  11  -1  130.61   19.44
  -8 -11  -1   -9.33   10.64
   8 -11   1   -5.31    4.77
  -8  11  -1   -1.39    7.80
  -8 -12   1    1.15   10.60
  -8  12   1  -13.05    6.45
   8  12  -1   -9.25    7.59
  -7 -12   1  110.17   21.25
  -7  12   1  131.67   17.94
   7  12  -1  122.94   18.39
  -6 -12   1   -1.95    9.56
  -6  12   1   19.71    8.53
   6  12  -1   25.92    9.86
  -5 -12   1   91.72   18.90
  -5 -12   1  113.01   16.60
   5  12  -1   97.66   14.49
  -5  12   1  100.94   13.37
  -4 -12   1   -9.57    4.58
  -4 -12   1   -3.35    3.61
  -4 -12   1    2.39    7.63
   4  12  -1  -12.85    5.12
   4  12  -1   11.77    6.50
  -4  12   1    2.00    4.00
  -4  12   1    1.99    4.40
  -3 -12   1  247.07   14.20
  -3 -12   1  251.19   14.60
   3 -12  -1  251.52   22.51
  -3 -12   1  230.37   21.19
   3  12  -1  258.34   18.72
  -3  12   1  266.11   14.93
   3  12  -1  245.78   20.06
   3  12  -1  266.93   18.14
  -3  12   1  232.77   13.43
  -2 -12   1   40.59    5.75
   2 -12  -1   41.80   12.03
  -2 -12   1   56.62   11.39
   2  12  -1   58.10    9.75
  -2  12   1   49.81    7.06
   2  12  -1   30.82    7.78
  -2  12   1   31.56    5.42
   2  12  -1   51.83   11.50
   1 -12  -1   69.57   13.18
  -1 -12   1   63.39    2.87
  -1 -12   1   78.21   12.73
  -1  12   1   61.70    9.31
  -1  12   1   77.62    7.25
   1  12  -1   76.73   10.15
   1  12  -1   69.70   11.11
  -1  12   1   62.56    7.72
   0 -12   1    0.38    6.79
   0 -12  -1    7.27    5.80
   0  12   1    3.05    4.48
   0  12  -1    4.24    5.90
   0  12   1    2.13    3.30
   0  12  -1   -0.41    4.14
  -1 -12  -1  253.00   19.88
   1 -12   1  226.90   19.70
  -1  12  -1  260.00   18.52
  -1  12  -1  238.20   14.07
   1  12   1  252.69   14.03
   1  12   1  235.72   14.39
   1  12   1  269.65   17.05
  -1  12  -1  254.74   15.65
  -2 -12  -1   32.85    9.31
   2 -12   1   48.48   11.68
   2  12   1   40.90    7.52
   2  12   1   30.93    7.53
  -2  12  -1   39.91    7.46
   2  12   1   42.98    9.37
  -3 -12  -1   18.31    9.15
  -3 -12  -1   17.25    6.19
  -3 -12  -1   19.87    4.84
   3 -12   1   16.85    4.56
   3 -12   1   19.04    8.63
  -3  12  -1   24.33    7.15
   3  12   1   14.47    8.11
  -3  12  -1   23.65    5.59
   3  12   1   13.68    6.34
  -4 -12  -1   10.82    5.21
  -4 -12  -1    9.01    8.61
   4  12   1    9.18    6.30
   4  12   1   -2.71    6.81
  -4  12  -1    8.86    5.96
  -5 -12  -1  214.90   22.96
  -5 -12  -1  239.50   16.50
   5  12   1  236.74   19.25
  -5  12  -1  218.21   18.26
  -6 -12  -1    6.73    9.30
   6  12   1   20.80    9.39
  -6  12  -1    9.31    6.80
  -7 -12  -1   -2.84    9.37
  -7  12  -1    5.83    8.41
   7  12   1    0.77    7.24
  -8 -12  -1    6.27   13.48
   8  12   1   14.15   10.36
  -8  12  -1   12.66    8.57
  -7 -13   1   -7.35    8.68
  -7  13   1   -3.66    7.14
   7  13  -1    0.41    8.04
  -6 -13   1    1.43    8.36
  -6  13   1   15.48    7.08
   6  13  -1   -5.09    5.88
  -5 -13   1   -2.29    6.73
  -5 -13   1    8.36    9.70
  -5  13   1    0.05    4.73
   5  13  -1   -6.66    6.16
  -4 -13   1   40.37    8.40
  -4 -13   1   54.61    9.11
  -4 -13   1   33.57   11.77
   4  13  -1   62.62   11.98
   4  13  -1   47.64   13.21
  -4  13   1   36.58    7.90
   4  13  -1   54.29   10.98
   3 -13  -1   10.81    8.73
  -3 -13   1    9.25    4.17
  -3 -13   1   10.55    4.31
  -3 -13   1    5.62    7.56
  -3  13   1   11.71    4.41
   3  13  -1    8.90    6.17
  -3  13   1   19.35    5.59
   3  13  -1   -0.04    6.61
   3  13  -1   11.18    5.71
  -2 -13   1   18.20    3.71
  -2 -13   1   24.23    3.92
  -2 -13   1   19.94    7.76
   2 -13  -1   21.87   11.28
  -2  13   1   19.66    5.08
   2  13  -1   15.14    6.68
  -2  13   1   23.54    4.95
   2  13  -1   24.18    6.95
   2  13  -1   13.49    7.52
  -1 -13   1   -1.31    7.48
   1 -13  -1    7.09    6.71
   1  13  -1    8.24    5.58
   1  13  -1    0.50    5.83
  -1  13   1    6.39    3.86
  -1  13   1    4.62    3.77
  -1  13   1    0.45    4.06
   0 -13  -1   59.10   12.79
   0 -13   1   65.47   13.45
   0  13  -1   44.67    9.77
   0  13   1   58.93    8.07
   0  13   1   49.18    8.63
   0  13  -1   54.79    9.00
   1 -13   1   -3.13    4.81
  -1  13  -1    0.58    5.20
   1  13   1    7.09    4.61
  -1  13  -1    5.49    4.86
   1  13   1   -1.42    3.49
   1  13   1    4.03    5.13
  -1  13  -1   -3.75    4.95
   2 -13   1   48.80   11.59
  -2 -13  -1   37.26   10.81
  -2  13  -1   34.51    6.55
   2  13   1   28.00    7.36
   2  13   1   39.33    8.48
  -2  13  -1   40.49    7.93
   2  13   1   39.36    8.04
   3 -13   1    6.19    3.55
  -3 -13  -1   15.52    7.67
  -3 -13  -1    2.11    2.57
  -3 -13  -1   17.18    8.10
   3 -13   1   -9.27    5.09
  -3 -13  -1    5.97    2.96
   3  13   1    8.14    6.92
  -3  13  -1   14.23    6.11
   3  13   1   11.43    5.59
  -4 -13  -1   59.71   13.08
  -4 -13  -1   51.59    7.58
  -4 -13  -1   89.21   16.34
  -4 -13  -1   41.81    7.04
   4  13   1   44.36    9.81
   4  13   1   37.29   11.00
  -4  13  -1   48.47    9.82
  -5 -13  -1   -5.68    8.00
  -5  13  -1    4.15    6.42
   5  13   1    7.76    6.32
  -6 -13  -1   11.03   10.19
   6  13   1   32.45   10.57
  -6  13  -1   32.86   10.65
  -7 -13  -1   -8.81    9.33
  -7  13  -1  -10.19    6.85
   7  13   1   -1.00    8.33
  -7 -14   1   52.58   17.42
  -7  14   1   55.83   13.38
   7  14  -1   72.58   16.17
  -6 -14   1   23.33   12.68
   6  14  -1   15.62    9.23
  -6  14   1   -0.77    6.05
  -5 -14   1   39.64   12.14
  -5 -14   1   20.61    8.59
   5  14  -1   31.51   10.13
   5  14  -1   24.45    9.00
  -5  14   1   14.48    7.08
  -4 -14   1    0.68    4.99
  -4 -14   1    4.94    7.81
  -4 -14   1   -3.01    3.93
  -4 -14   1    8.24    9.35
   4  14  -1    3.44    6.93
  -4  14   1   -2.25    4.73
   4  14  -1    7.44   10.34
  -3 -14   1  118.79    9.85
  -3 -14   1  128.80    9.42
  -3 -14   1  130.49   19.12
   3 -14  -1  101.17   17.75
  -3  14   1  124.94   10.73
   3  14  -1  118.52   14.45
   3  14  -1  108.03   16.44
   3  14  -1  138.11   14.75
  -3  14   1   99.00    9.73
   2 -14  -1   26.61    9.55
  -2 -14   1   12.02    8.46
  -2  14   1    5.67    5.04
  -2  14   1   16.45    4.99
   2  14  -1    1.59    6.60
  -2  14   1   22.65    6.02
   1 -14  -1   39.13   12.09
  -1 -14   1   66.20   13.52
  -1  14   1   63.50    7.53
  -1  14   1   68.99    9.53
   1  14  -1   56.21   10.83
   1  14  -1   55.90    9.40
  -1  14   1   46.62    6.99
   0 -14   1   20.72    8.74
   0 -14  -1   26.07   10.29
   0  14  -1   22.38    7.37
   0  14  -1   23.02    6.19
   0  14   1   20.43    5.70
   0  14   1   15.27    6.03
  -1 -14  -1  231.72   19.67
   1 -14   1  212.12   20.30
   1  14   1  223.59   16.46
   1  14   1  207.94   14.10
  -1  14  -1  225.17   15.27
  -1  14  -1  191.66   13.44
  -1  14  -1  190.95   17.08
   2 -14   1   44.38   11.98
  -2 -14  -1   47.93   11.89
   2  14   1   41.50    9.42
  -2  14  -1   30.86    6.38
  -2  14  -1   37.81    8.13
   2  14   1   32.24    7.04
   2  14   1   35.11    7.91
   3 -14   1   13.42    8.86
  -3 -14  -1   13.99    2.25
  -3 -14  -1   14.43    8.50
   3  14   1    9.23    6.14
  -3  14  -1   17.42    6.77
   3  14   1   19.33    7.31
   3  14   1   22.89    8.91
  -4 -14  -1   20.48    5.55
  -4 -14  -1    2.61    7.76
  -4 -14  -1   15.39    4.56
  -4 -14  -1   23.31   10.17
   4  14   1   15.04    7.16
  -4  14  -1   13.86    6.67
  -5 -14  -1   92.53   17.06
  -5 -14  -1  112.83   11.56
  -5 -14  -1   86.51   11.21
  -5 -14  -1   99.04   19.69
   5  14   1   96.45   14.75
  -5  14  -1  105.41   14.35
  -6 -14  -1    9.08   11.78
  -6  14  -1    3.85    7.01
  -7 -14  -1   13.12   12.51
   7  14   1    7.60    8.43
  -7  14  -1    0.72    8.74
  -7 -15   1   25.22   14.63
  -7  15   1   16.13    9.46
   7  15  -1   10.16   10.79
  -6 -15   1    4.13    6.09
  -6 -15   1    7.54   11.01
   6  15  -1   -4.34    6.40
   6  15  -1    2.77    7.70
  -6  15   1    0.89    6.07
  -5 -15   1   31.06   11.41
  -5 -15   1   41.36   14.06
  -5 -15   1   42.32   10.99
   5  15  -1   45.13   11.76
  -5  15   1   44.93    9.41
   5  15  -1   31.60   11.54
  -4 -15   1   27.09    6.53
  -4 -15   1   48.04   12.72
  -4 -15   1   34.98    6.33
   4  15  -1   39.13    9.93
  -4  15   1   39.63    8.13
   4  15  -1   50.93   14.25
   4  15  -1   45.15   11.29
   3 -15  -1   16.39    8.85
  -3 -15   1   14.90    3.64
  -3 -15   1   16.05    8.53
  -3 -15   1   15.72    3.74
   3  15  -1   19.49    7.68
  -3  15   1   18.45    5.05
   3  15  -1   20.40   10.50
   3  15  -1   24.19    8.37
   2 -15  -1    3.17    5.62
  -2 -15   1    3.02    6.95
  -2  15   1    7.54    4.40
   2  15  -1  -15.46    5.60
  -2  15   1   -1.85    4.41
  -2  15   1    2.04    3.50
   2  15  -1    1.51    4.75
  -1 -15   1   63.94   13.17
   1 -15  -1   62.41   13.41
  -1  15   1   81.95    9.33
  -1  15   1   66.27    8.42
   1  15  -1   81.74   13.69
  -1  15   1   77.27   10.48
   0 -15   1   40.60   11.62
   0 -15  -1   50.56   12.78
   0  15  -1   58.18    9.46
   0  15   1   61.31    8.46
   0  15   1   46.19    9.11
   1 -15   1   33.71   11.16
  -1 -15  -1   20.43    9.53
   1  15   1   16.81    6.88
   1  15   1   24.31    6.68
  -1  15  -1   25.83    7.58
  -1  15  -1   43.17    8.19
  -2 -15  -1    0.31    7.57
   2 -15   1   -2.23    8.50
   2  15   1    6.98    5.85
  -2  15  -1    8.25    6.95
  -2  15  -1    0.11    4.73
   2  15   1    8.11    5.29
   2  15   1    5.24    5.36
   3 -15   1   73.04   15.85
  -3 -15  -1   75.33   15.36
   3  15   1   93.03   13.18
  -3  15  -1   86.54   11.51
   3  15   1   93.17   12.46
   3  15   1   64.38   12.92
  -4 -15  -1   53.43    6.17
  -4 -15  -1   70.52   15.13
  -4 -15  -1   56.57    5.90
  -4 -15  -1   64.48   14.54
   4  15   1   46.47   14.28
   4  15   1   79.85   19.42
  -4  15  -1   73.92   11.07
   4  15   1   70.58   12.36
  -5 -15  -1   43.42   12.76
  -5 -15  -1   18.88    6.89
  -5 -15  -1   19.01   10.64
  -5 -15  -1   41.22    7.60
  -5  15  -1   32.73    9.03
   5  15   1   35.47   10.52
  -6 -15  -1    7.00    5.69
  -6 -15  -1   19.55   11.58
  -6 -15  -1    5.75   10.81
  -6  15  -1   13.77    8.01
   6  15   1    7.10    8.33
  -6 -16   1  102.40   20.12
  -6 -16   1  100.22   20.97
  -6 -16   1  141.84   14.30
   6  16  -1  115.06   18.76
   6  16  -1   91.07   17.39
  -6  16   1  100.55   14.99
  -5 -16   1  -14.01    7.72
  -5 -16   1    5.36    5.30
  -5 -16   1    7.95   10.47
  -5 -16   1   10.00    9.41
   5  16  -1   -1.23    7.17
   5  16  -1  -12.69    6.23
  -5  16   1    4.57    5.75
  -4 -16   1   -4.82    7.02
  -4 -16   1    7.00    7.61
  -4 -16   1    3.94    3.77
   4  16  -1   -3.27    5.98
  -4  16   1    3.85    5.03
   4  16  -1   -8.29   10.91
   4  16  -1   11.63    6.93
   3 -16  -1   16.29    9.04
  -3 -16   1    8.57    8.83
   3  16  -1   -5.40   10.46
   3  16  -1  -10.40    4.34
  -3  16   1   -3.48    3.11
  -2 -16   1  208.25   21.26
   2 -16  -1  222.31   22.83
  -2  16   1  162.57   15.00
  -2  16   1  189.44   12.54
  -2  16   1  163.78   14.20
   2  16  -1  199.92   16.73
   2  16  -1  197.81   19.22
  -1 -16   1   17.09    9.19
   1 -16  -1    1.33    7.52
  -1  16   1    0.14    3.89
   1  16  -1    1.32    5.14
   1  16  -1    5.59    5.90
  -1  16   1    6.99    5.55
   0 -16  -1   24.54   11.58
   0 -16   1   32.24   12.20
   0  16   1   39.95    7.29
   0  16   1   48.29    9.20
   0  16  -1   60.97    9.84
   1 -16   1   -0.30    5.08
  -1 -16  -1   11.10    7.43
   1  16   1    0.42    4.84
  -1  16  -1    0.66    5.93
   1  16   1    3.98    5.87
  -1  16  -1    8.44    7.16
   2 -16   1  148.03   21.01
  -2 -16  -1  149.97   21.26
  -2  16  -1  120.98   15.86
   2  16   1  117.14   15.76
  -2  16  -1  152.76   13.48
   2  16   1  143.11   13.32
   2  16   1  152.74   14.02
   3 -16   1   -4.26    5.30
  -3 -16  -1   -2.99    7.36
  -3  16  -1    1.21    4.68
   3  16   1    4.48    6.32
   3  16   1  -14.91    7.27
   3  16   1   -1.08    5.87
  -4 -16  -1   60.22   14.33
   4  16   1   62.89   12.04
   4  16   1   30.73   12.49
   4  16   1   67.38   12.46
  -4  16  -1   48.44    9.56
  -5 -16  -1   18.34   12.77
  -5 -16  -1    3.88    4.43
  -5 -16  -1    5.84    7.70
  -5 -16  -1  -20.71    7.60
  -5  16  -1    1.15    5.95
   5  16   1   -4.70    6.03
   5  16   1   17.81    6.71
  -6 -16  -1   89.51   13.35
  -6 -16  -1  127.86   21.61
  -6 -16  -1   83.72   19.03
   6  16   1   91.95   17.00
  -6  16  -1  101.42   15.90
  -5 -17   1    2.18    9.48
  -5 -17   1   19.07    6.17
  -5  17   1   15.67    7.05
   5  17  -1    8.30    8.29
   5  17  -1    8.07    7.63
  -4 -17   1    7.94   10.23
  -4 -17   1   13.92    3.83
   4  17  -1   17.62    8.46
  -4  17   1    8.44    5.73
   3 -17  -1    0.63    9.94
  -3 -17   1   -4.02    7.20
   3  17  -1   -3.45    4.99
  -3  17   1    2.70    6.21
   3  17  -1  -17.63   10.00
  -3  17   1    8.83    4.96
  -2 -17   1   15.57    9.49
   2 -17  -1   14.70    9.26
  -2  17   1    6.40    4.57
   2  17  -1   12.87    8.61
  -2  17   1   10.34    7.21
   2  17  -1    6.52    6.37
  -1 -17   1   16.38    9.68
   1 -17  -1   28.99   11.45
  -1  17   1   33.26    6.51
   1  17  -1   27.79    8.02
   1  17  -1    5.99    8.29
  -1  17   1   28.69    7.52
   0 -17  -1   11.99    9.73
   0 -17   1   27.24   11.19
   0  17   1   22.93    7.77
   0  17   1    3.66    6.01
   0  17  -1   17.07    6.66
  -1 -17  -1   15.46    8.83
   1 -17   1   -2.56    6.62
   1  17   1   -0.10    4.28
   1  17   1    5.15    6.16
  -1  17  -1   -5.27    5.73
  -1  17  -1    2.21    4.85
   2 -17   1   38.24   12.67
  -2 -17  -1   23.94    9.33
   2  17   1    4.49    7.62
  -2  17  -1   18.50    8.59
  -2  17  -1   33.17    7.63
   2  17   1   26.39    7.14
  -3 -17  -1   55.04   13.82
   3 -17   1   59.90   16.11
   3  17   1   50.25   10.26
   3  17   1   48.46   12.94
   3  17   1   72.09   12.28
  -3  17  -1   53.59    9.33
  -3  17  -1   24.42    9.35
  -4 -17  -1    6.61    9.34
   4  17   1    3.20    7.16
  -4  17  -1   16.12    6.96
   4  17   1  -19.44   11.12
   4  17   1   11.34    7.79
  -5 -17  -1    1.12   10.44
  -5  17  -1   -9.02    5.89
   5  17   1    8.37    8.60
   5  17   1  -12.06    5.96
  -5 -18   1    3.50   11.03
  -5 -18   1    5.56    3.57
   5  18  -1   17.56    9.44
  -5  18   1   -3.99    5.99
  -4 -18   1   21.47   11.71
   4  18  -1   13.96    9.44
  -4  18   1   10.96    5.91
  -3 -18   1    3.79    8.95
   3 -18  -1  -21.40    7.42
   3  18  -1   20.18    7.96
  -3  18   1   -2.06    4.32
   2 -18  -1   76.42   16.52
  -2 -18   1  113.02   19.23
   2  18  -1  118.07   18.53
   2  18  -1  138.47   14.85
  -2  18   1  151.80   11.43
  -1 -18   1   -9.79    6.39
   1 -18  -1   10.57   10.16
  -1  18   1    1.53    4.32
  -1  18   1   -3.91    5.58
   1  18  -1   -2.27    4.93
   0 -18   1   -0.44    8.80
   0 -18  -1    5.67    7.82
   0  18   1   18.20    5.74
   0  18  -1   24.39    6.61
   0  18   1   -6.02    5.30
  -1 -18  -1    4.53    7.83
   1 -18   1   10.05   10.16
  -1  18  -1  -14.39    5.81
   1  18   1   -1.62    6.75
   1  18   1   -0.87    4.57
  -1  18  -1    2.07    5.24
   2 -18   1  108.58   20.21
  -2 -18  -1  114.03   20.18
   2  18   1  133.64   13.53
   2  18   1   88.59   15.13
  -2  18  -1  112.71   12.40
  -2  18  -1  115.45   16.04
  -3 -18  -1   -1.22    8.81
   3 -18   1   -9.52    7.29
   3  18   1   -1.12    6.55
   3  18   1  -12.57    8.86
  -3  18  -1    8.32    6.15
  -3  18  -1  -19.18    6.69
  -4 -18  -1   12.99   10.81
   4  18   1   28.97   10.24
   4  18   1   38.68   11.41
  -4  18  -1   14.93    7.09
  -4 -19   1  152.76   26.09
  -4  19   1  150.85   13.60
   4  19  -1  139.89   19.39
  -4  19   1   91.70   15.37
   3 -19  -1   -1.76    7.56
  -3 -19   1   -2.77    8.10
  -3  19   1    7.92    4.90
  -3  19   1   -3.31    5.96
   3  19  -1    0.64    7.15
   2 -19  -1   17.11   11.90
  -2 -19   1   17.88   11.08
   2  19  -1    3.13    6.92
  -2  19   1   13.89    5.23
   2  19  -1  -20.34    9.91
  -2  19   1    9.92    7.11
   1 -19  -1   -0.86    7.92
  -1 -19   1    4.20    9.01
   1  19  -1   10.22    6.11
  -1  19   1   -0.51    4.14
   0 -19   1  120.31   20.67
   0 -19  -1  116.10   21.37
   0  19  -1  168.29   14.73
   0  19   1  166.40   15.24
   0  19   1  174.03   13.45
   1 -19   1   14.23   10.88
  -1 -19  -1    2.68    8.89
   1  19   1   10.55    7.52
  -1  19  -1    7.40    8.07
   1  19   1   14.07    6.19
  -1  19  -1   21.98    7.34
  -2 -19  -1   39.75   14.69
   2 -19   1   38.00   14.24
  -2  19  -1   30.66    7.76
   2  19   1   40.01    8.60
  -3 -19  -1    8.31    8.77
   3 -19   1   -7.18    7.74
   3  19   1   11.11    6.93
  -3  19  -1    3.37    5.42
  -3  19  -1  -11.30    7.57
  -4 -19  -1   97.97   19.57
  -4  19  -1   89.50   12.77
   4  19   1  146.12   18.77
   2 -20  -1   -1.40   11.14
  -2  20   1  -12.50    6.15
  -2  20   1   26.92    5.99
   2  20  -1   17.39    8.34
   1 -20  -1  -13.49    7.37
  -1 -20   1    1.23   10.52
   1  20  -1    9.41    6.49
  -1  20   1    2.16    4.91
  -1  20   1   -4.37    5.94
   0 -20   1    6.74    9.50
   0 -20  -1  -13.05    7.35
   0  20  -1    2.53    5.79
   0  20   1   -9.58    6.72
   0  20   1   -1.47    4.96
  -1 -20  -1   -6.35    8.13
   1 -20   1    4.85   11.06
  -1  20  -1  -19.89    7.54
  -1  20  -1   -3.78    4.62
   1  20   1  -19.65    6.91
   1  20   1   -3.71    4.63
   2 -20   1   19.29   12.77
   2  20   1   12.61    6.61
  -2  20  -1   10.05    6.06
  10   0  -2  129.91   19.95
 -10   0   2   93.66   28.03
  -9   0   2    5.09    9.96
   9   0  -2    1.33    6.55
  -8   0   2  288.54   27.40
   8   0  -2  268.18   21.39
  -7   0   2    1.05    6.83
   7   0  -2   -0.04    5.11
   6   0  -2  317.41   19.86
  -6   0   2  264.71   22.30
   5   0  -2    3.08    4.70
  -5   0   2    1.36    3.93
  -5   0   2    1.88    5.28
   5   0  -2    4.71    5.02
   4   0  -2  403.48   20.64
  -4   0   2  384.99   18.49
   4   0  -2  434.00   19.41
  -4   0   2  378.33   21.45
   3   0  -2   60.29    6.93
  -3   0   2   55.35    6.78
   3   0  -2   56.19    7.79
  -3   0   2   44.28    7.44
  -2   0   2  277.59   15.81
   2   0  -2  281.78   13.46
  -2   0   2  282.36   11.90
   2   0  -2  282.96   13.40
  -1   0   2   10.91    3.10
   1   0  -2   13.12    2.95
  -1   0   2   15.44    2.39
   1   0   2   37.60    4.21
  -1   0  -2   46.11    4.64
   1   0   2   41.46    4.06
  -1   0  -2   44.00    3.91
  -2   0  -2  452.92   17.34
   2   0   2  468.20   18.49
   2   0   2  448.99   17.56
  -2   0  -2  507.03   21.84
  -3   0  -2    1.15    4.01
   3   0   2   -0.86    2.95
   3   0   2    0.13    3.02
  -3   0  -2    1.97    2.76
  -4   0  -2  343.49   20.42
  -4   0  -2  373.56   18.29
   4   0   2  381.25   18.88
   4   0   2  369.55   19.53
  -5   0  -2  102.39   14.79
  -5   0  -2  126.34   11.53
   5   0   2  102.40   13.27
   5   0   2  106.53   12.44
  -6   0  -2  323.53   24.33
   6   0   2  325.95   21.23
  -7   0  -2    9.10    7.53
   7   0   2   18.37    7.76
  -8   0  -2   21.53   11.43
   8   0   2   38.26   10.53
   9   0   2   38.17   11.50
  -9   0  -2   39.19   13.62
  10   0   2  123.73   21.45
 -10  -1   2   34.61   13.62
  10  -1  -2   47.61   13.33
  10   1  -2   37.72   12.27
   9  -1  -2   10.03    8.09
  -9  -1   2   -9.38    7.35
  -9   1   2    8.64   10.35
   9   1  -2   14.09    8.09
  -8  -1   2    1.29    7.43
   8  -1  -2   21.07    8.68
  -8   1   2    2.13    8.67
   8   1  -2   20.77    8.83
   7  -1  -2    4.16    5.59
  -7  -1   2   15.60    8.87
   7   1  -2   -0.09    5.09
  -7   1   2   10.72    8.45
  -6  -1   2   93.84   15.87
   6  -1  -2  122.71   12.98
  -6   1   2   98.86   16.45
   6   1  -2  111.40   13.57
  -5  -1   2   10.10    6.01
   5  -1  -2   -1.76    3.75
  -5  -1   2   -3.47    3.34
   5  -1  -2    0.51    4.18
  -5   1   2    2.98    5.63
   5   1  -2    2.51    4.83
   5   1  -2    3.90    4.82
  -5   1   2    0.77    3.51
   4  -1  -2   53.25    8.43
  -4  -1   2   46.10    7.05
  -4  -1   2   45.41    9.02
   4  -1  -2   50.91    7.25
   4   1  -2   47.76    7.47
  -4   1   2   44.31    7.03
  -4   1   2   37.65    8.61
   4   1  -2   39.54    7.92
   3  -1  -2   27.12    4.93
   3  -1  -2   29.84    6.14
  -3  -1   2   21.37    6.29
  -3  -1   2   26.98    5.31
   3   1  -2   26.57    6.19
   3   1  -2   34.06    5.91
  -3   1   2   22.07    4.58
  -3   1   2   34.39    6.85
   2  -1  -2   99.50    6.57
   2  -1  -2  106.45    7.60
  -2  -1   2   91.88    6.61
  -2  -1   2  110.17    9.68
   2   1  -2   91.86    7.21
  -2   1   2   99.69    9.34
   2   1  -2   95.73    8.58
  -2   1   2   94.01    6.50
  -1  -1   2   72.00    6.62
   1  -1  -2   75.52    4.83
  -1  -1   2   82.43    5.02
   1   1  -2   79.76    5.22
  -1   1   2   82.65    5.34
   1   1  -2   75.45    6.27
   0  -1  -2   88.35    4.32
   0  -1  -2   87.67    3.85
   0  -1   2   83.64    4.78
   0   1  -2   85.97    4.95
  -1  -1  -2    2.46    2.05
  -1  -1  -2    5.77    2.74
   1  -1   2    5.21    2.57
   1  -1   2    7.79    2.79
   1   1   2    3.58    2.37
  -1   1  -2    5.42    2.03
   1   1   2    3.25    2.24
  -1   1  -2    6.17    2.44
  -1   1  -2    0.84    1.21
  -2  -1  -2  132.18    9.54
   2  -1   2  120.73    8.72
   2  -1   2  134.57    8.50
  -2  -1  -2  142.26    8.34
  -2   1  -2  133.95    8.30
  -2   1  -2  123.00    9.11
   2   1   2  116.89    8.21
   2   1   2  138.98    9.16
   3  -1   2   58.57    7.29
  -3  -1  -2   67.38    7.62
   3  -1   2   58.04    7.68
  -3  -1  -2   70.23    9.55
  -3   1  -2   63.92    6.72
   3   1   2   63.08    7.71
   3   1   2   57.99    8.18
  -3   1  -2   65.34    8.60
   4  -1   2   28.17    6.46
  -4  -1  -2   34.42    6.63
   4  -1   2   23.74    6.37
  -4  -1  -2   22.74    7.71
  -4   1  -2   29.54    7.11
   4   1   2   37.26    7.39
   4   1   2   32.87    7.01
  -4   1  -2   31.65    6.73
   5  -1   2   12.78    6.32
  -5  -1  -2   25.04    8.50
  -5  -1  -2   19.54    6.08
   5  -1   2   11.36    5.75
  -5   1  -2   13.20    6.07
  -5   1  -2   19.31    7.98
   5   1   2   10.01    6.35
   5   1   2   22.29    7.41
   6  -1   2   73.81   11.94
  -6  -1  -2  100.54   16.26
   6   1   2   94.50   13.39
  -6   1  -2   88.98   15.30
   7  -1   2   19.77    7.29
  -7  -1  -2    1.97    7.73
   7   1   2    6.92    5.80
  -7   1  -2    2.43    7.40
   8  -1   2   32.29   10.17
  -8  -1  -2   35.65   12.73
   8   1   2   25.00    9.96
  -8   1  -2   26.22   11.63
  -9  -1  -2   13.21   10.40
   9  -1   2    4.01    8.13
  -9   1  -2    6.86   10.12
   9   1   2    7.02    7.53
  10  -1   2   -2.37    7.92
 -10   1  -2    8.57   13.15
  10  -2  -2   37.20   11.84
 -10  -2   2    2.63   12.26
  10   2  -2   34.59   12.69
 -10   2   2    6.67   12.08
   9  -2  -2    4.31    7.06
  -9  -2   2   -9.78    7.34
  -9   2   2   -5.33    8.62
   9   2  -2   28.88   10.23
   8  -2  -2   44.48   10.49
  -8  -2   2   29.88   13.72
   8   2  -2   54.73   12.14
  -8   2   2   44.46   14.01
  -7  -2   2   27.11   10.64
   7   2  -2   39.02    9.87
  -7   2   2   22.85   10.70
   6  -2  -2   67.21   10.72
  -6  -2   2   66.86   14.57
   6   2  -2   87.94   12.84
  -6   2   2   85.29   14.60
  -5  -2   2   32.23    7.28
  -5  -2   2   43.26    9.89
   5  -2  -2   35.85    7.43
   5  -2  -2   15.18    6.24
  -5   2   2   36.33    9.45
   5   2  -2   33.93    8.79
  -5   2   2   20.21    5.98
   5   2  -2   29.58    7.73
  -4  -2   2  127.95   10.19
  -4  -2   2  142.51   13.84
   4  -2  -2  128.01    9.86
   4  -2  -2  116.39   10.32
   4   2  -2  108.97   10.09
   4   2  -2  134.06   12.34
  -4   2   2  119.54   11.69
  -4   2   2  115.75    9.29
   3  -2  -2   40.84    5.45
  -3  -2   2   46.13    6.49
  -3  -2   2   42.83    8.15
   3  -2  -2   43.88    6.51
   3   2  -2   53.07    8.45
  -3   2   2   37.77    6.36
   3   2  -2   53.86    7.31
  -3   2   2   34.28    5.20
   2  -2  -2  322.93   13.06
  -2  -2   2  308.61   13.40
   2  -2  -2  305.76   11.66
  -2  -2   2  340.20   17.17
   2   2  -2  308.06   15.47
  -2   2   2  313.77   12.11
  -2   2   2  296.79   13.64
   2   2  -2  308.11   13.69
  -1  -2   2   87.92    5.90
   1  -2  -2   83.89    4.37
  -1  -2   2   84.48    8.29
   1   2  -2   82.27    7.78
   1   2  -2   86.41    6.33
   1   2  -2   80.91    5.82
  -1   2   2   85.01    4.86
  -1   2   2   72.39    5.99
   0  -2   2   82.23    5.29
   0  -2   2   78.67    5.18
   0  -2  -2   78.94    5.22
   0   2   2   88.85    5.12
   0   2   2   86.29    3.61
   0   2  -2   85.22    5.26
   0   2  -2   92.54    5.71
   1  -2   2   93.48    5.40
   1  -2   2   86.20    6.31
  -1  -2  -2   93.20    5.55
  -1  -2  -2   88.89    6.30
   1  -2   2   92.14    6.62
  -1   2  -2   85.23    6.70
   1   2   2   93.17    6.22
  -1   2  -2   94.45    5.98
   1   2   2   92.24    5.84
  -1   2  -2   96.57    5.17
   2  -2   2  125.56    8.13
  -2  -2  -2  110.60    7.37
   2  -2   2  112.62    8.30
  -2  -2  -2  111.26    8.73
  -2   2  -2  101.56    8.41
   2   2   2  125.23    8.37
  -2   2  -2  112.62    7.67
   2   2   2  123.30    8.82
   3  -2   2   87.81    7.87
   3  -2   2  100.80    8.80
  -3  -2  -2  117.19   10.46
  -3  -2  -2   93.66    7.79
  -3   2  -2   99.43    9.40
  -3   2  -2   92.49    7.88
   3   2   2   79.67    8.64
   3   2   2   80.14    8.14
   4  -2   2   34.60    6.70
  -4  -2  -2   20.07    6.98
  -4  -2  -2   31.39    6.41
   4  -2   2   25.77    6.21
   4   2   2   36.46    7.51
   4   2   2   36.00    7.39
  -4   2  -2   29.91    6.19
  -4   2  -2   22.20    7.19
  -5  -2  -2   19.99    6.25
   5  -2   2   30.37    7.44
  -5  -2  -2   39.33   10.56
   5   2   2   28.47    7.94
   5   2   2   29.10    7.58
  -5   2  -2   31.91    9.39
  -6  -2  -2  150.19   19.65
   6  -2   2  129.61   14.89
   6   2   2  144.49   14.75
  -6   2  -2  119.99   16.85
  -7  -2  -2   63.74   14.60
   7  -2   2   47.10   10.02
  -7   2  -2   48.13   12.87
   7   2   2   26.76    9.39
   8  -2   2    6.45    6.41
  -8  -2  -2   21.10   11.19
   8   2   2   12.98    8.55
  -8   2  -2   12.05   10.01
   9  -2   2   19.19    9.50
  -9  -2  -2   22.75   13.30
   9   2   2   22.95    9.84
  -9   2  -2   26.41   13.23
 -10  -2  -2   51.52   16.46
  10  -2   2   45.79   12.99
  10   2   2   26.54   13.43
 -10   2  -2   62.87   18.38
 -10  -3   2  164.77   31.32
  10  -3  -2  118.32   18.46
 -10   3   2  143.25   26.41
   9  -3  -2    1.95    6.85
  -9  -3   2   -4.28    9.06
   9   3  -2   20.66    9.34
  -9   3   2    1.15    9.11
   8  -3  -2   69.45   12.96
  -8  -3   2   54.03   15.98
  -8   3   2   70.80   15.77
   8   3  -2   85.66   15.08
   7  -3  -2   11.48    6.48
  -7  -3   2    1.21    7.04
   7   3  -2   11.38    6.51
  -7   3   2    9.13    6.92
  -6  -3   2  249.50   22.51
   6  -3  -2  274.14   17.79
  -6   3   2  293.25   22.39
   6   3  -2  280.32   19.88
   5  -3  -2   37.25    7.29
  -5  -3   2   31.99    7.21
   5  -3  -2   28.46    6.78
  -5  -3   2   31.54   10.15
  -5   3   2   44.78    7.81
   5   3  -2   56.75   10.50
   5   3  -2   37.62    8.52
  -5   3   2   44.44   10.12
   4  -3  -2  139.49   10.99
  -4  -3   2  169.46   11.86
   4  -3  -2  154.99   10.32
  -4  -3   2  162.30   14.66
  -4   3   2  142.24   10.11
   4   3  -2  130.75   12.65
  -4   3   2  134.52   12.04
   4   3  -2  157.61   12.09
  -3  -3   2   43.37    6.47
   3  -3  -2   45.45    5.35
   3  -3  -2   47.39    6.33
  -3  -3   2   36.15    8.25
   3   3  -2   48.39    8.24
   3   3  -2   44.16    6.96
  -3   3   2   55.44    7.54
  -3   3   2   48.60    6.00
  -2  -3   2  453.57   20.80
  -2  -3   2  401.50   16.60
   2  -3  -2  435.59   13.89
   2  -3  -2  426.70   15.32
   2   3  -2  420.22   19.55
  -2   3   2  423.29   16.12
   2   3  -2  450.04   17.62
   1  -3  -2    5.08    1.20
  -1  -3   2    3.86    5.05
  -1  -3   2    3.54    3.13
   1  -3  -2   10.11    3.74
   1   3  -2    4.66    3.32
  -1   3   2    4.55    1.77
   1   3  -2   10.28    5.12
  -1   3   2    6.03    3.47
   1   3  -2   10.21    3.59
   0  -3   2  516.22   17.96
   0  -3   2  538.27   17.86
   0  -3  -2  538.32   18.76
   0   3   2  538.17   15.11
   0   3  -2  553.86   18.57
   0   3  -2  523.84   18.03
   0   3   2  548.07   18.68
  -1  -3  -2  100.80    5.53
   1  -3   2   93.82    6.61
  -1  -3  -2  101.82    6.96
   1  -3   2   97.04    6.80
   1  -3   2   89.27    6.97
   1   3   2  107.73    6.20
  -1   3  -2   98.68    7.21
  -1   3  -2   94.08    7.43
   1   3   2   99.93    6.79
  -1   3  -2   97.03    6.30
   2  -3   2  234.62   11.11
   2  -3   2  209.99   11.38
  -2  -3  -2  238.18   12.79
  -2  -3  -2  243.33   11.19
   2   3   2  220.31   11.24
   2   3   2  227.41   12.36
  -2   3  -2  230.95   11.17
  -2   3  -2  230.01   12.14
  -3  -3  -2  140.32    9.56
   3  -3   2  147.33   10.54
  -3  -3  -2  155.04   12.03
   3  -3   2  143.00    9.82
   3   3   2  147.21   10.58
  -3   3  -2  136.27    9.71
  -3   3  -2  156.45   11.38
   3   3   2  138.59   10.88
  -4  -3  -2  454.85   20.82
  -4  -3  -2  446.90   24.14
   4  -3   2  433.48   20.17
  -4   3  -2  452.53   22.99
   4   3   2  432.55   22.44
  -4   3  -2  433.64   22.65
   4   3   2  455.86   21.68
   5  -3   2    0.57    4.49
  -5  -3  -2    8.99    7.78
  -5  -3  -2    5.16    4.95
   5   3   2   19.41    7.11
   5   3   2   15.60    6.94
  -5   3  -2    7.55    6.63
   6  -3   2  128.98   13.56
  -6  -3  -2   99.92   16.70
   6   3   2  102.44   14.50
  -6   3  -2   99.64   16.04
  -7  -3  -2   75.48   15.79
   7  -3   2   84.81   12.93
  -7   3  -2  109.42   17.45
   7   3   2  106.82   15.52
  -8  -3  -2  158.35   24.21
   8  -3   2  198.52   18.06
  -8   3  -2  192.90   25.16
   8   3   2  146.51   19.23
  -9  -3  -2    3.59   10.55
   9  -3   2    6.28    7.49
  -9   3  -2   -2.58   10.37
   9   3   2   17.31    9.61
  -9  -4   2   63.81   17.34
   9  -4  -2   54.99   12.46
   9   4  -2   65.06   14.40
  -9   4   2   59.70   16.40
  -8  -4   2   19.84   11.30
   8  -4  -2   21.10    8.50
  -8   4   2    6.00    9.04
   8   4  -2   16.76    8.67
  -7  -4   2   12.29    9.00
   7  -4  -2   19.16    7.20
  -7   4   2    8.20    8.16
   7   4  -2   20.66    8.34
   6  -4  -2    2.51    5.02
  -6  -4   2   10.55    7.84
  -6   4   2    0.65    6.84
   6   4  -2   -2.67    5.80
   5  -4  -2  131.94   10.78
   5  -4  -2  118.31   11.16
  -5  -4   2  137.02   18.05
  -5  -4   2   97.83   13.68
  -5   4   2  125.15   13.71
   5   4  -2  104.42   12.95
   5   4  -2   95.62   14.07
  -5   4   2  111.35   10.03
   4  -4  -2   69.79    7.17
   4  -4  -2   84.29    8.41
  -4  -4   2   78.77    9.88
  -4  -4   2   90.15   13.60
  -4   4   2   85.85   10.60
   4   4  -2   99.89    9.73
  -4   4   2   78.24    7.90
   4   4  -2  101.34   10.95
  -3  -4   2    4.83    3.47
  -3  -4   2   12.04    6.41
   3  -4  -2   11.70    3.18
   3  -4  -2   11.38    3.57
  -3   4   2   15.16    4.69
   3   4  -2    7.82    4.19
   3   4  -2   13.53    4.85
  -3   4   2   11.45    3.33
   2  -4  -2   30.71    3.67
  -2  -4   2   32.75    7.72
  -2  -4   2   33.94    5.42
   2   4  -2   35.60    5.68
  -2   4   2   35.80    6.70
   2   4  -2   31.74    6.63
  -2   4   2   27.96    3.96
  -2   4   2   30.61    4.48
   1  -4  -2  167.67   10.87
  -1  -4   2  165.42   12.08
   1   4  -2  155.34    9.46
  -1   4   2  165.16    5.95
   1   4  -2  178.91   12.15
  -1   4   2  166.08   10.32
   1   4  -2  183.61    9.39
   0  -4   2    9.24    3.38
   0  -4   2   10.05    3.33
   0   4  -2   11.89    3.91
   0   4   2   13.11    4.34
   0   4   2    9.11    1.81
  -1  -4  -2    9.01    2.20
   1  -4   2    8.10    2.93
  -1  -4  -2    8.75    3.71
   1  -4   2    9.58    3.38
   1  -4   2   12.05    3.88
  -1  -4  -2    9.29    3.06
   1   4   2   11.33    2.75
   1   4   2    5.94    3.01
  -1   4  -2    9.11    3.05
  -1   4  -2   11.28    3.75
  -1   4  -2   13.45    3.57
   2  -4   2   75.59    6.38
  -2  -4  -2   69.47    7.68
  -2  -4  -2   71.46    6.12
   2  -4   2   54.64    6.04
  -2   4  -2   66.11    6.20
  -2   4  -2   71.71    7.11
   2   4   2   68.72    6.50
  -2   4  -2   67.42    6.56
   3  -4   2  291.06   15.30
  -3  -4  -2  310.80   17.63
  -3  -4  -2  276.94   14.16
   3  -4   2  320.09   14.75
  -3   4  -2  292.79   14.96
  -3   4  -2  283.51   14.48
   3   4   2  307.89   16.70
  -3   4  -2  292.19   16.00
   3   4   2  297.52   15.42
  -4  -4  -2  100.85    9.83
   4  -4   2  111.38   10.01
  -4  -4  -2  135.00   15.56
   4  -4   2  111.04   10.52
   4   4   2  116.12   11.16
  -4   4  -2  122.02   10.62
   4   4   2  120.10   11.90
  -4   4  -2  131.26   12.30
  -5  -4  -2   -5.34    3.48
   5  -4   2    7.60    4.97
  -5  -4  -2    3.08    6.67
   5   4   2    6.66    6.13
   5   4   2   -3.33    5.34
  -5   4  -2    6.30    5.97
  -6  -4  -2   11.66    8.91
   6  -4   2    4.88    5.75
   6   4   2   10.74    7.33
  -7  -4  -2  164.97   22.48
   7  -4   2  134.52   16.09
  -7   4  -2  104.54   17.40
   7   4   2  152.21   18.54
   8  -4   2   64.15   12.68
  -8  -4  -2   72.47   17.17
  -8   4  -2   55.37   14.91
   8   4   2   71.49   14.69
   9  -4   2    6.40    7.93
  -9  -4  -2  -15.62    7.61
   9   4   2    0.61    6.79
  -9   4  -2   12.86   10.33
  -9  -5   2   -6.39   10.34
   9  -5  -2    3.35    7.56
   9   5  -2    3.86    7.50
  -9   5   2   -9.11    6.52
   8  -5  -2   28.77    9.19
  -8  -5   2   23.39   11.96
  -8   5   2   23.13   10.76
   8   5  -2   34.91   10.82
   7  -5  -2  118.97   12.57
  -7  -5   2  114.91   19.64
   7   5  -2  108.61   16.34
  -7   5   2  104.84   17.01
  -6  -5   2   68.20   15.10
   6  -5  -2   70.33    9.92
  -6   5   2   72.27   13.27
   5  -5  -2    0.93    5.03
   5  -5  -2    0.19    4.00
  -5  -5   2   -4.16    6.24
   5   5  -2   -2.95    5.53
   5   5  -2    4.50    5.95
  -5   5   2   -5.82    4.83
  -5   5   2    1.48    4.22
   4  -5  -2   63.42    6.65
   4  -5  -2   68.33    7.36
  -4  -5   2   54.26    9.74
  -4  -5   2   76.81   13.38
  -4   5   2   67.03    9.36
   4   5  -2   72.29   11.71
  -4   5   2   93.66   12.67
  -4   5   2   60.79    7.83
   4   5  -2   81.39   10.77
   3  -5  -2  334.49   12.32
   3  -5  -2  334.49   14.41
  -3  -5   2  348.47   21.13
  -3  -5   2  322.43   16.39
  -3   5   2  328.85   15.87
  -3   5   2  337.87   18.82
   3   5  -2  373.48   20.15
  -3   5   2  350.19   14.39
   3   5  -2  337.06   17.19
  -2  -5   2   99.20   10.86
   2  -5  -2  110.35    5.81
  -2  -5   2  113.91    8.27
   2   5  -2  100.73    8.39
  -2   5   2  126.41    6.87
  -2   5   2  125.14   10.18
  -2   5   2  121.42    7.08
   2   5  -2  119.78   10.60
  -1  -5   2  147.26    8.69
  -1  -5   2  137.92    8.12
  -1  -5   2  137.73   11.38
   1  -5  -2  149.77   10.32
  -1   5   2  143.01    9.84
   1   5  -2  138.41   11.18
   1   5  -2  148.53    9.27
  -1   5   2  142.34    5.33
   1   5  -2  131.81    9.45
   0  -5   2   39.52    4.75
   0  -5   2   35.28    4.80
   0  -5  -2   46.79    6.73
   0  -5   2   40.11    4.56
   0  -5   2   50.45    6.37
   0   5   2   38.65    1.70
   0   5   2   39.39    1.81
   0   5  -2   39.56    5.48
   0   5   2   52.05    6.55
   0   5  -2   38.57    5.47
   0   5   2   34.31    3.35
   1  -5   2  201.12   10.11
  -1  -5  -2  200.95   11.47
   1  -5   2  190.58   11.18
  -1  -5  -2  206.24    7.55
   1  -5   2  188.62    9.72
   1   5   2  198.77    9.98
  -1   5  -2  195.78   10.85
  -1   5  -2  199.81    9.72
  -1   5  -2  194.26   10.65
   1   5   2  194.87    8.79
   2  -5   2   24.80    5.48
   2  -5   2   27.16    4.16
  -2  -5  -2   24.35    4.17
  -2  -5  -2   22.23    5.32
   2  -5   2   26.80    4.89
  -2   5  -2   29.08    4.76
  -2   5  -2   17.14    4.41
  -2   5  -2   33.51    5.72
   2   5   2   33.78    5.33
  -3  -5  -2   55.59    7.30
  -3  -5  -2   51.99    8.72
   3  -5   2   63.14    7.37
   3  -5   2   52.97    7.46
  -3   5  -2   68.24    8.16
   3   5   2   50.18    7.67
   3   5   2   65.65    9.50
  -3   5  -2   62.01    8.87
  -3   5  -2   57.47    8.02
   4  -5   2  148.32   11.95
   4  -5   2  142.15   10.78
  -4  -5  -2  142.12   11.11
  -4  -5  -2  130.36   13.72
  -4   5  -2  150.52   13.02
  -4   5  -2  133.81   10.86
  -4   5  -2  125.32   11.46
   4   5   2  131.59   12.76
   4   5   2  151.73   12.61
  -5  -5  -2  114.92   16.56
   5  -5   2  125.56   11.59
  -5  -5  -2   98.41   11.96
  -5   5  -2  114.78   15.43
   5   5   2  114.14   13.89
   5   5   2  108.75   15.41
  -5   5  -2   99.86   13.66
  -6  -5  -2   16.85    9.05
   6  -5   2   -2.46    4.33
  -6   5  -2   -2.41    6.26
   7  -5   2   33.01    8.75
  -7  -5  -2   26.93   12.19
   7   5   2   18.16    9.17
  -7   5  -2   41.28   11.02
   8  -5   2  109.85   15.21
  -8  -5  -2   57.30   16.15
   8   5   2  114.17   18.04
  -8   5  -2  104.74   18.52
  -9  -5  -2   38.00   15.78
   9  -5   2   50.01   12.18
  -9   5  -2   28.00   12.72
   9   5   2   36.44   12.58
  -9  -6   2    0.15   11.13
   9  -6  -2    7.73    7.86
  -9   6   2    9.35   10.27
   9   6  -2    7.48    9.08
   8  -6  -2   85.38   12.78
  -8  -6   2   82.49   18.79
  -8   6   2  116.19   19.62
   8   6  -2  108.87   16.50
   7  -6  -2   11.70    5.91
  -7  -6   2   16.51   10.80
  -7   6   2   14.32    8.76
   7   6  -2   24.50    9.86
   6  -6  -2   99.80   10.42
  -6  -6   2   76.41   15.62
   6   6  -2  107.09   14.37
  -5  -6   2   19.11    8.78
   5  -6  -2   12.70    4.89
  -5   6   2   18.52    7.78
   5   6  -2   13.44    6.96
   5   6  -2   15.65    9.31
  -5   6   2   10.87    5.22
  -4  -6   2  161.29   16.98
   4  -6  -2  133.26    8.13
   4  -6  -2  123.32    9.89
  -4   6   2  128.03   13.16
   4   6  -2  128.97   13.53
   4   6  -2  116.24   11.71
  -4   6   2  134.56   11.61
  -4   6   2  134.98    9.87
   3  -6  -2    1.91    2.35
  -3  -6   2    1.11    3.02
  -3  -6   2    4.91    5.46
  -3   6   2    4.41    2.73
  -3   6   2    8.71    5.18
   3   6  -2    2.51    4.27
   3   6  -2   -3.23    4.18
  -3   6   2    4.76    3.35
   2  -6  -2  186.02    7.16
  -2  -6   2  186.92   10.69
  -2  -6   2  162.64   14.44
   2  -6  -2  181.61   13.63
  -2   6   2  172.83    8.66
   2   6  -2  183.94   13.83
  -2   6   2  188.15   12.95
   2   6  -2  176.17   11.24
  -1  -6   2    5.74    4.71
  -1  -6   2   21.71    4.58
  -1  -6   2   14.21    3.38
   1  -6  -2    6.20    4.00
   1   6  -2   16.29    3.94
  -1   6   2   21.60    5.60
   1   6  -2   16.55    4.50
  -1   6   2   12.90    1.91
   0  -6   2  179.31    8.56
   0  -6   2  167.63    9.28
   0  -6  -2  176.33   11.79
   0  -6   2  165.63   10.97
   0   6   2  182.82   11.28
   0   6  -2  163.42    9.84
   0   6  -2  165.13    9.63
   0   6   2  175.75    7.78
   0   6   2  167.58    5.86
   0   6   2  158.76    6.01
  -1  -6  -2   19.80    4.75
   1  -6   2   19.40    5.32
  -1  -6  -2   16.64    2.13
  -1  -6  -2   22.78    5.47
   1   6   2   23.85    4.40
  -1   6  -2   24.23    4.91
  -1   6  -2   18.86    3.87
   1   6   2   21.66    3.71
  -1   6  -2   23.63    5.00
   2  -6   2   80.66    6.57
   2  -6   2   92.55    9.22
   2  -6   2   67.97    6.95
  -2  -6  -2   96.68    9.45
  -2   6  -2   85.57    8.23
   2   6   2   84.43    7.44
  -2   6  -2   86.25    7.90
   2   6   2   89.96   10.70
  -2   6  -2   75.10    6.76
  -3  -6  -2   21.35    4.72
   3  -6   2   24.75    4.98
  -3  -6  -2   20.08    6.44
   3  -6   2   26.16    5.51
  -3   6  -2   31.67    6.70
  -3   6  -2   28.34    6.54
   3   6   2   17.86    5.32
   3   6   2   26.98    6.26
  -3   6  -2   24.66    5.48
  -4  -6  -2   84.63   10.12
   4  -6   2   84.30   10.44
   4  -6   2   85.66    8.73
  -4  -6  -2   86.60   13.22
  -4   6  -2   81.40   11.25
  -4   6  -2   85.40   11.40
   4   6   2   69.68   10.39
   4   6   2   80.85   12.01
  -4   6  -2   78.09    9.58
  -5  -6  -2   25.34    6.75
  -5  -6  -2   30.40    9.70
   5  -6   2   34.24    7.31
   5   6   2   27.73    8.65
   5   6   2   31.87    9.25
  -5   6  -2   25.35    8.91
  -5   6  -2   29.05    8.16
   6  -6   2   82.24   11.75
  -6  -6  -2   69.10   14.80
  -6   6  -2   73.96   13.48
   6   6   2  103.97   14.57
  -7  -6  -2   46.57   14.17
   7  -6   2   43.26    9.60
  -7   6  -2   48.92   12.62
   7   6   2   48.85   12.05
   8  -6   2   18.69    8.16
  -8  -6  -2   11.66   11.35
  -8   6  -2   13.73    9.31
   8   6   2   20.84    9.47
  -9  -6  -2   12.44   10.83
   9  -6   2   -6.09    6.15
  -9   6  -2   -0.79   10.23
   9   6   2    6.63    7.82
  -9  -7   2   17.85   13.13
   9  -7  -2   21.47    8.56
  -9   7   2   28.84   11.47
   9   7  -2   14.75    9.18
  -8  -7   2   -1.88    7.05
  -8   7   2   24.72   10.27
   8   7  -2    7.84    6.45
   7  -7  -2  348.16   19.07
  -7  -7   2  315.54   29.16
   7   7  -2  295.82   23.28
  -7   7   2  312.76   25.07
   6  -7  -2   10.92    5.00
  -6  -7   2    4.78    8.81
   6   7  -2    5.92    7.13
  -6   7   2   -1.93    6.16
  -5  -7   2   10.01    8.50
   5  -7  -2    6.56    3.84
  -5   7   2    0.48    4.59
   5   7  -2   24.24    8.43
  -5   7   2    8.31    6.67
  -4  -7   2   26.81   10.19
   4  -7  -2   22.49    5.23
  -4  -7   2   18.24    6.57
   4   7  -2   22.53    6.92
   4   7  -2   33.01    9.18
  -4   7   2   32.41    8.89
  -4   7   2   18.83    6.46
  -4   7   2   17.04    5.07
  -3  -7   2  465.26   26.58
   3  -7  -2  471.07   17.08
  -3  -7   2  448.17   20.34
  -3   7   2  439.68   23.28
  -3   7   2  472.79   19.36
   3   7  -2  463.57   24.82
  -3   7   2  469.18   17.78
   3   7  -2  474.19   22.08
  -2  -7   2   58.59    7.22
   2  -7  -2   46.87    2.89
   2  -7  -2   57.18   10.31
  -2  -7   2   58.79   10.13
  -2   7   2   59.93    9.24
  -2   7   2   52.15    4.94
   2   7  -2   50.34    7.47
  -2   7   2   45.31    4.44
   2   7  -2   45.62    8.79
  -1  -7   2    2.74    3.21
   1  -7  -2   -0.95    3.17
  -1  -7   2    5.40    2.90
  -1   7   2    5.80    4.34
   1   7  -2    7.09    5.00
  -1   7   2    3.35    0.92
  -1   7   2    5.65    1.03
   1   7  -2    6.31    3.87
   0  -7  -2    5.57    4.76
   0  -7   2    6.86    3.20
   0  -7   2    6.86    3.73
   0  -7   2    3.93    2.48
   0  -7   2    5.56    2.77
   0   7   2    9.50    2.83
   0   7  -2    5.66    4.41
   0   7  -2    8.23    3.28
   0   7   2    8.60    1.87
   0   7   2    8.52    4.42
   0   7  -2   10.08    3.97
  -1  -7  -2  775.12   30.03
  -1  -7  -2  750.12   27.13
   1  -7   2  812.90   26.45
   1  -7   2  770.03   30.07
   1  -7   2  786.79   26.49
   1   7   2  801.77   27.17
  -1   7  -2  791.75   26.31
  -1   7  -2  759.30   28.64
   1   7   2  798.58   25.07
  -1   7  -2  805.39   28.31
  -2  -7  -2   34.77    7.24
  -2  -7  -2   41.58    5.56
   2  -7   2   27.30    4.40
   2  -7   2   30.56    7.26
   2  -7   2   45.40    6.38
   2   7   2   29.43    7.03
   2   7   2   30.47    5.55
  -2   7  -2   42.75    7.09
  -2   7  -2   39.24    5.83
  -2   7  -2   40.08    6.73
   3  -7   2    4.73    3.02
  -3  -7  -2    2.58    2.82
  -3  -7  -2    0.13    4.68
   3  -7   2    0.89    3.58
   3   7   2    0.97    4.05
  -3   7  -2   -3.62    2.18
  -3   7  -2   -0.55    3.95
   3   7   2    3.90    4.10
  -3   7  -2   -2.55    3.78
  -4  -7  -2    2.30    3.88
   4  -7   2   10.33    4.80
  -4  -7  -2    3.77    6.68
   4  -7   2   -2.98    3.82
  -4   7  -2    3.89    3.78
   4   7   2    5.48    5.40
   4   7   2    6.75    5.65
  -4   7  -2   18.47    6.84
  -5  -7  -2  279.50   17.63
  -5  -7  -2  285.85   23.12
   5  -7   2  287.99   16.89
   5   7   2  232.12   19.90
  -5   7  -2  323.28   21.69
   5   7   2  281.07   19.61
  -5   7  -2  288.70   19.46
   6  -7   2   48.68    9.04
  -6  -7  -2   61.27   13.81
  -6   7  -2   76.13   13.73
   6   7   2   63.86   12.08
  -7  -7  -2   -2.55    7.89
   7  -7   2   20.56    7.50
   7   7   2    6.27    6.19
  -7   7  -2   11.78    8.28
   8  -7   2    2.78    5.91
  -8  -7  -2   -2.40    8.08
   8   7   2   -0.27    7.17
  -8   7  -2    5.54    8.93
  -9  -7  -2   92.68   21.62
   9  -7   2   75.31   13.26
  -9   7  -2  108.97   20.80
   9   7   2   98.47   17.62
  -9  -8   2   71.95   19.45
   9   8  -2   75.69   16.25
  -9   8   2   77.94   17.83
  -8  -8   2   13.06   11.67
   8  -8  -2   -1.33    5.25
   8   8  -2   19.14    9.07
  -8   8   2   10.02    8.92
   7  -8  -2    5.15    4.90
  -7  -8   2   -9.93    6.80
  -7   8   2   13.26    8.28
   7   8  -2    0.02    6.42
  -6  -8   2   24.89   11.60
   6  -8  -2   28.75    5.70
   6   8  -2   36.89    9.97
  -6   8   2   34.11   10.03
  -5  -8   2  224.14   22.18
  -5   8   2  201.15   16.49
   5   8  -2  212.04   17.63
   4  -8  -2    5.80    3.89
  -4  -8   2    2.54    4.59
  -4  -8   2   10.63    8.00
  -4   8   2    3.03    4.12
  -4   8   2    0.21    3.67
   4   8  -2    4.89    6.22
  -3  -8   2   -0.13    7.26
   3  -8  -2   -0.15    2.02
  -3  -8   2   -1.01    3.33
  -3   8   2   -0.25    2.43
  -3   8   2    1.26    2.91
   3   8  -2    6.80    6.17
   3   8  -2   -1.77    4.19
  -3   8   2   -6.30    3.91
   2  -8  -2  116.38   12.44
  -2  -8   2  116.39    8.96
  -2  -8   2  117.49    8.84
  -2  -8   2  105.81   14.20
   2   8  -2  110.56    9.62
  -2   8   2  113.99    7.00
   2   8  -2   89.56   12.37
  -2   8   2  108.30    6.03
   2   8  -2  111.64   10.31
  -1  -8   2  348.45   14.18
  -1  -8   2  322.91   14.32
   1  -8  -2  337.93   19.52
   1   8  -2  308.44   15.89
  -1   8   2  310.92   17.61
   1   8  -2  349.78   19.77
  -1   8   2  325.15   11.75
  -1   8   2  320.45   10.42
   0  -8   2   18.08    3.36
   0  -8   2   14.61    3.23
   0  -8   2   11.24    5.25
   0  -8  -2    9.06    4.51
   0   8  -2   10.36    5.78
   0   8  -2   12.66    4.55
   0   8   2   14.91    5.44
   0   8   2   12.01    2.71
   0   8   2   16.10    2.59
   0   8   2   14.19    3.67
   0   8   2   12.00    2.75
   0   8  -2   17.82    4.38
   1  -8   2    2.11    2.63
   1  -8   2    3.54    2.16
   1  -8   2    3.57    4.58
   1  -8   2    1.11    3.41
  -1  -8  -2    0.92    4.46
  -1  -8  -2    6.33    4.74
  -1   8  -2    2.42    3.09
  -1   8  -2    4.59    3.32
  -1   8  -2    4.11    4.01
   1   8   2    6.79    3.32
   1   8   2    4.85    2.73
  -2  -8  -2   86.53    6.13
   2  -8   2   81.53   11.24
  -2  -8  -2   96.64   10.49
   2  -8   2   80.00    6.15
  -2  -8  -2   86.33   10.96
   2  -8   2   81.27    7.58
  -2   8  -2   98.67    9.47
  -2   8  -2   89.76    7.64
   2   8   2   93.28    8.18
  -2   8  -2   92.15    9.26
   3  -8   2  249.31   16.94
   3  -8   2  258.53   12.53
  -3  -8  -2  267.01   13.54
  -3  -8  -2  268.21   18.53
  -3   8  -2  254.05   14.24
  -3   8  -2  251.56   15.86
   3   8   2  250.28   15.11
   3   8   2  253.00   16.63
  -3   8  -2  254.97   16.16
  -4  -8  -2   17.46    5.86
   4  -8   2    9.67    6.18
   4  -8   2   12.12    4.64
  -4  -8  -2    6.18    7.96
   4   8   2   17.61    6.20
  -4   8  -2   13.12    6.53
   4   8   2   14.18    7.08
  -4   8  -2   14.59    5.48
  -4   8  -2   12.13    6.40
  -5  -8  -2   18.65    6.56
   5  -8   2    3.14    4.83
  -5  -8  -2   22.05    9.63
  -5   8  -2   20.98    7.98
   5   8   2   13.62    7.82
   5   8   2    8.56    6.59
  -6  -8  -2   18.79    9.61
   6  -8   2   12.65    5.61
  -6   8  -2   20.47    8.56
   6   8   2    0.50    5.59
  -7  -8  -2   79.28   16.49
  -7   8  -2   86.09   15.73
   7   8   2  117.92   17.36
   8  -8   2   11.46    6.87
  -8  -8  -2   10.90   10.30
  -8   8  -2   11.22   10.18
   8   8   2   13.89    8.91
  -9  -8  -2   36.96   17.00
   9  -8   2   18.62    8.74
   9   8   2   18.65    9.96
  -9   8  -2   21.00   12.85
  -9  -9   2   -0.05   13.16
  -9   9   2   11.29   10.69
  -8  -9   2   20.17   11.54
   8   9  -2    2.64    7.93
  -8   9   2   -7.32    6.94
  -7  -9   2   38.83   13.84
  -7   9   2   34.93   10.43
   7   9  -2   37.48   11.69
  -6  -9   2   11.97    9.94
  -6   9   2    5.69    6.03
   6   9  -2   -3.12    5.91
  -5  -9   2   -8.30    7.37
  -5   9   2   15.38    6.16
   5   9  -2   -2.18    5.92
   4  -9  -2    4.79    3.71
  -4  -9   2   -9.94    6.41
  -4  -9   2   -6.73    4.06
  -4   9   2    1.50    4.49
   4   9  -2    8.38    7.66
   4   9  -2   10.62    6.44
  -4   9   2    5.44    3.78
  -3  -9   2  109.87   10.17
   3  -9  -2  106.29    5.97
  -3  -9   2  121.66   17.10
   3   9  -2  134.92   16.26
  -3   9   2  117.38    8.04
  -3   9   2  138.51    9.75
   3   9  -2  118.17   11.69
  -2  -9   2   24.94    5.38
  -2  -9   2   27.45    5.98
   2  -9  -2   26.74    8.00
  -2  -9   2   33.01    9.10
  -2   9   2   24.80    6.92
   2   9  -2   19.08    5.90
   2   9  -2   20.81    6.21
  -2   9   2   33.03    4.54
  -2   9   2   24.48    3.57
   2   9  -2   24.03    6.92
  -1  -9   2    2.23    2.59
   1  -9  -2    9.16    5.55
  -1  -9   2    6.48    5.47
  -1  -9   2    4.37    3.19
  -1   9   2    5.61    2.53
   1   9  -2    9.79    5.32
   1   9  -2    8.38    4.70
  -1   9   2    2.41    3.96
   0  -9   2   13.12    3.18
   0  -9  -2   13.37    6.26
   0  -9   2    6.83    2.72
   0  -9   2   15.29    6.02
   0   9   2    7.48    2.71
   0   9  -2   15.96    4.97
   0   9  -2   11.71    5.60
   0   9   2   16.76    4.15
   0   9  -2   11.90    4.32
   0   9   2   14.53    2.72
  -1  -9  -2   83.35   11.35
   1  -9   2   74.86    7.07
   1  -9   2   98.54   12.31
   1  -9   2   72.33    5.06
  -1   9  -2   81.74    7.52
   1   9   2   91.72    8.27
  -1   9  -2   75.73    9.29
   1   9   2   86.88    6.78
  -2  -9  -2   37.39    7.94
   2  -9   2   55.94   10.26
   2  -9   2   33.17    4.32
   2  -9   2   35.78    5.91
  -2  -9  -2   37.17    8.92
  -2  -9  -2   29.35    3.91
  -2  -9  -2   33.98    4.37
  -2   9  -2   48.83    7.95
   2   9   2   40.58    6.51
  -2   9  -2   40.82    6.54
  -3  -9  -2    4.23    5.30
   3  -9   2   -0.70    3.58
  -3  -9  -2    2.56    3.11
   3  -9   2    1.04    4.92
   3  -9   2    4.76    3.23
   3   9   2    0.85    4.85
  -3   9  -2   -0.35    4.33
  -3   9  -2   -3.33    3.92
   3   9   2   -1.25    4.34
   4  -9   2   -1.30    3.51
  -4  -9  -2    1.34    6.88
  -4  -9  -2    2.34    4.63
  -4   9  -2    2.56    5.62
  -4   9  -2   -5.32    5.13
   4   9   2   -0.92    5.17
   4   9   2   -3.90    5.59
  -4   9  -2   -0.05    5.27
  -5  -9  -2   73.67   15.07
  -5  -9  -2   87.32   10.95
   5  -9   2   79.35    9.27
   5   9   2   74.69   12.34
   5   9   2   47.59   11.13
   6  -9   2   20.35    6.21
  -6  -9  -2   18.06    9.93
   6   9   2   18.37    8.36
  -6   9  -2   14.85    8.46
  -7  -9  -2   -1.28    8.16
   7  -9   2   -8.26    4.27
  -7   9  -2    3.02    7.09
   7   9   2   -5.81    5.56
   8  -9   2    5.61    6.27
  -8  -9  -2    2.31   10.91
   8   9   2    5.81    8.40
  -8   9  -2   12.48   10.18
   9  -9   2   11.03    8.00
  -9  -9  -2   30.21   16.24
  -9   9  -2   15.56   15.32
  -8 -10   2    4.55   11.30
  -8  10   2    5.25    8.26
   8  10  -2   -1.84    7.84
  -7 -10   2    1.13    8.87
  -7  10   2   10.15    7.90
   7  10  -2    7.66    8.55
  -6 -10   2   25.91   11.90
  -6  10   2    0.72    6.51
   6  10  -2    2.75    6.93
  -5 -10   2  538.28   35.49
  -5  10   2  522.51   26.69
  -4 -10   2   20.19   10.98
   4 -10  -2   23.26    4.57
  -4 -10   2   25.95    7.29
   4  10  -2   15.30    8.73
   4  10  -2   30.69    8.75
  -4  10   2   19.27    6.29
  -3 -10   2   -6.47    3.70
  -3 -10   2   -4.62    3.85
  -3 -10   2   -1.90    6.76
   3  10  -2   -3.69    5.26
  -3  10   2    2.71    3.10
  -3  10   2    1.79    3.52
   3  10  -2    3.87    5.48
   3  10  -2   -5.11    4.69
   2 -10  -2   38.05   10.36
  -2 -10   2   30.13    5.73
  -2 -10   2   43.62    7.01
  -2  10   2   27.67    4.49
  -2  10   2   29.20    4.12
   2  10  -2   30.69    7.73
   2  10  -2   41.92    9.54
   2  10  -2   28.77    6.75
   1 -10  -2  535.54   27.68
  -1 -10   2  508.07   18.71
  -1 -10   2  462.34   24.71
  -1  10   2  483.28   23.38
   1  10  -2  520.08   26.86
  -1  10   2  477.92   16.29
  -1  10   2  484.86   17.47
  -1  10   2  472.40   24.50
   1  10  -2  504.99   22.60
   0 -10   2   54.60    4.80
   0 -10  -2   49.13    9.55
   0 -10   2   43.46    8.52
   0 -10   2   54.64    4.74
   0  10   2   51.22    5.52
   0  10   2   53.57    4.88
   0  10  -2   53.33    7.68
   0  10  -2   40.60    7.24
   0  10   2   51.05    6.71
  -1 -10  -2   -0.74    5.68
   1 -10   2   -1.05    1.26
   1 -10   2    3.65    3.45
   1 -10   2    5.15    6.09
   1 -10   2    2.83    1.91
   1  10   2    0.74    3.59
  -1  10  -2   -3.70    3.03
  -1  10  -2    8.36    5.11
   2 -10   2   57.96    4.61
  -2 -10  -2   93.47   11.69
   2 -10   2   83.78    7.90
  -2 -10  -2   72.72    4.62
  -2 -10  -2  111.38   13.82
   2 -10   2  100.24   13.94
  -2  10  -2   84.05   11.77
  -2  10  -2   96.23    8.64
   2  10   2  104.53   13.85
  -2  10  -2   98.94   10.29
   2  10   2  100.16    9.26
   3 -10   2  324.18   16.66
  -3 -10  -2  370.23   34.24
   3 -10   2  325.07   22.45
   3 -10   2  313.73   12.72
  -3  10  -2  343.44   19.32
  -3  10  -2  327.97   17.27
   3  10   2  336.15   20.42
  -3  10  -2  283.95   19.19
   3  10   2  326.66   18.57
  -4 -10  -2   46.09   11.94
   4 -10   2   48.66    6.22
  -4 -10  -2   57.91    8.92
  -4  10  -2   53.06   10.03
   4  10   2   62.79   10.78
   4  10   2   39.60    9.93
  -5 -10  -2   15.25    6.26
   5 -10   2   25.45    5.89
  -5 -10  -2    8.97    7.95
   5  10   2   -3.30    6.92
   5  10   2   22.89    7.95
  -5  10  -2   15.49    7.06
   6 -10   2   64.07    8.78
  -6 -10  -2   70.06   15.84
   6  10   2   60.24   12.06
  -6  10  -2   46.75   11.12
  -7 -10  -2  213.31   29.19
   7 -10   2  214.38   15.28
  -7  10  -2  229.30   22.58
   7  10   2  220.74   20.87
   8 -10   2   60.74   10.28
  -8 -10  -2   61.39   17.90
  -8  10  -2   68.42   15.55
   8  10   2   49.07   13.69
  -8 -11   2    1.07   11.22
  -8  11   2    3.72    9.47
   8  11  -2    6.03    8.38
  -7 -11   2   94.00   20.53
  -7  11   2   78.61   15.38
   7  11  -2   68.58   15.02
  -6 -11   2   12.41   10.74
   6  11  -2   28.10    9.77
  -6  11   2   12.61    7.14
  -5 -11   2    2.49    9.08
   5  11  -2    6.71    6.92
  -5  11   2    1.41    5.46
  -4 -11   2    5.17    5.33
  -4 -11   2    2.63    6.66
   4 -11  -2    6.04    2.66
  -4  11   2   -3.13    3.87
  -4  11   2    0.47    4.21
   4  11  -2    0.14    5.17
   4  11  -2   -6.50    6.27
  -3 -11   2  127.59   11.14
  -3 -11   2   96.60   16.69
  -3 -11   2  139.73   11.74
   3  11  -2  116.87   12.47
  -3  11   2  137.98    9.22
   3  11  -2  135.74   17.36
  -3  11   2  138.47   10.34
   3  11  -2  126.81   15.14
  -2 -11   2   70.54   11.99
  -2 -11   2   58.02    7.57
   2 -11  -2   57.93   11.75
  -2 -11   2   60.02    7.69
  -2  11   2   44.94    5.74
   2  11  -2   53.87    9.63
   2  11  -2   54.05    9.09
   2  11  -2   48.57   10.82
  -2  11   2   53.38    5.23
   1 -11  -2    7.61    6.96
  -1 -11   2   -0.86    5.45
  -1 -11   2    4.13    3.27
  -1 -11   2    4.19    3.18
  -1  11   2    3.28    3.82
  -1  11   2    3.67    2.55
  -1  11   2    4.16    3.26
   1  11  -2   11.17    6.58
   1  11  -2   -3.22    3.87
   0 -11  -2    0.78    5.81
   0 -11   2   -4.99    4.85
   0 -11   2    3.95    1.80
   0  11   2   -3.68    2.49
   0  11  -2   -0.87    4.21
   0  11  -2   -3.00    3.23
   0  11   2    0.25    3.52
   0  11  -2    8.10    5.39
   0  11   2   -3.02    2.24
   1 -11   2  120.79   15.05
  -1 -11  -2  100.97   13.81
  -1  11  -2  105.68   11.05
   1  11   2  121.09    9.53
  -1  11  -2  117.50   10.03
   1  11   2  106.75    8.52
   1  11   2  120.02   10.41
   2 -11   2   55.71    7.20
  -2 -11  -2   49.58   10.68
   2 -11   2   44.98   10.45
  -2 -11  -2   32.31    8.53
   2  11   2   49.93    8.94
   2  11   2   46.01    7.42
  -2  11  -2   56.45    9.33
   3 -11   2    1.68    1.75
  -3 -11  -2   -1.89    7.10
   3 -11   2  -13.56    4.62
  -3 -11  -2   -1.84    3.16
   3 -11   2    6.27    3.86
  -3 -11  -2    2.43    6.05
  -3 -11  -2   -2.13    3.69
  -3  11  -2   -1.66    4.14
   3  11   2    0.03    4.47
   3  11   2   -2.15    4.33
  -3  11  -2    6.94    5.52
  -4 -11  -2    6.85    4.85
  -4 -11  -2   -4.03    6.15
   4 -11   2    5.20    2.63
   4  11   2    1.36    6.69
   4  11   2   -3.23    4.85
  -4  11  -2    9.53    5.57
  -5 -11  -2  100.49   17.56
   5 -11   2   98.06    7.74
  -5 -11  -2   96.28   12.22
   5  11   2   96.66   15.27
  -5  11  -2  119.05   15.54
  -6 -11  -2   15.68    9.82
   6 -11   2   12.65    4.54
  -6  11  -2    2.06    6.84
   6  11   2   11.85    7.67
   7 -11   2   -3.70    4.15
  -7 -11  -2   -5.80    9.02
   7  11   2   -6.04    6.73
  -7  11  -2    2.88    7.93
   8 -11   2  -16.13    5.08
  -8 -11  -2  -16.01    8.98
   8  11   2   20.10    9.14
  -8  11  -2    3.57    9.34
  -8 -12   2    5.34   11.65
   8  12  -2   -4.84    7.19
  -8  12   2   45.16   13.91
  -7 -12   2    1.00   10.75
   7  12  -2   -0.80    6.61
  -7  12   2   -5.40    7.22
  -6 -12   2   27.32   12.42
  -6  12   2   14.31    6.98
   6  12  -2   16.63    9.11
   5 -12  -2   62.27    6.61
  -5 -12   2  108.85   20.19
  -5  12   2   83.17   14.10
   5  12  -2   80.41   13.26
  -4 -12   2    5.91    5.65
  -4 -12   2    8.83    8.29
   4  12  -2    3.36    5.68
   4  12  -2    7.69    6.82
  -4  12   2    6.95    5.04
   4  12  -2   -4.35    6.76
  -4  12   2    7.49    4.10
  -3 -12   2   15.33    5.83
  -3 -12   2   13.18    8.43
  -3 -12   2    4.59    4.60
  -3  12   2   14.63    4.37
   3  12  -2   10.32    6.98
   3  12  -2    0.89    5.63
  -3  12   2   10.70    4.19
   3  12  -2   21.39    8.93
  -2 -12   2   48.77    7.05
  -2 -12   2   44.30    6.72
   2 -12  -2   47.72   12.10
  -2 -12   2   47.63   10.51
  -2  12   2   53.54    5.57
  -2  12   2   40.99    5.79
   2  12  -2   52.88   11.53
   2  12  -2   55.32   10.26
  -1 -12   2  100.03    6.94
  -1 -12   2   87.67   13.51
   1 -12  -2   99.91   15.31
  -1 -12   2  104.99    6.90
   1  12  -2   96.10   11.93
  -1  12   2   90.36   12.10
   1  12  -2   91.08   14.00
  -1  12   2  115.09    7.62
  -1  12   2   84.11    7.71
   0 -12   2    5.18    6.67
   0 -12  -2    2.74    7.27
   0  12   2    9.46    4.35
   0  12  -2   12.59    6.55
   0  12   2    6.36    3.32
   0  12   2    4.14    3.76
   0  12  -2   15.62    5.87
   1 -12   2    1.03    6.51
  -1 -12  -2    0.16    5.15
   1  12   2    1.73    4.10
   1  12   2    5.04    4.31
  -1  12  -2   -0.47    4.97
  -1  12  -2    3.62    5.01
   1  12   2    6.11    4.29
   2 -12   2   63.33    7.57
   2 -12   2   66.41   12.80
  -2 -12  -2   39.02   10.98
  -2  12  -2   72.97   10.50
   2  12   2   73.02   10.66
   2  12   2   65.12    9.08
  -2  12  -2   68.34    9.03
  -3 -12  -2   68.09    6.36
  -3 -12  -2   67.73   15.47
  -3 -12  -2   74.04   12.83
  -3 -12  -2   67.33    6.03
   3 -12   2   74.00   14.07
   3  12   2   68.48   10.31
  -3  12  -2   60.48   10.26
   3  12   2   67.63   11.45
  -4 -12  -2    5.10    3.70
  -4 -12  -2   -6.40    6.85
  -4 -12  -2   -1.12    5.71
   4  12   2    3.93    5.97
   4  12   2   -0.54    6.10
  -4  12  -2    9.75    8.17
  -5 -12  -2    4.11    7.78
  -5  12  -2    3.86    6.00
   5  12   2   14.68    8.14
   6 -12   2   33.38    4.75
  -6 -12  -2   37.02   12.39
  -6  12  -2   24.02    9.25
   6  12   2   30.50   10.40
   7 -12   2   17.22    5.21
   7  12   2   31.49   10.73
  -7  12  -2   35.22   10.72
  -8 -12  -2    4.34   14.01
   8 -12   2   -5.72    4.46
   8  12   2  -16.29    5.97
  -8  12  -2   -9.04    8.81
  -7 -13   2  126.20   25.09
   7  13  -2  180.91   23.22
  -7  13   2  194.40   19.90
  -6 -13   2   -1.80   10.18
  -6  13   2    4.54    6.14
   6  13  -2    9.73    8.49
  -5 -13   2   17.91    7.10
  -5 -13   2    8.45    9.60
   5  13  -2    9.52    7.25
   5  13  -2   10.97    7.71
  -5  13   2    7.58    6.11
  -4 -13   2   -6.22    7.22
  -4 -13   2   -0.32    4.25
  -4 -13   2   -1.67    5.81
  -4  13   2    3.68    4.82
  -4  13   2    6.52    5.05
   4  13  -2    9.74    6.97
   4  13  -2    7.21    5.91
  -3 -13   2  296.38   16.20
  -3 -13   2  276.17   22.11
   3 -13  -2  292.80   24.59
  -3 -13   2  259.82   15.23
  -3  13   2  279.76   14.70
   3  13  -2  297.81   19.32
   3  13  -2  263.50   22.25
   3  13  -2  300.48   20.84
  -3  13   2  276.56   14.35
  -2 -13   2   13.92    4.95
   2 -13  -2   23.80   10.07
  -2 -13   2   17.19    4.32
  -2 -13   2   15.10    7.79
   2  13  -2   14.53    6.91
  -2  13   2   13.36    3.79
   2  13  -2    7.98    6.32
  -2  13   2   15.95    4.03
  -1 -13   2    1.51    7.75
   1  13  -2    6.37    6.83
  -1  13   2    8.93    3.54
  -1  13   2    6.45    5.85
   1  13  -2    3.26    5.02
  -1  13   2    7.19    3.56
   0 -13   2    8.20    8.40
   0 -13  -2    0.87    6.42
   0  13   2    1.42    3.66
   0  13  -2    1.96    4.99
   0  13   2    5.13    3.88
   0  13  -2    0.16    6.07
   1 -13   2  273.82   21.91
  -1  13  -2  255.79   15.98
   1  13   2  276.37   15.03
   1  13   2  257.20   14.93
  -1  13  -2  273.48   23.87
  -1  13  -2  245.16   16.89
   1  13   2  285.16   16.79
  -2 -13  -2   16.44    8.45
   2 -13   2   28.82    9.70
   2  13   2    6.49    6.04
  -2  13  -2   17.64    5.49
   2  13   2   21.78    6.17
  -2  13  -2   21.45    7.02
  -3 -13  -2    6.34    6.05
   3 -13   2    8.38    7.57
  -3 -13  -2    4.89    6.69
  -3  13  -2    9.39    5.84
   3  13   2    3.09    6.68
   3  13   2   -3.89    3.90
  -4 -13  -2    6.65    7.53
  -4 -13  -2   -0.29    3.61
  -4 -13  -2   -0.40    7.60
  -4 -13  -2   -7.52    3.01
  -4  13  -2    5.78    5.75
   4  13   2   12.47    6.74
   4  13   2   -3.27    6.99
  -5 -13  -2  179.80   14.74
  -5 -13  -2  221.31   23.69
   5  13   2  193.07   17.52
  -5  13  -2  193.59   17.89
  -6 -13  -2    8.75   10.48
   6  13   2   12.38    8.60
  -6  13  -2   32.51    9.95
  -7  13  -2    2.91    7.46
   7  13   2    1.91    7.85
  -7 -14   2   11.02   11.47
  -7  14   2   -1.64    8.60
   7  14  -2    3.81    8.94
  -6 -14   2   27.42   11.91
  -6  14   2   15.96    8.25
   6  14  -2   15.57    9.98
   6  14  -2   24.82   10.29
  -5 -14   2   20.69   11.85
  -5 -14   2   35.20    8.77
   5  14  -2   41.87   11.03
  -5  14   2   28.86    7.69
   5  14  -2   40.82   10.80
  -4 -14   2   50.11    9.04
  -4 -14   2   56.07   14.46
  -4 -14   2   39.33    8.49
   4  14  -2   48.18   11.22
  -4  14   2   57.59    8.83
   4  14  -2   40.85   13.52
   4  14  -2   42.78   10.27
  -3 -14   2    0.71    4.39
  -3 -14   2    4.95    6.69
  -3 -14   2   14.10    4.71
   3 -14  -2   10.56    8.39
  -3  14   2    9.30    3.85
   3  14  -2   17.44    7.03
  -3  14   2    1.41    4.52
   3  14  -2    9.76    8.70
  -2 -14   2   28.38    4.40
  -2 -14   2   22.80    9.67
  -2 -14   2   20.34    3.99
   2 -14  -2   19.97   10.60
  -2  14   2   35.30    5.27
   2  14  -2   13.99    8.03
  -2  14   2   31.42    5.12
   2  14  -2   39.68    9.17
  -2  14   2   23.81    8.81
  -1 -14   2   48.61   11.13
   1 -14  -2   30.44   10.57
   1  14  -2   44.68    8.97
   1  14  -2   41.18   10.24
  -1  14   2   48.53    6.53
  -1  14   2   35.12    5.74
   0 -14   2   65.00   13.12
   0 -14  -2   82.12   13.95
   0  14  -2   58.90    9.62
   0  14   2   67.72    8.12
   0  14  -2   75.42   13.11
   0  14   2   77.10    9.43
  -1 -14  -2   28.11   10.02
   1 -14   2   20.61    9.21
   1  14   2   33.99    7.31
   1  14   2   24.49    5.93
  -1  14  -2   12.64    7.12
  -1  14  -2   29.70    7.67
   1  14   2   10.93    5.08
  -2 -14  -2   36.25   11.06
   2 -14   2   38.88   11.53
  -2  14  -2   34.48    8.10
   2  14   2   37.97    9.30
   2  14   2   31.42    7.53
   2  14   2   38.64    8.02
   3 -14   2   70.82   15.11
  -3 -14  -2   58.65   12.76
  -3  14  -2   75.24   11.71
   3  14   2   63.55   10.42
   3  14   2   57.03   11.47
  -4 -14  -2   44.56    6.11
  -4 -14  -2   46.25   11.98
  -4 -14  -2   41.24   11.74
   4  14   2   73.56   13.21
   4  14   2   91.25   12.78
  -4  14  -2   70.63   11.62
  -5 -14  -2   20.43    5.58
  -5 -14  -2   19.19    7.05
  -5 -14  -2   23.53   11.01
  -5 -14  -2   12.62   10.57
   5  14   2   13.59    7.49
  -5  14  -2   20.92    8.66
  -6 -14  -2   17.71   12.47
  -6 -14  -2  -10.97   10.52
  -6 -14  -2   26.99   11.68
   6  14   2   30.11   10.60
  -6  14  -2   34.68   11.61
  -7 -14  -2    5.99   14.08
  -7  14  -2   21.56   11.07
   7  14   2   33.45   12.30
  -7 -15   2   28.19    9.66
  -7 -15   2   28.44   15.46
   7  15  -2    7.69    9.44
  -7  15   2   22.47    9.59
   7  15  -2   22.67   11.31
  -6 -15   2   30.23    9.69
  -6 -15   2   34.76   14.49
   6  15  -2   29.54   11.82
  -6  15   2   23.29    8.69
   6  15  -2   18.65    9.66
  -5 -15   2    0.39    5.55
  -5 -15   2   -1.35    8.19
  -5 -15   2   11.19   10.62
   5  15  -2   -8.47    5.51
  -5  15   2    0.82    5.62
   5  15  -2   -0.05    7.35
  -4 -15   2   81.25   10.48
  -4 -15   2   58.33   14.55
  -4 -15   2   66.75    9.60
   4  15  -2   95.44   14.52
  -4  15   2   69.44    9.91
   4  15  -2   81.72   13.82
   3 -15  -2   92.53   17.58
  -3 -15   2   79.27    7.68
  -3 -15   2   58.68    7.19
  -3 -15   2   95.18   16.20
   3  15  -2   59.01   16.32
  -3  15   2   57.58    7.42
   3  15  -2   69.43   12.90
  -3  15   2   49.49    7.63
  -2 -15   2   34.12   10.93
   2 -15  -2   44.01   12.43
  -2 -15   2   21.13    3.81
  -2  15   2   39.37    9.22
  -2  15   2   32.50    7.24
  -2  15   2   31.87    5.27
   2  15  -2   29.58    8.18
   2  15  -2   32.89   11.07
  -1 -15   2   15.02    8.91
   1 -15  -2   21.24    9.67
  -1  15   2   12.56    4.21
   1  15  -2    8.79    7.13
   1  15  -2   21.99    6.54
   0 -15  -2   87.03   15.76
   0 -15   2   93.15   15.66
   0  15   2   87.21    8.76
   0  15   2   74.17    9.56
   0  15  -2   89.13   14.86
   1 -15   2   43.69   11.93
  -1 -15  -2   57.17   13.78
  -1  15  -2   67.34   12.66
   1  15   2   68.45    9.05
   1  15   2   60.04    9.83
  -1  15  -2   57.66   10.51
   2 -15   2   55.79   13.81
  -2 -15  -2   31.82   10.99
   2  15   2   35.47    9.02
  -2  15  -2   52.10   10.06
  -2  15  -2   34.25   10.46
   2  15   2   60.91   10.09
   2  15   2   42.18    8.40
   3 -15   2  -10.61    6.48
  -3 -15  -2    4.09    7.05
   3  15   2  -13.09    4.99
   3  15   2    2.49    5.73
  -3  15  -2    6.38    5.41
   3  15   2   -3.33    4.62
  -4 -15  -2   67.17   13.50
  -4 -15  -2   73.78   15.33
  -4  15  -2  100.31   13.72
   4  15   2   69.21   15.47
  -5 -15  -2   -2.38    8.21
  -5 -15  -2   18.17    5.33
  -5 -15  -2    9.91    5.60
  -5 -15  -2   34.62   13.00
   5  15   2    3.77    6.54
  -5  15  -2   16.14    7.96
  -6 -15  -2   11.57    9.77
  -6 -15  -2   12.72   10.84
  -6 -15  -2    2.75    6.10
   6  15   2    7.02    8.61
  -6  15  -2    1.03    6.97
  -6 -16   2   -2.36    6.07
  -6 -16   2    3.04   11.61
   6  16  -2   -1.95    8.47
  -6  16   2  -10.32    5.18
   6  16  -2    3.39    8.21
  -5 -16   2   35.94   13.02
   5  16  -2   35.05   10.60
   5  16  -2   67.23   14.71
  -5  16   2   51.79    9.70
  -4 -16   2   -0.25    5.53
  -4 -16   2   23.69    6.01
  -4 -16   2    1.79    8.13
  -4  16   2   15.32    5.52
   4  16  -2   19.45    8.68
   3 -16  -2   -0.06    7.50
  -3 -16   2  -13.72    5.46
  -3 -16   2   -4.26    2.51
  -3 -16   2    4.01    3.05
   3  16  -2    1.86    5.62
   3  16  -2  -20.98    7.61
  -3  16   2    6.31    5.50
  -3  16   2    1.42    3.77
  -2 -16   2   -3.19    7.22
   2 -16  -2   14.03    8.85
   2  16  -2   -5.19    6.85
  -2  16   2  -10.35    3.67
  -2  16   2   -0.40    4.50
  -2  16   2    2.75    3.32
   2  16  -2    1.73    6.03
  -1 -16   2  101.06   17.49
   1 -16  -2   88.17   16.93
   1  16  -2   87.96   15.08
  -1  16   2  112.50    8.92
   1  16  -2   98.37   12.96
  -1  16   2   70.92    9.63
   0 -16  -2    2.37    8.42
   0 -16   2   19.40    8.78
   0  16   2   19.20    4.98
   0  16   2    6.25    5.30
   0  16  -2   14.00    6.33
   0  16  -2   21.47    8.83
   1 -16   2    0.23    7.69
  -1 -16  -2    5.09    7.97
   1  16   2   -3.12    3.43
  -1  16  -2   -2.77    4.55
  -1  16  -2  -12.10    6.43
   2 -16   2   -1.58    7.79
  -2 -16  -2   -3.00    6.59
  -2  16  -2    1.43    5.06
   2  16   2   -0.13    4.53
  -2  16  -2    2.12    6.73
   2  16   2    0.52    4.93
   2  16   2   -3.60    5.35
   3 -16   2   60.79   14.60
  -3 -16  -2   77.21   15.50
   3  16   2   48.90   11.71
   3  16   2   60.43   10.89
   3  16   2   53.43   10.62
  -3  16  -2   70.28   10.92
  -4 -16  -2    4.00    9.17
   4  16   2   13.23    6.75
  -4  16  -2   12.96    6.59
   4  16   2   18.53    8.41
  -5 -16  -2   -1.34    8.35
  -5 -16  -2  -10.97   10.79
  -5 -16  -2    3.41    3.58
   5  16   2   -3.98    6.49
  -5  16  -2   -9.47    5.94
  -6 -16  -2   40.06   15.14
  -6 -16  -2   -4.51   10.92
  -6 -16  -2   15.08    8.12
  -6  16  -2    7.70    8.66
   6  16   2   -9.16    7.23
  -5 -17   2   14.05   11.39
  -5 -17   2   12.36    8.48
  -5  17   2   18.43    7.08
   5  17  -2    4.13    7.66
  -4 -17   2   44.94    5.88
  -4 -17   2   39.52    7.21
  -4 -17   2   53.11   15.68
   4  17  -2   61.11   12.74
  -4  17   2   46.27    8.40
  -3 -17   2   -7.42    6.93
   3 -17  -2   -9.86    5.09
  -3  17   2   -0.29    4.95
   3  17  -2    1.22    5.37
  -3  17   2    4.68    3.73
   2 -17  -2  148.10   22.90
  -2 -17   2  165.88   22.07
  -2  17   2  144.87   10.17
  -2  17   2  150.60   12.64
   2  17  -2  152.03   15.92
   2  17  -2  129.93   19.61
   1 -17  -2   11.47    9.85
  -1 -17   2   12.76    9.59
   1  17  -2    6.27    8.68
   1  17  -2   23.93    7.30
  -1  17   2   17.66    4.75
  -1  17   2   23.15    6.12
   0 -17  -2   96.36   18.34
   0 -17   2   77.04   15.94
   0  17   2   66.73    9.28
   0  17  -2   74.27   13.78
   0  17  -2   81.21   12.17
   0  17   2   91.29    9.08
   1 -17   2    1.23    7.74
  -1 -17  -2   18.19   10.35
   1  17   2    3.81    5.26
  -1  17  -2    9.39    8.13
   1  17   2   15.05    6.00
  -1  17  -2   10.34    5.81
  -2 -17  -2   84.53   15.78
   2 -17   2   72.55   16.92
   2  17   2   73.77   11.02
  -2  17  -2   70.36   13.01
   2  17   2   68.35   11.72
   2  17   2   87.11   12.12
  -2  17  -2   92.03   12.48
   3 -17   2   21.39   10.89
  -3 -17  -2    3.01    8.74
   3  17   2  -17.72    7.37
   3  17   2    5.23    5.90
  -3  17  -2    5.74    5.82
   3  17   2    3.74    5.81
  -4 -17  -2   74.10   16.93
   4  17   2   36.58   15.54
  -4  17  -2   67.44   11.82
   4  17   2   93.13   14.66
   4  17   2   79.83   13.99
  -5 -17  -2   14.49   10.51
  -5  17  -2    1.63    6.94
   5  17   2   -6.73    7.40
   5  17   2  -10.69    5.00
  -5 -18   2    6.13    4.46
  -5 -18   2   -8.18   10.78
   5  18  -2   10.90    8.45
  -5  18   2  -13.52    4.82
  -4 -18   2   44.89   14.60
  -4  18   2   51.80    8.06
   4  18  -2   52.86   13.02
  -4  18   2   41.28    9.45
   3 -18  -2    3.66   10.37
  -3 -18   2   -2.64    8.39
  -3  18   2   -6.53    5.22
   3  18  -2    1.77    6.64
  -2 -18   2   81.28   17.15
   2 -18  -2   70.45   16.62
   2  18  -2   55.06   14.81
   2  18  -2   95.39   15.00
  -2  18   2   85.75    8.15
  -2  18   2   63.28    9.04
  -1 -18   2    3.16    7.98
   1 -18  -2   -5.04    6.59
   1  18  -2   13.57    8.15
  -1  18   2    5.47    3.87
   1  18  -2    6.34    6.31
  -1  18   2    2.21    5.09
   0 -18  -2   30.77   10.71
   0 -18   2   46.71   13.54
   0  18  -2   48.17    9.62
   0  18  -2   62.43   12.86
   0  18   2   46.36    9.17
   0  18   2   52.17    7.71
   1 -18   2   16.97   10.06
  -1 -18  -2   20.17   11.29
   1  18   2   30.47    8.18
   1  18   2   17.56    6.10
  -1  18  -2   16.95    6.94
  -1  18  -2    8.03    8.97
   2 -18   2   55.54   15.60
  -2 -18  -2   25.10   11.14
   2  18   2   65.06   10.65
  -2  18  -2   51.83    9.90
   2  18   2   24.44    9.40
  -2  18  -2   16.06    9.84
  -3 -18  -2    2.68   10.28
   3 -18   2    3.35    8.78
   3  18   2   10.25    6.60
  -3  18  -2    8.28    8.10
   3  18   2  -16.96    8.56
  -3  18  -2   -0.47    5.13
  -4 -18  -2   12.76   11.15
   4  18   2    5.96    7.75
  -4  18  -2    4.13    6.43
   4  18   2   26.18    9.87
  -4 -19   2   -0.81    9.75
  -4  19   2    5.30    4.68
   4  19  -2   11.12    8.60
  -4  19   2   -5.81    8.75
   3 -19  -2   -1.96   11.32
  -3 -19   2   11.98   12.00
   3  19  -2   -5.71    5.91
  -3  19   2    2.97    4.01
  -2 -19   2    4.06    8.62
   2 -19  -2   -5.35    8.72
   2  19  -2    6.71    6.05
   1 -19  -2    4.31    9.78
  -1 -19   2  -18.77    6.83
  -1  19   2   -3.08    4.98
  -1  19   2   -3.36    3.44
   1  19  -2   10.51    6.65
   0 -19  -2  -10.47    5.08
   0 -19   2    5.86    7.83
   0  19  -2   10.98    6.32
   0  19  -2    3.59    9.16
   0  19   2   12.34    5.32
   1 -19   2   12.35    8.38
  -1 -19  -2   -6.59    7.27
  -1  19  -2   -6.71    7.65
  -1  19  -2    3.81    5.68
   1  19   2   -3.20    4.70
   1  19   2  -13.68    5.90
  -2 -19  -2    4.61   10.42
   2 -19   2   15.46   10.29
   2  19   2    0.50    9.35
   2  19   2    9.81    6.04
  -2  19  -2    9.15    5.97
  -3 -19  -2   24.15   11.86
   3 -19   2   -1.48    7.77
  -3  19  -2   -0.27    5.91
   3  19   2   11.84    7.00
  -2  20   2   72.24    8.42
   2  20  -2   54.31   11.93
  -2  20   2   82.91    8.46
  -1 -20   2   -9.86    9.83
   1 -20  -2   12.76   10.47
  -1  20   2    8.01    4.01
   1  20  -2   -0.64    5.68
   0 -20  -2   53.50   16.94
   0 -20   2   66.01   16.40
   0  20  -2   56.25   11.05
   0  20   2   47.81    9.62
   0  20   2   57.56    8.41
  -1 -20  -2   12.53   10.87
   1 -20   2   35.29   14.77
  -1  20  -2   25.15    8.94
   1  20   2   51.61    8.45
   1  20   2   17.92    8.74
   2 -20   2   78.53   19.24
   2  20   2   91.92   12.18
  -2  20  -2   83.20   11.92
  10   0  -3    2.41    8.21
   9   0  -3   -6.99    5.68
  -9   0   3   -2.63    7.31
   8   0  -3   -2.36    5.55
  -8   0   3   -6.62    7.24
   7   0  -3   -0.16    5.81
  -7   0   3    6.12    8.51
   6   0  -3    9.57    6.31
  -6   0   3    4.08    7.85
  -5   0   3    2.46    4.09
   5   0  -3   -0.99    4.86
   5   0  -3   -0.83    4.48
  -5   0   3   12.56    7.27
   4   0  -3    2.55    3.56
   4   0  -3    1.87    4.09
  -4   0   3   -4.22    4.07
  -4   0   3    0.56    3.11
   3   0  -3   -2.71    2.55
  -3   0   3    0.06    2.67
  -3   0   3   -1.24    3.53
   3   0  -3    3.11    3.03
  -2   0   3    2.34    2.58
  -2   0   3    2.03    4.21
   2   0  -3    0.61    2.87
   2   0  -3    2.75    3.61
   1   0  -3    1.29    2.48
  -1   0   3    0.76    3.57
   1   0  -3   -1.90    3.07
  -1   0   3    1.84    2.31
   0   0   3    0.26    1.60
   0   0  -3   -0.50    1.66
   0   0   3   -0.13    1.81
   0   0  -3    0.67    2.04
   1   0   3   -0.26    2.85
   1   0   3    1.13    2.77
  -1   0  -3   -1.75    3.37
  -1   0  -3    3.37    2.83
   2   0   3    3.22    3.42
  -2   0  -3   -0.86    2.33
  -2   0  -3   -1.17    3.10
   2   0   3   -3.70    2.57
   3   0   3   -0.16    3.02
  -3   0  -3   -1.58    2.83
  -3   0  -3   -4.38    3.51
   3   0   3    3.87    3.74
   4   0   3    1.32    4.19
  -4   0  -3    4.43    5.42
   4   0   3   -5.25    3.14
  -4   0  -3    1.19    3.26
   5   0   3    3.90    5.60
   5   0   3   -2.88    4.61
  -5   0  -3   -2.69    5.48
  -6   0  -3    0.71    7.71
   6   0   3   11.63    6.77
  -7   0  -3    2.72    7.59
   7   0   3    8.29    6.79
  -8   0  -3    0.22    7.81
   8   0   3   -4.93    5.29
   9   0   3   -1.25    6.64
  -9   0  -3   -1.98    9.24
 -10  -1   3  171.83   33.28
  10  -1  -3  123.79   19.37
  10   1  -3  146.17   21.28
  -9  -1   3   10.46   10.39
   9  -1  -3    2.97    6.44
   9   1  -3   -3.93    6.34
  -9   1   3    2.62    9.39
  -8  -1   3  108.03   20.18
   8  -1  -3   91.70   14.31
  -8   1   3  101.21   19.25
   8   1  -3  113.09   16.72
  -7  -1   3   49.53   13.28
   7  -1  -3   34.28    9.39
  -7   1   3   35.36   11.25
   7   1  -3   44.95   10.40
  -6  -1   3  268.84   23.15
   6  -1  -3  250.48   17.67
  -6   1   3  300.38   23.36
   6   1  -3  276.68   19.09
   5  -1  -3   -4.07    4.31
  -5  -1   3   -1.77    5.18
  -5  -1   3    6.90    4.28
   5  -1  -3   -7.07    3.74
   5   1  -3    1.87    4.80
   5   1  -3   -0.31    4.91
  -5   1   3    1.17    5.99
  -5   1   3   -6.85    3.16
   4  -1  -3   76.60    9.86
   4  -1  -3   77.57    8.20
  -4  -1   3   74.55    7.95
  -4  -1   3   67.15   10.68
  -4   1   3   74.52   10.90
   4   1  -3   72.58   10.78
   4   1  -3   77.28    9.57
  -4   1   3   77.04    9.11
  -3  -1   3  259.19   13.32
  -3  -1   3  256.63   16.24
   3  -1  -3  273.28   14.47
   3  -1  -3  268.81   12.86
  -3   1   3  262.80   12.80
   3   1  -3  273.39   13.89
   3   1  -3  295.99   16.05
  -3   1   3  255.80   15.15
  -2  -1   3  573.68   23.65
  -2  -1   3  566.03   20.05
   2  -1  -3  551.05   20.56
  -2   1   3  541.67   18.86
  -2   1   3  561.90   21.66
   2   1  -3  548.76   22.45
   2   1  -3  558.22   20.04
  -1  -1   3   37.96    6.65
   1  -1  -3   33.63    3.89
   1  -1  -3   49.37    5.48
  -1  -1   3   43.39    5.29
  -1   1   3   42.47    4.30
   1   1  -3   32.68    5.98
   1   1  -3   36.74    4.96
  -1   1   3   45.01    5.91
   0  -1  -3    8.78    1.95
   0  -1  -3   10.09    2.29
   0  -1   3    5.41    2.68
   0  -1   3   11.49    3.20
   0   1  -3   12.82    3.52
   0   1  -3   13.57    3.27
   0   1   3   11.64    2.43
   0   1   3   10.34    2.47
   0   1   3    9.39    2.33
  -1  -1  -3  132.06    7.36
   1  -1   3  133.24    9.49
   1  -1   3  137.72    8.13
  -1  -1  -3  119.46    7.85
   1   1   3  126.45    7.48
   1   1   3  131.23    7.93
  -1   1  -3  123.39    8.43
   2  -1   3  465.36   18.14
   2  -1   3  469.76   18.95
  -2  -1  -3  450.48   17.68
  -2   1  -3  477.15   19.48
  -2   1  -3  483.27   18.25
   2   1   3  462.28   18.12
   2   1   3  456.61   18.74
   3  -1   3   14.71    4.61
  -3  -1  -3   17.67    5.74
  -3  -1  -3   16.72    4.56
   3  -1   3   14.29    4.86
  -3   1  -3   17.54    5.71
  -3   1  -3   17.35    4.45
   3   1   3    9.70    4.51
   3   1   3   19.01    5.16
  -4  -1  -3   12.07    6.58
   4  -1   3    4.51    4.07
   4  -1   3    6.22    4.07
  -4  -1  -3    2.05    3.09
   4   1   3    7.03    4.91
  -4   1  -3   15.30    5.97
  -4   1  -3    8.75    4.95
   4   1   3    4.90    4.54
  -5  -1  -3   62.93   12.30
   5  -1   3   72.97   10.78
  -5  -1  -3   69.25   11.01
  -5   1  -3   63.89   11.56
   5   1   3   78.38   11.60
   5   1   3   67.56   10.54
   6  -1   3  178.14   15.99
  -6  -1  -3  154.18   20.13
  -6   1  -3  169.85   18.67
   6   1   3  141.84   14.75
  -7  -1  -3   48.53   13.23
   7  -1   3   48.25   10.77
   7   1   3   56.82   11.65
  -7   1  -3   78.29   15.20
   8  -1   3    4.67    6.57
  -8  -1  -3   13.03    9.54
   8   1   3  -11.26    4.99
  -9  -1  -3   41.35   14.81
   9  -1   3   36.24   11.60
   9   1   3   42.63   12.35
  -9   1  -3   70.74   17.39
 -10  -2   3   72.13   23.49
  10  -2  -3   67.22   14.31
  10   2  -3   66.13   15.51
 -10   2   3   60.75   26.61
  -9  -2   3   25.68   11.68
   9  -2  -3    5.53    7.41
   9   2  -3    4.05    7.22
  -9   2   3    5.15    8.52
   8  -2  -3   97.49   14.59
  -8  -2   3   77.23   17.19
  -8   2   3  104.21   19.76
   8   2  -3  109.09   16.80
  -7  -2   3   32.24   11.07
   7   2  -3   27.34    9.01
  -7   2   3   30.39   11.05
  -6  -2   3  132.76   19.36
   6  -2  -3  132.70   12.92
   6   2  -3  141.48   14.49
  -6   2   3  113.38   17.02
  -5  -2   3   24.57    9.02
   5  -2  -3   24.62    7.00
  -5  -2   3   21.39    6.42
   5  -2  -3   21.42    6.26
  -5   2   3   16.57    5.46
  -5   2   3   24.10    8.11
   5   2  -3   15.50    7.25
   5   2  -3   19.48    6.77
   4  -2  -3  207.54   13.51
  -4  -2   3  180.05   16.05
   4  -2  -3  192.38   11.83
  -4  -2   3  214.43   13.34
  -4   2   3  205.31   14.95
  -4   2   3  195.68   12.14
   4   2  -3  197.87   15.02
   4   2  -3  199.01   13.49
  -3  -2   3   85.63    7.74
   3  -2  -3   78.09    7.47
  -3  -2   3  106.77   11.20
   3  -2  -3   87.52    7.02
   3   2  -3   82.57    8.12
   3   2  -3  105.82   10.10
  -3   2   3   99.42    7.45
  -3   2   3   76.18    8.50
   2  -2  -3  119.33    7.49
  -2  -2   3  106.95    7.45
  -2  -2   3  108.94   10.62
   2   2  -3  106.77    7.93
  -2   2   3  103.82    6.28
   2   2  -3  124.86    9.85
  -2   2   3  103.70    7.90
  -1  -2   3  316.65   16.90
   1  -2  -3  342.71   12.01
   1  -2  -3  335.55   11.73
  -1  -2   3  325.49   15.36
  -1   2   3  337.30   12.89
  -1   2   3  335.58   11.48
   1   2  -3  346.14   14.20
   0  -2  -3  516.00   17.40
   0  -2   3  513.50   18.16
   0  -2  -3  512.67   16.33
   0  -2   3  516.26   18.10
   0   2   3  510.50   17.20
   0   2   3  516.49   15.78
   0   2   3  524.87   15.79
   0   2  -3  520.11   18.50
   0   2  -3  514.25   18.05
   1  -2   3   64.13    6.19
  -1  -2  -3   61.67    5.12
  -1  -2  -3   57.97    5.99
   1  -2   3   70.04    6.43
   1  -2   3   56.14    4.17
  -1  -2  -3   65.30    4.97
   1   2   3   62.05    5.34
   1   2   3   70.02    6.00
  -1   2  -3   57.76    3.91
  -1   2  -3   61.59    6.85
  -1   2  -3   52.57    5.53
   2  -2   3   59.04    6.87
  -2  -2  -3   44.59    6.53
   2  -2   3   59.29    7.00
  -2  -2  -3   45.83    5.81
  -2   2  -3   60.76    7.61
   2   2   3   43.77    6.31
   2   2   3   51.03    6.33
  -2   2  -3   47.71    4.67
  -2   2  -3   54.93    6.50
  -3  -2  -3   56.03    7.21
   3  -2   3   58.23    7.62
   3  -2   3   69.44    8.75
  -3  -2  -3   47.82    8.12
   3   2   3   59.60    8.70
  -3   2  -3   76.04    9.98
  -3   2  -3   59.95    7.74
   3   2   3   55.10    7.90
   4  -2   3  327.85   17.46
   4  -2   3  345.00   21.78
  -4  -2  -3  318.43   16.96
  -4  -2  -3  330.92   20.21
   4   2   3  334.28   19.01
   4   2   3  310.92   17.83
  -4   2  -3  327.82   19.68
  -5  -2  -3   98.39   11.93
   5  -2   3   76.51   11.15
  -5  -2  -3   87.26   14.04
   5   2   3   88.77   12.50
  -5   2  -3   76.22   12.85
   5   2   3   87.35   11.81
   6  -2   3   21.84    8.45
  -6  -2  -3   36.95   11.51
   6   2   3   28.20    8.82
  -6   2  -3   33.23   10.77
   7  -2   3   42.07   10.17
  -7  -2  -3   28.95   10.57
   7   2   3   30.02    9.32
  -7   2  -3   36.78   11.74
   8  -2   3  135.40   17.77
  -8  -2  -3  118.69   20.60
   8   2   3  120.86   17.90
  -8   2  -3  110.95   19.97
  -9  -2  -3   65.02   16.79
   9  -2   3   79.07   15.29
  -9   2  -3   54.14   16.14
   9   2   3   82.35   15.94
  10  -3  -3  -17.63    6.47
 -10  -3   3   19.82   16.49
 -10   3   3   -4.44    9.95
  -9  -3   3   39.61   16.22
   9  -3  -3   61.89   12.11
   9   3  -3   36.40   12.44
  -9   3   3   49.09   15.89
   8  -3  -3   14.06    7.27
  -8  -3   3    2.24    8.24
  -8   3   3    8.39    8.82
   8   3  -3   -2.13    6.68
   7  -3  -3   13.01    6.47
  -7  -3   3   16.96    8.96
   7   3  -3   13.49    7.14
  -7   3   3   -0.69    6.56
   6  -3  -3   59.41    9.62
  -6  -3   3   51.01   12.92
   6   3  -3   47.25   10.19
  -6   3   3   49.77   11.69
   5  -3  -3   49.34    8.84
  -5  -3   3   60.36   12.52
   5  -3  -3   48.54    7.66
   5   3  -3   41.97    8.78
  -5   3   3   60.49    9.00
   5   3  -3   51.32   10.82
  -5   3   3   56.99   10.66
  -4  -3   3    3.64    3.91
  -4  -3   3   20.78    8.05
   4  -3  -3   13.71    4.58
   4  -3  -3   12.63    4.71
   4   3  -3   13.56    5.52
   4   3  -3   13.76    6.21
  -4   3   3    3.53    3.24
  -4   3   3    2.74    4.77
   3  -3  -3   28.87    4.41
  -3  -3   3   30.48    5.64
   3  -3  -3   36.76    5.63
  -3  -3   3   23.67    7.54
  -3   3   3   26.53    5.78
   3   3  -3   33.06    7.21
   3   3  -3   24.51    5.87
  -3   3   3   30.00    4.68
  -2  -3   3   68.12    9.77
   2  -3  -3   57.75    5.01
  -2  -3   3   71.23    6.52
   2   3  -3   66.40    8.97
  -2   3   3   57.49    6.44
   2   3  -3   65.46    7.41
  -1  -3   3  175.65    9.18
  -1  -3   3  173.53    9.78
   1  -3  -3  174.80    6.08
  -1  -3   3  151.45   12.45
   1   3  -3  157.64    9.78
  -1   3   3  169.65    7.43
   1   3  -3  199.08   12.88
  -1   3   3  154.93   10.06
   0  -3  -3  232.05   11.19
   0  -3   3  244.96   11.50
   0  -3   3  243.54   11.32
   0   3  -3  239.29   12.03
   0   3   3  231.59    8.25
   0   3   3  248.88   12.42
   0   3   3  223.30    7.51
   0   3  -3  228.04   11.22
  -1  -3  -3  128.10    7.77
   1  -3   3  135.87    9.29
  -1  -3  -3  137.17    6.69
  -1  -3  -3  147.11    7.95
   1  -3   3  126.64    7.23
   1  -3   3  126.81    8.44
  -1   3  -3  123.71    7.85
  -1   3  -3  131.85    6.78
   1   3   3  137.01    7.20
  -1   3  -3  136.52    9.19
   1   3   3  132.42    7.77
   2  -3   3   11.73    3.92
  -2  -3  -3   13.89    3.32
   2  -3   3    4.89    3.48
  -2  -3  -3    7.15    4.09
   2   3   3   13.13    4.29
   2   3   3   15.40    3.99
  -2   3  -3   13.42    4.56
  -2   3  -3   14.17    3.29
  -2   3  -3    7.42    3.34
  -3  -3  -3   72.20    7.32
   3  -3   3   78.35    7.81
  -3  -3  -3   67.62    9.58
   3  -3   3   67.50    8.82
   3   3   3   82.02    8.42
  -3   3  -3   80.74    8.92
  -3   3  -3   79.70    7.87
   3   3   3   84.09    9.87
  -3   3  -3   71.87    6.88
  -4  -3  -3   71.49    9.19
   4  -3   3   72.16    9.71
   4  -3   3   77.33    9.62
  -4  -3  -3   64.79   10.96
  -4   3  -3   48.74    9.17
  -4   3  -3   68.29    9.01
   4   3   3   63.07    9.79
   4   3   3   73.83    9.95
  -5  -3  -3   52.53    8.66
   5  -3   3   65.03    9.68
  -5  -3  -3   58.95   12.50
   5   3   3   53.45   10.31
   5   3   3   44.05    9.07
  -5   3  -3   53.74   11.72
  -6  -3  -3    7.99    9.00
   6  -3   3    6.99    6.25
  -6   3  -3    6.99    7.85
   6   3   3   12.42    7.50
  -7  -3  -3   73.58   15.87
   7  -3   3   67.03   12.40
  -7   3  -3   52.23   13.15
   7   3   3   51.47   11.53
   8  -3   3   30.98    9.60
  -8  -3  -3   22.64   12.24
   8   3   3   32.83   10.20
  -8   3  -3   26.16   12.03
   9  -3   3    8.73    8.41
  -9  -3  -3   21.70   13.88
   9   3   3   24.83   10.62
  -9   3  -3   20.68   12.54
  -9  -4   3   -1.86   11.58
   9  -4  -3   15.63    8.30
   9   4  -3   10.19    9.67
  -9   4   3    4.81    8.92
  -8  -4   3  157.45   24.50
   8  -4  -3  142.05   16.78
  -8   4   3  136.31   21.35
   8   4  -3  157.32   19.77
   7  -4  -3   19.22    7.31
  -7  -4   3    6.84    8.47
  -7   4   3   22.78    9.78
   7   4  -3    3.85    6.57
  -6  -4   3   45.32   13.23
   6  -4  -3   54.27    9.08
   6   4  -3   44.65   10.23
  -6   4   3   68.37   13.95
   5  -4  -3   86.95   11.24
  -5  -4   3   82.64   14.54
   5  -4  -3   75.59    9.35
  -5   4   3   89.28   10.65
   5   4  -3   88.74   19.40
   5   4  -3   99.16   12.67
  -5   4   3   76.80   12.46
   4  -4  -3  327.59   14.74
   4  -4  -3  310.72   16.23
  -4  -4   3  333.98   22.70
   4   4  -3  350.68   18.78
   4   4  -3  326.62   20.23
  -4   4   3  308.17   15.54
  -4   4   3  336.62   18.73
   3  -4  -3   18.08    4.01
  -3  -4   3   20.06    7.59
  -3  -4   3    9.93    4.25
   3   4  -3   21.17    5.46
  -3   4   3   20.30    5.14
  -3   4   3   22.28    4.09
   3   4  -3   10.67    5.72
   2  -4  -3   68.72    4.68
  -2  -4   3   70.03   10.60
  -2  -4   3   59.72    7.04
  -2   4   3   70.26    9.31
   2   4  -3   65.64    9.75
  -2   4   3   61.54    5.56
  -2   4   3   56.55    4.23
   2   4  -3   48.59    6.59
  -1  -4   3  217.57   10.81
  -1  -4   3  205.60   10.31
   1  -4  -3  205.94   12.31
  -1  -4   3  188.18   13.79
   1   4  -3  183.49   13.56
   1   4  -3  227.24   11.58
  -1   4   3  205.77    7.30
  -1   4   3  192.71   11.16
   0  -4   3  750.54   26.57
   0  -4   3  713.66   24.69
   0  -4  -3  729.29   25.59
   0   4   3  758.56   20.90
   0   4   3  739.01   25.12
   0   4  -3  726.08   25.32
   0   4  -3  735.86   24.92
  -1  -4  -3   28.49    5.29
   1  -4   3   23.84    4.49
   1  -4   3   18.32    4.41
  -1  -4  -3   18.02    2.67
  -1  -4  -3   17.40    3.64
   1  -4   3   23.72    4.42
   1   4   3   17.83    3.54
  -1   4  -3   18.43    4.13
   1   4   3   23.44    3.55
  -1   4  -3   23.91    5.01
  -2  -4  -3   25.61    4.30
   2  -4   3   26.79    5.06
  -2  -4  -3   31.62    5.69
   2  -4   3   24.86    5.09
  -2   4  -3   25.54    4.46
  -2   4  -3   24.65    5.59
   2   4   3   22.76    4.71
  -2   4  -3   41.66    5.77
   2   4   3   36.29    6.85
  -3  -4  -3  186.87   11.43
   3  -4   3  219.12   12.23
   3  -4   3  173.95   12.02
  -3  -4  -3  177.24   13.46
  -3   4  -3  178.63   11.05
  -3   4  -3  183.95   11.66
   3   4   3  179.57   12.05
  -3   4  -3  203.92   13.57
   3   4   3  189.48   12.95
   4  -4   3  314.08   17.98
  -4  -4  -3  332.66   17.30
  -4  -4  -3  338.12   21.04
   4  -4   3  351.39   17.94
  -4   4  -3  330.29   19.65
  -4   4  -3  305.86   17.14
   4   4   3  346.23   19.68
  -4   4  -3  317.87   16.96
   4   4   3  341.23   18.84
   5  -4   3    0.77    4.63
  -5  -4  -3   19.67    6.08
  -5  -4  -3    1.46    6.23
   5   4   3   -0.89    5.70
  -5   4  -3    6.57    5.43
  -5   4  -3    0.31    6.06
   5   4   3    6.57    6.84
   6  -4   3    0.22    5.23
  -6  -4  -3   -0.40    7.40
  -6   4  -3    6.86    7.86
   7  -4   3  115.89   14.93
  -7  -4  -3  114.90   19.21
   7   4   3   84.70   14.04
  -7   4  -3   92.12   16.87
  -8  -4  -3  154.17   23.09
   8  -4   3  141.73   17.56
   8   4   3  199.58   19.80
  -8   4  -3  129.54   20.86
   9  -4   3    3.01    8.12
  -9  -4  -3   12.01   10.78
  -9   4  -3   -6.16    9.02
   9   4   3    7.12    8.20
  -9  -5   3   47.43   16.71
   9  -5  -3   66.37   13.14
   9   5  -3   60.05   14.73
  -9   5   3   82.80   19.01
   8  -5  -3   40.20    9.75
  -8  -5   3   43.04   14.27
   8   5  -3   40.31   11.31
  -8   5   3   47.67   13.36
  -7  -5   3   -0.61    6.88
   7  -5  -3    8.87    6.00
   7   5  -3    5.32    7.07
  -7   5   3   -1.80    6.04
  -6  -5   3   45.02   13.24
   6  -5  -3   42.45    8.33
  -6   5   3   57.54   11.78
   5  -5  -3  127.36   10.10
   5  -5  -3  120.06   11.50
  -5  -5   3  133.58   18.82
  -5   5   3  116.07   10.89
   5   5  -3  135.05   13.61
  -5   5   3  113.14   14.11
   4  -5  -3   95.80    7.24
  -4  -5   3   93.56   11.22
  -4  -5   3  115.00   16.83
   4  -5  -3   87.83    8.24
  -4   5   3  115.46   14.10
   4   5  -3   98.98   12.07
   4   5  -3  108.56   14.40
  -4   5   3   78.25    7.75
  -4   5   3   80.07   10.38
   3  -5  -3    3.82    2.46
  -3  -5   3    2.63    3.41
  -3  -5   3    4.90    5.38
  -3   5   3    3.52    3.25
  -3   5   3   -0.77    4.66
   3   5  -3    3.15    4.07
   3   5  -3   -1.47    4.33
  -3   5   3    2.57    2.46
  -2  -5   3  283.44   13.96
   2  -5  -3  300.36   10.23
  -2  -5   3  305.64   19.19
  -2   5   3  300.19   12.05
  -2   5   3  300.51   16.56
   2   5  -3  306.75   17.94
   2   5  -3  286.38   15.41
   2   5  -3  321.53   15.28
  -2   5   3  298.44   10.60
  -1  -5   3   93.64    7.60
   1  -5  -3  101.09    9.40
  -1  -5   3  104.64   10.88
  -1  -5   3   96.25    7.19
  -1   5   3  113.21    9.19
  -1   5   3  102.72    3.85
   1   5  -3   97.18    8.17
   1   5  -3   97.34   10.49
   0  -5   3   57.45    5.99
   0  -5  -3   66.11    6.70
   0  -5   3   60.94    5.94
   0   5  -3   54.71    6.88
   0   5   3   54.99    7.21
   0   5  -3   60.89    6.54
   0   5   3   62.51    3.67
   1  -5   3   13.75    3.79
   1  -5   3   11.99    3.81
  -1  -5  -3   11.22    4.29
   1  -5   3   11.20    3.91
   1   5   3    9.61    2.66
  -1   5  -3    6.44    2.88
  -1   5  -3   13.02    4.38
   1   5   3   15.66    3.44
  -1   5  -3   13.58    3.45
  -2  -5  -3  191.31   12.13
   2  -5   3  211.75   12.23
   2  -5   3  203.75   10.99
  -2  -5  -3  219.51   10.85
   2  -5   3  215.51   12.06
  -2   5  -3  205.25   12.66
   2   5   3  214.76   11.42
  -2   5  -3  208.10   11.39
  -2   5  -3  208.86   11.18
   3  -5   3  154.86   10.66
  -3  -5  -3  135.84   12.07
  -3  -5  -3  162.41   10.39
   3  -5   3  144.58   10.96
   3   5   3  155.46   11.87
   3   5   3  165.93   11.77
  -3   5  -3  146.95   11.93
  -3   5  -3  151.87   10.73
  -3   5  -3  163.24   10.82
  -4  -5  -3   99.64   13.40
   4  -5   3  107.76    9.83
  -4  -5  -3   87.39    9.36
   4  -5   3   99.71   10.35
  -4   5  -3   89.63    9.38
   4   5   3  103.14   12.14
  -4   5  -3  109.99   12.11
  -4   5  -3   91.21    9.52
   4   5   3  108.53   13.20
  -5  -5  -3   13.52    6.39
   5  -5   3    6.23    5.04
  -5  -5  -3    6.80    7.50
   5   5   3   17.65    7.61
  -5   5  -3    7.56    5.43
  -5   5  -3   15.97    8.18
   5   5   3    6.77    6.35
  -6  -5  -3   44.10   12.02
   6  -5   3   39.15    8.58
  -6   5  -3   42.22    9.73
   6   5   3   54.59   13.24
  -6   5  -3   44.78   11.10
   7  -5   3   82.66   13.13
  -7  -5  -3   78.99   15.97
  -7   5  -3   80.04   15.85
   7   5   3  106.04   15.76
  -8  -5  -3   56.69   16.65
   8  -5   3   52.13   11.54
   8   5   3   50.26   12.58
  -8   5  -3   48.63   13.49
  -9  -5  -3  -22.56    7.56
   9  -5   3    5.84    7.51
  -9   5  -3    0.98    9.94
   9   5   3    0.54    8.47
  -9  -6   3    0.65   11.13
   9  -6  -3    1.31    6.85
   9   6  -3    4.77    8.19
  -9   6   3   15.46   10.59
  -8  -6   3   -1.47    8.56
   8  -6  -3   10.44    7.57
   8   6  -3   13.59    8.27
  -8   6   3   11.06    8.03
  -7  -6   3  172.41   24.51
   7  -6  -3  222.99   15.74
   7   6  -3  231.12   20.35
  -7   6   3  257.63   22.84
   6  -6  -3    4.79    4.29
  -6  -6   3    5.47    6.84
   6   6  -3   -0.47    6.01
   5  -6  -3   35.33    8.19
   5  -6  -3   25.58    5.27
  -5  -6   3   21.31    9.57
  -5   6   3   30.07    6.75
  -5   6   3   32.05    8.81
   5   6  -3   29.50    8.69
  -4  -6   3   30.23   10.59
  -4  -6   3   46.76    8.28
   4  -6  -3   28.50    5.64
  -4   6   3   24.79    7.33
  -4   6   3   30.92    6.88
  -4   6   3   28.37    5.68
   4   6  -3   35.80    8.11
  -3  -6   3  293.05   20.68
   3  -6  -3  290.14   12.10
  -3  -6   3  270.59   15.12
  -3   6   3  277.25   17.82
   3   6  -3  279.13   18.71
  -3   6   3  281.36   13.99
  -3   6   3  277.87   12.27
   3   6  -3  266.68   15.87
  -2  -6   3   16.41    7.08
  -2  -6   3   34.15    5.80
   2  -6  -3   25.68    1.37
   2   6  -3   30.92    5.96
   2   6  -3   27.16    6.35
   2   6  -3   28.76    7.33
  -2   6   3   24.91    3.68
  -2   6   3   24.64    2.85
  -2   6   3   43.65    8.11
   1  -6  -3  199.16   13.44
  -1  -6   3  188.76   10.37
  -1  -6   3  193.45   11.01
  -1   6   3  181.58   11.71
   1   6  -3  165.49   13.62
   1   6  -3  191.69   11.55
  -1   6   3  179.97    5.67
   0  -6   3   65.48    6.39
   0  -6   3   58.52    6.60
   0  -6   3   67.12    5.62
   0  -6  -3   61.19    8.38
   0  -6   3   58.87    7.49
   0   6   3   60.50    2.52
   0   6   3   64.42    4.01
   0   6  -3   65.72    7.86
   0   6  -3   64.29    6.83
   0   6   3   72.48    7.58
   1  -6   3  327.83   14.86
  -1  -6  -3  340.22   16.70
   1  -6   3  331.38   16.25
   1  -6   3  321.91   13.93
  -1  -6  -3  338.45   14.24
  -1   6  -3  349.87   16.41
   1   6   3  325.54   13.81
  -1   6  -3  334.76   14.75
   1   6   3  327.12   12.72
  -2  -6  -3  120.62    9.31
   2  -6   3  111.37    9.07
   2  -6   3  120.38    8.45
   2  -6   3  122.96   10.11
  -2  -6  -3  122.44    9.98
  -2   6  -3  121.63    8.81
   2   6   3  111.09    8.53
   2   6   3  125.89    9.76
  -2   6  -3  116.84    8.81
  -2   6  -3  138.50   10.58
   3  -6   3  153.85   11.37
  -3  -6  -3  138.35    9.91
  -3  -6  -3  166.48   13.39
   3  -6   3  152.77   10.60
   3   6   3  153.15   12.20
  -3   6  -3  149.55   10.83
  -3   6  -3  177.99   12.91
  -3   6  -3  158.27   11.38
   3   6   3  157.79   11.69
   4  -6   3   36.23    7.77
  -4  -6  -3   42.88    7.44
  -4  -6  -3   31.21    9.18
   4  -6   3   34.15    7.14
  -4   6  -3   29.65    7.01
  -4   6  -3   31.68    8.13
   4   6   3   35.22    8.64
  -4   6  -3   33.19    7.34
   4   6   3   36.52    7.99
  -5  -6  -3  139.98   18.20
   5  -6   3  135.20   12.71
  -5  -6  -3  124.12   12.11
  -5   6  -3  152.51   13.72
   5   6   3  131.88   14.27
  -5   6  -3  135.84   16.55
   5   6   3  139.63   16.78
  -6  -6  -3   95.69   16.65
   6  -6   3   83.56   12.05
   6   6   3  121.03   16.06
  -6   6  -3  123.46   17.13
   7  -6   3   51.07   10.15
  -7  -6  -3   29.60   12.16
   7   6   3   45.56   11.44
  -7   6  -3   51.84   12.55
  -8  -6  -3   -0.25    9.62
   8  -6   3    9.46    7.24
  -8   6  -3    5.78    8.28
   8   6   3    6.56    7.32
   9  -6   3   83.78   15.18
  -9  -6  -3   84.70   19.70
  -9   6  -3   67.06   17.60
   9   6   3   73.97   15.98
  -9  -7   3   13.22   12.21
   9   7  -3   14.20    9.42
  -9   7   3   16.84   11.52
  -8  -7   3   16.59   11.69
   8   7  -3    8.50    8.81
  -8   7   3   14.81   10.03
  -7  -7   3   -0.12    8.63
  -7   7   3    3.89    7.39
   7   7  -3   -1.61    5.90
  -6  -7   3   96.43   18.18
   6   7  -3   72.82   12.44
  -6   7   3   78.53   13.66
  -5  -7   3   14.20   10.89
   5  -7  -3    7.21    5.40
   5   7  -3    9.93    7.06
  -5   7   3   12.56    6.42
  -5   7   3    8.96    5.20
   4  -7  -3   19.68    4.86
  -4  -7   3   17.11    8.49
  -4  -7   3   21.78    6.19
   4   7  -3   19.21    7.67
   4   7  -3   21.39    7.08
  -4   7   3   12.99    5.57
  -4   7   3    7.96    4.21
   3  -7  -3   15.50    2.99
  -3  -7   3    2.20    6.50
  -3  -7   3    6.42    4.27
   3   7  -3    6.45    4.62
  -3   7   3   12.20    3.89
   3   7  -3   20.25    7.78
  -3   7   3   14.17    3.39
  -3   7   3   10.12    4.47
  -2  -7   3  138.71    9.86
   2  -7  -3  111.57   11.34
  -2  -7   3  128.31   13.95
  -2   7   3  136.57    6.00
  -2   7   3  134.31    7.05
   2   7  -3  132.97   10.39
  -2   7   3  143.06   11.50
   2   7  -3  129.63   12.69
   2   7  -3  134.28   11.28
  -1  -7   3   -4.17    2.33
   1  -7  -3   -0.09    3.62
  -1  -7   3   -0.44    3.17
   1   7  -3   -2.91    3.09
  -1   7   3    0.33    0.90
  -1   7   3    1.28    2.88
   1   7  -3    2.66    3.95
   0  -7   3    4.49    2.78
   0  -7   3   -0.62    3.58
   0  -7  -3   -0.94    3.43
   0  -7   3    1.15    2.84
   0  -7   3   -2.66    2.47
   0   7   3    0.81    3.54
   0   7  -3    1.89    3.21
   0   7   3    1.52    1.70
   0   7  -3    1.61    3.52
   0   7  -3   -4.55    3.61
   0   7   3    0.95    1.09
   1  -7   3   43.96    7.40
   1  -7   3   45.42    6.23
  -1  -7  -3   54.91    8.83
   1  -7   3   40.23    5.53
  -1   7  -3   49.43    7.59
   1   7   3   46.40    5.77
   1   7   3   46.79    4.76
  -1   7  -3   49.92    6.67
   2  -7   3   70.08    9.73
   2  -7   3   72.99    8.44
   2  -7   3   75.05    6.78
  -2  -7  -3   85.45   10.63
  -2  -7  -3   65.04    8.95
  -2  -7  -3   66.01    5.36
  -2   7  -3   70.33    8.25
   2   7   3   69.72    7.87
   2   7   3   72.96    8.76
  -2   7  -3   74.35    9.00
  -2   7  -3   59.09    8.47
  -3  -7  -3   15.66    4.26
   3  -7   3   14.85    4.71
   3  -7   3   22.48    6.15
  -3  -7  -3   20.08    6.57
  -3   7  -3   16.18    5.16
   3   7   3   11.85    5.11
  -3   7  -3   13.97    4.68
   3   7   3   22.80    5.83
  -3   7  -3   23.34    6.48
  -4  -7  -3    1.20    4.35
   4  -7   3    0.02    4.24
  -4  -7  -3    0.14    5.94
  -4   7  -3   -1.86    3.60
  -4   7  -3   -4.09    4.51
   4   7   3   -6.29    4.23
   4   7   3    2.35    5.26
  -4   7  -3   -3.34    4.18
  -5  -7  -3   57.72   10.08
   5  -7   3   68.20   10.15
  -5  -7  -3   55.74   12.78
  -5   7  -3   51.68   11.11
  -5   7  -3   66.02   11.17
   5   7   3   73.11   12.11
   5   7   3   63.17   11.98
   6  -7   3   36.19    8.64
  -6  -7  -3   56.22   13.77
   6   7   3   34.34    9.97
  -6   7  -3   28.07    9.08
  -7  -7  -3    7.49    8.11
   7  -7   3    6.26    6.09
   7   7   3    1.13    6.47
  -7   7  -3   -6.25    6.35
   8  -7   3   12.98    7.65
  -8  -7  -3   -3.36    7.99
  -8   7  -3    9.99    7.75
   8   7   3   -9.79    5.94
   9  -7   3   17.55    9.63
  -9  -7  -3   27.26   14.10
   9   7   3   39.24   12.66
  -9   7  -3   14.38   12.28
  -9  -8   3   -5.50    8.90
  -9   8   3   14.72   11.46
   9   8  -3    0.78    9.07
  -8  -8   3   16.91   11.06
   8   8  -3    3.91    7.91
  -8   8   3    1.01    6.77
  -7  -8   3  187.89   26.97
   7   8  -3  175.71   21.10
  -7   8   3  180.14   19.55
  -6  -8   3   19.77   10.12
   6   8  -3   27.55    9.17
  -6   8   3   24.45    9.24
   5  -8  -3    9.85    5.88
  -5  -8   3   20.25   11.58
  -5   8   3    8.71    6.45
  -5   8   3   11.33    4.71
   5   8  -3   15.83    7.28
  -4  -8   3    6.89    8.90
  -4  -8   3   23.20    6.47
   4  -8  -3    7.65    3.77
   4   8  -3    4.20    6.03
  -4   8   3   12.54    4.69
   4   8  -3   -0.02    6.23
  -4   8   3   14.56    5.65
  -3  -8   3  310.79   23.28
  -3  -8   3  307.08   16.86
   3  -8  -3  325.36   11.15
  -3   8   3  317.87   13.35
   3   8  -3  327.14   18.50
  -3   8   3  327.32   15.06
  -3   8   3  299.23   19.80
   3   8  -3  320.69   21.58
   2  -8  -3  108.00   13.34
  -2  -8   3   94.25    9.03
  -2  -8   3   86.55   13.14
  -2  -8   3   97.68    8.51
   2   8  -3   93.71   10.36
   2   8  -3   90.25    9.09
  -2   8   3  101.90    6.28
  -2   8   3   93.89    9.86
  -2   8   3  106.08    6.09
   2   8  -3  108.18   14.24
   1  -8  -3    2.30    4.25
  -1  -8   3   13.25    4.29
  -1  -8   3   11.80    3.72
  -1   8   3   16.34    5.74
   1   8  -3   16.29    5.37
   1   8  -3    6.26    5.25
   0  -8   3    1.23    4.02
   0  -8  -3    9.37    4.97
   0  -8   3    1.85    3.04
   0  -8   3    0.68    2.36
   0  -8   3    1.27    2.93
   0   8  -3    4.46    4.95
   0   8   3    2.32    4.00
   0   8  -3    0.39    3.06
   0   8   3    0.25    1.87
   0   8  -3    3.06    3.91
   1  -8   3  360.45   19.08
   1  -8   3  345.10   14.38
   1  -8   3  322.81   15.66
  -1  -8  -3  337.61   18.92
   1   8   3  351.36   15.31
   1   8   3  355.30   13.77
  -1   8  -3  351.52   16.08
  -1   8  -3  307.18   16.95
   2  -8   3  127.96    9.70
   2  -8   3  136.29   12.37
  -2  -8  -3  122.80    6.91
  -2  -8  -3  134.28   11.84
  -2  -8  -3  129.57   11.26
   2  -8   3  122.56    8.47
  -2   8  -3  141.30   11.69
  -2   8  -3   98.94    9.67
   2   8   3  127.20    9.32
  -2   8  -3  115.64    9.02
   2   8   3  130.77   10.33
   3  -8   3   17.89    5.36
  -3  -8  -3   28.76    8.36
   3  -8   3   14.48    4.57
  -3  -8  -3   15.02    4.48
   3   8   3   12.42    5.24
   3   8   3   12.59    5.95
  -3   8  -3   18.98    6.28
  -3   8  -3   20.54    5.82
  -3   8  -3   18.37    6.61
  -4  -8  -3   -7.67    4.00
   4  -8   3    0.29    3.81
  -4  -8  -3    1.19    6.55
   4   8   3   -6.64    4.58
  -4   8  -3   -6.63    5.05
   4   8   3   -4.21    4.53
  -4   8  -3    5.03    5.05
  -5  -8  -3  154.07   14.11
  -5  -8  -3  173.28   18.51
   5  -8   3  145.79   12.34
  -5   8  -3  158.51   18.89
  -5   8  -3  139.66   24.01
   5   8   3  141.24   18.10
   5   8   3  141.03   14.64
   6  -8   3   54.04    9.67
  -6  -8  -3   80.96   15.25
   6   8   3   61.29   11.42
  -6   8  -3   64.67   13.35
   7  -8   3   34.13    8.78
  -7  -8  -3   55.35   15.73
   7   8   3   42.36   11.20
  -7   8  -3   45.85   13.10
  -8  -8  -3   -7.53    7.87
   8  -8   3  -10.35    4.87
  -8   8  -3  -13.80    6.90
   8   8   3    6.93    9.32
  -9  -8  -3   27.51   14.56
   9  -8   3   42.90   11.52
   9   8   3   15.75   11.38
  -9  -9   3   89.46   21.63
  -9   9   3   93.72   19.38
  -8  -9   3    5.10   10.36
  -8   9   3   18.00    9.07
   8   9  -3   -0.24    7.71
  -7  -9   3    2.01    9.59
   7   9  -3   11.53    7.78
  -7   9   3   21.90    9.46
  -6  -9   3   17.31   10.48
  -6   9   3   10.59    7.58
   6   9  -3    6.08    7.67
  -5  -9   3  379.12   29.60
   5  -9  -3  385.82   20.07
   5   9  -3  376.01   24.34
  -5   9   3  368.96   21.62
   4  -9  -3   84.98    6.86
  -4  -9   3  116.94   19.00
  -4  -9   3   71.41   10.24
  -4   9   3   75.81    7.82
   4   9  -3   83.62   12.10
   4   9  -3   82.96   14.60
  -4   9   3   84.52   10.18
  -3  -9   3   44.12   12.13
  -3  -9   3   32.11    7.21
   3   9  -3   34.01    8.56
   3   9  -3   24.06    7.09
   3   9  -3   33.90   10.12
  -3   9   3   30.39    4.81
  -3   9   3   35.24    5.77
  -2  -9   3   45.74   11.26
  -2  -9   3   48.96    7.61
  -2  -9   3   46.10    7.14
   2  -9  -3   34.99   10.04
   2   9  -3   64.46   11.50
  -2   9   3   49.29    4.28
  -2   9   3   43.14    8.98
  -2   9   3   45.75    4.49
   2   9  -3   40.70    7.89
  -1  -9   3  532.61   20.31
   1  -9  -3  530.77   26.64
  -1  -9   3  502.98   24.15
  -1  -9   3  523.70   20.60
  -1   9   3  495.79   14.43
   1   9  -3  500.44   26.83
  -1   9   3  497.29   17.07
  -1   9   3  500.26   15.71
  -1   9   3  505.68   14.47
   1   9  -3  524.53   23.18
  -1   9   3  541.17   25.23
   0  -9   3  119.85    8.21
   0  -9  -3  102.98   13.26
   0  -9   3  128.41    8.22
   0  -9   3  116.88   11.66
   0   9  -3  135.11   10.30
   0   9   3  130.54    7.59
   0   9  -3  119.41   15.25
   0   9   3  118.49   11.52
   0   9   3  120.84    5.99
   0   9  -3  104.82   10.13
   1  -9   3  140.32   12.58
   1  -9   3  109.39    7.76
   1  -9   3  133.12    9.69
  -1  -9  -3  125.01   12.43
  -1   9  -3  115.29    9.26
   1   9   3  121.19    8.92
  -1   9  -3  121.24   11.13
   1   9   3  135.97    8.22
   2  -9   3   30.17    5.06
  -2  -9  -3   33.01    8.18
  -2  -9  -3   29.30    3.36
   2  -9   3   13.97    6.78
  -2  -9  -3   32.95    7.45
   2   9   3   36.21    6.98
   2   9   3   31.95    6.16
  -2   9  -3   36.15    7.97
  -2   9  -3   24.58    6.81
  -2   9  -3   40.84    6.88
  -3  -9  -3  231.39   12.19
   3  -9   3  201.80   13.57
   3  -9   3  217.52   17.16
   3  -9   3  220.27   12.22
   3   9   3  220.69   16.03
   3   9   3  216.57   14.81
  -3   9  -3  215.79   15.35
  -3   9  -3  237.71   16.55
  -3   9  -3  227.36   14.32
   4  -9   3  137.45   10.92
  -4  -9  -3  126.77   16.95
  -4  -9  -3  122.21   11.02
   4   9   3  129.23   12.79
  -4   9  -3  138.75   14.36
  -4   9  -3  115.79   13.76
   4   9   3  143.58   15.05
  -5  -9  -3   71.33   10.64
   5  -9   3   68.02    9.02
  -5  -9  -3   68.21   13.92
  -5   9  -3   78.54   12.92
   5   9   3   88.55   13.13
   5   9   3   71.32   13.78
  -6  -9  -3   11.32    9.05
   6  -9   3    0.51    4.53
  -6   9  -3   12.92    8.40
   6   9   3    1.99    5.25
  -7  -9  -3   88.53   22.20
   7  -9   3   98.70   13.73
  -7   9  -3   94.70   16.32
   7   9   3   94.87   16.04
   8  -9   3   58.21   10.63
  -8  -9  -3   92.42   20.76
   8   9   3   77.86   15.36
  -8   9  -3   71.16   16.80
  -8 -10   3    0.14   10.08
  -8  10   3    7.98    9.21
   8  10  -3   13.78   10.24
  -7 -10   3    5.57   10.03
  -7  10   3    6.53    6.86
   7  10  -3    5.79    8.24
  -6 -10   3   -1.71    7.01
   6  10  -3   15.65    7.97
  -6  10   3    8.29    6.71
   5 -10  -3    8.00    4.11
  -5 -10   3   -4.92    6.07
   5  10  -3   -1.84    4.88
  -5  10   3   -0.72    4.23
  -4 -10   3    0.68    5.05
  -4 -10   3    0.31    7.17
   4 -10  -3    0.44    2.05
  -4  10   3   11.21    5.27
   4  10  -3   -0.54    5.88
   4  10  -3   -5.58    5.11
  -4  10   3    5.80    4.00
  -3 -10   3    5.47    8.22
  -3 -10   3   -1.66    3.90
  -3 -10   3   -0.59    4.26
   3  10  -3    1.62    6.12
  -3  10   3    7.54    2.93
  -3  10   3   -0.59    3.03
   3  10  -3   -2.92    5.07
   3  10  -3   10.96    6.36
   2 -10  -3   11.23    7.83
  -2 -10   3    7.77    5.07
  -2 -10   3   13.74    4.92
  -2  10   3   19.69    3.50
   2  10  -3   14.74    6.30
   2  10  -3   12.54    7.41
  -2  10   3   14.86    2.73
  -1 -10   3    6.33    5.17
  -1 -10   3    0.74    3.44
   1 -10  -3    6.86    6.52
  -1 -10   3    3.23    3.39
   1  10  -3   -2.44    5.93
   1  10  -3    1.68    4.38
  -1  10   3    0.13    5.29
  -1  10   3    1.92    2.15
  -1  10   3    2.70    2.61
  -1  10   3    1.51    1.58
   0 -10   3    7.48    6.00
   0 -10   3    0.07    2.86
   0 -10  -3    0.05    5.33
   0  10  -3    0.71    5.47
   0  10   3    3.32    2.56
   0  10   3    2.47    2.03
   0  10  -3   -0.01    4.14
   0  10  -3    4.31    4.27
   0  10   3    0.52    2.66
   1 -10   3    0.47    2.55
   1 -10   3    0.12    2.53
   1 -10   3   -0.33    4.50
  -1 -10  -3    0.56    6.18
   1  10   3   -2.55    2.41
  -1  10  -3   -2.73    3.89
  -1  10  -3   -3.17    3.22
   1  10   3   -0.44    3.09
  -2 -10  -3   -2.95    3.80
   2 -10   3    0.40    3.53
   2 -10   3   -3.16    5.50
   2 -10   3    1.01    2.98
  -2 -10  -3    5.76    6.42
   2  10   3    2.70    4.26
  -2  10  -3    2.87    4.68
   2  10   3    1.49    3.47
  -2  10  -3   -0.30    4.21
  -2  10  -3   -0.71    5.11
   3 -10   3    2.97    4.57
   3 -10   3    2.96    3.49
  -3 -10  -3    1.56    2.84
  -3 -10  -3   -3.52    4.77
   3 -10   3   -4.48    5.82
  -3 -10  -3   -1.63    5.31
  -3  10  -3   -4.67    4.66
   3  10   3    3.65    5.23
  -3  10  -3   10.92    4.89
  -3  10  -3   -4.46    4.64
   3  10   3   -0.85    4.68
  -4 -10  -3    3.72    6.70
  -4 -10  -3    8.78    4.73
   4 -10   3    8.92    4.40
   4  10   3    5.41    5.71
  -4  10  -3   10.92    6.94
   4  10   3   -1.35    5.90
  -5 -10  -3   -1.06    4.71
   5 -10   3   -5.95    3.08
  -5 -10  -3    4.20    7.60
   5  10   3    0.66    5.03
   5  10   3   -1.86    6.99
  -5  10  -3   -3.52    5.18
   6 -10   3   -3.31    4.35
  -6 -10  -3    2.55    8.24
  -6  10  -3   -2.95    5.77
   6  10   3   -1.39    5.97
   7 -10   3   -3.29    7.08
  -7  10  -3   27.95   11.39
   7  10   3   -8.92    6.10
   8 -10   3   -3.65    5.19
  -8 -10  -3   -4.77    9.14
   8  10   3   -9.85    5.44
  -8  10  -3    3.33    8.04
  -8 -11   3   14.52   13.46
  -8  11   3    7.79    9.28
   8  11  -3    3.53    8.73
  -7 -11   3   -0.61    9.15
   7  11  -3   14.09    9.47
  -7  11   3   21.40    9.52
  -6 -11   3    2.36    8.55
   6  11  -3   14.50    8.64
  -6  11   3   13.91    8.31
   5 -11  -3  224.17   11.53
  -5 -11   3  259.24   26.13
  -5  11   3  240.93   17.13
   5  11  -3  217.70   18.85
  -4 -11   3    5.19    8.63
  -4 -11   3   47.82    8.73
  -4  11   3   41.39    7.22
   4  11  -3   40.94    9.80
   4  11  -3   30.33   10.94
   4  11  -3   40.36   10.39
  -3 -11   3   56.26    9.23
  -3 -11   3   54.05    8.89
  -3 -11   3   66.56   14.26
   3  11  -3   55.22   12.29
  -3  11   3   68.99    7.53
   3  11  -3   43.19   10.29
   3  11  -3   55.84    9.60
  -3  11   3   54.61    6.25
  -2 -11   3   11.79    5.12
   2 -11  -3    9.49    7.67
  -2 -11   3   22.06    5.51
   2  11  -3   12.32    6.60
  -2  11   3   10.20    2.99
  -2  11   3   10.94    2.89
   2  11  -3   19.04    8.07
  -1 -11   3  236.09   12.63
  -1 -11   3  239.32   17.44
   1 -11  -3  250.01   19.92
  -1 -11   3  247.48   12.75
   1  11  -3  243.40   16.38
   1  11  -3  252.76   19.70
  -1  11   3  237.54   10.17
  -1  11   3  258.46   11.72
  -1  11   3  234.97    9.60
   0 -11   3   86.37   12.94
   0 -11   3   78.55    6.80
   0 -11   3   78.00    7.22
   0 -11  -3   97.86   14.07
   0  11  -3   70.51    9.64
   0  11  -3   90.31   13.64
   0  11  -3   83.90   10.96
   0  11   3   84.95    6.62
   0  11   3   89.04    7.22
   0  11   3   73.18    5.80
  -1 -11  -3   54.63   11.28
   1 -11   3   75.71    8.19
   1 -11   3   63.45   10.93
   1 -11   3   66.21    5.79
   1 -11   3   58.21    5.51
   1  11   3   58.59    7.81
  -1  11  -3   59.59    9.68
   1  11   3   55.74    7.79
  -1  11  -3   60.17    9.02
  -2 -11  -3   33.53    9.33
   2 -11   3   39.91    7.10
   2 -11   3   37.87   10.09
   2 -11   3   35.52    4.59
   2 -11   3   38.50    4.90
   2  11   3   43.22    7.06
  -2  11  -3   47.32    7.91
  -2  11  -3   41.95    8.89
   2  11   3   31.86    7.51
  -3 -11  -3   66.02    6.48
   3 -11   3   64.20   12.67
   3 -11   3   72.88    6.63
  -3 -11  -3   64.45   12.05
  -3 -11  -3   51.99   10.81
  -3 -11  -3   54.95    5.66
   3  11   3   58.46    9.57
  -3  11  -3   56.32   10.11
   3  11   3   61.22   10.43
  -4 -11  -3   69.08   13.92
  -4 -11  -3   71.54    8.74
   4 -11   3   70.88    7.26
   4  11   3   73.34   12.47
   4  11   3   85.97   12.03
  -5 -11  -3   62.10   13.64
   5 -11   3   88.02    8.73
   5  11   3   58.39   12.62
  -5  11  -3   87.70   14.20
   5  11   3  101.91   16.46
  -6 -11  -3    6.66    9.67
   6 -11   3   36.06    7.04
   6  11   3   12.18    8.78
  -6  11  -3   26.68    9.59
   7 -11   3   48.50    8.35
  -7  11  -3   81.61   15.84
   7  11   3   66.88   13.45
   8 -11   3   77.54   10.70
  -8 -11  -3  103.30   20.93
   8  11   3   69.94   15.05
  -8  11  -3   52.38   13.43
  -8 -12   3    4.21   12.44
  -8  12   3  -10.58    8.32
   8  12  -3   -8.01    9.54
  -7 -12   3  109.61   23.16
  -7  12   3  170.49   18.46
   7  12  -3  120.81   18.88
  -6 -12   3   52.28   15.78
  -6  12   3   26.00    9.36
   6  12  -3   37.56   10.68
   5 -12  -3   19.47    3.49
  -5 -12   3    6.51    9.97
  -5  12   3   12.83    6.39
   5  12  -3   17.16    8.89
   5  12  -3   21.62    9.03
  -4 -12   3   -2.12    7.36
  -4 -12   3    8.52    5.73
  -4 -12   3    2.11    4.89
   4  12  -3   -3.96    4.45
  -4  12   3    3.44    4.07
   4  12  -3  -17.33    6.11
   4  12  -3    7.54    6.97
  -4  12   3   -0.41    3.86
  -3 -12   3  251.65   16.33
  -3 -12   3  244.34   15.84
   3  12  -3  277.99   22.55
   3  12  -3  308.73   24.85
  -3  12   3  290.26   13.79
  -3  12   3  252.77   12.63
   2 -12  -3   59.42   12.60
  -2 -12   3   80.57   12.80
  -2 -12   3   49.94    7.56
  -2 -12   3   52.60    7.90
   2  12  -3   58.52   10.44
  -2  12   3   60.86    5.10
   2  12  -3   56.97   11.95
  -2  12   3   64.68    5.51
   1 -12  -3   15.26    8.85
  -1 -12   3   12.46    4.10
  -1 -12   3   23.96    9.25
  -1 -12   3   16.71    4.65
   1  12  -3    8.61    5.84
   1  12  -3   19.41    8.80
  -1  12   3   18.87    4.38
  -1  12   3   15.84    3.63
  -1  12   3   16.56    3.56
   0 -12   3    2.30    2.73
   0 -12   3   -3.11    6.33
   0 -12   3    2.10    2.59
   0 -12  -3    8.21    8.12
   0  12  -3   -0.88    5.48
   0  12   3    1.01    2.99
   0  12   3    5.18    3.16
   0  12  -3    4.39    5.94
   0  12   3    4.04    3.74
   1 -12   3  240.43   19.75
   1 -12   3  176.01   10.51
  -1 -12  -3  251.08   20.14
   1  12   3  275.29   13.35
  -1  12  -3  218.38   14.81
   1  12   3  227.79   14.09
   1  12   3  243.43   13.46
  -1  12  -3  240.17   17.20
   2 -12   3  124.98    7.93
  -2 -12  -3  139.97   14.65
   2 -12   3  123.33   11.96
   2 -12   3  122.36   16.69
   2  12   3  140.21   12.62
  -2  12  -3  127.49   13.21
  -2  12  -3  127.11   11.13
   2  12   3  154.94   11.80
   3 -12   3    8.21    7.69
  -3 -12  -3    6.15    2.69
  -3 -12  -3   16.71    7.32
  -3 -12  -3   10.97    3.77
  -3 -12  -3   19.80    9.18
  -3  12  -3   21.30    6.99
   3  12   3   20.27    6.25
   3  12   3   18.55    6.59
   4 -12   3    9.82    3.17
  -4 -12  -3   13.09    4.86
  -4 -12  -3    5.44    7.09
  -4 -12  -3    7.68    6.12
   4  12   3   15.47    6.72
  -4  12  -3    3.76    5.36
   4  12   3   13.28    7.74
  -5 -12  -3  170.65   21.95
   5 -12   3  154.35    9.65
  -5 -12  -3  150.16   13.27
  -5  12  -3  143.22   15.94
   5  12   3  145.48   19.91
   5  12   3  149.00   15.61
  -6 -12  -3   77.83   17.65
   6 -12   3   51.45    7.19
  -6  12  -3   69.05   13.03
   6  12   3   64.41   12.94
  -7 -12  -3   21.51   13.94
   7 -12   3   29.70    6.37
  -7  12  -3   18.08    9.99
   7  12   3   16.13    9.90
  -8 -12  -3   -4.12   11.11
   8  12   3    0.73    8.16
  -8  12  -3   -2.67    9.06
  -7 -13   3   -4.00   10.10
   7  13  -3   26.02   10.65
  -7  13   3    3.77    8.26
   7  13  -3   16.56    9.29
   6 -13  -3   23.75    3.23
  -6 -13   3   53.61   15.79
  -6  13   3   23.09    8.22
   6  13  -3   35.57   11.64
   6  13  -3   23.40   10.10
  -5 -13   3   -0.57    4.75
  -5 -13   3    7.06    9.38
  -5  13   3    5.00    5.10
   5  13  -3    2.12    6.24
   5  13  -3   11.80    7.91
  -4 -13   3   24.00    7.21
  -4 -13   3   24.68   10.38
  -4 -13   3   29.39    7.84
   4  13  -3   31.65   10.06
   4  13  -3   14.10   10.91
  -4  13   3   32.70    6.70
  -4  13   3   20.35    5.56
  -3 -13   3   11.44    5.43
   3 -13  -3    8.09    7.38
  -3 -13   3    5.20    4.85
   3  13  -3   15.81    7.36
  -3  13   3    4.39    3.44
  -3  13   3   15.31    4.25
  -2 -13   3  108.92    9.07
  -2 -13   3   91.03   14.37
  -2 -13   3   91.70    8.65
   2 -13  -3   89.84   15.50
  -2  13   3   86.09    6.41
   2  13  -3   99.71   16.14
  -2  13   3   92.38    6.76
   2  13  -3   92.72   14.78
  -2  13   3   86.92    8.08
  -1 -13   3    3.66    3.25
   1 -13  -3    7.40    8.13
   1  13  -3   -1.83    7.37
  -1  13   3    4.68    3.49
   1  13  -3    3.91    5.70
  -1  13   3    9.81    3.12
  -1  13   3    8.78    3.30
   0 -13   3    6.36    7.58
   0  13   3    8.76    4.10
   0  13   3    9.20    3.94
   0  13  -3   18.47    8.32
   0  13   3    1.87    3.06
   0  13  -3    5.06    5.87
  -1 -13  -3   41.70   12.96
   1 -13   3   39.48   10.92
   1  13   3   53.78    7.30
  -1  13  -3   71.71   10.94
  -1  13  -3   26.57    8.80
   1  13   3   57.55    7.85
   1  13   3   48.55    7.82
  -2 -13  -3   71.10   13.72
   2 -13   3   68.12   13.25
  -2  13  -3   78.48   11.54
   2  13   3   73.08   11.58
   2  13   3   66.18    9.26
  -3 -13  -3   10.07    6.60
  -3 -13  -3   10.80    7.58
   3  13   3    9.75    5.95
   3  13   3   -1.70    5.48
  -4 -13  -3   -3.98    6.38
  -4 -13  -3   11.15    6.88
  -4 -13  -3    0.11    6.85
  -4 -13  -3    4.03    3.64
   4  13   3   -3.64    4.29
   4  13   3   10.68    7.62
  -4  13  -3    1.18    6.00
  -5 -13  -3   29.61   10.66
  -5 -13  -3   11.41    9.54
  -5 -13  -3   17.98    6.63
  -5  13  -3   14.14    8.20
   5  13   3    0.42   12.57
   5  13   3   25.66    9.61
   6 -13   3   25.53    4.28
  -6 -13  -3   53.75   15.51
  -6 -13  -3   31.60   14.74
  -6  13  -3   57.03   13.03
   6  13   3   36.91   10.80
  -7 -13  -3    3.84   10.45
   7 -13   3   -6.11    3.31
  -7  13  -3   16.26   10.55
   7  13   3    6.32    8.61
  -7 -14   3  114.54   23.39
   7  14  -3  139.62   20.35
   7  14  -3  120.58   20.75
  -6 -14   3    7.69   10.59
  -6 -14   3    6.13    6.71
   6  14  -3   -2.03    7.14
  -6  14   3    4.70    6.77
   6  14  -3   14.32    8.15
  -5 -14   3   37.36   13.34
  -5 -14   3   33.02    8.57
  -5  14   3   12.47    6.22
   5  14  -3    6.69    8.20
   5  14  -3   23.46    9.92
  -4 -14   3   68.88   15.35
  -4 -14   3   89.13   12.08
  -4  14   3   56.42    8.33
   4  14  -3   89.89   14.92
  -4  14   3   42.81    7.24
  -3 -14   3   97.25   11.12
  -3 -14   3  109.66   17.25
   3 -14  -3   94.46   18.06
  -3 -14   3   98.86    9.95
  -3  14   3   90.91    8.09
   3  14  -3   79.21   15.00
   3  14  -3   99.55   14.88
  -3  14   3  102.62    8.23
  -2 -14   3   32.22    5.77
   2 -14  -3   16.05   10.36
  -2 -14   3   22.83    9.07
  -2 -14   3   33.46    5.76
   2  14  -3   23.60   10.21
  -2  14   3   22.59    5.39
  -2  14   3   20.19    4.21
   2  14  -3   26.98    7.63
  -2  14   3   30.10    4.50
  -1 -14   3   41.19   10.68
   1 -14  -3   30.73   11.13
  -1 -14   3   29.44    4.20
  -1 -14   3   38.14    4.63
   1  14  -3   25.36    8.78
  -1  14   3   39.90    5.92
  -1  14   3   38.34    4.99
   0 -14   3   34.06   10.84
   0 -14  -3   35.58   10.68
   0  14   3   30.52    5.20
   0  14  -3   36.90   11.13
   0  14  -3   32.11    8.02
   0  14   3   29.61    8.90
   1 -14   3   79.47   14.39
  -1 -14  -3   67.22   13.98
   1  14   3   71.31    8.68
  -1  14  -3   57.64   12.80
   1  14   3   70.17    9.19
   1  14   3   74.24    8.96
  -1  14  -3   67.37   11.04
   2 -14   3   22.21    8.32
  -2 -14  -3   20.05    8.42
   2  14   3   20.57    6.56
   2  14   3   11.81    6.64
   2  14   3   21.71    6.40
   3 -14   3   52.89   12.77
  -3 -14  -3   74.24   14.61
  -3 -14  -3   61.37   10.94
   3  14   3   58.25    9.44
   3  14   3   63.40   11.62
  -3  14  -3   65.32   10.83
  -4 -14  -3   48.80   13.09
  -4 -14  -3   51.73    4.98
  -4 -14  -3   44.17   11.49
  -4  14  -3   43.61   10.01
   4  14   3   46.72   10.28
   4  14   3   46.70   11.66
  -5 -14  -3   41.00    7.01
  -5 -14  -3   -0.24   10.48
  -5 -14  -3   39.34   12.16
  -5 -14  -3   16.11    5.76
  -5  14  -3   21.75    8.54
   5  14   3   51.89   11.55
  -6 -14  -3    8.64    9.81
  -6 -14  -3    1.85   10.18
  -6 -14  -3   14.49   10.05
  -6  14  -3   23.70    9.87
   6  14   3   43.95   11.28
  -7 -14  -3   34.11   13.62
  -7 -14  -3   33.10   14.27
   7  14   3   37.77   12.77
  -7  14  -3   25.79   12.42
  -6 -15   3   28.37   15.47
  -6 -15   3   24.97    9.25
  -6  15   3   26.47    8.76
   6  15  -3   10.89    8.81
   6  15  -3    5.83    9.23
  -5 -15   3   73.13   11.64
  -5 -15   3   50.56   14.53
   5  15  -3   84.33   16.27
  -5  15   3   87.17   11.60
  -4 -15   3   54.28    9.22
  -4 -15   3   43.09   13.33
  -4 -15   3   37.12   10.47
   4  15  -3   37.50   10.38
  -4  15   3   40.91    7.23
   3 -15  -3   -6.71    7.84
  -3 -15   3    1.54    3.77
  -3 -15   3   -2.97    4.31
  -3 -15   3    8.17    4.55
  -3  15   3   -9.48    5.98
  -3  15   3   -1.90    2.73
   3  15  -3   -5.66    5.07
   3  15  -3   24.54   11.18
  -2 -15   3   77.91   14.66
   2 -15  -3   71.05   15.54
  -2 -15   3   59.87    6.35
  -2  15   3   52.95    6.74
  -2  15   3   52.30    5.50
   2  15  -3   55.14   11.18
   2  15  -3   52.03   13.23
  -2  15   3   53.93    6.91
  -1 -15   3  117.73   17.62
   1 -15  -3  111.62   17.76
  -1  15   3  127.73    8.19
  -1  15   3  125.74    9.31
   1  15  -3  120.17   18.53
   1  15  -3  124.25   15.29
   0 -15  -3   34.34   11.27
   0 -15   3   27.93   10.63
   0  15   3   46.66    6.45
   0  15  -3   39.19    8.97
   0  15  -3   31.71    9.95
  -1 -15  -3    5.92    8.07
   1 -15   3   -2.65    4.69
   1  15   3   -3.88    3.81
   1  15   3    4.76    3.80
   1  15   3   -6.66    3.90
  -1  15  -3   -0.69    4.38
  -1  15  -3   -7.02    6.07
   2 -15   3   16.07    8.69
  -2 -15  -3   35.65   11.36
  -2  15  -3   28.71    8.05
   2  15   3   24.91    6.54
   2  15   3   29.05    8.67
   3 -15   3   50.17   13.27
  -3 -15  -3   73.66   14.76
   3  15   3   77.40   12.91
   3  15   3   69.00   11.02
  -3  15  -3   87.09   13.29
  -4 -15  -3   26.18   10.78
  -4 -15  -3   48.53   13.09
   4  15   3   50.47   12.19
   4  15   3   42.84   11.77
  -4  15  -3   29.70    9.01
  -5 -15  -3   -1.99    3.40
  -5 -15  -3    7.84   10.28
  -5 -15  -3   -6.00    3.97
  -5 -15  -3   -9.90    6.14
   5  15   3   -5.78    6.42
  -5  15  -3   -0.77    6.54
  -6 -15  -3   38.25   14.74
  -6 -15  -3   21.35   12.96
   6  15   3   47.30   12.51
  -6  15  -3   32.40   11.35
  -6 -16   3   21.38    8.75
  -6 -16   3   19.92   12.32
  -6  16   3   14.20    7.08
   6  16  -3   13.31   10.47
  -5 -16   3   21.73    7.61
  -5 -16   3   19.91   12.42
  -5 -16   3   54.14   14.71
  -5  16   3   26.42    7.36
   5  16  -3   39.48   11.47
  -4 -16   3  155.24   22.65
  -4 -16   3  159.78   14.04
  -4 -16   3  157.60   12.92
  -4  16   3  154.85   11.71
   4  16  -3  182.88   19.35
  -3 -16   3   -3.21    4.13
   3 -16  -3    1.34   10.66
  -3 -16   3    3.80    3.50
  -3 -16   3   -2.68    6.79
  -3  16   3    3.90    4.12
   3  16  -3    1.49    6.44
  -3  16   3    0.83    3.12
  -3  16   3    5.16    4.30
   3  16  -3  -10.77    8.47
  -2 -16   3   37.28   10.72
   2 -16  -3   24.46   10.09
   2  16  -3   33.16    8.71
  -2  16   3   23.20    4.03
  -2  16   3   15.79    5.86
   2  16  -3   12.33    9.46
  -1 -16   3   41.71   12.07
   1 -16  -3   66.25   14.61
   1  16  -3   60.53   12.78
  -1  16   3   64.37    6.36
   1  16  -3   66.30   12.03
  -1  16   3   47.00    6.58
   0 -16   3  186.80   18.92
   0 -16  -3  122.55   19.10
   0  16  -3  183.30   16.33
   0  16  -3  188.69   19.95
   0  16   3  179.12   11.20
   0  16   3  176.84   16.65
  -1 -16  -3   -0.85    7.45
   1 -16   3   12.08    8.94
   1  16   3    9.23    5.25
   1  16   3    2.77    4.76
   1  16   3    6.95    4.58
  -1  16  -3   11.69    7.48
  -1  16  -3   13.20    8.27
  -2 -16  -3    6.34    6.57
   2 -16   3    4.15    8.46
   2  16   3    8.26    8.18
   2  16   3    7.23    5.06
  -2  16  -3   13.53    6.55
  -2  16  -3   -3.18    7.70
   2  16   3   18.42    6.45
  -3 -16  -3   48.25   13.09
   3 -16   3   42.62   13.31
  -3  16  -3   63.69   11.34
   3  16   3   53.32   10.22
   3  16   3   35.30    9.55
   3  16   3   71.40   11.76
  -4 -16  -3  120.09   20.03
  -4  16  -3  116.33   15.47
   4  16   3   91.09   17.24
   4  16   3  127.00   15.77
  -5 -16  -3   -2.08   10.16
  -5 -16  -3   31.45   12.55
   5  16   3   -1.83    7.18
  -5  16  -3   27.18    9.51
  -6 -16  -3    1.27    4.84
  -6 -16  -3   -2.36   10.30
  -6 -16  -3   -4.67   11.15
  -6  16  -3   -1.11    6.91
   6  16   3    6.94    7.47
  -5 -17   3    2.12    9.64
  -5 -17   3   14.25    6.58
  -5  17   3   13.74    6.33
   5  17  -3   17.59    9.49
  -4 -17   3   13.46    4.92
  -4 -17   3   -5.23    4.68
  -4 -17   3  -12.70    5.76
   4  17  -3   -3.55    6.92
  -3 -17   3   -2.26    7.67
  -3 -17   3    2.13    3.01
   3 -17  -3    2.94   10.12
  -3  17   3    0.11    3.17
   3  17  -3   12.45   12.67
   3  17  -3    6.67    7.43
   2 -17  -3   16.16   10.45
  -2 -17   3   30.50   11.33
  -2  17   3   38.01    7.93
  -2  17   3   30.67    6.42
  -2  17   3   28.23    4.33
   2  17  -3   28.59    8.56
   1 -17  -3   -2.17    7.91
  -1 -17   3    1.86    6.36
  -1  17   3    4.60    3.93
   1  17  -3   11.92   10.89
   1  17  -3   12.28    7.14
  -1  17   3    8.04    3.33
   0 -17  -3    3.58    8.11
   0 -17   3   -1.68    6.45
   0  17   3   -4.08    3.92
   0  17   3    3.47    3.69
   0  17  -3   -1.73    8.53
   0  17  -3   10.62    6.13
   1 -17   3    7.89    8.83
  -1 -17  -3    9.54    9.72
  -1  17  -3   30.45    9.03
   1  17   3    4.51    5.66
   1  17   3   26.72    6.33
  -1  17  -3   23.93   10.15
   2 -17   3   30.81   10.62
  -2 -17  -3    4.06    7.65
   2  17   3   11.94    6.22
  -2  17  -3    5.08    6.19
   2  17   3   -5.46    5.69
  -2  17  -3   -2.48    7.30
   2  17   3   13.66    5.79
   3 -17   3    3.07    9.66
  -3 -17  -3    5.40    7.99
   3  17   3   13.18    6.35
  -3  17  -3    8.98    6.02
   3  17   3   -8.66    7.24
   3  17   3   24.17    7.44
  -4 -17  -3    9.95    8.74
  -4  17  -3    3.75    6.42
   4  17   3   15.26    7.86
   4  17   3   -1.43    7.22
   4  17   3  -29.97   10.59
  -5 -17  -3   15.05   14.38
  -5 -17  -3   34.15   14.26
  -5  17  -3   20.41    9.66
   5  17   3    8.58    8.67
  -4 -18   3   62.92   16.30
  -4 -18   3   51.47    5.94
   4  18  -3   62.30   13.69
  -4  18   3   48.12    9.09
   3 -18  -3    9.91   10.47
  -3 -18   3    5.97    9.58
  -3  18   3    2.95    3.90
   3  18  -3   11.61    8.20
  -3  18   3    4.79    3.09
  -2 -18   3   -0.75    8.41
   2 -18  -3    8.93    9.49
  -2  18   3   11.73    3.70
  -2  18   3   11.79    3.07
   2  18  -3   21.14    7.83
   1 -18  -3   -4.64    8.56
  -1 -18   3    8.39    9.23
   1  18  -3    8.43    6.72
   1  18  -3    0.31   10.49
  -1  18   3    9.61    3.59
   0 -18   3   63.75   14.73
   0 -18  -3   49.96   13.33
   0  18  -3   68.56   13.49
   0  18   3   62.91    7.89
   0  18   3   51.04    7.92
   0  18  -3   73.56   12.48
  -1 -18  -3   20.14   11.97
   1 -18   3   26.17   11.48
   1  18   3   37.80    7.15
   1  18   3   18.30    6.98
  -1  18  -3   23.58    7.67
  -1  18  -3   26.32   10.95
   2 -18   3   14.30    9.70
  -2 -18  -3   20.40   11.78
   2  18   3    3.12    6.71
   2  18   3   22.61    6.88
  -2  18  -3   15.03   10.28
  -2  18  -3   14.95    7.06
   3 -18   3    6.49   10.34
  -3 -18  -3   15.94   10.86
   3  18   3   10.08    7.14
   3  18   3    3.84    8.97
   3  18   3   -8.55    4.57
  -3  18  -3    0.04    6.19
  -3  18  -3    7.01   10.99
  -4 -18  -3   45.47   15.62
  -4  18  -3   40.03   10.22
   4  18   3   21.30    9.37
   4  18   3   32.51   11.01
  -3 -19   3   30.67   14.18
   3  19  -3   20.25    9.57
   2 -19  -3  127.23   21.62
  -2 -19   3   92.27   18.32
   2  19  -3  130.65   17.73
  -1 -19   3   10.50   10.53
   1 -19  -3   -3.09    9.41
   1  19  -3  -10.59   11.43
  -1  19   3   -5.76    3.31
   1  19  -3   14.04    6.98
  -1  19   3    4.76    3.14
   0 -19  -3   19.69   10.98
   0 -19   3    7.78    9.65
   0  19  -3   19.94    8.18
   0  19   3   18.65    4.98
   0  19  -3   -0.42    9.72
   0  19   3    7.66    5.54
  -1 -19  -3   51.88   15.76
   1 -19   3   38.80   13.76
  -1  19  -3   51.60   10.98
   1  19   3   27.90    8.27
  -1  19  -3   39.55   13.66
   1  19   3   58.29    8.45
  -2 -19  -3  108.89   20.01
   2 -19   3  118.72   20.55
  -2  19  -3  109.12   15.34
  -2  19  -3   82.68   17.10
   2  19   3   64.83   11.47
   2  19   3   85.37   11.74
  -3 -19  -3   15.92    9.38
   3 -19   3   12.89   12.62
   3  19   3   15.91    7.49
   3  19   3   11.65    8.23
  -3  19  -3   27.98    8.29
   2  20  -3    3.55    7.66
  -1 -20   3   -4.90    6.88
  -1  20   3    1.45    2.43
  -1  20   3   -6.93    2.44
   1  20  -3   -9.97    5.27
   0 -20   3   -8.00    8.55
   0 -20  -3    1.26    9.11
   0  20  -3   10.84    7.13
   0  20   3    3.36    3.79
  -1 -20  -3   -1.57   15.48
   1 -20   3  -11.14    7.30
  -1  20  -3    3.93    6.65
   1  20   3    2.37    4.74
  -2 -20  -3    2.25   12.61
   2 -20   3    9.19   10.10
   2  20   3   -0.66    5.14
  -2  20  -3   -7.47    5.76
  10   0  -4  150.11   20.80
  -9   0   4    2.57    8.07
   9   0  -4   14.14    8.71
   8   0  -4   12.28    8.03
  -8   0   4    2.56    8.93
   7   0  -4   71.93   12.50
  -7   0   4  106.78   19.01
  -6   0   4  358.19   26.58
   6   0  -4  386.79   22.00
   5   0  -4   31.14    9.06
   5   0  -4   26.46    7.05
  -5   0   4   35.64   10.12
  -5   0   4   38.00    7.69
   4   0  -4    2.87    4.16
   4   0  -4   -0.25    3.66
  -4   0   4    0.25    4.81
  -4   0   4    8.19    3.97
   3   0  -4  335.76   17.48
  -3   0   4  306.57   14.88
  -3   0   4  351.41   19.08
   3   0  -4  340.11   15.29
  -2   0   4  328.57   14.03
  -2   0   4  338.71   17.36
   2   0  -4  368.63   16.83
   2   0  -4  333.37   14.75
   1   0  -4  208.24   10.38
  -1   0   4  218.99   10.56
  -1   0   4  215.61   13.18
   1   0  -4  228.36   12.82
   0   0  -4    4.02    3.31
   0   0   4    0.53    2.80
   0   0  -4   -0.47    2.90
   0   0   4    0.47    2.89
   1   0   4  239.03   13.31
  -1   0  -4  239.58   12.03
  -1   0  -4  243.63   11.12
   1   0   4  248.87   11.67
  -2   0  -4  373.09   17.68
   2   0   4  401.46   17.08
   2   0   4  416.31   17.81
  -2   0  -4  425.01   16.91
   3   0   4  192.74   12.84
  -3   0  -4  230.36   13.02
   3   0   4  201.12   12.71
  -3   0  -4  208.29   14.24
  -4   0  -4   72.60   11.20
  -4   0  -4   67.80   10.50
   4   0   4   92.02   11.51
   4   0   4   77.63   10.20
   5   0   4   32.60    7.99
  -5   0  -4   49.07   11.20
   6   0   4  227.57   18.56
  -6   0  -4  188.31   19.93
   7   0   4  180.50   17.49
  -7   0  -4  214.29   21.76
   8   0   4   19.27    9.36
  -8   0  -4   -9.63    8.18
  -9   0  -4    1.94    9.29
   9   0   4   -3.87    6.71
  10  -1  -4   13.61    9.27
 -10   1   4    7.91   13.12
  10   1  -4    5.82    8.95
  -9  -1   4    2.01    9.02
   9  -1  -4   13.79    8.78
   9   1  -4   14.40    8.89
  -9   1   4    9.70    9.95
   8  -1  -4   89.43   14.51
  -8  -1   4   40.32   13.90
  -8   1   4   67.46   16.14
   8   1  -4   86.47   14.86
  -7  -1   4   77.10   16.28
   7  -1  -4   72.64   11.96
  -7   1   4   72.47   15.55
   7   1  -4  112.69   15.04
  -6  -1   4   93.19   15.88
   6  -1  -4   67.79   11.18
  -6   1   4   88.51   14.44
   6   1  -4   99.44   13.22
   5  -1  -4    2.28    4.66
   5  -1  -4   -2.73    4.78
  -5  -1   4    2.63    4.78
  -5  -1   4    4.93    7.13
   5   1  -4    3.58    5.63
  -5   1   4    0.42    5.46
  -5   1   4   10.19    4.83
  -4  -1   4  102.35    9.23
   4  -1  -4  113.98   10.83
  -4  -1   4   93.73   13.19
   4  -1  -4  100.27    9.32
   4   1  -4  138.42   12.19
  -4   1   4   96.50    8.78
   4   1  -4  107.25   10.01
  -4   1   4  107.98   11.87
  -3  -1   4   95.60   10.34
   3  -1  -4   84.00    8.52
  -3  -1   4   68.92    7.15
   3   1  -4  100.72    8.44
  -3   1   4   91.18    7.55
  -3   1   4   84.40    9.33
   3   1  -4   98.10    9.47
   2  -1  -4   18.02    4.56
   2  -1  -4   20.29    4.26
  -2  -1   4   26.41    4.80
  -2  -1   4   19.93    6.26
  -2   1   4   18.14    3.86
   2   1  -4   21.47    5.84
  -2   1   4   17.04    5.25
   1  -1  -4    1.91    3.63
  -1  -1   4    1.04    3.49
   1  -1  -4   -1.66    2.58
  -1  -1   4   -1.04    5.39
   1   1  -4    4.09    4.04
  -1   1   4   -2.61    3.58
   1   1  -4    1.63    2.70
  -1   1   4   -0.69    2.60
   0  -1   4   66.19    6.81
   0  -1  -4   61.33    5.67
   0  -1   4   69.74    6.59
   0  -1  -4   62.01    4.96
   0   1   4   59.06    5.38
   0   1  -4   73.26    7.08
   0   1   4   66.60    5.02
   0   1   4   65.48    5.59
  -1  -1  -4   57.94    5.48
   1  -1   4   59.55    6.87
  -1  -1  -4   63.46    3.74
  -1  -1  -4   67.90    6.71
   1  -1   4   56.09    6.81
   1   1   4   63.13    6.24
  -1   1  -4   63.38    7.04
  -1   1  -4   56.91    5.51
   1   1   4   64.80    6.07
  -2  -1  -4   15.42    4.96
  -2  -1  -4   15.19    3.95
   2  -1   4   13.72    4.06
   2  -1   4   17.54    4.50
  -2   1  -4   12.90    5.00
   2   1   4    7.43    3.45
   2   1   4   11.22    4.04
  -2   1  -4   13.84    4.09
   3  -1   4   13.59    5.56
  -3  -1  -4   20.57    6.16
   3  -1   4   13.74    4.94
  -3  -1  -4   18.31    5.12
  -3   1  -4   18.09    4.79
   3   1   4   13.84    5.02
  -3   1  -4    8.17    5.18
   3   1   4   22.44    5.81
   4  -1   4   54.84    8.60
  -4  -1  -4   67.66   10.49
   4  -1   4   67.91    9.92
  -4  -1  -4   74.84   11.00
  -4   1  -4   54.44    8.56
   4   1   4   73.64   10.68
   4   1   4   64.72    9.60
  -4   1  -4   67.77   10.90
  -5  -1  -4  101.14   15.19
   5  -1   4   77.86   11.61
  -5   1  -4   87.41   13.94
   5   1   4   78.85   13.48
   5   1   4   92.61   12.24
  -6  -1  -4   19.39    9.10
   6  -1   4    9.24    6.75
   6   1   4   16.88    9.06
  -6   1  -4   -0.63    5.55
  -7  -1  -4   21.62    9.86
   7  -1   4    0.02    6.30
   7   1   4   15.77    8.08
  -8  -1  -4   20.75   10.35
   8  -1   4   59.05   12.51
   8   1   4   32.73   10.99
  -8   1  -4   28.23   11.82
   9  -1   4   34.47   11.55
  -9  -1  -4   40.94   15.86
   9   1   4   63.82   15.09
  -9   1  -4   34.56   14.03
  10  -2  -4   94.74   16.89
 -10   2   4   57.70   19.10
  10   2  -4   78.35   16.29
  -9  -2   4  -11.73    6.64
   9  -2  -4    7.37    6.52
   9   2  -4   -6.38    5.65
  -9   2   4   -3.39    7.80
   8  -2  -4    2.89    6.38
  -8  -2   4  -12.63    6.19
  -8   2   4   -6.84    6.97
   8   2  -4   -0.40    6.43
   7  -2  -4   81.14   14.01
  -7  -2   4   67.13   15.70
  -7   2   4   78.70   16.03
   7   2  -4   72.21   12.15
  -6  -2   4  125.20   18.78
   6  -2  -4  134.42   13.15
   6   2  -4  135.29   14.53
  -6   2   4  128.93   18.37
   5  -2  -4    0.42    4.25
   5  -2  -4   -4.14    4.16
  -5  -2   4   -3.56    5.12
  -5   2   4    6.90    6.41
  -5   2   4   -2.42    3.24
   5   2  -4   -1.79    5.21
  -4  -2   4    0.35    5.90
   4  -2  -4    5.69    4.20
   4  -2  -4   -2.31    3.09
  -4   2   4    5.52    5.15
  -4   2   4    6.40    3.38
   4   2  -4    6.93    5.22
   4   2  -4   -4.79    2.98
  -3  -2   4  199.17   12.08
  -3  -2   4  196.62   15.76
   3  -2  -4  224.14   12.77
   3   2  -4  233.56   15.35
  -3   2   4  190.13   13.27
   3   2  -4  203.93   12.48
  -3   2   4  236.06   11.60
  -2  -2   4  244.69   12.29
  -2  -2   4  276.21   16.93
   2  -2  -4  259.07   12.09
   2  -2  -4  242.96   11.11
   2   2  -4  255.03   13.41
  -2   2   4  252.77   10.82
  -2   2   4  246.25   13.23
   2   2  -4  243.27   14.88
   1  -2  -4   10.44    3.21
  -1  -2   4   10.89    3.92
  -1   2   4   10.40    3.01
  -1   2   4    8.60    3.70
   1   2  -4   11.67    4.48
   1   2  -4   13.56    5.88
   0  -2   4    2.02    3.98
   0  -2  -4    3.71    2.86
   0  -2  -4    1.07    2.87
   0  -2   4    0.00    3.39
   0   2  -4    3.80    3.01
   0   2  -4    3.81    4.35
   0   2   4    0.49    2.51
   0   2   4    4.04    2.61
   0   2   4    0.04    2.58
  -1  -2  -4  222.63    9.80
   1  -2   4  240.52   11.66
  -1  -2  -4  219.65   10.83
   1  -2   4  221.28    7.96
   1  -2   4  212.43   11.53
  -1  -2  -4  211.39    9.12
  -1   2  -4  227.30   12.20
   1   2   4  205.06   10.47
  -1   2  -4  223.33   11.05
   1   2   4  227.20   10.35
   2  -2   4  108.43    8.76
   2  -2   4  139.63    9.77
  -2  -2  -4  131.62    8.59
  -2   2  -4  131.04    6.43
  -2   2  -4  134.08    9.05
  -2   2  -4  117.98    9.78
   2   2   4  136.18    9.54
   2   2   4  138.10    9.10
  -3  -2  -4   89.15    8.16
   3  -2   4   83.29   10.07
  -3  -2  -4   88.80   10.76
   3  -2   4   83.62    8.56
  -3   2  -4   87.96   10.95
   3   2   4   85.03    8.73
   3   2   4   81.64    8.36
  -3   2  -4   75.75    7.61
  -4  -2  -4   44.86    7.74
   4  -2   4   41.76    7.88
  -4  -2  -4   54.51   10.36
   4  -2   4   49.87    8.66
  -4   2  -4   52.10   10.06
   4   2   4   40.84    8.39
   4   2   4   33.65    7.42
  -4   2  -4   52.25    8.10
  -5  -2  -4   48.40   11.58
   5  -2   4   47.99    9.41
   5   2   4   51.20    9.90
  -5   2  -4   31.41    9.78
   5   2   4   52.76    9.92
  -6  -2  -4    8.45    7.82
   6  -2   4   21.64    8.14
  -6   2  -4    8.65    8.91
   7  -2   4   43.94    9.81
  -7  -2  -4   53.31   14.07
   7   2   4   40.42   10.29
  -7   2  -4   18.48    9.94
  -8  -2  -4   13.48   10.46
   8  -2   4   21.29    9.32
   8   2   4   23.69    9.17
  -8   2  -4   29.85   12.00
  -9  -2  -4   23.61   13.63
   9  -2   4   18.59    9.76
  -9   2  -4   17.00   11.31
   9   2   4    9.88    8.53
  10  -3  -4   11.46    9.49
 -10   3   4   27.26   13.38
   9  -3  -4   16.45    8.45
  -9  -3   4    5.57    9.83
  -9   3   4    7.85    9.12
   9   3  -4    9.25    8.20
   8  -3  -4  214.47   18.23
  -8  -3   4  185.87   27.01
  -8   3   4  221.32   23.75
   8   3  -4  158.11   19.72
   7  -3  -4   49.01    9.65
  -7  -3   4   60.49   15.48
  -7   3   4   45.35   12.69
   7   3  -4   55.67   11.50
   6  -3  -4    4.59    5.48
  -6  -3   4   -0.13    6.79
  -6   3   4    1.21    6.88
   6   3  -4    3.97    6.53
  -5  -3   4   42.01   10.65
   5  -3  -4   68.31   10.41
   5  -3  -4   64.97    9.03
  -5   3   4   49.62    7.85
   5   3  -4   69.70   10.75
  -5   3   4   52.52   10.38
   4  -3  -4  476.76   19.39
   4  -3  -4  478.72   21.69
  -4  -3   4  443.80   21.55
  -4  -3   4  499.97   27.95
  -4   3   4  483.48   23.86
   4   3  -4  529.02   23.37
  -4   3   4  459.67   20.22
   3  -3  -4  106.65    8.25
  -3  -3   4  104.02   13.76
  -3  -3   4   84.15    8.28
  -3   3   4   97.24    7.18
   3   3  -4  101.35   10.85
   3   3  -4   98.56    9.21
  -3   3   4   99.40    9.14
  -2  -3   4   16.49    6.76
   2  -3  -4   10.30    3.30
  -2  -3   4   13.20    3.82
   2  -3  -4   14.25    3.31
  -2   3   4    8.29    2.48
   2   3  -4   20.39    6.41
   2   3  -4   17.30    4.62
  -2   3   4   15.06    4.22
   1  -3  -4  168.18    7.30
  -1  -3   4  185.76   10.22
  -1  -3   4  164.36   12.81
  -1  -3   4  155.93    9.94
   1   3  -4  174.60   10.59
  -1   3   4  167.27    7.32
   1   3  -4  158.18   12.98
  -1   3   4  171.07   10.18
  -1   3   4  174.15    9.01
   0  -3   4  571.60   21.38
   0  -3  -4  608.51   21.15
   0  -3   4  598.88   21.80
   0   3   4  631.94   21.13
   0   3   4  592.38   18.00
   0   3   4  588.99   18.32
   0   3  -4  564.32   21.85
   0   3  -4  560.07   21.26
  -1  -3  -4  223.57   10.40
   1  -3   4  227.06    9.38
  -1  -3  -4  221.74    9.28
  -1  -3  -4  224.84   10.72
   1  -3   4  209.29   11.28
   1  -3   4  200.20   11.39
   1   3   4  216.44   10.42
  -1   3  -4  224.75   12.40
   1   3   4  222.92    9.91
  -1   3  -4  222.91   11.23
  -2  -3  -4   14.26    3.93
   2  -3   4   15.87    4.53
  -2  -3  -4    6.78    4.16
   2  -3   4   15.59    4.52
  -2   3  -4   15.30    4.27
  -2   3  -4   17.97    5.60
  -2   3  -4    8.90    2.62
   2   3   4    6.98    3.52
   2   3   4    8.85    3.64
  -3  -3  -4   71.59    8.32
   3  -3   4   86.32   10.13
  -3  -3  -4   77.93   10.28
   3  -3   4   75.93    8.14
  -3   3  -4   72.31    6.49
  -3   3  -4   73.40    9.79
   3   3   4   72.04    9.45
   3   3   4   80.80    8.59
  -3   3  -4   78.02    9.17
   4  -3   4  370.31   20.25
   4  -3   4  394.17   19.89
  -4  -3  -4  376.22   19.01
  -4  -3  -4  383.28   22.51
  -4   3  -4  397.33   22.22
   4   3   4  381.28   21.04
   4   3   4  382.61   20.36
  -4   3  -4  390.84   19.86
  -5  -3  -4  172.41   15.86
  -5  -3  -4  174.55   17.41
   5  -3   4  162.74   14.06
   5   3   4  166.19   15.29
   5   3   4  183.16   15.37
  -5   3  -4  181.85   17.35
  -6  -3  -4    3.52    7.49
   6  -3   4    8.33    6.08
  -6   3  -4   22.31   11.53
  -7  -3  -4   39.90   12.02
   7  -3   4   83.96   13.40
   7   3   4   85.28   14.28
  -7   3  -4   53.43   13.07
  -8  -3  -4  122.88   20.65
   8  -3   4  143.21   18.63
  -8   3  -4  126.67   20.58
   8   3   4  128.51   18.38
   9  -3   4   94.31   15.63
  -9  -3  -4   55.91   16.69
  -9   3  -4   94.79   20.65
   9   3   4   78.99   15.28
   9  -4  -4   67.44   12.69
  -9  -4   4   44.72   17.47
  -9   4   4   60.22   15.49
   9   4  -4   78.34   15.58
  -8  -4   4   -0.98    9.58
   8  -4  -4    6.76    6.42
   8   4  -4   20.54    9.21
  -8   4   4   15.14    9.74
   7  -4  -4    5.05    5.72
  -7  -4   4   11.75    9.95
   7   4  -4    1.34    6.02
  -7   4   4   12.44    9.10
   6  -4  -4   13.49    6.13
  -6  -4   4   17.35   10.55
   6   4  -4    7.53    8.10
  -6   4   4   13.09    7.80
  -5  -4   4   71.15   14.34
   5  -4  -4   93.80   10.24
   5  -4  -4   88.27    9.17
  -5   4   4   91.18    9.58
   5   4  -4  120.06   14.33
  -5   4   4   97.28   13.44
   4  -4  -4   72.01    7.92
  -4  -4   4   81.50   10.33
  -4  -4   4   91.50   14.46
  -4   4   4   69.31    9.96
  -4   4   4   70.29    7.12
   4   4  -4   85.72   10.78
   4   4  -4   84.45   15.03
  -3  -4   4   32.09    8.09
  -3  -4   4   42.76    6.82
   3  -4  -4   42.65    5.68
  -3   4   4   39.27    5.28
  -3   4   4   36.28    6.63
   3   4  -4   27.65    7.87
   3   4  -4   34.99    6.64
  -2  -4   4   63.20   10.43
  -2  -4   4   63.00    6.52
   2  -4  -4   66.46    4.76
  -2   4   4   61.22    5.89
  -2   4   4   73.12    9.56
   2   4  -4   73.35    8.77
   2   4  -4   71.69   10.83
   1  -4  -4  117.85    9.21
  -1  -4   4  122.37    8.93
  -1  -4   4  126.30    8.98
  -1  -4   4  128.12    8.38
   1   4  -4  136.32    9.70
   1   4  -4  124.07   12.20
  -1   4   4  118.69    6.65
  -1   4   4  136.34    9.84
  -1   4   4  128.18    5.58
   0  -4   4  490.50   19.31
   0  -4   4  490.62   19.12
   0  -4  -4  494.03   19.46
   0   4   4  501.48   19.05
   0   4  -4  483.78   19.86
   0   4  -4  481.10   19.22
   0   4   4  468.42   15.24
  -1  -4  -4   50.72    4.01
   1  -4   4   49.68    6.46
  -1  -4  -4   44.92    6.03
   1  -4   4   45.93    6.52
  -1  -4  -4   37.74    5.00
   1  -4   4   42.17    5.17
  -1   4  -4   49.33    7.12
   1   4   4   45.83    5.06
   1   4   4   46.46    4.65
  -1   4  -4   48.75    6.26
  -2  -4  -4  126.65    7.90
  -2  -4  -4  132.17    9.82
   2  -4   4  133.69    9.79
   2  -4   4  134.05    9.42
   2   4   4  136.79    9.08
   2   4   4  133.01    9.42
  -2   4  -4  131.39    7.80
  -2   4  -4  125.81   10.39
  -2   4  -4  118.17    8.94
  -3  -4  -4  163.04   12.97
   3  -4   4  177.33   11.80
   3  -4   4  181.96   12.56
  -3  -4  -4  170.75   10.82
  -3   4  -4  166.48   11.55
  -3   4  -4  182.62   10.51
   3   4   4  186.23   12.25
  -3   4  -4  182.15   13.46
   3   4   4  164.25   12.27
   4  -4   4  106.69   10.35
   4  -4   4  101.34   12.15
  -4  -4  -4  113.63   12.51
  -4  -4  -4   93.19    9.56
  -4   4  -4   92.43   11.21
  -4   4  -4  119.04   12.39
  -4   4  -4   91.00    8.80
   4   4   4   96.88   11.89
   4   4   4   83.66   11.46
  -5  -4  -4   44.43    9.16
  -5  -4  -4   68.60   13.53
   5  -4   4   53.39    9.65
   5   4   4   45.71    9.92
  -5   4  -4   70.92   12.09
   5   4   4   50.33   10.76
  -5   4  -4   68.87   10.57
   6  -4   4   29.97    8.62
  -6  -4  -4   18.80    9.72
  -6   4  -4   43.73    8.62
  -6   4  -4   40.80   11.23
   6   4   4   40.07   10.47
  -7  -4  -4   33.84   12.88
   7  -4   4   21.09    8.48
  -7   4  -4   27.60   11.78
   7   4   4   27.63    9.45
   8  -4   4   18.64    8.31
  -8  -4  -4   40.99   13.91
  -8   4  -4   15.74   10.29
   8   4   4   19.93    9.26
   9  -4   4    1.35    8.32
  -9  -4  -4   12.07   13.06
   9   4   4   -2.50    7.97
  -9   4  -4    0.21    8.85
  -9  -5   4   23.31   13.64
   9   5  -4   59.46   14.07
  -9   5   4   53.73   15.89
   8  -5  -4   39.85    9.59
  -8  -5   4   49.99   15.30
   8   5  -4   51.35   12.62
  -8   5   4   46.46   13.04
   7  -5  -4    7.19    5.72
  -7  -5   4   47.88   13.81
   7   5  -4   26.84    8.96
  -6  -5   4   21.30   11.08
   6  -5  -4   33.05    7.00
   6   5  -4   44.34   10.00
  -6   5   4   40.00   10.12
  -5  -5   4  100.01   16.92
   5  -5  -4  114.30   11.10
  -5   5   4  112.46   14.42
   5   5  -4  140.29   13.94
  -5   5   4  108.40   10.56
   4  -5  -4  109.74    9.26
  -4  -5   4   99.66   15.54
  -4  -5   4   99.75   10.22
   4   5  -4  110.85   14.76
  -4   5   4   96.42   11.60
  -4   5   4  110.77    8.94
   4   5  -4  114.83   11.60
  -3  -5   4    7.37    4.11
  -3  -5   4    5.46    6.59
   3  -5  -4    8.91    3.10
  -3   5   4   12.46    3.09
  -3   5   4   18.36    4.95
   3   5  -4    8.75    5.81
   3   5  -4    7.85    5.05
  -3   5   4    6.84    5.12
  -2  -5   4   37.97    8.79
   2  -5  -4   31.66    2.55
   2  -5  -4   32.45    2.81
  -2  -5   4   36.48    6.04
  -2   5   4   28.93    3.05
   2   5  -4   30.59    7.66
  -2   5   4   29.98    6.70
   2   5  -4   39.33    6.89
  -2   5   4   33.41    4.69
   1  -5  -4  321.31   17.03
  -1  -5   4  309.22   15.29
  -1  -5   4  342.12   15.53
  -1  -5   4  326.86   14.70
  -1   5   4  329.28   11.13
  -1   5   4  368.68   16.83
   1   5  -4  318.87   15.88
  -1   5   4  330.75   10.10
   1   5  -4  325.15   19.84
   0  -5   4  251.74   13.30
   0  -5   4  267.05   13.29
   0  -5  -4  271.98   14.41
   0   5   4  287.54    9.82
   0   5   4  286.52   14.10
   0   5  -4  285.56   14.67
   0   5  -4  273.86   13.86
   0   5   4  274.25    8.78
   1  -5   4   -2.99    2.54
   1  -5   4    0.37    2.70
   1  -5   4   -0.31    2.71
  -1  -5  -4   -0.39    2.80
  -1  -5  -4   -0.10    0.65
  -1   5  -4    4.60    3.19
  -1   5  -4    4.38    4.26
   1   5   4    1.65    2.14
   1   5   4    2.77    2.37
   2  -5   4  135.29    9.57
  -2  -5  -4  137.17   10.27
  -2  -5  -4  127.91    8.05
   2  -5   4  137.75   10.16
  -2  -5  -4  143.46    9.88
   2  -5   4  110.22    8.95
  -2   5  -4  138.39   11.02
  -2   5  -4  114.36    8.97
  -2   5  -4  151.76    8.95
   2   5   4  135.54    9.20
  -3  -5  -4  248.19   13.54
   3  -5   4  277.03   15.05
  -3  -5  -4  259.51   16.37
   3  -5   4  278.90   16.05
  -3   5  -4  249.54   14.48
  -3   5  -4  268.05   16.63
   3   5   4  280.29   16.03
  -3   5  -4  275.64   13.81
   3   5   4  274.04   15.39
   4  -5   4   49.84    8.14
   4  -5   4   52.65    9.43
  -4  -5  -4   44.57    7.88
  -4  -5  -4   52.48   10.56
  -4   5  -4   41.08    9.61
  -4   5  -4   44.53    8.25
  -4   5  -4   42.94    7.65
   4   5   4   41.45    8.93
   4   5   4   53.85    9.22
  -5  -5  -4    7.22    5.68
  -5  -5  -4    2.61    7.47
   5  -5   4    0.06    5.42
  -5   5  -4   15.49    7.98
   5   5   4    5.62    6.15
   5   5   4   13.17    6.56
  -5   5  -4   12.12    5.53
   6  -5   4  118.71   14.72
  -6  -5  -4  142.16   19.93
  -6   5  -4  121.53   17.73
  -6   5  -4   94.60   13.03
   6   5   4   99.87   14.51
   7  -5   4   60.04   11.81
  -7  -5  -4   67.89   14.95
   7   5   4   73.12   13.22
  -7   5  -4   69.84   15.54
  -8  -5  -4   10.11   10.20
   8  -5   4   14.81    7.58
   8   5   4   26.94   10.03
  -8   5  -4   22.17   11.30
  -9  -5  -4   -1.82    9.32
   9  -5   4   -5.25    7.31
   9   5   4   -2.77    6.90
  -9   5  -4   10.61   10.58
  -9  -6   4   20.99   14.44
  -9   6   4    3.61   10.67
   9   6  -4    3.20    8.73
  -8  -6   4   21.36   11.30
   8   6  -4   13.12    8.12
  -8   6   4   15.40    9.89
  -7  -6   4    1.67    8.95
   7   6  -4    0.44    5.78
  -7   6   4    4.06    5.80
  -6  -6   4  100.80   18.80
   6   6  -4   75.08   12.67
  -5  -6   4   72.15   15.89
   5  -6  -4   34.97    7.40
  -5   6   4   49.50   10.01
  -5   6   4   34.85    6.97
   5   6  -4   39.02    9.61
   4  -6  -4    3.95    3.64
  -4  -6   4    1.87    6.71
  -4  -6   4    9.61    5.39
  -4   6   4   -1.33    6.05
   4   6  -4    7.61    5.17
   4   6  -4    8.17    4.84
  -4   6   4    6.36    3.83
  -4   6   4    9.78    5.37
   3  -6  -4    5.21    2.42
  -3  -6   4    6.92    6.88
  -3  -6   4    4.24    3.76
  -3   6   4    5.04    5.24
  -3   6   4    3.60    3.32
   3   6  -4   -6.08    4.24
  -3   6   4    9.87    2.99
   3   6  -4   13.65    5.52
   3   6  -4    9.25    4.50
  -2  -6   4  188.08   11.63
  -2  -6   4  168.91   15.91
  -2   6   4  207.36    9.22
  -2   6   4  203.84   14.06
   2   6  -4  198.81   15.87
  -2   6   4  189.07    7.37
   2   6  -4  177.43   12.95
  -1  -6   4   90.38    8.23
   1  -6  -4   98.87   10.09
  -1  -6   4   92.42    7.57
   1   6  -4   81.74    8.48
  -1   6   4   77.62    3.61
   1   6  -4  101.25   13.29
  -1   6   4   91.03    9.08
   0  -6   4   45.66    6.56
   0  -6   4   45.89    6.84
   0  -6   4   27.71    5.31
   0  -6  -4   36.93    6.94
   0   6   4   27.70    5.78
   0   6  -4   35.18    6.09
   0   6   4   32.49    2.23
   0   6  -4   37.92    6.67
   0   6   4   41.55    3.31
  -1  -6  -4    0.04    2.59
   1  -6   4    3.24    3.61
   1  -6   4    4.88    3.50
   1  -6   4    0.47    2.85
  -1  -6  -4    4.93    3.82
  -1   6  -4    1.92    3.25
   1   6   4   -1.34    1.97
   1   6   4    2.25    2.23
  -1   6  -4    1.28    3.88
  -2  -6  -4  153.86   11.09
  -2  -6  -4  137.76   10.58
   2  -6   4  139.46   10.54
   2  -6   4  144.86   10.60
   2  -6   4  143.28   10.08
  -2  -6  -4  136.78    7.99
  -2   6  -4  130.19   11.23
   2   6   4  145.05   11.89
  -2   6  -4  124.61    9.59
  -2   6  -4  150.62    9.61
   2   6   4  156.34    9.95
  -3  -6  -4   89.91    8.01
   3  -6   4   99.88    9.87
   3  -6   4   97.55    9.34
  -3  -6  -4   92.10   11.45
   3   6   4  110.98   10.57
  -3   6  -4  103.81    8.79
   3   6   4   98.40    9.78
  -3   6  -4   98.63   10.68
   4  -6   4   17.28    5.75
  -4  -6  -4   17.97    7.70
  -4  -6  -4   15.36    5.22
  -4   6  -4   19.17    6.18
   4   6   4   18.54    6.82
   4   6   4   31.08    7.95
  -4   6  -4   17.60    7.05
  -4   6  -4    9.50    5.21
  -5  -6  -4    8.67    7.44
  -5  -6  -4   10.76    5.58
   5  -6   4    9.17    5.69
  -5   6  -4    3.49    4.87
   5   6   4   -2.12    5.71
  -5   6  -4   12.55    8.38
   5   6   4   11.10    7.00
  -6  -6  -4   50.37   12.95
   6  -6   4   62.09   10.63
   6   6   4   85.17   13.60
  -6   6  -4   65.89   10.89
  -6   6  -4   29.47   10.15
  -7  -6  -4   56.65   14.64
   7  -6   4   74.55   12.86
  -7   6  -4   65.69   14.49
   7   6   4   66.36   13.17
   8  -6   4    2.93    6.12
  -8  -6  -4   17.46    9.27
  -8   6  -4    0.98    8.06
   8   6   4   11.08    8.86
   9  -6   4   -0.45    7.78
  -9  -6  -4  -16.86    7.77
   9   6   4    0.09    9.98
  -9   6  -4   -7.61    6.22
  -9  -7   4   23.10   15.01
  -9   7   4   25.35   13.22
   9   7  -4   14.87   10.33
  -8  -7   4    8.90   10.54
   8   7  -4  -14.78    4.49
  -8   7   4   -0.28    6.87
  -7  -7   4  184.58   26.51
  -7   7   4  205.58   20.13
   7   7  -4  175.00   20.40
  -6  -7   4   64.32   14.76
   6   7  -4   61.87   12.27
  -6   7   4   62.57   12.16
   5  -7  -4   94.14    9.76
  -5  -7   4   91.45   17.39
  -5   7   4  101.57   13.74
   5   7  -4  103.34   14.60
  -5   7   4   94.05   10.81
  -4  -7   4   -7.92    7.01
   4  -7  -4    8.89    3.85
  -4  -7   4    1.69    4.50
   4   7  -4   13.01    6.78
  -4   7   4   11.29    5.23
   4   7  -4   17.88    8.42
  -4   7   4    1.63    3.30
   3  -7  -4  209.98    8.43
  -3  -7   4  195.55   18.81
   3  -7  -4  221.15    8.45
  -3  -7   4  212.91   13.77
  -3   7   4  192.04   11.33
  -3   7   4  197.69    9.77
   3   7  -4  195.69   15.12
  -3   7   4  170.75   14.74
   3   7  -4  189.78   16.50
   3   7  -4  202.99   14.30
  -2  -7   4  229.66   13.45
  -2  -7   4  200.92   17.57
  -2  -7   4  220.94   12.86
  -2   7   4  217.51    9.23
  -2   7   4  203.68    7.59
   2   7  -4  222.17   14.62
  -2   7   4  214.18   14.70
   2   7  -4  200.07   16.48
  -1  -7   4  144.88    9.93
   1  -7  -4  129.40   11.46
  -1  -7   4  144.79   10.24
   1   7  -4  126.78   10.89
   1   7  -4  154.82   14.71
  -1   7   4  142.48   11.57
   0  -7   4    4.65    3.60
   0  -7  -4    8.41    4.85
   0  -7   4    9.83    3.76
   0  -7   4    6.90    4.49
   0   7  -4    2.80    4.14
   0   7   4    8.14    1.44
   0   7   4    5.96    3.86
   0   7  -4    9.50    3.94
  -1  -7  -4  110.66   10.40
   1  -7   4  128.66    9.70
   1  -7   4  119.81   10.12
   1  -7   4  128.87    9.06
   1   7   4  112.09    7.01
   1   7   4  117.51    7.90
  -1   7  -4   98.34    8.61
  -1   7  -4  127.40   10.91
   2  -7   4  269.29   15.71
  -2  -7  -4  282.78   16.08
   2  -7   4  241.52   13.49
  -2  -7  -4  287.04   15.45
  -2  -7  -4  257.12   10.99
   2  -7   4  268.57   14.87
  -2   7  -4  251.71   15.97
  -2   7  -4  269.83   14.37
   2   7   4  283.84   14.85
   2   7   4  257.83   13.38
  -2   7  -4  262.56   14.21
  -3  -7  -4  161.01   10.32
   3  -7   4  148.05   12.03
  -3  -7  -4  178.61   14.16
   3  -7   4  136.86   10.85
  -3   7  -4  157.03   12.05
   3   7   4  173.87   12.38
  -3   7  -4  153.61   11.59
   3   7   4  163.07   12.75
  -3   7  -4  163.89   13.76
   4  -7   4    5.63    4.86
  -4  -7  -4    4.23    4.11
  -4  -7  -4   15.18    7.84
  -4   7  -4    2.72    4.98
   4   7   4    7.30    5.34
  -4   7  -4    4.14    5.86
   4   7   4    1.55    5.68
   5  -7   4  103.51   12.45
  -5  -7  -4  100.68   12.25
  -5  -7  -4  102.40   16.06
  -5   7  -4   98.27   15.22
  -5   7  -4  113.93   13.99
   5   7   4   74.86   12.75
   5   7   4  108.46   14.38
   6  -7   4  200.87   16.25
  -6  -7  -4  191.48   20.72
  -6   7  -4  210.04   20.05
   6   7   4  201.98   18.02
  -7  -7  -4   74.04   15.55
   7  -7   4   76.31   12.16
   7   7   4   69.01   13.08
  -7   7  -4   64.53   14.39
  -8  -7  -4   31.23   13.50
   8  -7   4   19.89    9.10
   8   7   4    0.91    7.46
  -8   7  -4   20.62   10.43
  -9  -7  -4   19.90   14.23
   9  -7   4   28.88   11.05
  -9   7  -4    0.00   16.11
   9   7   4   21.73   10.87
  -9  -8   4   35.43   17.47
  -9   8   4   38.55   14.19
   9   8  -4   22.26   11.99
  -8  -8   4   23.71   12.02
   8   8  -4   15.15    9.77
  -8   8   4   19.71   10.99
  -7  -8   4   38.37   14.52
   7   8  -4   40.09   11.69
  -7   8   4   53.29   12.24
  -6  -8   4   13.31   10.04
   6   8  -4   10.03    7.92
  -6   8   4   10.77    7.01
  -5  -8   4   61.88   15.04
   5  -8  -4   67.48    8.63
  -5   8   4   77.30    9.51
   5   8  -4   68.76   11.77
  -5   8   4   71.09   11.44
   4  -8  -4   62.66    6.28
  -4  -8   4   67.81   10.76
  -4  -8   4   40.86   12.44
  -4   8   4   48.47    8.18
   4   8  -4   53.87   11.83
   4   8  -4   50.20   10.12
  -4   8   4   47.81    6.78
  -3  -8   4   76.90    9.86
  -3  -8   4   79.13   14.81
  -3   8   4   88.57   13.15
   3   8  -4   85.24   11.39
   3   8  -4  100.70   15.02
  -3   8   4   85.63    6.37
   3   8  -4  104.01   13.34
  -3   8   4   97.25    7.89
   2  -8  -4   15.82    5.75
  -2  -8   4   14.40    8.17
  -2  -8   4   20.09    5.20
  -2  -8   4   31.14    6.63
  -2   8   4   14.72    5.84
  -2   8   4   21.91    3.11
  -2   8   4   17.83    2.19
   2   8  -4   21.99    6.58
   2   8  -4   25.28    8.11
  -1  -8   4   55.63    7.57
  -1  -8   4   58.33    7.55
   1  -8  -4   50.08    9.30
   1   8  -4   42.23    9.93
   1   8  -4   54.33    8.58
   0  -8   4   83.27    7.65
   0  -8   4   76.10    7.10
   0  -8   4   67.99    7.44
   0  -8   4   79.19   10.22
   0  -8  -4   58.82    9.73
   0   8   4   70.91    9.94
   0   8  -4   90.50    9.73
   0   8  -4   70.86    8.74
   0   8   4   76.51    4.96
   0   8   4   65.79    3.73
   0   8  -4   86.26   12.86
   1  -8   4  159.66   12.44
   1  -8   4  128.01    9.97
   1  -8   4  135.80    9.44
  -1  -8  -4  145.51   12.40
  -1   8  -4  167.63   12.86
   1   8   4  136.44    8.07
   1   8   4  147.60    9.12
  -1   8  -4  146.37   10.40
  -2  -8  -4   12.71    5.15
  -2  -8  -4   18.31    6.56
   2  -8   4   10.53    4.81
   2  -8   4   19.36    4.93
   2  -8   4   12.36    5.52
  -2  -8  -4   13.88    2.67
   2   8   4   19.49    5.31
  -2   8  -4   15.99    4.77
   2   8   4   17.03    4.79
  -2   8  -4   31.35    7.75
  -2   8  -4    5.55    4.00
  -3  -8  -4   26.56    5.29
  -3  -8  -4   27.05    9.03
   3  -8   4   28.37    6.99
  -3  -8  -4   27.79    7.54
   3  -8   4   38.04    6.81
  -3   8  -4   46.11    7.51
   3   8   4   27.92    6.66
   3   8   4   30.90    7.57
  -3   8  -4   31.57    8.25
  -3   8  -4   48.24    8.22
  -4  -8  -4   95.67   13.97
  -4  -8  -4   75.73    9.48
   4  -8   4   90.29   10.48
  -4   8  -4   85.75   13.09
   4   8   4   94.86   13.31
   4   8   4   88.42   11.98
  -5  -8  -4   91.95   11.98
   5  -8   4  103.68   11.12
  -5  -8  -4  100.05   15.89
  -5   8  -4   97.62   13.23
   5   8   4  111.52   14.43
  -5   8  -4  100.09   14.70
   5   8   4   76.32   12.83
  -6  -8  -4   -3.99    6.97
   6  -8   4    9.08    5.71
   6   8   4   -3.00    5.36
  -6   8  -4    3.80    7.47
  -7  -8  -4   -7.39    6.54
   7  -8   4    0.81    5.88
   7   8   4    1.93    7.03
  -7   8  -4    6.75    7.68
  -8  -8  -4   13.65   12.34
   8  -8   4   38.99    9.83
  -8   8  -4   41.78   13.18
   8   8   4   26.89   11.56
   9  -8   4   44.51   11.76
  -9  -8  -4   37.82   16.19
  -9   8  -4   38.01   14.02
  -9  -9   4    5.10   12.68
  -9   9   4   -0.42    9.03
  -8  -9   4   -0.13    8.22
   8   9  -4   -0.45    7.08
  -8   9   4   -3.09    6.39
  -7  -9   4   21.29   11.32
  -7   9   4   33.65   11.03
   7   9  -4   48.08   12.21
  -6  -9   4   30.46   13.01
   6   9  -4   21.68    8.50
  -6   9   4    8.96    6.75
   5  -9  -4   24.08    5.39
  -5  -9   4   10.65    9.43
  -5   9   4   31.84    7.49
  -5   9   4   28.13    6.65
   4  -9  -4    1.91    2.37
  -4  -9   4    1.77    4.98
  -4  -9   4    2.97    8.24
   4   9  -4   -1.74    5.97
   4   9  -4    9.29    7.06
  -4   9   4    1.90    3.56
   4   9  -4   -6.35    6.84
  -4   9   4    1.30    4.33
  -3  -9   4   75.48   14.74
  -3  -9   4   99.16   11.58
  -3  -9   4   92.69   11.24
  -3   9   4   85.53    7.63
   3   9  -4   74.88   11.91
  -3   9   4   72.46    5.99
   3   9  -4   91.79   14.66
   3   9  -4   98.28   12.25
  -2  -9   4   11.78    4.79
   2  -9  -4   -1.30    5.81
  -2  -9   4    1.26    4.35
  -2   9   4    5.87    4.97
  -2   9   4    6.13    2.25
   2   9  -4    3.85    6.51
   2   9  -4    5.32    5.10
  -2   9   4    3.00    1.42
  -1  -9   4   20.45    5.40
   1  -9  -4   17.89    6.93
  -1  -9   4   20.36    5.01
   1   9  -4   23.30    8.74
  -1   9   4    8.75    5.74
   1   9  -4   21.53    6.40
   0  -9   4   18.84    4.68
   0  -9   4   13.33    4.10
   0  -9  -4   23.83    8.00
   0  -9   4   31.36    7.70
   0   9   4   -0.34    4.69
   0   9  -4   12.07    7.00
   0   9  -4   10.31    5.52
   0   9   4   19.24    3.17
   0   9  -4   29.47    6.09
   1  -9   4  166.78   13.52
   1  -9   4  156.16   10.03
   1  -9   4  159.73   13.52
  -1  -9  -4  166.05   13.92
  -1  -9  -4  142.13    8.38
   1   9   4  158.43    8.96
  -1   9  -4  162.00   11.76
   1   9   4  162.70   10.00
  -1   9  -4  167.01   13.60
   2  -9   4   49.26    7.90
   2  -9   4   48.54    9.94
  -2  -9  -4   50.71    9.29
  -2  -9  -4   46.30    8.07
   2  -9   4   37.21    6.18
  -2  -9  -4   40.13    2.87
  -2   9  -4   38.26    8.34
  -2   9  -4   40.88    6.63
   2   9   4   43.80    6.77
   2   9   4   38.98    7.17
  -3  -9  -4    9.15    3.84
  -3  -9  -4    9.66    5.81
  -3  -9  -4    6.56    5.93
   3  -9   4    9.64    6.23
   3  -9   4   10.56    4.81
  -3   9  -4   10.25    5.58
   3   9   4   16.12    6.37
  -3   9  -4    6.91    6.14
  -3   9  -4    8.80    6.58
   3   9   4   10.78    5.98
  -4  -9  -4   11.62    8.82
  -4  -9  -4   21.48    5.91
   4  -9   4   16.06    5.46
   4   9   4   21.89    8.51
   4   9   4   28.51    7.79
  -4   9  -4    9.37    5.95
  -4   9  -4   20.13    8.18
  -5  -9  -4   11.41    6.41
  -5  -9  -4    8.62    8.45
   5  -9   4   19.18    6.32
   5   9   4   12.31    6.97
  -5   9  -4   17.37    8.46
   5   9   4    6.36    7.03
   6  -9   4    2.81    5.41
  -6  -9  -4    0.34    8.22
  -6   9  -4    8.56    7.64
   6   9   4    7.67    6.99
  -7  -9  -4   -3.43   15.52
   7  -9   4    3.42    5.92
  -7   9  -4   13.37    7.54
   7   9   4    4.51    7.40
   8  -9   4    1.77    7.08
  -8  -9  -4    5.62   11.56
   8   9   4   -9.15    7.53
  -8   9  -4   -1.25    8.19
  -8 -10   4   28.11   13.66
  -8  10   4   77.67   16.83
   8  10  -4   57.54   13.86
  -7 -10   4   63.94   17.52
   7  10  -4   98.02   16.19
  -7  10   4   68.92   13.53
  -6 -10   4   -2.07    8.19
   6  10  -4    2.40    6.68
  -6  10   4    1.96    5.95
  -5 -10   4  192.74   25.88
   5 -10  -4  199.96   11.21
   5  10  -4  229.49   20.04
  -5  10   4  228.47   16.55
   5  10  -4  216.90   18.38
  -4 -10   4  125.76   12.69
  -4 -10   4  144.85   21.54
   4  10  -4  139.22   19.08
  -4  10   4  173.67   12.61
   4  10  -4  157.77   15.13
  -4  10   4  162.21   10.65
  -3 -10   4   85.55   11.39
  -3 -10   4  111.69   11.31
  -3 -10   4   80.29   16.09
   3  10  -4  141.19   18.28
   3  10  -4   97.53   13.51
  -3  10   4  108.87    8.25
  -3  10   4  112.44    7.25
  -2 -10   4   -0.97    3.86
  -2 -10   4   -1.83    3.75
   2 -10  -4   -2.69    4.93
  -2  10   4    1.10    1.95
   2  10  -4    3.43    7.16
   2  10  -4    7.31    5.75
  -1 -10   4  258.27   13.89
  -1 -10   4  257.41   17.17
   1 -10  -4  275.20   19.86
  -1 -10   4  266.89   14.52
  -1  10   4  243.79    7.34
   1  10  -4  267.87   20.59
  -1  10   4  252.03    8.16
   1  10  -4  262.74   17.00
  -1  10   4  246.77    7.86
  -1  10   4  231.25    7.27
   0 -10   4  215.69   12.03
   0 -10   4  199.81   11.81
   0 -10  -4  215.47   17.42
   0 -10   4  208.21   15.85
   0  10  -4  186.74   13.27
   0  10  -4  191.20   14.71
   0  10   4  200.72    9.36
   0  10   4  183.46    8.22
   0  10  -4  172.13   17.12
   0  10   4  213.61   15.85
   1 -10   4  242.42   12.68
   1 -10   4  234.79   14.52
   1 -10   4  235.31   17.23
  -1 -10  -4  221.58   17.21
   1 -10   4  234.76   12.56
  -1  10  -4  232.67   16.56
   1  10   4  245.85   12.90
   1  10   4  249.70   11.87
  -1  10  -4  212.05   14.37
   2 -10   4   11.40    5.00
  -2 -10  -4   12.88    6.98
   2 -10   4    8.15    6.47
   2 -10   4    9.53    4.08
  -2  10  -4    4.56    4.12
   2  10   4   12.20    5.08
  -2  10  -4    3.54    6.08
   2  10   4    9.62    4.72
  -3 -10  -4   53.79   10.89
   3 -10   4   31.17    9.61
   3 -10   4   56.56    7.83
  -3 -10  -4   52.78   10.44
  -3  10  -4   40.40    9.77
  -3  10  -4   40.17    8.95
   3  10   4   39.37    8.76
   3  10   4   54.41    8.90
  -4 -10  -4  132.70   10.87
  -4 -10  -4  139.70   14.79
  -4 -10  -4  119.31   16.26
   4 -10   4  167.36   11.80
   4  10   4  117.89   14.89
   4  10   4  146.80   13.81
  -4  10  -4  151.64   15.81
  -5 -10  -4  161.21   15.73
  -5 -10  -4  157.93   20.81
   5 -10   4  154.46   12.59
  -5  10  -4  177.24   17.89
   5  10   4  163.78   16.02
   5  10   4  174.34   18.08
  -6 -10  -4    1.03    8.72
   6 -10   4    1.59    5.06
  -6  10  -4    4.90    6.91
   6  10   4    7.65    7.13
   7 -10   4    6.45    6.12
   7  10   4   46.52   11.67
  -7  10  -4   15.00    8.50
  -8 -10  -4  158.21   25.47
   8 -10   4  104.99   14.05
  -8  10  -4  128.88   21.77
   8  10   4  151.99   20.85
  -8 -11   4   -6.03    9.45
   8  11  -4   -2.91    8.54
  -8  11   4    9.57    9.87
  -7 -11   4   57.84   17.88
  -7  11   4   69.03   13.34
   7  11  -4   40.30   11.85
  -6 -11   4    9.47   13.39
   6  11  -4   40.74   11.65
   6  11  -4   34.82   11.03
  -6  11   4   30.93    9.38
  -5 -11   4   31.85   12.42
   5 -11  -4   29.97    4.08
   5 -11  -4   26.64    3.49
  -5  11   4   32.31    7.97
   5  11  -4   40.82   10.03
   5  11  -4   39.13   10.37
  -4 -11   4   -7.49    5.85
  -4 -11   4    4.97    5.34
  -4 -11   4   -2.20    4.36
   4  11  -4    1.33    5.41
  -4  11   4   -6.04    3.18
   4  11  -4    5.19    6.09
  -4  11   4    0.81    3.96
  -3 -11   4   76.87   10.57
  -3 -11   4  103.15   12.16
  -3 -11   4  105.08   17.71
  -3  11   4   96.76    7.85
   3  11  -4  108.72   14.61
  -3  11   4   99.18    6.86
   2 -11  -4   46.84   11.78
  -2 -11   4   65.76    9.34
  -2 -11   4   78.62    9.95
  -2  11   4   60.08    4.40
  -2  11   4   59.80    4.23
   2  11  -4   48.26   10.06
   2  11  -4   58.48   12.71
  -1 -11   4   30.68    6.07
  -1 -11   4   43.81    6.92
   1 -11  -4   34.96   10.53
  -1 -11   4   39.86    8.64
   1  11  -4   33.94   10.31
  -1  11   4   32.36    3.13
  -1  11   4   38.76    3.01
  -1  11   4   35.67    2.98
   1  11  -4   24.14    7.44
  -1  11   4   39.49    3.43
   0 -11   4   -2.78    2.73
   0 -11  -4    0.55    5.89
   0 -11   4    0.58    3.25
   0 -11   4   -3.47    5.59
   0  11  -4   -0.65    6.12
   0  11  -4    4.84    5.61
   0  11  -4   -4.82    3.66
   0  11   4    3.37    2.56
   0  11   4    1.50    2.46
   0  11   4    6.21    2.59
   1 -11   4   64.31    8.97
   1 -11   4   63.21   11.50
   1 -11   4   76.60    7.29
   1 -11   4   76.17    7.47
  -1 -11  -4   56.55   11.49
  -1  11  -4   67.51   10.90
   1  11   4   54.99    7.50
  -1  11  -4   83.47   11.00
   2 -11   4   52.61   11.23
   2 -11   4   57.11    6.89
  -2 -11  -4   58.51   11.55
   2  11   4   59.19    8.93
   2  11   4   55.11    7.87
  -2  11  -4   60.65    9.29
  -2  11  -4   54.75   10.44
  -3 -11  -4   22.63    3.48
   3 -11   4   27.96    5.58
  -3 -11  -4   24.18    3.95
  -3 -11  -4   22.28    8.83
  -3 -11  -4   29.66    8.67
   3 -11   4   21.03    9.17
   3  11   4   37.02    7.89
   3  11   4   26.95    7.43
  -3  11  -4   29.60    8.70
  -4 -11  -4   13.34    5.09
   4 -11   4   28.19    5.68
  -4 -11  -4   27.91    9.58
   4  11   4   25.95    7.26
   4  11   4    1.96    6.87
  -4  11  -4   29.02    9.03
  -5 -11  -4   24.09    7.26
  -5 -11  -4    8.80    8.47
   5 -11   4   33.99    7.05
  -5  11  -4   29.49    9.13
   5  11   4   18.81    9.87
   6 -11   4   63.36    9.70
  -6 -11  -4   36.23   12.03
   6  11   4   38.35   11.29
  -6  11  -4   30.76   11.15
  -7 -11  -4   34.31   15.10
   7  11   4   15.36    9.17
  -7  11  -4   23.02   10.72
  -8 -11  -4   18.37   12.91
   8 -11   4    6.83    6.37
   8  11   4   12.41    8.78
  -8  11  -4   16.51   10.92
  -8 -12   4   15.81   12.05
  -8  12   4    0.88    9.08
   8  12  -4   19.40   11.10
  -7 -12   4   21.94   12.99
   7  12  -4   32.98   11.69
  -7  12   4    4.51    6.83
   7  12  -4   30.15   11.46
   6 -12  -4    8.43    3.70
   6  12  -4   19.88    9.34
  -6  12   4   -0.64    4.74
   6  12  -4    6.27    7.80
  -5 -12   4    6.95    9.99
   5  12  -4   20.79    8.52
   5  12  -4   26.37    9.07
  -5  12   4   13.30    6.45
  -4 -12   4   -7.35    6.88
  -4 -12   4   16.32    6.91
  -4 -12   4   10.24    7.08
   4  12  -4    4.84    6.89
  -4  12   4   13.39    4.94
  -3 -12   4   38.31    8.05
  -3 -12   4   35.94    8.35
   3  12  -4   47.07   10.60
  -3  12   4   50.73    5.76
  -3  12   4   46.58    5.74
  -2 -12   4   13.75    5.72
  -2 -12   4   20.45    6.02
  -2 -12   4   14.11    6.69
   2 -12  -4   15.32    9.29
   2  12  -4   33.65    8.74
  -2  12   4   18.51    3.51
  -2  12   4   14.00    2.65
   2  12  -4   31.69   11.06
  -2  12   4   14.94    2.76
  -1 -12   4    1.88    3.74
   1 -12  -4   -0.69    6.69
  -1 -12   4    2.22    4.12
  -1 -12   4    0.07    4.94
   1  12  -4   -5.65    6.91
  -1  12   4    1.21    1.78
  -1  12   4    3.82    2.02
   1  12  -4    9.50    6.13
  -1  12   4   -0.73    1.62
   0 -12  -4   37.06   10.43
   0 -12   4   39.53   10.53
   0 -12   4   46.72    6.38
   0  12   4   53.91    5.93
   0  12  -4   49.86    9.95
   0  12   4   49.41    5.16
   0  12  -4   49.02   12.05
   0  12   4   48.57    5.38
  -1 -12  -4   71.75   13.16
   1 -12   4   71.77   12.82
   1 -12   4   78.83    7.28
  -1  12  -4   91.45   12.44
   1  12   4   85.62    8.64
   1  12   4   81.49    7.59
  -2 -12  -4   18.41    8.56
   2 -12   4   17.69    4.15
   2 -12   4   30.09    9.44
  -2  12  -4   26.73    8.86
   2  12   4    9.21    5.23
   2  12   4   18.91    6.36
   3 -12   4    2.06    3.18
  -3 -12  -4   -1.16    6.08
  -3 -12  -4    0.53    7.06
   3 -12   4    0.94    5.26
   3  12   4    0.04    4.52
  -3  12  -4   -0.15    6.14
   3  12   4   -1.94    4.73
  -4 -12  -4   48.75    6.60
   4 -12   4   52.60    7.23
  -4 -12  -4   39.32   11.03
  -4 -12  -4   64.41   12.84
   4  12   4   68.30   11.29
  -4  12  -4   48.48   10.51
   4  12   4   60.58   12.23
  -5 -12  -4   34.02   12.24
  -5 -12  -4   48.61    8.96
  -5 -12  -4   55.53   12.90
   5 -12   4   50.09    7.40
   5  12   4   45.79   13.20
   5  12   4   63.11   12.20
  -5  12  -4   68.49   13.36
   6 -12   4    9.56    5.42
  -6 -12  -4    4.18    8.01
  -6  12  -4    0.75    6.82
   6  12   4    0.84    6.10
  -7 -12  -4   -1.67    9.50
   7 -12   4  -13.16    4.70
   7  12   4    1.51    7.01
  -7  12  -4   -2.87    7.80
  -7 -13   4   66.55   19.15
   7  13  -4   52.05   13.26
  -7  13   4   74.50   13.94
   7  13  -4   90.62   18.54
   6  13  -4   45.35   12.10
   6  13  -4   43.87   11.69
  -6  13   4   27.37    7.83
  -5 -13   4   87.07   12.73
  -5 -13   4  118.93   22.49
  -5  13   4  126.67   22.45
   5  13  -4   74.81   14.75
  -4 -13   4   -3.09    7.55
  -4 -13   4   -3.18    4.78
  -4  13   4    4.97    4.38
  -4  13   4    1.45    4.07
   4  13  -4   13.08    7.36
  -3 -13   4   87.50   11.30
  -3 -13   4   66.66   10.05
   3  13  -4   70.56   14.95
   3  13  -4   64.87   11.96
  -3  13   4   85.84    6.92
  -3  13   4   74.70    6.53
  -2 -13   4  100.55    9.83
   2 -13  -4  111.26   17.58
  -2 -13   4  126.26   16.35
  -2 -13   4  102.06   10.00
   2  13  -4  107.47   17.05
   2  13  -4  146.12   14.49
  -2  13   4   99.28    6.07
  -2  13   4  107.52    5.53
  -1 -13   4  133.95    9.92
   1 -13  -4  118.44   18.28
  -1 -13   4  117.95    9.28
  -1  13   4  136.43    6.75
  -1  13   4  128.95    6.17
   1  13  -4  108.22   17.41
   1  13  -4  142.20   14.29
  -1  13   4  119.00    6.84
   0 -13   4    0.44    3.00
   0 -13   4   -5.06    5.70
   0 -13  -4    5.77    7.75
   0  13   4   -0.12    2.63
   0  13   4   -0.67    2.50
   0  13  -4    9.85    7.55
   0  13   4   -0.52    2.34
   0  13  -4    0.71    5.13
   1 -13   4   81.86    6.31
   1 -13   4   71.06    6.05
  -1 -13  -4   78.53   14.38
   1 -13   4   70.02   13.11
  -1  13  -4   80.43   12.24
   1  13   4   81.31    7.93
  -1  13  -4   59.94   12.86
   1  13   4   72.64    7.77
   1  13   4   54.76    7.81
   2 -13   4  221.55   19.84
  -2 -13  -4  235.34   19.47
   2 -13   4  220.83    9.77
   2 -13   4  216.37    9.86
   2  13   4  210.21   13.99
  -2  13  -4  229.66   17.71
   2  13   4  211.33   15.16
   3 -13   4   87.97    6.90
   3 -13   4   91.35    6.34
   3 -13   4   75.70   15.17
  -3 -13  -4   75.93   14.46
  -3 -13  -4   81.37   12.25
   3  13   4   89.92   11.34
   3  13   4   76.73   11.60
  -3  13  -4  111.23   14.43
  -4 -13  -4    0.19    2.84
  -4 -13  -4   -2.68    2.25
   4 -13   4   -0.36    3.02
  -4 -13  -4   -4.72    6.83
  -4 -13  -4   -6.57    6.93
  -4  13  -4    6.32    5.78
   4  13   4  -15.27    6.02
   4  13   4    2.69    4.62
  -5 -13  -4   38.23   11.64
  -5 -13  -4   48.02   12.93
  -5 -13  -4   27.66    6.65
   5 -13   4   31.72    5.34
   5  13   4   10.99   10.97
   5  13   4   48.75   10.86
  -5  13  -4   17.75    8.58
   6 -13   4  111.20    9.02
  -6 -13  -4   69.51   12.12
  -6 -13  -4  105.69   18.29
  -6 -13  -4   90.91   18.43
   6  13   4  108.95   16.65
  -6  13  -4  109.11   16.75
  -7 -13  -4   51.22   15.82
   7 -13   4   57.44    7.81
  -7 -13  -4   58.46   15.06
  -7  13  -4   46.56   12.55
   7  13   4   43.10   13.37
  -7 -14   4   -8.66   10.41
  -7  14   4  -11.52    6.17
   7  14  -4  -13.42    7.35
  -6 -14   4   71.08   19.74
  -6 -14   4   50.99   12.04
  -6  14   4   47.94   10.27
   6  14  -4   52.42   13.21
  -5 -14   4   72.87   12.55
  -5 -14   4   58.59   15.52
  -5  14   4   72.73   10.25
   5  14  -4   87.89   15.76
  -4 -14   4    9.24    7.13
  -4 -14   4    5.98    7.04
  -4  14   4   14.48    5.06
  -4  14   4   12.97    5.06
   4  14  -4    9.16    7.51
  -3 -14   4    3.90    5.16
  -3 -14   4    7.77    7.51
  -3 -14   4  -10.19    4.16
  -3  14   4    3.09    3.59
   3  14  -4   -0.41    5.86
   3  14  -4  -18.52    6.83
  -3  14   4    1.20    2.46
  -2 -14   4  116.64   10.55
   2 -14  -4  147.32   20.30
  -2 -14   4  125.65   17.85
  -2 -14   4  128.21   10.30
   2  14  -4  142.98   15.01
  -2  14   4  127.45    7.14
   2  14  -4  114.24   18.00
  -2  14   4  141.11    7.85
  -2  14   4  144.38    6.23
   1 -14  -4  101.07   16.08
  -1 -14   4  134.92    9.66
  -1 -14   4  134.71    9.11
  -1 -14   4  124.24   16.89
  -1  14   4  131.15    6.44
   1  14  -4  122.39   17.93
   1  14  -4  123.93   15.26
   0 -14   4    4.77    2.59
   0 -14   4    4.79    5.82
   0 -14   4    4.19    2.72
   0 -14  -4   -2.09    5.63
   0  14  -4    8.13    7.36
   0  14   4   -0.23    2.76
   0  14   4    2.32    3.13
   0  14  -4    8.90    7.15
   0  14   4    4.27    2.85
   1 -14   4   -0.10    6.72
  -1 -14  -4    7.86    6.59
   1  14   4   -3.51    2.98
   1  14   4   -0.28    3.63
  -1  14  -4  -15.12    5.44
   1  14   4   -1.19    3.50
  -1  14  -4    5.84    7.56
  -2 -14  -4  137.11   18.14
   2 -14   4  130.88   18.41
   2  14   4  131.14   12.40
   2  14   4  141.95   11.54
  -2  14  -4  112.99   14.51
   3 -14   4   60.51   13.50
  -3 -14  -4   48.91   11.83
   3  14   4   57.96   10.14
   3  14   4   68.97   10.58
  -3  14  -4   57.42   10.83
  -4 -14  -4   14.68    8.71
  -4 -14  -4    5.33    8.92
   4  14   4  -15.72    6.54
   4  14   4    8.54    5.89
  -4  14  -4    9.99    7.27
  -5 -14  -4  -24.30    7.49
  -5 -14  -4   -4.26    4.13
  -5 -14  -4    9.26    8.36
  -5 -14  -4    4.15    4.03
   5  14   4  -15.75   14.56
   5  14   4   -5.35    5.61
  -5  14  -4    9.30    7.22
  -6 -14  -4   38.11   12.76
  -6 -14  -4   61.27   16.68
   6  14   4   41.31   11.38
  -6  14  -4   54.37   12.63
  -7 -14  -4   23.65   13.81
  -7 -14  -4   53.42   15.76
   7  14   4   29.81   11.29
  -7  14  -4   36.80   11.00
  -6 -15   4   -0.34    6.33
  -6 -15   4   -5.19    9.97
  -6  15   4    7.72    6.22
   6  15  -4    0.93    7.37
  -5 -15   4   62.88   11.95
   5  15  -4   57.31   13.44
  -5  15   4   48.38    8.71
  -4 -15   4   85.30   12.34
  -4 -15   4   99.80   14.61
  -4  15   4  107.47    9.82
   4  15  -4   88.91   14.70
  -4  15   4   93.97    8.94
  -3 -15   4    2.06    5.52
  -3 -15   4   15.43    8.77
  -3 -15   4   -3.63    3.75
  -3  15   4   -0.21    2.31
   3  15  -4   -3.42    8.62
  -3  15   4   -5.28    3.09
   3  15  -4   -1.73    5.43
  -2 -15   4   31.35    5.86
  -2 -15   4   29.09    5.96
  -2 -15   4   40.19   10.94
   2 -15  -4   36.75   12.29
   2  15  -4   27.00   11.70
  -2  15   4   23.08    4.60
  -2  15   4   27.52    2.60
  -2  15   4   22.71    2.50
   2  15  -4   36.31   10.03
  -1 -15   4   75.14    6.38
  -1 -15   4   85.34   15.32
   1 -15  -4   26.43   10.90
  -1 -15   4   68.89    6.31
   1  15  -4   76.08   15.02
  -1  15   4   69.62    4.91
   1  15  -4   68.68   11.41
   0 -15  -4  102.31   17.53
   0 -15   4  105.06   16.44
   0  15   4  102.30    7.57
   0  15   4   98.97    8.23
   0  15  -4   89.83   16.32
   0  15  -4  109.20   14.56
  -1 -15  -4    2.43    7.47
   1 -15   4  -12.84    4.94
  -1  15  -4   -1.01    6.42
   1  15   4   13.01    4.78
   1  15   4    4.04    3.74
   1  15   4    9.18    4.45
  -1  15  -4   17.72    7.81
   2 -15   4   16.67    9.96
  -2 -15  -4   18.85    9.54
   2  15   4   21.04    7.31
  -2  15  -4   15.87    7.60
   2  15   4   28.28    7.03
  -3 -15  -4  112.07   17.74
   3 -15   4   79.45   16.25
   3  15   4  102.79   12.90
   3  15   4  109.63   14.43
  -3  15  -4  110.44   14.93
  -4 -15  -4   33.13   11.66
  -4 -15  -4   19.41    9.73
   4  15   4   30.33   10.88
  -4  15  -4   35.89    9.97
   4  15   4   41.33   10.50
  -5 -15  -4    9.46   10.68
  -5 -15  -4   12.55    9.03
  -5 -15  -4    4.84    3.00
   5  15   4   10.16    7.23
  -5  15  -4   16.46    8.29
  -6 -15  -4    3.68   11.73
  -6 -15  -4   10.03    5.07
  -6 -15  -4   22.53   11.94
  -6  15  -4   15.81   10.39
   6  15   4   10.79    7.37
  -6 -16   4    1.45    6.96
  -6 -16   4    1.99   10.61
   6  16  -4    9.87   10.08
  -6  16   4    3.76    6.17
  -5 -16   4   17.34    7.78
  -5  16   4   42.35    7.81
   5  16  -4   48.36   13.97
  -4 -16   4   14.96    7.87
  -4 -16   4   24.34   11.74
  -4  16   4   21.87    4.83
   4  16  -4   25.77   11.31
  -3 -16   4    3.78    5.26
  -3 -16   4   15.70    4.96
  -3 -16   4   22.65    9.64
   3  16  -4   19.01    8.17
  -3  16   4   14.60    2.81
  -3  16   4   11.13    3.28
  -2 -16   4    3.00    4.27
  -2 -16   4    0.21    7.48
   2 -16  -4   12.53    7.56
  -2 -16   4    4.43    3.73
   2  16  -4    2.80   11.04
   2  16  -4   15.67    7.21
  -2  16   4    8.27    3.91
   1 -16  -4   25.22   13.02
  -1 -16   4   29.01   10.85
   1  16  -4   47.81   11.03
   1  16  -4   11.77   10.09
  -1  16   4   22.12    3.23
  -1  16   4   25.33    3.21
   0 -16  -4   33.40   11.99
   0 -16   4   42.07   11.97
   0  16   4   41.67    6.23
   0  16  -4   52.68   13.56
   0  16  -4   54.49   10.93
   0  16   4   49.35    6.03
   1 -16   4   40.81   12.41
  -1 -16  -4    1.24    8.80
  -1  16  -4   48.59   10.87
   1  16   4   38.19    6.36
  -1  16  -4   24.08   11.11
   1  16   4   27.79    6.68
   1  16   4   23.43    6.22
   2 -16   4    6.78    8.22
  -2 -16  -4   15.73    8.84
   2  16   4   18.57    5.93
  -2  16  -4  -12.49    8.03
   2  16   4   -2.36    4.12
   2  16   4   -3.20    4.95
  -2  16  -4    7.84    6.41
  -3 -16  -4   23.72    9.87
   3 -16   4   26.27   11.15
   3  16   4   31.02    7.74
  -3  16  -4   30.62    9.03
   3  16   4   33.57    9.64
  -4 -16  -4    5.06    8.42
   4  16   4   11.59   10.75
   4  16   4   24.33    8.57
  -4  16  -4   24.96    9.52
  -5 -16  -4   12.41   10.43
  -5 -16  -4   20.35   10.42
   5  16   4   31.88   10.33
  -5  16  -4   30.65   10.31
  -6 -16  -4   -4.80    9.76
  -6 -16  -4    5.24   13.15
  -6 -16  -4    3.96    4.46
  -6  16  -4    8.29    9.33
   6  16   4   31.08   11.14
  -5 -17   4   19.74   12.86
  -5 -17   4   23.34    7.71
  -5  17   4    7.19    4.63
   5  17  -4   22.53   10.96
  -4 -17   4  151.02   12.47
  -4 -17   4  107.32   19.94
  -4  17   4  139.09    8.82
  -4  17   4  128.52    9.71
   4  17  -4  141.14   19.38
  -3 -17   4   31.68    6.55
  -3 -17   4   27.17   12.49
  -3 -17   4   26.17    5.13
  -3  17   4   34.12    6.47
   3  17  -4   35.14   10.98
  -2 -17   4    2.06    3.98
  -2 -17   4   -1.42    7.64
   2 -17  -4   -6.76    6.39
   2  17  -4    6.21   10.15
   2  17  -4    2.84    5.94
  -1 -17   4   20.22    9.67
   1 -17  -4   34.66   11.73
   1  17  -4   32.25    9.28
  -1  17   4   38.32    3.70
   1  17  -4   17.98   12.90
  -1  17   4   41.80    3.66
   0 -17  -4  112.89   19.96
   0 -17   4  139.82   20.26
   0  17   4  143.29    9.34
   0  17  -4  147.98   21.58
   0  17   4  146.91   10.06
   0  17  -4  174.79   16.79
  -1 -17  -4   80.34   16.34
   1 -17   4   84.23   17.13
   1  17   4   60.47    9.14
  -1  17  -4   93.30   13.97
  -1  17  -4   74.72   14.98
   1  17   4   58.23    9.30
  -2 -17  -4    1.49    8.38
   2 -17   4   -6.06    6.93
   2  17   4  -11.34    3.89
   2  17   4    0.74    3.94
  -2  17  -4    3.87    5.85
   2  17   4   -7.78    5.05
  -2  17  -4  -14.85    8.88
  -3 -17  -4   21.31   10.61
   3 -17   4    9.01    9.42
  -3  17  -4   24.37    8.82
   3  17   4   21.50    7.57
   3  17   4   11.00    9.00
   3  17   4   25.43    8.06
  -4 -17  -4   83.44   17.51
  -4  17  -4   72.51   14.16
   4  17   4   75.46   12.87
   4  17   4   44.67   18.58
  -5 -17  -4   81.48   17.92
  -5 -17  -4   87.94   16.25
   5  17   4   80.39   15.06
  -5  17  -4   68.71   14.91
  -4 -18   4  -13.83    7.82
  -4 -18   4   -3.59    3.91
   4  18  -4  -10.92    4.91
  -3 -18   4   37.39   14.70
  -3 -18   4   35.50    4.31
   3  18  -4   26.97   10.56
  -2 -18   4   62.54   16.18
   2 -18  -4   49.39   15.62
   2  18  -4   66.65   12.24
   2  18  -4   42.99   16.40
   1 -18  -4    8.22    9.25
  -1 -18   4    9.80    8.49
   1  18  -4  -14.09   10.85
   1  18  -4   15.70    7.86
   0 -18   4   13.33    9.46
   0 -18  -4   -0.05    8.44
   0  18  -4   21.76   12.25
   0  18   4   11.34    3.80
   0  18  -4    6.96    6.85
  -1 -18  -4    8.15    9.77
   1 -18   4   16.53    9.49
  -1  18  -4   24.53   12.73
   1  18   4   40.92    6.76
  -1  18  -4   26.21    8.65
  -2 -18  -4   31.05   12.87
   2 -18   4   41.10   13.84
  -2  18  -4   58.99   11.74
   2  18   4   37.93    9.04
   2  18   4   55.25    9.29
  -2  18  -4   33.50   12.52
   2  18   4   24.79    8.01
  -3 -18  -4    3.01    9.01
   3 -18   4   24.05   12.13
   3  18   4    6.20    9.29
  -3  18  -4  -21.73   13.02
  -3  18  -4   26.99    9.22
   3  18   4   20.39    7.78
   3  18   4    3.82    6.38
  -4 -18  -4   -1.14    9.03
   4  18   4    0.70    6.19
  -4  18  -4    1.14    7.05
   4  18   4    3.91    8.29
   3  19  -4    9.10    7.48
  -2 -19   4   11.40    9.94
   2 -19  -4   -6.77    7.89
   2  19  -4    4.06    7.25
   1 -19  -4   17.06   10.76
  -1 -19   4   -6.87    7.18
   1  19  -4   11.19    7.47
   0 -19   4   -8.29    6.61
   0 -19  -4   15.84   10.24
   0  19  -4    7.50    6.64
   0  19   4    5.28    4.10
   0  19  -4  -17.28   12.51
   0  19   4    7.31    3.64
  -1 -19  -4   -4.56    9.57
   1 -19   4   -7.04    8.39
   1  19   4    2.41    5.62
  -1  19  -4   -3.51   16.29
   1  19   4    4.44    4.21
  -1  19  -4   -1.05    7.03
  -2 -19  -4   -7.96    8.85
   2 -19   4   20.34   11.53
   2  19   4  -11.43    6.08
   2  19   4    5.77    4.90
  -2  19  -4   -6.22    7.05
  -3 -19  -4    7.72   10.25
   3 -19   4   -4.28   10.27
  -3  19  -4    8.67    7.71
   3  19   4   -5.72    6.61
   3  19   4   -3.01    5.98
   2 -20  -4   83.65   19.31
  -2 -20   4  101.03   23.96
   2  20  -4   91.60   16.05
  -1 -20   4   38.74   14.03
   1  20  -4   45.76   11.52
   0 -20   4   -0.49    8.10
   0  20  -4   -4.93    7.16
   0  20   4   -9.91    3.04
   1 -20   4   28.63   11.48
  -1  20  -4   18.07    9.07
   1  20   4   13.08    7.00
   1  20   4   19.18    5.50
 -10   0   5  -13.32    9.54
  10   0  -5  -10.54    7.72
   9   0  -5    0.07    7.44
  -9   0   5  -15.13    8.85
   8   0  -5   -3.51    5.92
  -8   0   5    0.36    8.74
  -7   0   5    0.46    7.94
   7   0  -5    0.31    5.95
   6   0  -5    9.25    5.59
  -6   0   5    8.93    8.34
  -5   0   5   -4.27    5.87
   5   0  -5    8.26    5.43
   4   0  -5    3.58    5.36
  -4   0   5   -1.21    3.59
   4   0  -5    4.01    3.72
  -4   0   5    0.95    5.18
  -3   0   5   -1.09    2.77
   3   0  -5   -2.64    3.01
  -3   0   5   -5.11    4.13
   3   0  -5   -1.96    3.60
  -2   0   5    3.54    2.56
   2   0  -5    2.11    3.11
  -2   0   5   -1.15    3.95
   2   0  -5   -2.93    3.04
  -1   0   5   -2.02    4.50
   1   0  -5    1.91    4.23
   1   0  -5    0.80    3.09
  -1   0   5   -2.77    2.97
   0   0   5   -1.18    2.93
   0   0   5   -6.16    2.63
   0   0  -5    0.15    3.36
   1   0   5   -1.34    3.20
  -1   0  -5    1.06    3.43
  -1   0  -5    0.01    2.45
   1   0   5    0.06    3.26
  -2   0  -5   -1.51    3.54
  -2   0  -5    6.74    3.47
   2   0   5    1.38    3.63
   2   0   5   -0.52    3.07
  -3   0  -5   -4.99    2.49
   3   0   5   -0.41    3.75
  -3   0  -5    3.16    3.91
   3   0   5   -1.91    3.70
  -4   0  -5   -2.81    3.71
   4   0   5   -2.50    3.70
   4   0   5   -2.58    3.68
  -4   0  -5    1.07    5.41
   5   0   5   -3.51    4.84
  -5   0  -5    2.88    6.64
   6   0   5    3.01    6.74
  -6   0  -5    5.58    6.62
  -7   0  -5   24.37   10.54
   7   0   5   24.40    8.91
   8   0   5   -5.65    5.39
  -8   0  -5   10.07    7.84
   9   0   5   -2.26    7.21
  -9   0  -5   -4.27    8.65
 -10  -1   5  102.72   28.10
 -10   1   5  105.90   25.65
  10   1  -5  141.04   19.82
   9  -1  -5   24.26    9.54
  -9  -1   5    6.10   11.54
  -9   1   5   30.54   13.56
   9   1  -5   35.29   11.66
  -8  -1   5    6.40    9.76
   8  -1  -5   32.22    9.43
  -8   1   5   22.11   11.80
   8   1  -5    5.68    6.93
  -7  -1   5   29.38   12.08
   7  -1  -5   78.14   12.77
   7   1  -5   45.57    9.90
  -7   1   5   45.86   13.48
   6  -1  -5  196.29   15.94
  -6  -1   5  230.95   22.28
   6   1  -5  206.17   16.93
  -6   1   5  208.16   20.69
   5  -1  -5   94.40   11.35
  -5  -1   5   91.80   15.41
   5   1  -5   86.88   11.24
  -5   1   5   77.51   10.22
  -5   1   5   82.88   13.54
  -4  -1   5    9.04    7.03
  -4   1   5    7.27    5.58
   4   1  -5   17.51    6.44
  -4   1   5    4.85    3.61
   4   1  -5    9.28    4.53
  -3  -1   5  165.29   10.83
  -3  -1   5  148.84   13.95
   3  -1  -5  158.01   11.67
   3   1  -5  139.04   12.17
  -3   1   5  161.73   10.03
   3   1  -5  156.46   11.46
  -3   1   5  145.28   12.63
   2  -1  -5  208.36   12.07
  -2  -1   5  189.49   10.53
  -2  -1   5  190.43   14.49
   2  -1  -5  192.85   10.42
   2   1  -5  201.85   13.59
  -2   1   5  194.27   13.27
   2   1  -5  172.52   11.09
  -1  -1   5  257.84   12.73
   1  -1  -5  258.21   11.56
  -1  -1   5  246.43   15.39
   1  -1  -5  247.25   13.54
   1   1  -5  237.36   15.23
  -1   1   5  254.83   11.73
   1   1  -5  253.81   12.65
  -1   1   5  228.82   13.84
   0  -1   5   72.34    7.79
   0  -1  -5   63.91    5.41
   0  -1   5   67.05    6.93
   0  -1  -5   55.88    5.80
   0   1  -5   64.71    6.54
   0   1   5   65.15    5.22
   0   1   5   60.54    6.25
   0   1   5   65.68    6.14
   0   1  -5   60.41    7.24
  -1  -1  -5  120.89    5.58
   1  -1   5  129.41    9.03
  -1  -1  -5  118.23    8.57
   1  -1   5  130.43    9.07
  -1  -1  -5  116.77    7.69
  -1   1  -5  130.19    9.59
  -1   1  -5  130.00    8.64
   1   1   5  134.72    9.94
   2  -1   5  173.58   11.24
  -2  -1  -5  187.97   11.97
  -2  -1  -5  173.31   10.33
   2  -1   5  186.48   11.65
   2   1   5  178.53   11.49
  -2   1  -5  180.02   10.80
   2   1   5  187.70   11.18
  -2   1  -5  177.14    6.36
  -2   1  -5  175.33   11.93
   3  -1   5  440.09   20.99
  -3  -1  -5  442.80   19.64
  -3  -1  -5  436.81   21.62
   3  -1   5  412.20   19.70
   3   1   5  419.63   19.77
  -3   1  -5  409.39   19.27
   3   1   5  414.23   20.48
  -3   1  -5  474.26   22.11
  -4  -1  -5   97.36    9.96
  -4  -1  -5  136.81   13.71
   4  -1   5  120.63   11.95
   4  -1   5  114.42   11.20
   4   1   5  112.14   14.60
  -4   1  -5  110.71   10.58
  -4   1  -5  124.64   12.96
   4   1   5  118.31   11.34
   5  -1   5    6.24    5.86
  -5  -1  -5    3.96    6.96
   5   1   5    4.54    5.65
  -6  -1  -5  114.08   17.45
   6  -1   5  104.09   17.41
  -6   1  -5  111.60   17.12
   6   1   5  117.92   15.91
   7  -1   5  223.49   19.38
  -7  -1  -5  230.03   23.04
   7   1   5  251.36   20.59
  -7   1  -5  224.25   22.83
   8  -1   5   40.34   10.74
  -8  -1  -5   51.92   15.29
  -8   1  -5   66.11   15.46
   8   1   5   48.30   12.70
   9  -1   5   11.90    9.03
  -9  -1  -5    6.62    8.51
  -9   1  -5   -2.55    7.95
   9   1   5   -4.53    7.93
 -10  -2   5   -8.09   11.39
  10   2  -5    4.19    9.62
 -10   2   5    1.81   11.69
  -9  -2   5   20.31   11.62
   9  -2  -5   -4.27    6.55
  -9   2   5    0.13    8.31
   9   2  -5   -1.19    7.38
   8  -2  -5  144.99   17.31
  -8   2   5  119.28   20.46
   8   2  -5  175.32   17.81
   7  -2  -5  174.98   15.69
  -7  -2   5  177.14   24.96
  -7   2   5  166.20   22.63
   7   2  -5  164.88   16.28
  -6  -2   5   10.04    8.23
   6  -2  -5   -2.09    4.88
  -6   2   5    3.94    7.61
   6   2  -5    8.77    7.00
  -5  -2   5    3.10    5.70
   5  -2  -5    1.27    3.89
  -5   2   5   -0.76    5.74
   5   2  -5    4.28    5.04
  -5   2   5    5.92    4.43
  -4  -2   5  291.96   21.24
  -4  -2   5  283.92   16.15
   4  -2  -5  307.83   19.43
  -4   2   5  270.37   15.01
  -4   2   5  297.49   19.07
   4   2  -5  286.32   18.82
   4   2  -5  296.30   16.68
  -3  -2   5  323.28   16.22
  -3  -2   5  360.90   21.87
   3  -2  -5  323.57   15.52
   3  -2  -5  345.36   16.84
  -3   2   5  329.56   18.30
   3   2  -5  319.54   17.41
   3   2  -5  346.66   19.72
  -3   2   5  371.71   15.58
   2  -2  -5   52.14    5.58
  -2  -2   5   59.23    7.24
   2  -2  -5   63.00    7.25
  -2  -2   5   58.63   10.08
   2   2  -5   58.70    8.09
   2   2  -5   64.02    9.65
  -2   2   5   59.55    7.88
  -1  -2   5   14.28    4.42
   1  -2  -5   11.46    4.03
   1  -2  -5   13.00    3.11
  -1  -2   5   11.90    4.08
  -1   2   5   12.89    3.30
   1   2  -5   20.49    7.02
  -1   2   5   12.67    4.75
   1   2  -5   11.07    4.72
   0  -2  -5  132.91    7.51
   0  -2   5  120.88    9.01
   0  -2   5  139.82    9.47
   0   2  -5  124.94    9.56
   0   2   5  124.00    7.57
   0   2   5  128.45    7.61
   0   2   5  136.77    7.70
   0   2  -5  132.06    8.91
  -1  -2  -5  259.34   12.43
  -1  -2  -5  250.65   10.29
   1  -2   5  265.08   13.23
  -1  -2  -5  257.02   12.61
   1  -2   5  250.34   13.25
   1  -2   5  256.54    8.67
  -1   2  -5  254.11   12.76
   1   2   5  255.37   12.07
   1   2   5  291.07   12.78
  -1   2  -5  265.17   13.91
   2  -2   5  131.72    9.84
   2  -2   5  131.66    9.75
  -2  -2  -5  139.72    8.87
  -2  -2  -5  142.63   10.49
  -2   2  -5  128.87    5.60
  -2   2  -5  110.86    9.89
   2   2   5  146.94    9.72
  -2   2  -5  136.89    9.55
   2   2   5  120.03    9.30
   3  -2   5   29.29    6.86
  -3  -2  -5   39.19    7.95
   3  -2   5   29.90    6.63
  -3  -2  -5   45.06    7.06
  -3   2  -5   37.60    7.78
   3   2   5   25.83    6.37
  -3   2  -5   36.38    4.69
   3   2   5   45.50    7.66
  -3   2  -5   44.73    7.25
   4  -2   5  104.51   11.25
   4  -2   5  116.35   11.32
  -4  -2  -5  115.04   14.36
   4   2   5  130.74   11.98
  -4   2  -5  105.20   10.31
  -4   2  -5  130.08   13.45
   4   2   5  125.53   11.92
   5  -2   5  201.84   16.18
  -5  -2  -5  233.12   19.64
   5   2   5  224.45   17.05
  -5   2  -5  204.66   18.55
  -6  -2  -5   18.42    8.59
   6  -2   5   15.51    8.92
   6   2   5   24.62    8.82
   7  -2   5   10.92    7.50
  -7  -2  -5    6.01    8.18
   7   2   5   20.95    8.63
  -7   2  -5    9.65    9.34
   8  -2   5   53.70   12.48
  -8  -2  -5   52.00   14.95
   8   2   5   29.81   10.12
  -8   2  -5   41.95   13.43
   9  -2   5   99.21   16.64
  -9  -2  -5  103.29   21.80
  -9   2  -5  123.74   22.74
   9   2   5   89.80   17.85
  -9  -3   5    4.49   10.76
  -9   3   5   12.05   10.07
   9   3  -5   12.22    8.77
  -8  -3   5   11.05   10.25
   8  -3  -5   15.83    7.37
  -8   3   5    4.11    8.27
   8   3  -5   11.38    6.99
  -7  -3   5  123.10   20.44
   7  -3  -5  131.37   13.38
   7   3  -5  118.76   16.35
  -7   3   5  122.64   18.77
   6  -3  -5   -2.05    4.23
  -6  -3   5   -2.83    7.12
   6   3  -5  -10.19    4.64
  -6   3   5   -3.69    6.25
  -5  -3   5    4.68    7.55
  -5   3   5    7.57    6.89
   5   3  -5    5.09    6.26
  -5   3   5    3.42    4.33
   4  -3  -5   89.14    9.31
  -4  -3   5  100.70   15.26
  -4  -3   5  101.70    9.66
   4   3  -5   98.84   13.54
  -4   3   5   98.49    8.73
   4   3  -5  100.29   11.92
  -4   3   5   81.81   11.43
   3  -3  -5  102.92    8.48
  -3  -3   5   82.83   12.78
   3  -3  -5   90.70    7.70
  -3  -3   5   81.52    8.36
  -3   3   5   89.13    9.85
  -3   3   5   87.12    6.97
   3   3  -5  102.87   10.27
   3   3  -5  108.63   13.36
  -2  -3   5   13.33    4.01
   2  -3  -5   13.59    3.20
  -2  -3   5   12.21    6.94
   2  -3  -5   15.76    3.48
  -2   3   5   10.18    4.07
   2   3  -5    9.30    5.43
   2   3  -5   15.26    4.87
  -1  -3   5   95.90    8.41
  -1  -3   5  115.31    8.42
   1  -3  -5   97.05    6.37
  -1   3   5   81.54    7.60
  -1   3   5  105.34    6.33
   1   3  -5   80.59    8.15
   1   3  -5  105.11   11.46
  -1   3   5  105.81    8.72
   0  -3   5   53.29    7.09
   0  -3   5   63.21    7.60
   0  -3  -5   47.59    5.25
   0  -3  -5   52.71    6.52
   0   3  -5   66.67    7.77
   0   3   5   55.80    5.63
   0   3   5   52.84    4.82
   0   3   5   52.09    4.85
   0   3  -5   65.39    8.23
  -1  -3  -5   98.25    7.48
   1  -3   5   83.47    8.05
   1  -3   5  100.91    8.57
   1  -3   5   92.45    5.65
  -1  -3  -5  105.88    7.04
  -1  -3  -5  105.10    6.50
  -1   3  -5  113.61    9.51
  -1   3  -5  105.36    8.28
   1   3   5  109.12    7.27
   1   3   5   98.93    7.46
  -2  -3  -5    0.57    2.35
  -2  -3  -5    3.57    2.88
  -2  -3  -5    3.88    3.64
   2  -3   5    6.68    4.45
   2  -3   5    3.74    3.68
  -2   3  -5   -0.85    3.88
   2   3   5    1.91    3.29
  -2   3  -5   -2.63    2.50
  -2   3  -5    2.79    1.92
   2   3   5    2.41    3.24
   3  -3   5    0.61    3.78
   3  -3   5    2.05    3.82
  -3  -3  -5    1.49    4.44
  -3  -3  -5    5.07    3.72
   3   3   5    0.12    3.56
   3   3   5   -0.58    3.60
  -3   3  -5   -0.47    3.67
  -3   3  -5   -0.01    3.48
  -4  -3  -5   63.26   11.71
   4  -3   5   73.38   10.32
   4  -3   5   79.51   10.62
  -4  -3  -5   68.23   10.88
   4   3   5   75.81   10.65
  -4   3  -5   61.58   10.81
  -4   3  -5   71.45    9.96
  -4   3  -5   78.88    7.69
   4   3   5   87.27   11.46
  -5  -3  -5   23.89    9.36
   5  -3   5   27.05    8.04
   5   3   5   27.68    8.34
   5   3   5   24.66    8.18
  -5   3  -5   28.61    9.11
   6  -3   5   27.47    9.95
  -6  -3  -5   55.27   13.01
  -6   3  -5   47.81   12.40
   6   3   5   29.44    9.28
  -7  -3  -5    4.51    9.99
   7  -3   5   13.39    7.55
  -7   3  -5    5.81    8.10
   7   3   5   15.60    8.37
   8  -3   5   33.75   10.36
  -8  -3  -5   24.94   12.20
   8   3   5   20.69    9.29
  -8   3  -5   24.16   12.49
   9  -3   5    8.67    7.78
  -9  -3  -5    5.52   10.69
  -9   3  -5   27.71   11.86
   9   3   5   16.09    9.38
  -9  -4   5   24.54   11.94
  -9   4   5   16.26   11.75
   9   4  -5   37.68   12.48
  -8  -4   5   63.60   17.28
  -8   4   5   91.02   17.64
   8   4  -5   89.62   15.50
  -7  -4   5   83.60   17.40
  -7   4   5   42.51   11.92
   7   4  -5   58.73   12.61
  -6  -4   5   82.00   16.57
  -6   4   5   75.50   14.25
  -5  -4   5   66.62   14.40
  -5   4   5   73.35    9.69
   5   4  -5   77.37   12.15
  -5   4   5   80.62   12.90
  -4  -4   5  183.27   13.34
   4  -4  -5  170.08   11.94
  -4  -4   5  227.65   19.03
  -4   4   5  164.43   11.00
   4   4  -5  173.13   15.86
  -4   4   5  202.85   14.95
   4   4  -5  169.71   13.44
  -3  -4   5  181.14   16.84
   3  -4  -5  174.50    9.84
   3  -4  -5  170.81   10.19
  -3  -4   5  171.54   11.89
   3   4  -5  154.59   12.72
   3   4  -5  189.03   15.49
  -3   4   5  179.15   12.27
  -3   4   5  167.95    9.36
  -2  -4   5  145.48   14.68
   2  -4  -5  181.69    8.51
  -2  -4   5  171.57   11.10
  -2   4   5  169.59   12.67
   2   4  -5  158.48   14.38
   2   4  -5  180.74   12.30
  -2   4   5  181.64   10.54
  -1  -4   5   80.26    7.87
  -1  -4   5   66.43    7.35
   1   4  -5   74.97   11.78
  -1   4   5   69.28    4.78
   1   4  -5   77.78    8.32
  -1   4   5   74.45    7.74
   0  -4  -5  223.03   12.20
   0  -4   5  221.04   12.48
   0  -4   5  223.77   12.41
   0   4  -5  220.21   13.23
   0   4  -5  228.20   12.55
   0   4   5  222.86    9.13
   0   4   5  216.23    9.31
   0   4   5  220.64   11.70
  -1  -4  -5  260.96   10.29
  -1  -4  -5  248.63   12.41
  -1  -4  -5  248.50   11.89
   1  -4   5  255.90   13.68
   1  -4   5  249.98   13.67
   1  -4   5  247.66   11.28
  -1   4  -5  278.66   14.88
   1   4   5  260.18   11.45
   1   4   5  285.49   12.47
  -1   4  -5  252.54   13.28
  -2  -4  -5  159.90   11.28
   2  -4   5  162.44   11.17
  -2  -4  -5  184.05   10.33
  -2  -4  -5  166.06    9.39
   2  -4   5  144.66   11.16
  -2   4  -5  188.15   12.95
   2   4   5  189.79   11.59
  -2   4  -5  168.63    8.55
  -2   4  -5  156.28   10.68
   2   4   5  180.75   10.82
   3  -4   5   37.08    8.27
  -3  -4  -5   37.59    7.69
   3  -4   5   32.18    6.56
  -3  -4  -5   36.39    6.27
  -3   4  -5   36.06    5.28
  -3   4  -5   35.49    6.60
   3   4   5   35.86    7.27
  -3   4  -5   25.46    6.63
   3   4   5   27.63    6.43
  -4  -4  -5   47.32    8.17
  -4  -4  -5   38.91    9.79
   4  -4   5   52.32    8.96
   4  -4   5   52.95    9.43
  -4   4  -5   41.25    9.14
  -4   4  -5   51.80    8.73
  -4   4  -5   41.37    6.83
   4   4   5   45.80    8.70
   4   4   5   61.03   10.30
   5  -4   5  181.40   15.34
  -5  -4  -5  221.15   19.55
  -5   4  -5  189.39   18.09
  -5   4  -5  185.09   13.31
   5   4   5  182.76   15.79
   5   4   5  185.49   16.72
   6  -4   5  106.50   14.20
  -6  -4  -5   92.43   16.79
   6   4   5  124.40   15.92
  -6   4  -5  129.79   17.67
  -7  -4  -5   32.16   11.32
   7  -4   5   24.65    9.04
  -7   4  -5   25.92    9.77
   7   4   5   23.23    8.70
  -8  -4  -5   14.36   10.62
   8  -4   5    5.50    7.24
  -8   4  -5   11.27   10.25
   8   4   5   26.33    9.40
   9  -4   5   72.18   15.07
  -9  -4  -5   91.77   21.03
   9   4   5   65.75   14.75
  -9   4  -5   40.89   13.10
  -9  -5   5   94.71   21.72
  -9   5   5   44.90   14.79
   9   5  -5   61.15   15.10
  -8  -5   5    2.20    9.11
  -8   5   5    5.71    8.60
   8   5  -5    4.19    7.13
  -7  -5   5    3.67    8.94
   7   5  -5    0.83    6.87
  -7   5   5    3.27    7.40
  -6  -5   5  119.92   20.66
   6   5  -5   96.45   14.94
  -5  -5   5   98.02   17.41
   5  -5  -5  103.37   13.24
  -5   5   5  128.59   15.66
   5   5  -5  107.76   14.00
  -5   5   5  113.04   10.31
  -4  -5   5   11.43    7.72
  -4  -5   5   10.28    5.35
   4  -5  -5   14.08    4.70
   4   5  -5   17.98    6.86
  -4   5   5   15.28    6.03
  -4   5   5   17.22    4.47
   4   5  -5    9.74    6.87
   3  -5  -5   23.15    4.06
  -3  -5   5   15.28    7.73
   3  -5  -5   27.21    4.33
  -3  -5   5   21.30    5.90
   3   5  -5   27.44    8.24
  -3   5   5   31.47    6.07
  -3   5   5   20.96    3.75
   3   5  -5   19.42    6.75
   2  -5  -5  268.27    9.55
  -2  -5   5  251.81   19.41
  -2  -5   5  278.10   14.83
   2  -5  -5  289.32    9.85
   2   5  -5  288.22   19.57
  -2   5   5  295.01   13.28
  -2   5   5  315.27   17.17
   2   5  -5  291.84   16.39
  -1  -5   5  162.75   11.07
   1  -5  -5  151.34   11.70
  -1  -5   5  151.79   10.73
  -1   5   5  150.28    6.58
  -1   5   5  148.27   10.57
   1   5  -5  163.90   11.58
   1   5  -5  137.54   13.96
   0  -5  -5  325.45   10.78
   0  -5  -5  332.15   16.44
   0  -5   5  310.64   15.86
   0  -5   5  340.04   16.16
   0   5   5  363.17   16.36
   0   5  -5  341.44   16.37
   0   5  -5  292.59   16.34
   0   5   5  349.97   12.13
   0   5   5  348.32   11.62
   1  -5   5   11.30    4.08
  -1  -5  -5    6.39    3.64
  -1  -5  -5    7.94    1.84
   1  -5   5    8.28    4.28
   1  -5   5   12.20    4.57
  -1  -5  -5   12.21    3.42
  -1   5  -5   13.17    5.13
  -1   5  -5   15.86    4.56
   1   5   5    9.01    3.04
   1   5   5    9.37    3.18
  -2  -5  -5  205.51   10.18
   2  -5   5  186.66   12.63
   2  -5   5  201.00   11.32
   2  -5   5  183.88   12.20
  -2  -5  -5  176.36   11.27
  -2  -5  -5  184.84   12.19
  -2   5  -5  212.72   14.12
  -2   5  -5  185.35    9.87
  -2   5  -5  194.72   12.24
   2   5   5  200.35   12.01
   2   5   5  174.82   10.86
  -3  -5  -5  197.69   14.42
   3  -5   5  193.59   12.88
   3  -5   5  188.00   13.45
  -3  -5  -5  177.51   11.41
  -3   5  -5  212.03   13.65
   3   5   5  195.56   13.73
   3   5   5  194.05   12.96
  -3   5  -5  190.17   10.79
  -3   5  -5  182.73   14.39
  -4  -5  -5   72.45    9.82
   4  -5   5   61.74    9.46
  -4  -5  -5   82.34   12.65
   4   5   5   74.45   11.28
   4   5   5   58.39   10.14
  -4   5  -5   72.12   11.76
  -4   5  -5   84.85    8.35
  -5  -5  -5   50.52   11.95
  -5  -5  -5   57.33   10.12
   5  -5   5   68.38   11.12
   5   5   5   45.82   10.04
  -5   5  -5   54.97    9.35
   5   5   5   43.25   10.02
  -5   5  -5   36.47   10.32
  -6  -5  -5  101.40   16.68
   6  -5   5   99.74   13.73
   6   5   5   85.23   13.64
  -6   5  -5  109.97   13.51
  -6   5  -5   92.37   15.74
   7  -5   5   50.47   11.37
  -7  -5  -5   51.50   13.75
  -7   5  -5   55.34   13.90
   7   5   5   67.76   13.17
   8  -5   5    7.17    7.84
  -8  -5  -5    6.47    8.05
  -8   5  -5    4.07    9.83
   8   5   5   15.31    8.83
  -9  -5  -5  -15.71    7.32
   9  -5   5   10.51    8.29
  -9   5  -5   12.81   11.99
   9   5   5   19.35   10.91
  -9  -6   5   88.67   22.82
  -9   6   5   65.59   16.83
   9   6  -5   50.37   14.21
  -8  -6   5  -10.26    7.93
  -8   6   5    1.07    7.88
   8   6  -5    0.10    6.79
  -7  -6   5   13.78   11.86
   7   6  -5   17.57    8.19
  -7   6   5   16.03    8.64
  -6  -6   5  173.37   24.01
  -6   6   5  119.38   19.23
   6   6  -5  148.94   15.44
   5  -6  -5  154.95   12.43
  -5  -6   5  169.17   22.12
  -5   6   5  140.28   11.66
  -5   6   5  168.99   15.52
   5   6  -5  150.51   15.34
  -4  -6   5   43.42   11.82
  -4  -6   5   26.91    7.41
   4  -6  -5   25.41    5.23
   4   6  -5   42.85    9.57
  -4   6   5   33.34    5.77
   4   6  -5   33.92    8.13
  -4   6   5   36.30    7.34
   4   6  -5   28.94    8.71
   3  -6  -5   19.80    3.18
  -3  -6   5   28.46    6.78
  -3  -6   5    8.14    6.75
   3   6  -5   16.62    6.63
  -3   6   5   19.94    5.17
  -3   6   5   19.63    3.75
  -3   6   5   17.66    6.79
   3   6  -5   23.01    8.47
  -2  -6   5  212.51   18.28
  -2  -6   5  226.15   13.84
  -2  -6   5  226.66   13.56
   2   6  -5  232.51   15.11
  -2   6   5  244.15   11.15
  -2   6   5  247.55   15.91
   2   6  -5  258.77   18.94
  -1  -6   5  269.49   15.07
  -1  -6   5  293.51   15.40
   1  -6  -5  308.14   17.42
  -1  -6   5  280.77   14.34
  -1   6   5  283.64    9.29
  -1   6   5  257.42   15.58
   1   6  -5  281.85   15.88
   0  -6  -5   93.30    9.27
   0  -6   5   73.80    7.79
   0  -6   5   75.63    8.03
   0   6   5   80.05    8.41
   0   6   5   87.59    5.12
   0   6  -5   80.30    9.59
   0   6  -5   73.87    7.98
  -1  -6  -5   -2.59    2.82
   1  -6   5    5.45    3.82
   1  -6   5    2.21    3.10
   1  -6   5   -0.41    3.23
  -1  -6  -5   -0.33    2.25
  -1   6  -5   -0.42    3.86
  -1   6  -5   -3.90    2.90
   1   6   5    0.40    2.50
   1   6   5    1.56    2.23
   2  -6   5  284.06   15.07
  -2  -6  -5  287.10   15.38
  -2  -6  -5  280.57   12.92
   2  -6   5  295.57   15.08
   2  -6   5  258.21   15.42
  -2  -6  -5  277.16   15.02
  -2   6  -5  271.99   13.30
  -2   6  -5  260.73   14.71
   2   6   5  293.64   14.24
  -2   6  -5  276.40   16.96
   3  -6   5  198.81   13.26
   3  -6   5  211.36   14.59
  -3  -6  -5  245.46   16.01
  -3  -6  -5  202.02   12.01
  -3   6  -5  204.77   12.01
   3   6   5  199.50   13.96
  -3   6  -5  188.94   13.32
  -3   6  -5  209.12   15.78
   3   6   5  229.92   14.10
  -4  -6  -5   41.05    7.79
   4  -6   5   43.25    8.07
  -4  -6  -5   30.91    8.85
   4   6   5   41.67    9.01
  -4   6  -5   31.07    6.55
   4   6   5   27.01    7.46
  -4   6  -5   40.72   10.17
  -5  -6  -5    4.79    5.40
  -5  -6  -5    4.11    6.96
   5  -6   5   -1.09    5.08
  -5   6  -5    5.11    7.59
   5   6   5   -3.05    5.29
  -5   6  -5    7.95    5.18
   5   6   5    3.22    6.83
  -6  -6  -5  151.99   20.41
   6  -6   5  205.10   16.85
  -6   6  -5  186.58   19.42
  -6   6  -5  167.00   14.76
   6   6   5  202.61   17.83
   7  -6   5   49.84   10.99
  -7  -6  -5   62.95   15.19
   7   6   5   73.17   14.41
  -7   6  -5   69.65   14.83
  -8  -6  -5   34.86   14.29
   8  -6   5   50.80   11.56
  -8   6  -5   33.91   13.31
   8   6   5   61.22   13.25
  -9  -6  -5    4.88   12.30
   9  -6   5    6.11    8.93
  -9   6  -5   11.02   10.98
   9   6   5  -16.53    7.15
  -9  -7   5  -12.72   11.29
   9   7  -5   -4.68    8.27
  -9   7   5  -16.23    7.08
  -8  -7   5   20.97   13.28
   8   7  -5   12.99    8.42
  -8   7   5   16.28   10.47
  -7  -7   5   34.74   13.90
   7   7  -5   52.83   12.24
  -7   7   5   38.60   11.04
  -6  -7   5   34.32   13.90
  -6   7   5   39.63   10.67
   6   7  -5   25.71    9.43
  -5  -7   5    9.49    9.44
   5  -7  -5    3.52    4.24
   5   7  -5   10.44    7.28
  -5   7   5    8.47    4.60
  -5   7   5    5.62    5.96
  -4  -7   5   41.48   13.07
   4  -7  -5   37.15    5.52
  -4  -7   5   44.89    8.50
  -4   7   5   55.45    8.70
   4   7  -5   42.01   10.28
   4   7  -5   45.14   11.40
  -4   7   5   33.39    5.91
   4   7  -5   37.65    8.62
  -3  -7   5   22.36    9.84
   3  -7  -5   21.74    2.55
   3  -7  -5   20.04    2.47
   3   7  -5   29.94    8.01
   3   7  -5   21.87    7.76
  -3   7   5   20.87    3.82
  -3   7   5   21.45    5.04
  -3   7   5   23.88    7.35
  -2  -7   5   25.85    8.82
  -2  -7   5   31.02    7.03
  -2  -7   5   25.43    5.97
  -2   7   5   30.40    4.03
  -2   7   5   37.50    8.05
   2   7  -5   31.27    9.08
   2   7  -5   33.35    7.56
   1  -7  -5   39.67    7.96
  -1  -7   5   36.44    6.89
  -1  -7   5   37.49    6.94
  -1  -7   5   32.14    5.97
   1   7  -5   27.70    9.11
   1   7  -5   24.99    6.61
  -1   7   5   24.93    6.49
  -1   7   5   25.10    1.83
   0  -7   5   59.48    7.86
   0  -7   5   44.85    7.26
   0  -7   5   57.54    8.21
   0  -7  -5   51.19    8.91
   0   7   5   52.45    4.56
   0   7  -5   47.61    7.76
   0   7  -5   52.13    8.58
   0   7   5   51.10    8.15
   0   7   5   46.75    3.60
  -1  -7  -5    0.85    3.88
   1  -7   5   -0.19    3.18
   1  -7   5   -1.30    3.51
   1  -7   5    4.88    3.74
  -1   7  -5    2.70    3.43
   1   7   5    0.71    2.51
  -1   7  -5    3.28    4.77
   1   7   5   -0.14    2.06
  -2  -7  -5   24.29    5.56
   2  -7   5   23.93    5.83
  -2  -7  -5   31.67    6.87
  -2  -7  -5   28.04    3.93
   2  -7   5   28.53    6.51
   2  -7   5   19.15    5.46
  -2   7  -5   28.02    7.20
   2   7   5   28.83    5.99
  -2   7  -5   18.14    5.82
   2   7   5   25.20    5.45
   3  -7   5   69.59    9.31
  -3  -7  -5   71.57    8.10
   3  -7   5   78.91   10.53
  -3  -7  -5   70.17   10.68
  -3  -7  -5   78.10   10.77
   3   7   5   99.92   11.81
  -3   7  -5   57.49   10.84
  -3   7  -5   71.78    9.76
  -3   7  -5   73.72    8.86
   3   7   5   81.67    9.94
   4  -7   5   16.27    6.25
  -4  -7  -5   15.49    7.89
  -4  -7  -5   21.56    6.03
  -4   7  -5   21.13    6.27
  -4   7  -5   24.84    8.66
   4   7   5   35.23    8.23
   4   7   5   17.87    6.85
  -5  -7  -5   11.89    7.83
  -5  -7  -5    9.76    6.18
   5  -7   5   11.24    6.56
  -5   7  -5   20.88    8.86
   5   7   5   14.87    7.83
   5   7   5    5.45    7.40
  -6  -7  -5    5.59    8.33
   6  -7   5    6.13    5.84
  -6   7  -5   17.59    6.95
   6   7   5    8.57    6.65
  -6   7  -5    5.90    6.83
   7  -7   5   40.23    9.41
  -7  -7  -5   40.81   13.03
   7   7   5   40.90   10.94
  -7   7  -5   23.77    9.93
   8  -7   5   12.54    8.08
  -8  -7  -5   15.07   11.98
  -8   7  -5    9.48    8.97
   8   7   5    6.28    9.23
   9  -7   5   -6.97    7.97
  -9  -7  -5   -1.39   12.29
  -9   7  -5  -20.72   11.27
  -9  -8   5   26.14   15.36
  -9   8   5   41.91   14.23
   9   8  -5   45.77   14.80
  -8  -8   5   14.53   11.95
  -8   8   5    0.65    8.26
   8   8  -5   12.83    9.67
  -7  -8   5   55.45   15.28
   7   8  -5   80.43   14.79
  -7   8   5   54.88   12.48
  -6   8   5   66.83   12.17
   6   8  -5   88.56   14.39
   5  -8  -5   96.22    9.25
  -5  -8   5   91.83   18.76
  -5   8   5   88.79    9.60
  -5   8   5   97.47   12.80
  -4  -8   5   54.34   10.57
  -4  -8   5   66.52   15.11
   4  -8  -5   54.93    5.49
   4  -8  -5   44.98    4.87
   4   8  -5   45.12   10.53
   4   8  -5   81.37   14.44
  -4   8   5   56.98    7.11
   4   8  -5   54.64   10.12
  -4   8   5   39.02    7.54
  -3  -8   5   69.38   11.23
  -3  -8   5   41.21   12.44
   3   8  -5   40.32    8.70
  -3   8   5   49.74    6.47
  -3   8   5   50.26    5.00
   3   8  -5   42.95   11.42
  -2  -8   5  108.69    9.83
  -2  -8   5   98.24   10.29
   2   8  -5  117.02   15.91
   2   8  -5  109.64   11.40
  -2   8   5  104.47    6.11
  -2   8   5  108.67   11.61
   1  -8  -5  146.67   13.49
  -1  -8   5  121.18    9.96
  -1  -8   5  128.57   10.55
   1   8  -5  118.75   11.46
  -1   8   5  130.31   11.84
   1   8  -5  137.95   15.21
   0  -8  -5   70.02   10.69
   0  -8   5   63.79    8.88
   0  -8   5   55.89    7.71
   0   8  -5   64.96    9.83
   0   8   5   42.49    3.48
   0   8  -5   55.67    8.64
   0   8  -5   57.96   11.74
   0   8   5   35.47    7.82
   0   8   5   49.57    4.06
   1  -8   5   75.19   10.25
   1  -8   5   66.20    9.10
   1  -8   5   73.08    8.85
  -1  -8  -5   56.76    9.56
  -1   8  -5   54.88    9.56
  -1   8  -5   81.35    9.72
   1   8   5   62.69    6.19
   1   8   5   65.18    5.91
   2  -8   5   87.92   11.64
  -2  -8  -5  102.75    9.95
   2  -8   5   96.86    9.91
  -2  -8  -5  104.12   11.26
  -2  -8  -5   94.48    5.31
   2  -8   5  107.75    9.73
  -2   8  -5   98.61   12.61
   2   8   5   92.11    9.11
   2   8   5  110.99    9.11
  -2   8  -5   96.45   10.88
   3  -8   5   61.54    8.77
  -3  -8  -5   85.31    7.59
  -3  -8  -5   99.88   12.51
  -3   8  -5   70.10   11.66
  -3   8  -5   51.38    8.37
  -3   8  -5   78.46   10.27
   3   8   5   78.28   10.08
   3   8   5   69.48   10.01
  -4  -8  -5   71.39   12.52
  -4  -8  -5   73.45    9.63
   4  -8   5   77.12   10.67
  -4   8  -5   72.47   12.38
   4   8   5   75.54   12.28
  -4   8  -5   79.22   10.44
   4   8   5   92.29   12.18
  -5  -8  -5   19.95    6.96
   5  -8   5   35.26    8.23
  -5  -8  -5   28.33    9.38
   5   8   5   30.01    8.66
  -5   8  -5   35.70   10.19
  -5   8  -5   23.34    7.29
   5   8   5   26.18    8.63
   6  -8   5   42.58   11.19
  -6  -8  -5   47.19   13.13
  -6   8  -5   48.78   11.86
   6   8   5   59.49   11.84
   7  -8   5   33.14    8.94
  -7  -8  -5   14.56   10.51
   7   8   5   30.34   10.09
  -7   8  -5   35.22   11.89
   8  -8   5   49.40   10.99
  -8  -8  -5   57.13   16.88
   8   8   5   46.89   12.97
  -8   8  -5   42.34   13.54
  -9  -9   5   66.51   19.18
  -9   9   5   47.80   14.00
   9   9  -5   49.83   14.95
  -8  -9   5  144.38   26.10
   8   9  -5   95.65   17.32
  -8   9   5  114.93   19.43
  -7  -9   5  117.57   22.75
  -7   9   5  152.47   19.33
   7   9  -5  120.60   17.93
  -6   9   5    5.40    6.06
   6   9  -5    5.68    6.96
  -5  -9   5   15.15   10.01
   5  -9  -5   35.86    5.82
  -5   9   5   32.51    7.79
   5   9  -5   28.39    9.03
   5   9  -5   26.00    8.75
  -5   9   5   29.13    6.34
  -4  -9   5  101.56   18.89
   4  -9  -5  128.97    5.17
  -4   9   5  132.59   11.41
   4   9  -5  111.81   17.40
   4   9  -5  126.17   16.33
  -4   9   5  129.09    9.54
  -3  -9   5  138.39   12.32
  -3  -9   5  164.43   13.37
  -3  -9   5  128.85   19.67
  -3   9   5  140.25    9.56
  -3   9   5  167.11    8.54
   3   9  -5  199.46   16.55
  -2  -9   5   30.80    6.63
  -2  -9   5   24.00    7.24
   2  -9  -5   37.27    9.96
  -2   9   5   25.80    3.13
  -2   9   5   23.42    2.08
   2   9  -5   16.72    6.69
   2   9  -5   38.08   11.09
  -1  -9   5   22.29    6.12
  -1  -9   5   31.76    6.51
   1  -9  -5   38.64    8.59
  -1   9   5   30.89    7.75
   1   9  -5   31.29    7.87
   1   9  -5   35.05   10.37
   0  -9   5  145.20   10.37
   0  -9  -5  188.14   15.39
   0  -9   5  148.82   10.99
   0  -9   5  128.40   10.95
   0  -9   5  153.13   12.69
   0   9   5  137.54   12.62
   0   9  -5  138.70   12.99
   0   9  -5  128.39   17.26
   0   9  -5  160.58   12.64
   0   9   5  148.44    7.15
   1  -9   5  254.22   16.39
  -1  -9  -5  238.64   16.59
   1  -9   5  227.60   13.26
  -1  -9  -5  213.17    9.96
   1  -9   5  228.68   14.26
   1   9   5  227.76   11.14
  -1   9  -5  219.31   16.03
  -1   9  -5  225.83   14.31
   1   9   5  221.18   11.75
   2  -9   5   52.04    8.44
  -2  -9  -5   56.78   10.16
   2  -9   5   57.43   10.23
  -2  -9  -5   53.99    8.45
   2  -9   5   70.34    8.88
  -2   9  -5   58.83    8.72
   2   9   5   65.67    8.45
  -2   9  -5   65.15   10.99
   2   9   5   62.22    8.21
  -3  -9  -5   10.20    3.41
   3  -9   5    2.48    4.26
  -3  -9  -5   11.86    6.57
  -3  -9  -5    6.48    6.57
   3  -9   5   -5.32    4.98
  -3   9  -5    2.87    6.20
   3   9   5    4.09    4.95
   3   9   5   -1.81    4.14
  -3   9  -5    1.24    5.27
  -4  -9  -5  145.57   15.78
  -4  -9  -5  128.13   10.65
   4  -9   5  123.58   11.65
  -4  -9  -5   98.59   13.90
  -4   9  -5  139.46   17.00
   4   9   5   94.84   13.53
  -4   9  -5  117.92   12.23
   4   9   5  113.61   13.87
   5  -9   5  182.08   14.43
  -5  -9  -5  197.44   19.86
  -5  -9  -5  178.42   14.31
   5   9   5  194.47   16.76
   5   9   5  191.10   18.44
  -5   9  -5  149.36   16.14
  -5   9  -5  189.07   18.38
  -6  -9  -5   82.58   16.33
   6   9   5   91.58   15.19
  -6   9  -5   96.64   16.54
   7  -9   5   12.01    7.23
   7   9   5    3.52    7.27
  -7   9  -5    3.08    7.38
   8  -9   5   52.12   10.97
  -8  -9  -5   38.82   13.56
  -8   9  -5   52.51   15.53
   8   9   5   56.38   14.25
  -8 -10   5   -5.16    8.91
  -8  10   5  -14.01    7.03
   8  10  -5    4.16    8.74
  -7 -10   5   -1.39    8.30
  -7  10   5    1.99    6.41
   7  10  -5   -3.22    6.33
   7  10  -5   -6.87    6.16
  -6 -10   5   -1.64    8.73
  -6  10   5    5.79    6.39
   6  10  -5    9.08    7.71
   6  10  -5   -1.35    5.99
   5 -10  -5   -1.55    2.13
  -5 -10   5  -12.25    6.99
  -5  10   5   -2.29    4.05
   5  10  -5    8.07    7.58
   5  10  -5    6.54    6.70
  -5  10   5    7.37    4.52
  -4 -10   5   12.58   10.41
  -4  10   5    1.96    3.24
  -4  10   5   -0.55    3.48
   4  10  -5   -6.15    5.33
  -3 -10   5    5.67    5.29
  -3 -10   5   -5.33    7.78
  -3 -10   5    1.59    5.16
  -3  10   5    1.39    2.30
   3  10  -5    0.32    5.59
  -3  10   5    4.79    3.33
   3  10  -5    2.74    7.86
   2 -10  -5    0.18    7.17
  -2 -10   5   14.56    5.56
  -2 -10   5   13.62    6.31
   2  10  -5   18.26    9.34
   2  10  -5   22.50    7.88
  -2  10   5   14.08    1.77
  -2  10   5   14.98    1.97
  -1 -10   5    2.45    4.05
  -1 -10   5    6.39    5.24
  -1 -10   5    7.09    4.94
   1 -10  -5   -9.35    5.38
   1  10  -5    4.45    5.45
   1  10  -5    9.30    8.39
   0 -10  -5    0.43    5.80
   0 -10   5    7.14    6.08
   0 -10   5    2.34    3.95
   0 -10   5   -1.89    3.59
   0 -10   5    0.47    3.91
   0  10  -5    5.72    5.70
   0  10  -5    1.89    5.92
   0  10  -5    1.48    4.43
   0  10   5    0.76    2.04
   0  10   5   -0.53    1.89
  -1 -10  -5   -0.96    5.46
   1 -10   5    1.37    3.87
   1 -10   5   -4.34    4.58
   1 -10   5   12.30    5.23
  -1  10  -5    1.94    4.12
   1  10   5   -0.88    2.69
  -1  10  -5    1.39    5.66
   1  10   5   -0.08    2.77
   2 -10   5    4.04    4.35
  -2 -10  -5    3.32    4.81
  -2 -10  -5    2.80    6.69
   2 -10   5   -0.55    5.13
   2  10   5    3.81    4.00
  -2  10  -5    4.61    6.26
  -2  10  -5    3.35    5.16
   2  10   5    2.75    4.63
  -3 -10  -5    1.96    5.84
  -3 -10  -5    2.04    6.00
   3 -10   5    3.87    6.48
   3 -10   5    5.53    4.65
  -3 -10  -5    2.64    2.65
   3  10   5    9.00    5.61
   3  10   5    5.41    5.18
  -3  10  -5   10.83    6.02
  -3  10  -5    7.49    6.93
   4 -10   5    0.81    4.27
  -4 -10  -5    9.63    6.81
  -4 -10  -5   -8.66    3.14
  -4 -10  -5    7.96    7.13
  -4  10  -5   -6.74    5.55
   4  10   5    0.04    6.16
   4  10   5   -0.21    4.64
  -4  10  -5   -2.60    5.80
  -5 -10  -5   -8.53    6.59
   5 -10   5    8.21    5.48
   5  10   5    6.96    8.01
   5  10   5    6.76    6.93
  -5  10  -5   -4.34    5.56
  -6 -10  -5   -4.55    7.28
  -6  10  -5   14.43    8.05
   6  10   5    3.26    6.66
   7 -10   5    2.95    5.82
  -7  10  -5    2.35    8.45
   7  10   5   -3.80    5.92
   8 -10   5   -2.78    6.39
  -8 -10  -5   14.97   13.90
   8  10   5    6.28    7.97
  -8  10  -5   -2.20    9.16
  -8 -11   5   64.68   19.52
   8  11  -5   53.98   14.04
  -8  11   5   14.59   10.82
   8  11  -5   68.60   16.27
  -7 -11   5   68.32   18.87
  -7  11   5   96.26   15.56
   7  11  -5   98.80   18.87
   7  11  -5   81.89   15.45
   6 -11  -5    7.44    5.71
  -6 -11   5   -6.92    8.70
   6  11  -5   10.63    8.38
  -6  11   5    4.85    6.91
   6  11  -5   10.16    7.50
  -5 -11   5   15.36   10.82
   5  11  -5   10.73    6.80
  -5  11   5   16.17    6.47
  -4 -11   5  127.50   20.85
  -4 -11   5  123.55   14.90
   4  11  -5  138.38   17.28
  -4  11   5  126.32   10.52
  -4  11   5  112.84    8.99
  -3 -11   5  136.83   12.77
  -3 -11   5  153.23   13.80
   3  11  -5  172.87   21.21
   3  11  -5  160.15   21.15
  -3  11   5  147.65    8.90
  -3  11   5  139.02    7.94
   2 -11  -5    1.41    7.76
  -2 -11   5    8.79    5.70
  -2 -11   5    7.28    5.60
   2  11  -5    6.06    6.37
  -2  11   5    9.56    1.92
   2  11  -5    6.73    8.54
  -1 -11   5   -3.83    4.65
  -1 -11   5   -2.99    4.06
   1 -11  -5   -5.12    6.02
  -1 -11   5   -3.73    3.88
   1  11  -5   -3.78    7.22
  -1  11   5    0.55    0.81
   1  11  -5    2.53    5.46
  -1  11   5   -0.56    0.80
   0 -11  -5  130.12   16.45
   0 -11   5  162.42   11.23
   0 -11   5  137.01   10.83
   0 -11   5  148.54   14.35
   0  11   5  133.41    7.38
   0  11  -5  134.45   17.91
   0  11   5  139.60    7.13
   0  11  -5  145.58   14.46
   1 -11   5  155.67   15.10
  -1 -11  -5  165.48   16.15
   1 -11   5  165.80   11.39
   1 -11   5  149.99   11.12
  -1  11  -5  171.13   15.81
   1  11   5  159.57   10.27
   1  11   5  164.36   10.63
   2 -11   5   44.03    7.00
   2 -11   5   34.67    9.70
  -2 -11  -5   48.02   10.73
   2  11   5   48.52    7.66
   2  11   5   30.97    7.06
  -2  11  -5   26.48    8.79
   3 -11   5    1.59    6.18
  -3 -11  -5    9.70    7.04
  -3 -11  -5    7.00    5.98
   3 -11   5    8.51    4.62
   3  11   5    9.16    5.48
   3  11   5   12.72    6.13
  -3  11  -5   10.28    6.84
  -4 -11  -5  149.95   16.37
   4 -11   5  136.20   11.37
  -4 -11  -5  124.42    9.72
  -4  11  -5  152.43   16.30
   4  11   5  131.28   13.73
   4  11   5   91.25   13.64
  -5 -11  -5   53.19    8.76
  -5 -11  -5   49.73   12.07
  -5 -11  -5   87.85   15.71
   5 -11   5   33.48    7.26
  -5  11  -5   53.73   11.65
   5  11   5   49.96   12.43
   6 -11   5   34.21    8.56
  -6 -11  -5   13.49    9.94
  -6  11  -5    7.47    8.33
   6  11   5   31.32   10.04
   7 -11   5   -4.08    4.75
  -7 -11  -5   -5.31    9.55
   7  11   5    9.39    9.03
  -7  11  -5    5.75    8.62
   8 -11   5   58.22   10.95
  -8 -11  -5  100.48   22.13
   8  11   5   65.40   14.81
  -8 -12   5   24.43   14.94
  -8  12   5  -10.35    7.82
  -7 -12   5    9.27   13.72
   7 -12  -5   21.92    6.03
   7  12  -5   27.11   11.04
   7  12  -5   32.37   12.20
  -7  12   5   42.60   11.12
  -6 -12   5   55.04   16.58
  -6  12   5   46.33   10.41
   6  12  -5   69.39   14.35
  -5 -12   5   99.55   14.18
  -5 -12   5   80.64   18.18
  -5  12   5  100.09   10.98
   5  12  -5   95.05   15.69
  -4 -12   5   64.16   12.37
  -4 -12   5   46.31   13.97
   4  12  -5   34.52   10.67
  -4  12   5   43.81    6.85
  -4  12   5   42.88    6.33
  -3 -12   5   18.89    6.86
  -3 -12   5   38.49    8.65
  -3  12   5   32.76    4.44
   3  12  -5   32.14   10.35
  -3  12   5   31.88    4.39
   3  12  -5   35.41    9.96
  -2 -12   5   93.82   11.29
   2 -12  -5   75.94   15.01
  -2 -12   5   86.19   10.43
  -2  12   5   86.45    4.65
   2  12  -5   92.29   15.19
   2  12  -5   81.19   15.07
  -1 -12   5  122.49   10.53
  -1 -12   5  135.10   11.08
   1 -12  -5  118.69   17.22
  -1 -12   5  124.86   15.66
   1  12  -5  133.32   18.91
   1  12  -5  127.37   13.91
  -1  12   5  122.51    5.34
   0 -12  -5   49.87   11.97
   0 -12   5   49.57    7.36
   0 -12   5   31.13    9.27
   0 -12   5   45.26    7.22
   0  12   5   53.41    5.03
   0  12  -5   58.12   11.07
   0  12  -5   50.27   12.83
   0  12   5   48.78    4.80
   0  12   5   51.26    5.15
   1 -12   5   29.18    9.15
   1 -12   5   31.67    5.98
  -1 -12  -5   47.04   10.55
   1 -12   5   44.45    6.90
   1  12   5   38.78    7.98
  -1  12  -5   31.04    9.08
   1  12   5   30.65    5.61
   2 -12   5  152.86   10.89
  -2 -12  -5  120.53   16.27
   2 -12   5  175.89   11.09
  -2 -12  -5  142.17   10.64
   2 -12   5  156.67   16.76
   2  12   5  164.68   11.86
  -2  12  -5  149.64   15.37
   2  12   5  159.50   12.62
  -3 -12  -5  109.16   14.10
   3 -12   5  118.64    9.89
  -3 -12  -5  132.85   17.43
   3 -12   5  118.44   16.59
   3  12   5  143.57   12.41
   3  12   5   96.22   12.62
  -3  12  -5  156.74   15.60
  -4 -12  -5  106.98   15.74
   4 -12   5  108.94    9.80
  -4 -12  -5   87.00   14.68
   4  12   5   77.67   13.65
  -4  12  -5  108.00   15.38
   4  12   5  107.54   14.09
   5 -12   5   14.68    5.52
  -5 -12  -5    2.84    6.88
  -5 -12  -5    5.87    8.87
  -5 -12  -5    6.80    5.43
   5  12   5   12.44    7.21
   5  12   5   -7.81    7.64
  -5  12  -5    6.21    7.39
  -6 -12  -5   91.33   17.05
   6 -12   5   94.16   11.21
  -6 -12  -5   78.98   16.60
  -6 -12  -5   58.67   11.10
  -6  12  -5   85.59   15.67
   6  12   5   79.05   14.16
   7 -12   5   56.39    9.82
  -7 -12  -5   70.06   17.95
  -7  12  -5   89.55   17.37
   7  12   5   52.77   13.51
  -7 -13   5    7.68   12.13
  -7  13   5  -11.24    6.30
   7  13  -5   -0.54    8.46
  -6 -13   5   53.07   18.32
  -6  13   5   38.03    9.29
   6  13  -5   45.97   13.13
  -5 -13   5   31.47   13.05
  -5 -13   5   66.68   12.33
   5  13  -5   37.65   10.95
  -5  13   5   39.30    8.06
  -4 -13   5    6.18    6.57
   4  13  -5   11.81    8.10
  -4  13   5    5.24    3.63
  -3 -13   5   -2.07    3.99
  -3 -13   5    7.03    5.66
   3  13  -5    6.77    8.47
  -3  13   5   -3.46    2.32
   3  13  -5   -2.65    6.14
  -3  13   5    2.08    2.22
  -2 -13   5   38.49    7.67
  -2 -13   5   29.71    6.61
  -2 -13   5   28.71    9.44
   2 -13  -5   14.88    7.77
  -2  13   5   28.19    3.18
   2  13  -5   27.50    8.60
  -1 -13   5   56.56    8.20
  -1 -13   5   53.71    7.78
   1 -13  -5   54.56   12.50
   1  13  -5   54.40   13.27
  -1  13   5   60.46    4.24
   1  13  -5   49.60   13.32
   0 -13   5   18.38    5.16
   0 -13   5    1.38    3.68
   0 -13  -5    5.41    7.12
   0 -13   5   15.91    7.43
   0  13   5   10.75    3.13
   0  13  -5   18.47    7.67
   0  13   5   15.49    3.41
   0  13  -5   21.73    9.61
   0  13   5   12.32    3.27
  -1 -13  -5    2.38    7.01
   1 -13   5   -2.90    2.95
   1 -13   5    2.69    6.27
   1 -13   5    6.98    3.83
   1  13   5    2.15    2.99
  -1  13  -5   -1.12    5.44
  -1  13  -5  -14.11    5.29
   1  13   5    1.38    3.16
  -2 -13  -5   54.04   12.00
   2 -13   5   38.39    6.09
   2 -13   5   46.90   11.54
   2 -13   5   43.08    6.86
   2  13   5   54.12    8.36
  -2  13  -5   57.04   10.90
   2  13   5   26.93    6.98
   3 -13   5   44.86   11.56
   3 -13   5   81.00    7.81
  -3 -13  -5   54.06   12.38
   3 -13   5   48.00    6.95
   3  13   5   45.25    8.89
  -3  13  -5   44.98   10.67
   3  13   5   38.67    8.39
  -4 -13  -5   19.93    4.39
  -4 -13  -5   18.50    8.38
   4 -13   5   16.91    4.87
   4  13   5   28.65    7.55
  -4  13  -5   14.12    7.34
   4  13   5    2.88    7.53
  -5 -13  -5   14.35    5.22
  -5 -13  -5   13.24   10.37
   5 -13   5   14.80    5.03
  -5 -13  -5   28.66   10.69
  -5  13  -5    6.97    7.59
   5  13   5   15.41    8.19
   5  13   5  -15.18    8.06
  -6 -13  -5    9.48   10.26
  -6 -13  -5    8.57   11.57
  -6 -13  -5    7.05    8.48
   6 -13   5    8.90    5.26
   6  13   5   16.66    8.66
  -6  13  -5    7.13    8.48
  -7 -13  -5   46.51   17.03
   7 -13   5   30.36    7.74
  -7 -13  -5   44.88   13.62
  -7  13  -5   47.70   13.46
   7  13   5   45.51   13.32
  -7 -14   5    9.30    8.67
  -7 -14   5   17.61   12.22
   7  14  -5   -3.77    9.11
  -7  14   5   -6.58    6.65
  -6 -14   5   43.72   15.52
  -6 -14   5   53.02   12.48
   6  14  -5   51.05   13.53
  -6  14   5   51.72   10.22
  -5 -14   5   86.75   18.83
  -5 -14   5   80.87   13.10
   5  14  -5   77.23   15.93
  -4 -14   5   -8.35    5.05
  -4  14   5    4.15    3.94
  -4  14   5   -5.16    2.88
   4  14  -5    7.08    7.87
  -3 -14   5   -2.31    4.59
  -3 -14   5    2.35    5.49
  -3  14   5    0.40    1.71
  -3  14   5    1.39    1.67
   3  14  -5    0.69    6.23
  -3  14   5    3.93    3.11
  -2 -14   5  164.79   12.22
  -2 -14   5  143.55   18.92
  -2 -14   5  172.70   12.88
   2 -14  -5  123.29   19.37
   2  14  -5  141.29   15.49
   2  14  -5  171.57   22.26
  -2  14   5  149.12    7.23
  -1 -14   5  106.76   16.36
  -1 -14   5  133.21   10.53
   1 -14  -5  117.32   18.70
  -1 -14   5  119.67    9.93
   1  14  -5  113.23   19.32
   1  14  -5  137.72   14.19
   0 -14   5   -4.42    5.95
   0 -14   5    3.61    3.31
   0 -14  -5    5.09    7.41
   0 -14   5    4.02    3.47
   0  14   5    3.09    2.76
   0  14   5    0.03    2.58
   0  14  -5    9.37    8.07
   0  14   5    2.49    2.30
   0  14  -5   14.82    7.21
   1 -14   5   -0.10    2.97
   1 -14   5   -5.54    5.35
  -1 -14  -5   -0.79    5.60
   1 -14   5    8.32    7.17
   1  14   5    4.99    3.39
   1  14   5    7.12    3.68
  -1  14  -5   12.77    8.94
  -1  14  -5    1.02    6.02
   1  14   5    8.32    4.27
   2 -14   5  124.61    8.08
   2 -14   5  123.35    8.01
  -2 -14  -5  133.89   18.39
   2 -14   5  103.54   16.35
   2  14   5  111.26   10.68
  -2  14  -5  127.79   16.32
   2  14   5  125.39   12.07
   3 -14   5   86.32    6.71
   3 -14   5   77.58   15.35
  -3 -14  -5   89.97   16.09
   3 -14   5   99.76    7.30
   3  14   5   74.03   11.71
  -3  14  -5   95.33   14.36
   3  14   5   93.28   12.00
   4 -14   5    1.71    3.14
  -4 -14  -5    7.13    8.26
   4 -14   5    8.64    3.83
   4  14   5   -7.84    7.52
   4  14   5   20.81    7.50
  -4  14  -5    4.45    6.79
   5 -14   5   -0.44    3.38
  -5 -14  -5    2.31    4.56
  -5 -14  -5   12.09    4.11
  -5 -14  -5    7.07    8.03
  -5 -14  -5   -2.39    8.31
   5  14   5   20.74    8.87
   5  14   5  -13.20    9.45
  -5  14  -5   15.53    7.97
  -6 -14  -5   33.87   10.54
  -6 -14  -5   80.30   17.57
  -6 -14  -5   65.23   15.19
   6 -14   5   50.10    6.72
  -6  14  -5   69.36   15.40
   6  14   5   57.03   13.17
  -6 -15   5   58.67   17.80
  -6 -15   5   44.64   11.32
  -6  15   5   41.11    9.62
   6  15  -5   42.40   13.05
  -5 -15   5   55.53   10.96
  -5  15   5   43.14    9.39
   5  15  -5   31.32   11.96
  -4 -15   5    2.74    5.72
  -4  15   5    7.77    3.42
   4  15  -5   -0.10    6.64
  -4  15   5    1.75    4.24
  -3 -15   5   19.16    6.23
  -3 -15   5   12.31    8.47
  -3 -15   5   17.94    8.63
   3  15  -5   25.29    9.10
  -3  15   5   20.88    4.04
  -2 -15   5   72.94    9.08
  -2 -15   5   96.37   15.62
   2 -15  -5   54.93   14.66
  -2 -15   5   63.10    9.11
   2  15  -5   72.97   16.39
  -2  15   5   47.24    4.98
   2  15  -5   65.69   13.01
  -1 -15   5   78.11   14.25
  -1 -15   5   56.38    7.21
   1 -15  -5   33.66   11.72
  -1 -15   5   61.66    7.46
   1  15  -5   96.34   14.37
   1  15  -5   63.15   14.36
   0 -15   5   15.82    8.92
   0 -15   5   13.95    5.51
   0 -15   5    9.91    3.55
   0 -15  -5    7.07    7.93
   0  15  -5   15.01   11.02
   0  15   5   11.90    3.73
   0  15  -5   17.93    8.46
   0  15   5   11.86    3.27
   0  15   5    8.38    2.94
   1 -15   5   26.99    3.88
   1 -15   5   25.65    9.69
  -1 -15  -5   17.59   10.03
   1  15   5   36.04    6.44
   1  15   5   27.93    6.21
  -1  15  -5   40.44   10.13
   1  15   5   30.21    5.80
  -1  15  -5   36.18   10.80
   2 -15   5   96.55   16.84
  -2 -15  -5   95.52   16.56
   2  15   5   83.19   10.23
  -2  15  -5   88.81   14.12
   2  15   5   84.51   11.44
   3 -15   5   50.21   13.56
  -3 -15  -5   68.79   14.88
   3  15   5   52.37    9.87
  -3  15  -5   49.95   11.54
   3  15   5   52.32   11.09
  -4 -15  -5   12.64    7.93
  -4 -15  -5    3.28    8.33
  -4  15  -5   26.30    9.74
   4  15   5   -7.80    7.24
   4  15   5   10.34    6.52
  -5 -15  -5    8.93    9.32
  -5 -15  -5   21.39   11.02
  -5  15  -5   -0.77    6.87
   5  15   5   39.94   10.62
  -6 -15  -5   47.35    6.60
  -6 -15  -5   57.71   15.45
  -6 -15  -5   35.90   14.52
  -6  15  -5   57.87   13.16
   6  15   5   71.89   15.00
  -6 -16   5   23.02    9.82
  -6  16   5   19.73    7.45
  -5 -16   5   15.12    8.26
   5  16  -5   22.05   10.47
  -5  16   5   13.22    5.87
  -4 -16   5   93.13   12.80
  -4 -16   5  104.98   14.79
  -4 -16   5  102.58   18.60
  -4  16   5  105.30    7.08
  -4  16   5  110.00    9.94
  -4  16   5  104.95    6.48
   4  16  -5  116.97   17.78
  -3 -16   5   64.13    9.35
  -3 -16   5   68.85   14.67
  -3 -16   5   81.94   11.45
  -3  16   5   53.69    6.62
   3  16  -5   67.04   14.01
  -2 -16   5   -1.03    7.12
  -2 -16   5    8.75    4.41
   2 -16  -5    4.50    6.75
  -2 -16   5    6.73    4.96
  -2  16   5    1.85    3.26
   2  16  -5   15.46    8.25
   2  16  -5   24.44   12.21
  -1 -16   5   28.51    5.16
   1 -16  -5   29.76   12.62
  -1 -16   5   19.34    9.47
   1  16  -5   28.19    9.29
   0 -16   5  120.59   17.82
   0 -16   5   96.57    5.92
   0 -16  -5   81.80   16.70
   0  16  -5   94.17   18.27
   0  16  -5  132.50   16.51
   0  16   5  124.12    7.42
  -1 -16  -5   83.13   16.07
   1 -16   5  117.42   18.58
  -1  16  -5   96.40   18.11
   1  16   5  111.08    9.83
  -1  16  -5  128.39   16.56
   1  16   5  103.49    9.09
   2 -16   5   30.56   10.80
  -2 -16  -5   11.11    8.65
   2  16   5    7.19    5.74
  -2  16  -5   15.92    7.57
   2  16   5   11.07    5.40
   2  16   5   15.66    5.57
  -2  16  -5   -3.50    8.75
   3 -16   5   23.93   11.45
  -3 -16  -5   -3.68    7.38
  -3  16  -5    8.10    7.72
   3  16   5   -5.95    6.07
   3  16   5   18.17    7.68
  -4 -16  -5   28.58   11.47
   4  16   5   18.97   11.17
  -4  16  -5   36.87   10.86
   4  16   5   34.46    9.73
  -5 -16  -5  113.96   20.81
   5  16   5  134.43   17.29
  -5  16  -5   86.68   15.76
  -5 -17   5    3.16    6.38
  -5 -17   5    1.75   10.36
   5  17  -5  -10.85    6.56
  -4 -17   5   52.19   15.41
  -4 -17   5   21.82    7.10
   4  17  -5   17.14    9.59
  -3 -17   5   18.10    7.24
  -3 -17   5   50.02   14.07
  -3 -17   5   32.22    6.74
   3  17  -5   39.44   10.89
  -2 -17   5  -14.64    7.07
  -2 -17   5   -0.45    3.25
   2 -17  -5    0.22    7.82
  -2 -17   5   -6.75    6.20
   2  17  -5  -10.02    5.19
   2  17  -5   -8.54   11.73
   1 -17  -5   25.09   11.25
  -1 -17   5    4.80    7.72
  -1 -17   5   -1.06    1.79
   1  17  -5  -30.82   10.47
   1  17  -5    5.26    6.32
   0 -17  -5   43.39   13.16
   0 -17   5   53.32   12.96
   0  17  -5   43.07   10.26
   0  17   5   46.41    4.89
   0  17   5   31.22    4.53
   0  17  -5   -3.83   10.50
  -1 -17  -5   -1.89    7.30
   1 -17   5   11.65    8.71
  -1  17  -5   11.48   12.04
   1  17   5    9.14    5.26
   1  17   5   12.55    5.47
  -1  17  -5   11.22    7.99
   1  17   5   15.41    4.63
  -2 -17  -5   15.93    9.49
   2 -17   5   -0.26    7.30
   2  17   5    2.34    4.47
  -2  17  -5   21.43   12.16
  -2  17  -5    1.55    6.41
   2  17   5   -0.21    4.86
   2  17   5   -1.19    4.18
  -3 -17  -5    9.65    8.55
   3 -17   5   13.24    9.07
   3  17   5    6.76    5.70
   3  17   5   11.43    6.06
  -3  17  -5   17.03    9.27
   3  17   5   -9.94    6.41
  -4 -17  -5   22.01   11.51
   4  17   5   22.92    8.69
  -4  17  -5   19.30    9.23
  -5 -17  -5    9.54   10.88
  -5 -17  -5   24.61   12.96
  -5  17  -5   19.25   10.65
   5  17   5   14.17    9.01
  -4 -18   5   72.38   17.96
   4  18  -5   49.70   13.68
  -3 -18   5   54.62   11.09
  -3 -18   5   50.54   14.04
  -3 -18   5   47.95    6.68
   3  18  -5   70.12   14.23
  -2 -18   5    0.36    7.49
   2 -18  -5    0.62    7.90
   2  18  -5    7.25    7.96
  -1 -18   5    3.09    7.17
   1 -18  -5    2.58    8.10
   1  18  -5    5.59    5.50
   1  18  -5  -27.87   11.43
   0 -18  -5   40.94   13.85
   0 -18   5   35.75   12.14
   0  18   5   43.87    4.39
   0  18  -5   39.95   16.27
   0  18  -5   62.15   12.29
   0  18   5   42.03    4.59
  -1 -18  -5   51.66   14.11
   1 -18   5   27.59   11.42
   1  18   5   74.07    9.62
  -1  18  -5   57.52   12.70
  -1  18  -5   72.49   19.37
   1  18   5   44.53    7.71
   1  18   5   64.29    7.92
   2 -18   5   -3.50    8.24
  -2 -18  -5   12.52   11.19
  -2  18  -5   -4.07   12.60
  -2  18  -5    4.92    7.06
   2  18   5   -4.97    5.27
   2  18   5   -5.47    4.30
   2  18   5   12.26    5.75
  -3 -18  -5    0.44    9.82
   3 -18   5    7.42   11.77
   3  18   5  -20.26    6.63
   3  18   5   -4.42    4.19
   3  18   5   -4.35    5.54
  -3  18  -5   -9.02    6.05
  -4 -18  -5   26.02   11.99
  -4  18  -5   21.72    9.73
   4  18   5   40.23   10.36
   4  18   5   28.05    9.47
  -3 -19   5   15.73   11.19
   3  19  -5   19.38    8.75
  -2 -19   5   86.88   18.99
   2 -19  -5   79.09   18.75
   2  19  -5   70.06   13.94
   1 -19  -5   89.00   19.48
  -1 -19   5   93.77   18.22
   1  19  -5   91.16   16.03
   0 -19   5    3.84    9.28
   0 -19  -5   16.24   11.68
   0  19   5   14.60    1.73
   0  19  -5   28.11   10.10
   1 -19   5    4.68    9.47
  -1 -19  -5   -0.23    9.28
   1  19   5    8.92    4.30
   1  19   5   -8.87    4.53
  -1  19  -5   13.70    7.65
   2 -19   5   61.28   16.70
  -2 -19  -5   55.55   16.28
   2  19   5   50.25    9.87
  -2  19  -5   77.46   14.18
   2  19   5   64.31    9.16
   2  19   5   34.63    9.13
  -3 -19  -5   69.68   20.63
   3 -19   5   67.81   17.21
   3  19   5  126.12   13.66
  -3  19  -5  121.59   17.46
   1 -20  -5    8.18   11.70
  -1 -20   5   -0.70    8.42
   1  20  -5    2.54    8.33
   0 -20   5   10.17   10.54
   0  20  -5   -8.74    6.82
   1 -20   5    1.53    9.20
  -1 -20  -5  -21.37    8.16
  -1  20  -5    3.48    8.49
   1  20   5    7.13    3.92
 -10   0   6   50.62   18.58
  -9   0   6  112.39   21.86
   8   0  -6   74.20   13.15
  -8   0   6   35.34   13.89
   7   0  -6   18.11    7.64
  -7   0   6   14.74   10.56
  -6   0   6   96.93   16.91
  -5   0   6  218.09   19.80
  -4   0   6   54.94   10.76
  -4   0   6   65.75    8.98
   4   0  -6   61.73    9.81
   3   0  -6   54.36    7.79
   3   0  -6   44.57    8.23
  -3   0   6   40.27    6.72
  -3   0   6   44.79    9.32
   2   0  -6  131.25   11.00
  -2   0   6  117.02   11.92
  -1   0   6  628.18   23.51
   1   0  -6  653.89   23.55
   1   0  -6  642.95   27.18
   0   0   6  179.49   10.62
   0   0  -6  177.68    9.99
   0   0  -6  176.23   10.67
   0   0   6  153.96   10.02
   1   0   6    5.04    3.57
  -1   0  -6    0.66    3.03
   1   0   6    5.63    3.35
  -1   0  -6   -0.14    3.34
   2   0   6  137.43   10.38
  -2   0  -6  136.11   10.93
   2   0   6  138.18   10.65
  -2   0  -6  128.08    4.31
  -2   0  -6  131.65    9.46
  -3   0  -6  491.46   21.73
   3   0   6  494.22   22.59
  -3   0  -6  502.49   24.04
   3   0   6  502.65   23.29
  -4   0  -6   95.32   11.64
  -4   0  -6   91.38   12.99
   4   0   6  114.09   11.61
   4   0   6  106.53   11.60
  -5   0  -6   45.22   11.40
   5   0   6   46.42    9.84
   6   0   6   75.92   13.05
  -6   0  -6  109.39   17.50
   7   0   6  400.93   26.62
  -7   0  -6  444.05   31.55
   8   0   6   34.71   10.71
  -8   0  -6   52.55   14.29
   9   0   6   73.43   15.61
  -9   0  -6   60.11   17.90
  -9  -1   6    6.03   11.80
  -9   1   6    2.20   10.41
  -8  -1   6   24.53   11.84
  -8   1   6   23.23   11.45
   8   1  -6   16.30    8.16
  -7  -1   6   80.53   17.98
   7   1  -6   71.89   12.42
  -7   1   6   44.71   11.89
  -6  -1   6   18.86   10.13
  -6   1   6    7.76    8.83
   6   1  -6   15.94    6.70
  -5  -1   6    5.38    7.85
  -5   1   6   14.98    8.20
   4  -1  -6   48.46    9.31
  -4  -1   6   39.30    7.27
  -4  -1   6   43.16    9.82
  -4   1   6   43.38   10.03
   4   1  -6   46.11    8.88
   4   1  -6   42.24    8.36
  -3  -1   6  235.19   13.67
   3  -1  -6  232.15   13.64
  -3  -1   6  234.01   17.96
   3  -1  -6  267.88   15.77
  -3   1   6  261.45   17.53
  -3   1   6  251.12   13.25
   3   1  -6  257.18   15.17
   3   1  -6  282.36   17.38
   2  -1  -6    2.23    3.94
   2  -1  -6    3.89    3.15
  -2  -1   6    8.92    5.17
   2   1  -6    4.98    3.99
   2   1  -6   -3.85    4.00
  -1  -1   6   57.59    7.66
   1  -1  -6   58.09    6.24
  -1  -1   6   68.26    7.66
   1  -1  -6   62.60    8.53
  -1   1   6   64.35    7.16
   1   1  -6   68.82    7.44
   1   1  -6   80.20   11.11
   0  -1   6   52.08    7.31
   0  -1   6   37.60    6.30
   0  -1  -6   44.62    6.00
   0   1  -6   44.19    6.47
   0   1   6   44.23    5.06
   0   1   6   37.45    5.69
   0   1  -6   39.72    6.12
  -1  -1  -6  203.80   10.74
  -1  -1  -6  189.69   11.39
   1  -1   6  200.22   11.92
   1  -1   6  196.56   11.91
   1   1   6  194.02   11.24
  -1   1  -6  194.78   11.34
   1   1   6  203.67   11.42
  -1   1  -6  222.73   12.80
   2  -1   6   96.51    9.23
  -2  -1  -6   96.29    8.10
   2  -1   6   88.63    8.73
  -2  -1  -6   85.66    4.57
  -2  -1  -6   91.88    9.17
   2   1   6  101.79    9.02
  -2   1  -6   77.13    7.87
  -2   1  -6   86.06    9.44
   2   1   6   99.40    8.87
   3  -1   6    3.73    4.10
   3  -1   6    0.00    3.86
  -3  -1  -6   -2.01    3.42
  -3  -1  -6   -2.63    3.43
  -3   1  -6    2.51    3.58
   3   1   6    1.17    4.03
  -3   1  -6   -2.43    4.05
   3   1   6   -3.04    2.50
   4  -1   6   34.07    7.94
   4  -1   6   46.31    9.12
  -4  -1  -6   24.10    6.30
  -4  -1  -6   27.24    8.34
  -4   1  -6   25.32    6.43
   4   1   6   21.72    7.18
   4   1   6   40.63    8.44
  -4   1  -6   42.28    9.26
   5  -1   6   67.35   11.80
  -5  -1  -6   85.66   14.00
  -5   1  -6   68.28   12.77
   5   1   6   83.44   12.62
  -6  -1  -6   16.99    9.24
   6  -1   6   12.58    7.78
   6   1   6   24.53    8.20
  -6   1  -6   -0.21   10.00
   7  -1   6   21.99    8.41
  -7  -1  -6   30.82   12.01
  -7   1  -6    8.11    8.36
   7   1   6   18.17    8.36
  -8  -1  -6   11.36    9.48
   8  -1   6   20.67    8.95
   8   1   6    2.83    6.24
  -8   1  -6   21.45   11.33
  -9  -1  -6   49.55   16.98
   9  -1   6   38.04   11.64
  -9   1  -6   44.45   15.00
   9   1   6   40.84   12.69
  -9  -2   6   66.61   18.30
  -9   2   6   17.40   10.97
   9   2  -6   20.16    9.87
  -8  -2   6   34.64   12.03
   8   2  -6   38.25   10.59
  -8   2   6   32.78   11.97
  -7  -2   6   38.60   12.50
  -7   2   6   25.38   10.74
   7   2  -6   47.77   10.62
  -6  -2   6   31.92   11.74
   6   2  -6   37.25    9.29
  -6   2   6   28.37   10.68
  -5  -2   6  107.82   16.80
  -5   2   6  105.69   15.62
   4  -2  -6   89.22    9.36
  -4  -2   6   93.85    9.56
   4  -2  -6   94.62   10.09
  -4  -2   6  119.25   16.53
  -4   2   6   94.26   13.35
   4   2  -6  105.16   13.94
   4   2  -6   94.06   12.01
  -4   2   6  106.01    9.06
   3  -2  -6   -0.20    3.04
  -3  -2   6    3.46    3.60
  -3  -2   6    0.90    5.64
   3  -2  -6    1.67    3.51
  -3   2   6    2.78    3.16
  -3   2   6    2.41    4.98
   3   2  -6    1.30    4.02
   3   2  -6    2.38    4.15
  -2  -2   6   17.02    7.38
   2  -2  -6   17.98    4.16
   2  -2  -6   17.24    4.57
   2   2  -6   12.95    4.68
   2   2  -6   31.35    7.80
  -2   2   6   17.17    5.70
  -1  -2   6   74.65    7.46
   1  -2  -6   88.94    8.25
  -1  -2   6   80.28    7.52
   1  -2  -6   79.85    6.46
   1   2  -6   78.20    7.72
   1   2  -6   82.43   11.56
  -1   2   6   63.88    6.31
   0  -2   6   82.15    8.15
   0  -2   6   69.51    7.55
   0  -2  -6   89.26    6.87
   0   2   6   80.82    6.85
   0   2  -6   87.03    7.85
   0   2  -6   85.53    8.69
   0   2   6   76.09    6.89
   1  -2   6   11.97    4.53
   1  -2   6   18.28    2.07
  -1  -2  -6   11.76    4.11
  -1  -2  -6   15.86    3.79
  -1  -2  -6   10.85    2.88
   1  -2   6   16.99    4.75
  -1   2  -6   12.95    5.11
  -1   2  -6   18.48    4.89
   1   2   6   14.48    4.21
   1   2   6   12.57    2.85
  -2  -2  -6   22.81    4.76
  -2  -2  -6   18.28    3.16
   2  -2   6   22.41    5.30
  -2  -2  -6   12.60    4.92
   2  -2   6    9.73    5.03
  -2   2  -6   17.54    5.68
   2   2   6   26.56    5.62
   2   2   6   15.26    4.95
  -2   2  -6   20.24    5.07
   3  -2   6  174.31   12.53
  -3  -2  -6  165.08   13.38
  -3  -2  -6  152.19   10.93
   3  -2   6  124.50   11.44
   3   2   6  155.26   11.79
  -3   2  -6  147.33   11.26
  -3   2  -6  151.68    7.36
  -3   2  -6  141.47   12.86
   3   2   6  140.36   11.76
  -4  -2  -6   77.56   12.43
  -4  -2  -6   91.67   10.77
   4  -2   6   84.66   11.24
   4  -2   6   62.60   10.52
  -4   2  -6   80.93   10.42
  -4   2  -6   64.25   10.93
   4   2   6   87.66   11.37
  -5  -2  -6    3.06    6.99
   5  -2   6    3.96    6.23
  -5   2  -6    7.76    6.74
   5   2   6   -0.29    5.30
   6  -2   6    9.92    6.95
  -6  -2  -6    4.75    7.39
   6   2   6   14.32    7.34
  -6   2  -6    1.14    7.30
   7  -2   6  111.44   16.46
  -7  -2  -6   94.59   17.46
  -7   2  -6   95.18   17.35
   7   2   6  101.08   15.64
   8  -2   6   40.55   11.70
  -8  -2  -6   41.65   13.79
   8   2   6   35.62   11.05
  -8   2  -6   31.99   12.94
   9  -2   6   12.70    9.02
  -9  -2  -6  -14.56    8.82
  -9   2  -6    5.21   10.66
   9   2   6  -13.76    7.18
  -9  -3   6   10.86   11.49
  -9   3   6   13.26   10.70
   9   3  -6   -4.08    5.97
  -8  -3   6   60.06   16.49
  -8   3   6   70.65   16.98
   8   3  -6   71.97   13.43
  -7  -3   6  191.54   25.68
  -7   3   6  149.45   21.24
   7   3  -6  160.67   16.38
  -6  -3   6   63.20   17.87
  -6   3   6   50.70   15.25
  -5  -3   6   -7.57    7.05
  -5   3   6    0.52    4.09
   5   3  -6   10.99    6.19
  -5   3   6   -2.86    5.72
   4  -3  -6  134.00   12.00
  -4  -3   6   93.81    9.82
  -4  -3   6  124.38   16.81
   4   3  -6  107.95   11.77
  -4   3   6  103.06   13.22
   4   3  -6  110.62   14.72
  -4   3   6   97.77    8.96
   3  -3  -6  469.00   19.08
   3  -3  -6  491.24   20.47
  -3  -3   6  441.06   20.69
  -3  -3   6  466.01   27.39
   3   3  -6  471.68   22.74
  -3   3   6  461.86   18.64
  -3   3   6  464.97   22.67
   3   3  -6  461.74   25.13
  -2  -3   6  144.79   14.77
   2  -3  -6  146.27    9.35
   2  -3  -6  140.96    8.43
  -2  -3   6  154.43   10.52
   2   3  -6  146.38   13.81
  -2   3   6  152.43   11.47
   2   3  -6  152.62   11.51
   1  -3  -6   17.99    4.23
  -1  -3   6   15.02    4.69
  -1  -3   6   14.34    4.69
   1   3  -6   15.69    6.94
   1   3  -6   15.91    4.45
  -1   3   6   19.62    5.05
  -1   3   6   11.98    3.54
   0  -3  -6  109.43    7.03
   0  -3   6  102.29    8.85
   0  -3   6   94.67    8.99
   0   3   6   99.28    7.08
   0   3   6  115.84    7.94
   0   3   6  107.63    7.19
   0   3  -6   97.93    9.57
   0   3  -6  119.01    9.02
  -1  -3  -6  567.40   21.69
   1  -3   6  576.74   23.54
   1  -3   6  584.90   18.51
  -1  -3  -6  574.64   20.33
  -1  -3  -6  584.93   20.63
   1  -3   6  597.42   23.86
   1   3   6  598.63   21.76
   1   3   6  572.40   20.41
  -1   3  -6  613.90   23.61
  -1   3  -6  598.31   24.62
   1   3   6  597.32   21.86
  -2  -3  -6   95.07    7.53
   2  -3   6  103.98    9.72
   2  -3   6   96.41    9.25
  -2  -3  -6   91.87    6.72
  -2  -3  -6   96.62    9.31
  -2   3  -6  101.92    9.04
  -2   3  -6  116.94   11.04
   2   3   6  113.22    9.28
   2   3   6  112.58    9.04
  -3  -3  -6   12.64    5.57
  -3  -3  -6    8.33    3.85
   3  -3   6    8.85    5.03
   3   3   6   11.25    5.41
   3   3   6   13.55    5.16
  -3   3  -6    5.96    5.60
  -3   3  -6   12.85    3.04
  -4  -3  -6    9.82    6.51
   4  -3   6   20.26    7.06
   4  -3   6   17.78    6.96
  -4  -3  -6   17.30    8.14
  -4   3  -6    7.15    6.17
  -4   3  -6   16.10    4.56
   4   3   6   10.29    5.95
  -4   3  -6   20.44    9.00
   4   3   6   11.77    6.28
  -5  -3  -6  210.12   19.41
   5  -3   6  252.50   18.30
  -5   3  -6  220.32   19.75
   5   3   6  237.53   17.89
  -5   3  -6  227.65   13.86
  -6  -3  -6   24.88   10.60
   6  -3   6   22.17    7.92
   6   3   6   47.33   10.32
  -6   3  -6   31.81    9.93
  -6   3  -6   29.32    7.34
  -7  -3  -6   30.92   11.16
   7  -3   6   31.07    9.55
  -7   3  -6   31.63   11.11
   7   3   6   27.58    9.26
  -7   3  -6   30.00    8.30
   8  -3   6    1.73    7.42
  -8  -3  -6   11.05   10.08
   8   3   6   11.39    7.72
  -8   3  -6   14.37   10.14
  -9  -3  -6  155.13   25.40
   9  -3   6  131.09   19.63
  -9   3  -6  168.78   26.94
   9   3   6  114.65   18.61
  -9  -4   6   21.33   11.20
  -9   4   6   29.20   14.13
   9   4  -6    9.48    8.19
  -8  -4   6  -10.44    8.36
  -8   4   6    0.39    8.80
   8   4  -6    5.87    7.05
  -7  -4   6   61.05   16.03
   7   4  -6   82.26   13.56
  -7   4   6  103.45   17.86
   6   4  -6   96.72   13.91
  -5  -4   6   43.81   12.97
  -5   4   6   46.35   10.80
  -5   4   6   56.64    9.07
   5   4  -6   43.19    9.58
  -4  -4   6   26.04    6.52
  -4  -4   6   10.45    7.96
   4  -4  -6   18.46    5.08
  -4   4   6   23.83    7.66
   4   4  -6   16.19    7.76
   4   4  -6   16.98    7.09
  -4   4   6   24.07    5.53
  -3  -4   6  136.13   11.01
   3  -4  -6  134.77    8.75
  -3  -4   6  126.65   17.05
   3  -4  -6  130.76    9.14
  -3   4   6  128.99    8.39
  -3   4   6  132.10   11.46
   3   4  -6  126.86   13.68
   3   4  -6  137.52   12.29
  -2  -4   6  122.82   16.23
   2  -4  -6  148.99    9.73
   2  -4  -6  150.68    8.41
  -2  -4   6  151.48   10.82
   2   4  -6  145.32   11.73
   2   4  -6  149.91   14.64
  -2   4   6  134.98   10.43
  -2   4   6  156.54   12.47
   1  -4  -6   57.28    5.12
  -1  -4   6   71.21    8.51
  -1  -4   6   79.46    8.12
  -1   4   6   79.64    9.16
  -1   4   6   66.12    5.49
   1   4  -6   86.23    9.11
   1   4  -6   90.52   13.34
   0  -4   6  186.48   11.95
   0  -4  -6  165.41    8.24
   0  -4   6  177.64   11.82
   0  -4  -6  172.16   10.86
   0   4   6  177.59    8.79
   0   4  -6  137.61   10.70
   0   4   6  174.56    8.82
   0   4  -6  170.10   12.37
   0   4   6  178.01   10.55
  -1  -4  -6   25.80    4.86
   1  -4   6   33.75    6.37
   1  -4   6   26.19    6.13
  -1  -4  -6   32.37    4.22
  -1  -4  -6   27.23    5.02
   1  -4   6   42.49    5.08
   1   4   6   41.43    6.35
  -1   4  -6   39.19    6.30
   1   4   6   40.20    5.61
  -1   4  -6   28.96    6.96
  -2  -4  -6  156.40    9.35
   2  -4   6  163.01   11.75
  -2  -4  -6  129.94   10.79
  -2  -4  -6  146.23    9.43
   2  -4   6  166.11   12.10
  -2   4  -6  155.55   11.00
   2   4   6  152.73   10.40
   2   4   6  148.91   10.78
  -2   4  -6  150.59   12.70
   3  -4   6   43.23    7.96
  -3  -4  -6   49.06    7.19
  -3  -4  -6   49.70    9.04
   3  -4   6   46.82    8.30
  -3   4  -6   38.53    8.68
  -3   4  -6   44.96    8.05
   3   4   6   56.63    8.58
  -3   4  -6   43.29    4.69
   3   4   6   49.73    8.07
  -4  -4  -6   39.68    8.76
   4  -4   6   42.18    8.88
  -4  -4  -6   59.09   11.53
   4   4   6   37.34    8.81
  -4   4  -6   39.56    9.91
   4   4   6   39.67    8.82
  -4   4  -6   52.17    6.90
   5  -4   6   67.08   11.11
  -5  -4  -6   62.91   12.79
   5   4   6   69.97   12.02
  -5   4  -6   55.99   11.85
  -5   4  -6   66.62    8.95
   6  -4   6   81.86   13.35
  -6  -4  -6   86.34   15.77
   6   4   6   91.88   14.60
  -6   4  -6   67.23   14.19
  -6   4  -6   91.30   11.48
  -7  -4  -6   23.49   11.00
   7  -4   6    1.21    5.65
  -7   4  -6   20.69   10.76
  -7   4  -6    9.76    6.87
   7   4   6   16.68    8.20
  -8  -4  -6    3.79    9.15
   8  -4   6   -0.96    6.31
   8   4   6    1.17    7.01
  -8   4  -6   -2.89    6.10
  -9  -4  -6   44.22   15.05
   9  -4   6   52.24   13.84
   9   4   6   35.61   11.34
  -9   4  -6   19.71   11.36
  -9  -5   6   20.17   15.03
  -9   5   6   32.79   13.30
   9   5  -6   50.67   12.98
  -8  -5   6   11.66   10.91
   8   5  -6    6.12    7.27
  -8   5   6   -1.31    8.42
  -7  -5   6   24.10   12.12
   7   5  -6   19.66    9.19
  -7   5   6   33.89   11.09
   6   5  -6  132.21   16.23
  -6   5   6  113.64   19.12
  -5  -5   6  106.78   18.85
  -5   5   6   76.27   10.00
  -5   5   6   73.53   12.46
   5   5  -6   71.01   11.95
  -4  -5   6   37.37    8.17
   4  -5  -6   46.68    6.96
  -4  -5   6   34.93   11.60
   4  -5  -6   39.76    6.37
   4   5  -6   35.04    8.97
   4   5  -6   57.77   11.76
  -4   5   6   51.32    7.39
  -4   5   6   36.18    8.36
   3  -5  -6  121.70    7.72
   3  -5  -6  118.84    7.99
  -3  -5   6  107.34   16.57
   3   5  -6  129.79   16.81
   3   5  -6  105.40   11.70
  -3   5   6  121.59    7.95
  -3   5   6  127.73   12.42
  -3   5   6  110.40   10.17
  -2  -5   6  206.21   18.26
   2  -5  -6  216.74    8.71
  -2  -5   6  201.40   12.81
   2   5  -6  203.90   14.32
  -2   5   6  205.62   14.74
  -2   5   6  215.09   12.39
   2   5  -6  226.30   18.41
   1  -5  -6    9.53    1.46
  -1  -5   6    4.68    4.54
  -1  -5   6    5.22    3.98
  -1   5   6    9.00    2.54
   1   5  -6   12.40    5.72
  -1   5   6    9.62    4.96
   1   5  -6   12.07    6.75
   0  -5  -6  114.54   10.03
   0  -5   6  129.17   10.36
   0  -5   6  120.28    9.84
   0   5  -6  118.88   11.05
   0   5   6  123.87    9.47
   0   5   6  116.37    6.78
   0   5  -6  139.89   10.43
   0   5   6  116.07    6.98
  -1  -5  -6  128.29    9.62
  -1  -5  -6  128.13    6.31
   1  -5   6  133.84   10.69
   1  -5   6  127.04   10.47
  -1  -5  -6  145.40    9.02
   1   5   6  138.71    8.95
  -1   5  -6  133.00   10.45
  -1   5  -6  141.12   11.92
   1   5   6  140.83    8.45
  -2  -5  -6  214.82   10.90
  -2  -5  -6  212.46   13.33
  -2  -5  -6  233.16   12.82
   2  -5   6  231.48   13.27
   2  -5   6  199.13   13.30
   2  -5   6  212.12   13.96
  -2   5  -6  212.03   13.35
   2   5   6  202.38   12.70
  -2   5  -6  224.09   15.47
   2   5   6  213.27   12.24
   3  -5   6   18.90    5.55
   3  -5   6   18.16    5.98
  -3  -5  -6   22.07    4.85
  -3  -5  -6   28.17    7.49
  -3  -5  -6   34.33    6.58
  -3   5  -6   31.17    6.53
  -3   5  -6   24.16    4.52
   3   5   6   17.89    5.71
  -3   5  -6   25.04    7.10
   3   5   6   25.20    7.03
  -4  -5  -6   45.11    9.98
  -4  -5  -6   48.53    8.44
   4  -5   6   47.93    8.78
  -4   5  -6   58.05    7.51
  -4   5  -6   48.83   10.26
   4   5   6   57.62    9.91
   4   5   6   52.03    9.67
  -5  -5  -6  171.73   17.96
   5  -5   6  160.00   14.71
   5   5   6  186.37   16.33
   5   5   6  151.31   15.91
  -5   5  -6  149.27   11.88
  -5   5  -6  162.79   17.78
  -6  -5  -6   94.54   16.89
   6  -5   6   76.53   12.30
   6   5   6   96.09   14.62
  -6   5  -6   98.16   12.42
  -6   5  -6   89.97   16.07
   7  -5   6   -0.53    5.96
  -7  -5  -6    3.99    8.30
  -7   5  -6    8.72    7.79
   7   5   6   12.57    7.87
  -7   5  -6   10.18    9.38
   8  -5   6   44.78   11.54
  -8  -5  -6   40.34   12.51
   8   5   6   37.34   11.92
  -8   5  -6    6.66    9.88
   9  -5   6   53.28   13.34
  -9  -5  -6   47.65   17.08
   9   5   6   60.41   14.01
  -9   5  -6   50.24   16.30
  -9  -6   6   34.39   15.49
   9   6  -6   35.24   12.26
  -9   6   6   40.41   14.69
  -8  -6   6   -0.86    8.46
  -8   6   6   15.52    8.24
   8   6  -6   -3.00    6.25
  -7  -6   6    5.85    9.97
  -7   6   6    1.72    5.36
   7   6  -6    2.22    6.48
  -6  -6   6   80.17   17.32
   6   6  -6   76.94   13.73
  -6   6   6   64.85   12.44
   5  -6  -6  140.61   15.05
  -5  -6   6  117.00   20.46
   5   6  -6  116.69   16.24
   5   6  -6  136.14   14.45
  -5   6   6  118.53   10.74
  -5   6   6  112.19   14.51
   4  -6  -6    4.45    3.74
  -4  -6   6   20.60   10.57
   4  -6  -6   11.72    4.61
  -4   6   6    8.70    3.74
  -4   6   6   16.00    6.30
   4   6  -6   19.36    8.32
   4   6  -6    7.56    5.65
  -3  -6   6   13.80    8.64
  -3  -6   6   10.12    5.13
   3  -6  -6   11.22    2.86
   3   6  -6    5.22    5.23
  -3   6   6   14.45    3.58
  -3   6   6   12.73    4.90
  -3   6   6    3.63    5.21
  -2  -6   6  140.22   11.42
  -2  -6   6  138.72   10.91
  -2  -6   6  133.13   16.96
  -2   6   6  137.14   12.46
  -2   6   6  131.03    9.03
   2   6  -6  166.99   13.11
   2   6  -6  138.00   14.98
  -1  -6   6  155.06   11.87
  -1  -6   6  145.38   11.53
   1  -6  -6  162.41   12.52
  -1   6   6  162.65    8.31
   1   6  -6  166.86   12.84
  -1   6   6  144.34   11.60
   1   6  -6  154.26   15.87
   0  -6  -6   33.69    2.64
   0  -6  -6   33.48    3.09
   0  -6  -6   36.37    7.05
   0  -6   6   31.56    6.55
   0  -6   6   38.01    7.05
   0   6   6   30.60    3.99
   0   6   6   36.10    3.81
   0   6   6   38.99    6.97
   0   6  -6   37.68    7.27
   0   6  -6   39.48    8.11
  -1  -6  -6   34.84    6.75
   1  -6   6   30.26    6.37
   1  -6   6   38.37    6.11
  -1  -6  -6   24.60    4.33
   1  -6   6   30.95    6.64
  -1   6  -6   25.98    6.09
   1   6   6   36.92    5.49
   1   6   6   23.43    4.31
  -1   6  -6   30.19    7.40
   2  -6   6   52.97    8.76
  -2  -6  -6   67.56    8.58
  -2  -6  -6   68.55    9.52
   2  -6   6   64.83    8.04
   2  -6   6   58.47    8.78
  -2  -6  -6   65.81    8.44
   2   6   6   57.96    7.87
  -2   6  -6   57.75    9.61
  -2   6  -6   50.89    9.58
   2   6   6   50.95    7.05
   3  -6   6  118.30   11.03
   3  -6   6   97.40   12.12
  -3  -6  -6  111.64   11.66
  -3  -6  -6  125.79   10.68
  -3  -6  -6  112.13    9.03
   3   6   6  110.11   10.70
  -3   6  -6  131.22   13.62
  -3   6  -6  101.50    8.26
  -3   6  -6  109.42   10.63
   3   6   6  121.24   11.42
  -4  -6  -6    0.40    4.33
   4  -6   6   -2.08    4.96
  -4  -6  -6   11.60    7.29
   4   6   6    0.39    5.25
   4   6   6    6.83    5.71
  -4   6  -6    4.11    3.90
  -4   6  -6   -3.15    5.76
  -5  -6  -6   29.60    7.40
  -5  -6  -6   44.15   11.47
   5  -6   6   30.07    8.77
   5   6   6   43.63    9.69
  -5   6  -6   34.82   10.48
  -5   6  -6   26.23    6.89
   5   6   6   34.41    9.87
  -6  -6  -6   36.70   11.53
   6  -6   6   54.60   11.18
   6   6   6   40.45    9.95
  -6   6  -6   46.33   12.31
  -6   6  -6   45.77    8.85
   7  -6   6   49.39   11.23
  -7  -6  -6   37.74   13.72
  -7   6  -6   42.41   12.51
   7   6   6   34.41   10.66
  -8  -6  -6  -10.83    7.81
   8  -6   6   -2.03    6.76
   8   6   6   15.61    9.44
  -8   6  -6    1.75    8.80
  -9  -6  -6   18.36   13.19
   9  -6   6   15.68    8.66
  -9   6  -6   10.61   15.07
  -9  -7   6   97.01   24.30
  -9   7   6   68.55   17.06
   9   7  -6   78.79   16.26
  -8  -7   6   53.40   17.41
  -8   7   6   69.66   15.37
   8   7  -6   95.44   16.27
  -7  -7   6   20.23   10.95
  -7   7   6   -2.63    5.91
   7   7  -6   13.56    8.53
  -6  -7   6  137.39   22.60
  -6   7   6  146.66   16.11
   6   7  -6  176.42   17.86
   6   7  -6  150.34   15.85
  -5  -7   6  127.41   20.97
   5  -7  -6  133.34   10.62
   5  -7  -6  157.14   11.63
  -5   7   6  140.94   14.67
  -5   7   6  133.72   11.23
   5   7  -6  163.79   16.84
  -4  -7   6  165.89   22.09
   4  -7  -6  163.13    9.79
  -4   7   6  166.03   10.71
   4   7  -6  166.95   22.37
  -4   7   6  166.82   13.68
   4   7  -6  193.83   16.64
   3  -7  -6    9.64    1.56
  -3  -7   6    6.98    8.86
  -3  -7   6    5.23    4.65
   3  -7  -6   12.41    1.82
  -3   7   6   21.81    7.97
   3   7  -6   12.44    7.06
  -3   7   6    8.88    4.52
  -3   7   6    8.18    2.94
   3   7  -6    8.05    6.06
  -2  -7   6  223.84   13.79
  -2  -7   6  213.78   14.57
  -2   7   6  199.73   10.48
   2   7  -6  181.24   17.85
  -2   7   6  208.12   15.55
   2   7  -6  202.71   15.09
  -1  -7   6  281.96   16.05
  -1  -7   6  253.92   14.72
   1  -7  -6  282.95   17.98
  -1   7   6  280.38   16.65
   1   7  -6  255.96   20.85
   1   7  -6  264.50   16.82
  -1   7   6  283.58    9.65
   0  -7   6  449.04   23.73
   0  -7  -6  476.23   22.90
   0  -7   6  471.14   21.23
   0   7   6  470.20   21.79
   0   7   6  463.66   15.19
   0   7  -6  468.96   23.02
   0   7  -6  441.11   21.46
   0   7   6  463.73   15.90
   1  -7   6   -2.67    2.89
   1  -7   6   -0.90    3.69
  -1  -7  -6    1.47    4.40
   1  -7   6    0.84    3.88
  -1   7  -6   -1.97    4.45
   1   7   6   -1.30    2.53
   1   7   6   -0.64    2.49
  -1   7  -6   -3.46    3.30
   2  -7   6   98.24    9.35
   2  -7   6   96.11   11.42
   2  -7   6   86.95    9.23
  -2  -7  -6   93.30   11.25
  -2  -7  -6   89.52    6.13
  -2  -7  -6   96.44    9.36
  -2   7  -6  108.42   13.53
  -2   7  -6   86.82    9.21
   2   7   6   86.18    8.25
  -3  -7  -6  102.56    8.64
   3  -7   6   87.52   11.04
  -3  -7  -6  108.71   10.91
  -3  -7  -6   76.87   11.20
   3   7   6   86.44   10.58
  -3   7  -6   88.24   13.22
   3   7   6   91.24   11.41
  -3   7  -6   78.87    8.00
  -4  -7  -6  165.72   16.27
  -4  -7  -6  164.78   12.66
   4  -7   6  178.01   14.55
   4   7   6  167.56   15.64
   4   7   6  181.79   14.70
  -4   7  -6  180.18   17.17
  -4   7  -6  154.60   11.91
  -5  -7  -6   -0.68    4.92
  -5  -7  -6   -5.21    5.76
   5  -7   6    3.33    5.49
   5   7   6   -0.45    5.95
   5   7   6    1.95    5.52
  -5   7  -6   -6.54    6.28
  -5   7  -6   -5.21    4.10
  -6  -7  -6   57.77   13.22
   6  -7   6   42.02    9.59
   6   7   6   43.06   10.74
  -6   7  -6   43.90   11.97
  -6   7  -6   47.62    9.18
  -7  -7  -6   47.56   14.82
   7  -7   6   48.66   11.03
   7   7   6   25.40   10.18
  -7   7  -6   12.86    9.62
   8  -7   6  120.68   17.37
  -8  -7  -6  102.43   20.65
  -8   7  -6  102.47   20.19
   8   7   6  121.52   18.99
  -9  -8   6    8.79   11.37
  -9   8   6   13.53   11.87
   9   8  -6    8.62    9.24
  -8  -8   6   57.04   17.41
   8   8  -6   71.50   14.84
  -8   8   6   62.03   14.39
  -7  -8   6   96.14   21.17
   7   8  -6   79.39   15.19
   7   8  -6   86.52   15.87
  -7   8   6  115.24   18.26
   6  -8  -6    7.41    4.89
  -6  -8   6   24.94   12.12
  -6   8   6    4.79    5.76
   6   8  -6   17.29    7.86
   6   8  -6    9.73    6.71
  -5  -8   6   -3.32    8.05
   5  -8  -6    0.63    3.84
  -5   8   6   -1.02    4.88
   5   8  -6   10.91    8.48
  -5   8   6    3.40    4.05
   4  -8  -6   78.08    5.79
  -4  -8   6   59.03   15.20
   4  -8  -6   80.75    5.49
  -4   8   6   68.35    7.91
   4   8  -6   61.54   12.08
  -4   8   6   81.74   10.49
  -3  -8   6   61.96    9.67
  -3  -8   6   48.68    9.20
  -3  -8   6   44.45   12.94
  -3   8   6   51.08    7.16
   3   8  -6   40.19    9.37
  -3   8   6   50.26    5.00
   3   8  -6   63.38   13.36
  -2  -8   6   41.24    8.24
  -2  -8   6   43.43    8.32
   2   8  -6   27.89    9.88
  -2   8   6   55.29   10.23
  -2   8   6   39.64    4.89
   2   8  -6   40.83    8.49
   1  -8  -6   52.74   10.06
  -1  -8   6   49.12    8.16
  -1  -8   6   66.29    9.14
  -1  -8   6   54.68    8.95
   1   8  -6   47.85   11.36
  -1   8   6   48.53    2.80
   1   8  -6   59.84    9.26
  -1   8   6   42.44    8.65
   0  -8   6   87.75   10.58
   0  -8  -6   60.58   10.09
   0  -8   6   70.54    9.67
   0  -8   6   79.36   10.06
   0   8  -6   59.38   12.14
   0   8  -6   74.66   10.43
   0   8  -6   57.32    8.82
   0   8   6   69.35    4.58
  -1  -8  -6   26.91    7.07
   1  -8   6   43.46    7.48
   1  -8   6   37.73    7.18
  -1  -8  -6   26.12    4.16
   1  -8   6   32.15    7.31
   1   8   6   38.06    5.57
  -1   8  -6   25.83    7.91
   1   8   6   29.47    4.77
  -1   8  -6   24.19    6.31
  -2  -8  -6  101.18   10.95
   2  -8   6   76.65   10.27
  -2  -8  -6   85.15    9.14
   2  -8   6   81.42   10.03
   2  -8   6   85.97   10.96
   2   8   6   89.91    8.96
  -2   8  -6   73.50   11.78
   2   8   6   84.56    8.63
  -2   8  -6   88.96   10.84
  -3  -8  -6   44.03    6.00
  -3  -8  -6   65.13    9.99
   3  -8   6   48.60    8.40
   3   8   6   51.52    8.98
   3   8   6   44.55    8.51
  -3   8  -6   48.55    7.91
  -3   8  -6   55.64   10.99
  -4  -8  -6   57.94   11.95
  -4  -8  -6   59.94   10.38
   4  -8   6   60.89   10.19
  -4  -8  -6   56.71    8.35
  -4   8  -6   55.70   11.80
   4   8   6   54.19   10.33
  -4   8  -6   58.59    9.09
   4   8   6   55.26   10.45
  -5  -8  -6   33.52    7.55
  -5  -8  -6   39.78   10.58
   5  -8   6   37.03    8.60
  -5   8  -6   40.67    8.32
  -5   8  -6   27.79    9.69
   5   8   6   10.70    7.37
   5   8   6   20.11    8.08
   6  -8   6   53.55   10.48
  -6  -8  -6   56.83   13.77
  -6   8  -6   57.90   13.73
   6   8   6   63.83   12.59
  -7  -8  -6   29.68   12.08
   7  -8   6   33.11    9.13
   7   8   6   22.26    9.68
  -7   8  -6   16.51   10.67
  -8  -8  -6   26.98   13.60
   8  -8   6   20.37    9.58
  -8   8  -6   18.99   10.79
   8   8   6   30.81   11.16
  -8  -9   6  -13.60   10.38
   8   9  -6   -2.75    7.07
  -8   9   6    3.71    9.18
  -7  -9   6   -9.49    7.80
   7  -9  -6   -1.21    5.42
   7   9  -6   -3.05    5.59
  -7   9   6  -10.96    4.25
   7   9  -6  -10.93    4.74
  -6  -9   6   18.30   10.85
   6  -9  -6   11.52    6.90
  -6   9   6   15.74    7.43
   6   9  -6   14.86    8.74
   5  -9  -6   21.38    4.04
  -5  -9   6   11.91   10.14
   5  -9  -6   20.87    4.67
  -5   9   6   18.00    5.80
   5   9  -6   22.05    9.49
  -5   9   6   29.30    7.90
  -4  -9   6   39.90   13.40
  -4   9   6   23.29    5.07
  -4   9   6   15.99    5.33
   4   9  -6   14.84    7.70
  -3  -9   6   -1.79    7.66
  -3  -9   6    2.03    5.35
  -3  -9   6   -2.91    4.59
   3   9  -6   -1.03    5.94
  -3   9   6    1.75    2.35
  -3   9   6    0.62    3.44
   3   9  -6    3.65    8.03
  -2  -9   6    6.68    5.06
  -2  -9   6    8.97    5.48
   2   9  -6    9.34    8.45
   2   9  -6    3.27    5.74
  -1  -9   6   14.38    5.49
   1  -9  -6   12.39    7.74
  -1  -9   6   10.44    5.76
  -1   9   6   11.78    6.19
   1   9  -6   12.77    7.61
   1   9  -6   22.38    7.53
   0  -9   6   16.18    6.07
   0  -9   6    9.69    5.27
   0  -9   6    5.04    4.33
   0  -9  -6    7.87    6.66
   0  -9   6   14.47    5.60
   0   9  -6    4.82    7.57
   0   9   6    1.60    5.18
   0   9  -6   12.57    5.31
   0   9   6    8.60    2.36
   0   9  -6   14.38    6.96
   0   9   6    9.61    2.61
   1  -9   6    7.20    4.61
   1  -9   6    7.85    5.47
  -1  -9  -6    8.79    2.79
   1  -9   6   12.91    5.03
  -1  -9  -6    7.13    6.09
  -1   9  -6    4.34    4.51
   1   9   6    7.21    3.33
  -1   9  -6   18.77    7.17
   1   9   6    5.33    3.41
   2  -9   6   -1.79    4.78
  -2  -9  -6    6.63    5.32
  -2  -9  -6   -4.28    5.12
   2  -9   6   -4.72    3.55
   2   9   6   -0.59    3.92
   2   9   6   -1.01    3.40
  -2   9  -6    0.05    5.71
  -3  -9  -6   12.38    6.43
   3  -9   6    7.80    5.84
   3  -9   6    5.56    5.42
  -3  -9  -6    6.72    6.16
  -3   9  -6   11.22    7.01
   3   9   6    5.61    5.11
   3   9   6    2.18    5.01
  -4  -9  -6  115.72   15.34
  -4  -9  -6   91.26    9.63
  -4  -9  -6  132.02   14.22
   4  -9   6   98.42   12.10
   4   9   6  119.15   14.23
  -4   9  -6   96.23   14.96
   4   9   6  109.41   14.18
  -4   9  -6  103.91   11.33
   5  -9   6    4.87    5.75
  -5  -9  -6    6.03    7.20
  -5  -9  -6    9.32    6.39
  -5   9  -6    9.51    7.61
   5   9   6   16.40    7.98
   5   9   6    5.16    6.56
  -5   9  -6   -0.49    5.02
   6  -9   6    5.14    6.06
  -6  -9  -6    6.84    8.26
  -6   9  -6    6.98    7.14
   6   9   6   -3.54    5.26
   7  -9   6    2.41    6.21
  -7  -9  -6   -5.88   10.54
   7   9   6   13.28    8.28
  -7   9  -6   19.15   10.70
   8  -9   6   38.55   10.70
  -8  -9  -6   54.78   17.27
  -8   9  -6   17.71   10.92
   8   9   6   45.53   12.42
   8 -10  -6   76.16   11.80
  -8 -10   6  100.48   23.99
  -8  10   6  108.62   18.90
   8  10  -6  117.62   21.61
  -7 -10   6  129.13   24.25
   7  10  -6  104.59   18.19
  -7  10   6   98.68   15.92
  -6 -10   6   71.15   17.67
   6 -10  -6   65.58    6.91
  -6  10   6   44.34   10.57
   6  10  -6   77.30   15.37
   5 -10  -6    3.20    1.67
   5 -10  -6    4.08    1.33
  -5 -10   6  -11.82    6.58
  -5  10   6   -1.96    4.69
   5  10  -6    2.44    6.53
  -5  10   6    8.78    6.03
  -4 -10   6  206.39   26.18
  -4 -10   6  191.02   16.02
   4  10  -6  198.13   18.63
  -4  10   6  186.39   13.10
  -4  10   6  182.26   10.99
  -3 -10   6  224.05   15.96
  -3 -10   6  224.60   16.80
  -3  10   6  217.23    9.91
  -3  10   6  221.67   11.57
   3  10  -6  244.87   19.39
   3  10  -6  188.64   20.48
   2 -10  -6  114.27   16.57
  -2 -10   6  131.08   12.32
   2  10  -6  116.82   18.23
   2  10  -6  136.57   14.27
  -1 -10   6    9.83    5.61
   1 -10  -6    9.96    6.87
  -1 -10   6    8.85    4.75
   1  10  -6    5.96    6.65
   1  10  -6   12.66    8.37
   0 -10   6  115.41   10.57
   0 -10  -6   87.81   13.26
   0 -10   6  130.49   13.07
   0 -10   6  108.60   10.44
   0  10  -6  106.81   13.57
   0  10  -6  114.63   14.56
   0  10   6  117.39    6.21
   0  10   6  115.12    6.48
   0  10  -6  122.03   18.96
   1 -10   6  138.82   11.41
  -1 -10  -6  165.04   15.17
   1 -10   6  160.40   14.43
  -1  10  -6  155.16   15.12
   1  10   6  145.02    9.26
   1  10   6  135.15    9.33
   2 -10   6  166.34   15.41
   2 -10   6  214.11   13.83
  -2 -10  -6  213.82   17.03
   2  10   6  178.18   12.16
  -2  10  -6  190.51   17.34
   2  10   6  177.36   12.92
  -3 -10  -6    3.70    5.39
  -3 -10  -6    5.93    6.06
   3 -10   6   -1.09    4.14
  -3 -10  -6    0.35    2.08
   3 -10   6   10.31    6.37
   3  10   6   -2.22    4.12
   3  10   6    4.46    5.33
  -3  10  -6   -1.06    6.35
  -4 -10  -6   75.88   12.75
  -4 -10  -6   77.55    8.73
   4 -10   6   71.42   10.40
  -4 -10  -6   79.73   13.68
  -4  10  -6   81.35   13.83
  -4  10  -6   77.65   11.33
   4  10   6   65.23   10.86
   4  10   6   70.72   11.69
  -5 -10  -6   37.13   10.35
  -5 -10  -6   44.98   10.03
   5 -10   6   64.92   10.57
  -5  10  -6   40.94   11.72
   5  10   6   36.27   10.57
   6 -10   6  259.50   18.66
  -6 -10  -6  240.22   23.55
  -6  10  -6  245.94   23.34
   6  10   6  231.38   20.65
   7 -10   6   -6.84    5.22
  -7 -10  -6  -33.45   10.95
   7  10   6   -5.13    6.66
  -7  10  -6   -8.07    7.49
   8 -10   6   27.74    9.89
  -8 -10  -6   11.46   12.03
  -8  10  -6   25.52   11.57
   8  10   6   31.99   12.00
  -8 -11   6   10.45   13.65
   8  11  -6   18.39   11.21
  -8  11   6   15.91   10.29
   7 -11  -6    3.69    4.61
  -7 -11   6   12.52   11.32
  -7  11   6    2.12    6.81
   7  11  -6   24.13    9.88
  -6 -11   6   21.34   13.87
   6 -11  -6   15.64    3.07
  -6  11   6   19.79    8.48
   6  11  -6   15.88    9.11
  -5 -11   6   30.08   13.98
   5  11  -6   22.62    9.70
  -5  11   6   20.74    7.21
  -4 -11   6   25.47   11.59
   4  11  -6   34.22    9.89
  -4  11   6   51.00    7.62
  -4  11   6   50.57    6.61
  -3 -11   6    1.54    5.15
  -3 -11   6   -2.00    4.66
   3  11  -6    2.82    6.04
  -3  11   6   -0.44    1.98
   3  11  -6   -3.61    8.49
  -3  11   6    5.73    2.94
   2 -11  -6   16.36    8.18
  -2 -11   6   11.56    6.47
   2  11  -6   21.82    7.33
   2  11  -6   21.60   12.82
  -2  11   6   16.04    1.65
  -1 -11   6   46.15    8.36
   1 -11  -6   61.37   13.12
  -1 -11   6   53.06   10.34
  -1 -11   6   43.09    8.09
   1  11  -6   44.86   13.44
   1  11  -6   41.66    9.64
   0 -11  -6   75.97   13.90
   0 -11   6   68.70    9.62
   0 -11   6   76.22   12.42
   0 -11   6   72.05    9.45
   0  11   6   74.75    5.28
   0  11  -6   80.39   15.88
   0  11   6   74.28    5.30
   0  11  -6   57.77   11.55
   1 -11   6    4.10    4.78
   1 -11   6    9.64    6.38
  -1 -11  -6    4.71    6.75
   1 -11   6    9.85    5.04
   1  11   6    2.67    5.49
  -1  11  -6    0.59    5.82
   1  11   6   11.50    3.96
   2 -11   6   18.76    5.96
   2 -11   6    7.28    6.68
  -2 -11  -6   17.43    7.96
  -2  11  -6   11.68    8.07
   2  11   6   20.09    5.68
   2  11   6   27.75    6.03
  -3 -11  -6   66.22   12.00
   3 -11   6   61.82   11.91
  -3 -11  -6   66.21   10.82
   3 -11   6   52.62    8.53
  -3  11  -6   58.37   11.55
   3  11   6   67.84    9.89
   3  11   6   70.46   10.75
   4 -11   6  132.86   12.20
  -4 -11  -6  125.75   16.25
  -4 -11  -6  115.01    8.99
   4  11   6  165.31   15.96
  -4  11  -6  120.10   17.11
   4  11   6  143.65   13.67
   5 -11   6   -8.11    4.30
  -5 -11  -6    4.63    7.11
  -5 -11  -6    3.34    5.77
  -5 -11  -6   -8.71    5.84
   5  11   6    0.89    5.68
  -5  11  -6    0.16    6.67
   5  11   6    3.43    7.73
  -6 -11  -6    2.61    7.66
  -6 -11  -6   -3.08    7.01
   6 -11   6    9.97    5.94
   6  11   6   24.63    9.26
  -6  11  -6   -0.47    7.33
  -7 -11  -6    8.51   10.04
  -7 -11  -6   20.81    9.61
   7 -11   6   19.92    7.87
   7  11   6   27.47   10.31
  -7  11  -6   15.85   10.96
  -8 -12   6   31.92   17.59
   8  12  -6   30.47   16.30
  -8  12   6   30.13   12.71
  -7 -12   6   15.50   12.17
   7  12  -6   15.69   10.77
  -7  12   6   13.00    8.15
  -6 -12   6  -10.87    7.44
  -6  12   6    3.70    5.77
   6  12  -6   -3.18    7.52
  -5 -12   6   23.28   11.21
  -5 -12   6   38.85   10.03
   5  12  -6   21.83    9.14
  -5  12   6   28.15    7.32
  -4 -12   6   76.89   17.29
  -4 -12   6   70.31   12.17
   4  12  -6   68.25   13.20
  -4  12   6   76.77    7.33
  -4  12   6   84.59    8.32
  -3 -12   6   41.07    8.72
  -3 -12   6   26.89    8.37
  -3  12   6   41.97    4.21
   3  12  -6   37.08   10.22
  -3  12   6   35.52    4.35
   2 -12  -6   38.06   11.75
  -2 -12   6   42.58    8.81
   2  12  -6   27.07    8.31
   2  12  -6   35.50   12.21
  -2  12   6   34.19    2.26
  -1 -12   6   70.02   12.07
   1 -12  -6   57.51   14.75
  -1 -12   6   51.82    8.64
  -1 -12   6   62.58    9.53
   1  12  -6   65.23   11.96
  -1  12   6   51.80    2.73
   1  12  -6   46.47   13.23
   0 -12   6   49.22    8.13
   0 -12   6   52.70    8.58
   0 -12   6   45.72   10.40
   0 -12  -6   34.60   10.05
   0  12   6   40.84    4.67
   0  12  -6   50.60   10.70
   0  12  -6   47.72   13.18
   0  12   6   38.40    4.29
   1 -12   6   38.08    7.09
  -1 -12  -6   16.06    7.99
   1 -12   6   24.59    6.37
   1 -12   6   26.16    8.30
   1  12   6   28.03    6.12
   1  12   6   18.89    4.64
  -1  12  -6   33.58    9.10
  -2 -12  -6   12.97    4.29
   2 -12   6   27.50    6.07
  -2 -12  -6    6.39    7.37
   2 -12   6   22.99    9.15
   2  12   6   22.33    6.33
  -2  12  -6   11.71    7.55
   2  12   6   21.47    5.53
  -3 -12  -6   55.92   11.70
   3 -12   6   49.09   11.77
  -3 -12  -6   52.27    9.85
   3 -12   6   57.68    8.37
   3  12   6   69.57    9.95
  -3  12  -6   59.92   12.15
   3  12   6   59.35   10.15
  -4 -12  -6   46.49   12.60
   4 -12   6   42.61    8.12
  -4 -12  -6   32.56    4.32
  -4 -12  -6   32.51    9.83
  -4  12  -6   49.60   11.16
   4  12   6   34.62    9.72
   4  12   6   58.71   10.26
  -5 -12  -6   12.75    9.29
  -5 -12  -6   14.28    8.33
   5 -12   6    7.52    5.51
  -5 -12  -6   20.34    6.07
   5  12   6    7.38    8.56
  -5  12  -6    5.00    8.06
   5  12   6   18.56    7.49
   6 -12   6   20.48    7.99
  -6 -12  -6    9.53   10.29
  -6 -12  -6    8.07    8.65
  -6 -12  -6   11.18    8.72
  -6  12  -6   17.68    8.66
   6  12   6   18.19    8.26
  -7 -12  -6   21.42   13.28
  -7 -12  -6   29.89   11.41
   7 -12   6   31.28    8.41
   7  12   6   29.77   11.45
  -7  12  -6   21.26   11.53
  -7 -13   6  -10.13    8.88
   7  13  -6   11.53   10.58
  -7  13   6   11.08    8.64
  -6 -13   6   81.84   20.83
  -6 -13   6   68.79   13.19
   6  13  -6   62.25   14.87
  -6  13   6   97.18   13.73
  -5 -13   6   42.00   16.41
  -5 -13   6   83.21   14.42
  -5  13   6   74.85   10.58
   5  13  -6   87.52   16.33
  -4 -13   6   98.03   13.87
  -4  13   6   99.05    8.72
  -4  13   6   75.74    7.58
   4  13  -6  130.83   18.35
  -3 -13   6   -2.84    5.47
  -3 -13   6   -4.04    5.20
  -3  13   6    1.57    2.34
   3  13  -6   -1.03    6.60
  -2 -13   6  133.84   12.22
  -2 -13   6  126.14   17.59
   2 -13  -6  105.18   17.76
   2  13  -6  127.54   20.38
  -2  13   6  114.68    5.57
   2  13  -6  162.60   16.43
  -1 -13   6   83.34   10.07
  -1 -13   6  110.75   10.94
   1 -13  -6   87.51   15.74
  -1 -13   6  118.24   18.32
  -1  13   6   97.04    4.65
   1  13  -6   89.04   16.79
   1  13  -6   97.10   14.57
   0 -13  -6  143.36   18.98
   0 -13   6  123.16   10.65
   0 -13   6  144.32   15.61
   0 -13   6  137.43   11.55
   0  13  -6  148.83   15.36
   0  13   6  129.27    7.56
   0  13   6  139.97    7.00
   0  13  -6  129.00   19.86
   0  13   6  133.52    7.04
   1 -13   6    4.80    4.10
  -1 -13  -6   -6.91    5.59
   1 -13   6  -11.92    4.64
  -1  13  -6   -1.77    5.87
   1  13   6   -0.70    3.10
   1  13   6   -1.83    2.86
  -1  13  -6   -5.68    6.17
   2 -13   6   70.13    8.90
   2 -13   6   73.66   13.71
  -2 -13  -6   55.36   11.79
   2 -13   6   66.22    8.21
   2  13   6   62.07    8.55
   2  13   6   45.66    7.98
  -2  13  -6   58.02   11.20
  -3 -13  -6   92.42   15.33
   3 -13   6   72.12    8.84
   3 -13   6   61.70   13.14
   3  13   6   75.80   10.81
   3  13   6   78.60   11.50
  -3  13  -6   78.49   13.59
  -4 -13  -6  214.98   19.68
   4 -13   6  177.20   12.86
  -4 -13  -6  228.00   20.42
   4  13   6  175.21   17.45
  -4  13  -6  141.71   18.45
   4  13   6  173.12   15.86
  -5 -13  -6    5.17    7.65
  -5 -13  -6   -7.48    8.19
  -5 -13  -6    0.25    3.78
   5 -13   6    3.16    4.71
   5  13   6  -12.30    7.87
  -5  13  -6    0.49    7.05
   5  13   6    8.98    7.10
   6 -13   6   35.42    8.95
  -6 -13  -6   52.20   14.34
  -6 -13  -6   52.59   13.04
  -6 -13  -6   38.69   14.74
  -6  13  -6   37.95   12.84
   6  13   6   45.58   11.88
  -7 -13  -6   39.55   13.49
  -7 -13  -6   15.73   13.47
   7 -13   6   24.60    7.81
   7  13   6   18.74    9.92
  -7  13  -6   20.04   11.41
  -7 -14   6    4.92    7.84
  -7 -14   6    2.65   12.90
  -7  14   6   10.68    8.80
  -6 -14   6   59.52   13.46
  -6 -14   6   20.21   12.87
   6  14  -6   65.20   15.35
  -6  14   6   41.12    9.37
  -5 -14   6   73.37   13.07
   5  14  -6   74.66   15.33
  -5  14   6   65.91    9.26
  -4 -14   6    5.73    6.39
   4  14  -6   -6.39    5.82
  -4  14   6    9.95    3.43
  -3 -14   6   33.00    8.91
  -3 -14   6   32.28    8.69
   3  14  -6   32.54   10.24
  -3  14   6   27.78    4.04
  -2 -14   6   82.26   12.65
   2 -14  -6   72.28   15.38
  -2 -14   6   97.65   10.38
  -2 -14   6   74.66   14.43
   2  14  -6   86.43   13.94
   2  14  -6   35.48   13.78
  -2  14   6   81.32    4.38
  -1 -14   6   56.49   12.53
  -1 -14   6   71.21    9.72
  -1 -14   6   72.11    9.24
   1 -14  -6   46.32   12.92
   1  14  -6   79.28   13.27
  -1  14   6   59.76    4.31
   1  14  -6   48.39   15.08
   0 -14  -6    0.45    6.88
   0 -14   6    1.67    3.52
   0 -14   6   -0.75    5.51
   0 -14   6   -2.45    4.16
   0  14  -6    7.69    9.29
   0  14  -6    0.73    5.98
   0  14   6   -2.70    2.12
   0  14   6   -1.61    1.77
   0  14   6    3.30    2.74
   1 -14   6   25.02    5.59
   1 -14   6   31.28    6.23
   1 -14   6   31.73   10.17
  -1 -14  -6   22.31    9.34
  -1  14  -6   35.26    9.68
   1  14   6   21.64    5.09
  -1  14  -6   30.42   11.60
   1  14   6   29.59    5.72
  -2 -14  -6   50.76   12.58
   2 -14   6   38.42   11.21
   2 -14   6   48.88    6.99
   2 -14   6   33.94    6.10
   2  14   6   31.50    7.23
   2  14   6   35.72    7.45
  -2  14  -6   50.69   11.84
  -3 -14  -6   57.39   12.35
   3 -14   6   71.79   14.46
   3 -14   6   52.24    7.30
  -3 -14  -6   33.07    8.02
   3 -14   6   53.73    7.57
  -3  14  -6   38.16   10.50
   3  14   6   48.21    9.33
   3  14   6   43.70    9.13
   4 -14   6    1.75    3.88
  -4 -14  -6   -5.30    6.94
  -4 -14  -6   -2.23    6.15
   4  14   6    1.78    5.14
   4  14   6    6.82    8.68
  -4  14  -6   -6.90    6.13
   5 -14   6    7.30    4.89
  -5 -14  -6    7.72    3.34
  -5 -14  -6  -12.38    7.98
  -5 -14  -6   21.49   10.83
  -5  14  -6    6.68    7.25
   5  14   6   16.61    8.01
   5  14   6    1.61    9.62
   6 -14   6   25.14    6.57
  -6 -14  -6   19.14   10.68
  -6 -14  -6   35.48   12.18
   6  14   6   34.86   10.94
  -6 -15   6   48.80   11.12
  -6 -15   6   42.35   16.13
  -6  15   6   45.75    9.94
   6  15  -6   40.88   12.55
  -5 -15   6   17.06    8.39
   5  15  -6   10.04    8.35
  -5  15   6   17.62    5.75
  -4 -15   6    3.45    5.44
  -4  15   6  -10.46    4.41
   4  15  -6    1.62    6.96
  -4  15   6    3.52    2.07
  -3 -15   6   68.98   12.74
  -3 -15   6   71.55   11.27
  -3 -15   6   71.55   14.42
   3  15  -6   63.64   13.01
  -3  15   6   75.89    6.15
  -2 -15   6   49.65    8.88
   2 -15  -6   35.25   11.67
  -2 -15   6   47.41   11.92
  -2 -15   6   55.13    8.90
   2  15  -6   39.26   11.01
   2  15  -6   21.08   13.44
  -2  15   6   48.89    3.95
  -1 -15   6    8.22    7.50
   1 -15  -6    3.97    8.50
  -1 -15   6    6.28    5.07
  -1 -15   6    8.73    4.56
   1  15  -6   12.46    7.77
   1  15  -6   -3.15   10.04
   0 -15   6    4.46    3.86
   0 -15  -6   -5.65    5.89
   0 -15   6   -2.52    3.98
   0 -15   6   12.57    7.63
   0  15   6    0.60    2.85
   0  15  -6    5.86    6.98
   0  15   6    0.60    2.11
   1 -15   6   95.24   16.46
   1 -15   6  110.94    8.66
   1 -15   6  107.96   11.60
  -1 -15  -6   72.33   15.77
   1  15   6   95.73    8.21
  -1  15  -6   94.02   14.55
   1  15   6  116.38    9.65
  -1  15  -6   94.25   18.25
   2 -15   6   37.46   10.98
   2 -15   6   43.17    9.03
   2 -15   6   35.75    5.71
  -2 -15  -6   54.62   13.28
   2  15   6   39.66    7.71
   2  15   6   42.80    8.10
  -2  15  -6   29.17    9.27
  -3 -15  -6  -11.50    5.53
   3 -15   6   -1.31    3.18
   3 -15   6    3.23    3.41
   3 -15   6   -3.45    5.97
   3  15   6   -9.38    5.19
  -3  15  -6   -7.08    5.20
   3  15   6    3.24    4.63
  -4 -15  -6    5.45    8.08
   4 -15   6   -6.10    3.17
   4 -15   6    1.19    3.45
  -4 -15  -6   16.38   15.18
  -4  15  -6   10.11    8.44
   4  15   6    8.66    8.80
   4  15   6    8.40    7.57
  -5 -15  -6   79.29   16.88
   5 -15   6  107.29    8.01
  -5 -15  -6   87.25   17.03
   5  15   6  105.00   15.40
  -5  15  -6   95.32   16.73
  -6 -15  -6   34.44   12.78
   6 -15   6   15.60    4.54
  -6 -15  -6   35.59    5.54
   6  15   6    5.80    9.38
  -6  15  -6   32.93   12.16
  -6 -16   6   11.63    8.20
   6  16  -6   -4.72    8.22
  -6  16   6    5.35    6.58
  -5 -16   6    3.89    7.75
   5  16  -6    4.81    8.92
  -5  16   6    4.24    3.84
  -4 -16   6    4.38    5.74
  -4 -16   6   -1.91    8.78
  -4  16   6    7.65    5.01
   4  16  -6   -0.99    6.58
  -3 -16   6   34.12   10.99
  -3 -16   6    5.00   11.76
  -3 -16   6   37.25   12.29
  -3  16   6   18.65    4.00
   3  16  -6   35.03   10.68
  -2 -16   6   19.02    6.07
  -2 -16   6   13.27    8.56
   2 -16  -6   22.56   10.37
  -2 -16   6   13.36    6.39
   2  16  -6   20.62    8.86
  -1 -16   6    1.28    4.02
   1 -16  -6    0.64    5.71
  -1 -16   6   -0.73    5.63
  -1 -16   6   -2.58    4.25
   1  16  -6    0.38   10.30
   1  16  -6    7.33    6.78
   0 -16   6   10.82    4.08
   0 -16   6   14.01    9.41
   0 -16  -6    7.64    8.82
   0  16   6   11.15    3.97
   0  16  -6   12.10    7.40
   0  16   6    7.83    2.17
   0  16  -6   30.58   13.03
   0  16   6   14.69    2.47
   1 -16   6   34.82   11.82
   1 -16   6   16.44    3.77
  -1 -16  -6    1.63    7.75
   1  16   6   11.56    4.62
   1  16   6   17.80    5.59
  -1  16  -6   10.16    7.71
   1  16   6   12.37    4.17
  -2 -16  -6   23.92   10.93
   2 -16   6   33.57   11.21
  -2  16  -6   44.33   10.60
   2  16   6   34.85    7.37
   2  16   6   42.42    8.27
   3 -16   6   -6.59    6.79
  -3 -16  -6   -4.31    6.47
   3  16   6    0.11    4.71
   3  16   6   -9.91    5.22
  -3  16  -6    1.71    6.35
  -4 -16  -6    3.36    8.59
   4  16   6   11.17    8.06
   4  16   6   30.71   11.22
  -4  16  -6   24.96   10.56
  -5 -16  -6   19.57   11.16
  -5 -16  -6   19.20   11.33
   5  16   6   13.16    8.65
  -5  16  -6   16.00    9.73
  -5 -17   6    4.19    6.89
   5  17  -6   11.66    9.25
  -4 -17   6   40.67    9.06
  -4 -17   6   32.36   12.84
   4  17  -6   52.01   13.44
  -3 -17   6   87.82   17.99
  -3 -17   6  121.46   18.56
  -3 -17   6  145.34   13.19
  -3  17   6  131.55    8.83
   3  17  -6  136.21   19.53
  -2 -17   6   23.84    6.02
   2 -17  -6   16.22   11.80
  -2 -17   6   12.93    6.62
  -2 -17   6   13.14    9.57
   2  17  -6   13.14    7.86
  -1 -17   6    0.94    7.19
   1 -17  -6    5.99    8.38
  -1 -17   6    6.53    3.66
   1  17  -6    9.91    7.13
   1  17  -6    3.47   13.23
   0 -17   6   53.60    6.60
   0 -17   6   62.09   14.18
   0 -17  -6   62.60   14.88
   0  17  -6   45.64   14.03
   0  17  -6   72.29   13.19
  -1 -17  -6  105.00   18.90
   1 -17   6  102.61   17.74
   1  17   6  107.66    9.50
   1  17   6  111.55    8.54
   1  17   6  112.35   10.41
  -1  17  -6  118.55   16.84
  -1  17  -6  114.58   21.91
   2 -17   6    9.46    7.80
  -2 -17  -6    5.01    7.95
   2  17   6    1.15    4.73
   2  17   6   15.56    5.68
  -2  17  -6   -8.65   11.47
  -2  17  -6   17.07    9.36
   2  17   6   16.67    6.01
  -3 -17  -6   16.71   11.45
   3 -17   6   19.70    9.72
  -3  17  -6   18.16    8.84
   3  17   6    1.79    7.22
   3  17   6   17.22    6.48
  -4 -17  -6   38.75   13.08
  -4  17  -6   31.77   11.14
   4  17   6   36.49   10.18
  -4 -18   6   34.82   17.71
  -4 -18   6   46.43    8.74
   4  18  -6   64.71   14.33
  -3 -18   6    0.65    4.79
  -3 -18   6   -0.04    8.76
   3  18  -6    2.89    7.50
  -2 -18   6   -0.91    7.98
  -2 -18   6  -10.20    4.92
   2 -18  -6    3.16   10.86
  -2 -18   6   14.41    4.36
   2  18  -6   -3.25    6.00
  -1 -18   6   73.66   15.34
   1 -18  -6   46.58   14.34
   1  18  -6   76.25   14.76
   0 -18  -6   21.13   12.05
   0 -18   6   25.07   10.65
   0  18  -6   20.54   14.66
   0  18  -6   24.39    9.70
   1 -18   6   -4.68    7.53
  -1 -18  -6   -1.93    8.02
  -1  18  -6   -5.35    5.96
  -1  18  -6  -16.83   13.06
  -2 -18  -6  -16.65    5.33
   2 -18   6  -16.09    7.01
  -2  18  -6    0.21    8.24
   2  18   6    0.18    5.05
   2  18   6   -3.45    4.29
   2  18   6    1.64    4.22
   3 -18   6   72.65   17.01
  -3 -18  -6   63.46   16.57
   3  18   6   79.99   11.72
   3  18   6   86.09   12.92
  -3  18  -6   87.69   16.28
   3  18   6   37.82   14.78
  -4 -18  -6   33.99   13.33
   4  18   6   23.16    8.11
  -4  18  -6   32.14   11.43
  -3 -19   6   17.37    4.76
   3  19  -6   17.72   10.40
  -2 -19   6    0.57    8.43
   2 -19  -6  -10.40    7.19
   2  19  -6  -11.44    5.99
  -1 -19   6   15.93    9.09
   1 -19  -6   23.34   13.81
   1  19  -6    1.68    7.27
   0 -19  -6    2.29    8.25
   0 -19   6   -2.94    9.41
   0  19  -6    8.73    8.17
  -1 -19  -6    1.90    9.46
   1 -19   6   -1.63    9.66
  -1  19  -6   23.42    9.91
   1  19   6   15.59    4.63
   1  19   6    0.57    5.82
  -2 -19  -6  -10.85    7.49
   2 -19   6    3.17   10.48
   2  19   6    1.54    4.38
   2  19   6  -12.62    5.86
  -2  19  -6  -12.30    6.54
  -9   0   7   -2.79    7.92
  -8   0   7    8.15    9.55
  -7   0   7    6.79    7.86
  -6   0   7    8.09    8.82
  -5   0   7    5.48    7.86
   5   0  -7    7.50    6.34
  -4   0   7    1.18    3.63
   4   0  -7   -1.49    4.66
  -4   0   7   -5.09    4.53
   4   0  -7    3.36    4.70
   3   0  -7    1.23    3.88
  -3   0   7   -0.72    4.98
  -3   0   7    0.14    2.91
   3   0  -7   -1.43    3.74
  -2   0   7   -3.05    4.53
  -2   0   7   -1.40    2.98
   2   0  -7   -2.80    3.72
   2   0  -7    1.41    3.69
  -1   0   7    5.68    3.37
   1   0  -7    4.77    4.53
  -1   0   7    0.53    2.74
   0   0   7    7.23    3.90
   0   0  -7   -0.68    3.07
   0   0   7    0.41    3.10
   0   0  -7   -3.52    2.30
   1   0   7   -3.52    2.70
  -1   0  -7    0.26    2.66
   1   0   7    5.26    3.86
  -1   0  -7   -2.71    3.19
   1   0   7    0.03    1.00
  -2   0  -7   -4.84    2.81
   2   0   7    2.22    3.78
  -2   0  -7   -0.98    4.12
   2   0   7    3.77    3.98
   3   0   7    7.81    4.91
  -3   0  -7    5.73    5.81
   3   0   7    5.81    4.97
  -3   0  -7    1.34    3.35
   4   0   7   -1.89    4.78
  -4   0  -7   -1.06    5.35
   4   0   7   -1.34    4.61
  -4   0  -7    2.88    4.40
  -5   0  -7   -5.19    6.91
   5   0   7    3.82    6.01
   6   0   7   -2.91    5.30
  -6   0  -7   -9.54    7.22
  -7   0  -7   30.96   11.34
   7   0   7   14.80    8.13
   8   0   7   12.75    8.60
  -8   0  -7   -7.42    6.04
   9   0   7   -2.90    7.63
  -9   0  -7   -3.45   10.79
  -9  -1   7  184.48   29.90
  -9   1   7  146.20   25.60
  -8  -1   7   69.75   17.08
  -8   1   7   56.73   16.11
  -7  -1   7    4.93    7.21
  -7   1   7   30.63   11.96
  -6  -1   7   25.84   11.08
  -6   1   7   18.10    9.68
   5  -1  -7  288.23   18.76
  -5  -1   7  250.86   22.95
  -5   1   7  275.19   22.27
   5   1  -7  252.27   18.47
   4  -1  -7  158.53   12.64
  -4  -1   7  112.62   15.82
  -4  -1   7  142.51   11.76
   4  -1  -7  151.72   13.31
   4   1  -7  125.53   13.80
  -4   1   7  135.92   11.32
   4   1  -7  178.60   13.89
  -4   1   7  179.96   17.01
  -3  -1   7   48.69   10.99
   3  -1  -7   65.06    8.59
  -3  -1   7   58.53    8.24
   3  -1  -7   75.55   10.64
  -3   1   7   64.08    8.00
   3   1  -7   51.18    9.60
  -3   1   7   67.25   11.52
   3   1  -7   57.34    8.85
   2  -1  -7   20.07    5.81
  -2  -1   7   23.24    5.57
  -2  -1   7   22.25    7.55
   2  -1  -7   17.40    4.70
   2   1  -7   26.86    7.80
   2   1  -7   27.45    6.36
  -2   1   7   30.05    8.12
  -2   1   7   25.32    5.33
   1  -1  -7  393.01   20.44
  -1  -1   7  431.01   19.02
  -1  -1   7  412.20   18.11
   1  -1  -7  382.13   17.05
  -1   1   7  424.91   20.27
   1   1  -7  413.14   18.66
   1   1  -7  394.33   22.48
   0  -1   7  201.46   12.33
   0  -1  -7  195.47   11.31
   0  -1   7  196.71   11.90
   0   1  -7  176.18   11.02
   0   1   7  177.90   11.01
   0   1  -7  183.38   12.13
   0   1   7  187.07    9.40
   0   1   7  180.74   11.05
  -1  -1  -7  224.66   12.98
   1  -1   7  233.22   13.64
  -1  -1  -7  210.48   11.71
   1  -1   7  227.16   13.47
   1   1   7  225.58   12.81
   1   1   7  228.10   13.02
  -1   1  -7  214.98   12.53
   1   1   7  224.91    8.59
  -1   1  -7  237.56   14.07
   2  -1   7    6.64    4.44
  -2  -1  -7    7.28    1.78
  -2  -1  -7    6.94    3.74
  -2  -1  -7    4.94    4.29
   2  -1   7   12.84    5.18
  -2   1  -7   10.11    5.44
   2   1   7   15.38    5.33
   2   1   7   15.19    5.48
  -2   1  -7    7.04    3.50
   3  -1   7  283.25   17.32
  -3  -1  -7  270.15   15.65
  -3  -1  -7  304.87   18.51
   3  -1   7  276.40   16.92
   3   1   7  303.89   17.28
  -3   1  -7  276.96   18.07
   3   1   7  281.03   16.99
  -3   1  -7  288.04    9.48
   4  -1   7   41.33    8.97
  -4  -1  -7   45.29    8.42
   4  -1   7   61.07    9.77
  -4  -1  -7   46.90   10.43
   4   1   7   40.70    8.89
   4   1   7   62.80   10.31
  -4   1  -7   51.54   10.93
  -4   1  -7   41.06    8.64
   5  -1   7  116.61   14.87
  -5  -1  -7  137.24   17.76
  -5   1  -7  129.83   17.08
   5   1   7  123.86   15.21
   6  -1   7   -1.42    6.04
  -6  -1  -7   -4.12    5.95
  -6   1  -7   13.18    7.73
   6   1   7   -3.69    4.50
  -7  -1  -7  182.95   23.72
   7  -1   7  203.33   19.35
  -7   1  -7  197.51   21.90
   7   1   7  174.09   18.07
   8  -1   7   24.48   10.43
  -8  -1  -7   20.24   11.85
  -8   1  -7   15.51   11.50
   8   1   7   19.80    9.01
  -9  -1  -7   51.40   17.18
   9  -1   7   39.99   12.66
   9   1   7   77.59   15.99
  -9   1  -7   82.58   18.78
  -9  -2   7   10.36   12.85
  -9   2   7   12.44   11.28
  -8  -2   7   39.44   14.23
  -8   2   7   39.22   14.18
  -7  -2   7  154.76   23.23
  -7   2   7  141.95   21.34
  -6  -2   7   53.01   14.17
  -6   2   7   46.20   12.97
  -5  -2   7   64.68   14.39
   5  -2  -7   78.83   11.38
   5   2  -7   82.19   12.57
  -5   2   7   79.72   14.46
  -4  -2   7   50.47    8.31
  -4  -2   7   29.02   10.71
   4  -2  -7   51.48    8.83
   4  -2  -7   59.78    8.91
  -4   2   7   52.84    8.51
   4   2  -7   47.74   10.60
   4   2  -7   57.33    9.85
  -4   2   7   56.59   11.08
  -3  -2   7  285.54   16.21
   3  -2  -7  327.38   16.22
  -3  -2   7  354.68   23.53
   3  -2  -7  332.15   17.72
  -3   2   7  317.16   15.40
   3   2  -7  360.17   21.55
   3   2  -7  323.99   18.23
  -3   2   7  344.22   20.69
  -2  -2   7   61.71   11.23
   2  -2  -7   73.72    9.26
   2  -2  -7   66.49    6.67
  -2  -2   7   61.82    8.48
   2   2  -7   65.96   11.26
  -2   2   7   54.30    9.24
   2   2  -7   68.56    9.15
  -2   2   7   62.69    7.54
   1  -2  -7  211.03   11.15
  -1  -2   7  196.86   12.84
   1  -2  -7  200.22   13.26
  -1  -2   7  222.19   13.11
  -1   2   7  221.49   11.87
   1   2  -7  188.10   16.03
   1   2  -7  228.10   13.43
   0  -2  -7   56.84    6.12
   0  -2   7   59.69    8.35
   0  -2   7   71.07    8.79
   0   2  -7   63.74    8.03
   0   2  -7   60.84    8.20
   0   2   7   55.69    6.81
   0   2   7   60.07    7.15
   0   2   7   51.58    5.45
  -1  -2  -7  496.20   19.49
   1  -2   7  515.22   15.04
   1  -2   7  560.02   22.79
   1  -2   7  494.05   22.08
  -1  -2  -7  494.54   20.76
   1   2   7  510.02   17.41
   1   2   7  504.66   20.85
  -1   2  -7  531.23   21.77
   1   2   7  527.57   20.84
  -1   2  -7  492.72   22.58
   2  -2   7   28.70    6.88
  -2  -2  -7   42.34    7.54
  -2  -2  -7   34.82    5.92
   2  -2   7   29.25    7.02
  -2  -2  -7   34.56    4.03
  -2   2  -7   48.54    8.46
  -2   2  -7   28.75    6.39
   2   2   7   30.56    6.33
   2   2   7   38.65    6.72
  -3  -2  -7  180.52   14.32
  -3  -2  -7  185.16   12.34
   3  -2   7  163.23   13.07
   3  -2   7  179.16   16.49
   3   2   7  171.06   13.28
   3   2   7  152.07   12.46
  -3   2  -7  193.63   13.28
  -3   2  -7  169.15    6.60
  -3   2  -7  179.07   14.74
  -4  -2  -7   20.65    7.64
   4  -2   7   17.71    7.11
  -4  -2  -7   15.59    6.16
   4   2   7   28.95    8.14
   4   2   7   22.83    7.60
  -4   2  -7   21.86    8.16
   5  -2   7  186.84   16.35
  -5  -2  -7  189.62   18.48
  -5   2  -7  157.50   10.70
  -5   2  -7  146.17   18.75
   5   2   7  170.66   15.93
  -6  -2  -7   28.88    9.55
   6  -2   7   25.91    9.12
  -6   2  -7   18.29    9.41
   6   2   7   30.04    9.16
  -7  -2  -7   79.97   16.32
   7  -2   7   88.34   14.43
  -7   2  -7   70.92   15.04
   7   2   7   90.11   14.87
  -8  -2  -7    1.58    7.35
   8  -2   7   18.93    7.60
   8   2   7   -3.00    5.59
  -8   2  -7   27.12   11.82
   9  -2   7   93.26   17.56
  -9  -2  -7   69.66   18.69
  -9   2  -7   66.77   18.42
   9   2   7   57.73   14.04
  -9  -3   7    2.70   11.35
  -9   3   7   -1.45   11.32
  -8  -3   7    7.08   11.22
  -8   3   7   23.80   12.37
  -7  -3   7    4.64    9.16
  -7   3   7   18.08    9.60
  -6  -3   7   47.69   14.41
  -6   3   7   40.64   12.35
  -5  -3   7   12.07   10.25
   5  -3  -7   24.84    7.37
   5   3  -7   33.40    9.46
  -5   3   7   12.44    8.11
  -4  -3   7    6.21    7.75
  -4  -3   7    6.10    4.98
   4  -3  -7    7.93    4.48
   4   3  -7   14.52    6.86
  -4   3   7   25.32    8.52
   4   3  -7    2.75    5.58
  -3  -3   7    2.80    5.73
   3  -3  -7    2.17    3.68
   3  -3  -7    5.23    3.53
  -3   3   7   11.29    3.95
  -3   3   7    8.28    5.79
   3   3  -7   14.49    6.10
  -2  -3   7  160.84   15.99
   2  -3  -7  156.98    9.51
   2  -3  -7  161.71   10.61
  -2  -3   7  163.12   12.23
  -2   3   7  172.43   10.15
  -2   3   7  174.42   13.17
   2   3  -7  168.23   12.79
   2   3  -7  139.77   14.56
   1  -3  -7   20.51    4.08
  -1  -3   7   16.84    5.31
   1  -3  -7   20.83    5.01
  -1  -3   7   16.88    5.37
   1   3  -7   15.49    5.23
  -1   3   7   20.73    5.19
  -1   3   7   20.58    4.47
   1   3  -7   17.07    6.92
   0  -3   7   57.74    8.36
   0  -3   7   50.16    7.94
   0  -3  -7   42.98    5.56
   0   3   7   56.51    6.84
   0   3   7   50.90    6.34
   0   3  -7   47.11    8.03
   0   3   7   57.23    6.03
   0   3  -7   50.56    7.45
  -1  -3  -7    6.45    3.31
   1  -3   7    3.75    1.93
  -1  -3  -7    3.29    2.88
  -1  -3  -7    2.77    2.77
   1  -3   7    7.22    4.56
   1  -3   7    4.46    3.54
  -1   3  -7    7.10    4.97
   1   3   7    5.29    3.60
   1   3   7    1.57    2.50
  -1   3  -7    3.16    3.85
   1   3   7    3.38    3.62
  -2  -3  -7  101.86    6.96
  -2  -3  -7   86.61    9.23
   2  -3   7  104.05   10.17
  -2  -3  -7  100.40    8.16
   2  -3   7   89.82    9.75
   2   3   7  100.36    9.18
   2   3   7   97.00    9.24
  -2   3  -7  101.40    9.25
  -2   3  -7   85.58   11.84
  -3  -3  -7    7.79    4.07
  -3  -3  -7    9.08    5.97
   3  -3   7    1.08    4.76
  -3  -3  -7    4.78    2.88
   3  -3   7    9.47    5.15
  -3   3  -7    7.01    5.93
  -3   3  -7    4.59    3.83
  -3   3  -7    7.23    2.07
   3   3   7    7.60    4.90
   3   3   7    4.84    4.67
  -4  -3  -7    9.66    5.45
   4  -3   7   12.04    6.55
  -4  -3  -7    4.72    6.50
  -4   3  -7    8.81    6.62
   4   3   7    0.98    5.70
   4   3   7   16.74    6.61
  -4   3  -7    6.80    3.20
  -5  -3  -7   -9.27    5.70
   5  -3   7    0.62    5.41
   5   3   7   -4.16    5.27
  -5   3  -7    3.63    7.07
  -5   3  -7    0.09    3.47
  -6  -3  -7   65.31   13.62
   6  -3   7   68.52   12.77
  -6   3  -7   86.05   15.69
  -6   3  -7   81.33   10.17
   6   3   7   87.65   14.09
   7  -3   7    8.03    7.10
  -7  -3  -7    7.55    8.27
  -7   3  -7    3.90    7.94
   7   3   7    5.35    7.27
  -7   3  -7    5.99    6.82
   8  -3   7   -2.81    4.71
  -8  -3  -7   -0.16    9.22
   8   3   7   -0.65    6.98
  -8   3  -7   10.68    9.78
   9  -3   7    0.67    8.77
  -9  -3  -7    2.22   10.36
   9   3   7    3.51    8.89
  -9   3  -7   10.23    9.64
  -9  -4   7   -7.26   10.86
  -9   4   7    6.75   11.27
  -8  -4   7   -1.72    8.84
  -8   4   7    7.44    9.20
  -7  -4   7   58.38   17.18
  -7   4   7   76.99   16.09
  -6  -4   7  103.97   19.39
  -6   4   7  125.09   18.69
   6   4  -7   67.87   12.87
   5  -4  -7    9.28    5.47
  -5  -4   7   -1.72    7.99
  -5   4   7    7.99    8.00
   5   4  -7   16.98    7.76
   4  -4  -7   23.99    5.71
   4  -4  -7   35.60    7.01
  -4  -4   7   11.78    8.84
   4   4  -7   38.56   10.28
  -4   4   7   19.76    7.75
   4   4  -7   16.74    7.73
  -4   4   7   27.07    6.21
  -3  -4   7  339.75   18.20
   3  -4  -7  353.38   16.27
   3  -4  -7  332.54   15.12
  -3  -4   7  330.04   24.12
  -3   4   7  347.89   19.41
   3   4  -7  301.70   22.08
   3   4  -7  341.13   19.49
  -3   4   7  322.37   14.97
   2  -4  -7  117.33    8.06
   2  -4  -7   96.99    7.30
  -2  -4   7  116.37   10.74
  -2  -4   7  113.03    9.65
  -2  -4   7  102.45   14.55
   2   4  -7  118.56   15.73
  -2   4   7  115.11   11.09
  -2   4   7  100.65   10.12
   2   4  -7   92.35   10.27
   1  -4  -7   11.19    3.67
  -1  -4   7   13.80    5.39
   1  -4  -7   10.97    3.77
  -1  -4   7   10.09    4.70
  -1   4   7    8.49    4.48
  -1   4   7    8.91    3.37
   1   4  -7   15.18    6.85
   1   4  -7    8.55    5.24
   0  -4  -7   22.84    4.11
   0  -4   7   23.55    6.18
   0  -4  -7   17.19    5.15
   0  -4   7   32.24    6.50
   0   4   7   27.88    5.45
   0   4  -7   32.25    6.41
   0   4   7   24.48    4.54
   0   4  -7   26.39    6.75
   0   4   7   22.60    4.46
  -1  -4  -7  334.10   15.31
   1  -4   7  315.89   12.71
   1  -4   7  278.65   16.31
  -1  -4  -7  305.88   14.68
  -1  -4  -7  314.34   12.94
   1  -4   7  293.64   16.72
  -1   4  -7  326.88   18.43
   1   4   7  322.15   14.78
   1   4   7  329.84   15.10
  -1   4  -7  310.02   16.58
   1   4   7  318.63   14.47
   2  -4   7   69.08    9.53
   2  -4   7   58.46    8.99
  -2  -4  -7   62.10    7.38
  -2  -4  -7   53.30    6.59
  -2   4  -7   60.27    8.53
   2   4   7   63.53    8.16
  -2   4  -7   44.34    8.09
   2   4   7   69.72    8.90
  -3  -4  -7   69.16    9.02
  -3  -4  -7   83.60    7.68
  -3  -4  -7   79.81   11.19
   3  -4   7   80.23   10.72
   3  -4   7   83.86   11.21
   3   4   7   87.81   10.99
  -3   4  -7   63.30   10.83
  -3   4  -7   83.49    5.66
  -3   4  -7   89.57   10.78
   3   4   7   92.84   10.88
  -4  -4  -7   19.87    7.08
   4  -4   7    6.84    6.45
  -4  -4  -7   23.66    8.53
   4   4   7   22.24    8.93
   4   4   7   18.30    7.06
  -4   4  -7   22.17    8.79
  -4   4  -7   18.33    4.20
   5  -4   7  157.07   15.10
  -5  -4  -7  157.76   17.15
   5   4   7  140.56   16.54
  -5   4  -7  159.19   10.66
  -5   4  -7  152.12   18.98
   6  -4   7   -6.52    4.39
  -6  -4  -7    9.40    7.95
  -6   4  -7    6.49    8.08
  -6   4  -7    0.11    5.09
   6   4   7    2.12    5.88
   7  -4   7   75.02   13.78
  -7  -4  -7   83.66   17.67
   7   4   7  109.08   16.91
  -7   4  -7   96.65   12.61
  -7   4  -7   88.66   17.18
  -8  -4  -7    0.77    8.56
   8  -4   7   16.22    8.70
   8   4   7   -0.42    7.55
  -8   4  -7    2.36    8.72
   9  -4   7   56.76   14.26
  -9  -4  -7   49.33   15.77
  -9   4  -7   66.52   19.50
  -9  -5   7   17.59   15.04
  -9   5   7   23.79   12.40
  -8  -5   7   14.72   12.37
  -8   5   7    4.97    9.40
  -7  -5   7   71.78   18.08
   7   5  -7   89.90   15.61
  -7   5   7   81.79   16.18
   6  -5  -7  160.61   14.10
  -6  -5   7  154.96   23.40
   6   5  -7  195.11   21.50
  -6   5   7  179.15   18.64
   5  -5  -7   85.56   10.59
  -5  -5   7  102.29   18.88
   5   5  -7   94.95   14.80
  -5   5   7   88.47   15.92
  -5   5   7   92.40   14.29
  -4  -5   7   -7.65    7.52
   4  -5  -7   -0.30    4.47
   4  -5  -7   -3.63    3.23
   4   5  -7   -4.18    5.16
  -4   5   7    4.32    5.17
  -4   5   7   -0.54    3.43
   3  -5  -7  126.40    8.33
  -3  -5   7  125.96   17.88
   3  -5  -7  126.38    8.62
  -3  -5   7  134.20   11.47
  -3   5   7  120.04   12.79
   3   5  -7  118.52   16.06
  -3   5   7  122.79    8.50
   3   5  -7  135.68   13.06
  -3   5   7  122.21   11.53
  -2  -5   7  191.43   13.29
   2  -5  -7  182.81    8.66
  -2  -5   7  169.21   12.42
  -2   5   7  166.20   13.56
  -2   5   7  177.06   12.17
   2   5  -7  202.68   14.63
   2   5  -7  178.35   17.26
   1  -5  -7  145.41    7.36
  -1  -5   7  132.01   11.45
  -1  -5   7  125.80   11.32
   1   5  -7  132.83   17.20
  -1   5   7  128.94   10.88
   1   5  -7  143.03   12.24
  -1   5   7  149.94    8.39
   0  -5   7    0.22    4.05
   0  -5   7   -3.25    2.86
   0  -5  -7   -5.78    3.36
   0   5  -7    1.88    3.28
   0   5  -7    0.21    3.54
   0   5   7   -0.25    2.36
   0   5   7   -1.44    2.33
   0   5   7    3.93    3.48
  -1  -5  -7   99.71    5.77
   1  -5   7  106.19   10.22
   1  -5   7   99.09    9.79
  -1  -5  -7   93.19    8.60
  -1  -5  -7   97.41    8.02
  -1   5  -7  102.95    9.44
   1   5   7  108.31    8.61
  -1   5  -7  123.23   12.02
   1   5   7  106.47    8.00
   1   5   7   91.84    7.89
  -2  -5  -7  192.71   12.88
   2  -5   7  213.76   14.19
   2  -5   7  192.79   10.31
   2  -5   7  183.81   13.44
  -2  -5  -7  168.81   10.02
  -2  -5  -7  198.22   11.91
   2   5   7  186.15   12.05
   2   5   7  196.07   12.76
  -2   5  -7  164.04   14.48
  -2   5  -7  182.07   12.75
  -3  -5  -7   53.69    9.71
  -3  -5  -7   63.96    8.31
   3  -5   7   59.78    9.33
   3  -5   7   69.06   10.43
  -3  -5  -7   73.16    8.54
   3   5   7   63.39    9.61
  -3   5  -7   57.33   10.75
  -3   5  -7   58.92    5.57
   3   5   7   63.66    8.98
  -3   5  -7   58.43    9.14
  -4  -5  -7    4.60    4.87
  -4  -5  -7    8.21    6.73
   4  -5   7    1.56    5.22
  -4   5  -7    1.58    2.95
  -4   5  -7    3.62    6.70
   4   5   7   -0.05    5.11
   4   5   7   -7.14    5.09
   5  -5   7   64.65   11.64
  -5  -5  -7   74.00   13.76
   5   5   7   67.15   11.92
  -5   5  -7  106.74   16.26
  -5   5  -7   77.72    8.42
  -6  -5  -7   32.30   11.83
   6  -5   7   35.43   10.02
  -6   5  -7   55.39   13.23
   6   5   7   51.39   11.34
  -6   5  -7   39.61    8.06
  -7  -5  -7   41.95   12.95
   7  -5   7   33.07    9.83
  -7   5  -7   26.52    8.65
  -7   5  -7   38.68   12.95
   7   5   7   40.25   11.49
  -8  -5  -7    3.24    8.35
   8  -5   7    8.55    6.88
   8   5   7   -1.76    6.02
  -8   5  -7    0.04    9.00
  -9  -5  -7   43.42   15.67
   9  -5   7   57.01   13.85
  -9   5  -7   35.35   20.47
   9  -6  -7   58.95   12.40
  -9  -6   7   43.68   17.31
  -9   6   7   46.98   16.64
   9   6  -7   61.36   16.29
  -8  -6   7   94.61   20.86
  -8   6   7  101.79   19.20
   8   6  -7   90.61   17.65
  -7  -6   7   37.51   15.37
   7  -6  -7   31.85    8.29
  -7   6   7   10.22    9.26
   7   6  -7   27.31   10.78
   6  -6  -7   43.71    9.66
  -6  -6   7   41.21   14.74
  -6   6   7   60.34   13.00
   6   6  -7   52.05   12.73
   5  -6  -7   86.59    9.52
  -5  -6   7   96.11   18.74
  -5   6   7   87.69   13.77
  -5   6   7   58.07    9.76
   5   6  -7   89.15   14.86
   4  -6  -7  302.01   14.96
  -4  -6   7  295.05   25.97
  -4   6   7  294.44   15.14
   4   6  -7  306.82   21.01
  -4   6   7  304.85   19.01
  -3  -6   7   29.16   11.19
   3  -6  -7   47.48    4.75
  -3  -6   7   40.32    8.22
  -3   6   7   32.08    8.97
  -3   6   7   35.65    7.58
   3   6  -7   37.59    8.73
   3   6  -7   44.21   11.25
  -3   6   7   39.25    5.37
   2  -6  -7   67.36    2.67
  -2  -6   7   85.34   10.87
  -2  -6   7   76.21   10.01
  -2   6   7   66.23    8.21
   2   6  -7   69.34   10.63
   2   6  -7   84.78   14.90
  -2   6   7   88.37   13.44
  -1  -6   7   33.68    7.45
  -1  -6   7   32.02    7.80
   1   6  -7   36.45    9.74
   1   6  -7   14.02    6.08
  -1   6   7   25.12    6.32
  -1   6   7   26.04    4.02
   0  -6  -7  473.04   22.17
   0  -6   7  476.12   22.42
   0  -6  -7  411.95   14.77
   0  -6   7  463.49   21.65
   0  -6  -7  409.72   16.10
   0   6  -7  493.85   23.69
   0   6   7  479.44   21.29
   0   6   7  471.76   16.70
   0   6   7  458.64   16.93
   0   6  -7  457.70   21.72
  -1  -6  -7   75.87    9.54
   1  -6   7   83.82    7.64
  -1  -6  -7   97.03   12.61
   1  -6   7   85.93   10.73
   1  -6   7   87.22   10.85
   1   6   7   78.05    7.95
  -1   6  -7   79.34   11.49
   1   6   7   90.16    7.79
  -1   6  -7  100.68   12.86
   2  -6   7   41.40    8.08
  -2  -6  -7   41.82    7.09
  -2  -6  -7   47.22    7.39
   2  -6   7   48.12    8.54
   2  -6   7   35.06    6.37
  -2   6  -7   43.16    7.72
   2   6   7   39.14    7.07
   2   6   7   42.07    6.86
  -2   6  -7   35.91    8.38
  -3  -6  -7    2.50    4.05
  -3  -6  -7    6.46    5.57
   3  -6   7    0.57    4.75
  -3  -6  -7   10.49    4.11
   3   6   7    4.82    4.96
  -3   6  -7    5.86    5.97
   3   6   7    4.48    4.51
  -4  -6  -7  225.63   15.20
   4  -6   7  246.72   17.03
  -4  -6  -7  225.42   14.97
  -4  -6  -7  230.26   19.00
  -4   6  -7  212.12   18.87
   4   6   7  207.04   16.69
  -4   6  -7  217.86   12.45
   4   6   7  213.80   16.62
  -5  -6  -7   57.74   11.89
  -5  -6  -7   70.04   13.64
   5  -6   7   50.06   10.56
  -5   6  -7   50.06   12.38
  -5   6  -7   54.22    8.03
   5   6   7   62.81   11.06
  -6  -6  -7   26.39    9.98
   6  -6   7    1.38    6.24
   6   6   7    9.89    7.23
  -6   6  -7   -0.20    5.31
  -6   6  -7   -3.88    7.28
  -7  -6  -7    3.40    8.36
   7  -6   7   12.33    7.93
   7   6   7    1.95    5.98
  -7   6  -7   13.21    8.06
  -7   6  -7   -3.31    7.93
   8  -6   7  124.60   17.53
  -8  -6  -7  117.83   21.32
   8   6   7  109.71   18.04
  -8   6  -7   96.24   19.52
   9  -7  -7   39.61   11.04
  -9  -7   7   46.61   17.95
   9   7  -7   26.93   10.79
  -9   7   7   38.54   15.92
   8  -7  -7   29.96    9.42
  -8  -7   7   36.21   14.74
   8   7  -7   20.22    9.04
  -8   7   7   23.60   11.89
   7  -7  -7   -3.80    4.44
  -7  -7   7  -13.08    6.95
  -7   7   7    3.93    7.63
   7   7  -7   10.83    8.39
   6  -7  -7   -1.18    4.34
  -6  -7   7   13.73   10.47
   6   7  -7   12.64    8.64
  -6   7   7   -3.73    5.28
  -5  -7   7   80.90   17.49
   5  -7  -7   79.03    9.17
   5  -7  -7   79.93    8.28
  -5   7   7   73.05   12.10
  -5   7   7   78.80   10.10
   5   7  -7   83.34   19.59
   4  -7  -7   28.99    5.02
  -4  -7   7   24.02   11.64
   4   7  -7   36.86   10.10
  -4   7   7   37.14    8.15
  -4   7   7   38.58    6.02
  -3  -7   7   -1.22    7.05
  -3  -7   7   -6.57    3.75
   3  -7  -7    0.90    1.03
   3   7  -7    5.66    7.11
   3   7  -7    1.51    5.82
  -3   7   7    0.89    2.54
  -3   7   7    2.57    4.14
  -2  -7   7   -5.34    4.28
  -2  -7   7    0.45    4.17
  -2   7   7   -5.87    4.90
   2   7  -7    4.95    6.92
   2   7  -7   -1.69    4.19
  -2   7   7   -0.75    3.07
   1  -7  -7  144.69   13.55
  -1  -7   7  146.97   12.18
  -1  -7   7  138.63   11.90
   1   7  -7  130.10   17.93
  -1   7   7  120.40    9.64
   1   7  -7  147.99   13.32
   0  -7  -7  108.64   11.37
   0  -7   7  112.05   10.86
   0  -7   7  110.05   10.43
   0   7   7  109.84    6.71
   0   7   7  114.86   10.62
   0   7  -7  107.73   11.82
   0   7  -7  129.91   11.23
   0   7   7  107.41    6.98
   1  -7   7   19.60    6.34
  -1  -7  -7   18.07    6.21
   1  -7   7   22.67    6.43
   1  -7   7   23.74    5.59
  -1   7  -7   22.01    7.61
  -1   7  -7   25.31    6.77
   1   7   7   21.38    4.72
  -2  -7  -7   35.06    7.47
  -2  -7  -7   40.11    4.63
  -2  -7  -7   31.25    6.75
   2  -7   7   36.81    7.29
   2  -7   7   55.82    9.65
   2  -7   7   38.89    8.15
  -2   7  -7   41.81    9.68
   2   7   7   32.46    6.62
   2   7   7   47.20    7.33
  -2   7  -7   36.03    7.62
  -3  -7  -7   23.61    5.31
   3  -7   7   27.25    7.16
  -3  -7  -7   20.41    6.72
  -3  -7  -7   24.28    7.22
  -3   7  -7   25.44    8.91
   3   7   7   27.55    7.19
   3   7   7   16.85    6.25
   4  -7   7   33.69    9.08
  -4  -7  -7   33.46    7.19
  -4  -7  -7   23.12    8.80
  -4  -7  -7   37.44    8.23
   4   7   7   29.37    7.86
  -4   7  -7   22.90    6.09
   4   7   7   20.85    8.10
  -4   7  -7   30.46   10.00
  -5  -7  -7   28.14    9.74
  -5  -7  -7   31.61    7.74
  -5   7  -7   19.42    5.57
  -5   7  -7   21.51    9.30
   5   7   7   21.25    8.71
   5   7   7   10.51    8.56
   6  -7   7   35.63    9.48
  -6  -7  -7    7.24    8.71
  -6   7  -7   18.63   10.17
  -6   7  -7    4.62    5.51
   6   7   7    9.13    6.35
   7  -7   7   22.48    8.48
  -7  -7  -7    7.13    9.17
  -7   7  -7   28.01   10.69
   7   7   7   27.81    9.63
  -8  -7  -7   -5.47    9.43
   8  -7   7    5.76    7.09
   8   7   7   -3.57    7.94
  -8   7  -7   -2.48    8.27
  -9  -8   7   16.73   16.99
   9  -8  -7   33.09   10.80
   9   8  -7   80.49   17.88
  -9   8   7   45.85   15.18
   8  -8  -7   75.13   11.96
  -8  -8   7  109.27   24.89
  -8   8   7  103.53   20.26
   8   8  -7  110.69   20.20
   7  -8  -7  -11.70    4.25
  -7  -8   7    1.57   10.21
   7   8  -7    6.16    8.09
  -7   8   7   -2.22    6.55
   6  -8  -7   17.22    5.35
  -6  -8   7   28.75   13.78
   6   8  -7   18.53    9.52
  -6   8   7   14.20    7.68
  -5  -8   7   48.88   15.15
   5  -8  -7   56.22    7.00
   5   8  -7   61.94   12.81
  -5   8   7   49.56    8.14
  -5   8   7   85.01   12.63
   4  -8  -7   97.56    5.55
  -4  -8   7   95.42   18.66
   4  -8  -7  100.36    5.80
  -4   8   7  111.37   11.78
  -4   8   7   85.99    8.22
   4   8  -7   78.22   13.87
  -3  -8   7  -11.23    5.87
  -3  -8   7    1.52    5.31
  -3  -8   7    5.70    5.93
  -3   8   7    7.70    4.61
   3   8  -7   14.71    9.58
   3   8  -7    5.25    6.48
  -3   8   7    6.52    2.97
  -2  -8   7   20.34    7.02
  -2  -8   7   24.18    6.76
  -2   8   7   19.05    8.54
   2   8  -7   17.07    7.53
  -1  -8   7   48.57    8.91
  -1  -8   7   57.03    9.06
  -1  -8   7   46.53    8.44
   1  -8  -7   59.00   10.79
   1   8  -7   48.95    9.57
  -1   8   7   52.37    4.00
  -1   8   7   33.51    7.46
   1   8  -7   32.72   11.24
   0  -8   7  347.98   18.12
   0  -8  -7  353.62   20.66
   0  -8   7  286.30   18.00
   0  -8   7  358.50   18.78
   0   8   7  330.64   13.06
   0   8   7  324.04   18.79
   0   8  -7  270.39   22.94
   0   8  -7  341.46   19.19
   0   8   7  337.25   12.54
   0   8  -7  337.73   20.61
  -1  -8  -7   -3.18    3.66
   1  -8   7   -1.30    4.26
  -1  -8  -7    3.33    1.97
   1  -8   7   10.17    5.19
   1  -8   7    1.41    4.15
   1   8   7   -0.51    2.77
   1   8   7   -3.27    4.27
  -1   8  -7   -2.80    5.39
  -1   8  -7    4.64    4.72
  -2  -8  -7   -0.09    4.04
   2  -8   7    1.60    4.77
  -2  -8  -7    1.65    3.91
   2  -8   7    2.07    4.63
   2   8   7   -2.11    3.78
  -2   8  -7   -4.00    6.40
  -3  -8  -7   36.78    7.90
  -3  -8  -7   21.57    4.70
   3  -8   7   20.13    7.00
   3   8   7   42.12    8.49
  -3   8  -7   12.38    7.66
   3   8   7   24.00    7.19
  -4  -8  -7  392.47   21.71
   4  -8   7  352.29   20.73
  -4  -8  -7  318.44   17.47
  -4  -8  -7  328.19   22.62
  -4   8  -7  360.92   25.36
  -4   8  -7  336.10   17.58
   4   8   7  297.64   20.55
   4   8   7  339.78   20.73
  -5  -8  -7   11.05    6.03
  -5  -8  -7   -0.09    5.29
  -5  -8  -7    7.46    7.25
  -5   8  -7   10.42    8.76
   5   8   7   -6.52    5.64
  -5   8  -7    4.45    5.26
   5   8   7   15.70    7.15
  -6  -8  -7   -2.18    7.65
   6  -8   7    7.08    6.37
  -6   8  -7    0.91    6.35
  -6   8  -7    6.76    7.99
   6   8   7    4.28    7.12
   7  -8   7   13.24    8.66
  -7  -8  -7   18.36   11.41
  -7   8  -7   45.51   13.58
   7   8   7    3.93    7.35
  -8  -8  -7  126.60   21.66
   8  -8   7  141.72   18.40
   8   8   7  102.42   18.07
  -8   8  -7  111.54   20.60
  -8  -9   7   64.73   18.81
   8  -9  -7   64.87   11.66
  -8   9   7   50.95   15.43
   8   9  -7   66.49   15.75
   7  -9  -7   68.11    9.50
   7   9  -7   60.45   13.88
  -7   9   7   73.54   14.51
  -6  -9   7  101.86   21.07
   6   9  -7  133.43   19.61
  -6   9   7  125.68   16.79
   5  -9  -7   23.22    3.91
  -5  -9   7   31.34   13.46
  -5   9   7   28.26    6.56
   5   9  -7   36.44   10.62
  -5   9   7   31.01    8.62
  -4  -9   7   74.92   17.65
  -4   9   7   68.93    7.88
   4   9  -7   87.47   18.02
  -4   9   7   68.34    9.71
  -3  -9   7   75.47   12.11
  -3  -9   7   72.76   12.43
  -3   9   7   67.19    8.24
  -3   9   7   71.41    5.69
   3   9  -7   71.15   13.34
   3   9  -7   69.00   15.56
  -2  -9   7  256.75   16.64
  -2  -9   7  286.81   18.56
   2   9  -7  303.23   25.13
   2   9  -7  268.53   19.63
   1  -9  -7   53.68   11.02
  -1  -9   7   64.73    9.95
  -1  -9   7   59.64    9.38
  -1   9   7   61.58    3.47
   1   9  -7   58.81   10.92
   1   9  -7   72.84   15.69
   0  -9   7    9.37    5.52
   0  -9  -7   10.68    6.28
   0  -9   7    7.17    5.18
   0   9   7    5.62    2.46
   0   9   7   -3.64    4.48
   0   9  -7    3.84    7.42
   0   9   7    4.95    3.02
   0   9  -7    8.89    6.88
   1  -9   7   36.20    8.00
  -1  -9  -7   37.09    8.59
  -1  -9  -7   53.79    4.97
   1  -9   7   42.20    8.69
  -1   9  -7   36.02    9.72
   1   9   7   43.23    6.11
   2  -9   7  357.92   20.83
   2  -9   7  357.77   19.66
  -2  -9  -7  372.29   21.68
   2   9   7  368.21   18.77
  -2   9  -7  366.20   23.75
   2   9   7  386.65   18.36
  -3  -9  -7   18.15    5.82
  -3  -9  -7   21.52    7.16
   3  -9   7   27.83    7.60
   3  -9   7   20.69    7.20
  -3  -9  -7   22.12    7.43
  -3   9  -7   12.85    7.78
   3   9   7    8.42    5.54
   3   9   7   17.92    6.47
  -4  -9  -7    4.44    3.93
  -4  -9  -7    3.28    6.32
  -4  -9  -7   22.93    7.64
   4  -9   7    3.65    5.22
   4   9   7    5.29    5.24
   4   9   7   15.36    7.22
  -4   9  -7    7.36    5.57
  -4   9  -7   18.47    8.42
  -5  -9  -7    5.44    6.56
  -5  -9  -7   -0.08    6.90
  -5  -9  -7    5.62    5.49
   5  -9   7   10.00    7.55
  -5   9  -7   -0.40    5.19
   5   9   7  -10.27    6.73
  -5   9  -7   -4.70    5.79
  -6  -9  -7  281.65   21.06
  -6  -9  -7  269.09   24.79
   6  -9   7  284.97   20.09
   6   9   7  296.17   22.42
  -6   9  -7  259.63   24.45
  -7  -9  -7    1.04    8.49
   7  -9   7    3.13    6.66
  -7   9  -7    0.06    8.98
   7   9   7    6.15    8.93
  -8  -9  -7    1.36   10.32
   8  -9   7   -3.26    6.51
   8   9   7   -4.76    7.00
  -8   9  -7   28.06   13.38
  -8 -10   7    2.58   11.56
  -8  10   7   10.27   10.82
   8  10  -7   -9.80    9.12
  -7 -10   7   13.64   12.68
   7  10  -7    2.69    7.39
  -7  10   7   -3.81    6.07
   6 -10  -7    4.15    3.73
  -6 -10   7   -0.17    8.79
  -6  10   7   -2.06    5.81
   6  10  -7    5.48    6.60
  -5 -10   7  -10.89    6.66
  -5  10   7    4.10    5.15
  -5  10   7    0.93    4.78
   5  10  -7    4.55    6.62
  -4 -10   7   25.78   12.17
  -4 -10   7   17.77    7.23
   4  10  -7   15.43    7.95
  -4  10   7   12.87    5.29
  -4  10   7   18.16    4.40
  -3 -10   7    2.52    5.61
  -3  10   7    1.75    3.54
   3  10  -7    2.46    7.05
  -3  10   7    5.15    2.67
  -2 -10   7   -1.10    4.87
  -2 -10   7   -1.79    4.83
   2  10  -7  -14.32    7.31
   2  10  -7    0.78    5.79
  -1 -10   7   -1.07    4.99
   1 -10  -7    5.49    5.35
  -1 -10   7   13.00    6.37
   1  10  -7    9.90    6.45
   1  10  -7    7.87    8.86
   0 -10  -7    7.37    7.08
   0 -10   7    3.31    5.05
   0 -10   7   21.00    7.21
   0 -10   7   10.12    5.30
   0  10  -7    6.19    7.08
   0  10  -7    7.23    9.24
   0  10   7   12.56    2.88
   0  10   7    6.01    2.65
   1 -10   7    3.05    5.19
   1 -10   7    0.55    4.95
  -1 -10  -7   -2.89    5.17
   1  10   7    3.79    3.48
  -1  10  -7    9.42    6.91
   2 -10   7    4.31    5.23
  -2 -10  -7   12.92    6.80
   2 -10   7   -0.09    5.41
   2  10   7    1.07    4.00
   2  10   7    3.84    4.03
  -2  10  -7    7.48    7.24
  -3 -10  -7    1.33    6.42
  -3 -10  -7   -2.38    4.87
   3 -10   7    5.78    5.71
   3 -10   7    0.83    4.57
  -3 -10  -7    0.38    2.39
   3  10   7    5.05    5.35
   3  10   7   12.56    5.47
  -3  10  -7   -0.10    6.65
  -4 -10  -7   14.02    7.22
   4 -10   7   17.83    6.69
  -4 -10  -7    8.04    6.39
  -4 -10  -7   -2.08    3.34
   4  10   7   13.69    6.67
  -4  10  -7   19.09    8.63
   4  10   7    6.58    5.97
  -5 -10  -7    6.07    7.68
  -5 -10  -7   -5.80    5.03
   5 -10   7   -2.43    6.05
   5  10   7    5.52    5.78
  -5  10  -7    3.90    6.98
   5  10   7   -8.81    7.06
   6 -10   7    0.80    5.53
  -6 -10  -7    7.13    8.62
  -6 -10  -7   13.05    7.46
  -6  10  -7    3.07    7.75
   6  10   7    4.38    6.56
   7 -10   7    1.90    5.93
  -7 -10  -7   -9.64    6.06
  -7 -10  -7    5.94   17.53
   7  10   7   -2.99    7.22
  -7  10  -7    7.41    8.32
   8 -10   7    6.50    7.28
  -8 -10  -7  -11.10    9.94
   8  10   7   -3.59    7.40
  -8  10  -7  -16.36    7.78
  -8 -11   7   42.45   19.57
   8  11  -7   48.15   15.10
  -8  11   7   37.28   13.30
   7 -11  -7   29.57    5.86
  -7 -11   7   18.75   13.62
   7  11  -7   45.82   13.78
  -7  11   7   51.91   12.78
  -6 -11   7   76.69   19.08
  -6  11   7  100.97   14.62
   6  11  -7  151.86   20.73
  -5 -11   7   24.66   12.74
  -5 -11   7   22.71    8.40
   5  11  -7   28.47    9.84
  -5  11   7   18.47    6.73
  -4 -11   7   82.07   13.59
  -4 -11   7   60.34   15.95
  -4  11   7   68.74    7.12
  -4  11   7   66.56    8.83
   4  11  -7   62.61   12.83
  -3 -11   7   64.00   11.19
  -3  11   7   59.98    4.93
   3  11  -7   87.89   13.76
  -3  11   7   71.44    6.08
  -2 -11   7  287.07   18.26
  -2 -11   7  250.85   17.48
   2  11  -7  245.19   24.69
  -1 -11   7   32.71    7.98
   1 -11  -7   25.53    9.74
  -1 -11   7   38.46    9.78
  -1  11   7   28.83    2.08
   1  11  -7   22.10    7.79
   1  11  -7   22.05   13.03
   0 -11   7   45.97   10.06
   0 -11  -7   47.58   10.99
   0 -11   7   30.34    7.65
   0 -11   7   54.93    8.86
   0  11  -7   18.21    9.99
   0  11   7   30.88    3.97
   0  11  -7   27.50    9.04
   0  11   7   39.89    4.41
   1 -11   7   38.33    8.05
  -1 -11  -7   25.75    8.98
   1 -11   7   28.67    8.54
  -1  11  -7   35.67   10.16
   1  11   7   23.88    4.92
  -2 -11  -7  273.70   20.16
   2 -11   7  255.67   18.95
  -2 -11  -7  206.06   13.06
   2 -11   7  255.36   16.15
   2  11   7  264.36   15.63
   2  11   7  267.36   15.06
  -2  11  -7  203.54   34.07
  -3 -11  -7   82.48   11.98
  -3 -11  -7   75.67   12.93
   3 -11   7   54.01    9.14
   3 -11   7   65.52   11.35
   3  11   7   82.91   10.74
   3  11   7   77.80   11.35
  -3  11  -7   65.05   13.34
   4 -11   7    4.01    5.65
  -4 -11  -7    9.50    7.46
   4  11   7    4.99    6.78
  -4  11  -7    4.42    7.89
   4  11   7    0.97    5.72
  -5 -11  -7   -2.20    6.49
  -5 -11  -7    2.57    5.74
   5 -11   7   -0.52    6.57
  -5 -11  -7   -8.06    7.53
   5  11   7  -11.99    6.69
  -5  11  -7   -1.90    6.81
   5  11   7    3.98    5.81
   6 -11   7  178.71   15.95
  -6 -11  -7  148.06   21.77
  -6 -11  -7  177.63   18.30
  -6 -11  -7  140.40   23.01
   6  11   7  203.00   19.36
  -6  11  -7  147.13   21.34
   7 -11   7    6.88    7.28
  -7 -11  -7  -14.15    8.99
  -7 -11  -7   17.06    9.60
  -7  11  -7   -5.56    7.21
   7  11   7    6.23    8.17
  -7 -12   7    6.97   11.10
  -7  12   7   -7.84    6.65
   7  12  -7   12.92    8.80
  -6 -12   7   15.36   13.40
  -6  12   7   13.33    7.00
   6  12  -7   38.56   11.74
  -5 -12   7   31.93   10.18
  -5 -12   7   35.44   13.72
  -5  12   7   27.66    7.10
   5  12  -7   29.15   10.41
  -4 -12   7  165.73   16.46
   4  12  -7  190.33   19.22
  -4  12   7  180.37   11.85
  -4  12   7  161.52   10.32
  -3 -12   7   -5.85    4.91
  -3  12   7    0.83    1.92
   3  12  -7    6.92    6.59
  -2 -12   7    8.31    6.32
   2 -12  -7   11.62    8.71
  -2 -12   7    7.12    6.04
   2  12  -7   17.14   10.03
   2  12  -7    8.65    6.56
  -1 -12   7   40.61   10.50
  -1 -12   7   41.17    8.13
   1 -12  -7   44.56   11.18
  -1  12   7   42.75    2.57
   1  12  -7   22.79   11.46
   1  12  -7   33.11    9.24
   0 -12   7  237.74   15.58
   0 -12   7  246.61   18.64
   0 -12  -7  217.93   22.86
   0 -12   7  238.12   15.72
   0  12   7  252.41   10.70
   0  12  -7  229.07   23.40
   0  12   7  242.49    9.87
  -1 -12  -7   -6.35    4.78
   1 -12   7    1.25    4.22
   1 -12   7    1.62    5.30
   1 -12   7    5.11    5.71
  -1  12  -7    0.60    5.59
   1  12   7    3.67    3.21
   1  12   7   -0.96    3.13
  -2 -12  -7   -3.61    2.68
   2 -12   7   10.62    7.02
   2 -12   7   -3.41    3.63
   2  12   7   -2.21    3.99
   2  12   7    3.12    4.06
  -2  12  -7   -4.42    6.01
   3 -12   7   51.03   11.85
  -3 -12  -7   76.20   13.71
   3 -12   7   52.84    8.81
  -3 -12  -7   57.16   13.58
   3  12   7   65.27    9.92
   3  12   7   70.75   10.25
  -3  12  -7   68.63   13.18
   4 -12   7  203.92   15.34
  -4 -12  -7  211.93   19.53
  -4  12  -7  220.18   21.04
   4  12   7  233.96   17.62
   4  12   7  221.47   19.02
  -5 -12  -7    2.92    4.39
  -5 -12  -7  -18.73    6.12
  -5 -12  -7  -11.38    5.20
   5  12   7  -15.38    7.54
  -5  12  -7    6.45    7.90
   5  12   7    3.54    6.52
  -6 -12  -7  -21.41    6.98
   6 -12   7    1.18    5.33
  -6 -12  -7    2.61    7.43
  -6 -12  -7    0.14    9.11
  -6  12  -7    2.16    8.47
   6  12   7    7.11    6.74
  -7 -12  -7   11.11   11.55
  -7 -12  -7   36.04   13.27
   7 -12   7   14.75    8.00
  -7  12  -7   12.91   10.81
   7  12   7   32.36   11.77
  -7 -13   7    1.62   10.77
  -7  13   7   11.74    7.93
   7  13  -7   16.20   11.20
  -6 -13   7    9.34    7.43
  -6 -13   7   -8.98    9.01
   6  13  -7    7.17    8.74
  -6  13   7    5.01    6.20
  -5 -13   7   82.17   14.21
  -5  13   7   70.19   10.16
   5  13  -7   68.36   15.15
  -4 -13   7   15.83    7.83
   4  13  -7   30.41    9.64
  -4  13   7   20.03    4.81
  -4  13   7   17.26    4.54
  -3 -13   7   17.75    8.27
   3  13  -7    8.31    7.59
  -3  13   7   13.34    2.73
  -2 -13   7    5.83    5.60
  -2 -13   7   -4.19    4.71
  -2 -13   7    8.21    5.74
   2 -13  -7    0.03    7.82
   2  13  -7    5.28   10.49
   2  13  -7    4.01    5.89
  -1 -13   7  111.05   11.31
  -1 -13   7  137.46   17.47
   1 -13  -7  115.90   17.19
  -1  13   7  106.95    4.72
   1  13  -7   86.25   16.94
   1  13  -7  127.76   16.66
   0 -13   7    9.08    6.28
   0 -13  -7   19.72    9.41
   0 -13   7   12.95    7.29
   0 -13   7   18.23    6.02
   0  13  -7   26.07    8.25
   0  13   7   13.00    2.69
   0  13   7   12.72    2.62
   0  13   7    9.14    3.10
   0  13  -7    3.90    8.86
  -1 -13  -7   19.01    8.58
   1 -13   7   15.59    6.41
   1 -13   7   32.50    7.01
   1 -13   7   25.75    9.00
   1  13   7   20.77    4.90
  -1  13  -7   23.28    8.72
   1  13   7   16.88    4.34
  -1  13  -7   14.51   12.81
   2 -13   7   -7.11    4.53
   2 -13   7   -0.75    3.52
  -2 -13  -7  -10.93    5.45
   2 -13   7  -11.12    4.06
  -2  13  -7   10.77    7.91
   2  13   7    5.37    3.97
   2  13   7   -2.52    4.03
  -3 -13  -7   55.34   12.50
   3 -13   7   46.21   12.08
   3 -13   7   53.92    8.95
  -3  13  -7   36.26   10.71
   3  13   7   62.65    9.89
   3  13   7   50.83    9.40
  -4 -13  -7   -1.81    5.51
  -4 -13  -7    3.20    7.89
   4 -13   7    9.22    5.52
   4  13   7    6.79    8.41
  -4  13  -7    8.28    8.39
   4  13   7   18.67    7.53
   5 -13   7   13.91    7.11
  -5 -13  -7   11.13    4.63
  -5 -13  -7    0.82    9.00
  -5 -13  -7    3.02    6.92
   5  13   7   -1.76    9.32
  -5  13  -7    6.82    8.34
   5  13   7   13.23    7.47
  -6 -13  -7    7.26    9.58
  -6 -13  -7  -13.54    5.81
  -6 -13  -7  -17.28    8.11
   6 -13   7   11.42    6.26
  -6  13  -7   -6.03    7.84
   6  13   7   -1.86    7.33
  -7 -13  -7   49.61   13.92
  -7 -13  -7   32.04   12.02
   7 -13   7   37.16    9.05
   7  13   7   21.01   11.68
  -7 -14   7   37.32   11.35
  -7 -14   7   11.56   14.27
   7  14  -7   30.86   12.32
  -7  14   7   39.06   11.42
  -6 -14   7   13.22   11.79
  -6 -14   7   42.07   12.53
   6  14  -7   18.83   10.31
  -6  14   7   35.90    8.95
  -5 -14   7   20.30    8.98
   5  14  -7    1.81    7.41
  -5  14   7   15.13    5.38
  -4 -14   7   51.33   11.04
  -4  14   7   31.98    5.74
  -4  14   7   38.97    3.58
   4  14  -7   38.96   11.57
  -3 -14   7   27.77    8.80
   3  14  -7   24.85    9.03
  -3  14   7   31.18    3.94
  -2 -14   7   33.05    7.73
  -2 -14   7   27.53    8.43
  -2 -14   7   26.39    9.78
   2 -14  -7   19.72    9.81
   2  14  -7   29.61    9.64
  -1 -14   7   10.88    8.42
  -1 -14   7    8.56    6.25
  -1 -14   7    2.91    4.56
   1 -14  -7    3.37    7.12
   1  14  -7  -25.48    8.67
  -1  14   7    4.61    1.78
   1  14  -7    7.16    7.02
   0 -14   7  139.76   11.79
   0 -14  -7  115.63   17.59
   0 -14   7  139.65   18.10
   0 -14   7  114.80   11.91
   0  14   7  131.66    6.67
   0  14   7  135.01    6.05
   0  14  -7  129.07   20.50
   0  14  -7  126.97   16.99
   0  14   7  135.36    8.17
   1 -14   7   47.10    8.04
  -1 -14  -7   27.09   10.82
   1 -14   7   43.69    7.96
   1 -14   7   37.31   11.11
   1  14   7   35.07    6.11
  -1  14  -7   33.76   10.76
  -1  14  -7    1.87   10.72
   2 -14   7   11.88    6.19
   2 -14   7   15.24    8.05
   2 -14   7    6.72    4.62
  -2 -14  -7   13.46    8.25
   2  14   7   11.21    5.31
  -2  14  -7   10.93    8.55
   2  14   7    0.87    4.48
   3 -14   7   -3.29    3.93
  -3 -14  -7    2.18    4.89
  -3 -14  -7   -1.52    5.71
   3 -14   7    3.63    6.66
   3  14   7   -5.44    4.56
  -3  14  -7   -2.08    6.09
   3  14   7   -1.62    5.18
   4 -14   7  127.80   11.12
  -4 -14  -7  120.97   16.80
  -4 -14  -7  112.47   18.09
  -4  14  -7  124.92   18.19
   4  14   7  102.49   13.82
   4  14   7  104.37   15.48
   5 -14   7   14.68    5.53
  -5 -14  -7   14.23    9.84
  -5 -14  -7   27.13   11.21
   5  14   7   18.34    7.88
   5  14   7   11.14   10.84
  -5  14  -7   38.83   12.24
  -6 -14  -7   15.41   11.35
  -6 -14  -7    4.48   11.59
  -6  14  -7   -1.09    9.04
   6  14   7    8.50    8.83
  -6 -15   7   83.65   15.15
  -6  15   7   72.05   11.77
   6  15  -7   50.70   14.50
  -5 -15   7    2.11    6.91
   5  15  -7   12.88    8.56
  -5  15   7   17.51    5.25
  -4 -15   7    5.32    6.81
   4  15  -7   -2.47    6.54
  -4  15   7   -5.07    4.45
  -3 -15   7   69.15   11.58
  -3 -15   7   39.80   12.14
   3  15  -7   52.14   12.51
  -3  15   7   31.23    3.84
   2 -15  -7   62.49   15.54
  -2 -15   7   87.08   11.18
  -2 -15   7   91.87   12.39
  -2 -15   7   65.91   13.72
   2  15  -7   69.36   13.73
   1 -15  -7   12.76    8.84
  -1 -15   7   18.00    7.99
  -1 -15   7   10.51    5.44
  -1 -15   7   11.11    6.43
   1  15  -7   37.88   11.12
  -1  15   7   19.65    3.03
   1  15  -7    9.39   11.73
   0 -15   7    5.26    5.69
   0 -15  -7    2.24    6.55
   0 -15   7   -0.93    3.74
   0 -15   7   -4.84    5.49
   0  15   7    1.62    1.12
   0  15  -7    2.90    6.90
   0  15   7   -0.51    2.55
   0  15  -7   -6.31    9.63
   0  15   7   -0.65    1.05
   1 -15   7   28.42   11.02
   1 -15   7   17.32    5.94
   1 -15   7   29.50    6.02
  -1 -15  -7   26.51   10.16
   1  15   7   19.68    4.74
   1  15   7   30.75    5.90
  -1  15  -7   55.45   12.43
  -1  15  -7   31.55   13.42
   2 -15   7   45.21    7.28
  -2 -15  -7   40.30   12.43
   2 -15   7   31.29    6.65
   2 -15   7    5.64    6.95
   2  15   7   59.52    8.92
   2  15   7   36.20    7.72
  -2  15  -7   51.87   12.33
   3 -15   7    3.07    5.10
  -3 -15  -7    8.75    7.80
   3 -15   7    4.13    4.42
   3 -15   7   16.12    8.25
  -3  15  -7   10.28    7.58
   3  15   7   13.45    5.94
   3  15   7   -3.31    6.35
  -4 -15  -7   -2.55    7.48
   4 -15   7    5.79    4.43
   4  15   7   -8.16    7.78
  -4  15  -7    0.15    7.27
  -5 -15  -7   55.08   15.03
   5  15   7   62.26   12.45
  -5  15  -7   37.87   12.13
  -6 -15  -7   45.13   13.91
   6 -15   7   35.29    6.92
  -6 -15  -7   43.47   16.15
  -6  15  -7   28.96   14.45
   6  15   7   45.96   12.03
  -5 -16   7   18.14    8.17
   5  16  -7   14.05   10.09
  -4 -16   7    4.07    6.64
   4  16  -7   -3.38    6.87
  -4  16   7    0.77    5.26
  -3 -16   7  109.57   19.13
  -3 -16   7  131.43   13.08
   3  16  -7  109.28   16.86
  -3  16   7  113.07    6.36
   2 -16  -7    2.95    8.74
  -2 -16   7   39.22   11.67
  -2 -16   7   32.67    7.47
   2  16  -7   16.39    8.75
   1 -16  -7   32.77   12.68
  -1 -16   7   28.32    7.43
  -1 -16   7   54.75    8.38
  -1 -16   7   41.21   11.51
   1  16  -7   39.98   10.61
   0 -16   7   -0.14    3.35
   0 -16   7    2.99    6.92
   0 -16   7  -13.28    4.22
   0 -16  -7   -7.20    6.61
   0  16   7    3.96    3.15
   0  16  -7    2.36    6.06
   0  16  -7    2.38   12.19
   1 -16   7  110.02    9.12
  -1 -16  -7  119.30   19.30
   1 -16   7  132.39   19.38
   1 -16   7  115.02    9.96
   1  16   7  122.58    8.85
   1  16   7  129.23   10.36
   1  16   7  120.28    9.19
  -1  16  -7  113.25   16.39
  -1  16  -7   65.93   17.50
   2 -16   7   13.52    9.55
   2 -16   7    7.76    4.87
   2 -16   7    9.08    4.10
  -2 -16  -7   -7.93    7.64
   2  16   7    6.61    5.41
   2  16   7   15.51    6.41
  -2  16  -7   -0.05   10.80
  -2  16  -7   11.70    7.34
   3 -16   7   35.28    7.38
  -3 -16  -7   25.30   10.18
   3 -16   7   45.92   12.85
  -3  16  -7   39.67   11.50
   3  16   7   30.36    8.82
   3  16   7   49.44    9.96
  -4 -16  -7  -12.87    7.45
   4 -16   7   -0.75    3.52
  -4  16  -7    1.40    7.61
   4  16   7   -5.19    5.62
   4  16   7   -9.74    9.07
  -5 -16  -7   85.65   16.82
  -5 -16  -7   93.05   18.70
   5  16   7   71.09   14.30
  -5  16  -7   95.86   17.15
  -5 -17   7   21.83    9.31
  -4 -17   7    6.60    8.64
  -4 -17   7   19.10    7.88
   4  17  -7   17.36   10.32
  -3 -17   7    2.13    4.97
  -3 -17   7    5.31   10.11
  -3 -17   7  -21.69    9.59
   3  17  -7    8.15    7.83
  -3  17   7    3.51    3.06
  -2 -17   7   -3.76    6.92
  -2 -17   7    5.08    7.55
  -2 -17   7   17.18    5.91
   2 -17  -7   -7.18    8.33
   2  17  -7   12.48    8.16
  -1 -17   7   15.66    6.91
  -1 -17   7   24.35   10.42
   1 -17  -7   15.59   10.47
  -1 -17   7   18.60    5.28
   1  17  -7   38.49   10.51
   0 -17   7   11.09    9.38
   0 -17  -7    7.26    7.36
   0 -17   7   14.35    4.49
   0  17   7   12.29    4.16
   0  17  -7   19.64    9.38
  -1 -17  -7    1.57    7.99
   1 -17   7    0.83    2.89
   1 -17   7   -5.01    4.82
   1 -17   7   -5.68    6.95
   1  17   7    0.42    2.98
  -1  17  -7    2.22    7.56
   1  17   7    1.23    3.65
   1  17   7   -3.97    3.98
  -1  17  -7   -2.88   11.95
   2 -17   7   26.43   11.06
  -2 -17  -7    4.03    9.26
   2  17   7   26.50    6.99
  -2  17  -7   46.54   12.84
   2  17   7   37.79    7.33
  -2  17  -7    4.01   15.10
   2  17   7   39.57    7.59
   3 -17   7    4.28    8.43
  -3 -17  -7    2.82    9.65
   3  17   7    6.78    6.32
   3  17   7    3.66    9.97
  -3  17  -7   10.11    8.81
  -4 -17  -7    0.81    8.67
   4  17   7    4.10    6.74
  -4  17  -7   -6.05    6.20
  -4 -18   7   23.84    8.24
  -3 -18   7   74.93   16.48
   3  18  -7   81.76   16.67
   2 -18  -7   -1.68   10.06
  -2 -18   7   14.06    5.44
  -2 -18   7    6.08    7.77
  -2 -18   7   -4.74    6.58
   2  18  -7   -0.15    7.53
  -1 -18   7   13.40    5.78
  -1 -18   7   33.38   12.13
  -1 -18   7   19.80    4.79
   1 -18  -7   20.35   11.49
   1  18  -7   39.32   11.62
   0 -18   7   15.77   10.61
   0 -18   7   24.39    5.44
   0 -18  -7    7.42   10.09
   0  18  -7   15.77    9.28
   1 -18   7   46.42   14.23
  -1 -18  -7   28.67   13.19
   1  18   7   42.05    7.51
  -1  18  -7   44.67   11.10
   1  18   7   48.77    5.76
   1  18   7   37.27    7.53
   2 -18   7  -10.32    8.50
  -2 -18  -7    3.80    9.69
   2  18   7    0.80    4.34
   2  18   7    2.12    4.58
   2  18   7    1.47    6.37
  -2  18  -7   -0.36    7.13
  -3 -18  -7   41.52   14.03
   3 -18   7   36.77   12.45
   3  18   7   66.37   10.41
  -3  18  -7   48.68   13.34
   3  18   7   52.30    9.78
  -2 -19   7    2.07    3.54
  -1 -19   7  125.77   20.47
   1 -19  -7  127.79   23.60
   1  19  -7  129.51   18.44
   0 -19   7   44.32   14.41
   0 -19  -7   62.57   16.77
   0  19  -7   45.22   12.86
   1 -19   7   50.61   15.77
  -1 -19  -7   26.91   13.14
   1  19   7   22.89    7.06
  -1  19  -7   34.08   11.84
   1  19   7   28.03    4.39
   2 -19   7  -15.81    7.88
  -2 -19  -7  -16.35    7.93
   2  19   7   13.01    7.11
  -2  19  -7    7.79    9.10
   2  19   7    0.05    4.09
  -9   0   8  179.47   28.30
   9   0  -8  165.37   22.29
  -8   0   8   73.11   17.33
  -7   0   8  112.95   20.69
   7   0  -8  130.27   17.27
  -6   0   8   -0.64    7.24
   6   0  -8    1.44    5.63
   5   0  -8  172.33   15.69
  -5   0   8  213.31   21.30
  -4   0   8   96.20   15.41
   4   0  -8  111.30   12.96
  -4   0   8  100.23   10.10
   4   0  -8  106.82   14.03
  -3   0   8  311.87   16.76
   3   0  -8  325.96   23.43
  -3   0   8  365.23   23.48
   3   0  -8  329.83   17.81
   2   0  -8   13.54    4.97
   2   0  -8   14.21    6.30
  -2   0   8    3.27    5.85
  -2   0   8   11.20    5.15
  -1   0   8  273.60   14.92
   1   0  -8  255.43   14.48
  -1   0   8  249.69   13.92
   1   0  -8  244.84   17.59
   0   0  -8  178.42   11.96
   0   0   8  187.41   12.08
   0   0  -8  161.54   10.60
   0   0   8  163.52   11.62
   1   0   8  981.06   35.10
   1   0   8  952.62   34.74
   1   0   8  950.51   26.57
  -1   0  -8 1000.00   35.44
  -1   0  -8  970.39   33.95
  -2   0  -8    5.13    3.87
   2   0   8    2.61    4.68
  -2   0  -8    5.62    5.19
   2   0   8   -5.80    3.32
   3   0   8  257.02   17.00
   3   0   8  300.11   17.76
  -3   0  -8  244.89   17.37
  -3   0  -8  278.13   18.50
   4   0   8    4.23    6.32
  -4   0  -8    4.28    6.37
   4   0   8   14.92    6.78
   5   0   8  406.38   24.65
  -5   0  -8  427.32   27.60
  -6   0  -8    4.97    7.82
   6   0   8    0.88    6.29
  -7   0  -8   38.79   13.01
   7   0   8   62.35   13.22
  -8   0  -8    8.98    8.71
   8   0   8   -4.40    7.52
   9   0   8  130.48   23.18
  -9   0  -8  136.27   25.23
   9  -1  -8   21.19   10.03
  -9  -1   8   38.96   16.81
   9   1  -8   21.23   10.51
  -9   1   8   10.21   11.08
   8  -1  -8    8.69    7.53
  -8  -1   8   -1.30    9.88
  -8   1   8   12.67    9.98
   8   1  -8   13.31    8.93
  -7  -1   8   29.04   12.68
   7  -1  -8   26.74    9.77
   7   1  -8   43.36   11.34
  -7   1   8   26.56   10.90
  -6  -1   8   32.73   11.63
   6  -1  -8   26.36    8.20
   6   1  -8   31.69    9.06
  -6   1   8   29.64   10.52
   5  -1  -8   29.42    8.77
  -5  -1   8   55.03   14.00
  -5   1   8   42.25   12.75
   5   1  -8   48.25   10.32
   4  -1  -8   -1.49    4.82
   4  -1  -8    2.91    5.09
  -4  -1   8    8.73    8.56
  -4  -1   8    0.74    4.14
  -4   1   8   15.94    8.61
  -4   1   8    0.28    4.11
   4   1  -8    6.25    6.22
   4   1  -8    1.38    5.52
  -3  -1   8   30.64    9.94
   3  -1  -8   42.38    9.43
   3  -1  -8   34.69    6.69
   3   1  -8   25.37    8.03
  -3   1   8   48.14    7.44
   3   1  -8   38.74    7.80
  -3   1   8   35.38    9.87
  -2  -1   8   74.02    9.77
  -2  -1   8   41.20    9.89
   2  -1  -8   52.31    9.64
   2   1  -8   57.23   10.82
  -2   1   8   58.38   10.45
  -2   1   8   49.03    7.32
   2   1  -8   64.81    8.96
  -1  -1   8  210.81   12.72
   1  -1  -8  154.30   10.83
   1  -1  -8  157.32   13.85
  -1  -1   8  181.53   12.29
  -1   1   8  174.90   11.72
  -1   1   8  171.89   11.03
   1   1  -8  159.82   11.95
   1   1  -8  157.24   15.07
   0  -1   8   33.38    6.65
   0  -1   8   31.08    6.69
   0   1   8   27.54    5.25
   0   1  -8   22.32    5.41
   0   1   8   22.33    5.53
   0   1  -8   32.72    6.98
   0   1   8   23.17    5.72
   1  -1   8   80.15    9.61
  -1  -1  -8   59.39    7.66
   1  -1   8   55.66    2.68
   1  -1   8   63.77    8.89
  -1  -1  -8   63.45    8.46
  -1   1  -8   58.46    8.74
  -1   1  -8   82.63    8.15
   1   1   8   57.33    8.33
   1   1   8   73.10    7.98
   1   1   8   59.52    4.29
   2  -1   8    7.57    5.19
   2  -1   8    6.36    4.25
  -2  -1  -8    8.09    4.64
  -2  -1  -8    3.75    3.62
  -2   1  -8    8.73    5.79
   2   1   8    4.82    4.51
  -2   1  -8    1.80    3.27
   2   1   8    2.72    4.23
  -3  -1  -8   98.25   12.72
   3  -1   8  105.50   12.87
   3  -1   8   98.62   12.13
  -3  -1  -8   89.93    9.48
  -3  -1  -8   95.11    4.94
  -3   1  -8   88.69    9.54
   3   1   8   99.12   12.29
  -3   1  -8  112.44   12.25
   3   1   8   97.80   12.09
  -4  -1  -8   33.21    8.94
   4  -1   8   26.84    8.42
  -4  -1  -8   21.06    6.54
   4   1   8   28.32    7.53
  -4   1  -8   28.72    3.66
  -4   1  -8   30.96    9.47
   4   1   8   23.99    7.57
   5  -1   8   26.48    8.79
  -5  -1  -8   51.30   11.47
   5   1   8   46.21    9.90
  -5   1  -8   26.55   10.55
  -6  -1  -8   18.24   10.05
   6  -1   8   21.41    8.36
  -6   1  -8   14.35    8.78
   6   1   8   -0.21    6.50
   7  -1   8   24.90   10.16
  -7  -1  -8   38.30   12.64
   7   1   8   42.85   10.98
  -7   1  -8   36.15   13.03
  -8  -1  -8   19.57   11.90
   8  -1   8    1.01    6.91
  -8   1  -8   18.84   10.73
   8   1   8   -0.07    6.25
   9  -1   8    6.68   10.66
  -9  -1  -8  -11.05    9.24
  -9   1  -8   -5.97    9.04
   9  -2  -8   47.93   13.65
  -9  -2   8   29.69   14.38
   9   2  -8   51.59   14.15
  -9   2   8   53.43   16.85
  -8  -2   8   10.30   10.08
   8  -2  -8   13.08    8.59
   8   2  -8   16.01    9.89
  -8   2   8   24.65   11.89
  -7  -2   8   30.27   12.99
   7  -2  -8   32.06    8.96
  -7   2   8   33.50   12.01
   7   2  -8   37.32   10.64
  -6  -2   8   27.66   12.24
   6  -2  -8   24.52    7.80
   6   2  -8   24.87    8.74
  -6   2   8   41.78   13.42
   5  -2  -8  116.30   12.62
  -5  -2   8   93.80   18.14
  -5   2   8   86.61   15.10
   5   2  -8  129.58   16.05
  -4  -2   8   17.38    9.57
   4  -2  -8   43.56    7.99
   4  -2  -8   35.18    8.45
   4   2  -8   47.52    9.69
  -4   2   8   32.25    6.72
  -4   2   8   19.95    8.49
   3  -2  -8  137.06   11.68
  -3  -2   8  125.56   10.74
   3  -2  -8  112.53   11.62
  -3  -2   8  140.63   18.66
  -3   2   8  139.80   10.06
  -3   2   8  149.14   14.67
   3   2  -8  153.38   12.95
   3   2  -8  130.11   13.65
  -2  -2   8   95.89   11.37
   2  -2  -8   90.41    9.71
  -2  -2   8   82.91   14.06
   2  -2  -8   79.70    8.05
   2   2  -8   94.11    9.89
  -2   2   8  101.79   13.82
  -2   2   8  101.28    8.91
   2   2  -8   96.20   13.68
  -1  -2   8  117.75   10.44
  -1  -2   8  149.40   11.38
   1  -2  -8  131.46    9.44
   1  -2  -8  110.34   10.78
  -1   2   8  127.74    9.17
   1   2  -8  135.57   11.53
   1   2  -8  129.94   14.36
   0  -2  -8    0.01    3.10
   0  -2   8   -3.66    3.55
   0  -2   8   -0.42    3.81
   0   2   8    3.06    3.41
   0   2   8   -2.57    2.15
   0   2   8   -2.41    2.61
   0   2  -8    2.81    3.60
   0   2  -8    3.85    4.43
  -1  -2  -8  153.00   11.10
   1  -2   8  135.41   11.50
  -1  -2  -8  151.13   10.03
   1  -2   8  161.97   12.39
  -1   2  -8  144.43   11.10
  -1   2  -8  163.75   12.81
   1   2   8  160.95   11.32
   1   2   8  169.90   11.28
   1   2   8  157.62    8.10
   2  -2   8   41.30    7.94
   2  -2   8   38.29    7.67
  -2  -2  -8   41.10    7.67
  -2  -2  -8   34.42    4.08
  -2  -2  -8   36.37    6.62
  -2   2  -8   42.34    7.37
   2   2   8   43.15    7.58
   2   2   8   41.73    7.62
  -2   2  -8   44.28    8.77
  -3  -2  -8   36.85    7.24
  -3  -2  -8   37.82    8.71
   3  -2   8   26.67    7.80
  -3  -2  -8   28.20    3.88
   3  -2   8   40.64    8.18
  -3   2  -8   30.35    8.45
  -3   2  -8   45.17    8.44
   3   2   8   36.56    7.73
   3   2   8   40.29    8.39
  -4  -2  -8    4.33    4.97
  -4  -2  -8    5.24    6.52
   4  -2   8   -2.41    5.00
  -4   2  -8   -0.32    1.70
   4   2   8    0.30    5.08
  -4   2  -8   -0.65    6.10
   4   2   8   -6.51    4.75
  -5  -2  -8  137.40   18.42
   5   2   8  119.24   15.40
  -5   2  -8  127.42   17.68
  -5   2  -8  107.36    7.93
  -6  -2  -8   30.92   11.51
   6  -2   8   28.50    9.21
  -6   2  -8   49.07    7.32
  -6   2  -8   39.02   11.02
   6   2   8   28.70    8.69
   7  -2   8   36.68   10.46
  -7  -2  -8   23.33    9.64
  -7   2  -8   24.03    9.64
   7   2   8   17.46    8.74
  -7   2  -8   40.37    8.09
   8  -2   8   13.66    8.73
  -8  -2  -8   -9.66    6.91
  -8   2  -8   17.96   11.36
   8   2   8    5.72    7.34
  -8   2  -8   -2.30    8.39
  -9  -2  -8   38.30   15.68
   9  -2   8   37.78   13.00
  -9   2  -8   63.98   17.64
   9  -3  -8   58.76   13.72
  -9  -3   8   63.35   18.73
   9   3  -8   67.85   15.38
  -9   3   8   42.48   15.86
   8  -3  -8   14.76    7.42
  -8  -3   8   -3.73    9.38
   8   3  -8    2.16    6.46
  -8   3   8    8.85    8.92
  -7  -3   8  148.23   24.37
   7  -3  -8  134.12   16.63
  -7   3   8  116.71   19.98
   7   3  -8  154.90   20.18
   6  -3  -8   21.58    7.71
  -6  -3   8   18.73   10.22
  -6   3   8   21.82    8.81
   6   3  -8   24.59    9.34
   5  -3  -8  203.63   15.36
  -5  -3   8  192.68   25.45
  -5   3   8  193.17   19.07
   5   3  -8  185.78   17.37
   4  -3  -8    7.70    5.56
  -4  -3   8   -0.43    7.02
   4  -3  -8    4.84    4.74
   4   3  -8    7.29    6.53
  -4   3   8   10.45    4.42
  -4   3   8   15.41    7.60
  -3  -3   8  207.62   13.98
   3  -3  -8  201.26   12.34
   3  -3  -8  194.72   13.24
  -3  -3   8  200.09   19.36
   3   3  -8  212.85   17.93
   3   3  -8  200.10   15.08
  -3   3   8  211.09   16.76
  -2  -3   8   38.15    7.73
   2  -3  -8   29.33    5.38
   2  -3  -8   42.84    6.84
   2   3  -8   35.88   10.12
  -2   3   8   38.17    6.23
   2   3  -8   33.83    7.78
  -2   3   8   45.54    8.89
   1  -3  -8  240.02   12.08
  -1  -3   8  221.34   14.60
  -1  -3   8  218.06   14.49
   1  -3  -8  207.95   13.85
   1   3  -8  222.68   18.88
  -1   3   8  241.13   14.01
   1   3  -8  255.95   15.81
  -1   3   8  235.88   12.65
  -1   3   8  248.84   12.14
   0  -3  -8    1.65    3.01
   0  -3   8   -0.66    3.79
   0  -3   8    1.77    4.15
   0   3   8   -0.09    2.59
   0   3  -8    1.96    3.75
   0   3   8   -2.59    2.90
   0   3  -8   -2.27    4.23
   0   3   8    0.48    2.95
  -1  -3  -8  217.53   16.29
  -1  -3  -8  283.60   14.81
  -1  -3  -8  267.04   12.77
   1  -3   8  239.10    9.62
   1  -3   8  275.39   16.18
   1  -3   8  265.88   15.70
   1   3   8  238.24   13.70
  -1   3  -8  249.54   16.06
   1   3   8  234.79   11.63
  -1   3  -8  277.26   15.60
   1   3   8  264.12   14.25
   2  -3   8   19.87    6.42
   2  -3   8   19.95    6.79
  -2  -3  -8   16.74    5.91
  -2  -3  -8   25.40    4.27
  -2  -3  -8   18.87    4.64
   2   3   8   20.50    5.94
   2   3   8   18.60    5.49
  -2   3  -8   13.52    6.27
   3  -3   8  343.71   20.48
  -3  -3  -8  369.84   21.65
  -3  -3  -8  370.89   18.81
   3  -3   8  391.14   21.44
   3   3   8  415.53   20.97
  -3   3  -8  402.38   23.01
  -3   3  -8  345.83   19.54
   3   3   8  372.55   20.70
  -4  -3  -8   -2.52    5.11
   4  -3   8    4.38    5.83
  -4  -3  -8    2.63    5.11
  -4   3  -8   -1.92    6.21
   4   3   8    4.48    6.12
   4   3   8    2.46    5.42
  -4   3  -8    2.10    1.91
  -5  -3  -8  101.50   16.27
  -5   3  -8  105.01    7.87
   5   3   8   95.68   13.52
  -5   3  -8   81.57   15.02
   6  -3   8   -1.74    5.62
  -6  -3  -8    7.83    8.23
   6   3   8    2.85    5.52
  -6   3  -8   -6.99    5.99
  -6   3  -8    0.00    3.30
  -7  -3  -8  246.67   24.91
   7  -3   8  231.73   20.80
  -7   3  -8  246.86   16.27
  -7   3  -8  276.72   25.86
   7   3   8  254.99   22.29
   8  -3   8    4.25    7.39
  -8  -3  -8    1.70    9.95
  -8   3  -8  -12.07    7.19
  -8   3  -8   14.31    8.61
   8   3   8   10.22    8.03
   9  -3   8    0.33    7.80
  -9  -3  -8   17.72   11.06
   9   3   8   25.29   14.32
  -9   3  -8   12.30   17.80
  -9  -4   8   18.17   12.83
   9  -4  -8    1.44    6.36
   9   4  -8   -9.23    7.61
  -9   4   8    4.32   10.50
  -8  -4   8   -2.95   10.25
   8  -4  -8   -7.02    5.34
  -8   4   8   -6.07    7.96
   8   4  -8    9.60    8.34
  -7  -4   8   55.69   15.81
   7  -4  -8   34.85    9.31
   7   4  -8   39.73   11.61
  -7   4   8   30.18   10.34
   6  -4  -8  149.73   13.94
  -6  -4   8  119.00   21.11
  -6   4   8  133.01   18.49
   6   4  -8  145.66   16.15
   5  -4  -8    5.18    5.60
  -5  -4   8    5.18    9.12
  -5   4   8    0.69    7.29
   5   4  -8    0.99    5.97
  -4  -4   8    7.55    9.56
   4  -4  -8   14.25    5.26
   4  -4  -8   16.95    5.35
  -4   4   8   17.51    7.66
   4   4  -8    8.22    7.02
  -4   4   8    6.63    4.75
   3  -4  -8   86.70    7.96
  -3  -4   8   83.89   14.99
   3  -4  -8   77.66    8.33
  -3  -4   8   87.46   10.85
   3   4  -8  105.54   15.66
   3   4  -8   94.45   12.27
  -3   4   8   89.20   12.07
  -2  -4   8  228.90   14.88
   2  -4  -8  200.24   11.98
  -2  -4   8  242.44   15.95
   2  -4  -8  235.83   11.59
  -2   4   8  224.09   12.21
   2   4  -8  194.74   14.92
  -2   4   8  215.07   15.23
   2   4  -8  243.04   20.05
  -2   4   8  237.80   15.80
  -1  -4   8   22.67    6.85
  -1  -4   8   10.67    5.53
   1  -4  -8   10.90    4.15
   1   4  -8   18.76    6.69
  -1   4   8   11.41    3.97
  -1   4   8   17.99    5.13
   1   4  -8    9.06    7.12
   0  -4   8    7.40    4.86
   0  -4  -8    6.82    3.35
   0  -4   8   14.21    5.33
   0   4   8   10.43    4.69
   0   4  -8   12.40    4.20
   0   4   8   -2.25    2.75
   0   4  -8    9.39    5.76
   0   4   8   14.24    4.10
   1  -4   8   58.46    9.20
  -1  -4  -8   66.30    6.93
   1  -4   8   55.15    4.97
   1  -4   8   60.94    8.99
  -1  -4  -8   44.14    6.82
   1   4   8   58.77    7.09
  -1   4  -8   58.63    8.58
  -1   4  -8   60.62    9.86
   1   4   8   62.36    7.71
   1   4   8   61.27    7.61
  -2  -4  -8  204.77   11.36
  -2  -4  -8  203.94   11.91
  -2  -4  -8  235.89   15.00
   2  -4   8  199.87   14.57
   2  -4   8  225.14   15.38
   2   4   8  189.29   13.40
  -2   4  -8  235.12   16.81
   2   4   8  229.76   13.75
  -2   4  -8  203.94   14.10
   3  -4   8    1.27    5.97
  -3  -4  -8    9.49    3.80
  -3  -4  -8   12.43    4.91
  -3  -4  -8    7.27    6.21
   3  -4   8    9.75    6.03
   3   4   8    6.02    5.20
   3   4   8   15.19    5.86
  -3   4  -8   11.83    7.02
   4  -4   8   13.22    7.09
  -4  -4  -8   10.96    5.76
  -4  -4  -8    7.62    4.31
  -4  -4  -8   13.65    7.79
   4   4   8   11.00    7.18
  -4   4  -8   12.79    8.26
   4   4   8   12.32    6.11
  -5  -4  -8   20.59    8.90
   5  -4   8   12.26    7.53
  -5   4  -8   22.73    9.53
  -5   4  -8   16.48    4.22
   5   4   8   19.80    8.19
  -6  -4  -8   85.62   15.45
   6  -4   8   79.01   13.43
   6   4   8  115.05   16.21
  -6   4  -8   90.11    9.01
  -6   4  -8   84.85   15.70
   7  -4   8   -1.30    6.18
  -7  -4  -8   -0.82    7.19
  -7   4  -8   -1.15    7.28
  -7   4  -8    4.69    5.65
   7   4   8   11.11    7.17
   8  -4   8   23.95    9.97
  -8  -4  -8   -0.96    9.25
  -8   4  -8   15.35    9.26
  -8   4  -8    9.01   10.19
   8   4   8   24.42   10.25
  -9  -4  -8   28.68   15.40
   9  -4   8   25.25   10.99
  -9   4  -8   10.59   12.63
   9   4   8   24.07   11.53
   9  -5  -8   15.03    8.07
  -9  -5   8    6.71   12.25
   9   5  -8    2.48    8.11
  -9   5   8    3.70   11.29
   8  -5  -8   61.49   11.46
  -8  -5   8   64.77   18.11
  -8   5   8   73.41   17.88
   8   5  -8   68.74   14.72
   7  -5  -8   42.77   10.17
  -7  -5   8   47.81   15.81
   7   5  -8   69.18   14.61
  -7   5   8   48.73   13.83
   6  -5  -8   33.98    8.25
  -6  -5   8   24.61   12.17
  -6   5   8   46.29   12.25
   6   5  -8   34.83   10.67
  -5  -5   8   15.13   11.20
   5  -5  -8   14.45    5.69
  -5   5   8   10.85    6.32
   5   5  -8    4.27    7.06
  -4  -5   8  164.53   22.78
   4  -5  -8  195.78   13.06
   4  -5  -8  197.71   12.41
  -4   5   8  202.06   17.36
   4   5  -8  203.82   17.43
  -3  -5   8  123.50   18.98
  -3  -5   8  162.28   12.88
   3  -5  -8  131.18    9.45
  -3   5   8  123.94   12.88
  -3   5   8  130.91   13.67
   3   5  -8  154.98   14.27
   3   5  -8  114.85   16.91
  -2  -5   8    6.23    5.54
   2  -5  -8   14.89    3.67
  -2  -5   8   15.66    5.03
  -2  -5   8    6.35    5.05
  -2   5   8   10.78    3.49
   2   5  -8   10.20    4.56
  -2   5   8   16.23    7.41
  -1  -5   8    1.93    4.58
   1  -5  -8    6.22    3.03
  -1  -5   8    9.12    4.50
   1   5  -8   15.48    6.09
  -1   5   8    8.94    4.65
   1   5  -8    5.63    6.66
  -1   5   8    4.84    3.27
   0  -5   8  169.52   13.18
   0  -5  -8  186.02   12.86
   0  -5  -8  189.81   10.00
   0  -5   8  169.24   13.26
   0   5  -8  207.28   15.86
   0   5   8  186.11   10.60
   0   5   8  181.81   10.37
   0   5   8  168.60   11.54
   0   5  -8  168.88   14.47
  -1  -5  -8  169.49   11.02
   1  -5   8  148.23   12.54
   1  -5   8  162.42   12.97
  -1  -5  -8  168.83   11.33
   1   5   8  158.11   10.81
   1   5   8  149.24   10.21
  -1   5  -8  162.36   14.25
   1   5   8  151.30   10.43
  -1   5  -8  130.44   11.62
   2  -5   8    1.33    2.66
   2  -5   8    5.69    5.35
  -2  -5  -8   -0.89    3.41
   2  -5   8   -3.52    3.73
  -2  -5  -8   -1.73    4.66
  -2  -5  -8    1.28    3.14
   2   5   8    1.92    3.82
  -2   5  -8    4.08    6.42
   2   5   8    6.43    4.09
  -2   5  -8    3.36    3.90
   3  -5   8   54.76   10.12
  -3  -5  -8   86.96   11.97
  -3  -5  -8   82.06    9.38
  -3  -5  -8   55.45    8.01
   3   5   8   77.27   10.89
   3   5   8   63.89    9.51
  -3   5  -8   68.55   12.45
   4  -5   8   71.35   11.63
  -4  -5  -8   92.70   14.04
  -4  -5  -8   94.60    9.65
  -4   5  -8   87.23    6.81
   4   5   8   95.89   13.11
  -4   5  -8   97.67   14.27
  -5  -5  -8   39.99   11.22
   5  -5   8   35.24    9.57
  -5   5  -8   40.36    6.04
  -5   5  -8   28.89   10.08
   5   5   8   24.85    8.23
   6  -5   8    8.91    7.26
  -6  -5  -8    1.80    7.64
   6   5   8    1.19    6.06
  -6   5  -8    8.03    8.50
  -6   5  -8    6.18    4.61
   7  -5   8   58.14   12.48
  -7  -5  -8   29.48   12.98
  -7   5  -8   30.39   10.74
   7   5   8   37.21   11.39
   8  -5   8   60.39   13.43
  -8  -5  -8   67.52   16.80
  -8   5  -8   50.43   15.72
   8   5   8   51.85   13.76
   9  -6  -8   53.87   12.10
  -9  -6   8   46.97   16.84
   9   6  -8   12.71   10.93
  -9   6   8   31.16   14.71
   8  -6  -8    0.87    6.03
  -8  -6   8    8.61   10.00
   8   6  -8   21.12    9.20
  -8   6   8  -16.92    6.23
   7  -6  -8   40.51    9.67
  -7  -6   8   44.38   15.89
   7   6  -8   52.62   13.14
  -7   6   8   49.02   14.02
  -6  -6   8   35.54   13.43
  -6   6   8   25.75    9.28
   6   6  -8   46.43   11.73
  -5  -6   8   54.36   15.34
   5  -6  -8   53.87    8.20
  -5   6   8   83.57   13.82
   5   6  -8   74.68   13.61
  -4  -6   8   -2.36    8.54
   4   6  -8    8.19    7.53
  -4   6   8    0.30    5.50
  -4   6   8   16.11    5.47
  -3  -6   8   63.96   10.09
   3  -6  -8   55.72    5.70
  -3  -6   8   57.63   14.31
   3   6  -8   50.46   10.37
  -3   6   8   58.49    9.77
   3   6  -8   48.57   12.22
   2  -6  -8   52.24    3.82
   2  -6  -8   60.88    3.89
  -2  -6   8   26.65    7.17
  -2  -6   8   48.07    9.02
  -2   6   8   59.67   10.19
   2   6  -8   59.29   13.09
   2   6  -8   60.68   10.47
   1  -6  -8   64.30    4.10
  -1  -6   8   58.22    9.76
  -1  -6   8   53.11    9.23
   1  -6  -8   63.20    3.81
  -1   6   8   57.83    9.13
   1   6  -8   69.57   13.99
   1   6  -8   58.87    9.39
  -1   6   8   52.74    5.66
   0  -6  -8    3.49    4.68
   0  -6  -8   12.78    3.52
   0  -6   8   15.79    5.54
   0  -6   8    9.78    5.52
   0   6   8   12.67    3.76
   0   6  -8   18.63    6.93
   0   6   8   12.04    4.77
   0   6  -8   12.73    5.11
   0   6   8   11.58    3.64
   1  -6   8  129.34   11.75
   1  -6   8  130.41    9.41
  -1  -6  -8  114.10   10.30
  -1  -6  -8  130.72    9.30
   1  -6   8  106.07   11.11
   1   6   8  109.73    8.77
   1   6   8  118.72    9.22
  -1   6  -8  104.77   13.14
  -1   6  -8   99.65   10.57
   2  -6   8    4.23    5.04
   2  -6   8    5.88    3.87
   2  -6   8    3.09    5.06
  -2  -6  -8   11.81    5.25
  -2  -6  -8    7.14    3.53
  -2  -6  -8   11.16    5.66
   2   6   8   12.84    4.99
   2   6   8   12.00    4.97
  -2   6  -8   16.64    5.63
  -2   6  -8    8.81    7.02
  -3  -6  -8   12.22    5.41
  -3  -6  -8    9.84    4.29
   3  -6   8   10.60    6.36
  -3  -6  -8    8.64    6.54
   3   6   8   11.12    5.64
  -3   6  -8   15.20    7.26
   3   6   8    7.41    5.76
  -4  -6  -8   11.76    5.67
  -4  -6  -8   29.56    6.93
   4  -6   8    8.97    7.20
  -4  -6  -8   23.75    8.28
   4   6   8   25.17    7.98
  -4   6  -8   26.02    9.47
  -4   6  -8   20.43    4.64
   4   6   8   21.08    7.80
  -5  -6  -8  182.21   18.42
   5  -6   8  164.19   15.48
  -5  -6  -8  190.34   14.07
  -5   6  -8  153.26   20.15
   5   6   8  181.01   16.34
  -5   6  -8  148.84   10.57
  -6  -6  -8   12.83    9.48
   6  -6   8   -3.23    5.86
  -6   6  -8   -9.53    4.11
  -6   6  -8  -12.34    6.29
   6   6   8    4.69    5.99
  -7  -6  -8   11.61    9.71
   7  -6   8   20.68    9.14
   7   6   8   16.31    8.04
  -7   6  -8    5.94    7.29
  -7   6  -8    1.95    7.71
   8  -6   8    0.76    7.17
  -8  -6  -8   -2.82    9.45
  -8   6  -8   -5.21    8.22
   8   6   8   -1.59    7.86
  -9  -7   8   41.65   17.50
   9  -7  -8   45.30   12.05
   9   7  -8   23.14   12.08
  -9   7   8   18.54   12.67
  -8  -7   8   99.07   23.08
   8  -7  -8  160.68   16.18
  -8   7   8  172.16   24.67
   8   7  -8  199.90   25.31
  -7  -7   8   11.55   11.42
   7  -7  -8    3.55    5.24
   7   7  -8   -3.35    5.82
  -7   7   8    7.60    8.54
  -6  -7   8   -3.45    7.78
   6  -7  -8   -0.61    4.20
  -6   7   8   -2.73    5.73
   6   7  -8    0.06    7.45
  -5  -7   8   68.73   17.59
  -5   7   8   71.84   12.70
   5   7  -8   79.26   14.61
   4  -7  -8  241.13   11.66
  -4  -7   8  181.61   24.73
   4   7  -8  225.20   19.33
  -4   7   8  208.78   12.80
  -4   7   8  237.47   17.44
   3  -7  -8    0.95    1.32
  -3  -7   8   -8.20    4.17
  -3  -7   8   -2.40    6.84
   3   7  -8   -3.26    5.74
  -3   7   8    3.00    2.87
   3   7  -8  -15.57    5.10
  -3   7   8    2.86    4.92
  -2  -7   8   -5.35    3.82
  -2  -7   8   -1.52    4.84
   2   7  -8   -2.14    5.17
   2   7  -8    3.56    6.91
  -2   7   8    4.92    5.13
  -1  -7   8   29.35    6.82
  -1  -7   8   23.75    7.03
   1   7  -8   25.24    7.71
   1   7  -8   16.44    9.33
  -1   7   8   27.34    7.00
  -1   7   8   22.87    4.23
   0  -7   8  385.81   20.73
   0  -7  -8  372.42   21.24
   0  -7  -8  422.43   13.40
   0  -7  -8  385.15   13.85
   0  -7   8  401.54   21.37
   0   7   8  422.81   20.86
   0   7  -8  389.12   21.03
   0   7  -8  424.15   23.59
   0   7   8  400.19   15.79
   0   7   8  421.53   16.42
  -1  -7  -8   -3.09    4.32
   1  -7   8    9.62    5.82
   1  -7   8    9.93    4.81
   1  -7   8    2.30    4.48
  -1  -7  -8    3.96    3.23
   1   7   8    0.32    3.40
  -1   7  -8    0.32    4.70
   1   7   8    5.17    3.61
  -1   7  -8    7.40    6.81
  -2  -7  -8   21.14    6.95
  -2  -7  -8   32.53    6.81
  -2  -7  -8   26.19    4.12
   2  -7   8   35.34    8.24
   2  -7   8   23.30    5.73
   2   7   8   18.84    5.78
  -2   7  -8   21.98    8.68
   2   7   8   23.71    6.38
   3  -7   8    4.53    6.09
  -3  -7  -8   12.43    6.64
  -3  -7  -8    8.82    3.89
  -3  -7  -8    1.74    4.85
   3   7   8    5.11    5.88
  -3   7  -8    1.85    7.34
   3   7   8    9.07    5.73
  -4  -7  -8  417.75   20.45
   4  -7   8  400.14   23.50
  -4  -7  -8  433.12   25.89
  -4  -7  -8  444.19   22.30
  -4   7  -8  388.03   29.60
   4   7   8  386.36   23.55
   4   7   8  388.00   22.70
  -5  -7  -8  -12.95    4.83
  -5  -7  -8   -2.22    5.85
  -5  -7  -8    3.58    4.96
   5  -7   8   -2.07    4.87
  -5   7  -8    2.38    7.02
  -5   7  -8   -9.69    3.10
   6  -7   8   28.28    9.23
  -6  -7  -8   46.93   12.64
  -6   7  -8   36.79   12.20
   6   7   8   24.92    9.33
  -6   7  -8   28.03    7.48
   7  -7   8   -0.78    6.01
  -7  -7  -8    0.17    8.51
  -7   7  -8    1.61    8.34
   7   7   8   -0.99    6.13
   8  -7   8  100.35   15.80
  -8  -7  -8  146.27   23.43
   8   7   8  136.53   19.88
  -8   7  -8  160.47   24.29
  -8  -8   8   -3.93   11.42
   8  -8  -8    0.53    6.68
   8   8  -8    2.29    9.58
  -8   8   8    7.19    9.97
  -7  -8   8    2.59    7.96
   7  -8  -8    3.72    5.50
   7   8  -8    0.28    7.93
  -7   8   8   11.82    7.92
  -6  -8   8   52.29   16.82
  -6   8   8   69.73   13.40
   6   8  -8   74.51   15.57
  -5  -8   8   81.99   18.94
   5  -8  -8   74.68    7.50
   5   8  -8   77.06   14.40
  -5   8   8   69.45   12.51
  -4  -8   8   12.53   10.25
   4  -8  -8   12.73    2.24
   4   8  -8    9.39    7.31
  -4   8   8    5.68    5.78
  -4   8   8    5.53    4.10
  -3  -8   8   -1.44    5.51
  -3   8   8   -2.90    2.42
  -3   8   8   -0.33    4.43
   3   8  -8   -2.28    5.83
  -2  -8   8  195.36   15.43
  -2  -8   8  217.29   15.24
   2   8  -8  214.71   17.49
   2   8  -8  207.00   24.53
   1  -8  -8   33.99    9.22
  -1  -8   8   33.45    8.22
  -1  -8   8   58.80    9.15
  -1   8   8   31.02    7.68
   1   8  -8   42.03   15.07
   1   8  -8   42.57    9.42
  -1   8   8   43.02    4.88
   0  -8   8   -0.66    3.62
   0  -8  -8    5.40    5.25
   0  -8   8    3.18    4.65
   0   8   8   -0.13    2.41
   0   8   8    0.79    2.65
   0   8   8    0.03    4.50
   0   8  -8    6.81    7.36
   0   8  -8    8.49    6.20
  -1  -8  -8    2.40    5.02
   1  -8   8    8.38    4.87
   1  -8   8    4.42    5.40
  -1   8  -8    2.89    5.94
   1   8   8    4.97    3.08
   1   8   8    8.64    3.71
   2  -8   8  263.78   17.87
   2  -8   8  274.31   16.78
  -2  -8  -8  306.80   16.82
  -2  -8  -8  322.18   19.05
   2   8   8  290.04   16.47
  -2   8  -8  281.84   21.01
   2   8   8  276.15   15.74
  -3  -8  -8    5.80    6.53
   3  -8   8    6.74    6.09
  -3  -8  -8    9.77    5.75
  -3  -8  -8   10.54    4.09
   3   8   8    7.46    5.49
   3   8   8   18.40    6.36
  -3   8  -8    3.73    6.88
  -4  -8  -8   -6.92    5.55
  -4  -8  -8   -5.81    3.99
   4  -8   8   -6.80    4.52
  -4  -8  -8   -0.38    4.45
  -4   8  -8    3.95    6.08
   4   8   8   -6.17    5.25
   4   8   8    3.55    5.22
  -5  -8  -8   -6.67    5.81
  -5  -8  -8    3.53    5.27
   5  -8   8    0.57    5.30
  -5  -8  -8    2.69    5.51
  -5   8  -8  -10.25    4.35
  -5   8  -8   10.48    8.51
  -6  -8  -8  162.13   15.41
  -6  -8  -8  139.26   20.21
   6  -8   8  154.54   15.69
  -6   8  -8  138.17   20.28
   6   8   8  123.75   16.97
  -6   8  -8  129.96   13.16
   7  -8   8    4.67    7.84
  -7  -8  -8    1.54    9.23
  -7   8  -8    5.41    9.49
   7   8   8   -0.05    7.46
  -8  -8  -8   -3.67    9.43
   8  -8   8   -2.08    7.36
  -8   8  -8   35.54   14.19
   8   8   8   13.37    9.82
   8  -9  -8   14.38    7.73
  -8  -9   8   29.80   15.82
   8   9  -8   11.80   11.21
  -8   9   8   28.64   12.76
  -7  -9   8   -3.04   10.03
   7   9  -8   20.78   11.06
  -7   9   8   -4.33    5.86
   6  -9  -8    6.08    3.05
  -6  -9   8   -1.74    8.11
  -6   9   8   -2.58    6.06
   6   9  -8   -9.78    6.73
   5  -9  -8   13.85    3.51
  -5   9   8   18.65    7.50
   5   9  -8   18.98    8.25
  -4  -9   8   50.30   10.86
  -4  -9   8   32.94   13.31
  -4   9   8   34.21    7.89
   4   9  -8   39.61   10.66
  -4   9   8   38.69    5.91
  -3  -9   8    7.71    7.00
  -3   9   8    3.18    4.34
   3   9  -8   -4.34    6.01
  -3   9   8    3.73    2.78
  -2  -9   8   -1.51    5.17
  -2  -9   8   -4.29    4.53
   2   9  -8    7.97    9.04
   2   9  -8    2.68    6.72
  -1  -9   8   -4.54    3.77
   1  -9  -8    4.20    6.43
  -1  -9   8    0.34    5.44
  -1   9   8    1.69    1.99
   1   9  -8   -1.59    6.30
   1   9  -8    6.56    8.13
   0  -9  -8   60.63   11.43
   0  -9   8   71.84   10.38
   0  -9   8   63.16    9.93
   0   9  -8   61.54   11.94
   0   9   8   56.82   10.63
   0   9   8   55.01    5.45
   0   9   8   57.24    5.64
   1  -9   8    2.67    4.58
  -1  -9  -8   -5.06    5.07
   1  -9   8   -2.54    4.27
  -1  -9  -8   -0.50    2.50
   1   9   8   -0.47    3.29
   1   9   8   -2.30    2.92
  -1   9  -8    2.51    6.24
  -2  -9  -8    1.37    5.65
   2  -9   8    1.61    5.35
   2  -9   8    9.34    6.15
  -2   9  -8   -3.23    6.39
   2   9   8   -0.95    4.39
  -3  -9  -8    9.11    6.26
  -3  -9  -8   14.03    6.71
  -3  -9  -8    8.82    2.99
   3  -9   8   13.08    6.32
   3  -9   8    4.46    5.61
  -3   9  -8   -2.37    6.82
   3   9   8    4.93    5.15
   3   9   8   15.39    6.13
   4  -9   8   37.60    8.97
  -4  -9  -8   37.28   10.31
  -4  -9  -8   33.86    8.57
  -4  -9  -8   36.03    6.07
   4   9   8   33.22    9.80
   4   9   8   33.67    8.65
  -4   9  -8   54.30   12.11
  -5  -9  -8    7.87    7.22
  -5  -9  -8   -0.12    5.77
   5  -9   8   -1.75    4.84
  -5  -9  -8   -2.28    5.70
   5   9   8   -2.52    4.80
  -5   9  -8   -5.46    4.52
  -5   9  -8   -0.83    6.49
  -6  -9  -8    8.35    8.46
   6  -9   8   17.08    7.84
  -6  -9  -8    0.48    8.54
   6   9   8   13.67    8.02
  -6   9  -8   -6.18    6.90
  -6   9  -8    7.39    8.62
   7  -9   8    9.78    8.16
  -7  -9  -8   12.95   11.04
  -7  -9  -8   -5.64    5.89
   7   9   8   -8.42    5.60
  -7   9  -8   -7.69    7.44
  -8  -9  -8   31.49   14.94
  -8  -9  -8   21.33    9.96
   8  -9   8   24.29    9.78
  -8   9  -8   20.59   12.20
   8   9   8   41.08   11.87
  -8 -10   8   10.74   13.73
  -8  10   8   -8.24    7.76
   8  10  -8    3.45    9.08
  -7 -10   8   18.17   11.84
   7 -10  -8   13.06    5.09
   7  10  -8   29.16   10.98
  -7  10   8   20.54   10.24
   6 -10  -8  255.01   11.55
   6 -10  -8  238.33   11.30
  -6 -10   8  246.12   32.77
   6  10  -8  305.82   25.73
  -6  10   8  309.83   22.78
  -5 -10   8   -3.15    8.69
  -5  10   8   13.15    7.08
   5  10  -8    7.13    7.39
  -4 -10   8    5.70    9.35
  -4 -10   8   -1.02    5.02
   4  10  -8   -4.64    4.92
  -4  10   8    4.44    3.59
  -4  10   8   -0.38    3.68
  -3 -10   8   22.40    7.78
   3  10  -8   24.44    9.06
  -3  10   8   22.54    5.01
  -3  10   8   21.10    3.69
  -2 -10   8  515.41   26.04
  -2 -10   8  546.81   27.39
   2  10  -8  522.82   29.02
   2  10  -8  505.64   34.74
  -1 -10   8   32.40    8.27
   1 -10  -8   37.92   10.97
  -1 -10   8   35.45    8.60
  -1  10   8   34.00    2.79
   1  10  -8   38.45    9.93
  -1  10   8   38.47    3.75
   1  10  -8   -0.32    9.19
   0 -10   8   14.57    6.28
   0 -10  -8   10.64    7.45
   0 -10   8    2.33    5.27
   0  10   8    9.85    3.29
   0  10  -8   13.99    8.03
   0  10   8    9.56    3.03
   0  10  -8   27.22   11.90
   1 -10   8   21.62    7.35
  -1 -10  -8    5.90    6.27
   1 -10   8   26.89    7.64
   1  10   8   25.86    5.51
   1  10   8   20.29    5.10
  -1  10  -8   24.21    9.36
   2 -10   8  524.05   26.55
  -2 -10  -8  503.22   27.72
   2 -10   8  535.66   25.71
   2  10   8  544.49   24.02
   2  10   8  523.92   23.31
  -2  10  -8  546.90   35.59
   3 -10   8   38.92    8.58
  -3 -10  -8   19.47    7.32
  -3 -10  -8   23.15    8.13
   3 -10   8   36.90    8.57
  -3  10  -8   11.76    8.15
   3  10   8   33.10    7.55
   3  10   8   30.37    7.79
  -4 -10  -8   31.31    9.32
  -4 -10  -8   29.79    8.88
   4 -10   8   29.05    8.36
  -4 -10  -8   33.25    5.42
  -4  10  -8   39.27   11.80
   4  10   8   39.80    9.24
   4  10   8   21.87    8.69
  -5 -10  -8    1.58    7.23
   5 -10   8    3.80    5.44
  -5 -10  -8   -5.27    5.32
  -5  10  -8    6.48    7.61
   5  10   8   -3.10    6.15
  -6 -10  -8  277.72   21.52
  -6 -10  -8  273.29   26.00
   6 -10   8  307.65   21.53
   6  10   8  269.24   22.53
  -6  10  -8  257.58   25.03
  -7 -10  -8   -2.92    7.62
   7 -10   8   -1.13    5.67
  -7  10  -8   -9.29    7.00
   7  10   8    0.90    9.33
  -8 -11   8   66.50   18.98
   8  11  -8   91.19   31.84
  -8  11   8   66.72   16.84
   7 -11  -8  -14.12    5.22
  -7 -11   8   10.43   13.04
  -7  11   8   -1.21    6.05
   7  11  -8    1.76    6.81
  -6 -11   8   19.62   12.24
   6  11  -8    7.09    8.15
  -6  11   8    6.27    6.10
  -5 -11   8    5.49   10.23
  -5 -11   8   15.31    8.40
  -5  11   8   14.42    6.63
   5  11  -8   12.91    8.43
  -4 -11   8  132.60   16.90
   4  11  -8  130.78   18.24
  -4  11   8  121.31   10.82
  -4  11   8  116.47    8.84
   3  11  -8    7.07    6.97
  -3  11   8    6.59    2.53
  -2 -11   8   16.31    6.51
   2  11  -8   11.59    7.46
  -1 -11   8    0.08    5.93
  -1 -11   8   25.36    8.48
   1 -11  -8    0.82    5.60
  -1 -11   8   -0.10    5.26
   1  11  -8   15.04   10.17
  -1  11   8   10.74    2.24
   0 -11  -8   84.70   14.24
   0 -11   8  108.16   13.06
   0 -11   8  107.96   14.12
   0 -11   8  120.65   12.56
   0  11   8  110.72    7.16
   0  11   8  113.55    7.08
   0  11  -8   94.96   17.67
   0  11  -8  129.52   19.38
   1 -11   8    2.24    5.40
  -1 -11  -8    2.89    6.55
   1 -11   8    1.93    5.17
   1  11   8   -3.11    2.75
  -1  11  -8    2.21    8.19
   1  11   8    2.71    3.51
  -2 -11  -8    1.73    3.69
   2 -11   8    3.53    5.52
   2 -11   8   13.10    6.59
  -2 -11  -8    5.21    6.74
   2  11   8   11.63    4.57
  -2  11  -8    0.80    6.36
   2  11   8    4.96    4.72
  -3 -11  -8   28.50    9.05
  -3 -11  -8   20.89    7.37
   3 -11   8   17.24    7.32
   3 -11   8   29.39    7.73
   3  11   8   22.31    6.37
  -3  11  -8    8.13    7.72
   3  11   8   11.31    6.34
  -4 -11  -8   74.05   11.01
  -4 -11  -8   76.03   13.60
   4 -11   8   67.45   15.51
  -4  11  -8   62.87   13.35
   4  11   8   46.67   10.47
   4  11   8   60.95   10.68
  -5 -11  -8    2.29    8.18
  -5 -11  -8   -8.35    4.74
   5 -11   8    2.29    5.82
  -5 -11  -8    5.76    6.90
   5  11   8   -6.61    7.94
   5  11   8    8.47    6.34
  -5  11  -8    7.25    7.66
   6 -11   8    0.46    6.08
  -6 -11  -8   10.69    7.83
  -6 -11  -8    1.09    9.31
  -6 -11  -8   -2.57    7.60
  -6  11  -8    0.96    9.03
   6  11   8    4.21    5.76
  -7 -11  -8    6.22    8.61
  -7 -11  -8   -6.95    9.50
   7 -11   8   13.72    7.66
   7  11   8   -6.47    7.05
  -7  11  -8   14.14   12.08
  -7 -12   8    4.30   10.13
  -7  12   8   -8.78    5.23
   7  12  -8   12.12    9.48
  -6 -12   8   40.29   12.11
  -6 -12   8   44.12   15.22
   6  12  -8   48.08   14.92
  -6  12   8   42.68   10.05
  -5 -12   8   41.97   14.69
  -5 -12   8   55.92   12.40
  -5  12   8   30.59    7.95
   5  12  -8   35.50   11.27
  -4 -12   8    0.94    6.50
  -4  12   8    9.13    4.16
   4  12  -8    4.85    7.77
  -4  12   8   13.04    4.08
  -3 -12   8    4.09    5.79
  -3  12   8    9.90    2.79
   3  12  -8   16.10    8.15
  -2 -12   8   75.99   11.82
   2  12  -8   94.71   14.88
   1 -12  -8   42.78   10.77
  -1 -12   8   54.71   11.00
  -1 -12   8   56.92    9.95
  -1 -12   8   60.13   10.19
   1  12  -8   70.43   15.68
  -1  12   8   59.78    3.58
   1  12  -8   64.70   12.34
   0 -12   8   -7.92    5.39
   0 -12   8    7.03    5.61
   0 -12  -8    7.75    8.00
   0 -12   8    3.49    5.14
   0  12  -8    7.55    6.82
   0  12  -8    3.65    9.25
   0  12   8    6.97    2.63
   0  12   8    4.60    2.76
   1 -12   8    9.81    6.37
   1 -12   8    3.73    5.15
   1  12   8    5.50    3.84
  -1  12  -8   13.31    8.10
   1  12   8    7.62    4.08
   2 -12   8   95.44   14.22
   2 -12   8   71.82   10.27
  -2 -12  -8   62.04    9.66
   2  12   8   60.23    8.85
  -2  12  -8   80.19   14.25
   2  12   8   94.40    9.75
   3 -12   8   35.41    9.39
  -3 -12  -8   41.09   10.48
   3 -12   8   24.64    7.57
  -3  12  -8   17.27    9.96
   3  12   8   33.66    7.86
   3  12   8   41.95    8.34
  -4 -12  -8   -5.78    6.88
  -4 -12  -8    0.12    5.97
   4  12   8   -6.10    6.63
  -4  12  -8   -1.71    6.52
   4  12   8   -0.71    5.59
   5 -12   8    3.48    5.50
  -5 -12  -8    0.76    3.92
  -5 -12  -8    5.48    8.88
  -5 -12  -8   14.09    7.61
   5  12   8   -0.06    9.32
   5  12   8   12.42    7.76
  -5  12  -8   -4.59    6.80
  -6 -12  -8   57.43   13.59
   6 -12   8   43.33   10.19
  -6 -12  -8   24.11   12.18
  -6  12  -8   35.65   12.98
   6  12   8   34.01   10.39
  -7 -12  -8   15.56    9.72
   7 -12   8   13.29    8.25
  -7 -12  -8   -0.82   11.19
   7  12   8   -4.40    7.21
  -7 -13   8   15.92    9.16
  -7 -13   8   -0.13   14.09
   7  13  -8    5.79    9.14
  -7  13   8    7.92    7.80
  -6 -13   8   -9.71    6.18
  -6 -13   8  -18.88    9.09
   6  13  -8   -4.00    7.86
  -6  13   8   -2.84    6.18
  -5 -13   8   33.48   10.22
   5  13  -8   14.05    9.60
  -5  13   8   11.37    5.95
  -4 -13   8  188.66   18.06
   4  13  -8  180.52   19.72
  -4  13   8  192.10   10.72
  -4  13   8  171.09    9.53
  -3 -13   8   40.17    9.76
  -3  13   8   12.78    3.04
   3  13  -8    2.07    6.79
  -2 -13   8   12.35    7.23
   2  13  -8    7.98    7.26
  -1 -13   8   -3.66    5.32
   1 -13  -8    3.07    7.04
  -1 -13   8   -2.80    4.91
  -1 -13   8    5.60    5.19
   1  13  -8    1.71    5.28
  -1  13   8    3.25    1.48
   0 -13  -8  273.48   23.04
   0 -13   8  265.52   17.40
   0 -13   8  312.72   19.08
   0 -13   8  294.77   21.38
   0  13  -8  274.45   27.00
   0  13   8  270.51   12.14
   0  13  -8  288.31   22.45
   1 -13   8   -3.18    5.38
   1 -13   8   -0.72    4.59
  -1 -13  -8    4.68    6.12
   1  13   8    5.05    3.46
  -1  13  -8    2.41    8.15
   1  13   8    0.40    3.07
  -1  13  -8   -4.13    5.69
   2 -13   8   -1.70    6.18
  -2 -13  -8    1.22    6.65
   2 -13   8   -2.56    4.13
  -2  13  -8   18.50    8.50
   2  13   8    9.92    5.16
   2  13   8    6.67    4.91
  -3 -13  -8    2.80    4.85
  -3 -13  -8    4.56    7.41
   3 -13   8    7.76    6.67
   3 -13   8    6.35    5.13
   3  13   8    6.29    5.54
  -3  13  -8   11.98    9.00
   3  13   8   10.04    6.85
  -4 -13  -8  199.47   19.41
  -4 -13  -8  204.98   20.04
   4  13   8  164.20   17.47
  -4  13  -8  247.05   22.27
   4  13   8  219.07   17.44
  -5 -13  -8  -16.60    7.58
  -5 -13  -8    6.43    7.79
   5 -13   8   -5.18    4.75
   5  13   8    7.18    6.99
  -5  13  -8   -0.63    8.13
   5  13   8  -22.03    8.86
   6 -13   8   26.51    8.15
  -6 -13  -8   31.32   12.71
  -6 -13  -8   33.66   11.51
   6  13   8   16.16    9.37
  -6  13  -8   31.09   12.12
  -6 -14   8   36.04   11.82
  -6  14   8   35.78    8.83
   6  14  -8   34.85   13.32
  -5 -14   8   44.66   11.85
   5  14  -8   39.00   12.78
  -5  14   8   47.82    7.68
  -4 -14   8   -1.29    6.36
  -4  14   8   -3.58    3.34
   4  14  -8    0.92    6.88
  -3 -14   8   24.60    8.45
   3  14  -8   53.57   12.83
  -3  14   8   38.82    3.92
  -2 -14   8   42.20   10.17
  -2 -14   8   28.16   10.52
   2  14  -8   35.65   10.91
   1 -14  -8   32.06   12.29
  -1 -14   8   20.76    8.22
  -1 -14   8   29.65    7.82
  -1 -14   8   57.73   12.95
  -1  14   8   38.29    3.10
   1  14  -8   53.31   12.17
   0 -14   8    1.31    6.10
   0 -14   8    4.57    4.90
   0 -14  -8    2.74    8.29
   0  14  -8    1.64    7.22
   0  14   8    3.50    2.72
   0  14   8    5.23    1.63
   0  14  -8   10.75   11.59
   0  14   8    7.81    1.70
   1 -14   8   75.02   10.34
  -1 -14  -8   51.91   12.85
   1 -14   8   81.44   14.28
   1 -14   8   55.84   10.92
   1  14   8   55.28    7.84
   1  14   8   63.32    7.76
  -1  14  -8  114.07   16.44
  -1  14  -8   38.07   14.99
   2 -14   8   14.01    7.13
  -2 -14  -8   17.94    8.99
   2 -14   8   26.22    6.84
   2 -14   8   10.55    8.00
  -2  14  -8   27.22   10.17
   2  14   8   13.02    5.75
   2  14   8   19.25    5.97
   3 -14   8   24.71    9.08
   3 -14   8   17.45    6.19
  -3 -14  -8   14.34    8.59
  -3 -14  -8   12.10    5.47
   3  14   8   -5.74    5.48
   3  14   8   12.97    5.41
  -3  14  -8   10.44    8.61
  -4 -14  -8    1.31    9.21
   4 -14   8   16.17    6.13
  -4 -14  -8   24.39    9.91
  -4  14  -8   18.22   10.26
   4  14   8    2.12    8.36
   4  14   8   12.32    6.99
   5 -14   8   76.09   10.91
  -5 -14  -8   49.55   13.48
  -5 -14  -8   41.90   12.36
   5  14   8   44.73   10.99
   5  14   8   42.48   21.46
  -5  14  -8   43.52   13.30
  -6 -14  -8   -2.76    9.42
  -6 -14  -8   11.54   13.01
   6 -14   8   10.30    6.63
   6  14   8    0.33    8.61
  -6  14  -8    6.80   10.33
  -6 -15   8    3.12    8.08
  -6  15   8   -0.86    5.48
  -5 -15   8   18.57    9.29
  -5  15   8   14.87    3.65
   5  15  -8   15.32    7.71
  -4 -15   8   41.37   10.26
  -4  15   8   20.18    4.90
   4  15  -8   25.50    9.45
  -3 -15   8   56.09   10.82
  -3 -15   8   53.80   13.40
  -3  15   8   51.80    3.96
   3  15  -8   48.13   12.71
  -2 -15   8    6.35    5.50
  -2 -15   8    1.51    7.42
   2  15  -8   -1.19    6.47
  -1 -15   8   43.41   11.74
  -1 -15   8   35.75    7.96
   1 -15  -8   38.04   12.16
  -1 -15   8   43.50    9.63
   1  15  -8   49.90   12.27
   0 -15   8   28.36    9.58
   0 -15  -8   16.08   10.22
   0 -15   8   28.34    7.14
   0 -15   8   35.13   10.95
   0  15   8   32.17    4.69
   0  15  -8   49.61   11.74
   1 -15   8   40.88    7.94
  -1 -15  -8   47.76   12.67
   1 -15   8   39.56    8.90
   1 -15   8   50.34   12.74
   1  15   8   66.59    7.05
  -1  15  -8   47.15   11.93
   1  15   8   47.60    7.11
  -2 -15  -8  -17.00    5.22
   2 -15   8   -1.92    6.10
   2 -15   8   -0.28    4.52
   2 -15   8   -5.27    6.17
  -2  15  -8    7.46    8.05
   2  15   8    0.41    3.93
   2  15   8   -7.47    4.20
   3 -15   8   57.21    8.79
   3 -15   8   69.84   13.82
   3 -15   8   50.89    9.98
  -3 -15  -8   56.05   13.47
   3  15   8   84.47   11.68
   3  15   8   54.46   10.26
  -3  15  -8   69.55   15.05
   4 -15   8   33.91    7.38
  -4 -15  -8   40.45   12.69
   4  15   8   24.24   10.44
  -4  15  -8   46.90   12.97
   4  15   8   38.61   10.86
  -5 -15  -8   18.09   10.44
  -5 -15  -8  -14.29    9.78
   5  15   8    9.77    7.73
  -5  15  -8   -2.66    7.36
  -5 -16   8    5.09    7.70
   5  16  -8    7.03    8.57
  -4 -16   8   -6.67    6.31
   4  16  -8    8.71    8.11
  -3 -16   8    7.21    9.16
  -3 -16   8    6.99    5.66
   3  16  -8   16.00   10.26
  -3  16   8    7.54    2.14
  -2 -16   8   65.44   12.59
  -2 -16   8   45.79   12.51
  -2 -16   8   93.00   12.49
   2  16  -8   72.00   14.85
   1 -16  -8    0.71    8.58
  -1 -16   8    4.57    4.80
  -1 -16   8   11.25    8.11
   1  16  -8   -2.94    5.91
   0 -16   8    3.08    4.59
   0 -16   8   -3.55    6.59
   0 -16   8    6.63    7.00
   0 -16  -8   -4.27    5.62
   0  16  -8    3.85    7.67
   0  16   8    1.48    3.06
  -1 -16  -8   -6.01    6.26
   1 -16   8  -11.19    5.26
   1 -16   8   -7.13    5.95
   1 -16   8    9.17    4.64
   1  16   8    0.67    3.26
   1  16   8   -2.04    3.93
  -1  16  -8    7.56    6.95
   1  16   8    1.72    3.11
  -2 -16  -8   44.30   13.35
   2 -16   8   51.25    9.09
   2 -16   8   68.38    8.81
   2 -16   8   95.29   17.30
  -2  16  -8   84.25   14.66
   2  16   8   39.48    7.79
   2  16   8   78.87   10.26
  -3 -16  -8   -4.20    8.34
   3 -16   8   -1.17    4.32
   3 -16   8   11.96    9.16
  -3  16  -8   12.69    8.83
   3  16   8  -16.52    5.66
   3  16   8    1.59    5.29
   4 -16   8   -4.59    7.77
   4 -16   8   11.26    5.07
  -4 -16  -8    3.77    9.43
  -4  16  -8   11.80    8.33
   4  16   8   13.62    7.47
  -5 -16  -8   -0.13    8.57
   5 -16   8    3.08    4.91
   5  16   8   10.17    7.33
  -5  16  -8   11.02    9.05
  -4 -17   8   14.79   11.68
  -4 -17   8  -13.09    5.37
   4  17  -8   -3.27    7.36
  -3 -17   8   67.24   15.70
   3  17  -8   40.50   12.25
  -3  17   8   60.73    3.97
  -2 -17   8   -4.82    9.36
  -2 -17   8   11.73    5.90
  -2 -17   8   -1.14    7.83
   2  17  -8   14.29    9.42
  -1 -17   8  138.62   11.84
  -1 -17   8  110.25   17.86
  -1 -17   8  102.77   12.75
   1 -17  -8  145.22   22.32
   1  17  -8  111.18   17.69
   0 -17   8   13.72    8.20
   0 -17   8  -16.32    5.16
   0 -17   8    1.86    4.63
   0 -17  -8    8.90    8.06
   0  17  -8    3.55    7.20
   0  17   8    2.92    3.20
   1 -17   8   35.25    7.60
  -1 -17  -8   46.56   14.47
   1 -17   8   37.52   11.82
   1 -17   8   48.22    7.05
  -1  17  -8   66.62   14.19
   1  17   8   30.13    6.51
   1  17   8   53.22    5.53
   2 -17   8   -7.96    4.59
   2 -17   8  -10.70    3.72
   2 -17   8    1.82    8.23
  -2 -17  -8   -1.99    8.25
   2  17   8   -5.86    4.67
   2  17   8   -3.35    4.57
  -2  17  -8    2.75    7.37
   3 -17   8  100.43   17.59
  -3 -17  -8   98.58   18.60
  -3  17  -8   98.26   17.79
   3  17   8  103.77   13.24
   4 -17   8   -0.54    3.90
  -4 -17  -8   13.24   10.65
   4  17   8   -3.79    6.69
  -4  17  -8   10.86    8.99
  -3 -18   8   50.68    9.63
   3  18  -8   57.04   14.67
  -2 -18   8   16.94   12.11
   2  18  -8    9.41    8.93
  -1 -18   8   45.81    7.40
  -1 -18   8   52.72   14.47
   1 -18  -8   42.41   13.31
  -1 -18   8   54.50    9.83
   1  18  -8   64.35   14.65
   0 -18   8   -4.67    9.34
   0 -18   8    9.52    8.56
   0 -18  -8    8.14    8.84
   0  18   8    7.64    4.17
   0  18  -8   14.79    8.76
  -1 -18  -8   34.39   13.83
   1 -18   8   69.72   16.27
   1 -18   8   60.43    6.16
  -1  18  -8   50.27   13.12
   1  18   8   49.61    5.41
   1  18   8   59.35    5.14
   1  18   8   44.75    7.55
  -2 -18  -8   18.47   10.72
   2 -18   8    0.22    9.25
   2  18   8    5.89    5.56
  -2  18  -8   -4.36    6.80
   2  18   8   13.68    5.00
  -3 -18  -8   34.36   13.85
   3 -18   8   19.45   10.79
  -3  18  -8   29.59   10.91
   3  18   8   24.55    8.67
  -2 -19   8  -10.40    6.93
  -2 -19   8   12.07    5.30
   2  19  -8    6.67   10.34
   1 -19  -8    9.13   13.69
  -1 -19   8  -10.16    6.76
  -1 -19   8   11.58    4.26
   1  19  -8   -8.92    8.10
   0 -19   8  -16.96    6.34
   0 -19  -8    9.47   10.55
   0  19  -8   -1.77    8.74
  -1 -19  -8  -26.98    8.39
   1 -19   8   -3.52    8.52
   1  19   8   -9.64    4.50
  -1  19  -8   -0.17    7.91
  -9   0   9   -1.84    8.97
   9   0  -9    5.01    8.37
   8   0  -9   -4.00    6.95
  -8   0   9    2.17   10.06
   7   0  -9   19.75    8.28
  -7   0   9   26.42   11.63
   6   0  -9   -0.35    5.31
  -6   0   9   -3.08    5.73
   5   0  -9    3.68    6.30
  -5   0   9   -4.83    7.80
  -4   0   9    2.32    7.26
   4   0  -9    4.67    5.44
   3   0  -9   -0.60    5.03
  -3   0   9   -1.46    6.18
  -3   0   9   -4.37    3.34
   3   0  -9   -3.45    3.87
  -2   0   9   -6.18    2.94
   2   0  -9   -0.32    3.73
   2   0  -9   -3.97    5.09
   1   0  -9    1.52    3.99
  -1   0   9   -3.09    3.20
  -1   0   9   -2.59    3.13
   1   0  -9    3.08    5.53
   0   0   9   -0.18    3.85
   0   0   9   -1.11    3.55
   0   0  -9   -3.79    3.42
   1   0   9    1.00    1.38
   1   0   9   -3.81    3.44
   1   0   9    0.46    3.79
  -1   0  -9   -1.52    3.70
  -1   0  -9    0.78    3.43
   2   0   9   -0.89    3.28
   2   0   9   -6.51    3.93
  -2   0  -9    3.07    4.06
  -2   0  -9    8.76    5.41
   3   0   9   -4.62    5.12
  -3   0  -9   -7.24    3.56
   3   0   9    2.59    5.49
  -3   0  -9    6.01    6.32
  -4   0  -9    4.14    6.60
   4   0   9   -1.42    5.23
   5   0   9    1.24    5.88
  -5   0  -9    7.41    7.13
  -6   0  -9   -2.62    6.22
   6   0   9   -5.86    5.61
  -7   0  -9  -11.22    6.38
   7   0   9   -7.99    5.20
  -8   0  -9    7.97   10.21
   8   0   9   -4.55    6.40
   9   0   9  -11.67    7.18
  -9   0  -9    6.30   12.56
   9  -1  -9   59.27   14.22
  -9  -1   9   65.96   19.83
  -9   1   9   13.41   12.73
   9   1  -9   47.80   13.81
   8  -1  -9   33.52   10.42
  -8  -1   9   11.29   11.27
  -8   1   9   14.25   12.36
   8   1  -9   21.02    9.65
   7  -1  -9  225.58   19.83
  -7  -1   9  176.11   26.47
  -7   1   9  204.27   27.21
   7   1  -9  218.10   20.14
   6  -1  -9   35.57    8.92
  -6  -1   9   23.66   11.12
   6   1  -9   34.47    9.72
  -6   1   9   30.29   11.58
   5  -1  -9   24.13    8.05
  -5  -1   9   29.46   11.91
  -5   1   9   34.90   11.93
   5   1  -9   47.46   10.41
   4  -1  -9   17.67    6.66
  -4  -1   9    3.51    7.46
   4   1  -9   18.54    7.16
  -4   1   9   15.06    5.62
  -4   1   9    6.80    7.68
   3  -1  -9  408.48   20.41
  -3  -1   9  396.73   26.70
  -3  -1   9  397.75   20.12
   3  -1  -9  383.92   21.94
   3   1  -9  410.41   24.49
   3   1  -9  402.95   21.31
  -3   1   9  397.62   25.39
  -2  -1   9   11.06    5.42
   2  -1  -9   14.35    5.29
   2  -1  -9   33.86    8.18
   2   1  -9   16.64    6.21
  -2   1   9   25.55    6.41
   1  -1  -9   12.21    6.38
  -1  -1   9   22.60    6.11
   1  -1  -9   21.42    5.91
  -1  -1   9   31.39    6.18
   1   1  -9   20.69    7.95
   1   1  -9   27.00    6.76
  -1   1   9   21.81    5.47
  -1   1   9   29.03    6.43
   0  -1  -9    3.92    4.15
   0  -1   9    5.83    4.56
   0  -1   9   -3.49    4.01
   0   1  -9    1.52    3.65
   0   1   9   -1.10    3.48
   0   1  -9    4.80    5.07
   0   1   9   -0.30    4.06
   0   1   9   10.36    3.43
  -1  -1  -9  695.70   26.60
  -1  -1  -9  676.41   27.89
   1  -1   9  694.23   28.76
   1  -1   9  670.52   28.56
   1  -1   9  667.45   19.08
   1   1   9  704.96   27.99
   1   1   9  677.59   21.20
   1   1   9  728.50   28.50
  -1   1  -9  695.61   27.77
  -1   1  -9  678.74   28.96
   2  -1   9    3.70    4.62
  -2  -1  -9    0.67    4.52
  -2  -1  -9    5.18    4.38
   2  -1   9    0.67    4.23
   2   1   9    5.80    4.31
  -2   1  -9    2.60    3.95
  -2   1  -9    3.68    5.79
   2   1   9   -0.62    4.56
  -3  -1  -9   14.54    5.69
   3  -1   9   25.01    7.54
   3  -1   9   27.48    7.69
  -3  -1  -9   21.58    7.82
  -3   1  -9   15.36    6.78
   3   1   9   22.99    7.25
  -3   1  -9   20.17    6.16
   4  -1   9   20.42    8.01
  -4  -1  -9   14.31    2.82
  -4  -1  -9   32.83    9.53
  -4   1  -9   19.63    8.93
   4   1   9   21.43    7.73
   4   1   9   24.72    9.78
  -5  -1  -9  414.53   27.45
   5  -1   9  389.35   24.56
  -5   1  -9  384.60   26.93
  -5   1  -9  399.01   15.04
   5   1   9  440.29   26.33
   6  -1   9    2.10    5.72
  -6  -1  -9    0.20    6.84
  -6   1  -9   -6.28    5.26
   6   1   9   -3.01    5.22
  -6   1  -9   -1.21    3.29
  -7  -1  -9   13.11    9.74
   7  -1   9   12.85    8.13
   7   1   9  -10.17    5.56
  -7   1  -9   19.23    9.49
  -7   1  -9    6.00    5.05
  -8  -1  -9   -6.82    9.33
   8  -1   9   10.88    9.39
  -8   1  -9    4.42    8.33
   8   1   9   13.74    8.13
  -8   1  -9    8.60   15.10
  -9  -1  -9  161.39   25.72
   9  -1   9  114.25   19.75
  -9   1  -9  160.76   26.27
   9   1   9  149.56   22.13
  -9  -2   9   72.93   20.29
   9  -2  -9  106.86   17.15
   9   2  -9  111.49   20.27
  -9   2   9   75.91   20.09
   8  -2  -9    5.81    6.43
  -8  -2   9   14.14   10.96
   8   2  -9   -2.55    6.20
  -8   2   9   -7.90    7.23
  -7  -2   9   79.85   18.84
   7  -2  -9   67.89   12.64
   7   2  -9   66.44   13.95
  -7   2   9   86.16   17.39
  -6  -2   9   29.91   12.63
   6  -2  -9   15.43    7.63
  -6   2   9   34.82   12.34
   6   2  -9   35.55    9.94
  -5  -2   9  222.91   23.81
   5  -2  -9  243.07   17.48
   5   2  -9  257.83   19.99
  -5   2   9  261.61   23.49
   4  -2  -9   13.24    5.81
  -4  -2   9    6.11    9.31
   4  -2  -9    5.70    8.85
  -4   2   9   18.07    9.02
  -4   2   9   15.09    5.61
   4   2  -9   12.19    6.99
   3  -2  -9   30.59    7.79
  -3  -2   9   42.04    7.96
  -3  -2   9   49.73   12.90
   3  -2  -9   45.38    7.59
   3   2  -9   40.83    9.89
  -3   2   9   34.00    9.76
   3   2  -9   37.88    8.54
   2  -2  -9   80.97    8.23
  -2  -2   9   97.98   11.92
   2  -2  -9  105.83   12.65
  -2  -2   9   70.30    9.43
   2   2  -9   83.60   13.41
   2   2  -9   75.88   10.75
  -2   2   9   81.78    8.98
   1  -2  -9  389.44   22.20
  -1  -2   9  463.60   22.32
   1  -2  -9  490.26   20.15
  -1  -2   9  442.11   21.64
  -1   2   9  435.44   19.39
  -1   2   9  428.02   20.03
   1   2  -9  366.53   25.08
   1   2  -9  486.05   22.71
   0  -2   9   32.26    7.59
   0  -2   9   24.74    6.00
   0  -2  -9   19.27    5.21
   0   2  -9   28.84    6.85
   0   2  -9   26.56    6.01
   0   2   9   18.08    5.53
   0   2   9   26.23    6.01
   0   2   9   30.54    5.29
   1  -2   9   11.70    5.88
  -1  -2  -9   17.74    4.75
  -1  -2  -9   14.67    5.40
   1  -2   9   14.93    5.13
   1   2   9    5.73    2.78
  -1   2  -9    7.95    4.44
   1   2   9   12.00    4.94
  -1   2  -9    8.85    5.73
   1   2   9   10.91    4.90
  -2  -2  -9   50.78    7.67
   2  -2   9   51.55    9.17
  -2  -2  -9   56.60    9.21
  -2   2  -9   53.68    9.97
  -2   2  -9   53.01    8.50
   2   2   9   48.01    8.34
   2   2   9   44.67    8.26
  -3  -2  -9  395.61   22.68
   3  -2   9  372.12   21.65
  -3  -2  -9  379.93   13.51
   3  -2   9  389.57   22.12
  -3  -2  -9  387.16   22.53
  -3   2  -9  338.42   19.66
   3   2   9  353.81   21.08
   3   2   9  375.62   21.05
  -3   2  -9  391.92   23.09
   4  -2   9   35.57    9.33
  -4  -2  -9   27.44    7.51
  -4  -2  -9   48.07   11.33
  -4  -2  -9   37.75    4.82
   4   2   9   34.85    9.20
   4   2   9   51.18   10.14
  -4   2  -9   37.75   10.36
  -5  -2  -9   21.60    8.96
   5  -2   9   17.83    8.45
  -5   2  -9   13.97    2.95
   5   2   9   16.69    7.37
  -5   2  -9   21.21    9.55
   6  -2   9    9.79    6.68
  -6  -2  -9    0.60    6.90
   6   2   9    2.50    6.95
  -6   2  -9   -2.36    7.21
  -6   2  -9   -3.68    2.84
  -7  -2  -9  121.18   20.03
   7  -2   9  152.83   19.96
   7   2   9  156.40   20.00
  -7   2  -9  158.54   11.87
  -7   2  -9  151.83   22.05
   8  -2   9   18.81    9.86
  -8  -2  -9   25.95   12.05
  -8   2  -9   20.50   12.96
   8   2   9   13.22    8.62
   9  -3  -9   20.63    9.38
  -9  -3   9   13.45   10.99
   9   3  -9   18.20    9.49
  -9   3   9    7.90   12.66
   8  -3  -9    1.98    6.61
  -8  -3   9    1.69    9.26
  -8   3   9   24.06   12.88
   8   3  -9    0.74    7.55
  -7  -3   9    5.17    8.68
   7  -3  -9   10.86    7.09
   7   3  -9   14.54    8.72
  -7   3   9    2.75    7.52
   6  -3  -9   74.82   11.96
  -6  -3   9   85.32   18.89
   6   3  -9   99.67   15.67
  -6   3   9   90.14   16.33
   5  -3  -9   15.38    6.51
  -5  -3   9   36.63   13.47
  -5   3   9   28.70   10.27
   5   3  -9   16.66    7.96
   4  -3  -9    5.64    4.82
  -4  -3   9   21.45   11.22
   4  -3  -9    2.07    5.30
   4   3  -9    7.57    6.39
  -4   3   9   16.87    8.56
  -4   3   9    6.86    4.83
   3  -3  -9   54.21    8.06
   3  -3  -9   44.76    9.61
  -3  -3   9   45.13    8.52
  -3  -3   9   28.57   10.59
   3   3  -9   59.11   10.23
   3   3  -9   45.11   10.48
  -3   3   9   48.43   11.16
  -2  -3   9  147.83   12.10
   2  -3  -9  115.08   10.68
   2  -3  -9  135.84    9.98
  -2  -3   9  129.19   12.09
   2   3  -9  141.54   18.30
  -2   3   9  146.78   10.85
   2   3  -9  126.39   12.56
  -1  -3   9    2.73    4.77
  -1  -3   9   10.67    5.33
   1  -3  -9    7.44    4.90
   1  -3  -9    6.23    3.73
  -1   3   9    4.18    4.19
  -1   3   9    3.44    3.79
  -1   3   9    1.93    3.25
   1   3  -9    5.89    5.40
   1   3  -9   -7.70    4.51
   0  -3   9   43.60    8.00
   0  -3   9   39.88    8.31
   0  -3  -9   33.16    5.98
   0   3  -9   32.64    6.91
   0   3  -9   33.03    7.58
   0   3   9   47.24    6.57
   0   3   9   48.38    7.58
   0   3   9   41.63    6.86
   1  -3   9   23.42    3.11
  -1  -3  -9   26.67    4.98
   1  -3   9   23.65    6.35
   1  -3   9   30.61    7.11
   1   3   9   41.11    7.21
   1   3   9   25.32    5.91
   1   3   9   25.33    4.67
  -1   3  -9   25.36    8.13
  -1   3  -9   26.87    7.43
   2  -3   9  139.67   12.64
  -2  -3  -9  134.91   10.53
   2  -3   9  128.92   12.45
  -2  -3  -9  123.68   11.93
  -2  -3  -9  140.28    8.35
   2   3   9  144.12   11.85
  -2   3  -9  132.50   11.80
   2   3   9  128.44   11.68
  -2   3  -9  155.31   14.40
   3  -3   9   -5.09    5.03
  -3  -3  -9   -0.29    5.88
  -3  -3  -9   -2.48    3.46
  -3  -3  -9    2.82    2.72
  -3   3  -9   10.41    7.24
   3   3   9   -2.96    4.30
   3   3   9    2.21    5.15
  -4  -3  -9   40.33   10.90
  -4  -3  -9   39.29    5.55
  -4  -3  -9   23.08    7.30
   4  -3   9   27.65    8.56
   4   3   9   31.59    9.19
  -4   3  -9   28.49    8.96
   4   3   9   23.28    8.25
  -5  -3  -9   17.07    8.70
   5  -3   9   16.45    7.43
   5   3   9   12.21    8.29
  -5   3  -9    6.33    7.86
  -5   3  -9    7.48    2.99
  -6  -3  -9   42.56   14.24
   6  -3   9   52.87   12.16
   6   3   9   62.48   12.90
  -6   3  -9   53.35    6.44
  -6   3  -9   38.86   11.83
   7  -3   9   -1.13    6.48
  -7  -3  -9   22.32   10.77
  -7   3  -9    2.26    8.13
  -7   3  -9    6.77    4.85
   7   3   9    3.44    6.96
  -8  -3  -9   59.06   15.94
   8  -3   9   34.33   11.35
   8   3   9   32.56   11.61
  -8   3  -9   62.67   15.99
   9  -4  -9   68.30   13.01
  -9  -4   9   96.11   23.86
  -9   4   9   61.46   18.65
   9   4  -9   87.50   17.66
  -8  -4   9   22.47   12.21
   8  -4  -9   22.29    8.75
  -8   4   9   19.48   12.43
   8   4  -9   17.48    9.17
  -7  -4   9   41.90   15.21
   7  -4  -9   58.12   11.38
  -7   4   9   57.05   14.72
   7   4  -9   68.58   14.86
  -6  -4   9    3.05    8.62
   6  -4  -9   -3.21    4.68
  -6   4   9    2.73    7.74
   6   4  -9   -4.38    6.11
   5  -4  -9  240.45   16.09
  -5  -4   9  198.95   26.37
  -5   4   9  216.78   20.61
   5   4  -9  224.15   19.15
  -4  -4   9   14.43    9.89
   4  -4  -9   14.98    5.48
   4  -4  -9   11.73    5.87
  -4   4   9   14.35    7.38
  -4   4   9   14.40    4.90
   4   4  -9    4.44    6.85
  -3  -4   9   43.65   13.14
   3  -4  -9   48.11    7.08
   3  -4  -9   47.71    7.95
  -3   4   9   56.67   11.27
   3   4  -9   53.13    9.65
   3   4  -9   35.86   10.43
  -2  -4   9    3.62    7.13
  -2  -4   9    6.67    5.46
   2  -4  -9    6.20    3.34
   2  -4  -9    8.07    4.37
  -2   4   9   12.17    5.61
   2   4  -9   -1.93    4.30
   2   4  -9    6.23    5.88
  -2   4   9    8.18    3.82
   1  -4  -9  453.47   17.84
  -1  -4   9  453.97   22.77
  -1  -4   9  427.15   21.96
   1  -4  -9  407.96   20.07
  -1   4   9  397.82   18.60
   1   4  -9  429.67   22.82
  -1   4   9  450.74   21.23
  -1   4   9  429.80   18.11
   0  -4   9   51.63    9.37
   0  -4   9   46.13    8.28
   0  -4  -9   53.35    6.84
   0   4   9   39.57    6.59
   0   4   9   54.30    7.48
   0   4   9   55.38    7.51
   0   4  -9   47.72    9.35
  -1  -4  -9   60.97    7.77
   1  -4   9   61.10    5.29
   1  -4   9   45.31    9.11
   1  -4   9   49.10    9.06
  -1  -4  -9   58.85    8.06
  -1  -4  -9   49.71    6.03
  -1   4  -9   54.34    9.48
  -1   4  -9   42.20    8.07
   1   4   9   66.65    7.90
   1   4   9   59.96    8.15
   1   4   9   58.42    8.05
   2  -4   9    5.95    5.31
   2  -4   9   -0.57    4.86
  -2  -4  -9    1.74    3.29
  -2  -4  -9   -2.06    4.24
  -2  -4  -9    4.32    3.42
   2   4   9    5.69    4.82
  -2   4  -9    8.59    5.74
  -2   4  -9    6.04    5.62
   2   4   9    7.17    4.98
  -3  -4  -9  248.31   12.81
  -3  -4  -9  257.03   15.24
  -3  -4  -9  261.54   18.71
   3  -4   9  281.08   18.72
   3   4   9  217.96   16.47
   3   4   9  250.93   16.67
  -3   4  -9  236.92   19.14
   4  -4   9   17.50    8.11
  -4  -4  -9   25.16    5.50
  -4  -4  -9   34.38   10.07
  -4  -4  -9   19.80    6.82
   4   4   9   38.13    9.06
   4   4   9   28.33    8.66
  -4   4  -9   41.54   11.39
  -5  -4  -9    2.71    3.59
   5  -4   9    8.44    7.10
  -5  -4  -9   20.23    8.86
  -5   4  -9    9.10    6.69
   5   4   9    2.84    5.78
  -6  -4  -9   -1.86    6.78
   6  -4   9    5.59    5.84
   6   4   9    6.07    7.13
  -6   4  -9    5.91    8.42
  -6   4  -9   -2.26    2.99
  -7  -4  -9  199.19   25.59
   7  -4   9  190.04   19.36
  -7   4  -9  171.47   23.97
   7   4   9  223.58   20.53
  -8  -4  -9    0.42   10.54
   8  -4   9  -10.11    5.11
   8   4   9    2.40    8.04
  -8   4  -9   -5.80    8.45
  -9  -5   9  -10.37    9.25
   9  -5  -9   -7.00    6.30
  -9   5   9  -11.14    9.42
   9   5  -9   -2.90    9.13
  -8  -5   9   14.11   11.56
   8  -5  -9   18.54    8.25
   8   5  -9   32.75   11.87
  -8   5   9   17.77   11.55
   7  -5  -9  103.43   13.44
  -7  -5   9   66.14   16.76
   7   5  -9   79.87   15.56
  -7   5   9  104.52   19.38
  -6  -5   9   98.16   20.51
   6  -5  -9  117.76   12.14
  -6   5   9  113.03   17.52
   6   5  -9  101.73   16.41
  -5  -5   9    1.87    8.15
   5  -5  -9    0.10    4.05
   5   5  -9    0.63    6.07
  -5   5   9    9.38    8.05
  -4  -5   9   34.25   11.99
   4  -5  -9   51.01    8.01
   4  -5  -9   46.79    7.40
  -4   5   9   39.10    7.06
  -4   5   9   38.97   10.00
   4   5  -9   45.02   10.61
   3  -5  -9  145.06   10.48
  -3  -5   9  115.81   19.28
  -3   5   9  124.03   13.86
  -3   5   9  149.93   18.92
   3   5  -9  177.13   15.65
   2  -5  -9   96.71    9.90
   2  -5  -9   91.61    7.88
  -2  -5   9  103.66   13.12
  -2  -5   9   97.52   12.15
  -2   5   9   93.62    8.22
  -2   5   9   96.24   12.87
   2   5  -9   96.83   16.23
   2   5  -9  107.95   13.59
  -1  -5   9    9.78    6.08
   1  -5  -9    5.30    4.05
   1  -5  -9   11.64    4.16
  -1  -5   9    4.72    4.97
  -1   5   9   18.62    5.72
   1   5  -9   37.15   11.31
  -1   5   9   15.17    4.36
   1   5  -9    5.63    5.77
   0  -5   9   23.54    6.91
   0  -5   9   20.65    6.65
   0  -5  -9   27.82    5.06
   0   5   9   29.92    5.72
   0   5   9   29.17    6.27
   0   5  -9   31.58    7.00
   0   5  -9   26.74    7.32
   0   5   9   32.44    5.97
   1  -5   9  142.96   13.05
  -1  -5  -9  151.18   11.09
   1  -5   9  155.25   13.43
  -1  -5  -9  144.37   12.48
   1   5   9  154.69   11.19
   1   5   9  144.04   10.65
   1   5   9  152.10   10.88
  -1   5  -9  157.88   13.14
  -1   5  -9  149.01   14.36
  -2  -5  -9   77.21   10.34
  -2  -5  -9   76.01    7.73
  -2  -5  -9   89.28    8.67
   2  -5   9   75.52   12.67
   2  -5   9   84.73    6.24
   2  -5   9   78.33   11.64
  -2   5  -9   92.85   13.54
   2   5   9   83.20   10.63
   2   5   9   86.13   10.33
   3  -5   9    2.90    6.48
  -3  -5  -9   -3.65    3.13
  -3  -5  -9   -7.93    4.79
  -3  -5  -9   -3.04    3.55
   3   5   9   -0.93    4.65
   3   5   9   -4.71    4.34
  -3   5  -9   -1.91    6.59
  -4  -5  -9   99.46   15.03
  -4  -5  -9   88.74   11.82
   4  -5   9   88.12   13.36
  -4  -5  -9   69.52    8.82
   4   5   9   92.21   13.68
   4   5   9   98.21   13.27
  -4   5  -9   87.80   14.55
  -5  -5  -9  146.19   11.47
   5  -5   9  108.21   15.06
  -5  -5  -9   97.72   16.08
  -5   5  -9  128.56   17.89
   5   5   9  165.40   16.28
  -5   5  -9  109.70    7.70
   6  -5   9   37.82   11.29
  -6  -5  -9   38.69   12.21
  -6   5  -9   39.23   11.54
   6   5   9   49.86   11.42
  -6   5  -9   53.11    7.00
   7  -5   9    9.18    8.02
  -7  -5  -9    6.29    9.23
   7   5   9    3.64    6.86
  -7   5  -9  -11.93    4.74
  -7   5  -9   -3.76    6.95
   8  -5   9   37.59   12.06
  -8  -5  -9   19.50   12.23
   8   5   9   31.06   10.61
  -8   5  -9   24.66   11.29
   9  -6  -9   -7.47    7.10
  -9  -6   9  -14.20    8.45
  -9   6   9   -1.27   11.10
   9   6  -9  -11.82    7.60
   8  -6  -9  212.88   18.50
  -8  -6   9  177.78   29.97
   8   6  -9  189.50   24.31
  -8   6   9  170.68   25.35
  -7  -6   9   36.63   14.24
   7  -6  -9   12.48    6.69
  -7   6   9   11.98    9.69
   7   6  -9   13.03    8.11
  -6  -6   9    8.00    9.35
   6  -6  -9    8.87    6.19
  -6   6   9   11.87    8.62
   6   6  -9    4.32    7.39
   5  -6  -9    3.73    4.16
   5   6  -9   -1.56    5.99
  -5   6   9    2.61    6.34
   4  -6  -9  208.18   12.91
  -4  -6   9  202.27   25.98
  -4   6   9  191.68   12.92
  -4   6   9  246.12   19.26
   4   6  -9  223.83   19.23
   3  -6  -9   16.20    4.16
  -3  -6   9   -8.23    6.90
  -3  -6   9   14.27    6.77
  -3   6   9    6.78    6.34
   3   6  -9   15.62    8.02
  -2  -6   9   45.37    9.33
   2  -6  -9   46.41    4.39
   2  -6  -9   48.22    4.66
  -2  -6   9   28.58    7.29
  -2  -6   9   40.21    9.51
  -2   6   9   52.14    6.57
  -2   6   9   46.78    9.01
   2   6  -9   62.48   14.35
   2   6  -9   43.00    9.64
  -1  -6   9    1.82    4.88
   1  -6  -9   -3.16    2.01
  -1  -6   9   -3.33    4.78
   1  -6  -9    1.03    1.97
   1   6  -9    0.33    6.69
   1   6  -9    4.28    5.33
  -1   6   9    0.71    4.77
  -1   6   9    1.02    3.22
  -1   6   9    2.89    2.94
   0  -6  -9  180.55   12.07
   0  -6   9  190.15   14.90
   0  -6   9  196.54   15.00
   0   6  -9  229.84   17.62
   0   6  -9  179.83   14.52
   0   6   9  210.03   14.03
   0   6   9  208.93   11.96
   0   6   9  215.03   12.49
   1  -6   9    9.82    6.08
  -1  -6  -9   14.80    4.69
  -1  -6  -9    6.17    5.02
   1  -6   9   14.09    6.11
   1  -6   9   11.86    4.35
   1   6   9   15.36    5.37
   1   6   9    5.21    4.24
  -1   6  -9   11.19    5.99
   1   6   9   12.79    4.51
  -1   6  -9   14.41    7.13
  -2  -6  -9  124.95   11.64
  -2  -6  -9  125.36    8.86
  -2  -6  -9  123.14   10.91
   2  -6   9  122.69   12.95
   2  -6   9  122.57   12.77
  -2   6  -9  116.22   15.54
   2   6   9  117.11   11.31
   2   6   9  145.90   11.87
   3  -6   9    0.59    6.58
  -3  -6  -9    8.12    4.78
  -3  -6  -9    9.60    4.79
  -3  -6  -9    9.24    6.91
   3   6   9    6.68    5.99
   3   6   9    4.31    5.33
  -3   6  -9    5.61    7.74
  -4  -6  -9  116.31   14.71
   4  -6   9  157.03   15.55
  -4  -6  -9  126.42   11.18
  -4  -6  -9  113.83   15.30
   4   6   9  133.51   14.08
   4   6   9  125.85   13.46
  -4   6  -9  120.77   17.44
   5  -6   9   -3.59    5.44
  -5  -6  -9    1.11    3.89
  -5  -6  -9   -1.57    5.54
   5   6   9   -2.73    5.30
  -5   6  -9   17.21    9.07
  -5   6  -9   -3.35    3.07
  -6  -6  -9   81.07   11.44
   6  -6   9   85.53   14.72
  -6  -6  -9   65.43   15.23
  -6   6  -9   62.93   14.86
  -6   6  -9   65.02    8.26
   6   6   9   74.69   13.51
  -7  -6  -9   -2.79    8.53
   7  -6   9    8.62    7.67
  -7   6  -9   -7.54    5.03
  -7   6  -9    2.34    9.03
   7   6   9   -0.27    7.06
  -8  -6  -9   76.19   18.24
   8  -6   9   82.59   15.90
   8   6   9   61.18   14.72
  -8   6  -9   61.98   16.38
   8  -7  -9    4.90    6.62
  -8  -7   9    2.11    9.78
  -8   7   9   -3.48    8.80
   8   7  -9    0.68    7.71
  -7  -7   9   24.00   13.32
  -7   7   9   16.59    8.90
   7   7  -9   20.14   10.65
   6  -7  -9   11.56    5.52
  -6  -7   9   26.53   11.90
   6   7  -9   11.26    8.66
  -6   7   9    6.89    7.84
   5  -7  -9   21.08    6.74
  -5  -7   9   17.96   10.76
   5   7  -9   32.21    9.84
  -5   7   9   22.56    8.73
  -4  -7   9   -4.97    8.24
   4  -7  -9    1.47    3.23
   4  -7  -9    2.44    2.35
  -4   7   9    3.28    5.74
  -4   7   9   -1.74    4.09
   4   7  -9    0.60    6.57
  -3  -7   9   53.26   11.14
   3  -7  -9   37.96    3.51
   3  -7  -9   49.95    3.78
   3   7  -9   51.16   11.16
  -3   7   9   38.60    8.53
  -2  -7   9   13.17    6.95
  -2  -7   9   -1.35    4.97
   2   7  -9   17.92    9.55
   2   7  -9    9.85    7.07
  -2   7   9    1.10    5.43
  -1  -7   9    1.96    4.65
  -1   7   9    4.50    2.95
   1   7  -9   -0.29    5.40
   1   7  -9   -0.54    6.88
  -1   7   9    3.44    2.89
   0  -7   9    7.40    6.26
   0  -7  -9    7.10    2.63
   0  -7  -9    9.55    3.42
   0  -7  -9    6.52    6.15
   0   7   9    8.39    3.65
   0   7   9    4.69    3.34
   0   7  -9   15.07    7.23
   0   7   9    5.54    6.00
   1  -7   9   63.58    8.47
  -1  -7  -9   61.61    9.86
   1  -7   9   51.02    9.78
   1   7   9   45.07    6.98
   1   7   9   55.92    7.46
  -1   7  -9   62.72   12.26
  -2  -7  -9   37.87    7.60
   2  -7   9   50.46   10.26
   2  -7   9   47.27    7.32
  -2  -7  -9   36.83    4.80
  -2  -7  -9   48.01    8.45
   2   7   9   38.03    7.75
   2   7   9   48.76    8.24
  -2   7  -9   47.74   11.58
  -3  -7  -9    5.03    5.27
  -3  -7  -9   14.13    4.67
   3  -7   9    0.78    5.86
  -3  -7  -9    8.16    5.27
   3   7   9    5.79    5.90
   3   7   9   12.54    6.51
  -3   7  -9   -1.60    6.61
  -4  -7  -9   26.44    6.84
  -4  -7  -9   14.91    7.85
  -4  -7  -9   19.29    6.43
   4   7   9   11.17    6.88
  -4   7  -9   14.72    8.94
  -5  -7  -9   72.94   10.98
  -5  -7  -9   68.93   14.57
   5  -7   9   64.63   11.73
  -5  -7  -9   76.46   11.56
  -5   7  -9   59.46   13.47
   5   7   9   69.99   12.88
   6  -7   9   21.23    8.83
  -6  -7  -9   20.69    9.75
  -6  -7  -9   11.78    6.74
  -6   7  -9    8.44    8.44
   6   7   9    7.81    7.34
  -6   7  -9  -11.43    4.58
  -7  -7  -9    3.70    8.86
  -7  -7  -9    0.62    5.59
   7  -7   9   -0.96    6.82
  -7   7  -9  -11.64    7.35
   7   7   9   -6.43    5.37
   8  -7   9   14.37    8.94
  -8  -7  -9   -4.68    9.44
  -8   7  -9    2.10    9.89
   8   7   9  -11.11    6.34
  -8  -8   9   66.68   20.70
  -8   8   9  126.00   21.51
   8   8  -9   92.38   19.00
  -7  -8   9    7.44   10.94
   7  -8  -9   -6.19    5.06
  -7   8   9   21.15    9.93
   7   8  -9    0.42    7.83
  -6  -8   9   35.09   14.96
  -6   8   9   62.21   13.60
   6   8  -9   32.22   10.99
   5  -8  -9   18.17    4.29
   5  -8  -9   17.82    4.58
  -5  -8   9   33.22   13.78
  -5   8   9   24.37    8.57
   5   8  -9   24.16    9.79
  -4  -8   9  243.44   18.78
   4  -8  -9  227.91    8.20
  -4  -8   9  263.29   26.34
   4   8  -9  229.65   20.63
  -4   8   9  242.28   18.00
  -3  -8   9   -4.24    5.99
   3   8  -9   -1.07    6.29
  -3   8   9    1.94    4.87
  -2  -8   9  103.92   13.62
   2   8  -9  112.38   21.14
   2   8  -9  107.20   14.69
  -1  -8   9   52.83    9.89
   1   8  -9   27.94   11.17
   1   8  -9   37.06    8.89
  -1   8   9   37.77    5.14
  -1   8   9   31.24    8.25
  -1   8   9   39.65    5.28
   0  -8   9  144.21   13.60
   0  -8  -9  164.00   15.01
   0   8   9  148.86    9.27
   0   8   9  152.92   13.24
   0   8   9  149.13    9.60
   0   8  -9  135.11   20.40
   0   8  -9  162.01   16.21
   1  -8   9    8.83    5.01
  -1  -8  -9    3.82    5.55
   1  -8   9    2.47    4.82
   1   8   9    0.83    3.71
  -1   8  -9   -2.43    6.22
   1   8   9    0.97    3.18
  -2  -8  -9   36.20    7.35
   2  -8   9   41.86    7.91
   2  -8   9   51.08   10.12
  -2  -8  -9   20.53    7.61
   2   8   9   39.61    7.63
  -2   8  -9   54.56   11.92
   2   8   9   32.46    7.05
  -3  -8  -9   15.08    6.25
  -3  -8  -9    5.99    3.63
   3  -8   9   -0.29    5.44
  -3  -8  -9   11.05    6.27
   3   8   9    8.40    5.74
  -3   8  -9   21.09   11.32
   3   8   9   21.01    6.81
   4  -8   9  159.03   15.39
  -4  -8  -9  147.63   12.14
  -4  -8  -9  178.22   14.50
  -4  -8  -9  199.48   17.57
   4   8   9  158.20   16.04
  -4   8  -9  190.97   19.38
   4   8   9  164.37   14.90
  -5  -8  -9    1.86    7.66
  -5  -8  -9    6.16    5.87
   5  -8   9    6.95    6.79
  -5  -8  -9    1.25    5.93
  -5   8  -9    4.73    7.81
   5   8   9    6.37    6.88
   6  -8   9  124.14   16.60
  -6  -8  -9  101.23   17.85
  -6  -8  -9   96.12   13.21
  -6   8  -9   88.67   17.36
   6   8   9  114.93   16.09
  -6   8  -9   66.57   10.05
  -7  -8  -9   20.06   11.24
   7  -8   9   12.81    8.77
  -7  -8  -9    8.15    7.53
   7   8   9   12.66    7.99
  -7   8  -9    6.53    8.65
   8  -8   9   76.76   13.94
  -8  -8  -9   57.25   17.07
  -8  -8  -9   94.04   14.88
  -8   8  -9   30.32   19.15
   8   8   9   78.89   16.97
  -8  -9   9   21.54   15.32
   8  -9  -9   19.85    9.17
  -8   9   9   14.34   13.03
   8   9  -9   15.63   11.76
  -7  -9   9   -4.34    8.54
   7   9  -9   14.39    9.34
  -7   9   9   -0.54    7.25
   6  -9  -9  189.85   11.34
  -6  -9   9  185.18   28.74
  -6   9   9  212.81   20.17
   6   9  -9  212.92   21.39
   5  -9  -9    5.13    1.68
  -5  -9   9    3.23   10.51
   5  -9  -9   10.10    1.79
   5   9  -9   11.97    8.54
  -5   9   9   11.23    7.49
  -4  -9   9   65.34   16.70
  -4  -9   9   42.64   10.17
  -4   9   9   45.90    9.30
   4   9  -9   74.07   13.23
  -4   9   9   55.76   10.62
  -3  -9   9   -0.14    5.31
  -3   9   9   -3.88    2.30
  -2  -9   9  389.97   22.98
   2   9  -9  358.33   24.10
  -1  -9   9   -2.80    4.65
  -1  -9   9   -1.82    5.48
  -1   9   9    2.57    2.57
  -1   9   9    1.54    2.60
   1   9  -9  -11.07    7.43
   1   9  -9    5.04    6.86
   0  -9   9  122.48   14.32
   0  -9  -9  105.02   14.48
   0  -9   9  117.06   11.62
   0   9  -9   82.67   16.29
   0   9   9  117.88    8.02
   0   9  -9  120.31   15.56
   0   9   9  114.72    8.29
  -1  -9  -9   -0.48    2.53
   1  -9   9    3.04    6.20
   1  -9   9    7.90    5.19
  -1  -9  -9    4.27    5.72
  -1   9  -9    1.09    7.01
   1   9   9    2.75    4.06
   1   9   9    2.83    3.85
  -2  -9  -9  342.14   21.36
   2  -9   9  327.97   20.97
   2  -9   9  349.72   19.77
  -2  -9  -9  349.96   21.11
   2   9   9  339.74   18.51
  -2   9  -9  307.47   24.34
   2   9   9  366.52   18.63
  -3  -9  -9   -0.19    2.55
  -3  -9  -9   -0.98    3.87
  -3  -9  -9   -0.43    4.63
   3  -9   9    8.15    6.31
   3   9   9    1.87    4.41
   3   9   9   -9.24    3.87
  -3   9  -9   -2.66    4.91
  -4  -9  -9  135.30   13.64
   4  -9   9  157.62   15.21
  -4  -9  -9  138.39   15.01
  -4  -9  -9  104.15    9.76
   4   9   9  150.91   14.25
   4   9   9  135.85   16.17
  -4   9  -9  107.60   16.85
  -5  -9  -9   -3.70    6.72
  -5  -9  -9    2.68    5.78
   5  -9   9   -0.83    6.14
  -5  -9  -9    1.85    7.78
  -5   9  -9   -6.01    6.69
   5   9   9    7.59    6.86
  -6  -9  -9  192.05   24.70
   6  -9   9  193.12   18.13
   6   9   9  198.11   19.36
  -6   9  -9  149.92   21.96
  -7  -9  -9    6.08    7.00
  -7  -9  -9   -0.55   10.12
   7  -9   9   -3.39    5.98
  -7   9  -9  -12.26    6.73
   7   9   9   -5.85    7.30
  -8 -10   9   11.33   13.95
  -8  10   9    3.84   10.61
   8  10  -9   20.88    9.93
   7 -10  -9   -9.89    7.01
  -7 -10   9   -3.29    9.43
   7  10  -9   11.73    8.86
  -7  10   9   12.31    8.35
  -6 -10   9    3.89   10.31
   6  10  -9   -6.41    6.52
  -6  10   9   -3.28    6.17
  -5 -10   9    3.16    6.01
  -5 -10   9   -6.47    8.97
   5  10  -9   -0.33    6.38
  -5  10   9    2.79    5.48
  -4 -10   9   -0.12    5.14
  -4  10   9    8.43    4.61
   4  10  -9   -1.18    5.82
  -4  10   9    5.38    5.00
  -3 -10   9    3.19    5.93
   3  10  -9    9.48    6.84
  -3  10   9    0.57    2.60
  -2 -10   9   21.02    8.19
   2  10  -9    3.62    6.57
  -1 -10   9    7.06    6.14
   1 -10  -9    5.25    7.31
   1  10  -9    8.26   10.07
   1  10  -9   16.82    8.25
  -1  10   9    8.40    2.47
  -1  10   9   15.60    3.27
   0 -10  -9   12.04    7.62
   0 -10   9    4.34    5.22
   0 -10   9    7.62    6.42
   0  10   9    8.57    3.39
   0  10  -9    6.49    8.94
   0  10  -9    3.67    8.06
   1 -10   9    0.73    5.66
  -1 -10  -9    0.01    5.73
   1 -10   9    0.09    5.64
   1  10   9   -2.32    2.99
   1  10   9    1.97    3.86
   2 -10   9    1.63    4.49
   2 -10   9   13.20    6.34
  -2 -10  -9    9.95    5.92
  -2  10  -9    2.56    6.56
   2  10   9    7.79    5.06
  -3 -10  -9    1.65    5.44
  -3 -10  -9    0.84    5.09
   3 -10   9    5.19    5.76
   3 -10   9   -7.64    3.88
  -3  10  -9    7.94    7.62
   3  10   9  -11.00    3.86
   3  10   9    0.49    4.70
  -4 -10  -9   -0.46    5.45
  -4 -10  -9    2.22    3.80
   4 -10   9    1.51    5.73
  -4 -10  -9   11.15    7.10
   4  10   9   -0.78    6.12
  -4  10  -9    4.52    5.91
   4  10   9    9.74    6.36
  -5 -10  -9    0.35    7.46
  -5 -10  -9    4.92    6.91
   5 -10   9   -8.85    4.34
  -5  10  -9    2.49    6.78
   5  10   9   -1.60    5.36
  -6 -10  -9   -5.43    5.14
  -6 -10  -9   -4.24    7.57
   6 -10   9   -6.80    6.19
  -6  10  -9    7.05    8.34
   6  10   9    4.61    6.88
   7 -10   9   -6.26    6.73
  -7 -10  -9  -15.89   10.82
  -7 -10  -9   -0.89    7.12
   7  10   9    0.13    8.23
  -7  10  -9   -4.26    7.10
  -7 -11   9   -6.08   12.73
  -7  11   9    0.97    8.48
   7  11  -9   10.95    8.96
  -6 -11   9  212.96   20.10
  -6 -11   9  158.73   27.31
   6  11  -9  181.41   24.27
  -6  11   9  223.46   19.78
  -5 -11   9   24.90   12.06
  -5 -11   9   -0.22    6.08
  -5  11   9   12.56    6.30
   5  11  -9    3.98    6.64
  -4 -11   9   39.03   10.48
   4  11  -9   33.73   11.18
  -4  11   9   42.58    6.48
  -4  11   9   42.02    7.55
  -3 -11   9   -4.69    4.65
  -3  11   9    0.51    2.18
   3  11  -9    8.52    7.91
  -2 -11   9  281.51   21.62
   2  11  -9  276.67   21.70
   1 -11  -9   -1.64    6.31
  -1 -11   9    3.46    5.52
  -1  11   9    8.99    2.68
   1  11  -9    7.10    6.55
   0 -11   9   39.09    8.72
   0 -11   9   72.23   11.84
   0 -11  -9   63.54   12.75
   0 -11   9   44.95    9.44
   0  11   9   70.14    6.15
   0  11  -9   54.31   14.39
   0  11  -9   49.52   11.91
   0  11   9   64.54    5.91
  -1 -11  -9    0.46    5.71
   1 -11   9   -1.13    4.33
   1 -11   9   -6.25    4.42
  -1  11  -9    4.49    7.44
   1  11   9    2.01    3.15
   1  11   9   -2.07    2.88
  -2 -11  -9  190.02   17.62
   2 -11   9  228.41   17.33
  -2 -11  -9  212.82   12.67
   2 -11   9  208.50   16.21
   2  11   9  206.85   14.46
  -2  11  -9  237.95   21.30
   2  11   9  219.65   14.33
   3 -11   9   -1.73    5.27
  -3 -11  -9    0.48    5.89
  -3 -11  -9    8.25    6.45
   3  11   9  -12.04    3.69
   3  11   9    1.74    4.60
  -3  11  -9   -1.59    6.64
  -4 -11  -9   62.41   12.09
   4 -11   9   73.00   11.82
  -4 -11  -9   67.82    5.75
  -4 -11  -9   71.05   15.12
   4  11   9   35.87   10.77
  -4  11  -9   60.81   14.01
   4  11   9   63.05   11.47
  -5 -11  -9   12.80    9.42
  -5 -11  -9   -4.33    4.92
  -5 -11  -9    1.11    5.83
   5 -11   9    6.57    6.45
  -5  11  -9   13.12    9.46
   5  11   9    6.77    6.75
  -6 -11  -9   90.57   14.46
  -6 -11  -9   72.38   15.50
   6 -11   9   90.02   13.90
  -6  11  -9   91.66   18.31
   6  11   9  105.86   16.78
  -7 -11  -9   -7.31    7.21
   7 -11   9    4.09    7.68
  -7 -11  -9   -5.08   10.45
   7  11   9    0.01    8.54
  -7  11  -9   13.89   11.32
  -7 -12   9  -14.64   12.14
  -7 -12   9  -10.95    5.82
   7  12  -9    8.58   10.48
  -7  12   9   -3.22    7.02
  -6 -12   9   32.84    9.98
  -6 -12   9    3.35   10.30
  -6  12   9   56.11   11.27
   6  12  -9   31.04   11.70
  -5 -12   9   33.63   10.96
   5  12  -9   25.04   10.31
  -5  12   9   24.81    6.95
  -4 -12   9  216.41   19.45
   4  12  -9  223.40   21.65
  -4  12   9  186.48   11.25
  -3 -12   9    5.17    6.43
   3  12  -9    5.67    6.70
  -3  12   9    5.68    2.67
  -2 -12   9   36.19    9.09
   2  12  -9   26.81    9.05
  -1 -12   9    0.04    4.85
   1 -12  -9   15.85    7.96
  -1 -12   9    5.12    5.66
  -1  12   9    3.97    2.27
   1  12  -9    0.98    6.26
   0 -12   9  193.72   16.98
   0 -12  -9  189.06   18.47
   0 -12   9  160.26   14.50
   0 -12   9  189.23   15.47
   0  12   9  176.11    9.66
   0  12  -9  155.88   19.33
   0  12   9  173.71    8.92
   1 -12   9   -1.30    5.57
  -1 -12  -9   -3.08    5.82
   1 -12   9    0.55    4.61
  -1  12  -9    3.88    7.31
   1  12   9   -0.12    3.14
   1  12   9    0.54    3.18
  -2 -12  -9   36.41    9.89
   2 -12   9   51.92   11.06
   2 -12   9   36.95    8.69
  -2 -12  -9   26.52    5.48
   2  12   9   37.88    7.63
  -2  12  -9   50.50   12.87
   2  12   9   53.72    8.59
  -3 -12  -9   -2.33    5.67
   3 -12   9   -0.99    7.91
   3 -12   9   11.32    5.96
   3  12   9    5.51    5.25
   3  12   9   -5.24    4.49
  -3  12  -9    9.60    7.94
   4 -12   9   91.45   12.76
  -4 -12  -9   89.51   14.82
  -4 -12  -9  130.29   17.46
   4  12   9  107.19   14.12
  -4  12  -9  113.04   17.46
   4  12   9   72.31   12.49
  -5 -12  -9   -7.94    6.93
  -5 -12  -9   -5.41    8.10
   5 -12   9    3.84    6.89
  -5 -12  -9  -11.05    5.58
  -5  12  -9  -12.50    6.34
   5  12   9    8.70    6.85
   6 -12   9   60.84   11.64
  -6 -12  -9   78.45   14.86
  -6 -12  -9   39.95   14.11
   6  12   9   61.51   13.68
  -6  12  -9   52.04   14.44
  -7 -13   9   65.81   14.07
  -7 -13   9   38.82   16.77
  -7  13   9   37.50   12.01
  -6 -13   9   -6.36    6.98
  -6  13   9   -8.08    5.08
   6  13  -9   -3.36    7.65
  -5 -13   9    6.58    7.86
   5  13  -9   12.77    9.34
  -5  13   9   19.16    5.93
  -4 -13   9    3.32    6.41
  -4  13   9   -6.94    3.44
   4  13  -9    0.62    6.19
  -3 -13   9   51.96   11.63
  -3  13   9   55.45    4.75
   3  13  -9   52.91   12.98
  -2 -13   9   -1.02    5.34
   2  13  -9   -1.43    6.13
  -1 -13   9   12.93    6.20
   1 -13  -9   11.62    8.30
   1  13  -9   16.47    8.20
  -1  13   9   15.25    2.54
   0 -13   9  -10.64    5.39
   0 -13   9    7.67    5.80
   0 -13   9    5.15    5.51
   0 -13  -9    3.55    5.65
   0  13   9   -0.56    2.43
   0  13  -9    0.88    6.71
   1 -13   9   94.29   12.13
  -1 -13  -9   82.78   15.52
   1 -13   9   62.36   11.57
   1 -13   9   97.39   14.62
   1  13   9  106.50    9.26
  -1  13  -9   78.83   14.34
   1  13   9   94.93    8.55
   2 -13   9   -0.54    5.11
   2 -13   9   -2.75    4.75
  -2 -13  -9   -8.56    5.78
  -2  13  -9   11.54    8.54
   2  13   9   -2.37    3.70
   2  13   9    0.63    4.35
   3 -13   9    4.85    6.19
  -3 -13  -9   -5.14    4.71
   3 -13   9   15.86    7.54
  -3 -13  -9   -3.88    6.79
  -3  13  -9   -3.47    6.20
   3  13   9   -2.29    5.31
   3  13   9   -4.05    4.25
  -4 -13  -9   -9.02    7.18
   4 -13   9   -0.80    5.29
  -4 -13  -9    5.30    7.28
  -4  13  -9    6.43    8.48
   4  13   9  -16.69    6.43
   4  13   9   -3.71    5.13
   5 -13   9   82.82   12.39
  -5 -13  -9   85.51   14.85
  -5 -13  -9   51.21   12.61
   5  13   9   64.74   13.09
  -5  13  -9   61.78   15.26
  -6 -13  -9  -12.42    6.46
  -6 -13  -9  -11.78    9.88
  -6  13  -9  -23.18    7.29
   6  13   9    1.63    7.05
  -6 -14   9   11.48    8.55
  -6  14   9    1.63    5.38
   6  14  -9   17.24   11.27
  -5 -14   9   28.92    9.51
   5  14  -9    3.16    8.00
  -5  14   9    5.18    4.19
  -4 -14   9  109.03   15.86
  -4  14   9  123.61    8.61
   4  14  -9   94.17   17.16
  -3 -14   9   -5.42    5.83
  -3  14   9    5.93    2.02
   3  14  -9    0.30    7.09
  -2 -14   9   38.75   11.02
  -2 -14   9   43.55    9.47
   2  14  -9   38.66   11.81
  -1 -14   9    2.81    5.53
   1 -14  -9    2.92    7.30
  -1 -14   9   -1.66    6.08
  -1  14   9    6.44    2.01
   1  14  -9    1.98    6.30
   0 -14   9  109.83   13.78
   0 -14   9  102.73   15.86
   0 -14   9  132.17   18.74
   0 -14  -9   83.79   15.60
   0  14   9   97.03    4.39
   0  14   9  110.33    7.71
   0  14  -9  101.51   16.02
   0  14   9  101.16    4.54
   1 -14   9   15.27    6.38
  -1 -14  -9   10.83    7.35
   1 -14   9  -12.93    5.81
   1 -14   9    6.81    6.36
  -1  14  -9   -2.46    6.19
   1  14   9    2.91    3.69
   1  14   9    5.38    3.62
  -2 -14  -9   43.69   12.22
   2 -14   9   29.33    9.70
   2 -14   9   42.39   13.62
   2 -14   9   48.90   10.30
   2  14   9   50.25    8.09
   2  14   9   24.19    6.95
  -2  14  -9   36.27   10.51
   3 -14   9   37.22   12.46
  -3 -14  -9   36.38   12.12
   3 -14   9   14.50    7.57
   3  14   9   22.70    7.07
   3  14   9    7.23    6.93
  -3  14  -9   34.35   11.14
  -4 -14  -9   96.87   16.28
   4 -14   9   83.17   11.40
   4  14   9   52.35   12.85
  -4  14  -9   70.02   14.89
  -5 -14  -9   -9.13   16.28
  -5 -14  -9   -0.42    7.22
   5 -14   9   -7.86    5.01
  -5  14  -9    1.34    8.09
   5  14   9   -5.10    6.01
  -6 -14  -9   27.79   15.89
  -6 -14  -9   76.30   16.57
   6 -14   9   54.05   10.30
   6  14   9   54.17   12.38
  -6  14  -9   46.56   17.79
  -6 -15   9   71.05   15.50
   6  15  -9   69.83   17.44
  -6  15   9   65.24    9.37
  -5 -15   9   -7.69    6.80
   5  15  -9    8.29    9.35
  -4 -15   9    8.82    7.56
   4  15  -9    3.82    7.24
  -4  15   9    8.45    3.84
  -3 -15   9   51.01   10.57
  -3  15   9   58.35    3.85
   3  15  -9   41.50   12.21
  -2 -15   9   79.87   12.06
  -2 -15   9   77.87   15.15
   2  15  -9   79.75   15.40
  -1 -15   9   -1.93    6.71
   1 -15  -9    3.99    7.69
  -1 -15   9   12.45    6.58
   1  15  -9    2.29    7.23
  -1  15   9    2.78    1.65
   0 -15   9   22.36    8.95
   0 -15   9   15.98    9.09
   0 -15  -9   40.25   12.52
   0  15   9   25.86    4.45
   0  15  -9   35.53   10.63
   1 -15   9   58.57   11.01
   1 -15   9   34.56   10.56
   1 -15   9   53.18    9.51
  -1 -15  -9   40.00   12.73
   1  15   9   47.40    7.21
   1  15   9   35.57    5.78
  -1  15  -9   60.70   13.84
   2 -15   9   57.97   10.31
   2 -15   9   19.20   12.62
   2 -15   9   50.90   12.28
  -2 -15  -9   25.91   10.39
   2  15   9   35.59    7.42
   2  15   9   38.66    7.76
  -2  15  -9   57.34   14.02
   3 -15   9    8.80    7.06
  -3 -15  -9   -2.16    6.70
   3 -15   9  -26.82   10.64
   3  15   9   13.65    6.73
   3  15   9  -12.88    5.72
  -3  15  -9   -6.71    6.23
  -4 -15  -9    8.62    8.58
   4 -15   9   40.57    8.56
  -4 -15  -9   32.48   12.50
   4  15   9   30.63    9.45
   4  15   9    7.16    9.79
  -4  15  -9   56.72   14.12
  -5 -15  -9   37.11   14.46
   5 -15   9   44.72    8.82
  -5 -15  -9   51.42   14.59
  -5  15  -9   55.22   15.25
   5  15   9   55.66   12.44
  -5 -16   9  102.59   16.68
  -4 -16   9    9.25    7.59
   4  16  -9    9.45    8.75
  -3 -16   9   33.04    9.19
  -3 -16   9   42.52   13.50
   3  16  -9   28.64   11.42
  -3  16   9   26.52    2.36
  -2 -16   9    7.81    7.17
  -2 -16   9   -1.36    5.06
   2  16  -9    7.92    8.98
  -1 -16   9  132.10   21.67
   1 -16  -9  118.64   19.76
  -1 -16   9  138.21   13.45
  -1 -16   9  201.89   20.24
   1  16  -9  133.60   18.76
  -1  16   9  142.15    6.53
   0 -16   9   -4.47    6.32
   0 -16   9  -11.26    7.41
   0 -16  -9    8.88    9.05
   0  16  -9    0.69    7.09
   0  16   9    5.32    3.35
  -1 -16  -9    3.18    7.94
   1 -16   9    2.50    6.51
   1 -16   9   12.54    6.45
   1  16   9    3.82    4.32
  -1  16  -9   21.05   10.32
   1  16   9    7.17    4.42
   2 -16   9    0.44    7.34
   2 -16   9    0.41    4.50
   2 -16   9   -9.54    7.35
  -2 -16  -9    3.46    8.69
  -2  16  -9   -1.17    7.27
   2  16   9    3.78    5.11
   2  16   9   -7.22    3.91
   3 -16   9  106.48   13.87
   3 -16   9  124.03   18.97
  -3 -16  -9  142.19   20.89
   3 -16   9   89.70   14.04
  -3  16  -9  135.06   20.14
   3  16   9  157.27   14.49
  -4 -16  -9   -8.35    7.74
   4  16   9    1.47    6.07
  -4  16  -9    4.27    8.16
  -4 -17   9   12.99    8.11
  -4 -17   9   -4.60    8.98
   4  17  -9   14.59   10.46
  -3 -17   9   44.51    9.93
  -3 -17   9   32.98   12.55
   3  17  -9   29.99   11.74
  -2 -17   9   32.73   11.85
  -2 -17   9   23.69    7.99
   2  17  -9   21.81    9.89
  -1 -17   9    2.31    7.62
  -1 -17   9    9.53    5.42
  -1 -17   9  -24.92    8.76
   1 -17  -9   -1.97    7.59
   1  17  -9    0.15    7.24
   0 -17  -9   18.76   11.24
   0 -17   9    1.10    8.15
   0  17  -9   16.44    9.62
   0  17   9    3.33    3.46
   1 -17   9   25.31    6.28
   1 -17   9   12.61    9.14
  -1 -17  -9   32.69   11.70
   1 -17   9   36.24   11.61
  -1  17  -9   40.04   11.91
   1  17   9   20.96    3.68
   1  17   9   16.05    3.77
   1  17   9    9.35    5.27
   2 -17   9   13.65    8.75
   2 -17   9   23.27   10.82
  -2 -17  -9   22.94   12.10
   2 -17   9   25.20    6.42
  -2  17  -9   25.05   10.91
   2  17   9   37.15    6.94
  -3 -17  -9   -6.07    9.07
   3 -17   9   -6.72    7.49
  -3  17  -9  -13.46    6.54
   3  17   9   -1.19    5.50
  -3 -18   9    6.27    6.30
  -3 -18   9    1.22    9.85
  -2 -18   9    3.54    9.24
  -2 -18   9    3.77    6.13
   2  18  -9   28.07   12.18
  -1 -18   9   91.04   17.33
   1 -18  -9   52.80   15.89
   1  18  -9  100.77   17.45
   0 -18  -9    7.69   10.81
   0 -18   9   -9.82    7.91
   0 -18   9    2.96    4.70
   0  18  -9   -1.26    7.54
   0  18   9  -10.47    3.43
   1 -18   9   -4.93    7.61
   1 -18   9    6.77    5.01
  -1 -18  -9   -3.74    8.44
   1  18   9   -6.27    4.48
   1  18   9    0.10    1.91
  -1  18  -9   -4.56    7.14
   1  18   9    3.84    2.15
   2 -18   9    1.63    4.45
  -2 -18  -9   -9.32    9.07
   2 -18   9   -3.19    8.83
   2  18   9  -13.59    4.71
  -2  18  -9   -3.59    8.80
   2  18   9   -4.49    4.83
   2  18   9   -0.93    4.25
   0 -19   9   -3.91    9.04
   0 -19   9    1.25    4.64
   0  19  -9  -10.33    6.97
   9   0 -10    5.52    8.74
  -9   0  10   -7.25    8.68
   8   0 -10   29.42   11.76
  -8   0  10   -1.56    8.93
  -7   0  10  293.95   28.74
   7   0 -10  294.30   23.07
   6   0 -10    3.85    6.05
  -6   0  10   -1.87    8.10
   5   0 -10   -4.09    5.49
  -5   0  10    0.48    9.60
  -4   0  10   -2.97    5.99
   4   0 -10   -4.91    5.26
   3   0 -10  523.54   28.61
   3   0 -10  527.74   25.26
  -3   0  10  493.93   30.94
   2   0 -10   -4.09    4.02
   2   0 -10   -1.70    5.28
  -2   0  10    2.14    4.60
   1   0 -10   56.29   11.60
  -1   0  10   59.27    8.96
   1   0 -10   47.33    8.39
  -1   0  10   60.28    9.12
   0   0  10   68.32   10.23
   0   0 -10   45.47    8.52
   0   0  10   48.41    8.59
  -1   0 -10  537.41   24.79
  -1   0 -10  503.97   22.88
   1   0  10  519.27   24.48
   1   0  10  493.79   23.82
   1   0  10  484.94   15.53
   2   0  10   36.64    8.19
  -2   0 -10   24.78    7.84
   2   0  10   32.26    7.80
  -3   0 -10   26.75    8.91
   3   0  10   30.74    8.83
  -3   0 -10   42.13    8.51
   3   0  10   30.06    8.64
   4   0  10   26.65    8.93
  -4   0 -10   37.47   10.42
   5   0  10  535.45   29.93
  -5   0 -10  546.16   16.31
  -5   0 -10  546.93   32.22
   6   0  10   41.51    9.93
  -6   0 -10   15.68   10.02
  -7   0 -10   57.65   14.45
   7   0  10   51.94   11.79
  -7   0 -10   27.91    6.21
  -8   0 -10    0.99    8.12
  -8   0 -10   13.66   11.14
   8   0  10    8.75    9.18
  -9  -1  10   42.35   17.72
   9  -1 -10   48.53   12.95
  -9   1  10    9.77   12.40
   9   1 -10   31.81   11.58
  -8  -1  10    4.00    9.47
   8  -1 -10   -0.92    6.76
  -8   1  10   -8.23    6.22
   8   1 -10   -1.01    6.58
  -7  -1  10   -2.82    8.40
  -7   1  10   22.10   10.10
   7   1 -10   35.42   10.22
   6  -1 -10    7.53    6.25
  -6  -1  10   -2.13    8.05
   6   1 -10    1.17    6.24
  -6   1  10    2.36    8.87
   5  -1 -10  103.80   13.85
   5   1 -10  100.10   14.36
  -5   1  10   87.08   17.50
  -4  -1  10   -0.72    7.80
   4  -1 -10    2.50    5.84
  -4   1  10    6.52    8.20
   4   1 -10   18.93    7.63
   3  -1 -10   -4.18    4.47
  -3  -1  10   -4.48    6.43
   3  -1 -10   -0.69    4.68
   3   1 -10   -4.22    6.25
  -3   1  10   -5.19    7.04
   3   1 -10   -2.08    4.93
   2  -1 -10   39.35    9.42
  -2  -1  10   64.58   10.49
  -2  -1  10   32.93    7.36
   2  -1 -10   35.43    7.49
   2   1 -10   68.20   12.63
  -2   1  10   47.23    8.58
   2   1 -10   33.28    7.68
  -1  -1  10  161.99   13.13
   1  -1 -10  156.43   12.19
  -1  -1  10  170.01   13.32
  -1   1  10  193.11   13.25
   1   1 -10  154.31   16.63
   1   1 -10  177.44   13.72
  -1   1  10  173.15   12.97
   0  -1  10   49.30    8.53
   0  -1  10   49.28    9.04
   0  -1 -10   33.10    6.83
   0   1  10   38.36    7.40
   0   1 -10   30.29    7.66
   0   1  10   38.90    8.15
   0   1  10   39.94    5.95
  -1  -1 -10    4.94    3.92
   1  -1  10    6.61    4.99
   1  -1  10   10.81    6.14
   1  -1  10    8.03    1.58
  -1  -1 -10    9.75    5.25
   1   1  10    4.74    4.76
   1   1  10    7.35    2.41
  -1   1 -10   10.94    4.68
  -1   1 -10   11.14    5.45
   1   1  10   -3.56    3.62
  -2  -1 -10    3.85    4.54
   2  -1  10   15.61    7.49
  -2  -1 -10    5.99    5.85
   2  -1  10    6.19    5.45
   2   1  10    9.75    5.89
  -2   1 -10   17.95    5.87
   2   1  10   -5.41    4.07
  -2   1 -10    3.13    5.57
   3  -1  10  177.71   15.60
   3  -1  10  172.83   15.20
  -3  -1 -10  145.12   12.68
  -3  -1 -10  170.35   15.71
   3   1  10  169.15   14.91
  -3   1 -10  202.17   17.26
   3   1  10  186.37   15.51
  -4  -1 -10   17.53    8.41
   4  -1  10   23.28    8.53
   4   1  10   36.98   10.04
  -4   1 -10   37.83   10.70
  -5  -1 -10   10.09    2.45
  -5  -1 -10   12.22    8.51
   5  -1  10   -0.08    4.79
  -5   1 -10   12.26    8.47
   5   1  10    8.29    5.77
  -6  -1 -10    1.55    6.82
   6  -1  10    2.44    6.86
   6   1  10    9.63    7.56
  -6   1 -10   -4.93    6.57
  -7  -1 -10   37.80   12.58
   7  -1  10   39.87   11.55
  -7   1 -10   40.49    6.52
   7   1  10   68.50   13.39
  -7   1 -10   34.13   13.62
   8  -1  10   13.68    8.75
  -8  -1 -10   14.22   11.49
  -8   1 -10   14.22   11.25
   8   1  10   16.63    9.02
  -8   1 -10   12.43    7.16
  -9  -2  10   25.02   15.14
   9  -2 -10    2.06    8.56
   9   2 -10   -5.01    6.90
  -9   2  10  -11.47   11.61
  -8  -2  10    6.77    9.70
   8  -2 -10    6.64    7.34
  -8   2  10    7.27    9.71
   8   2 -10   -4.21    6.29
   7  -2 -10  110.09   16.02
  -7  -2  10   70.83   18.00
  -7   2  10   88.35   18.82
   6  -2 -10   24.58    8.55
  -6  -2  10   30.25   12.83
  -6   2  10   22.66   10.91
   6   2 -10   12.13    8.21
  -5  -2  10    2.72   13.20
   5  -2 -10   -0.29    5.60
   5   2 -10    1.99    6.13
  -5   2  10    4.40    8.29
  -4  -2  10   28.46   12.21
   4  -2 -10   22.63    6.91
   4   2 -10   31.62    8.72
  -4   2  10   23.86   10.04
   3  -2 -10  204.74   14.24
  -3  -2  10  184.63   20.07
   3  -2 -10  183.28   15.53
   3   2 -10  175.08   15.33
  -3   2  10  187.15   18.05
   2  -2 -10   27.40    7.75
  -2  -2  10   28.23    7.57
  -2  -2  10   23.82    6.80
  -2   2  10   32.79    7.41
   2   2 -10   13.32    7.96
   2   2 -10   32.55    8.29
  -1  -2  10    0.74    4.76
  -1  -2  10    1.46    4.22
   1  -2 -10    4.91    5.53
  -1   2  10    2.26    3.64
  -1   2  10   -3.12    3.50
   1   2 -10    2.21    5.99
  -1   2  10    1.94    3.81
   1   2 -10    1.58    4.36
   0  -2 -10   55.84    8.34
   0  -2  10   75.60   10.71
   0  -2  10   65.44    9.94
   0   2 -10   73.37    9.60
   0   2  10   58.88    7.08
   0   2 -10   84.11   11.40
   0   2  10   72.48    9.34
   0   2  10   71.09    9.73
   1  -2  10  290.88   18.33
   1  -2  10  290.34   18.02
  -1  -2 -10  305.43   15.67
  -1  -2 -10  278.50   17.07
   1   2  10  306.04   17.45
  -1   2 -10  271.81   18.46
   1   2  10  303.76   17.31
   2  -2  10   10.45    5.77
   2  -2  10    9.27    5.21
  -2  -2 -10   -1.24    3.98
  -2  -2 -10    2.82    5.50
  -2   2 -10    8.28    6.37
   2   2  10    7.18    5.39
  -2   2 -10    7.50    5.03
   2   2  10   -1.54    4.52
   3  -2  10    3.49    6.32
  -3  -2 -10   14.39    5.93
  -3  -2 -10    9.68    7.03
  -3   2 -10   20.22    8.46
   3   2  10    4.92    7.23
   3   2  10   13.10    6.75
  -4  -2 -10   55.96    4.69
   4  -2  10   34.42    9.41
  -4  -2 -10   70.92   12.98
   4   2  10   80.48   12.56
  -4   2 -10   66.32   13.02
   5  -2  10   83.27   13.50
  -5  -2 -10   70.85   13.52
   5   2  10   74.98   12.97
  -5   2 -10   90.34   15.48
   6  -2  10   -2.79    5.69
  -6  -2 -10    6.57    7.91
  -6   2 -10   -2.58    2.59
   6   2  10   -8.30    5.49
  -6   2 -10   -8.40    6.14
   7  -2  10   31.02   10.61
  -7  -2 -10   18.04   10.03
  -7   2 -10   11.66    4.19
   7   2  10   15.07    8.59
  -7   2 -10   44.86   13.67
  -8  -2 -10   23.47   12.39
   8  -2  10   20.75    9.86
   8   2  10   34.92   11.90
  -8   2 -10   32.59    7.60
  -8   2 -10   15.48   11.65
  -9  -3  10  185.88   31.08
   9  -3 -10  190.69   20.18
   9   3 -10  193.30   25.27
  -9   3  10  166.29   29.19
   8  -3 -10   -0.26    6.53
  -8  -3  10   12.16   11.43
   8   3 -10   -6.66    5.93
  -8   3  10   -9.85    6.07
  -7  -3  10    4.24    9.37
   7  -3 -10    9.16    6.51
   7   3 -10    7.66    7.42
  -7   3  10    4.79    8.92
  -6  -3  10    3.70    9.82
   6  -3 -10   -1.06    5.59
   6   3 -10   -1.24    6.27
  -6   3  10   15.84   10.08
  -5  -3  10  343.25   30.80
   5  -3 -10  422.96   22.76
   5   3 -10  431.09   26.30
  -5   3  10  404.39   28.82
  -4  -3  10  -12.98    7.01
   4  -3 -10    1.17    4.76
  -4   3  10   -2.63    7.42
   4   3 -10    8.67    6.72
  -4   3  10    1.09    7.48
  -3  -3  10    0.02    6.98
   3  -3 -10   -6.85    4.17
   3  -3 -10    6.33    4.72
  -3   3  10   -4.43    5.59
   3   3 -10    7.39    6.07
  -2  -3  10    1.11    4.29
   2  -3 -10   -1.40    4.98
   2  -3 -10    1.42    3.88
   2   3 -10    1.33    6.68
   2   3 -10    2.42    5.58
  -2   3  10    2.58    3.98
  -1  -3  10  793.56   32.33
   1  -3 -10  780.65   28.39
  -1  -3  10  770.79   32.56
   1  -3 -10  766.48   32.60
  -1   3  10  721.74   29.06
  -1   3  10  763.22   30.15
   1   3 -10  814.90   33.32
  -1   3  10  773.51   28.93
   1   3 -10  590.72   36.19
   0  -3  10   -3.34    3.52
   0  -3  10   -5.18    3.98
   0  -3 -10   -1.01    3.55
   0   3  10   -4.12    2.56
   0   3 -10    8.96    6.25
   0   3 -10    0.77    4.37
   0   3  10    7.72    4.59
   0   3  10    2.37    3.88
  -1  -3 -10   23.41    6.55
  -1  -3 -10   24.07    5.24
   1  -3  10   28.40    3.38
   1  -3  10   24.34    7.36
   1  -3  10   20.57    6.46
  -1   3 -10   20.83    6.16
   1   3  10   23.25    6.69
   1   3  10   29.97    4.97
   1   3  10   24.64    6.23
  -1   3 -10   34.87    8.24
   2  -3  10   25.70    7.47
   2  -3  10   37.46    8.79
  -2  -3 -10   34.87    6.71
  -2  -3 -10   27.51    7.59
   2   3  10   31.01    7.86
  -2   3 -10   23.03    6.73
   2   3  10   18.63    6.88
  -2   3 -10   33.49    9.72
  -3  -3 -10  342.70   21.64
  -3  -3 -10  303.79   13.25
   3  -3  10  327.81   21.28
  -3  -3 -10  300.77   20.20
  -3   3 -10  347.58   23.08
   3   3  10  354.41   20.69
   3   3  10  301.49   19.91
   4  -3  10    3.49    6.15
  -4  -3 -10   -5.28    6.45
  -4  -3 -10    6.18    6.17
   4   3  10   -2.65    5.64
  -4   3 -10   -1.56    6.66
   4   3  10   -3.16    5.45
  -5  -3 -10   26.86   10.14
  -5  -3 -10   24.79    4.83
   5  -3  10   28.30    9.30
  -5   3 -10   16.29    8.44
   5   3  10   31.74    9.17
  -6  -3 -10   -4.23    3.22
  -6  -3 -10    0.88    7.45
   6  -3  10    9.41    7.22
  -6   3 -10    9.62    8.12
  -6   3 -10   -2.52    3.22
   6   3  10  -10.04    3.89
  -7  -3 -10  143.60   22.20
   7  -3  10  148.93   19.88
  -7   3 -10  135.43    9.11
   7   3  10  136.34   19.38
  -7   3 -10  138.20   21.84
  -8  -3 -10   33.22   13.46
   8  -3  10   41.81   11.80
  -8   3 -10   21.71   10.95
  -8   3 -10   -0.10   11.17
   8   3  10   -6.13    7.62
   9  -4 -10    3.61    8.13
  -9  -4  10   -5.65    9.03
   9   4 -10  -18.02    8.27
  -9   4  10  -20.78    9.89
  -8  -4  10   39.92   16.85
   8  -4 -10   41.85   10.55
   8   4 -10   12.95   10.32
  -8   4  10   43.50   15.24
   7  -4 -10   21.30    8.28
  -7  -4  10    7.23    9.47
   7   4 -10   35.67   11.98
  -7   4  10    2.67    9.75
  -6  -4  10   78.20   18.34
   6  -4 -10   85.99   12.43
  -6   4  10   75.60   15.88
  -5  -4  10    3.77    8.32
   5  -4 -10   -1.30    4.57
  -5   4  10  -12.50    5.43
   5   4 -10    5.59    6.70
   4  -4 -10   60.69    8.99
  -4  -4  10   82.24   17.83
   4   4 -10   71.27   12.95
  -4   4  10   64.00   13.10
  -4   4  10   72.92   10.07
  -3  -4  10   10.75    8.88
   3  -4 -10    8.72    4.75
   3  -4 -10   16.49    5.94
   3   4 -10    4.89    6.61
  -3   4  10   15.70    7.86
   2  -4 -10   53.33    8.62
  -2  -4  10   43.60    9.35
  -2  -4  10   58.16   10.39
   2  -4 -10   54.98    7.12
   2   4 -10   41.35   11.89
   2   4 -10   44.70    9.45
  -2   4  10   55.51   12.43
  -1  -4  10    2.49    5.31
  -1  -4  10    6.93    5.73
   1  -4 -10    7.15    5.12
   1  -4 -10    1.75    3.40
  -1   4  10    6.64    4.51
   1   4 -10    4.71    5.65
  -1   4  10    3.03    3.78
  -1   4  10    5.99    3.98
   1   4 -10    1.27    7.01
   0  -4  10  113.57   13.40
   0  -4  10  100.54   12.30
   0  -4 -10   85.97    8.61
   0   4  10   84.49    8.44
   0   4 -10   90.21   11.22
   0   4  10  102.93    9.70
   0   4  10   86.12    9.05
   0   4 -10   93.31   12.62
  -1  -4 -10   28.73    5.17
  -1  -4 -10   25.40    6.82
   1  -4  10   27.47    7.87
   1  -4  10   29.65    4.12
   1  -4  10   32.61    7.75
  -1   4 -10   56.35    8.83
   1   4  10   36.13    5.99
   1   4  10   35.29    7.09
   1   4  10   20.93    5.91
  -1   4 -10   34.39    9.20
   2  -4  10   64.01   11.18
  -2  -4 -10   65.14    8.42
  -2  -4 -10   65.58    7.11
  -2  -4 -10   54.19    9.54
  -2   4 -10   63.00   11.54
   2   4  10   62.51    9.88
   2   4  10   82.73   10.83
  -3  -4 -10    3.76    3.18
   3  -4  10    3.95    6.62
  -3  -4 -10    0.68    5.67
  -3  -4 -10   -2.65    3.85
   3   4  10    0.98    5.60
  -3   4 -10    9.39    7.34
   3   4  10   -3.57    4.74
  -4  -4 -10  103.86   12.21
  -4  -4 -10  129.26    9.10
  -4  -4 -10  117.45   15.59
   4   4  10  117.85   15.57
  -4   4 -10  117.26   16.83
   4   4  10  115.68   15.24
  -5  -4 -10   55.00   12.78
   5  -4  10   64.77   12.34
  -5  -4 -10   58.95    7.63
   5   4  10   75.99   13.16
  -5   4 -10   53.03   12.90
   6  -4  10   60.92   13.17
  -6  -4 -10   48.18    8.09
  -6  -4 -10   69.21   18.28
   6   4  10   51.35   12.02
  -6   4 -10   38.02   11.85
  -7  -4 -10    5.26    9.05
   7  -4  10   14.74    7.65
  -7   4 -10    5.00    9.34
   7   4  10   -3.85    5.24
  -7   4 -10   -3.84    3.77
  -8  -4 -10   36.35   15.41
   8  -4  10   85.31   16.58
   8   4  10   63.49   14.51
  -8   4 -10   56.05   17.64
   9  -5 -10   57.03   13.51
  -9  -5  10   33.91   17.07
   9   5 -10   64.07   16.27
  -9   5  10   52.15   17.68
   8  -5 -10   47.72   11.17
  -8  -5  10   33.15   15.55
  -8   5  10   59.63   16.09
   8   5 -10   95.80   18.01
   7  -5 -10    9.94    6.15
  -7  -5  10    8.25   10.13
   7   5 -10    0.58    6.92
  -7   5  10   -3.79    7.93
  -6  -5  10   29.21   14.03
   6  -5 -10   29.23    8.26
   6   5 -10   33.08   10.81
  -6   5  10   31.91   10.81
   5  -5 -10  114.77   11.03
  -5  -5  10   95.13   19.20
   5   5 -10  100.89   15.77
  -5   5  10  120.10   18.06
   4  -5 -10   60.30    9.28
   4  -5 -10   64.81    8.99
  -4  -5  10   48.15   16.04
   4   5 -10   66.32   12.96
  -4   5  10   64.61    9.25
  -4   5  10   58.92   12.63
   3  -5 -10   -3.47    3.19
  -3  -5  10    9.39    6.09
   3   5 -10   -5.99    5.06
  -3   5  10   -7.12    4.82
   2  -5 -10   83.29    8.44
  -2  -5  10   98.37   13.73
  -2  -5  10   89.85   12.26
   2  -5 -10   85.29   11.38
  -2   5  10   92.45   12.93
  -2   5  10   78.34    8.52
   2   5 -10   94.54   12.94
   2   5 -10   91.77   18.76
   1  -5 -10  133.86   11.17
  -1  -5  10  151.21   13.92
  -1  -5  10  127.65   13.25
  -1   5  10  147.91   10.71
   1   5 -10  154.23   20.85
   1   5 -10  153.09   14.80
  -1   5  10  150.55   11.09
  -1   5  10  178.65   13.82
   0  -5  10   51.52    9.80
   0  -5 -10   31.19    7.08
   0  -5  10   50.96    9.37
   0  -5 -10   34.22    6.17
   0   5  10   50.02    7.68
   0   5 -10   37.02    7.92
   0   5 -10   40.93    9.81
   0   5  10   40.32    7.39
   0   5  10   43.07    7.55
   1  -5  10    0.06    4.02
  -1  -5 -10    3.72    4.66
   1  -5  10    1.30    5.39
  -1  -5 -10    9.78    4.73
   1  -5  10    0.87    4.71
   1   5  10    4.58    4.23
   1   5  10   -3.64    3.73
  -1   5 -10    4.55    6.35
   1   5  10   -1.28    3.87
  -2  -5 -10  120.62   12.22
  -2  -5 -10  121.94   10.24
   2  -5  10  131.65   13.58
  -2  -5 -10  110.31    9.37
   2   5  10  103.80   12.14
   2   5  10  123.76   11.87
  -2   5 -10  131.36   16.25
   3  -5  10   68.81   12.27
  -3  -5 -10   47.78    8.32
  -3  -5 -10   52.09   10.45
  -3  -5 -10   53.40    7.81
   3   5  10   68.19   11.02
  -3   5 -10   57.98   12.00
   3   5  10   55.50   10.29
  -4  -5 -10   -1.66    4.78
   4  -5  10    3.06    6.12
  -4  -5 -10    4.85    6.87
  -4  -5 -10    1.10    3.59
  -4   5 -10    1.28    5.34
   4   5  10    2.77    5.74
   4   5  10   -7.71    5.67
  -5  -5 -10   13.83    8.29
   5  -5  10    2.84    6.31
  -5  -5 -10   16.77    5.19
  -5   5 -10   15.10    9.25
   5   5  10    2.17    6.18
  -6  -5 -10   53.22   14.30
  -6  -5 -10   74.88    9.74
   6  -5  10   78.07   14.30
  -6   5 -10   59.45   14.07
  -6   5 -10   59.63    6.27
   6   5  10   78.81   14.12
  -7  -5 -10   24.56    7.12
  -7  -5 -10   20.92   11.16
   7  -5  10   14.27    9.21
   7   5  10   51.19   12.40
  -7   5 -10   29.55    5.76
  -7   5 -10   21.99   11.16
  -8  -5 -10   -0.43    9.82
   8  -5  10   -0.89    7.83
   8   5  10   -2.40    7.61
  -8   5 -10   -9.15    8.62
   8  -6 -10   23.76    9.71
  -8  -6  10   34.99   16.79
  -8   6  10    3.70    8.58
   8   6 -10   18.29   11.21
   7  -6 -10   99.45   13.40
  -7  -6  10   45.16   15.97
   7   6 -10  117.63   18.35
  -7   6  10   83.51   17.63
  -6  -6  10    8.33   10.05
   6  -6 -10    5.50    5.03
   6   6 -10   29.03   10.61
  -6   6  10    1.79    7.39
  -5  -6  10   14.79   10.18
   5  -6 -10    6.31    4.26
   5   6 -10   16.04    9.86
  -5   6  10    7.76    7.15
  -4  -6  10   -0.58    8.86
   4  -6 -10   -0.01    4.36
  -4   6  10    2.72    5.56
  -4   6  10    7.11    4.75
   4   6 -10   -6.28    5.92
   3  -6 -10  161.16   10.27
  -3  -6  10  152.88   14.79
  -3   6  10  124.14   15.32
   3   6 -10  159.68   16.52
  -2  -6  10   11.68    7.12
   2  -6 -10    7.03    3.43
  -2   6  10    6.88    3.80
  -2   6  10   -2.55    5.17
   2   6 -10    8.99    6.83
  -1  -6  10   12.45    6.91
   1  -6 -10    8.15    3.99
   1   6 -10    3.59    5.84
  -1   6  10    8.51    4.43
  -1   6  10   11.32    4.38
  -1   6  10   10.22    5.91
   1   6 -10   10.61    8.81
   0  -6  10   -6.59    3.74
   0  -6 -10   -1.07    2.79
   0  -6 -10   -1.74    3.59
   0   6 -10   11.62    7.39
   0   6  10    6.78    4.16
   0   6  10    3.41    4.86
   0   6  10    3.15    3.91
   1  -6  10  149.47   14.41
  -1  -6 -10  145.59   12.31
   1  -6  10  144.71    9.78
  -1  -6 -10  127.65   10.66
   1   6  10  146.28   11.81
   1   6  10  130.01   10.86
   1   6  10  126.33   10.96
  -1   6 -10  134.56   16.36
   2  -6  10    8.23    3.69
   2  -6  10   13.82    7.50
  -2  -6 -10   13.72    5.32
  -2  -6 -10   11.56    3.93
   2   6  10    2.12    4.54
   2   6  10   17.18    5.87
  -2   6 -10    1.38    7.03
   3  -6  10   -6.13    5.46
  -3  -6 -10    7.48    4.73
  -3  -6 -10    0.96    5.75
  -3  -6 -10    4.46    4.01
   3   6  10   -5.25    4.64
   3   6  10   -1.80    4.82
  -3   6 -10    1.90    7.18
  -4  -6 -10   11.67    7.29
  -4  -6 -10    5.00    4.19
   4  -6  10   12.58    6.53
   4   6  10    1.85    5.77
  -4   6 -10   16.05    8.46
   4   6  10    2.13    5.58
  -5  -6 -10   78.92   14.99
  -5  -6 -10   79.38   10.37
   5  -6  10   55.42   11.70
  -5   6 -10   57.95   13.88
   5   6  10   74.20   13.15
  -6  -6 -10   34.18   11.52
  -6  -6 -10   20.71    5.94
   6  -6  10   25.49    9.30
   6   6  10   14.68    9.04
  -6   6 -10    3.09    7.46
  -7  -6 -10   24.95   13.01
   7  -6  10   21.35    9.23
  -7  -6 -10   10.17    6.00
   7   6  10   11.53    7.97
  -7   6 -10   -2.41    8.12
  -8  -6 -10   -7.04    8.84
   8  -6  10    7.85    9.56
  -8  -6 -10   -4.70    5.76
  -8   6 -10   -7.14    9.10
   8   6  10   -7.58    7.71
   8  -7 -10  140.72   15.41
  -8  -7  10  127.03   27.82
   8   7 -10  152.71   22.80
  -8   7  10   84.07   18.67
   7  -7 -10    2.12    5.33
  -7  -7  10   10.97   11.50
   7   7 -10    3.09    7.03
  -7   7  10  -15.93    5.70
   6  -7 -10  121.81   11.48
  -6  -7  10  136.77   24.54
   6   7 -10  132.57   19.40
  -6   7  10  139.08   19.57
  -5  -7  10    9.23    9.44
  -5   7  10   -3.86    5.86
   5   7 -10    1.19    6.74
   4  -7 -10  157.05    9.33
  -4  -7  10  173.46   25.02
   4  -7 -10  183.27   14.86
   4   7 -10  200.87   18.79
  -4   7  10  181.80   16.73
  -4   7  10  158.27   11.82
  -3  -7  10   11.55    7.40
   3  -7 -10    0.07    2.15
   3  -7 -10   -0.73    2.19
   3   7 -10   -0.78    5.92
  -2  -7  10  314.07   20.44
   2  -7 -10  247.29    7.70
   2   7 -10  297.39   20.89
  -2   7  10  264.08   13.46
   1  -7 -10   20.55    2.98
   1  -7 -10   25.29    3.03
  -1  -7  10   27.24    8.21
   1   7 -10   16.28   10.18
  -1   7  10   17.74    6.78
  -1   7  10   14.98    4.64
   1   7 -10   20.53    8.84
   0  -7  10  131.12   14.92
   0  -7 -10  115.36    9.09
   0   7  10  108.31    9.03
   0   7  10  112.65    9.45
   0   7  10  113.16   11.73
   0   7 -10  112.58   15.20
  -1  -7 -10    3.69    4.11
   1  -7  10   -0.79    5.28
   1  -7  10   -1.59    3.19
  -1  -7 -10    4.44    5.30
   1   7  10    5.24    4.02
  -1   7 -10   -0.67    6.41
   1   7  10    2.99    4.56
  -2  -7 -10  283.82   17.56
   2  -7  10  275.32   14.67
  -2  -7 -10  280.86   17.48
  -2  -7 -10  249.15   11.62
   2  -7  10  304.33   20.13
   2   7  10  252.05   15.97
   2   7  10  275.82   17.05
  -2   7 -10  272.28   21.66
  -3  -7 -10    8.59    6.80
   3  -7  10    0.62    5.94
  -3  -7 -10    0.62    3.85
  -3  -7 -10    5.65    4.43
   3   7  10    4.44    5.70
  -3   7 -10   14.44   10.78
   3   7  10   -2.71    5.37
  -4  -7 -10   76.15   10.08
  -4  -7 -10   78.79   13.03
  -4  -7 -10   78.15    9.81
   4  -7  10   81.09   12.58
   4   7  10   57.30   10.93
   4   7  10   93.56   13.16
  -4   7 -10  100.30   16.55
  -5  -7 -10    3.82    5.43
   5  -7  10    2.65    6.16
  -5  -7 -10   -2.63    6.35
  -5   7 -10   -0.10    7.05
   5   7  10    4.12    6.83
  -6  -7 -10  153.40   21.58
   6  -7  10  153.35   19.60
  -6  -7 -10  173.36   14.19
   6   7  10  174.46   18.25
  -6   7 -10  148.68   21.81
  -7  -7 -10   13.28    6.73
  -7  -7 -10   16.20    9.57
   7  -7  10    9.99    7.76
  -7   7 -10    6.11   10.02
   7   7  10   17.21    9.25
  -8  -7 -10   26.68    8.43
   8  -7  10   39.26   13.70
  -8  -7 -10   33.46   14.26
   8   7  10   19.39   10.83
   8  -8 -10   39.87   10.07
  -8  -8  10   18.03   14.72
   8   8 -10   50.36   14.25
  -8   8  10   60.08   17.35
  -7  -8  10  -18.52    7.88
   7  -8 -10    1.75    5.38
   7   8 -10    1.34    7.23
  -7   8  10   -6.45    6.52
  -6  -8  10   89.06   21.01
  -6   8  10   89.64   16.42
   6   8 -10  107.76   18.22
   5  -8 -10   -2.83    3.37
  -5  -8  10  -14.63    5.24
   5  -8 -10    0.06    3.00
   5   8 -10    3.22    7.28
  -5   8  10   -3.12    5.21
  -4  -8  10   90.90   19.25
   4  -8 -10  115.70    5.99
   4  -8 -10  113.59    4.85
  -4  -8  10  104.05   14.76
  -4   8  10  119.28   15.44
  -4   8  10   88.38    9.10
   4   8 -10  101.21   15.86
   3   8 -10   21.21    8.31
  -2  -8  10   18.93    8.29
   2   8 -10   22.67    8.85
  -1  -8  10   13.45    7.18
   1   8 -10    7.46    7.95
  -1   8  10    7.83    3.89
  -1   8  10    8.06    3.73
   0  -8 -10  137.71   14.36
   0  -8  10  114.50   14.45
   0  -8 -10  133.88    6.72
   0  -8 -10  128.55    6.40
   0   8  10  142.28   13.52
   0   8 -10  168.35   16.19
   0   8 -10  120.67   21.99
   0   8  10  137.47    9.95
   0   8  10  137.56    9.82
  -1  -8 -10    9.32    6.08
   1  -8  10   18.25    5.55
   1  -8  10    8.14    6.45
  -1   8 -10   24.75    9.49
   1   8  10   20.91    5.50
   1   8  10    9.94    4.89
   2  -8  10   33.36    7.13
   2  -8  10   28.56    8.85
  -2  -8 -10   20.79    6.79
  -2  -8 -10   24.21    7.42
   2   8  10   28.45    6.85
  -2   8 -10   25.36    9.95
   2   8  10   18.93    6.19
  -3  -8 -10   32.30    8.98
  -3  -8 -10   41.59    8.80
  -3  -8 -10   51.64    6.70
   3   8  10   47.41    9.12
  -3   8 -10   36.79   11.32
   3   8  10   43.68    9.15
  -4  -8 -10  142.52   11.66
   4  -8  10  163.49   16.27
  -4  -8 -10  160.25   13.60
  -4  -8 -10  160.07   17.17
   4   8  10  121.00   16.28
   4   8  10  156.48   14.94
  -4   8 -10  175.36   22.33
   5  -8  10   -2.23    5.65
  -5  -8 -10   -4.01    6.11
  -5  -8 -10   10.77    8.19
  -5  -8 -10    4.64    4.86
  -5   8 -10    4.80    8.84
   5   8  10   -2.84    5.85
  -6  -8 -10    8.26    5.88
  -6  -8 -10   -2.98    7.55
   6  -8  10   12.98    7.61
   6   8  10   23.56    9.71
  -6   8 -10   -2.99    8.36
   7  -8  10   25.35    9.89
  -7  -8 -10   17.06   10.83
  -7   8 -10    6.26    9.59
   7   8  10   15.41    9.46
  -8  -9  10    5.40   13.26
   8   9 -10    8.95   10.79
  -8   9  10   19.84   12.72
  -7  -9  10  -17.78    8.41
   7  -9 -10   -7.09    4.06
  -7   9  10    7.12    8.35
   7   9 -10  -11.89    4.80
   6  -9 -10    5.47    6.61
  -6  -9  10   15.62   12.31
   6   9 -10   16.04    9.04
  -6   9  10   18.52    9.89
  -5  -9  10   14.59    8.58
  -5  -9  10    9.13    9.83
  -5   9  10    2.89    6.25
   5   9 -10   24.14   10.11
  -4  -9  10   16.91    8.08
   4   9 -10   34.06   10.48
  -4   9  10   28.65    7.81
  -4   9  10   19.57    5.23
  -3  -9  10   11.33    6.82
   3   9 -10    8.43    6.46
  -2  -9  10   28.76    8.62
   2   9 -10   10.44    9.42
  -1  -9  10   10.90    7.12
   1   9 -10   12.84    8.21
  -1   9  10   14.84    4.05
   0  -9  10   41.39    8.22
   0  -9  10   28.79    8.48
   0  -9 -10   20.61    8.32
   0   9  10   25.25    5.27
   0   9 -10   16.20    8.77
   1  -9  10    5.89    6.40
   1  -9  10    4.53    5.21
  -1  -9 -10    3.74    3.36
  -1  -9 -10    0.86    6.02
  -1   9 -10   22.06   10.89
   1   9  10    3.78    4.17
   1   9  10    6.88    4.72
  -2  -9 -10   70.86   11.70
   2  -9  10   42.38    9.59
   2  -9  10   56.62    9.06
  -2  -9 -10   53.18    8.79
  -2   9 -10   47.37   12.17
   2   9  10   58.49    8.92
   2   9  10   58.27    8.93
  -3  -9 -10    7.73    2.80
   3  -9  10    3.20    5.09
  -3  -9 -10    2.45    5.33
  -3  -9 -10    6.44    5.81
   3   9  10   12.17    5.90
   3   9  10   -3.01    5.81
  -3   9 -10    4.05    7.03
   4  -9  10   15.53    7.61
  -4  -9 -10   -2.34    4.31
  -4  -9 -10    3.40    5.23
  -4  -9 -10   11.09    6.76
  -4   9 -10    6.49    8.28
   4   9  10    1.10    5.73
   5  -9  10    2.31    6.18
  -5  -9 -10   -1.43    4.91
   5   9  10   -2.03    5.94
  -5   9 -10    1.70    8.26
   6  -9  10   20.60    8.77
  -6  -9 -10   36.13    9.40
  -6  -9 -10   32.07   11.79
   6   9  10   40.53   10.57
  -6   9 -10   20.71   11.83
  -7  -9 -10    8.39    7.47
   7  -9  10   13.61    8.80
  -7  -9 -10  -14.44    7.46
   7   9  10    5.46    8.52
  -7   9 -10   12.05   11.26
  -8 -10  10  110.20   23.92
   8  10 -10  147.64   23.38
  -8  10  10  104.99   20.61
   7 -10 -10   -3.21    4.14
  -7 -10  10   12.69   12.48
  -7  10  10   -3.71    7.39
   7  10 -10   -9.17    7.94
  -6 -10  10  143.56   26.91
   6  10 -10  112.89   19.06
  -6  10  10  144.76   18.53
  -5 -10  10    5.69    7.19
  -5 -10  10    3.80    9.19
  -5  10  10    3.14    6.16
   5  10 -10   -7.45    6.00
  -4 -10  10  285.77   21.49
   4  10 -10  233.21   21.40
  -4  10  10  238.32   13.53
  -4  10  10  226.23   16.48
  -3 -10  10    2.78    5.84
   3  10 -10    1.03    6.86
  -2 -10  10  246.55   21.94
   2  10 -10  217.60   19.63
  -1 -10  10   21.10    7.41
   1  10 -10    6.17    6.79
  -1  10  10   11.63    3.66
  -1  10  10   14.63    3.49
   0 -10 -10  393.54   25.03
   0 -10  10  373.87   22.42
   0 -10  10  415.73   22.43
   0  10  10  366.31   16.38
   0  10 -10  415.89   26.80
   0  10  10  363.34   17.79
  -1 -10 -10    2.17    1.18
   1 -10  10    3.70    4.68
  -1 -10 -10    3.38    6.54
   1 -10  10   -0.85    5.03
   1  10  10    5.99    4.22
  -1  10 -10    4.52    7.27
   1  10  10    1.49    3.29
  -2 -10 -10  140.19   14.82
   2 -10  10  116.16   12.33
   2 -10  10  145.57   18.37
   2  10  10  123.76   11.66
   2  10  10  128.49   11.55
  -2  10 -10  104.71   16.21
   3 -10  10   10.09    6.79
  -3 -10 -10    4.16    5.63
  -3 -10 -10    4.46    5.98
   3 -10  10    3.18    5.10
   3  10  10   -0.33    4.74
  -3  10 -10    8.13    7.99
   3  10  10    3.11    5.40
   4 -10  10  201.49   17.89
  -4 -10 -10  242.06   18.19
  -4 -10 -10  168.91   11.56
  -4 -10 -10  201.94   19.04
  -4  10 -10  191.64   21.11
   4  10  10  210.17   17.43
   4  10  10  130.94   16.65
  -5 -10 -10   -3.18    5.79
  -5 -10 -10    1.54    8.60
  -5 -10 -10    2.20    6.79
   5 -10  10    2.32    6.85
   5  10  10   -5.55    5.26
  -5  10 -10  -12.45    6.03
   6 -10  10   46.20   11.12
  -6 -10 -10   41.65   13.27
  -6 -10 -10   74.07   13.46
  -6  10 -10   43.54   14.40
   6  10  10   56.68   12.41
   7 -10  10    3.24    8.14
  -7 -10 -10    6.93    7.80
  -7 -10 -10    5.52    9.72
  -7  10 -10    1.60   10.78
   7  10  10  -13.12    7.05
  -7 -11  10    5.05   14.23
  -7  11  10    6.39    8.57
   7  11 -10    9.30   10.65
  -6 -11  10   28.82    9.86
  -6 -11  10   10.21   12.61
   6  11 -10   34.90   11.68
  -6  11  10   31.90   10.13
  -5 -11  10   11.02    7.38
  -5  11  10    8.86    6.00
   5  11 -10   10.66    7.37
  -4 -11  10   54.42   12.59
   4  11 -10   59.71   14.07
  -4  11  10   59.53    8.47
  -3 -11  10   -1.51    5.14
  -3  11  10   -0.87    2.78
   3  11 -10    5.88    7.52
  -2 -11  10   44.91   10.57
   2  11 -10   60.21   12.80
   1  11 -10   11.91    7.65
  -1  11  10    9.16    3.09
  -1  11  10   11.12    2.56
   0 -11  10  102.90   13.96
   0 -11  10   84.14   12.47
   0 -11 -10  101.59   15.74
   0  11 -10  119.58   16.97
   0  11  10  108.25    7.82
   0  11  10   93.26    7.71
  -1 -11 -10    8.26    6.49
   1 -11  10   -4.12    4.01
   1 -11  10   -2.07    5.95
  -1  11 -10   -1.52    6.11
   1  11  10   -1.74    3.20
   1  11  10   -5.61    3.03
  -2 -11 -10   38.82    6.17
   2 -11  10   50.02   10.26
   2 -11  10   34.02    8.64
  -2 -11 -10   46.99   11.31
   2  11  10   51.99    8.38
   2  11  10   46.34   10.45
  -2  11 -10   31.29   10.07
   3 -11  10   12.54    6.54
  -3 -11 -10    4.28    5.94
  -3 -11 -10    0.08    6.15
   3 -11  10   13.49    6.47
   3  11  10   15.41    6.71
  -3  11 -10   16.17    9.06
   3  11  10   -1.65    5.87
   4 -11  10   17.23    7.88
  -4 -11 -10   32.86   11.35
  -4 -11 -10   30.76    9.44
  -4  11 -10   32.14   10.79
   4  11  10   12.84    8.43
   4  11  10   26.71    8.49
  -5 -11 -10   11.62    8.12
  -5 -11 -10    2.70    5.69
   5 -11  10   -0.55    5.35
  -5 -11 -10   -9.42    4.66
   5  11  10    3.45    5.65
  -5  11 -10   -1.61    7.64
  -6 -11 -10   27.90   10.01
  -6 -11 -10   53.89   15.10
   6 -11  10   50.88   11.08
  -6  11 -10   34.26   12.24
   6  11  10   30.60   10.52
   7 -11  10   -9.81    6.56
  -7 -11 -10   -1.89   17.59
  -7 -11 -10   31.36   10.52
   7  11  10   -0.18    9.18
  -7  11 -10    6.30    9.83
  -7 -12  10   20.66   16.20
  -7 -12  10   49.34   12.89
  -7  12  10   18.57   10.11
   7  12 -10   60.65   15.92
  -6 -12  10   69.71   20.65
  -6 -12  10   30.62   10.96
  -6  12  10   36.31    9.90
   6  12 -10   41.52   12.72
  -5 -12  10    4.75    6.95
   5  12 -10    5.74    7.59
  -5  12  10   -5.22    4.47
  -4 -12  10   27.17    9.72
   4  12 -10   38.38   11.77
  -3 -12  10   24.68    8.74
  -3  12  10   27.05    4.27
   3  12 -10   17.66    9.72
  -2 -12  10    8.73    5.52
   2  12 -10   24.84    9.36
  -2  12  10   21.65    3.47
  -1 -12  10    2.51    6.17
  -1 -12  10    6.40    5.88
  -1  12  10    3.21    2.43
   1  12 -10   17.17    8.62
   0 -12  10   40.76    9.39
   0 -12 -10   33.02   10.11
   0 -12  10   45.84   10.55
   0  12  10   47.03    5.99
   0  12  10   46.27    5.47
   0  12 -10   41.96   10.63
   1 -12  10   28.75    8.53
   1 -12  10   42.98   10.11
  -1 -12 -10   21.19    9.69
   1  12  10   27.55    5.80
  -1  12 -10   11.05    8.13
   1  12  10   20.54    5.49
  -2 -12 -10    7.03    3.19
   2 -12  10    5.90    6.17
   2 -12  10    3.17    5.29
  -2 -12 -10    6.98    7.53
   2  12  10    5.98    4.97
   2  12  10   11.75    5.16
  -2  12 -10    3.63    8.24
   3 -12  10   15.71    7.02
   3 -12  10   11.80    6.83
  -3 -12 -10    8.67    7.26
   3  12  10    5.04    6.06
   3  12  10    8.67    6.36
  -3  12 -10   17.05    9.85
  -4 -12 -10   30.88   10.04
  -4 -12 -10   33.69    9.46
   4 -12  10   36.66    9.07
   4  12  10   32.36   10.07
   4  12  10   35.27   11.18
  -4  12 -10   35.29   12.62
  -5 -12 -10    7.29    7.68
  -5 -12 -10    2.30    9.06
  -5 -12 -10   19.76    5.34
   5 -12  10    8.15    6.84
  -5  12 -10   12.23    9.03
   5  12  10    7.81    7.71
  -6 -12 -10   -0.71    7.13
  -6 -12 -10   -4.08   10.04
   6 -12  10   12.98    7.94
   6  12  10   -5.33    6.89
  -6  12 -10    3.41   11.07
  -6 -13  10   75.88   15.87
   6  13 -10   84.35   17.26
  -6  13  10  101.92   14.40
  -5 -13  10   14.04    8.37
   5  13 -10   -5.41    6.56
  -4 -13  10   81.11   15.09
   4  13 -10  106.37   17.77
  -3 -13  10    0.42    6.01
   3  13 -10   -5.38    6.47
  -3  13  10   -6.98    2.06
  -2 -13  10  113.58   15.10
  -2  13  10  125.84    6.58
   2  13 -10  118.09   17.88
   1 -13 -10   -8.64    6.64
  -1 -13  10    1.34    5.46
  -1 -13  10    3.34    5.60
  -1  13  10    0.01    2.04
   1  13 -10    2.31    7.30
   0 -13  10   76.31   11.75
   0 -13 -10   84.64   15.55
   0 -13  10   86.71   15.95
   0  13  10   73.05    6.25
   0  13 -10   76.94   14.66
   0  13  10   66.54    6.57
   1 -13  10    2.83    5.97
  -1 -13 -10    0.41    6.81
   1 -13  10   -2.27    5.04
  -1  13 -10    3.86    6.51
   1  13  10   -4.82    3.37
   1  13  10   -0.48    4.12
  -2 -13 -10  150.88   19.68
   2 -13  10  175.33   15.46
   2 -13  10  184.43   17.04
   2  13  10  173.05   13.39
   2  13  10  167.95   13.35
  -2  13 -10  183.66   20.34
  -3 -13 -10   -9.48    5.31
  -3 -13 -10   -1.07    5.37
   3 -13  10   -3.08    5.11
   3 -13  10    0.10    5.26
   3  13  10   -6.92    4.92
  -3  13 -10    0.91    7.58
   3  13  10   -8.91    3.55
  -4 -13 -10   35.26   11.04
  -4 -13 -10   56.40   11.49
   4 -13  10   59.32   11.10
  -4  13 -10   49.32   13.72
   4  13  10   23.69   10.81
   5 -13  10   11.90    7.57
  -5 -13 -10   21.74    9.47
  -5 -13 -10   -8.96    8.97
   5  13  10   11.79    8.24
  -5  13 -10   20.00   11.24
  -6 -13 -10   97.55   16.68
   6 -13  10  135.20   16.61
  -6 -13 -10  133.11   22.11
   6  13  10  116.62   17.80
  -6 -14  10   13.02    9.91
  -6  14  10    6.16    6.00
   6  14 -10   12.81   10.20
  -5 -14  10   -0.68    7.28
   5  14 -10  -10.93    6.34
  -4 -14  10    6.99    8.40
  -4  14  10    4.80    4.03
   4  14 -10    8.27    8.18
  -3 -14  10  130.98   16.98
   3  14 -10   99.92   16.08
  -3  14  10  109.67    6.06
  -2 -14  10   31.62   10.66
  -2 -14  10   20.50    7.64
  -2  14  10   17.57    2.36
   2  14 -10    8.95    8.71
  -1 -14  10   14.84    7.26
   1 -14 -10   -0.36    7.67
  -1 -14  10   -3.06    4.82
   1  14 -10    2.05    7.34
   0 -14  10   14.61    6.87
   0 -14  10   18.86    7.98
   0 -14 -10   37.54   12.46
   0  14  10   10.68    3.84
   0  14 -10   25.23   10.07
   0  14  10   19.32    2.60
   1 -14  10  115.66   13.96
   1 -14  10   92.59   14.73
  -1 -14 -10   81.19   15.17
  -1  14 -10   94.64   16.04
   1  14  10   78.11    8.20
   1  14  10   80.29    9.37
  -2 -14 -10   -0.80    7.23
   2 -14  10    2.62    5.97
   2  14  10   13.71    5.57
   2  14  10    7.54    5.53
  -2  14 -10   18.61    9.52
  -3 -14 -10   -8.70    5.15
   3 -14  10    5.06    5.77
  -3 -14 -10   -8.01    4.20
  -3  14 -10   -6.25    6.67
   3  14  10   -0.05    5.37
   3  14  10    0.85    5.57
   4 -14  10   19.61    7.63
  -4 -14 -10   22.91   11.31
  -4  14 -10   31.94   12.64
   4  14  10    9.31    9.82
   4  14  10   27.80    8.73
   5 -14  10   50.36   10.41
  -5 -14 -10   53.57   20.59
  -5 -14 -10   54.40   14.45
  -5  14 -10   52.99   14.54
   5  14  10   70.64   13.28
  -5 -15  10  136.17   18.54
   5  15 -10  104.85   18.91
  -4 -15  10   24.84    9.04
   4  15 -10   17.82   10.05
  -4  15  10   21.59    5.17
  -3 -15  10    1.66    6.22
   3  15 -10    2.40    7.52
  -3  15  10   -2.16    1.79
  -2 -15  10   30.85   10.79
  -2 -15  10   19.51    7.93
   2  15 -10   22.22   10.55
   1 -15 -10   46.46   13.40
  -1 -15  10   62.04   13.58
  -1 -15  10   84.88   12.70
   1  15 -10   65.51   14.23
  -1  15  10   57.43    4.48
   0 -15  10   18.18    8.38
   0 -15 -10   24.08   11.05
   0 -15  10   17.46    6.72
   0  15  10   16.26    3.77
   0  15 -10   10.23    7.44
   1 -15  10    9.69    6.69
   1 -15  10    7.22    8.73
  -1 -15 -10   11.77    8.85
  -1  15 -10   -1.37    6.59
   1  15  10    6.95    3.83
   1  15  10    4.46    4.31
   2 -15  10   42.90    8.79
  -2 -15 -10   45.48   13.15
   2 -15  10   36.61   10.57
   2  15  10   21.67    6.45
   2  15  10   37.78    7.69
  -2  15 -10   14.34    8.98
   3 -15  10   84.87   14.86
  -3 -15 -10   65.13   14.78
   3 -15  10   72.85   11.10
   3  15  10   77.65   11.74
   3  15  10   46.86   10.27
  -3  15 -10   77.59   16.69
  -4 -15 -10  -23.89    8.94
   4 -15  10   16.06    6.94
  -4 -15 -10   -4.12    6.77
  -4  15 -10   19.88   11.04
   4  15  10    6.14    6.64
  -5 -15 -10   25.16   12.83
   5 -15  10   17.93    7.83
  -5 -15 -10    8.04   18.25
   5  15  10   -1.61    7.58
  -5  15 -10    0.11   11.44
   5  16 -10  -10.66    7.45
  -4 -16  10   46.24   11.82
   4  16 -10   28.76   10.76
  -3 -16  10   -2.70    5.59
  -3 -16  10    5.38    8.40
   3  16 -10    2.66    7.78
  -2 -16  10   10.29    7.63
  -2 -16  10   13.56    9.92
   2  16 -10   14.59    9.62
   1 -16 -10   12.40   10.65
  -1 -16  10   -9.45    5.22
  -1 -16  10   -1.16    5.14
   1  16 -10   -2.41    7.23
  -1  16  10    4.48    2.02
   0 -16 -10   45.69   14.33
   0 -16  10   64.04   13.89
   0 -16  10   37.24    8.78
   0  16 -10   55.40   12.58
   0  16  10   49.41    5.90
   1 -16  10   -4.97    5.43
  -1 -16 -10    7.06   10.05
   1 -16  10   11.70    6.00
   1  16  10    1.57    3.94
  -1  16 -10   11.89    9.04
   2 -16  10    2.90   11.47
   2 -16  10   26.78    7.43
   2 -16  10   26.87   10.27
  -2 -16 -10   12.27    9.63
   2  16  10   18.33    6.25
  -2  16 -10   22.85   10.77
   2  16  10   18.83    6.08
   3 -16  10   10.78    8.80
   3 -16  10   10.71    6.61
  -3 -16 -10   -6.35    7.51
   3  16  10   -6.33    5.28
  -3  16 -10  -13.83    6.63
   4 -16  10   43.18    9.03
  -4 -16 -10   51.20   14.16
  -4  16 -10   67.86   15.82
   4  16  10   54.58   11.00
  -4 -17  10    0.26    9.11
  -4 -17  10    0.28    6.86
   4  17 -10   -4.04    8.12
  -3 -17  10  -11.38    8.36
  -3 -17  10    7.81    6.39
   3  17 -10   -6.45    8.49
  -2 -17  10   -2.92    5.26
  -2 -17  10   -7.02    7.53
   2  17 -10   -2.44    6.67
  -1 -17  10  167.11   21.91
   1 -17 -10  167.77   23.92
  -1 -17  10  201.76   16.01
  -1  17  10  161.53    7.17
   1  17 -10  158.97   21.44
   0 -17  10   14.05    6.59
   0 -17  10   11.95    8.86
   0 -17 -10   10.44   10.74
   0  17 -10   -5.97    8.50
   0  17  10   -1.79    3.68
  -1 -17 -10   18.97   11.16
   1 -17  10    7.07    8.99
   1 -17  10    6.14    5.71
   1  17  10    4.42    2.89
  -1  17 -10    5.91    8.50
   1  17  10    8.06    5.10
   1  17  10    2.99    2.66
  -2 -17 -10   -4.37    7.99
   2 -17  10    5.19    6.74
   2 -17  10   14.42    8.53
  -2  17 -10   -0.86    7.82
   2  17  10   -3.70    4.46
  -3 -17 -10  141.40   22.25
   3 -17  10  143.46   20.49
   3 -17  10  135.02   18.74
   3  17  10  141.93   14.66
  -3  17 -10  116.80   19.20
  -2 -18  10  -10.00    7.63
  -2 -18  10   -0.07    6.17
   2  18 -10   12.53   12.82
   1 -18 -10  -10.01    9.01
  -1 -18  10    4.25    5.84
  -1 -18  10  -11.42    7.68
   1  18 -10    6.12    8.70
   0 -18  10    2.29    8.47
   0 -18  10    8.61    6.03
   0 -18 -10  -12.38    8.12
   0  18  10    7.19    3.96
   0  18 -10   -1.93    8.11
   1 -18  10   94.31   17.95
  -1 -18 -10   91.40   19.18
   1  18  10   94.90   10.31
  -1  18 -10   98.55   17.29
   9   0 -11   -6.28    6.79
  -9   0  11   17.66   14.58
  -8   0  11   -5.81    9.38
   8   0 -11    7.63    8.78
   7   0 -11   30.11   10.04
  -7   0  11   32.88   12.77
   6   0 -11   -2.76    5.39
  -6   0  11   -7.20    7.34
   5   0 -11    3.68    5.00
  -5   0  11   -4.10    5.93
  -4   0  11    4.14    7.60
   4   0 -11   -4.37    5.62
   3   0 -11   -1.03    5.28
  -2   0  11   -2.77    4.17
  -2   0  11   -6.90    4.61
   2   0 -11   10.18    7.51
   2   0 -11    0.00    5.11
   1   0 -11   -0.33    4.65
   1   0 -11   -8.75    4.63
  -1   0  11    4.42    4.94
  -1   0  11   -3.27    4.45
   0   0  11   -0.02    4.74
   0   0  11    2.45    5.25
   0   0 -11    0.85    4.46
   1   0  11    5.15    1.88
   1   0  11   -0.60    4.57
  -1   0 -11    1.12    5.42
  -1   0 -11   -6.39    3.47
   1   0  11   -7.11    4.19
  -2   0 -11   -4.26    4.76
  -2   0 -11    0.85    4.43
   2   0  11   12.20    6.18
   2   0  11   -4.04    4.48
   3   0  11   -1.55    5.01
   3   0  11   -3.55    5.40
  -3   0 -11    3.38    6.05
  -4   0 -11   -9.96    5.46
   5   0  11    7.35    6.32
  -5   0 -11    1.40    7.71
  -6   0 -11   -1.34    7.87
   6   0  11   -1.67    6.42
  -7   0 -11   20.32   11.49
   7   0  11   10.18    7.92
  -7   0 -11    0.79    2.70
  -8   0 -11    3.91   10.33
   8   0  11   -2.71    7.27
   9  -1 -11    7.90    9.94
  -9   1  11   23.33   14.38
   9   1 -11   28.84   12.61
  -8  -1  11    9.57    9.88
   8  -1 -11    2.17    6.23
   8   1 -11  -10.54    7.21
  -8   1  11   20.85   11.51
  -7  -1  11  211.97   29.60
   7  -1 -11  198.76   19.20
   7   1 -11  215.21   20.36
  -7   1  11  216.44   29.11
   6  -1 -11    1.03    5.71
  -6  -1  11   -3.85    6.33
  -6   1  11    9.78    9.67
   6   1 -11    4.37    6.31
   5  -1 -11   55.87   10.75
  -5  -1  11   45.44   12.89
   5   1 -11   49.87   10.58
  -5   1  11   40.76   12.83
   4  -1 -11    2.63    5.65
  -4  -1  11  -13.76    6.54
  -4   1  11   -0.42    8.10
   4   1 -11    6.08    6.48
   3  -1 -11  339.55   19.97
   3   1 -11  323.35   20.58
  -2  -1  11   23.43    7.27
  -2  -1  11   19.67    6.69
   2  -1 -11   25.81    8.18
   2  -1 -11   22.34    7.21
  -2   1  11   26.78    7.01
  -2   1  11   22.37    7.11
   2   1 -11   22.55    7.51
   2   1 -11   27.13   11.02
  -1  -1  11   95.27   12.63
   1  -1 -11  123.17   11.56
  -1  -1  11  116.42   11.94
   1  -1 -11  117.38   16.14
  -1   1  11  108.93   11.50
   1   1 -11  134.14   13.11
  -1   1  11  126.70   12.17
   1   1 -11  109.94   16.51
   0  -1 -11   17.46    6.26
   0  -1  11   19.96    6.92
   0  -1  11   24.07    7.07
   0   1 -11   12.12    5.76
   0   1  11   15.02    5.74
   0   1  11   14.58    6.17
   1  -1  11  250.40   17.09
  -1  -1 -11  217.02   14.51
   1  -1  11  249.27   17.54
  -1  -1 -11  235.65   16.72
   1  -1  11  248.60    8.51
   1   1  11  257.90   10.50
  -1   1 -11  258.81   18.16
   1   1  11  274.10   17.52
   1   1  11  263.16   17.00
  -1   1 -11  221.22   17.48
   2  -1  11   61.13   10.71
  -2  -1 -11   57.75   10.46
   2  -1  11   66.78   11.33
  -2   1 -11   66.91   11.42
   2   1  11   52.82   10.28
  -2   1 -11   53.75    9.25
   2   1  11   49.26    9.68
  -3  -1 -11  149.32   15.62
   3  -1  11  145.04   15.09
  -3  -1 -11  122.06   12.16
   3   1  11  144.65   14.98
   3   1  11  131.06   14.16
  -3   1 -11  122.57   15.87
   4  -1  11   28.29   11.29
  -4  -1 -11   17.34    8.75
   4   1  11   28.78    9.15
  -4   1 -11   11.98    7.88
   5  -1  11  153.00   18.89
  -5  -1 -11  121.73   17.60
  -5   1 -11  135.70   18.80
   5   1  11  147.60   17.95
   6  -1  11   55.00   12.62
  -6  -1 -11   49.92   13.40
  -6  -1 -11   45.98    3.79
  -6   1 -11   52.55   13.16
   6   1  11   67.53   13.09
   7  -1  11   81.83   14.68
  -7  -1 -11  103.49   19.23
  -7   1 -11  107.44   19.42
   7   1  11   75.80   15.24
  -8  -1 -11   -3.83    7.83
   8  -1  11   10.57    8.89
   8   1  11  -10.05    7.42
  -8   1 -11   -9.87    8.36
   9  -2 -11  129.34   19.75
   9   2 -11  156.38   22.75
  -9   2  11  147.56   32.19
   8  -2 -11   12.72    8.71
  -8  -2  11   12.80   11.24
   8   2 -11   14.42    8.97
  -8   2  11    5.77   11.23
  -7  -2  11   44.99   16.17
   7  -2 -11    6.90    6.25
   7   2 -11   32.75   11.04
  -7   2  11   24.77   12.93
  -6  -2  11    1.62    8.88
   6  -2 -11    1.22    5.42
  -6   2  11    4.45    9.06
   6   2 -11   12.32    7.79
   5  -2 -11  255.51   18.34
  -5  -2  11  230.47   25.36
  -5   2  11  241.24   23.47
   5   2 -11  271.80   20.69
  -4  -2  11    5.48    9.66
   4  -2 -11   20.29    7.50
   4   2 -11   22.31    8.72
  -4   2  11   11.11    9.31
   3  -2 -11   23.66    7.40
   3   2 -11   36.77    9.06
   2  -2 -11    8.68    5.30
  -2  -2  11   24.64    8.17
  -2  -2  11    7.32    5.79
   2  -2 -11   15.67    6.82
  -2   2  11    4.33    4.53
  -2   2  11    8.32    5.53
   2   2 -11    8.38    6.62
   1  -2 -11  454.15   21.10
  -1  -2  11  430.70   23.19
  -1  -2  11  413.99   22.56
   1  -2 -11  368.21   23.82
   1   2 -11  461.70   23.89
  -1   2  11  429.94   20.95
  -1   2  11  402.15   20.17
  -1   2  11  385.91   20.73
   1   2 -11  344.14   26.38
   0  -2  11   46.45    9.38
   0  -2  11   31.37    7.89
   0  -2 -11   38.47    7.81
   0   2  11   64.26    9.50
   0   2 -11   56.17   10.30
   0   2  11   53.08    7.06
   0   2  11   45.81    8.39
  -1  -2 -11  108.29   12.66
  -1  -2 -11  110.38    9.87
   1  -2  11   94.96   12.63
   1  -2  11  101.39   13.09
  -1   2 -11   96.55   13.13
  -1   2 -11  108.80   11.08
   1   2  11   99.63   12.04
   1   2  11  104.75   12.59
   1   2  11  102.38    8.00
   2  -2  11   17.38    7.57
  -2  -2 -11   11.48    6.23
   2  -2  11   12.90    6.59
  -2  -2 -11   18.85    6.27
  -2   2 -11   13.31    7.32
   2   2  11   23.90    7.32
  -2   2 -11   20.50    7.21
   2   2  11   21.60    7.31
   3  -2  11  191.73   16.99
  -3  -2 -11  189.78   17.01
  -3  -2 -11  165.57   14.11
   3   2  11  159.48   15.44
   3   2  11  186.26   16.13
  -3   2 -11  160.08   17.48
   4  -2  11   17.36    8.19
  -4  -2 -11   12.51    8.12
   4   2  11   17.92    7.32
  -4   2 -11    8.32    8.49
  -5  -2 -11  115.26    6.01
  -5  -2 -11  123.69   17.84
   5  -2  11  106.58   15.75
  -5   2 -11  113.67   17.53
   5   2  11  112.52   15.95
   6  -2  11    5.81    8.09
  -6  -2 -11    3.56    8.03
  -6   2 -11    8.38    9.10
   6   2  11   16.89    8.07
  -7  -2 -11   50.60   15.20
  -7  -2 -11   72.64    7.29
   7  -2  11   62.97   14.13
  -7   2 -11   78.50   17.24
   7   2  11   62.51   13.53
  -8  -2 -11    8.36   12.29
  -8  -2 -11    7.30    5.03
   8  -2  11   31.51   12.11
   8   2  11    9.81    9.47
  -8   2 -11    9.38   11.93
   9  -3 -11   -1.89    8.00
   9   3 -11   15.09    9.56
   8  -3 -11   56.31   13.03
  -8  -3  11   51.25   17.12
   8   3 -11   49.73   13.63
  -8   3  11   78.21   19.49
  -7  -3  11   -0.93    8.02
   7  -3 -11   -5.34    5.33
   7   3 -11    0.85    6.79
  -7   3  11  -13.19    6.53
  -6  -3  11   16.16   11.43
   6  -3 -11    4.56    6.22
  -6   3  11    8.24    9.79
   6   3 -11   18.82    9.34
   5  -3 -11    2.64    5.01
  -5  -3  11    7.11    9.55
   5   3 -11    4.98    7.22
  -5   3  11   26.41   11.35
  -4  -3  11   63.26   16.61
   4  -3 -11   68.63   10.51
  -4   3  11   73.96   15.71
   4   3 -11   95.11   14.12
   3  -3 -11  -10.33    4.61
   3   3 -11    0.82    6.12
  -2  -3  11    6.50    6.02
   2  -3 -11   -1.79    4.05
   2  -3 -11    7.40    6.18
  -2  -3  11    0.28    5.49
  -2   3  11    2.02    6.23
  -2   3  11    3.70    4.37
   2   3 -11   -2.69    5.32
   1  -3 -11    8.83    6.39
  -1  -3  11    9.62    5.57
   1  -3 -11    2.42    4.28
  -1  -3  11    4.28    5.02
  -1   3  11    4.57    4.64
   1   3 -11    0.49    7.38
   1   3 -11    3.31    5.87
  -1   3  11   -3.40    4.09
  -1   3  11   -6.45    3.89
   0  -3 -11  139.44   12.26
   0  -3  11  164.46   14.44
   0  -3  11  156.41   13.86
   0   3  11  137.32   10.31
   0   3 -11  174.89   13.42
   0   3  11  132.50   12.09
   0   3 -11  146.29   14.71
   0   3  11  139.70   12.16
   1  -3  11    5.45    5.45
  -1  -3 -11    7.50    3.97
   1  -3  11    2.26    4.44
  -1  -3 -11   13.26    6.10
   1   3  11    6.76    3.47
  -1   3 -11    5.99    4.85
   1   3  11    7.26    4.77
  -1   3 -11    3.44    6.14
   1   3  11   11.12    5.67
  -2  -3 -11    5.62    6.12
   2  -3  11   -2.13    5.68
  -2  -3 -11   -3.73    3.75
  -2   3 -11    0.22    6.56
   2   3  11   -1.49    5.23
   2   3  11    1.45    5.25
  -3  -3 -11    8.23    6.96
   3  -3  11    9.18    7.71
  -3  -3 -11   10.85    5.76
  -3   3 -11   13.71    9.06
   3   3  11   15.33    7.35
   3   3  11    0.09    6.12
  -4  -3 -11   78.01    5.93
   4  -3  11  104.82   14.90
  -4  -3 -11   97.08   15.18
   4   3  11  100.31   14.18
  -4   3 -11   67.87   13.11
  -5  -3 -11    3.39    7.32
   5  -3  11   -8.56    5.15
   5   3  11    8.10    6.18
  -5   3 -11    3.03    7.14
   6  -3  11   -8.32    5.63
  -6  -3 -11  -11.21    5.69
  -6  -3 -11   -2.16    2.75
   6   3  11    1.61    7.15
  -6   3 -11   -0.13    8.55
  -7  -3 -11   13.72    4.87
   7  -3  11   11.08    9.08
  -7  -3 -11   17.64   11.45
   7   3  11   10.78    7.02
  -7   3 -11    7.78    9.61
  -8  -3 -11   28.96    6.90
  -8  -3 -11   54.58   16.64
   8  -3  11   49.35   13.45
   8   3  11   64.72   14.93
  -8   3 -11   45.49   16.11
   9  -4 -11  142.84   20.18
  -9  -4  11   84.64   26.27
   9   4 -11  166.98   24.45
  -8  -4  11  -12.91    7.50
   8  -4 -11    9.40    8.06
   8   4 -11    2.84    8.61
  -8   4  11    3.94   10.26
  -7  -4  11   39.81   14.24
   7  -4 -11   36.74    9.90
   7   4 -11   44.38   11.83
  -7   4  11   11.94    9.70
  -6  -4  11    4.38    9.64
   6  -4 -11    5.98    5.88
   6   4 -11   16.68    9.13
  -6   4  11   17.84   11.06
  -5  -4  11  199.43   27.69
   5  -4 -11  260.92   17.12
   5   4 -11  240.63   20.49
  -5   4  11  231.78   22.62
   4  -4 -11    2.86    4.93
  -4  -4  11    5.10    9.62
  -4   4  11    2.34    6.83
   4   4 -11   10.51    6.55
   3  -4 -11   45.18    8.65
  -3  -4  11   38.70    9.51
   3  -4 -11   45.49    7.67
   3   4 -11   51.22   11.15
   2  -4 -11   65.49    8.37
  -2  -4  11   61.53   11.32
   2  -4 -11   53.89    9.30
  -2  -4  11   79.26   12.27
  -2   4  11   61.40   11.16
   2   4 -11   64.11   11.44
  -2   4  11   65.70    9.44
  -1  -4  11  313.92   19.89
  -1  -4  11  269.86   18.67
   1  -4 -11  286.89   18.92
   1  -4 -11  292.33   15.51
   1   4 -11  277.22   19.79
  -1   4  11  307.94   18.06
  -1   4  11  254.52   16.05
  -1   4  11  282.57   16.36
   0  -4  11    3.79    4.76
   0  -4  11    8.79    6.40
   0  -4 -11    7.30    4.93
   0   4  11    7.07    4.68
   0   4 -11   -0.22    4.25
   0   4 -11   -0.80    5.97
   0   4  11    2.54    4.55
   0   4  11    2.46    3.72
   1  -4  11   87.63    6.20
   1  -4  11  119.34   14.68
   1  -4  11  112.48   15.78
  -1  -4 -11  118.06   11.29
   1   4  11  103.85   10.64
   1   4  11   97.61    8.73
  -1   4 -11   88.37   13.64
   1   4  11  103.66   12.07
   2  -4  11    0.88    5.55
  -2  -4 -11   12.66    5.27
  -2  -4 -11    9.29    6.14
   2   4  11    4.80    5.52
   2   4  11    3.18    5.88
  -2   4 -11   -1.04    6.93
  -3  -4 -11  130.82   14.46
  -3  -4 -11  127.80    8.98
  -3  -4 -11  111.55   11.36
   3  -4  11  121.23   15.47
  -3   4 -11  167.29   17.85
   3   4  11  127.24   21.92
   3   4  11  148.41   14.17
  -4  -4 -11   29.42    5.04
   4  -4  11   39.73   10.57
  -4  -4 -11   17.45    8.73
  -4  -4 -11   39.89    9.53
   4   4  11   26.36    8.78
  -4   4 -11   46.53   11.79
   5  -4  11   74.11   13.55
  -5  -4 -11   94.81   16.62
  -5  -4 -11   81.73    7.37
   5   4  11   86.08   14.48
  -5   4 -11   64.39   13.73
  -6  -4 -11   13.34    4.89
   6  -4  11    2.46    7.61
  -6  -4 -11    1.17    8.19
   6   4  11   12.76    8.22
  -6   4 -11    6.61    9.19
   7  -4  11   17.64    9.13
  -7  -4 -11   46.79   14.76
  -7  -4 -11   38.71    7.37
   7   4  11   50.18   12.43
  -7   4 -11   30.38   12.80
  -8  -4 -11    8.41   12.73
   8  -4  11   19.54    9.36
  -8  -4 -11   12.22    5.97
   8   4  11   19.40   10.55
  -8   4 -11   -0.44   10.95
  -8  -5  11   53.39   18.61
   8  -5 -11   26.23    9.99
  -8   5  11   26.58   15.06
   8   5 -11   54.48   14.97
   7  -5 -11   81.13   13.21
  -7  -5  11   79.95   20.53
   7   5 -11   67.05   14.92
  -7   5  11   54.62   15.75
   6  -5 -11   21.82    8.04
  -6  -5  11   21.04   12.35
  -6   5  11   35.74   13.29
   6   5 -11   29.93   11.30
  -5  -5  11   22.50   11.29
   5  -5 -11   26.27    6.67
  -5   5  11   12.96    8.88
   5   5 -11   24.21    9.45
   4  -5 -11   66.85    9.22
  -4  -5  11   31.16   13.70
   4   5 -11   63.88   12.56
  -4   5  11   53.45   12.31
   3  -5 -11   78.71    8.38
  -3  -5  11   56.69   10.97
   3  -5 -11   63.64    9.20
   3   5 -11   83.18   13.57
  -2  -5  11   10.36    6.93
   2  -5 -11    4.53    4.10
  -2   5  11   12.38    5.22
   2   5 -11    3.81    6.46
  -2   5  11    7.35    6.18
   1  -5 -11   31.35    7.20
   1  -5 -11   38.02    6.11
  -1  -5  11   33.95    9.14
  -1   5  11   29.47    6.55
  -1   5  11   40.65    7.41
   1   5 -11   25.89    8.65
  -1   5  11   40.78   10.28
   0  -5 -11   56.99   10.02
   0  -5  11   72.91   11.88
   0  -5 -11   56.00    7.79
   0   5 -11   63.90   11.87
   0   5  11   59.36    8.88
   0   5  11   70.92    9.14
   0   5  11   67.44    9.26
  -1  -5 -11  117.74   11.44
   1  -5  11  133.58    9.68
   1  -5  11  121.41   14.86
   1   5  11  121.29   10.35
   1   5  11  140.13   12.15
   1   5  11  129.76   11.67
  -1   5 -11  148.50   16.12
  -2  -5 -11   24.67    5.77
   2  -5  11   29.31    8.90
  -2  -5 -11   18.70    7.14
  -2  -5 -11   21.17    5.44
  -2   5 -11   25.32    8.40
   2   5  11   29.13    8.33
   2   5  11   35.55    8.02
  -3  -5 -11   25.50    6.53
   3  -5  11   25.35   10.84
  -3  -5 -11   29.56    8.70
  -3  -5 -11   16.03    4.88
  -3   5 -11   24.75    9.60
   3   5  11   22.52    8.06
   3   5  11   21.79    7.95
  -4  -5 -11   93.34    8.55
  -4  -5 -11   76.97   13.33
   4  -5  11  108.84   15.77
  -4  -5 -11   63.43    9.95
  -4   5 -11  117.32   17.55
   4   5  11   60.91   11.55
   4   5  11   78.55   13.31
  -5  -5 -11   89.56    8.57
   5  -5  11  125.14   17.77
  -5  -5 -11  130.24   18.38
  -5   5 -11   94.87   16.64
   5   5  11   86.35   14.09
  -6  -5 -11   22.49   17.46
   6  -5  11   13.41    8.25
  -6  -5 -11   15.12    5.33
   6   5  11   24.41    9.58
  -6   5 -11   16.32   11.34
   7  -5  11   -3.42    6.64
  -7  -5 -11    6.49    4.83
  -7  -5 -11   26.00   10.76
   7   5  11   16.43    8.45
  -7   5 -11    3.02    9.85
  -8  -5 -11   48.55   16.87
  -8  -5 -11   40.33    8.22
   8  -5  11   63.38   13.90
  -8   5 -11   49.41   16.57
   8   5  11   49.93   13.79
   8  -6 -11   26.52    9.92
  -8  -6  11   -4.75   10.76
  -8   6  11   43.82   14.20
   8   6 -11   17.05   10.57
   7  -6 -11    2.99    5.92
  -7  -6  11    0.23    9.41
   7   6 -11   16.68    9.20
  -7   6  11    9.35    8.55
  -6  -6  11  162.58   26.73
   6  -6 -11  150.24   13.52
  -6   6  11  176.94   23.50
   6   6 -11  145.55   20.23
  -5  -6  11   -4.09    7.64
   5  -6 -11   10.99    5.17
  -5   6  11   -3.30    6.67
   5   6 -11   10.83    7.62
   4  -6 -11   50.58    8.15
   4   6 -11   79.76   13.87
  -4   6  11   61.72   12.16
  -3  -6  11   72.09   12.50
   3  -6 -11   47.76    8.15
   3   6 -11   42.67   11.25
   2  -6 -11  238.78   13.07
  -2  -6  11  218.67   18.08
  -2   6  11  248.90   14.42
   2   6 -11  235.83   18.85
  -1  -6  11    4.79    6.39
   1  -6 -11   -0.29    3.74
  -1   6  11   -1.52    3.24
  -1   6  11   -9.24    4.28
   1   6 -11   -8.42    5.53
  -1   6  11    6.64    4.70
   0  -6 -11    8.24    4.52
   0  -6  11   14.80    7.38
   0   6 -11    4.95    6.01
   0   6  11    1.53    4.57
   0   6  11   10.22    5.70
   0   6  11    1.23    3.77
   1  -6  11   46.12    6.67
  -1  -6 -11   51.46    8.27
   1  -6  11   47.70   10.69
  -1   6 -11   47.53   11.40
   1   6  11   45.12    8.22
   1   6  11   39.51    7.61
   1   6  11   52.39    8.83
   2  -6  11  347.15   14.42
  -2  -6 -11  325.90   15.64
   2  -6  11  375.39   23.39
  -2  -6 -11  357.13   20.90
  -2  -6 -11  345.49   18.70
   2   6  11  365.63   20.24
   2   6  11  331.23   19.97
  -2   6 -11  395.14   25.30
  -3  -6 -11    3.48    4.31
  -3  -6 -11   -6.32    5.01
   3  -6  11   -5.19    6.14
  -3  -6 -11    1.41    3.98
   3   6  11    1.64    5.42
   3   6  11   -0.25    5.87
  -3   6 -11    4.92    7.95
  -4  -6 -11   -0.28    3.83
  -4  -6 -11   -1.58    6.35
   4  -6  11   -1.20    5.52
  -4  -6 -11    0.47    4.96
  -4   6 -11    6.18    6.33
   4   6  11    6.28    6.47
   4   6  11   -6.40    5.50
  -5  -6 -11   38.94    7.25
   5  -6  11   44.80   11.18
  -5  -6 -11   58.34   12.75
  -5   6 -11   46.72   12.62
   5   6  11   30.12    9.19
  -6  -6 -11  186.49   13.91
  -6  -6 -11  217.32   22.42
   6  -6  11  212.65   19.84
   6   6  11  242.82   20.72
  -6   6 -11  185.27   23.85
   7  -6  11   18.41    9.96
  -7  -6 -11    9.35    5.40
  -7  -6 -11   -8.47    8.80
  -7   6 -11    9.18   10.14
   7   6  11   11.44    7.28
  -8  -6 -11   -4.61    5.25
  -8  -6 -11   -3.54   11.16
   8  -6  11    4.75    8.75
  -8   6 -11  -16.69    9.27
  -8  -7  11    5.67   10.45
   8  -7 -11    0.27    7.11
   8   7 -11    6.44    8.72
  -8   7  11   20.18   12.09
  -7  -7  11   10.49   11.27
   7  -7 -11   30.70    7.82
   7   7 -11   36.39   12.79
  -7   7  11   31.29   12.16
  -6  -7  11    3.68    8.45
   6  -7 -11   -2.94    4.47
  -6   7  11   -6.99    5.81
   6   7 -11    4.64    8.31
  -5  -7  11    4.90    9.96
  -5   7  11   14.57    7.91
   5   7 -11   11.58    7.41
   4  -7 -11   15.80    3.95
  -4  -7  11   33.57    9.62
   4  -7 -11   16.05    4.78
  -4   7  11   19.28    5.90
  -4   7  11   12.80    7.51
   4   7 -11   18.63    8.91
   3  -7 -11   79.31    6.31
   3  -7 -11   87.90    6.10
  -3  -7  11   87.88   16.85
   3   7 -11   86.81   14.61
  -2  -7  11   21.50    8.09
   2  -7 -11   12.12    2.79
   2  -7 -11   16.95    3.38
  -2   7  11   12.67    4.57
   2   7 -11   18.74    7.71
   1  -7 -11   30.00    4.27
  -1  -7  11   34.43    9.46
   1  -7 -11   38.56    5.38
   1   7 -11   30.67   10.01
  -1   7  11   23.89    8.21
  -1   7  11   39.25    7.04
  -1   7  11   51.89    7.51
   0  -7  11   24.08    8.53
   0  -7 -11   24.02    5.67
   0   7  11   18.77    5.61
   0   7  11   17.48    5.67
   0   7 -11   15.66    9.09
   0   7  11   11.63    6.82
  -1  -7 -11   37.03    6.90
   1  -7  11   35.11    6.61
   1  -7  11   35.04    9.85
  -1  -7 -11   23.30    7.82
   1   7  11   43.82    7.92
  -1   7 -11   44.15   10.92
   1   7  11   37.87    7.33
  -2  -7 -11   36.96    8.32
  -2  -7 -11   53.98    9.70
   2  -7  11   45.90   10.06
   2  -7  11   31.80    5.87
   2   7  11   40.48    7.90
   2   7  11   37.88    8.18
  -2   7 -11   49.43   12.35
  -3  -7 -11   68.34    9.94
   3  -7  11   78.60   13.29
  -3  -7 -11   87.01    8.39
  -3  -7 -11   61.14   11.55
  -3   7 -11   78.45   14.83
   3   7  11   66.62   11.04
   3   7  11   59.68   10.73
  -4  -7 -11   23.09    8.76
  -4  -7 -11   29.99    6.96
  -4  -7 -11   18.85    6.64
   4  -7  11   35.34   10.05
   4   7  11    5.75    7.30
  -4   7 -11   31.17   11.57
   4   7  11   28.14    8.91
  -5  -7 -11    2.99    7.14
  -5  -7 -11   18.32    6.32
   5  -7  11   13.77    8.19
  -5   7 -11   10.03    8.59
   5   7  11   21.14    8.52
   6  -7  11   11.38    7.61
  -6  -7 -11    8.83    4.87
  -6  -7 -11    2.65    9.44
  -6   7 -11   12.73   10.98
   6   7  11    2.46    7.55
  -7  -7 -11   52.71   15.51
  -7  -7 -11   21.48    7.96
   7  -7  11   26.60   10.59
  -7   7 -11   56.50   16.23
   7   7  11   45.25   12.26
  -8  -8  11    1.61   11.80
   8  -8 -11   10.68    8.28
   8   8 -11   28.32   12.03
  -8   8  11   32.93   12.99
  -7  -8  11    7.08   10.86
  -7   8  11    5.66    9.52
   7   8 -11    8.67    9.99
  -6  -8  11  116.86   23.58
   6   8 -11  167.10   22.21
  -6   8  11  141.12   19.36
   5  -8 -11   14.60    3.90
   5  -8 -11    5.30    4.26
  -5  -8  11   16.09   12.10
  -5   8  11   -3.38    6.22
   5   8 -11   13.41    8.29
   4  -8 -11   13.64    2.21
  -4  -8  11   11.92    7.95
   4  -8 -11   15.80    2.30
   4   8 -11   25.56    9.18
  -4   8  11   15.50    5.41
  -4   8  11    8.34    6.32
  -3  -8  11   -3.70    5.89
   3   8 -11   -3.27    6.29
  -2  -8  11  290.58   24.32
   2   8 -11  306.05   22.53
  -2   8  11  292.60   14.34
  -1  -8  11   32.25    9.67
  -1   8  11   11.73    4.56
  -1   8  11   13.12    4.87
   1   8 -11   14.07    8.64
   0  -8 -11   21.37    3.76
   0  -8  11   33.64    8.97
   0  -8 -11   22.43    4.33
   0   8  11   25.32    5.88
   0   8  11   30.63    8.40
   0   8 -11   34.00   10.83
   0   8  11   24.07    5.86
   1  -8  11   12.91    5.14
   1  -8  11    9.57    6.91
  -1  -8 -11    1.57    6.06
   1   8  11    4.09    4.86
  -1   8 -11    7.38    8.73
   1   8  11    9.36    4.67
  -2  -8 -11  239.26   17.01
   2  -8  11  244.90   14.35
  -2  -8 -11  251.09   16.38
   2   8  11  255.49   16.89
   2   8  11  221.01   15.33
  -2   8 -11  242.18   21.72
  -3  -8 -11   42.23    8.88
  -3  -8 -11   32.10    5.30
   3  -8  11   31.61    9.14
  -3  -8 -11   44.96    9.09
  -3   8 -11   53.05   12.72
   3   8  11   39.98    9.37
   3   8  11   50.11   10.10
  -4  -8 -11    6.57    6.90
   4  -8  11    8.49    7.26
  -4  -8 -11    1.83    4.64
  -4  -8 -11    3.23    5.18
   4   8  11   -1.62    6.45
   4   8  11    2.42    5.80
  -4   8 -11   13.71    9.65
  -5  -8 -11   -5.11    6.68
  -5  -8 -11   -4.43    7.27
   5  -8  11    0.14    5.97
  -5  -8 -11   -4.97    3.72
  -5   8 -11   -7.14    6.85
   5   8  11    0.95    6.58
  -6  -8 -11   60.16   10.55
   6  -8  11  101.15   15.99
  -6  -8 -11   82.48   16.62
  -6   8 -11   98.27   19.32
   6   8  11   85.87   15.37
   7  -8  11   30.75   11.52
  -7  -8 -11   -4.39    9.32
  -7  -8 -11   19.52    7.71
   7   8  11   23.20   10.44
  -7   8 -11   25.69   12.70
  -8  -9  11  147.09   29.84
  -8   9  11  166.46   24.93
   8   9 -11  163.33   24.56
   7  -9 -11    3.37    4.97
  -7  -9  11  -12.34   10.79
   7   9 -11   -2.29    7.03
  -7   9  11   -0.63    9.26
  -6  -9  11   35.08   15.57
   6  -9 -11   38.49    6.63
   6   9 -11   44.53   12.63
  -6   9  11   53.20   12.04
  -5  -9  11   10.44    8.15
  -5  -9  11    6.47   10.39
   5   9 -11   11.56    8.60
  -5   9  11   -0.70    6.04
  -4  -9  11  350.92   24.48
   4   9 -11  356.89   26.21
  -4   9  11  294.17   16.47
  -3  -9  11    5.64    6.19
   3   9 -11    5.41    6.54
  -2  -9  11   31.85    9.43
   2   9 -11   26.84    9.60
  -1   9  11   26.62    5.29
   1   9 -11   15.96    9.62
   0  -9  11  395.03   20.69
   0  -9  11  364.96   23.30
   0   9  11  358.66   16.90
   0   9  11  342.95   17.07
   0   9 -11  382.49   26.19
  -1  -9 -11    4.66    5.64
   1  -9  11    7.05    5.06
  -1  -9 -11    2.98    3.04
   1   9  11    2.64    4.03
   1   9  11   14.00    4.87
  -1   9 -11   16.71    8.71
   2  -9  11    8.74    6.24
  -2  -9 -11    2.60    4.52
   2  -9  11    8.70    5.20
  -2  -9 -11   12.37    6.10
   2   9  11    0.87    4.88
   2   9  11    4.23    4.77
  -2   9 -11    4.32    7.31
   3  -9  11   42.95   10.70
  -3  -9 -11   33.76    8.15
   3   9  11   50.47   10.19
   3   9  11   40.36    8.43
  -3   9 -11   54.40   12.45
  -4  -9 -11  197.63   16.50
  -4  -9 -11  224.32   13.64
  -4  -9 -11  245.82   20.40
   4  -9  11  212.34   18.47
   4   9  11  205.43   17.50
  -4   9 -11  216.11   22.82
   4   9  11  207.52   19.36
   5  -9  11   -2.79    6.56
  -5  -9 -11   18.13    6.92
  -5  -9 -11   15.70    9.01
  -5   9 -11    0.43    8.24
   5   9  11   15.30    6.25
  -6  -9 -11   -1.99    7.65
  -6  -9 -11   -0.59    5.53
   6  -9  11    6.22    8.49
   6   9  11    0.45    5.96
  -6   9 -11   -2.66    8.17
  -7  -9 -11   22.12   12.34
   7  -9  11   34.71   11.81
  -7  -9 -11   13.24    8.28
  -7   9 -11    1.46   11.00
   7   9  11   15.74   10.25
  -7 -10  11  -14.88   10.16
   7  10 -11   -8.60    7.05
  -7  10  11   -1.72    9.81
  -6 -10  11   -9.83    9.70
  -6 -10  11    7.51    7.42
  -6  10  11    5.93    7.68
   6  10 -11   18.43    9.66
  -5 -10  11   -3.54    5.68
   5  10 -11   -1.34    7.00
  -5  10  11    0.69    6.10
  -4 -10  11   15.61    7.68
  -4  10  11    8.98    4.71
   4  10 -11   15.67    8.20
  -3 -10  11    2.51    5.72
   3  10 -11    3.65    7.30
  -2 -10  11    5.48    6.62
  -2  10  11    7.05    3.32
   2  10 -11   -2.36    6.49
  -1 -10  11   -0.55    5.21
  -1  10  11   -0.06    3.01
   1  10 -11    0.69    6.72
  -1  10  11    3.02    3.03
   0 -10 -11    4.97    6.83
   0 -10  11   -0.15    4.38
   0 -10  11   -0.46    5.11
   0  10  11    0.14    3.31
   0  10 -11    5.04    7.32
   0  10  11   -1.01    2.80
  -1 -10 -11    0.45    2.25
  -1 -10 -11    5.00    6.39
  -1 -10 -11    1.84    2.74
   1 -10  11   -0.21    5.80
   1 -10  11    1.75    4.77
   1  10  11   -6.47    3.30
   1  10  11    2.25    4.33
  -1  10 -11   -0.34    5.93
   2 -10  11    1.39    4.73
   2 -10  11   -7.95    5.19
  -2 -10 -11   -2.26    5.21
   2  10  11   -5.69    3.04
  -2  10 -11   -0.54    6.52
   2  10  11   -3.25    4.03
  -3 -10 -11   11.04    6.41
   3 -10  11   -2.09    5.50
  -3 -10 -11   -9.44    4.32
   3  10  11   -9.11    3.19
   3  10  11  -12.73    4.95
  -3  10 -11    7.70    8.21
  -4 -10 -11    3.01    6.06
  -4 -10 -11    9.38    7.98
   4 -10  11   10.06    6.59
   4  10  11   -0.58    6.38
  -4  10 -11    9.47    8.98
   4  10  11    0.21    7.31
  -5 -10 -11    8.12    9.73
  -5 -10 -11  -10.00    6.01
  -5 -10 -11   13.91    6.76
   5 -10  11   11.44    8.13
  -5  10 -11   -7.09    6.31
   5  10  11    1.12    5.36
  -6 -10 -11  -10.00    8.39
  -6 -10 -11    5.76    6.78
   6 -10  11   -1.53    7.07
  -6  10 -11   -8.31    7.96
   6  10  11   11.28    9.00
   7 -10  11    5.76    8.22
  -7 -10 -11   -2.69   10.25
  -7 -10 -11   -3.28    7.35
   7  10  11   -7.61    7.82
  -7  10 -11    6.48   12.32
  -7 -11  11   -8.35    6.42
  -7 -11  11  -17.29    8.83
   7  11 -11   10.12   10.23
  -7  11  11   11.73    9.84
  -6 -11  11   16.11    9.27
  -6 -11  11   32.54   15.05
  -6  11  11   16.42    9.23
   6  11 -11   14.51    9.38
  -5 -11  11   21.91    9.35
   5  11 -11    5.30    7.25
  -5  11  11    5.78    6.11
  -4 -11  11  226.65   20.83
  -4  11  11  208.43   12.79
   4  11 -11  235.04   22.44
  -3 -11  11    7.62    7.12
   3  11 -11    1.75    6.15
  -2 -11  11   29.94    9.53
  -2  11  11   18.64    4.25
   2  11 -11   11.13    8.21
  -1 -11  11   49.28   10.53
  -1  11  11   33.24    5.15
   1  11 -11   37.49   10.17
  -1  11  11   38.00    4.65
   0 -11  11  294.87   19.82
   0 -11  11  268.27   20.34
   0  11 -11  300.46   24.04
   0  11  11  302.12   14.46
   1 -11  11    2.85    5.47
   1 -11  11    0.44    4.78
  -1 -11 -11    9.03    6.52
  -1  11 -11   -1.50    6.60
   1  11  11   -1.06    3.51
   1  11  11    1.02    3.55
   2 -11  11   -3.98    5.32
  -2 -11 -11   -4.35    5.39
  -2 -11 -11   -1.41    4.13
   2 -11  11    2.74    4.83
   2  11  11   -1.09    4.45
  -2  11 -11    2.34    8.81
   2  11  11    2.94    4.73
   3 -11  11    8.55    7.85
  -3 -11 -11   14.48    6.88
   3 -11  11    6.82    5.99
  -3 -11 -11   29.34    9.73
   3  11  11   17.74    7.15
   3  11  11   20.39    7.16
  -3  11 -11   12.30    9.85
  -4 -11 -11  119.24   16.30
   4 -11  11  115.12   15.73
  -4 -11 -11  120.36   18.32
   4  11  11  106.90   25.17
  -4  11 -11  121.11   19.66
  -5 -11 -11    1.29    8.45
  -5 -11 -11   10.84    6.81
  -5 -11 -11   12.04    5.61
   5 -11  11    2.71    6.97
  -5  11 -11  -14.25    5.90
   5  11  11    4.71    6.23
  -6 -11 -11    8.52    7.96
   6 -11  11   16.58    8.90
  -6 -11 -11    6.83   11.12
  -6  11 -11   -1.97    8.79
   6  11  11   -3.02    7.79
  -7 -12  11   -4.41    6.97
  -7 -12  11   -9.66    9.95
  -7  12  11    4.37    8.18
  -6 -12  11  122.36   18.90
   6  12 -11  105.77   20.21
  -6  12  11  127.52   17.37
  -5 -12  11    5.84    8.06
   5  12 -11   13.83    8.35
  -4 -12  11   15.63    9.11
   4  12 -11   27.94   10.20
  -4  12  11   14.93    5.02
  -3 -12  11    4.22    6.46
   3  12 -11    3.91    7.87
  -3  12  11   -4.08    3.04
  -2 -12  11  154.92   18.44
   2  12 -11  153.00   20.59
  -2  12  11  173.33    9.53
  -1 -12  11   23.61    9.60
  -1 -12  11   22.70    7.60
  -1  12  11   10.04    3.50
   1  12 -11   11.42    8.64
   0 -12 -11   42.73   12.00
   0 -12  11   56.59   10.83
   0 -12  11   62.96   11.55
   0  12  11   49.73    6.16
   0  12 -11   66.40   14.18
   0  12  11   50.34    6.85
   1 -12  11   11.91    7.15
   1 -12  11    5.75    6.29
  -1 -12 -11   -1.89    5.58
   1  12  11    4.47    3.92
  -1  12 -11   18.15    9.08
   1  12  11    2.58    4.22
  -2 -12 -11  161.43    7.86
   2 -12  11  179.00   16.70
  -2 -12 -11  175.59   17.82
   2 -12  11  164.22   15.42
   2  12  11  197.32   14.42
   2  12  11  203.83   14.44
  -2  12 -11  183.80   20.36
  -3 -12 -11   31.74    9.83
   3 -12  11   33.07    8.40
   3 -12  11   27.01    8.89
  -3  12 -11   25.13   10.70
   3  12  11   16.40    7.26
   3  12  11   24.96    7.47
  -4 -12 -11   -6.04    5.88
  -4 -12 -11   -7.22    7.29
   4 -12  11   17.43    7.69
   4  12  11    8.25    5.78
   4  12  11  -16.77    7.92
  -4  12 -11   10.57    9.09
   5 -12  11   -4.02    6.22
  -5 -12 -11    4.55    6.91
  -5 -12 -11  -10.52    8.83
  -5  12 -11   -2.59    9.14
   5  12  11   10.14    7.95
  -6 -12 -11   71.89   16.65
  -6 -12 -11  102.96   16.26
   6 -12  11  117.36   16.31
   6  12  11   82.00   16.39
  -6 -13  11   -6.40    6.23
   6  13 -11   -1.27    9.24
  -6  13  11   -6.96    6.00
  -5 -13  11    5.06    7.01
   5  13 -11   -3.26    7.85
  -4 -13  11    8.95    7.79
  -4  13  11   -0.98    3.81
   4  13 -11    2.08    7.88
  -3 -13  11   93.22   15.50
  -3  13  11   54.24    6.05
   3  13 -11   62.54   14.65
  -2 -13  11   -8.88    5.16
   2  13 -11  -14.11    5.29
  -2  13  11    4.27    2.70
  -1 -13  11   37.86   10.08
  -1 -13  11   30.74    9.04
   1  13 -11   28.70   10.43
  -1  13  11   27.68    4.42
   0 -13 -11    9.51    8.22
   0 -13  11   -0.24    5.49
   0  13 -11    3.51    6.87
   0  13  11    2.17    2.84
   1 -13  11   45.13   10.47
  -1 -13 -11   49.62   12.53
   1 -13  11   61.41   11.14
   1  13  11   40.97    6.72
  -1  13 -11   59.81   13.74
   1  13  11   47.32    7.53
   2 -13  11   13.40    7.40
  -2 -13 -11   -4.56    5.80
   2 -13  11   -0.56    5.39
  -2  13 -11    3.91    8.49
   2  13  11   13.38    5.39
   2  13  11   12.05    5.67
  -3 -13 -11   29.29    7.34
  -3 -13 -11   36.58   10.95
   3 -13  11   32.62    8.66
   3 -13  11   34.40    9.12
  -3  13 -11   44.62   13.57
   3  13  11   24.46    7.28
   3  13  11   32.47    7.94
  -4 -13 -11   -5.55    7.21
  -4 -13 -11  -19.97    6.45
   4 -13  11    4.26    6.38
   4  13  11    8.12    6.49
  -4  13 -11    8.02    8.88
   5 -13  11   19.23    8.81
  -5 -13 -11   -6.51    9.99
  -5 -13 -11    3.41    7.84
  -5  13 -11   28.86   12.66
   5  13  11   38.07    9.51
  -6 -14  11   58.37   15.08
   6  14 -11   87.27   18.24
  -5 -14  11   16.04   10.51
   5  14 -11   25.23   13.10
  -4 -14  11    8.10    8.80
  -4  14  11    1.53    4.37
   4  14 -11   15.37    9.38
  -3 -14  11   15.51    8.42
  -3  14  11   11.07    3.53
   3  14 -11   29.78   10.70
  -2 -14  11  128.54   16.84
  -2 -14  11  145.86   19.59
   2  14 -11  137.06   19.63
  -2  14  11  125.08    6.48
  -1 -14  11   -7.13    4.90
  -1 -14  11    3.82    6.77
   1  14 -11   -1.24    7.48
  -1  14  11    7.85    2.73
   0 -14  11   -2.45    4.38
   0 -14  11   10.81    7.74
   0 -14 -11  -13.67    7.12
   0  14  11    2.96    3.69
   0  14 -11   -1.22    6.84
   0  14  11    1.31    1.92
   1 -14  11   40.43    9.60
   1 -14  11   27.02    8.41
  -1 -14 -11   20.25   10.29
   1  14  11   23.87    5.99
   1  14  11   29.97    6.37
  -1  14 -11   33.41   11.27
   2 -14  11  136.05   14.24
  -2 -14 -11  126.54   18.87
  -2  14 -11  107.62   18.20
   2  14  11  111.27   11.57
   2  14  11  128.21   11.88
   3 -14  11    5.96    6.06
  -3 -14 -11   -4.68    6.45
   3 -14  11    1.99    5.68
   3  14  11   -5.33    6.02
   3  14  11   -0.60    5.23
  -3  14 -11   -7.75    6.87
   4 -14  11   -0.54    6.27
  -4 -14 -11   -7.44    9.19
  -4 -14 -11  -17.33    5.65
  -4  14 -11  -13.41    8.04
   4  14  11  -34.06   12.83
   4  14  11    1.87    6.48
  -5 -14 -11   19.24    9.83
  -5 -14 -11  -13.31   11.14
   5 -14  11   12.03    7.93
   5  14  11   22.46    9.73
  -5 -15  11    3.53    8.22
  -4 -15  11   68.12   14.21
   4  15 -11   63.75   15.83
  -3 -15  11   68.19   13.33
   3  15 -11   58.40   14.97
  -3  15  11   64.59    4.67
  -3  15  11   86.59    5.39
  -2 -15  11   15.64    8.42
  -2 -15  11    6.52    6.30
  -2  15  11    1.63    1.81
   2  15 -11   -0.72    6.99
  -1 -15  11   13.75    7.36
  -1 -15  11    3.96    6.62
   1  15 -11    4.02    8.10
  -1  15  11    4.40    2.84
   0 -15  11   56.25   11.74
   0 -15 -11   68.05   16.31
   0 -15  11   69.37   11.38
   0  15 -11   61.14   14.41
   0  15  11   70.44    6.98
  -1 -15 -11   20.14   10.91
   1 -15  11   32.31   10.67
   1 -15  11   29.31    8.51
   1  15  11   43.71    7.27
  -1  15 -11   44.19   12.44
   1  15  11   45.78    6.12
   2 -15  11    3.03    5.50
  -2 -15 -11   -2.83    6.99
   2 -15  11    1.06    6.62
   2  15  11    9.33    5.08
  -2  15 -11   -0.24    8.48
   2  15  11    0.59    5.08
   3 -15  11    0.63    6.06
   3 -15  11   -6.07    5.61
  -3 -15 -11   -4.14    7.26
  -3  15 -11   -6.16    7.70
   3  15  11  -14.97    5.01
   3  15  11  -16.07    6.04
   4 -15  11   76.53   12.29
  -4 -15 -11   54.17   14.55
   4  15  11   75.17   12.56
  -4  15 -11   52.59   15.34
  -4 -16  11    1.91    7.00
   4  16 -11   -4.69   10.53
  -3 -16  11   30.34   13.23
  -3 -16  11   49.16   11.23
   3  16 -11   50.23   14.22
  -2 -16  11   -1.51    6.36
  -2 -16  11   -0.91    7.94
   2  16 -11   11.80    7.89
  -1 -16  11  113.74   15.21
  -1 -16  11  113.68   17.69
   1  16 -11  111.87   18.75
  -1  16  11   92.39    6.17
   0 -16 -11   -5.09    8.62
   0 -16  11   -5.77    5.86
   0 -16  11    4.51    7.37
   0  16 -11   -5.42    6.39
   0  16  11    4.29    3.53
   1 -16  11   52.28   10.38
  -1 -16 -11   54.17   14.86
   1 -16  11   29.56    9.91
   1  16  11   44.73    7.36
  -1  16 -11   52.87   13.76
  -2 -16 -11  -10.57    7.77
   2 -16  11    2.79    6.16
   2 -16  11   13.58    8.18
   2  16  11    1.14    5.37
  -2  16 -11    1.48    7.03
   2  16  11    4.52    4.62
  -3 -16 -11   94.81   18.71
   3 -16  11   89.47   15.13
   3 -16  11   75.30   11.69
  -3  16 -11  110.03   19.62
   3  16  11  141.39   13.98
  -3 -17  11    4.61    7.55
  -3 -17  11  -12.26    9.32
  -2 -17  11    3.80    9.10
  -2 -17  11    6.77    6.96
   2  17 -11    7.32   10.91
  -1 -17  11   -6.89    7.00
  -1  17  11    3.59    2.38
   1  17 -11   -1.44    6.94
   0 -17 -11   22.55   12.69
   0 -17  11   26.12    8.44
   0 -17  11   44.00   12.20
   0  17 -11   30.02   11.77
   0  17  11   16.58    4.77
   1 -17  11   11.70    6.93
   1 -17  11    3.84    7.36
  -1 -17 -11    8.61   10.05
   1  17  11    8.53    5.37
   1  17  11    1.01    2.49
   1  17  11    4.53    2.57
  -1  17 -11    1.80    9.57
   2 -17  11   22.98    8.78
   2 -17  11    3.55    5.98
  -2 -17 -11    1.78    9.61
   2  17  11   -5.57    4.59
   2  17  11   -0.03    5.33
  -2  17 -11    4.46    9.34
  -1 -18  11   65.83   11.24
  -1 -18  11   66.46   15.09
   0 -18  11   -0.83    7.86
   0 -18  11   -2.46    5.95
   0 -18 -11    2.63    9.48
   0  18  11   -3.37    4.06
   9   0 -12  162.34   23.60
  -9   0  12   78.39   23.43
  -8   0  12   -8.09    8.80
   8   0 -12   -8.71    5.94
   7   0 -12  197.53   19.70
  -7   0  12  183.18   28.47
   6   0 -12   85.16   14.13
  -6   0  12   57.49   16.49
   5   0 -12  170.72   16.28
  -5   0  12  210.91   28.02
   4   0 -12    1.54    5.75
  -4   0  12    0.45    9.01
   3   0 -12  211.12   16.79
   2   0 -12   99.61   13.02
  -2   0  12  101.58   13.62
  -2   0  12  124.47   12.43
  -1   0  12  295.41   18.72
  -1   0  12  280.97   18.75
   1   0 -12  284.07   18.64
   0   0  12   -0.81    4.87
   0   0 -12   -4.21    4.56
   0   0  12   11.56    6.49
   0   0  12    2.11    3.42
   1   0  12   81.41   13.64
  -1   0 -12   81.90   11.00
  -1   0 -12   87.12   12.76
   1   0  12   75.23   11.90
   1   0  12   80.49    4.85
   2   0  12  163.06   15.56
  -2   0 -12  154.83   15.41
  -2   0 -12  156.31   14.09
   2   0  12  140.18   14.26
  -3   0 -12  235.27   19.85
   3   0  12  207.91   18.29
  -4   0 -12   -1.95    6.59
   4   0  12    1.50    6.42
   5   0  12    7.98    7.12
  -5   0 -12   29.80   10.94
   6   0  12   69.05   14.31
  -6   0 -12   60.12   14.91
  -7   0 -12  170.93   24.91
   7   0  12  157.95   21.76
  -8   0 -12    3.02   11.59
  -9  -1  12    9.50   14.21
   9  -1 -12   30.61   11.99
   9   1 -12   27.71   11.78
  -9   1  12   22.59   16.21
  -8  -1  12   22.90   12.91
   8  -1 -12   13.73    8.34
   8   1 -12   -9.94    6.30
  -8   1  12    4.18   10.54
   7  -1 -12   47.12   11.88
  -7  -1  12   48.90   14.93
   7   1 -12   51.43   12.92
  -7   1  12   64.60   18.16
   6  -1 -12    8.99    7.13
  -6  -1  12   11.12    9.32
  -6   1  12   21.00   11.11
   6   1 -12   25.39    8.51
  -5  -1  12   52.32   15.76
   5  -1 -12   95.60   13.77
   5   1 -12   91.51   14.05
  -5   1  12   52.64   14.29
   4  -1 -12   18.86    7.57
   4   1 -12   16.00    8.00
  -4   1  12   16.03   10.26
   3  -1 -12   45.72    9.34
   3   1 -12   38.31   10.00
   2  -1 -12   14.94    6.83
  -2  -1  12    2.23    6.24
  -2  -1  12   11.58    6.55
  -2   1  12   14.60    7.17
  -2   1  12   22.92    7.14
   2   1 -12   15.41    7.26
  -1  -1  12   35.67    8.45
   1  -1 -12   30.70    7.89
  -1  -1  12   40.07    9.50
  -1   1  12   37.81    9.01
   1   1 -12   39.08    9.19
  -1   1  12   27.56    8.04
   0  -1  12   26.40    9.07
   0  -1 -12   21.56    7.58
   0  -1  12   22.59    7.38
   0   1  12   14.03    6.36
   0   1  12    6.37    6.33
   0   1 -12   16.28    7.15
   0   1  12   15.79    4.64
   1  -1  12   57.27   10.62
  -1  -1 -12   51.97    9.82
   1  -1  12   53.83    3.33
  -1  -1 -12   42.18    8.31
   1  -1  12   54.50   10.20
   1   1  12   40.70    4.46
  -1   1 -12   53.66    9.24
   1   1  12   44.48    9.23
   1   1  12   55.03   10.52
  -1   1 -12   46.76   10.37
  -2  -1 -12    9.73    7.29
   2  -1  12   20.94    7.93
  -2  -1 -12   10.00    6.10
   2  -1  12    4.98    6.80
   2   1  12   18.35    7.56
   2   1  12    9.24    6.78
  -2   1 -12    4.81    6.06
  -3  -1 -12   33.20    9.68
   3  -1  12   21.31    8.67
  -3   1 -12   34.92   10.63
   3   1  12   40.02   10.14
   4  -1  12    9.82    7.58
  -4  -1 -12    3.01    7.00
   4   1  12   17.33    9.00
  -4   1 -12    6.59    6.79
   5  -1  12   98.93   15.89
   5   1  12   83.99   14.47
  -5   1 -12   79.32   15.99
   6  -1  12   11.20    7.91
  -6  -1 -12   27.58   11.89
  -6   1 -12   19.82   10.32
   6   1  12    8.67    8.35
   7  -1  12   15.64    9.94
  -7  -1 -12   23.93   11.81
  -7   1 -12   32.66   13.01
   7   1  12   11.49    8.89
  -8  -1 -12    4.14   11.86
  -8   1 -12    2.59   10.90
   8  -2 -12   17.29    9.35
  -8  -2  12   43.66   16.03
   8   2 -12    4.85    8.16
  -8   2  12   27.38   16.70
  -7  -2  12   22.47   13.69
   7  -2 -12   33.76   10.40
   7   2 -12   30.96   10.75
  -7   2  12   45.62   14.67
   6  -2 -12   23.52    8.04
  -6  -2  12   13.33   12.40
  -6   2  12   48.68   15.36
   6   2 -12   27.99    9.63
   5  -2 -12   55.43   10.68
  -5  -2  12   67.77   16.57
   5   2 -12   66.15   12.84
  -5   2  12   81.93   16.78
   4  -2 -12   11.11    5.98
  -4  -2  12    3.63   10.75
  -4   2  12    8.64    8.58
   4   2 -12    2.19    5.92
  -3  -2  12    5.12    6.17
   3  -2 -12   17.06    6.89
   3   2 -12   31.43    9.57
  -2  -2  12   68.64   11.63
  -2  -2  12   66.87   12.16
   2  -2 -12   63.97   10.23
  -2   2  12   73.18   11.17
  -2   2  12   56.47    9.28
   2   2 -12   64.44   11.59
  -1  -2  12  115.08   14.78
   1  -2 -12   91.23   14.35
   1  -2 -12  104.82   11.18
  -1  -2  12  124.14   13.11
  -1   2  12  102.65   10.90
  -1   2  12  111.04   13.27
   1   2 -12  113.63   14.57
  -1   2  12  106.57   11.32
   0  -2  12   -2.82    5.58
   0  -2  12   14.16    6.39
   0  -2 -12   18.72    7.06
   0   2 -12    6.15    6.23
   0   2  12    7.63    5.97
   0   2  12   13.23    4.46
   0   2  12    2.39    5.52
  -1  -2 -12   39.87    7.54
   1  -2  12   40.81    2.94
   1  -2  12   26.98    8.80
   1  -2  12   45.09   10.06
  -1  -2 -12   33.29    8.78
   1   2  12   38.84    5.37
  -1   2 -12   35.31    7.68
   1   2  12   39.98    9.01
   1   2  12   39.59    8.98
  -1   2 -12   30.47    8.67
  -2  -2 -12   45.27   10.39
   2  -2  12   42.59   10.14
   2   2  12   58.01   12.19
  -2   2 -12   40.43   10.80
   2   2  12   47.07    9.66
  -3  -2 -12  160.62   16.25
   3  -2  12  142.78   17.80
  -3  -2 -12  148.05   13.46
  -3   2 -12  141.37   17.75
   3   2  12  146.44   15.41
   3   2  12  144.68   15.18
   4  -2  12   30.70    9.30
  -4  -2 -12   -4.25    5.57
   4   2  12   -7.05    5.31
  -4   2 -12   -4.95    5.37
  -5  -2 -12    4.82    7.64
   5  -2  12   11.67    8.15
   5   2  12   -4.98    5.44
  -5   2 -12   16.19    8.38
   6  -2  12   33.06   10.83
  -6  -2 -12   34.57   12.51
  -6   2 -12   38.04   12.94
   6   2  12   32.63   11.01
  -7  -2 -12   39.59    5.07
  -7  -2 -12   71.43   16.91
   7  -2  12   44.14   13.03
   7   2  12   56.58   13.41
  -7   2 -12   39.60   13.89
  -8  -2 -12   -3.38    2.74
  -8  -2 -12   -0.96    8.31
  -8   2 -12    2.03   11.18
   8  -3 -12    7.27    6.77
  -8  -3  12    5.30   12.08
   8   3 -12   17.40   10.41
  -8   3  12    8.89   12.08
  -7  -3  12   96.09   21.80
   7  -3 -12  125.20   16.84
   7   3 -12  122.69   18.91
  -7   3  12  112.83   22.41
  -6  -3  12    4.43    8.77
   6  -3 -12    2.23    5.92
  -6   3  12   -1.77    7.80
   6   3 -12    4.54    7.92
   5  -3 -12  185.06   15.69
  -5  -3  12  147.04   24.17
  -5   3  12  196.08   25.54
   5   3 -12  196.61   18.62
  -4  -3  12    9.18    9.50
   4  -3 -12   10.26    5.87
   4   3 -12   14.60    8.65
  -4   3  12    8.04    8.92
  -3  -3  12  155.98   14.75
   3  -3 -12  159.10   13.49
   3   3 -12  147.94   16.08
   2  -3 -12    0.16    6.42
   2  -3 -12   -7.61    4.94
  -2  -3  12    4.56    6.31
  -2  -3  12   -6.00    5.84
  -2   3  12    0.85    5.33
  -2   3  12    7.52    5.64
  -2   3  12   -1.92    4.83
   2   3 -12    3.19    6.13
  -1  -3  12  154.60   14.75
   1  -3 -12  128.85   16.50
  -1  -3  12  139.90   14.31
   1  -3 -12  125.13   12.28
  -1   3  12  125.86   12.29
  -1   3  12  140.99   12.29
  -1   3  12  134.09   12.59
   1   3 -12  145.42   15.14
   0  -3  12   70.87   11.72
   0  -3  12   67.53   11.07
   0  -3 -12   57.81    9.28
   0   3  12   65.95   10.29
   0   3 -12   70.32   11.95
   0   3  12   82.10   11.59
   0   3  12   75.04    9.13
   1  -3  12  188.40    7.96
  -1  -3 -12  241.14   16.58
   1  -3  12  210.08   17.40
   1   3  12  193.94   11.17
   1   3  12  185.12   14.89
   1   3  12  193.78   15.05
  -1   3 -12  221.03   18.56
   2  -3  12    9.93    7.85
  -2  -3 -12    7.84    5.37
  -2  -3 -12    7.63    6.51
   2   3  12    1.20    6.01
  -2   3 -12    1.94    7.61
   2   3  12   12.25    5.91
  -3  -3 -12   80.83   13.35
  -3  -3 -12   74.57   10.74
  -3   3 -12   63.96   12.96
   3   3  12   62.56   11.80
   3   3  12   91.48   13.76
  -4  -3 -12   69.45   12.74
   4  -3  12   51.41   11.69
   4   3  12   65.78   12.44
  -4   3 -12   80.10   14.42
  -5  -3 -12  153.88   20.21
  -5  -3 -12  139.38    6.73
   5  -3  12  133.74   17.97
  -5   3 -12  132.52   19.75
   5   3  12  163.12   17.34
   6  -3  12   19.00    9.35
  -6  -3 -12   22.91   10.71
  -6  -3 -12   23.56    5.23
   6   3  12   41.90   11.58
  -6   3 -12    8.81    8.86
  -7  -3 -12   21.42   12.62
   7  -3  12   11.31   10.19
   7   3  12    7.90    8.66
  -7   3 -12   16.37   11.03
  -8  -3 -12   18.26    5.03
  -8  -3 -12   26.70   14.10
  -8   3 -12   21.20   12.37
  -8  -4  12   47.07   17.57
   8  -4 -12   93.03   15.63
   8   4 -12   63.75   16.09
  -8   4  12   32.73   16.69
   7  -4 -12   12.89    8.05
  -7  -4  12   23.45   12.64
   7   4 -12   42.98   12.21
  -7   4  12   50.37   16.13
   6  -4 -12   -0.15    5.09
  -6  -4  12   -2.81    7.01
   6   4 -12    1.84    7.64
  -6   4  12   11.55   10.15
   5  -4 -12   15.87    6.14
  -5  -4  12   -5.47    8.52
  -5   4  12   16.59    9.73
   5   4 -12    6.79    7.59
  -4  -4  12   72.13   17.63
   4   4 -12  114.67   16.10
  -4   4  12  100.47   16.53
   3  -4 -12   46.58    8.77
  -3  -4  12   38.44   10.13
   3   4 -12   36.79   10.29
   2  -4 -12    3.16    5.17
   2  -4 -12    7.03    4.69
  -2  -4  12   -6.54    4.94
   2   4 -12   -5.32    5.83
  -2   4  12   -2.55    4.85
  -2   4  12   -9.04    5.17
  -2   4  12    0.93    4.29
   1  -4 -12    1.55    4.65
  -1  -4  12   -1.57    5.91
   1  -4 -12   -3.66    6.19
  -1   4  12   12.47    6.09
  -1   4  12    7.02    5.07
  -1   4  12    8.13    5.38
   1   4 -12   10.03    7.58
   0  -4 -12  134.54   14.78
   0  -4 -12  183.19   14.99
   0  -4  12  184.29   16.11
   0   4 -12  199.28   17.69
   0   4  12  182.31   13.91
   0   4  12  163.52   12.08
   0   4  12  184.91   14.44
  -1  -4 -12  117.96   12.08
   1  -4  12   98.34    6.45
   1  -4  12   93.60   13.66
  -1   4 -12   99.80   14.89
   1   4  12   98.70    8.92
   1   4  12  103.76   11.33
   1   4  12  113.09   13.20
  -2  -4 -12   -2.33    5.76
   2  -4  12   -4.56    6.04
  -2  -4 -12   -5.44    3.81
   2   4  12    3.62    4.82
  -2   4 -12    4.94    8.13
   2   4  12   -3.97    5.49
   3  -4  12   10.35    7.73
  -3  -4 -12    6.36    7.04
  -3  -4 -12   18.00    7.04
   3   4  12   15.82    7.25
  -3   4 -12    9.94    8.72
   3   4  12    9.44    6.91
  -4  -4 -12   93.15   14.27
   4  -4  12  106.75   15.59
   4   4  12  128.57   19.31
  -4   4 -12   84.47   15.51
  -5  -4 -12   80.58   15.00
   5  -4  12   60.11   13.43
  -5  -4 -12   48.22    7.67
  -5   4 -12   74.85   15.05
   5   4  12   60.62   13.13
  -6  -4 -12   -4.94    7.77
  -6  -4 -12   -3.89    2.78
   6  -4  12   10.52    8.26
  -6   4 -12    0.06    6.34
   6   4  12   -3.92    5.90
  -7  -4 -12   -3.00    3.45
   7  -4  12  -12.97    6.99
  -7  -4 -12    6.33    9.67
   7   4  12   10.78    9.39
  -7   4 -12    1.98    9.68
   8  -5 -12   -7.47    6.60
  -8  -5  12    5.56   10.87
  -8   5  12  -10.92    8.16
   8   5 -12   -5.46    8.08
   7  -5 -12   30.96    9.79
  -7  -5  12   41.85   16.10
   7   5 -12   77.08   15.67
  -7   5  12   79.70   18.42
   6  -5 -12  107.48   13.09
  -6  -5  12  110.84   23.22
   6   5 -12   87.30   15.98
  -6   5  12  120.61   20.51
   5  -5 -12   15.85    6.43
  -5  -5  12   15.43   12.06
  -5   5  12   12.33    9.07
   5   5 -12   17.56    8.43
  -4  -5  12    1.66    6.61
   4  -5 -12    5.56    5.12
  -4   5  12   16.43    9.56
   4   5 -12    8.11    7.46
   3  -5 -12  166.48   13.69
  -3  -5  12  194.28   17.22
   3  -5 -12  177.42   12.55
   3   5 -12  173.81   17.55
   2  -5 -12   87.90    8.97
  -2  -5  12   92.45   13.72
   2  -5 -12   93.24   11.31
  -2   5  12   81.96   13.78
  -2   5  12   66.82    9.57
  -2   5  12   99.46   10.16
   2   5 -12   76.29   13.48
   1  -5 -12    5.37    4.19
  -1  -5  12    5.45    6.82
   1  -5 -12    3.78    5.12
   1   5 -12   12.26    8.19
  -1   5  12    2.52    4.72
  -1   5  12    7.74    4.96
  -1   5  12    4.32    5.85
   0  -5 -12   10.98    6.43
   0  -5  12   35.22    9.51
   0  -5 -12   20.95    6.30
   0   5  12   17.52    6.64
   0   5 -12   15.96    7.81
   0   5  12   23.69    7.16
   0   5  12    9.90    5.59
   1  -5  12  151.63   15.68
   1  -5  12  145.08    9.56
   1   5  12  139.40   11.27
  -1   5 -12  152.51   18.78
   1   5  12  135.41   12.38
   1   5  12  159.59   13.34
  -2  -5 -12  162.31   11.54
   2  -5  12  160.53   16.74
  -2  -5 -12  176.47   15.44
  -2   5 -12  212.05   19.86
   2   5  12  173.06   14.94
   2   5  12  170.68   15.06
   3  -5  12   10.65    8.21
  -3  -5 -12    1.44    4.64
  -3  -5 -12    1.92    6.41
  -3  -5 -12    0.54    3.64
  -3   5 -12    9.13    9.56
   3   5  12   -3.13    5.15
   3   5  12    4.33    7.20
   4  -5  12   90.76   14.52
  -4  -5 -12   73.40   13.62
  -4  -5 -12   48.51    7.03
  -4  -5 -12   47.10    9.72
  -4   5 -12   73.51   14.98
   4   5  12   50.22   16.35
   5  -5  12   82.37   14.59
  -5  -5 -12   48.20   12.86
  -5  -5 -12   64.55    7.77
  -5   5 -12   65.06   14.86
   5   5  12   70.93   13.06
   6  -5  12   37.50   11.57
  -6  -5 -12   39.28   13.52
  -6  -5 -12   24.99    5.75
   6   5  12   30.12   10.71
  -6   5 -12   27.24   11.17
  -7  -5 -12   -0.33    4.58
   7  -5  12    1.72    7.65
  -7  -5 -12   15.32   11.94
   7   5  12   -6.70    7.11
  -7   5 -12   -8.39    7.87
  -8  -6  12   -0.83   12.74
   8  -6 -12   -0.33    7.89
  -8   6  12   17.12   11.97
   8   6 -12   -9.61    7.16
  -7  -6  12   29.18   14.32
   7  -6 -12   41.80    9.17
  -7   6  12   35.84   13.79
   7   6 -12   33.48   12.48
   6  -6 -12    5.74    5.74
  -6  -6  12   10.75   11.49
  -6   6  12   15.89    9.99
   6   6 -12    0.71    6.13
  -5  -6  12   19.02   12.75
   5  -6 -12   18.75    6.37
   5   6 -12   13.56    8.88
  -5   6  12   20.50    8.81
  -4  -6  12   43.31   10.52
  -4   6  12   32.26   10.31
   3  -6 -12   84.60    9.21
  -3  -6  12   85.44   13.44
   3   6 -12   79.18   14.26
  -2  -6  12   17.01    8.58
   2  -6 -12   26.11    6.19
  -2   6  12   15.23    6.01
  -2   6  12   22.63    6.17
   2   6 -12   34.53    9.88
  -1  -6  12  106.20   14.69
   1  -6 -12  101.85    9.64
   1  -6 -12   97.42   10.39
  -1   6  12  103.61   10.39
  -1   6  12   97.58   12.90
   1   6 -12   94.07   15.09
  -1   6  12  106.87   10.59
   0  -6  12   37.57    9.97
   0  -6 -12   13.71    6.72
   0  -6 -12   20.15    5.51
   0   6  12   30.21    6.88
   0   6  12   22.64    6.59
   0   6 -12   11.06    8.36
   1  -6  12   51.15    6.79
  -1  -6 -12   55.63    9.00
   1  -6  12   58.06   11.63
   1   6  12   61.70    9.90
   1   6  12   43.81    8.77
  -1   6 -12   85.60   14.96
   1   6  12   61.09    9.37
  -2  -6 -12   29.45    7.08
  -2  -6 -12   23.23    5.27
  -2  -6 -12   32.65    8.25
   2  -6  12   34.61   11.71
   2   6  12   24.79    7.17
  -2   6 -12   31.59   11.17
   2   6  12   37.12    8.50
  -3  -6 -12  108.83   14.55
  -3  -6 -12   75.94    9.90
  -3  -6 -12   93.02    9.47
   3  -6  12   88.56   14.12
   3   6  12   84.55   12.62
   3   6  12   88.45   13.01
  -3   6 -12   75.55   14.93
  -4  -6 -12   15.76    7.23
  -4  -6 -12   32.94    6.81
  -4  -6 -12   33.55   10.38
   4  -6  12   39.11   11.24
  -4   6 -12   22.16   10.28
   4   6  12   51.29   12.84
  -5  -6 -12   53.49   13.29
  -5  -6 -12   44.22    7.83
   5  -6  12   46.59   11.23
   5   6  12   44.94   11.03
  -5   6 -12   56.01   13.94
  -6  -6 -12    3.66   17.15
  -6  -6 -12   18.86    5.74
   6  -6  12   22.59    8.90
  -6   6 -12   19.54   11.47
   6   6  12    8.93    6.68
   7  -6  12   31.31   11.61
  -7  -6 -12   25.48    6.76
  -7  -6 -12   31.75   14.35
   7   6  12   52.29   13.38
  -7   6 -12    9.87   10.55
   8  -7 -12  -13.39   10.55
  -8  -7  12    2.85   11.78
  -8   7  12    9.82   10.25
   8   7 -12   -9.97    6.48
   7  -7 -12    6.50    6.53
  -7  -7  12    7.04    9.51
  -7   7  12    4.06    9.57
   7   7 -12    6.58    8.28
  -6  -7  12  150.26   26.28
   6  -7 -12  202.62   15.30
  -6   7  12  229.03   23.79
   6   7 -12  270.97   24.06
  -5  -7  12   28.18   13.06
   5   7 -12   25.77   10.32
  -5   7  12   19.06    9.81
  -4  -7  12   -0.87    5.69
   4  -7 -12    2.12    2.67
   4  -7 -12    3.08    4.45
   4   7 -12   -3.33    5.49
   3  -7 -12    1.38    2.82
  -3  -7  12    1.20    5.60
  -2  -7  12  346.68   27.26
   2  -7 -12  368.02   14.13
   2  -7 -12  347.25   14.53
  -2   7  12  357.62   17.91
  -2   7  12  351.34   17.69
   2   7 -12  314.00   23.53
   1  -7 -12   42.10    5.36
   1  -7 -12   38.82    6.16
  -1  -7  12   47.80   11.15
   1   7 -12   45.92   11.42
  -1   7  12   42.31    7.76
  -1   7  12   37.75    7.06
   0  -7  12    6.00    7.16
   0  -7 -12    8.88    5.37
   0   7  12    5.95    4.99
   0   7  12   10.37    5.72
   0   7 -12    6.32    7.60
   0   7  12   10.61    5.70
   1  -7  12    7.03    4.47
  -1  -7 -12   10.82    5.15
   1   7  12    3.41    4.87
   1   7  12    2.59    5.31
  -1   7 -12   25.43    8.92
  -2  -7 -12  279.21   24.34
   2  -7  12  299.21   21.23
  -2  -7 -12  274.28   17.42
   2   7  12  272.23   17.72
   2   7  12  275.64   18.24
  -2   7 -12  228.12   21.31
   3  -7  12  101.17   14.88
  -3  -7 -12   90.88    9.11
  -3  -7 -12  112.35   11.04
  -3  -7 -12   71.17   12.52
  -3   7 -12   87.28   15.18
   3   7  12   88.27   12.95
   3   7  12   91.36   13.25
  -4  -7 -12   22.66    9.02
  -4  -7 -12   11.72    5.49
   4  -7  12   20.58    8.81
  -4  -7 -12   20.55    8.33
  -4   7 -12   22.60    9.68
   4   7  12   18.19    9.02
   4   7  12   24.25    9.61
  -5  -7 -12    4.45    7.25
  -5  -7 -12    3.75    4.92
   5  -7  12   11.79    7.87
  -5   7 -12   14.71   10.35
   5   7  12    3.83    6.32
   6  -7  12  185.57   19.57
  -6  -7 -12  180.76   13.63
  -6  -7 -12  126.01   20.09
  -6   7 -12  207.17   26.74
   6   7  12  148.78   19.73
  -7  -7 -12   73.96   16.73
   7  -7  12   83.07   15.44
  -7  -7 -12   68.84   10.23
  -7   7 -12   71.27   17.33
   7   7  12   44.20   12.20
  -8  -8  12   40.80   19.62
   8  -8 -12   89.90   14.51
   8   8 -12   80.45   18.57
  -8   8  12   79.33   20.23
  -7  -8  12    6.40   12.46
  -7   8  12   -7.16    7.26
   7   8 -12  -15.06    6.82
  -6  -8  12    1.08   10.69
   6  -8 -12  -10.21    3.35
   6   8 -12    4.03    7.32
  -6   8  12  -10.75    6.47
   5  -8 -12   23.04    5.26
  -5  -8  12   22.21    9.51
  -5   8  12   47.09   11.97
   5   8 -12   32.05   10.54
   4  -8 -12  150.95    6.53
   4  -8 -12  152.15    6.58
  -4  -8  12  148.84   18.96
   4   8 -12  174.73   18.69
  -3  -8  12   15.42    7.79
   3   8 -12    4.55    6.24
  -2  -8  12    4.66    6.56
  -2   8  12    8.85    3.61
  -2   8  12    3.73    4.05
   2   8 -12    3.26    6.31
  -1  -8  12   62.69   11.54
  -1   8  12   68.84    8.87
  -1   8  12   57.43    7.91
   0  -8 -12  129.69    9.93
   0  -8 -12  135.07    8.66
   0  -8  12  121.60   15.91
   0   8 -12  119.24   20.96
   0   8  12  132.18   11.25
   0   8  12  132.76   10.91
   1  -8  12   -0.02    3.39
  -1  -8 -12    0.83    4.45
   1  -8  12   -2.79    5.07
   1   8  12   10.62    5.17
  -1   8 -12   -1.89    7.18
   1   8  12   -1.09    3.76
  -2  -8 -12   25.62    7.68
   2  -8  12   36.00    6.69
  -2  -8 -12   33.77    7.52
   2  -8  12   27.06    9.41
   2   8  12   28.37    7.33
   2   8  12   35.29    7.66
  -2   8 -12   48.95   12.00
  -3  -8 -12   42.04    8.66
  -3  -8 -12   50.61    6.65
   3  -8  12   45.07   11.06
  -3  -8 -12   60.86   11.15
   3   8  12   64.31   11.03
  -3   8 -12   81.09   16.35
   3   8  12   64.45   11.31
  -4  -8 -12   90.01   11.58
  -4  -8 -12   77.03   10.22
  -4  -8 -12   82.17   13.62
   4  -8  12   96.79   15.16
   4   8  12   69.53   12.50
   4   8  12   80.90   13.46
  -4   8 -12   82.47   16.12
  -5  -8 -12   -8.44    7.47
  -5  -8 -12   -0.53    4.62
   5  -8  12    2.45    5.81
  -5  -8 -12    6.40    9.03
  -5   8 -12    3.10    8.82
   5   8  12   13.97    8.49
  -6  -8 -12   25.44   10.83
   6  -8  12   20.74    9.07
  -6  -8 -12   17.68    6.43
   6   8  12   37.03   11.12
  -6   8 -12   13.18   10.80
   7  -8  12   19.50   10.73
  -7  -8 -12   25.17   13.10
  -7  -8 -12   20.75    7.34
  -7   8 -12   10.21   12.49
   7   8  12   18.05   10.13
  -7  -9  12  -14.21   10.10
   7  -9 -12  -13.23    6.11
   7   9 -12   -2.59    8.34
  -7   9  12    8.12   10.54
  -6  -9  12   42.50   16.95
  -6  -9  12   37.19   11.67
   6  -9 -12   34.56    4.97
  -6   9  12   49.36   12.45
   6   9 -12   81.51   16.64
  -5  -9  12    2.12    6.59
  -5   9  12   27.05    9.50
   5   9 -12   14.82    8.74
  -4  -9  12   15.65    8.52
   4   9 -12    4.44    7.98
  -3  -9  12    2.61    6.74
   3   9 -12    6.98    7.53
  -2  -9  12   70.49   12.52
  -2   9  12   60.33    7.91
   2   9 -12   45.76   11.80
  -1  -9  12   -8.28    4.51
  -1   9  12    1.01    3.32
  -1   9  12   -0.38    3.68
   1   9 -12   10.95    6.53
   0  -9  12    0.18    4.98
   0  -9  12   -1.62    3.79
   0   9  12   -0.60    3.66
   0   9 -12   -2.44    6.69
   0   9  12    4.00    3.85
   1  -9  12   11.80    5.51
   1  -9  12    0.73    5.51
  -1  -9 -12    1.52    5.74
  -1  -9 -12   -0.41    2.84
  -1  -9 -12   -7.34    3.50
   1   9  12    4.90    4.49
   1   9  12    2.44    4.81
  -1   9 -12    5.98    7.14
  -2  -9 -12   61.20   11.16
   2  -9  12   34.57    8.96
  -2  -9 -12   44.74    8.30
   2  -9  12   48.85    8.41
   2   9  12   50.93    9.09
   2   9  12   38.71    7.80
  -2   9 -12   64.49   14.25
  -3  -9 -12   16.57    6.90
   3  -9  12    7.72    7.28
   3   9  12    3.75    5.82
  -3   9 -12   24.33    9.90
   3   9  12    7.08    6.10
   4  -9  12   -2.78    5.58
  -4  -9 -12   -2.41    6.68
  -4  -9 -12    0.31    4.68
  -4  -9 -12    6.19    4.62
   4   9  12    6.34    8.58
  -4   9 -12   -1.10    7.58
   4   9  12   -3.37    5.61
  -5  -9 -12  -13.17    4.68
   5  -9  12    2.79    6.49
  -5  -9 -12  -13.63    6.37
   5   9  12    5.90    7.55
  -5   9 -12    5.04    9.07
   6  -9  12   15.22   10.08
  -6  -9 -12   18.12    7.37
  -6  -9 -12   13.08   11.20
   6   9  12   17.87    8.47
  -6   9 -12    6.47   10.45
  -7  -9 -12   16.32   12.18
  -7  -9 -12   25.75    8.21
   7  -9  12   13.06    9.48
  -7   9 -12   25.88   13.27
   7   9  12   12.78   10.67
  -7 -10  12   15.02   12.11
  -7 -10  12    6.81    8.50
   7  10 -12    4.01    8.08
  -7  10  12   -2.87    7.87
  -6 -10  12    0.67    6.32
   6  10 -12   19.88    9.37
  -6  10  12    7.66    7.66
  -5 -10  12    6.79    8.18
   5  10 -12   11.77    8.29
  -5  10  12    6.12    6.41
  -4 -10  12  269.78   22.66
   4  10 -12  280.28   24.78
  -3 -10  12   30.84    9.93
   3  10 -12   29.51   10.80
  -2 -10  12    7.94    6.41
  -2  10  12   -0.64    3.19
   2  10 -12   -5.30    6.88
  -1 -10  12   17.95    8.14
  -1  10  12   11.95    4.29
  -1  10  12   12.11    4.41
   1  10 -12    5.43    7.50
   0 -10  12  315.70   19.39
   0 -10  12  301.05   21.19
   0  10  12  305.74   16.11
   0  10  12  337.91   16.57
   0  10 -12  307.58   24.74
   1 -10  12   53.77   11.73
  -1 -10 -12   32.76    9.39
   1 -10  12   47.44    8.88
  -1 -10 -12   29.95    6.50
   1  10  12   51.34    8.23
   1  10  12   48.41    7.94
  -1  10 -12   39.87   11.79
   2 -10  12   25.57    8.86
   2 -10  12    9.67    6.08
  -2 -10 -12   21.03    7.12
   2  10  12   28.01    7.06
   2  10  12   14.64    5.46
  -2  10 -12   20.58   10.83
  -3 -10 -12   17.01    7.59
  -3 -10 -12    9.22    6.41
   3 -10  12    9.77    7.24
  -3  10 -12   13.84    9.34
   3  10  12   27.60    9.43
   3  10  12   18.55    7.08
  -4 -10 -12  149.50   15.31
   4 -10  12  148.39   18.29
  -4 -10 -12  164.31   17.47
   4  10  12  158.26   16.18
  -4  10 -12  162.59   22.18
   4  10  12  152.70   16.97
  -5 -10 -12   86.60   16.09
   5 -10  12   88.53   15.21
  -5 -10 -12   52.50   10.72
  -5 -10 -12   59.06    9.84
  -5  10 -12   73.87   16.31
   5  10  12   61.75   12.57
  -6 -10 -12   56.40   10.95
  -6 -10 -12    9.91   11.15
   6 -10  12   12.64    9.53
   6  10  12   28.14   10.62
  -6  10 -12   33.61   13.90
  -7 -11  12   16.50   13.86
  -7  11  12    7.06   10.46
   7  11 -12   16.36    9.77
  -6 -11  12  116.73   19.02
  -6  11  12   73.10   14.18
   6  11 -12  132.49   21.24
  -5 -11  12   23.90    9.59
   5  11 -12   16.89    9.29
  -4 -11  12   -7.67    4.87
   4  11 -12   -0.34    7.53
  -4  11  12   -3.71    4.57
  -3 -11  12   -1.02    5.96
   3  11 -12    2.15    7.10
  -2 -11  12   98.65   15.58
   2  11 -12   55.37   13.31
  -2  11  12   78.34    7.87
  -1 -11  12   33.21    9.84
   1  11 -12   23.41   10.70
  -1  11  12   26.92    4.69
   0 -11  12   10.49    7.05
   0 -11  12   10.07    5.61
   0  11  12    2.63    3.59
   0  11 -12    6.24    8.65
   0  11  12   -3.35    3.35
   1 -11  12    2.07    5.13
   1 -11  12    9.78    7.19
   1  11  12   -6.06    3.97
   1  11  12    0.44    4.46
  -1  11 -12   -5.31    5.65
   2 -11  12   66.53   10.58
   2 -11  12   65.00   11.99
  -2 -11 -12   80.68    8.63
  -2 -11 -12   58.50   12.26
   2  11  12   67.67   10.61
  -2  11 -12   80.44   16.22
   2  11  12   66.94    9.63
   3 -11  12   41.09   10.35
  -3 -11 -12   18.19    9.83
  -3 -11 -12   30.13    9.10
   3  11  12   28.74    8.04
   3  11  12   37.88    9.35
  -3  11 -12   14.63    9.37
  -4 -11 -12   -1.80    5.53
  -4 -11 -12  -12.17    8.91
   4 -11  12    6.45    6.73
  -4  11 -12    4.67    6.85
   4  11  12    5.31    9.06
   4  11  12    1.12    5.73
  -5 -11 -12    1.22    9.47
  -5 -11 -12    4.82    6.67
  -5 -11 -12  -13.90    5.17
   5 -11  12   -5.05    6.85
   5  11  12    2.26    7.03
  -5  11 -12   19.31   11.00
  -6 -11 -12   48.06   10.97
   6 -11  12   55.19   12.85
  -6 -11 -12   44.44   13.46
   6  11  12   53.00   13.22
  -6 -12  12    5.92    8.03
   6  12 -12    7.99    9.37
  -5 -12  12   38.92   12.27
   5  12 -12   43.05   13.88
  -4 -12  12   37.74   12.07
   4  12 -12   49.15   13.48
  -4  12  12   29.99    6.31
  -3 -12  12    5.34    6.93
   3  12 -12    1.91    7.36
  -2 -12  12    8.03    6.40
  -2  12  12    4.38    3.72
   2  12 -12   -2.70    6.77
  -1 -12  12   35.95   10.24
  -1  12  12   35.99    6.00
  -1  12  12   34.45    5.61
   1  12 -12   38.69   12.07
   0 -12  12   81.39   12.49
   0 -12  12   59.29   11.53
   0  12  12   56.81    7.13
   0  12 -12   69.11   14.51
   0  12  12   78.08    8.14
  -1 -12 -12    9.50    7.12
   1 -12  12   -5.08    5.08
   1 -12  12   -6.17    4.35
   1  12  12   -2.21    3.86
  -1  12 -12    3.57    7.65
   1  12  12   -2.01    3.99
  -2 -12 -12   11.21    3.33
  -2 -12 -12    3.11    3.07
  -2 -12 -12    3.06    6.58
   2 -12  12   33.21    8.44
   2 -12  12   46.63   10.66
   2  12  12   18.76    6.49
  -2  12 -12    9.09    9.70
   3 -12  12   33.92    9.48
  -3 -12 -12   15.85    8.16
   3  12  12   19.75    7.67
  -3  12 -12   33.98   12.37
   3  12  12   31.47    8.68
  -4 -12 -12   32.61    9.60
  -4 -12 -12   18.40    9.60
   4 -12  12   31.48    9.37
  -4  12 -12   14.08    9.80
   4  12  12   36.16    9.26
  -5 -12 -12    8.75   11.16
  -5 -12 -12   -4.69    6.28
   5 -12  12   16.07    8.37
  -5  12 -12    1.78    8.76
   5  12  12   13.95    7.84
  -6 -13  12  151.32   22.21
   6  13 -12  196.71   40.72
  -5 -13  12    5.54    9.30
   5  13 -12   24.64   11.12
  -4 -13  12   10.10    8.95
  -4  13  12    9.50    4.91
   4  13 -12   -5.15    5.86
  -3 -13  12    4.21    7.10
  -3  13  12   -5.14    3.50
   3  13 -12   19.93   10.32
  -2  13  12  196.68   10.55
   2  13 -12  202.76   21.36
  -1 -13  12   32.02    9.07
  -1 -13  12   13.55    7.77
  -1  13  12   10.57    3.74
   1  13 -12   13.55    9.38
   0 -13  12    9.10    6.78
   0 -13  12    9.89    7.21
   0 -13 -12   -7.66    6.48
   0  13 -12    0.08    6.62
   0  13  12    9.43    3.68
   0  13  12    5.74    4.12
   1 -13  12   20.98    7.95
   1 -13  12   28.87    9.89
  -1 -13 -12    4.35    7.11
  -1  13 -12   18.44    9.00
   1  13  12    8.53    5.24
   1  13  12   15.46    5.29
   2 -13  12  160.00   15.89
   2 -13  12  155.23   16.43
  -2 -13 -12  123.20   17.84
  -2  13 -12  139.76   20.91
   2  13  12  160.40   13.69
   2  13  12  145.23   13.43
   3 -13  12   44.10   10.71
   3 -13  12   36.43    9.24
  -3 -13 -12   39.42   11.31
  -3 -13 -12   24.51    8.61
   3  13  12   43.24    9.44
   3  13  12   39.54    9.37
  -3  13 -12   49.65   13.75
  -4 -13 -12   13.02    8.21
  -4 -13 -12    6.79    9.54
   4 -13  12    3.20    6.54
   4  13  12    3.08    6.67
   4  13  12  -20.22   10.32
  -4  13 -12   -2.66    8.52
  -5 -13 -12   -0.54    8.19
  -5 -13 -12   12.54   13.53
   5 -13  12    4.82    7.22
  -5  13 -12   12.61   13.41
   5  13  12   11.98    8.65
  -5 -14  12   25.15   11.43
   5  14 -12    8.28    9.87
  -4 -14  12   11.55    9.78
   4  14 -12   27.23   11.67
  -3 -14  12   79.24   14.43
  -3  14  12   72.31    6.59
  -3  14  12   50.31    5.88
   3  14 -12   87.02   16.54
  -2 -14  12    9.76    7.01
  -2 -14  12    5.58    6.47
   2  14 -12    1.69    6.08
  -2  14  12    8.12    2.77
  -1 -14  12   38.06    9.81
  -1 -14  12   37.27   10.76
  -1  14  12   46.30    5.52
   1  14 -12   53.55   13.73
   0 -14 -12   48.10   13.68
   0 -14  12   60.58   12.07
   0 -14  12   56.21   11.73
   0  14  12   47.70    4.81
   0  14 -12   33.30   12.38
   0  14  12   57.93    7.41
   1 -14  12   57.19   11.71
   1 -14  12   40.10   11.09
  -1 -14 -12   35.61   11.43
  -1  14 -12   55.19   14.22
   1  14  12   42.57    7.42
  -2 -14 -12    4.13    8.02
   2 -14  12   -5.51    5.56
  -2  14 -12    6.34    7.56
   2  14  12   -5.33    3.56
   2  14  12   -9.29    4.92
   3 -14  12   34.55    9.02
  -3 -14 -12   17.89   10.39
   3 -14  12   32.51    9.00
   3  14  12   37.68    9.78
   3  14  12   15.92    7.69
  -3  14 -12   45.28   13.24
  -4 -14 -12   19.67    9.44
   4 -14  12   44.42   10.93
  -4 -14 -12   38.69   11.43
  -4  14 -12   47.44   15.15
   4  14  12   33.87    9.88
  -4 -15  12    9.42   10.04
   4  15 -12   12.04   11.31
  -3 -15  12   95.71   15.70
  -3  15  12   73.54    6.05
   3  15 -12   87.87   17.32
  -2 -15  12   23.44   10.38
  -2 -15  12   24.05    9.30
  -2  15  12   23.13    3.39
   2  15 -12   35.13   12.07
  -1 -15  12    7.90    6.73
  -1 -15  12    7.42    7.62
   1  15 -12   14.15    9.44
  -1  15  12   -0.32    3.11
   0 -15 -12   26.11   11.42
   0 -15  12   16.13    8.15
   0 -15  12   27.42    8.81
   0  15 -12   17.90   10.03
   0  15  12   13.57    4.46
   1 -15  12   97.52   15.03
  -1 -15 -12  121.36   20.24
   1 -15  12   97.45   13.64
  -1  15 -12   69.56   15.38
   1  15  12   74.01    9.44
   1  15  12   96.95    8.97
   2 -15  12   11.56    7.44
   2 -15  12   17.36    8.79
  -2 -15 -12   31.96   10.94
   2  15  12   22.66    6.84
   2  15  12    4.96    5.95
  -2  15 -12    1.08    8.93
   3 -15  12   10.90    6.82
   3 -15  12    0.73    6.86
  -3 -15 -12    5.08    9.94
   3  15  12    9.56    6.20
   3  15  12  -14.14    7.69
  -3  15 -12    3.47    9.06
  -4 -15 -12   56.16   14.58
   4 -15  12   36.52    9.33
  -4  15 -12   31.27   15.12
   4  15  12   49.35   10.42
  -4 -16  12   34.38   10.50
   4  16 -12   48.21   13.84
  -3 -16  12    8.09   10.46
  -3 -16  12    4.21    7.44
  -3  16  12   10.11    2.08
   3  16 -12    2.70    8.95
  -2 -16  12   -0.10    6.97
  -2 -16  12   -2.19    8.53
  -2  16  12    1.31    1.78
   2  16 -12   14.86    9.80
  -1 -16  12    1.26    7.30
  -1 -16  12  -10.12    5.99
   1  16 -12   -4.00    6.24
  -1  16  12    0.37    2.69
   0 -16 -12   27.90   13.17
   0 -16  12   35.68    9.90
   0 -16  12   46.96   12.12
   0  16  12   31.76    6.87
   0  16 -12   28.80   11.11
   1 -16  12    9.25    7.80
   1 -16  12    1.85    7.43
  -1 -16 -12   16.82   11.17
   1  16  12   15.90    5.78
  -1  16 -12    1.77    9.20
   2 -16  12   -7.96    5.97
  -2 -16 -12    0.13    7.42
   2 -16  12   -8.61    5.78
   2  16  12    1.31    5.40
  -2  16 -12   -8.46    8.03
   2  16  12    5.03    6.22
  -3 -16 -12    0.45   10.65
   3 -16  12    6.78    6.61
   3 -16  12   -3.42    7.21
  -3  16 -12    6.74   12.45
   3  16  12   -5.07    6.47
  -2 -17  12    5.57    7.31
  -2 -17  12   -2.72    8.23
  -1 -17  12   70.17   12.14
  -1 -17  12   54.49   13.17
   1  17 -12   55.89   14.63
  -1  17  12   48.11    5.17
   0 -17 -12   23.67   12.58
   0 -17  12   50.28   10.93
   0 -17  12   25.86   10.39
   0  17 -12   22.07   11.32
   1 -17  12   59.94   13.53
  -1 -17 -12   51.32   14.43
   1 -17  12   56.04   10.98
   1  17  12   70.43    9.33
  -1  17 -12  142.37   33.25
   1  17  12   83.73    5.60
  -8   0  13  -19.29    8.99
   8   0 -13    1.26    7.30
   7   0 -13    5.77    7.06
  -7   0  13    4.05    9.12
  -6   0  13    2.96    9.31
   6   0 -13    6.05    6.07
   5   0 -13    1.89    6.52
  -5   0  13    1.57    9.10
   4   0 -13   -2.19    4.85
  -3   0  13   -0.56    6.07
  -3   0  13    0.14    5.70
   3   0 -13    4.65    6.67
  -2   0  13    4.37    5.16
  -2   0  13    2.39    5.23
   2   0 -13    5.99    6.37
  -1   0  13   -0.47    5.34
  -1   0  13   -3.07    5.57
   1   0 -13   -7.06    5.24
   0   0  13    7.98    6.74
   0   0 -13   -5.06    5.13
   0   0  13    1.60    3.24
   1   0  13   -0.82    1.78
   1   0  13    4.47    5.87
   1   0  13   -2.82    5.00
  -1   0 -13   -3.09    4.11
  -1   0 -13    7.42    6.58
   2   0  13   -0.35    6.81
   2   0  13   -2.04    6.90
  -2   0 -13   11.73    7.46
  -3   0 -13  -10.02    6.18
   4   0  13    2.01    6.46
  -4   0 -13  -10.51    5.61
  -5   0 -13    1.92    8.09
   5   0  13    0.58    6.77
   6   0  13    4.22    7.10
  -6   0 -13    0.38    8.17
   7   0  13   11.68    8.29
  -7   0 -13   22.04   12.37
   8  -1 -13    6.33   14.00
  -8  -1  13  -18.43    7.75
   8   1 -13    3.50    8.25
  -8   1  13  -12.64    8.42
   7  -1 -13   22.26    9.36
  -7  -1  13   20.37   11.87
  -7   1  13   34.38   15.57
   7   1 -13   30.64   13.32
  -6  -1  13   55.94   15.86
   6  -1 -13   80.59   13.75
   6   1 -13   86.14   15.04
  -6   1  13   81.55   19.06
  -5  -1  13  213.99   28.40
   5  -1 -13  216.76   18.37
   5   1 -13  218.16   19.04
  -5   1  13  234.33   25.87
   4  -1 -13   15.43    7.47
   4   1 -13   29.98    9.11
  -3  -1  13   20.11    8.01
  -3  -1  13   13.85    6.96
   3  -1 -13   16.86    7.45
  -3   1  13   19.47    8.31
   3   1 -13   25.28    9.22
  -2  -1  13  174.07   15.54
  -2  -1  13  148.74   15.56
   2  -1 -13  157.72   14.51
   2   1 -13  170.49   16.08
  -2   1  13  154.68   13.97
  -2   1  13  141.34   14.79
  -1  -1  13  295.51   19.91
  -1  -1  13  277.59   20.08
   1  -1 -13  293.64   19.16
  -1   1  13  308.02   19.91
  -1   1  13  278.70   18.85
   1   1 -13  300.37   20.61
   0  -1  13   29.18    8.57
   0  -1  13    4.26    6.90
   0  -1 -13   29.01    8.44
   0   1  13   25.61    5.46
   0   1 -13   31.91    9.08
   0   1  13   31.64    8.86
   0   1  13   31.96    8.61
   1  -1  13    6.33    6.20
  -1  -1 -13   -2.56    6.12
   1  -1  13    2.71    6.23
  -1  -1 -13   -9.37    4.61
   1  -1  13    0.99    1.40
   1   1  13    3.33    2.46
   1   1  13   -4.91    5.40
  -1   1 -13    3.37    7.10
  -1   1 -13    4.44    5.31
  -2  -1 -13  122.34   15.71
  -2  -1 -13  113.02   13.59
   2  -1  13  111.86   15.45
  -2   1 -13  115.24   16.17
   2   1  13  108.84   14.64
   2   1  13   95.58   13.27
  -3  -1 -13  214.41   18.94
   3  -1  13  199.77   18.60
  -3   1 -13  211.69   19.44
   3   1  13  210.55   18.61
  -4  -1 -13   25.19    8.74
   4  -1  13   38.43   11.51
   4   1  13   40.87   11.25
  -4   1 -13   42.48   11.52
  -5  -1 -13  -10.09    5.91
   5  -1  13   -1.02    5.45
  -5   1 -13   -4.79    6.95
   5   1  13   -8.39    5.09
  -6  -1 -13   36.23   12.80
   6  -1  13   37.31   11.73
   6   1  13   27.06   10.32
  -6   1 -13   33.81   12.32
  -7  -1 -13  137.87   22.08
   7  -1  13  102.61   18.51
  -7   1 -13  128.32   21.96
   7   1  13   68.18   15.16
  -8  -2  13   -8.78   10.26
   8  -2 -13   14.31    8.49
   8   2 -13   23.97   10.92
  -8   2  13    4.63    9.75
   7  -2 -13  108.03   15.73
  -7  -2  13  107.37   23.55
  -7   2  13  106.95   22.12
   7   2 -13  132.31   18.90
   6  -2 -13   50.81   10.97
  -6  -2  13   34.26   14.05
  -6   2  13   28.77   13.11
   6   2 -13   20.90    9.44
  -5  -2  13   46.39   16.28
   5  -2 -13   67.31   11.89
   5   2 -13   86.57   14.46
  -5   2  13   69.07   16.40
   4  -2 -13   37.00    9.21
   4   2 -13   34.54    9.86
  -3  -2  13  152.83   15.56
   3  -2 -13  199.74   15.71
   3   2 -13  153.12   16.50
  -3   2  13  167.37   15.41
  -2  -2  13   51.68   11.19
  -2  -2  13   59.21   12.01
   2  -2 -13   55.18   10.35
  -2   2  13   69.69   10.84
   2   2 -13   63.00   12.21
  -2   2  13   53.57   10.60
  -1  -2  13   19.97    7.54
   1  -2 -13   30.57    8.03
  -1  -2  13   18.66    7.72
  -1   2  13   29.76    7.87
   1   2 -13   27.90    8.93
  -1   2  13   26.73    7.50
  -1   2  13   18.72    7.19
   0  -2  13   49.19   10.28
   0  -2 -13   34.84    8.28
   0  -2  13   42.70   10.15
   0   2  13   33.51    8.76
   0   2  13   39.12    6.48
   0   2  13   44.77    9.64
   0   2 -13   32.49    9.50
  -1  -2 -13  173.54   15.62
  -1  -2 -13  149.68   12.10
   1  -2  13  146.84    5.71
   1  -2  13  158.22   15.98
   1   2  13  152.76    9.11
   1   2  13  146.15   14.06
   1   2  13  145.41   14.85
  -1   2 -13  174.84   16.85
  -2  -2 -13   67.00   10.53
   2  -2  13   70.51   13.14
  -2  -2 -13   59.01   11.45
   2   2  13   73.35   12.38
  -2   2 -13   80.25   14.04
   2   2  13   69.24   11.95
   3  -2  13   15.88    8.16
  -3  -2 -13   26.30    8.62
  -3   2 -13    8.73    7.47
   3   2  13   24.31    7.46
   4  -2  13   51.01   12.48
  -4  -2 -13   54.82   12.69
   4   2  13   29.61    9.52
  -4   2 -13   54.66   12.55
   5   2  13  100.09   16.32
  -5   2 -13  111.16   18.48
   6  -2  13   52.04   13.00
  -6  -2 -13   75.05   16.58
   6   2  13   54.54   13.15
  -6   2 -13   55.98   14.20
   7  -2  13   -8.42    8.01
  -7  -2 -13   -0.27    8.59
  -7   2 -13  -10.67    8.78
   7   2  13    1.38    7.26
  -8  -3  13   35.39   18.66
   8  -3 -13   56.19   12.78
   8   3 -13   34.48   12.90
  -8   3  13   40.69   16.73
  -7  -3  13  -23.71    7.26
   7  -3 -13    7.42    6.76
  -7   3  13   -3.47   10.41
   7   3 -13    8.11    7.63
   6  -3 -13   34.22   10.00
  -6  -3  13   33.29   14.29
  -6   3  13   -0.81    8.66
   6   3 -13   27.46   10.07
   5  -3 -13    5.82    5.87
  -5  -3  13  -14.79    5.89
  -5   3  13    3.11    8.55
   5   3 -13   13.29    8.00
   4  -3 -13   58.73    9.96
   4   3 -13   77.31   13.41
   3  -3 -13   48.20    9.23
  -3  -3  13   42.55   10.01
   3   3 -13   38.57   10.71
  -2  -3  13   39.02   10.01
   2  -3 -13   39.66    8.20
   2   3 -13   28.48    9.72
  -2   3  13   29.87    7.70
  -2   3  13   40.64    8.82
  -2   3  13   33.64    9.11
  -1  -3  13   12.84    6.98
   1  -3 -13   12.05    6.48
  -1   3  13   14.07    6.56
  -1   3  13   19.74    6.63
   1   3 -13   12.47    7.21
  -1   3  13   13.91    6.77
   0  -3  13   23.07    8.37
   0  -3 -13   23.84    7.15
   0   3  13   21.09    6.24
   0   3 -13   12.67    7.43
   0   3  13   29.68    8.34
   0   3  13   23.23    7.18
   1  -3  13    6.42    7.90
  -1  -3 -13   16.42    7.62
   1  -3  13   28.42    3.13
   1   3  13   27.17    7.98
   1   3  13   26.79    8.86
  -1   3 -13   22.79    9.25
   1   3  13   33.46    5.74
   2  -3  13    8.99    8.48
  -2  -3 -13    6.50    5.59
  -2  -3 -13   29.03    8.15
  -2   3 -13   21.15    9.09
   2   3  13   10.61    6.91
   2   3  13   15.73    8.92
  -3  -3 -13   -4.34    5.50
   3  -3  13    8.17    6.73
  -3  -3 -13    5.70    7.04
  -3   3 -13    6.47    7.47
   3   3  13    5.94    6.24
   3   3  13   -6.05    5.71
   4  -3  13    5.01    7.56
  -4  -3 -13    6.66    7.85
   4   3  13   19.98    7.81
  -4   3 -13    7.50    7.34
  -5  -3 -13   43.97   12.12
   5  -3  13   22.58   10.18
   5   3  13   39.40   10.63
  -5   3 -13   48.28   12.56
  -6  -3 -13   18.10   11.45
   6  -3  13   27.93   10.64
  -6   3 -13   32.52   12.49
   6   3  13   32.71   10.19
  -7  -3 -13    2.66    9.59
   7  -3  13    5.06    8.97
  -7   3 -13    8.72   10.94
   7   3  13   -9.79    6.57
   8  -4 -13   34.58   10.09
  -8  -4  13    1.78   12.28
  -8   4  13   15.24   12.99
   8   4 -13   22.92   11.44
   7  -4 -13  134.07   17.19
  -7  -4  13  104.85   23.19
   7   4 -13  149.25   21.19
  -7   4  13  140.00   23.68
   6  -4 -13    0.24    5.31
  -6  -4  13    2.03    8.93
   6   4 -13    6.77    7.73
  -6   4  13  -18.71    6.02
   5  -4 -13   -0.49    5.27
  -5  -4  13    0.95    9.42
  -5   4  13   -2.89    7.11
   5   4 -13   10.59    9.14
  -4  -4  13   58.86   11.81
   4  -4 -13   48.09    9.39
   4   4 -13   69.89   13.61
   3  -4 -13  224.36   15.39
   3   4 -13  270.73   21.29
   2  -4 -13    6.53    5.71
  -2  -4  13    8.71    7.65
  -2   4  13   10.88    6.46
   2   4 -13    5.10    7.03
  -2   4  13   -0.51    4.78
  -2   4  13   -1.91    6.06
   1  -4 -13    5.43    5.28
  -1  -4  13    2.83    6.95
  -1   4  13    3.67    5.56
  -1   4  13    0.17    5.14
   1   4 -13   -3.80    5.92
   0  -4 -13   82.29   11.02
   0  -4  13   87.89   13.77
   0   4  13   82.32   10.19
   0   4 -13   58.67   11.99
   0   4  13  101.95   12.72
   0   4  13   82.96   11.62
  -1  -4 -13  241.24   16.95
   1  -4  13  235.41   19.15
   1  -4  13  210.81    9.46
   1   4  13  207.65   12.85
   1   4  13  206.29   16.28
  -1   4 -13  259.96   20.96
   1   4  13  215.24   16.55
  -2  -4 -13    6.06    5.71
  -2  -4 -13   -0.41    4.11
   2  -4  13   -1.22    6.57
  -2   4 -13   -0.99    6.23
   2   4  13    0.67    5.72
   2   4  13   13.00    7.16
   3  -4  13    5.05    7.25
  -3  -4 -13    3.30    6.35
  -3  -4 -13    4.86    6.76
   3   4  13    3.58    6.66
   3   4  13    4.73    6.69
  -3   4 -13    6.31    6.90
  -4  -4 -13  108.17   16.06
   4  -4  13   70.17   13.07
  -4   4 -13   68.47   14.54
   4   4  13   66.35   12.56
   5  -4  13   56.76   13.40
  -5  -4 -13   85.04   16.58
   5   4  13   76.95   14.31
  -5   4 -13  123.74   19.26
   6  -4  13   24.79   10.07
  -6  -4 -13   18.86    3.04
  -6  -4 -13   38.37   12.32
  -6   4 -13   22.64   10.42
   6   4  13   25.42    9.33
  -7  -4 -13    4.60    4.24
  -7  -4 -13   -4.39    9.73
   7  -4  13    9.40    8.99
  -7   4 -13    5.30   10.81
   7   4  13   -2.14    6.92
  -8  -5  13   35.86   15.94
   8  -5 -13   35.07   10.83
   8   5 -13   39.95   14.01
  -8   5  13   49.89   16.23
   7  -5 -13   38.53    9.91
  -7  -5  13   54.46   18.15
  -7   5  13   27.81   14.20
   7   5 -13   56.80   13.97
  -6  -5  13    6.42    9.52
   6  -5 -13   -1.53    5.25
  -6   5  13   -6.18    7.27
   6   5 -13    2.48    7.53
  -5  -5  13   30.13   13.02
   5  -5 -13   50.51   10.37
   5   5 -13   36.57   10.66
  -5   5  13   25.80   11.83
  -4  -5  13  144.44   17.85
   4  -5 -13  126.41   11.96
   4   5 -13  118.78   17.19
   3  -5 -13   41.74    7.44
  -3  -5  13   43.19   10.51
   3   5 -13   43.47   11.21
   2  -5 -13   -1.82    3.74
  -2   5  13    0.86    4.94
  -2   5  13   -4.12    4.20
   2   5 -13    0.47    6.05
   1  -5 -13   91.19    9.92
  -1  -5  13   97.25   14.62
  -1   5  13   75.81   10.92
  -1   5  13   85.46   11.92
   1   5 -13   74.02   13.94
  -1   5  13   80.14   11.21
   0  -5 -13  119.36   11.79
   0  -5  13  145.46   15.52
   0   5  13  128.83   12.13
   0   5  13  124.72   12.95
   0   5 -13  144.91   17.98
   0   5  13  120.87   11.47
  -1  -5 -13   90.84   11.69
   1  -5  13   96.99    7.11
  -1   5 -13  105.12   16.01
   1   5  13   99.15   12.44
   1   5  13  102.38   12.70
   1   5  13   92.63    9.81
  -2  -5 -13   -4.40    3.92
  -2  -5 -13   -4.83    5.12
   2  -5  13   -2.79    5.44
   2   5  13    1.26    5.59
   2   5  13  -10.84    3.57
  -2   5 -13    5.95    7.86
   3  -5  13   79.04   13.58
  -3  -5 -13   77.15   13.07
  -3  -5 -13   62.22   13.04
  -3   5 -13   73.12   14.72
   3   5  13   59.65   11.18
   3   5  13   63.25   11.73
  -4  -5 -13   73.33   13.66
  -4  -5 -13  108.93    8.43
   4  -5  13   90.21   16.19
   4   5  13   83.32   13.91
  -4   5 -13  113.44   18.60
  -5  -5 -13   19.12    9.67
   5  -5  13   38.45   11.53
  -5  -5 -13   48.75    6.25
   5   5  13   52.66   12.24
  -5   5 -13   50.06   13.66
  -6  -5 -13   -3.91    3.33
   6  -5  13    7.96    7.68
  -6  -5 -13   -2.13    7.19
  -6   5 -13   -9.72    7.95
   6   5  13    2.47    7.69
  -7  -5 -13   32.73    5.68
   7  -5  13   25.60   11.31
  -7  -5 -13    2.35   10.32
  -7   5 -13   17.16   11.44
   7   5  13    1.05    8.36
   8  -6 -13   27.31   11.01
  -8  -6  13   22.18   16.06
  -8   6  13   18.96   11.53
   8   6 -13    6.86   10.17
  -7  -6  13   23.12   13.96
   7  -6 -13   24.97    9.55
   7   6 -13   53.65   14.18
  -7   6  13   13.59   12.42
  -6  -6  13  116.84   22.69
   6  -6 -13  147.97   13.98
   6   6 -13  163.57   22.29
  -6   6  13  130.46   20.58
   5  -6 -13   52.57    8.78
  -5  -6  13   42.21   11.17
   5   6 -13   43.11   12.03
  -5   6  13   33.91   12.54
  -4  -6  13   80.13   14.19
   4  -6 -13   72.47   10.89
   4   6 -13   56.72   12.88
   3  -6 -13   17.33    5.84
  -3  -6  13    5.37    6.42
   3   6 -13   17.87    8.73
   2  -6 -13  206.27   13.87
   2  -6 -13  193.84   13.79
  -2  -6  13  208.26   18.01
  -2   6  13  213.55   14.62
  -2   6  13  217.77   14.77
   2   6 -13  208.84   19.55
   1  -6 -13   47.95    8.98
   1  -6 -13   69.27   10.06
  -1  -6  13   69.75   15.84
  -1   6  13   93.62   10.18
  -1   6  13   85.39   11.03
  -1   6  13   96.51   13.05
   1   6 -13   96.30   15.38
   0  -6 -13   63.00    8.80
   0   6  13   80.58   11.52
   0   6  13   84.24   11.20
   0   6  13   86.67   11.45
   0   6 -13   87.84   15.62
   1  -6  13    4.95    3.62
  -1  -6 -13    4.38    5.16
   1  -6  13    1.05    6.29
  -1   6 -13   -2.17    6.99
   1   6  13   -0.42    4.68
   1   6  13   12.34    6.21
  -2  -6 -13   97.27   13.24
   2  -6  13  118.53   16.79
   2   6  13  130.55   13.24
  -2   6 -13  117.98   17.12
   2   6  13   87.47   12.41
  -3  -6 -13   76.48   12.68
  -3  -6 -13   76.11    9.52
  -3  -6 -13   86.91   10.85
   3  -6  13   94.84   15.13
   3   6  13   69.96   11.89
  -3   6 -13   76.82   15.21
   3   6  13   65.96   12.30
   4  -6  13   71.45   14.73
  -4  -6 -13   68.67    8.69
  -4  -6 -13   75.68   13.71
  -4  -6 -13   74.63   11.31
   4   6  13   88.69   14.22
  -4   6 -13   73.00   15.71
  -5  -6 -13   -0.44    4.03
   5  -6  13   11.69    8.03
  -5  -6 -13    6.12    8.16
   5   6  13   21.73    9.10
  -5   6 -13   16.70   10.22
  -6  -6 -13   34.16   13.14
  -6  -6 -13   30.78    6.12
   6  -6  13   32.02   11.00
   6   6  13   35.49   10.96
  -6   6 -13   44.57   14.23
  -7  -6 -13   66.62   17.28
   7  -6  13   63.31   15.44
  -7  -6 -13   68.49    8.81
   7   6  13   77.18   15.60
  -7   6 -13   66.36   17.84
   8  -7 -13  -10.07   12.98
  -8  -7  13    9.58   15.14
  -8   7  13   -6.52   10.58
   8   7 -13   19.78   10.68
   7  -7 -13   -0.15    6.52
  -7  -7  13   21.82   16.32
  -7   7  13    2.57   10.66
   7   7 -13   -0.45    7.61
  -6  -7  13   21.10   13.31
  -6   7  13   14.70    9.08
   6   7 -13   19.35   10.06
  -5  -7  13   25.29    9.61
  -5   7  13   40.64   12.94
   5   7 -13   41.73   11.90
  -4  -7  13    4.82    6.63
   4   7 -13    3.77    7.63
  -3  -7  13   -5.86    5.33
   3  -7 -13    0.58    2.75
   3  -7 -13   -3.76    3.25
   3   7 -13    2.36    7.40
   2  -7 -13   28.40    6.61
  -2  -7  13   54.45   11.83
   2  -7 -13   33.45    5.03
  -2   7  13   55.31    8.49
   2   7 -13   24.26   12.09
  -2   7  13   34.24    6.90
   1  -7 -13   99.05    9.49
  -1  -7  13  111.94   15.80
  -1   7  13  104.93   10.53
  -1   7  13   82.19   10.29
   0  -7  13    1.19    6.46
   0  -7 -13   -7.19    3.64
   0  -7 -13   -4.34    4.56
   0   7  13    1.43    4.38
   0   7  13    0.20    4.43
   0   7  13  -13.65    4.25
   1  -7  13    2.31    6.03
   1  -7  13   -3.64    2.97
  -1  -7 -13    7.86    5.41
  -1   7 -13    6.66    7.71
   1   7  13    3.56    4.37
   1   7  13    6.50    5.32
   2  -7  13   26.59    4.34
   2  -7  13   29.81    9.53
  -2  -7 -13   24.77    8.66
  -2   7 -13   24.48   10.12
   2   7  13   27.52    7.19
   2   7  13   13.90    6.23
  -3  -7 -13   64.97    8.28
   3  -7  13   76.58   14.17
  -3  -7 -13   66.67   11.95
  -3  -7 -13   78.82   10.19
   3   7  13   80.66   12.46
  -3   7 -13   73.62   15.10
   4  -7  13   -2.93    6.36
  -4  -7 -13  -11.77    5.34
  -4  -7 -13    4.21    4.85
   4   7  13    1.86    6.21
  -4   7 -13    2.60    8.52
   5  -7  13   17.07    9.67
  -5  -7 -13    4.64    4.86
  -5  -7 -13    6.83    7.30
   5   7  13   -4.95    5.38
  -5   7 -13    1.01    8.63
   6  -7  13   17.75    8.78
  -6  -7 -13    8.78   16.03
  -6  -7 -13   15.84    5.88
   6   7  13   21.24   10.03
  -6   7 -13    8.52   10.02
  -7  -7 -13   15.79    6.09
  -7  -7 -13   51.85   16.56
   7  -7  13   -2.75    7.75
   7   7  13   40.27   12.81
  -7  -8  13    3.29   11.52
  -7   8  13   -3.05    9.11
   7   8 -13    5.62   10.15
  -6  -8  13   93.00   21.61
  -6  -8  13   53.38   12.47
   6  -8 -13   90.61    9.15
  -6   8  13   99.48   17.98
   6   8 -13   94.25   17.64
  -5  -8  13   43.55   11.80
   5   8 -13   58.89   14.13
  -5   8  13   41.23   11.49
  -4  -8  13    6.56    7.36
   4  -8 -13   15.93    3.36
   4   8 -13   20.48    8.90
  -3  -8  13   12.83    7.44
   3   8 -13    7.14    8.36
  -2  -8  13  133.04   17.12
  -2   8  13  106.45   10.47
  -2   8  13  118.89   10.23
   2   8 -13  108.17   16.16
   1  -8 -13   63.84    5.53
  -1  -8  13   45.10   11.08
   1   8 -13   56.43   12.99
  -1   8  13   60.31    8.40
  -1   8  13   55.17    8.65
   0  -8 -13   29.23    5.02
   0  -8 -13   42.11    7.18
   0  -8  13   34.32    9.66
   0   8  13   39.24    7.68
   0   8  13   46.47    8.37
   0   8 -13   52.90   12.64
   1  -8  13    0.51    3.75
   1  -8  13    0.61    6.05
  -1   8 -13    8.36    7.74
   1   8  13   -3.97    3.85
   1   8  13   -1.45    4.39
   2  -8  13   88.21   14.29
  -2  -8 -13   79.79   11.15
  -2  -8 -13   70.52   10.65
   2  -8  13   93.30    8.25
   2   8  13   77.46   11.43
  -2   8 -13   74.22   14.77
   2   8  13   90.63   12.08
  -3  -8 -13   61.49    9.74
  -3  -8 -13   80.25   12.78
   3  -8  13   59.73   12.52
   3   8  13   55.97   11.04
  -3   8 -13   70.78   15.06
   3   8  13   74.90   11.90
  -4  -8 -13   11.28    8.19
   4  -8  13   29.58    9.43
  -4  -8 -13   36.54    7.92
  -4  -8 -13   27.43    7.73
  -4   8 -13   33.98   11.75
   4   8  13   11.66    7.53
  -5  -8 -13   -5.48    3.85
  -5  -8 -13   -2.71    8.43
   5  -8  13   11.99    8.42
  -5  -8 -13  -14.25    6.20
   5   8  13   -5.18    5.54
  -5   8 -13   -2.69    8.21
  -6  -8 -13   65.98   16.67
  -6  -8 -13   53.51    9.50
   6  -8  13  100.64   17.31
  -6   8 -13   83.87   18.03
   6   8  13   79.42   15.36
  -7  -9  13   32.29   17.54
  -7  -9  13   24.11   10.27
  -7   9  13   29.42   14.15
   7   9 -13   35.76   13.99
   6  -9 -13   14.15    4.08
  -6  -9  13   23.09    9.78
  -6   9  13   34.77   12.02
   6   9 -13   26.17   11.24
  -5  -9  13   -3.02    6.11
   5   9 -13   20.89    9.52
  -4  -9  13  136.60   19.05
   4   9 -13  183.18   20.00
  -3  -9  13   90.36   15.56
   3   9 -13  111.84   17.94
  -2  -9  13   52.62   12.02
  -2   9  13   43.24    7.53
  -2   9  13   34.89    6.17
   2   9 -13   49.02   12.78
  -1  -9  13   21.05    8.37
  -1   9  13    9.02    5.05
  -1   9  13   11.79    4.52
   1   9 -13   22.49    9.16
   0  -9  13  117.27   11.54
   0  -9  13  129.92   16.49
   0  -9 -13  120.73    6.57
   0  -9 -13  112.22    7.76
   0   9  13  112.04   10.79
   0   9 -13  141.21   18.95
   0   9  13  122.90   10.92
   1  -9  13   95.45   11.52
   1  -9  13   89.59   13.76
  -1   9 -13  119.29   17.80
   1   9  13   99.30   10.72
   1   9  13   89.73   11.20
  -2  -9 -13   58.10    9.58
   2  -9  13   50.59    8.11
   2  -9  13   65.06   12.77
  -2  -9 -13   39.24    9.06
  -2   9 -13   62.53   14.38
   2   9  13   60.29    9.88
   2   9  13   42.55    8.89
   3  -9  13   -4.07    5.72
  -3  -9 -13   10.56    8.97
  -3  -9 -13    1.52    5.11
   3   9  13   -2.29    5.19
  -3   9 -13    3.96    8.42
   3   9  13    5.41    7.54
  -4  -9 -13   72.43   10.79
  -4  -9 -13   88.15   15.22
   4  -9  13   90.70   15.04
  -4  -9 -13   62.58    7.92
   4   9  13   79.48   14.22
   4   9  13  117.61   15.89
  -4   9 -13  106.42   18.91
  -5  -9 -13   73.77   15.21
   5  -9  13   65.12   13.89
  -5  -9 -13   69.80   11.01
   5   9  13   66.65   14.03
  -5   9 -13   48.47   15.08
   6  -9  13  100.15   17.75
  -6  -9 -13   56.93   10.48
  -6  -9 -13   73.06   15.48
   6   9  13   92.40   16.38
  -6   9 -13   87.94   18.79
  -7 -10  13    7.15   11.56
  -7  10  13  -18.42    9.30
   7  10 -13    0.38    9.23
  -6 -10  13   -7.60    6.49
   6  10 -13   10.27    8.86
  -6  10  13   -6.58    7.53
  -5 -10  13   -0.08    5.65
   5  10 -13    9.52    7.77
  -4 -10  13   15.69    9.32
   4  10 -13   10.72    7.75
  -3 -10  13   -3.68    5.41
   3  10 -13   11.13    8.43
  -2 -10  13   -6.60    4.61
   2  10 -13    4.12    6.93
  -2  10  13    7.92    4.97
  -1 -10  13    1.05    5.70
   1  10 -13   -0.42    6.48
  -1  10  13    0.19    3.49
  -1  10  13   -6.93    3.18
   0 -10  13   -0.25    3.54
   0 -10  13    1.33    5.98
   0  10  13    4.93    3.67
   0  10  13   -0.52    3.76
   0  10 -13   -7.78    6.14
  -1 -10 -13    0.91    5.14
   1 -10  13    7.05    7.30
   1 -10  13    7.61    5.18
  -1  10 -13    8.39    8.57
   1  10  13    3.00    4.94
   1  10  13    4.96    4.65
   2 -10  13   -6.39    3.77
   2 -10  13   -3.08    6.55
  -2 -10 -13    3.12    6.15
   2  10  13   -4.46    5.13
   2  10  13    6.15    5.15
  -2  10 -13   -3.86    6.72
  -3 -10 -13   -3.15    6.38
   3 -10  13   -4.94    5.96
  -3 -10 -13    9.50    7.11
   3  10  13    3.41    6.61
   3  10  13    5.78    8.22
  -3  10 -13   -5.19    6.88
  -4 -10 -13    1.07    5.31
  -4 -10 -13  -10.61    6.67
   4 -10  13    5.22    7.20
  -4  10 -13   13.99    9.26
   4  10  13    9.64    6.83
   4  10  13   -7.22    8.73
   5 -10  13   -2.01    7.91
  -5 -10 -13    3.03    9.62
  -5 -10 -13   -4.74    5.23
  -5 -10 -13    3.24    7.34
  -5  10 -13    3.49    9.76
   5  10  13   11.05    8.29
   6 -10  13   -0.94    8.65
  -6 -10 -13  -15.82    8.40
  -6 -10 -13   -6.23    7.31
   6  10  13    1.89    7.71
  -6 -11  13   21.01   11.38
   6  11 -13   26.00   12.16
  -5 -11  13    3.71    8.13
   5  11 -13   26.36   11.57
  -4 -11  13   43.09   13.41
   4  11 -13   62.28   15.40
  -3 -11  13   49.55   11.88
   3  11 -13   28.59   11.55
  -3  11  13   41.75    7.29
  -2 -11  13   22.82    9.43
   2  11 -13   27.93   11.10
  -2  11  13   26.02    5.60
  -1 -11  13    9.37    7.31
  -1  11  13    1.96    3.82
  -1  11  13    6.42    4.28
   1  11 -13   -4.50    7.17
   0 -11  13  106.01   15.49
   0 -11  13   95.62   12.66
   0  11  13   83.57    9.01
   0  11 -13  113.87   18.11
   0  11  13  106.40    9.99
   1 -11  13   69.07   10.99
   1 -11  13   85.93   13.95
  -1 -11 -13   82.86   14.99
  -1  11 -13   61.80   14.46
   1  11  13   68.01    9.37
   1  11  13   60.14    9.21
   2 -11  13   86.10   11.66
  -2 -11 -13   92.07    9.45
   2 -11  13   79.89   13.83
   2  11  13   90.59   11.72
  -2  11 -13   70.26   15.43
   2  11  13   64.75   10.43
  -3 -11 -13   -1.34    8.81
   3 -11  13    6.31    6.92
   3  11  13    5.64    7.50
   3  11  13   -8.79    4.97
  -3  11 -13   -8.31    5.22
   4 -11  13   44.38   11.58
  -4 -11 -13   66.15   12.09
  -4 -11 -13   68.52   18.30
   4  11  13  147.62   21.09
  -4  11 -13   48.61   14.32
   4  11  13   61.77   12.30
  -5 -11 -13   82.38   13.52
   5 -11  13   82.59   15.38
  -5 -11 -13   57.77   10.58
  -5 -11 -13   80.22   16.21
   5  11  13   63.19   13.04
  -5  11 -13   50.05   15.13
  -6 -12  13  151.57   22.10
   6  12 -13  152.35   23.86
  -5 -12  13   70.07   14.49
   5  12 -13   41.62   14.35
  -4 -12  13   41.37   11.97
   4  12 -13   24.96   11.10
  -3 -12  13   -7.05    5.72
   3  12 -13   -0.08    6.37
  -3  12  13   -1.59    3.72
  -2 -12  13  134.40   17.43
   2  12 -13  116.63   18.26
  -2  12  13  121.46   11.12
  -1 -12  13  107.37   14.67
  -1 -12  13   94.21   14.60
   1  12 -13   96.44   16.90
  -1  12  13   89.88    8.54
  -1  12  13   70.51    6.67
   0 -12  13   52.93   10.79
   0 -12  13   18.54    8.66
   0  12 -13   34.25   12.07
   0  12  13   42.88    6.74
  -1 -12 -13    0.79    6.71
   1 -12  13    3.63    6.63
   1 -12  13   -0.10    4.68
   1  12  13   -1.40    4.74
  -1  12 -13    1.93    7.79
   1  12  13   -3.83    3.73
   2 -12  13  120.75   12.82
  -2 -12 -13  106.65   15.50
   2 -12  13   97.02   14.81
  -2 -12 -13   60.43    4.09
  -2  12 -13   95.31   17.46
   2  12  13  111.89   11.83
   2  12  13  104.52   12.71
   3 -12  13   63.92   12.69
  -3 -12 -13   74.49   13.78
   3  12  13   43.52   10.95
   3  12  13   53.71   10.74
  -3  12 -13   79.29   17.53
  -4 -12 -13   13.45    9.36
  -4 -12 -13   16.80    8.46
   4 -12  13    9.42    8.98
  -4  12 -13   17.34    9.63
   4  12  13  -10.46   12.77
   4  12  13    6.67    6.92
  -5 -12 -13  -11.96   10.26
   5 -12  13    8.49    8.80
  -5 -12 -13    4.71    7.81
   5  12  13  -11.84    6.21
  -5  12 -13    2.57    9.29
  -5 -13  13   36.13   11.54
   5  13 -13   36.32   12.64
  -4 -13  13   -2.25    7.13
   4  13 -13    4.50    7.86
  -3 -13  13   -5.60    5.98
   3  13 -13  -13.99    5.95
  -3  13  13   -7.77    4.11
  -3  13  13   13.93    5.93
  -2 -13  13    9.12    7.56
   2  13 -13   17.72   10.31
  -2  13  13    5.76    4.23
  -1 -13  13   31.97    9.79
  -1 -13  13   64.95   12.80
  -1  13  13   36.22    6.15
   1  13 -13   37.08   12.04
   0 -13  13   26.56    9.06
   0 -13  13    8.77    6.55
   0  13 -13   20.45   10.21
   0  13  13   14.45    4.31
   0  13  13    9.23    4.79
   1 -13  13   14.03    7.60
  -1 -13 -13   -3.01    6.75
   1 -13  13   14.26    7.35
   1  13  13    6.67    5.17
   1  13  13    0.55    3.89
  -1  13 -13    5.06    7.91
  -2 -13 -13    6.52    7.77
   2 -13  13    0.90    6.04
   2 -13  13    7.07    7.04
  -2  13 -13   13.31    9.57
   2  13  13   10.22    5.73
   2  13  13   -2.23    5.01
   3 -13  13   40.92   10.79
  -3 -13 -13   37.04   10.70
   3  13  13    4.10    8.33
  -3  13 -13   40.65   12.25
   3  13  13   43.40    9.82
  -4 -13 -13    2.51    7.05
   4 -13  13    2.71    7.35
  -4  13 -13   14.98   10.92
   4  13  13   13.42    8.24
  -5 -14  13   24.17   11.04
  -4 -14  13    4.25    8.95
   4  14 -13   42.57   14.74
  -3 -14  13   25.35   10.69
   3  14 -13   32.91   12.97
  -3  14  13   19.80    5.22
  -2 -14  13   69.90   13.66
  -2 -14  13   70.00   14.33
   2  14 -13   62.18   15.07
  -2  14  13   71.30    6.86
  -1 -14  13    7.60    7.53
  -1 -14  13   20.43    9.43
   1  14 -13   20.17   10.62
  -1  14  13   29.48    4.97
   0 -14  13   64.02   13.14
   0 -14  13   61.47   12.29
   0  14 -13   66.47   15.36
   0  14  13   69.08    8.47
   1 -14  13   20.19    9.21
  -1 -14 -13    6.01    8.18
   1 -14  13   23.26    8.29
  -1  14 -13   42.86   13.16
   1  14  13   20.99    6.59
   2 -14  13   10.97    6.61
   2 -14  13   12.97    8.40
  -2 -14 -13   45.27   12.52
  -2  14 -13   23.21   11.72
   2  14  13   13.26    6.28
   2  14  13    7.53    5.98
  -3 -14 -13   34.17   11.03
   3 -14  13   42.11   10.60
  -3  14 -13   38.96   13.83
   3  14  13   17.86   10.52
   3  14  13   31.50   10.90
   4 -14  13   63.23   12.67
  -4 -14 -13   46.02   12.73
   4  14  13   33.36    9.54
  -4 -15  13   63.07   14.88
  -3 -15  13   45.20   12.16
  -3  15  13   23.59    4.65
   3  15 -13   25.74   12.74
  -2 -15  13  -16.11    5.59
  -2 -15  13   10.75    7.66
   2  15 -13    7.54    9.61
  -2  15  13    3.24    3.05
  -1 -15  13   17.58    8.95
  -1 -15  13   14.92    8.30
  -1  15  13   12.20    4.65
   1  15 -13   29.89   11.41
   0 -15  13   38.75   10.95
   0 -15  13   62.35   12.89
   0  15 -13   73.65   16.08
   0  15  13   69.89    8.47
   1 -15  13   52.34   12.36
  -1 -15 -13   27.32   11.52
   1 -15  13   38.03    9.85
   1  15  13   17.10    6.02
  -1  15 -13   34.04   12.29
   1  15  13   31.03    6.10
  -2 -15 -13  -15.95    5.81
   2 -15  13    8.22    7.59
   2 -15  13   -1.08    6.61
   2  15  13   -8.01    5.04
   2  15  13   -1.48    4.63
  -2  15 -13   15.43   11.25
  -3 -15 -13   19.43   11.04
   3 -15  13   34.41   10.17
  -3 -16  13  119.66   17.49
  -3 -16  13  136.59   21.00
   3  16 -13  135.78   25.09
  -2 -16  13   -1.63    9.44
  -2 -16  13    3.96    7.96
   2  16 -13   15.76   11.24
  -2  16  13    6.36    3.04
  -1 -16  13   -6.56    6.16
  -1 -16  13    3.13    7.41
   1  16 -13    8.60    9.56
  -1  16  13    8.44    3.70
   0 -16  13   21.66    9.71
   0 -16  13   12.52    7.85
   0  16 -13   23.08   11.02
   0  16  13   20.75    5.22
   1 -16  13  118.94   15.72
   1 -16  13   97.77   16.47
  -1 -16 -13   87.67   18.11
   1  16  13   83.58   10.41
   1  16  13  102.77   11.04
  -1  16 -13  107.66   18.52
   2 -16  13    1.67    8.39
  -2 -16 -13    1.03   10.19
   2 -16  13   17.31    8.56
  -2  16 -13   19.63   17.42
   2  16  13   20.82    8.17
   2  16  13    6.75    5.84
  -8   0  14   68.04   19.37
   8   0 -14   90.33   16.52
  -7   0  14    5.37    9.60
   7   0 -14    0.18    6.19
   6   0 -14   84.97   14.82
  -6   0  14   43.94   16.16
  -5   0  14  237.85   31.04
   5   0 -14  288.19   21.98
   4   0 -14  105.37   15.17
   3   0 -14   -7.72    4.87
  -3   0  14    6.71    6.07
  -3   0  14  -11.88    5.02
   2   0 -14  120.92   15.36
  -2   0  14  149.88   17.95
  -2   0  14  157.17   15.23
   1   0 -14  344.13   22.01
  -1   0  14  291.36   21.24
  -1   0  14  349.35   21.99
   0   0  14  115.16   15.44
   0   0  14  132.73   14.39
   0   0 -14  161.58   15.81
   0   0  14  124.75    9.40
  -1   0 -14   21.23    7.26
  -1   0 -14   31.09    9.11
   1   0  14   28.92    9.04
   1   0  14   22.69    3.04
   1   0  14   11.80    7.54
   2   0  14   62.11   12.35
  -2   0 -14   57.64   11.69
  -3   0 -14  133.31   17.71
   3   0  14  198.05   18.73
   4   0  14  200.06   19.82
  -4   0 -14  207.86   37.85
  -5   0 -14   12.88    8.54
   5   0  14   31.05   10.46
   6   0  14   17.38    9.44
  -6   0 -14   22.63   11.05
   7   0  14   75.54   16.84
  -7   0 -14   69.04   16.48
  -8  -1  14   -4.12    9.63
   8  -1 -14   -6.83    7.51
   8   1 -14   27.30   10.32
  -8   1  14   -5.54   11.79
  -7  -1  14   41.51   17.26
   7  -1 -14   22.34    8.96
  -7   1  14   57.17   17.56
   7   1 -14   40.70   12.12
  -6  -1  14    5.12    9.81
   6  -1 -14   16.36    7.88
  -6   1  14   20.70   12.06
   6   1 -14    9.65    7.28
   5  -1 -14    1.88    6.81
  -5  -1  14   -9.36    5.80
  -5   1  14  -10.56    6.49
   5   1 -14   10.65    7.66
   4  -1 -14   23.06    8.18
   4   1 -14   27.64    9.26
  -3  -1  14  106.46   14.39
   3  -1 -14  111.78   14.57
  -3   1  14   98.27   13.51
   3   1 -14  110.29   14.96
  -3   1  14   89.56   13.69
  -2  -1  14   54.41   11.39
  -2  -1  14   31.36    9.83
   2  -1 -14   55.70   10.66
   2   1 -14   35.19   10.44
  -2   1  14   27.32    9.27
  -2   1  14   33.99    8.81
  -1  -1  14   15.91    7.50
   1  -1 -14   16.69    7.02
  -1  -1  14   13.05    7.89
  -1   1  14   22.78    6.53
   1   1 -14   10.38    7.62
  -1   1  14   11.26    6.71
  -1   1  14   17.70    7.82
   0  -1 -14   14.59    7.93
   0  -1  14   -3.70    5.74
   0  -1  14   -7.53    5.61
   0   1 -14    7.17    6.75
   0   1  14   -8.17    4.94
   0   1  14    4.09    7.65
   0   1  14    0.12    3.57
   1  -1  14   61.96   12.34
  -1  -1 -14   53.07   10.69
   1  -1  14   50.60    2.71
  -1  -1 -14   59.33    9.94
  -1   1 -14   45.92   10.74
   1   1  14   48.48   10.22
   1   1  14   62.76   11.74
   1   1  14   50.88    5.23
  -2  -1 -14   52.26   11.03
  -2   1 -14   46.20   11.36
   2   1  14   55.64   11.82
  -3  -1 -14   -1.01    6.12
   3  -1  14    7.96    7.52
  -3   1 -14    1.43    6.66
   3   1  14    0.22    6.08
  -4  -1 -14   14.78    8.39
   4  -1  14   -3.65    7.01
   4   1  14   11.24    8.22
  -4   1 -14    7.42    8.67
   5  -1  14   12.45    8.35
  -5  -1 -14   14.28    8.60
  -5   1 -14   37.37   11.99
   5   1  14   35.86   11.43
  -6  -1 -14   34.78   12.50
   6  -1  14   22.16    9.92
  -6   1 -14   32.89   12.01
   6   1  14   26.91   10.17
   7  -1  14    0.52    8.96
  -7  -1 -14   -2.04    9.73
   7   1  14   12.56   10.25
  -7   1 -14    1.77    9.81
  -8  -2  14   -6.49    9.23
   8  -2 -14   17.24    9.23
   8   2 -14   -8.77    6.77
  -8   2  14   -8.42   10.36
  -7  -2  14   10.60   11.94
   7  -2 -14   15.16    7.75
  -7   2  14    8.88   10.10
   7   2 -14   -4.26    6.86
  -6  -2  14   26.82   13.44
   6  -2 -14   54.77   12.07
   6   2 -14   59.13   15.86
  -6   2  14   46.04   14.82
  -5  -2  14   89.67   20.69
   5  -2 -14  135.27   16.72
  -5   2  14  111.06   21.27
   5   2 -14   87.34   15.38
   4  -2 -14    2.05    5.78
  -4  -2  14   -1.42    5.43
   4   2 -14   -1.28    5.93
   3  -2 -14   64.13   11.02
  -3  -2  14   78.73   13.03
  -3   2  14   63.44   11.92
   3   2 -14   51.06   11.28
  -3   2  14   59.09   10.79
   2  -2 -14   75.25   11.35
  -2  -2  14   69.30   12.05
  -2   2  14   43.38    9.82
   2   2 -14   80.81   13.44
  -2   2  14   64.02   11.32
   1  -2 -14   73.13   11.81
  -1  -2  14   74.59   12.49
  -1   2  14   80.21   12.56
  -1   2  14   78.79   10.85
  -1   2  14   98.46   13.71
   1   2 -14   75.42   13.24
   0  -2 -14   17.28    7.33
   0  -2  14   25.56    8.50
   0   2  14   23.78    8.65
   0   2  14   20.92    5.26
   0   2  14   26.10    8.85
   0   2 -14   30.90   10.30
  -1  -2 -14   53.35   10.73
   1  -2  14   42.53   10.65
   1   2  14   50.32   10.86
  -1   2 -14   52.17   11.90
   1   2  14   48.93    9.96
   1   2  14   41.59    5.30
   2  -2  14   66.89   13.18
  -2  -2 -14   41.42   10.00
  -2  -2 -14   35.02    8.16
  -2   2 -14   38.97   10.57
   2   2  14   39.24    9.99
   2   2  14   48.98   10.03
   3  -2  14   34.56   10.22
  -3  -2 -14   33.96   10.68
   3   2  14   23.39    9.25
  -3   2 -14   58.86   13.08
  -4  -2 -14   37.74   10.69
   4  -2  14   20.67    9.74
  -4   2 -14   20.55    9.30
   4   2  14   20.74    9.20
   5  -2  14   14.98    9.34
  -5  -2 -14   28.32   10.94
  -5   2 -14   40.20   13.30
   5   2  14   28.10   10.02
  -6  -2 -14   20.41   10.69
   6  -2  14   22.80   10.15
   6   2  14   23.81   10.26
  -6   2 -14   22.29   11.52
  -7  -2 -14   16.06   11.16
   7  -2  14    0.71    8.30
  -7   2 -14   29.94   14.44
   7   2  14    4.58    9.63
  -8  -3  14   -3.22   11.00
   8  -3 -14   43.45   11.89
  -8   3  14    8.40   13.40
   8   3 -14   26.44   12.50
  -7  -3  14   87.88   22.59
   7  -3 -14  149.88   18.54
  -7   3  14   95.35   20.55
   7   3 -14  173.70   22.01
  -6  -3  14   28.53   14.23
   6  -3 -14   64.51   12.41
  -6   3  14   64.27   16.72
   6   3 -14   57.64   13.29
   5  -3 -14    1.87    5.35
   5   3 -14    6.89    6.40
  -5   3  14   -9.71    6.11
   4  -3 -14   45.15    9.39
  -4  -3  14   36.11    9.76
   4   3 -14   58.25   12.55
   3  -3 -14  168.25   14.63
  -3  -3  14  162.81   16.52
  -3   3  14  177.53   14.72
  -3   3  14  132.75   14.23
   3   3 -14  147.52   18.44
   2  -3 -14  164.54   14.06
  -2  -3  14  158.62   16.57
   2   3 -14  180.83   17.83
  -2   3  14  165.49   15.63
  -2   3  14  168.92   14.91
  -2   3  14  135.95   14.17
  -1  -3  14    4.78    6.23
   1  -3 -14    2.57    5.98
  -1   3  14   16.77    7.90
   1   3 -14    2.55    7.13
  -1   3  14    4.11    5.95
  -1   3  14   -2.20    5.03
   0  -3  14   69.34   12.85
   0  -3 -14   45.56    8.95
   0   3  14   58.42    8.47
   0   3  14   51.47   10.37
   0   3 -14   56.29   12.27
   0   3  14   36.41    9.78
  -1  -3 -14  202.45   16.74
   1  -3  14  156.80    6.05
   1   3  14  160.34   10.31
   1   3  14  138.00   14.32
  -1   3 -14  183.08   18.09
   1   3  14  181.98   16.10
   2  -3  14  159.70   17.22
  -2  -3 -14  191.89   17.02
  -2  -3 -14  180.01   14.51
  -2   3 -14  177.12   18.52
   2   3  14  179.95   16.95
   2   3  14  192.30   16.51
   3  -3  14   11.23    7.50
  -3  -3 -14   10.86    6.71
   3   3  14   15.02    7.71
  -3   3 -14   14.33    7.96
   4  -3  14   29.68   10.71
  -4  -3 -14   55.47   12.73
   4   3  14   57.34   12.68
  -4   3 -14   57.88   13.27
   5  -3  14   40.95   11.12
  -5  -3 -14   39.46   15.89
   5   3  14   43.12   11.63
  -5   3 -14   25.23   11.67
   6  -3  14  134.98   20.21
  -6  -3 -14  138.31   20.60
  -6   3 -14  104.48   19.82
   6   3  14  136.07   20.40
   7  -3  14   -0.19    8.43
  -7  -3 -14    6.41   11.02
  -7   3 -14   15.22   11.97
   7   3  14   11.99    9.81
  -8  -4  14   69.88   25.46
   8  -4 -14   71.20   13.30
  -8   4  14   75.05   20.98
   8   4 -14   97.09   18.32
  -7  -4  14    8.34   10.83
   7  -4 -14   16.54    8.85
   7   4 -14   14.26    8.44
  -7   4  14   14.86   11.41
   6  -4 -14   47.31   10.97
  -6  -4  14   29.44   13.82
  -6   4  14   34.01   13.33
   6   4 -14   21.17   10.70
   5  -4 -14   42.76    9.73
   5   4 -14   30.85   10.23
  -5   4  14   50.30   14.60
   4  -4 -14   72.85   11.12
  -4  -4  14   75.89   13.49
   4   4 -14   92.23   15.71
  -3  -4  14   29.97    9.78
  -3   4  14   32.82    8.09
   3   4 -14   33.07   10.19
  -2  -4  14   30.36    9.51
  -2   4  14   36.45    8.75
  -2   4  14   41.10    9.04
   2   4 -14   34.03   10.22
   1  -4 -14   25.33    7.33
   1   4 -14   43.89   11.69
  -1   4  14   35.17    8.55
  -1   4  14   41.26    8.60
  -1   4  14   40.30    8.95
   0  -4 -14   68.73   10.61
   0   4  14   86.06   12.06
   0   4  14   57.43    8.85
   0   4  14   75.21   11.74
   0   4 -14   62.80   13.19
  -1  -4 -14   67.36   10.86
   1  -4  14   65.48    4.69
   1  -4  14   93.20   15.08
   1   4  14   82.45   12.66
  -1   4 -14   56.51   12.72
   1   4  14   57.21    7.70
   1   4  14   57.23   10.29
   2  -4  14   32.82    9.84
  -2  -4 -14   35.78    9.65
  -2  -4 -14   25.17    7.01
  -2   4 -14   39.63   11.67
   2   4  14   29.34    8.73
   2   4  14   27.16    9.59
  -3  -4 -14   19.39    7.46
   3  -4  14   19.70    9.11
  -3  -4 -14    8.32    7.28
  -3   4 -14   15.59    8.36
   4  -4  14   35.94   11.18
  -4  -4 -14   42.98   12.04
  -4   4 -14   60.02   13.93
   4   4  14   29.02    9.89
  -5  -4 -14   64.77   14.37
   5  -4  14   50.28   12.67
  -5   4 -14   61.20   15.24
   5   4  14   42.56   11.72
   6  -4  14   12.86    9.93
  -6  -4 -14   10.05    9.79
   6   4  14    0.68    8.32
  -6   4 -14   16.48   11.62
   7  -4  14   26.12   16.16
  -7  -4 -14   -6.77    9.46
  -7   4 -14    8.22   11.53
   7   4  14   34.96   13.22
   8  -5 -14   77.54   14.57
   8   5 -14   66.40   17.76
  -8   5  14   70.47   19.56
   7  -5 -14   55.79   11.68
  -7  -5  14   21.97   12.94
   7   5 -14   60.08   13.95
  -7   5  14   36.86   15.36
  -6  -5  14  -11.86    8.44
   6  -5 -14   -3.56    6.10
  -6   5  14    3.76    7.58
   6   5 -14   -3.01    7.59
  -5  -5  14   44.69   11.76
   5   5 -14   25.95    9.99
  -5   5  14   21.14    9.49
  -4  -5  14   98.36   15.65
   4  -5 -14  149.24   12.82
   4   5 -14  117.37   17.89
  -3  -5  14   29.90    9.88
   3  -5 -14   20.26    6.00
  -3   5  14   30.39    7.66
   3   5 -14   20.10    8.94
  -2  -5  14   -1.24    5.74
   2  -5 -14   -4.11    4.03
  -2   5  14    7.97    5.31
   2   5 -14   -7.72    4.47
  -2   5  14   -4.37    4.31
   1  -5 -14  131.42   11.72
  -1  -5  14  132.05   17.56
  -1   5  14  124.79   14.70
   1   5 -14  176.63   17.67
  -1   5  14  122.46   12.81
  -1   5  14  148.18   13.43
   0  -5  14   74.06   12.96
   0  -5 -14   64.30   13.48
   0   5  14   89.62   12.44
   0   5  14   62.96    9.67
   0   5 -14   90.45   14.67
   0   5  14   84.76   11.86
   1  -5  14    5.45    2.76
  -1  -5 -14   -0.68    5.15
   1  -5  14    9.59    6.96
   1   5  14    8.75    6.07
  -1   5 -14    6.31    6.98
   1   5  14   12.11    7.21
  -2  -5 -14   18.68    7.72
   2  -5  14    8.72    7.17
  -2   5 -14    8.01    8.39
   2   5  14   12.67    7.94
   2   5  14    3.39    5.36
  -3  -5 -14   87.16   13.63
  -3  -5 -14   93.71   13.11
   3  -5  14  108.65   16.09
   3   5  14   83.87   13.85
  -3   5 -14   91.11   16.47
   4  -5  14   31.84   11.00
  -4  -5 -14   69.97   12.95
  -4   5 -14   53.51   14.25
   4   5  14   38.42   10.46
   5  -5  14   16.41    9.38
  -5  -5 -14    5.78    8.36
   5   5  14   15.18    7.44
  -6  -5 -14   12.44    9.95
   6  -5  14    5.96    9.37
   6   5  14   13.05    9.20
  -6   5 -14   28.94   13.65
  -7  -5 -14   50.46   15.57
   7   5  14   54.30   13.57
  -7   5 -14   51.12   16.14
   7  -6 -14  -15.45    6.92
  -7  -6  14  -10.56    9.17
  -7   6  14  -11.63    8.67
   7   6 -14   -9.71    7.08
   6  -6 -14   -1.35    5.82
  -6  -6  14   17.65   12.83
  -6   6  14   -3.06    8.17
   6   6 -14    1.42    6.69
   5  -6 -14   54.28    8.77
  -5  -6  14   75.70   14.13
   5   6 -14   70.16   14.66
   4  -6 -14   63.54   10.18
  -4  -6  14   74.90   13.77
   4   6 -14   56.48   12.80
  -3  -6  14    1.23    6.77
   3   6 -14   -6.38    5.10
  -3   6  14    8.78    5.31
  -2  -6  14   -1.09    5.69
  -2   6  14   -7.09    4.12
  -2   6  14   -2.74    4.15
   1  -6 -14   88.03    9.30
  -1  -6  14   88.58   14.32
   1   6 -14   95.93   15.59
  -1   6  14   81.36   10.76
  -1   6  14   91.99   11.80
   0  -6 -14   81.66   10.37
   0  -6  14   79.68   13.47
   0   6  14   96.74   12.02
   0   6  14   82.72   11.16
   0   6  14   73.96   10.77
   1  -6  14    8.29    3.57
   1  -6  14   14.95    8.20
   1   6  14   14.89    6.60
   1   6  14   16.67    7.04
  -1   6 -14    3.28    7.28
   2  -6  14   12.35    7.46
  -2  -6 -14    6.08    6.76
  -2   6 -14   -1.72    7.47
   2   6  14    7.59    6.41
   2   6  14   -1.02    5.23
  -3  -6 -14   62.33    9.44
   3  -6  14   83.32   15.10
  -3  -6 -14   63.21   11.82
  -3   6 -14   90.35   16.67
   3   6  14   61.11   12.06
  -4  -6 -14   48.43   12.08
   4  -6  14   55.67   12.88
  -4  -6 -14   35.64   10.24
   4   6  14   51.76   11.27
  -4   6 -14   60.22   15.14
   5  -6  14    2.80    7.81
  -5  -6 -14   -7.87    7.54
  -5  -6 -14   -2.10    3.36
  -5   6 -14   15.57   10.37
   5   6  14    1.52    6.47
   6  -6  14    8.17    8.22
  -6  -6 -14   -1.87    3.31
  -6  -6 -14    6.23    9.44
   6   6  14   -1.66    8.50
  -6   6 -14   -2.83   10.13
  -7  -7  14   -3.23   10.64
   7  -7 -14    0.37    6.94
   7   7 -14    3.10    8.13
  -7   7  14    7.36   10.64
  -6  -7  14   43.30   12.64
   6   7 -14   69.11   15.80
  -6   7  14   43.54   13.95
  -5  -7  14  103.79   17.16
   5   7 -14  112.28   18.67
  -4  -7  14   62.21   13.34
   4   7 -14  115.33   18.38
   3  -7 -14    7.34    3.71
  -3  -7  14    4.32    7.35
  -3   7  14    8.79    5.35
   3   7 -14    0.02    6.61
   2  -7 -14   54.12    6.80
   2  -7 -14   90.25    9.05
  -2  -7  14   98.25   15.10
  -2   7  14   73.17   12.54
  -2   7  14   99.45   11.72
   2   7 -14   78.59   14.28
   1  -7 -14   98.62   15.66
  -1  -7  14  156.42   16.36
  -1   7  14  144.52   13.28
  -1   7  14  141.94   12.34
   1   7 -14  109.31   16.99
   0  -7  14  148.17   17.93
   0  -7 -14  138.68   13.45
   0   7 -14  119.51   17.35
   0   7  14  125.06   13.07
   0   7  14  124.74   12.35
   0   7  14  130.94   12.47
   1  -7  14   38.11    6.34
  -1  -7 -14   29.72    7.65
   1  -7  14   30.55    9.85
   1   7  14   28.64    8.40
  -1   7 -14   26.53   10.73
   1   7  14   36.49    8.17
   2  -7  14   70.70   13.53
  -2  -7 -14   55.30   10.36
  -2   7 -14   48.38   12.82
   2   7  14   53.49   10.26
   2   7  14   46.14   10.54
  -3  -7 -14   97.49   14.81
  -3  -7 -14  117.75   10.44
   3  -7  14  112.51   16.73
   3   7  14  108.67   15.65
  -3   7 -14  105.67   17.31
   3   7  14  101.62   17.07
  -4  -7 -14   78.25   14.28
  -4  -7 -14   72.64    9.63
   4  -7  14   59.10   13.15
   4   7  14   56.10   11.97
  -4   7 -14   64.12   14.85
   5  -7  14   27.27   10.03
  -5  -7 -14   20.55    5.45
  -5  -7 -14   21.82   11.03
  -5   7 -14   15.87   10.21
   5   7  14   14.38    7.50
  -6  -7 -14   28.59    6.38
   6  -7  14   18.44    9.64
  -6  -7 -14   25.81   11.17
   6   7  14    6.31   10.05
  -6   7 -14   12.21   11.04
  -7  -8  14   26.74   10.92
   7  -8 -14    0.15    8.23
  -7  -8  14   24.65   16.50
   7   8 -14   44.75   14.20
  -7   8  14   33.35   14.77
   6  -8 -14   45.61    7.47
  -6  -8  14   53.33   12.78
   6   8 -14   57.11   15.06
  -6   8  14   30.93   12.22
  -5  -8  14   12.49    8.57
   5  -8 -14    4.25    4.74
   5   8 -14   12.67    9.71
  -4  -8  14   10.19    8.05
   4  -8 -14   15.44    3.51
   4   8 -14    9.77    8.66
  -3  -8  14   47.60   11.72
   3  -8 -14   43.93    3.69
   3  -8 -14   47.50    3.00
   3   8 -14   56.33   13.75
  -3   8  14   62.05    9.47
   2  -8 -14   56.76    4.41
   2  -8 -14   54.89    4.09
  -2  -8  14   76.01   14.11
   2   8 -14   57.65   13.36
  -2   8  14   65.64    9.20
  -2   8  14   53.84    8.97
  -1  -8  14    6.20    7.26
   1  -8 -14    4.62    3.19
  -1   8  14    6.88    5.20
  -1   8  14    0.65    4.66
   1   8 -14   12.67    8.00
   0  -8 -14   -4.27    2.48
   0  -8  14   11.15    6.74
   0   8  14    3.38    4.75
   0   8 -14    0.58    6.66
   0   8  14    5.23    4.99
   1  -8  14   69.18   13.08
  -1  -8 -14   63.27    9.36
   1  -8  14   62.26    8.53
  -1   8 -14   83.88   15.54
   1   8  14   53.52    9.19
   1   8  14   61.00    9.92
   2  -8  14   29.06   10.07
  -2  -8 -14   28.22    8.09
   2   8  14   32.96    8.92
   2   8  14   34.08    9.84
  -2   8 -14   21.34   10.00
   3  -8  14    7.28    7.11
  -3  -8 -14    0.18    4.65
  -3  -8 -14    9.26    8.18
   3   8  14   -5.80    6.43
   3   8  14    7.48    7.16
  -3   8 -14   -1.26    8.46
  -4  -8 -14    0.09    7.42
  -4  -8 -14   -8.12    5.98
  -4  -8 -14   -0.91    4.49
   4  -8  14   -4.51    6.02
   4   8  14    6.38    7.09
  -4   8 -14    5.19    9.10
  -5  -8 -14   66.01   14.60
  -5  -8 -14   48.26    8.23
  -5  -8 -14   33.47   16.59
   5  -8  14   54.39   13.37
   5   8  14   54.21   12.69
  -5   8 -14   52.31   14.55
   6  -8  14   54.35   13.31
  -6  -8 -14   38.37   14.19
  -6  -8 -14   37.69    7.71
  -6   8 -14   41.45   14.73
   6   8  14   42.42   11.46
  -7   9  14   16.39   12.84
   7   9 -14   12.20   10.07
  -6  -9  14   35.74   11.56
   6   9 -14   10.91   10.97
  -5  -9  14   10.90    8.56
   5   9 -14   23.57   10.99
  -4  -9  14   28.63   10.77
   4   9 -14   -4.65    6.69
  -3  -9  14   -1.62    7.64
   3   9 -14    0.13    8.58
  -3   9  14   17.19    5.67
  -2  -9  14   -0.38    6.70
  -2   9  14    1.98    4.34
  -2   9  14    9.58    4.15
   2   9 -14    5.94    7.86
  -1  -9  14   41.98   10.72
  -1   9  14   34.34    7.20
   1   9 -14   18.62    8.94
  -1   9  14   31.41    7.29
   0  -9  14   14.46    5.71
   0  -9  14   17.36    7.91
   0   9  14   16.95    6.00
   0   9  14   14.27    6.14
   0   9 -14   23.74   10.51
   1  -9  14   -4.92    5.37
   1  -9  14   -0.36    3.82
   1   9  14   11.83    5.57
  -1   9 -14    7.57    7.89
   1   9  14    1.64    4.68
   2  -9  14   18.35    9.19
  -2  -9 -14    6.38    6.43
   2  -9  14    9.15    4.23
   2   9  14    3.03    6.33
  -2   9 -14    9.42    8.53
   2   9  14    7.44    6.46
  -3  -9 -14   -7.35    5.28
  -3  -9 -14   -1.42    4.92
   3  -9  14   19.16    9.43
   3   9  14   -6.52    7.59
  -3   9 -14   12.81    8.45
   3   9  14    8.50    7.38
   4  -9  14   28.92   10.37
  -4  -9 -14   -4.49    4.69
  -4  -9 -14   13.82    8.77
  -4  -9 -14   -1.38    5.09
  -4   9 -14   -5.94    6.68
   4   9  14    7.27    7.50
  -5  -9 -14    8.58    9.75
   5  -9  14   13.76    8.30
  -5  -9 -14   10.25    5.94
  -5   9 -14    6.20   10.99
   5   9  14   12.24    7.21
  -6  -9 -14    8.53   11.98
   6  -9  14   19.14   10.64
  -6  -9 -14   16.92    6.72
   6   9  14   27.05   10.55
  -6 -10  14   76.69   16.64
   6  10 -14   60.06   15.68
  -5 -10  14    5.78    8.38
   5  10 -14   -7.60    6.19
  -4 -10  14   39.83   12.73
   4  10 -14   43.48   13.03
  -3 -10  14  171.69   18.41
  -3  10  14  124.41   11.81
   3  10 -14  187.09   20.38
  -2 -10  14  127.73   17.96
  -2  10  14   98.99   10.67
   2  10 -14   97.18   17.44
  -1 -10  14    0.66    6.84
   1  10 -14   -6.62    4.83
  -1  10  14    6.26    4.41
  -1  10  14   -3.90    3.36
   0 -10  14   26.77    9.63
   0 -10  14   27.75    7.35
   0  10  14   41.02    7.24
   0  10  14   35.03    7.14
   0  10 -14   46.36   12.13
   1 -10  14  169.47   18.02
   1 -10  14  155.98   12.87
  -1 -10 -14  134.65   11.68
   1  10  14  161.22   13.44
  -1  10 -14  162.83   22.07
   1  10  14  149.98   12.76
   2 -10  14  116.47   16.98
   2 -10  14  113.11   10.68
  -2 -10 -14   99.22   14.15
   2  10  14  105.62   13.33
   2  10  14  103.28   13.43
  -2  10 -14   71.22   16.06
  -3 -10 -14   16.88    7.84
  -3 -10 -14    7.66    6.67
   3 -10  14    5.85    7.04
  -3  10 -14    2.82    8.45
   3  10  14   -5.24    8.52
  -4 -10 -14   29.39   11.31
   4 -10  14   36.07   11.45
  -4 -10 -14   29.27    8.25
  -4  10 -14   28.65   11.99
   4  10  14   44.90   11.10
  -5 -10 -14   82.52   12.48
   5 -10  14   82.26   15.99
  -5 -10 -14  109.08   17.49
  -5  10 -14   79.03   18.54
   5  10  14   90.09   15.04
  -6 -11  14   61.88   14.98
   6  11 -14   57.27   14.70
  -5 -11  14   37.77   11.83
   5  11 -14   46.93   15.70
  -4 -11  14   41.61   11.56
   4  11 -14   22.77   10.29
  -3 -11  14    8.48    8.71
  -3  11  14    7.48    5.27
   3  11 -14   -7.00    8.26
  -2 -11  14   36.21   10.02
   2  11 -14   26.52   10.02
  -2  11  14   25.59    6.36
  -1 -11  14   30.79    9.49
   1  11 -14   30.45   11.15
  -1  11  14   19.17    5.26
  -1  11  14   35.10    6.76
   0 -11  14   23.87    9.47
   0 -11  14   39.87    9.16
   0  11 -14   30.71   11.75
   0  11  14   19.05    5.47
   0  11  14   33.01    6.94
   1 -11  14   27.25    7.05
   1 -11  14   22.89    8.90
   1  11  14   14.73    6.15
   1  11  14    9.21    5.63
  -1  11 -14   26.60   11.11
  -2 -11 -14   19.43    8.56
   2 -11  14   23.82    6.45
  -2 -11 -14   -0.35    4.86
   2 -11  14   22.70    8.76
  -2  11 -14   23.60   11.11
   2  11  14   18.83    6.65
   2  11  14   22.20    8.11
  -3 -11 -14   17.47   11.10
   3 -11  14   29.27    9.70
  -3 -11 -14   13.10    7.66
   3  11  14   28.67   10.72
  -3  11 -14   21.06   11.87
  -4 -11 -14   20.50   13.55
  -4 -11 -14   32.62    9.49
   4 -11  14   35.36   11.13
  -4  11 -14   31.37   13.26
   4  11  14   40.73   10.85
   5 -11  14   26.08   10.76
  -5 -11 -14   12.75    8.00
  -5 -11 -14   18.49   12.90
  -5  11 -14   30.74   14.00
   5  11  14   17.84    9.67
  -5 -12  14   -0.98    8.99
   5  12 -14   17.60   11.46
  -4 -12  14   -1.38    6.94
   4  12 -14   12.29   10.51
  -3 -12  14    8.84    8.21
  -3  12  14   25.27    6.43
   3  12 -14   17.13   10.28
  -2 -12  14   32.02   10.11
   2  12 -14   24.38   11.45
  -2  12  14   20.43    5.82
  -1 -12  14    3.99    7.06
  -1 -12  14    4.50    5.33
   1  12 -14   -4.15    6.79
  -1  12  14    2.37    3.48
  -1  12  14    3.29    4.32
   0 -12  14   -2.61    5.16
   0 -12  14   -5.55    5.65
   0  12 -14   -4.60    6.19
   0  12  14    5.15    4.50
   0  12  14    3.84    4.40
   1 -12  14   32.18    8.23
   1 -12  14   27.23    9.11
   1  12  14   12.09    6.10
   1  12  14   37.00    7.51
  -1  12 -14   27.95   12.07
  -2 -12 -14   31.56   10.10
   2 -12  14   26.96    7.33
   2 -12  14   34.05   10.57
   2  12  14   33.65    7.76
   2  12  14   19.15    7.54
  -2  12 -14   37.06   12.77
  -3 -12 -14    1.68    5.72
  -3 -12 -14   -8.10    7.56
   3 -12  14   -8.86    7.25
   3  12  14    1.12    8.63
   3  12  14    2.04    7.22
  -3  12 -14   -1.72    8.45
  -4 -12 -14  -26.67    7.72
   4 -12  14    6.18    8.57
  -4 -12 -14    5.77    7.29
   4  12  14    0.80    6.99
  -4  12 -14   -6.09    7.56
  -5 -13  14   69.48   14.97
   5  13 -14   68.50   16.91
  -4 -13  14   60.12   14.13
   4  13 -14   64.02   16.87
  -3 -13  14    2.03    6.53
   3  13 -14  -10.83    6.39
  -3  13  14   -4.87    4.12
  -2 -13  14   40.70   11.37
  -2  13  14   33.34    5.82
   2  13 -14   23.63   11.24
  -1 -13  14   59.02   12.55
  -1 -13  14   92.22   14.67
   1  13 -14   98.58   17.65
  -1  13  14   81.11    8.73
   0 -13  14   81.26   12.95
   0 -13  14   84.00   15.04
   0  13 -14   74.57   16.39
   0  13  14  108.40    9.04
   0  13  14   97.79    9.97
   1 -13  14   12.07    6.81
   1 -13  14   -1.22    6.39
   1  13  14   -1.83    4.05
   1  13  14   -3.24    4.15
  -1  13 -14    7.15    9.25
  -2 -13 -14   21.65   10.09
   2 -13  14   12.93    6.84
   2 -13  14   13.70    9.03
   2  13  14    2.39    5.93
  -2  13 -14   16.49   12.11
  -3 -13 -14   66.84   13.49
  -3 -13 -14   40.99   12.16
   3 -13  14   75.22   14.23
  -3  13 -14   80.48   18.66
   3  13  14   78.25   12.83
   3  13  14   61.60   17.85
  -4 -13 -14   74.76   13.93
   4 -13  14   77.60   14.37
   4  13  14   63.83   12.24
  -4 -14  14   26.15   11.53
   4  14 -14   35.25   13.05
  -4  14  14   41.29    7.54
  -3 -14  14    0.03    8.35
   3  14 -14    0.05    8.42
  -2 -14  14  -12.60    6.61
  -2 -14  14  -10.71    5.99
  -2  14  14   -4.17    4.55
   2  14 -14   13.04   10.70
  -1 -14  14   24.69    9.53
  -1 -14  14   30.96   10.45
   1  14 -14   45.46   12.98
  -1  14  14   46.55    6.85
   0 -14  14   72.75   13.45
   0 -14  14   73.92   14.47
   0  14 -14   78.14   16.39
   0  14  14   92.26    9.89
   1 -14  14    2.61    7.00
   1 -14  14   -3.82    5.85
  -1  14 -14   12.03    9.51
   1  14  14  -13.69    6.03
   1  14  14    5.34    4.93
   2 -14  14   -6.98    6.13
   2 -14  14   -2.01    5.71
  -2 -14 -14   -8.33    7.26
   2  14  14    1.32    5.97
  -2  14 -14  -10.18    6.91
   2  14  14   -7.46    5.43
   3 -14  14   38.34   11.20
  -3 -14 -14   60.93   13.28
   3  14  14   62.14   11.77
  -3  14 -14   29.24   15.68
  -3 -15  14   60.22   13.47
  -3  15  14   48.62    6.24
  -2 -15  14    9.14    7.89
  -2 -15  14   -0.11    8.00
   2  15 -14    2.36    9.83
  -2  15  14   -9.00    3.63
  -1 -15  14   33.12   10.86
  -1 -15  14   22.55   10.18
   1  15 -14   29.73   11.75
   0 -15  14   73.22   13.83
   0 -15  14   64.36   12.58
   0  15  14   51.92    7.90
   0  15  14   48.02    4.29
   0  15 -14   57.04   15.11
   1 -15  14   18.91    9.62
   1 -15  14   19.64   10.02
  -1  15 -14   24.85   11.87
   1  15  14   28.37    6.21
   1  15  14   13.89    6.09
  -2 -15 -14   13.08    9.82
   2 -15  14   29.61    9.41
   2 -15  14   28.08    9.90
   2  15  14    7.90    6.73
   2  15  14   15.83    6.66
  -2 -16  14  -13.15    5.67
  -2 -16  14   22.55    8.70
   2  16 -14   26.02   11.36
  -2  16  14   -5.40    3.95
  -1 -16  14    8.00    8.14
  -1 -16  14    3.19    7.32
   1  16 -14   -5.31    9.99
  -1  16  14    0.31    4.26
   0 -16  14    5.61    8.12
   0 -16  14    9.62    7.66
   0  16  14    3.75    5.17
   1 -16  14   49.36   12.66
   1 -16  14   43.20   11.30
   1  16  14   37.77    5.97
   1  16  14   30.04    7.10
  -1  16 -14   35.07   14.18
   8   0 -15    4.00    9.29
  -7   0  15   13.01   10.84
   7   0 -15  -12.23    5.57
   6   0 -15    3.20    5.96
  -6   0  15   -1.96    9.15
   5   0 -15    2.36    7.32
   4   0 -15    1.98    6.64
  -4   0  15   -4.95    4.54
   3   0 -15    2.92    6.14
  -3   0  15    1.09    6.34
  -2   0  15    3.70    6.63
  -2   0  15    0.85    6.27
   2   0 -15   -2.58    5.81
  -1   0  15   -5.49    5.15
   1   0 -15   -3.90    4.48
  -1   0  15    3.20    5.76
   0   0 -15    6.41    6.64
   0   0  15   -0.34    5.98
   0   0  15   -2.96    3.53
   0   0  15   -3.52    6.54
   1   0  15   -3.79    5.40
  -1   0 -15  -10.10    4.98
  -2   0 -15   -4.26    5.92
   2   0  15    7.23    6.78
  -3   0 -15    0.39    7.04
   3   0  15    6.16    6.99
   4   0  15    5.36    7.60
  -4   0 -15    4.25    7.22
   5   0  15    1.26    7.63
  -5   0 -15  -13.27    6.00
  -6   0 -15   -7.94    9.23
   6   0  15   14.70    9.43
  -7   0 -15   11.61   11.99
   8  -1 -15  105.70   17.55
  -8  -1  15   50.15   20.05
   8   1 -15  111.86   18.98
  -7  -1  15    1.68   11.70
   7  -1 -15   31.73   10.69
  -7   1  15    9.65   12.69
   7   1 -15   12.34    8.44
  -6  -1  15   29.02   13.60
   6  -1 -15   24.46    9.17
   6   1 -15   27.53   10.35
  -6   1  15   19.20   12.53
   5  -1 -15  128.65   17.03
   5   1 -15  135.39   18.18
   4  -1 -15  101.18   14.83
  -4  -1  15   91.09   14.20
   4   1 -15  103.31   16.11
  -3  -1  15  100.66   16.79
   3  -1 -15   78.54   13.27
   3   1 -15   72.81   13.32
  -3   1  15   74.78   12.41
  -3   1  15   48.22   10.58
   2  -1 -15    2.82    6.13
  -2  -1  15    8.28    7.58
  -2   1  15   10.81    5.74
  -2   1  15   10.92    7.91
   2   1 -15    3.83    5.93
   1  -1 -15  135.14   15.79
  -1  -1  15  149.94   15.27
  -1   1  15  114.12   14.84
   1   1 -15  115.03   16.11
  -1   1  15  154.54   12.71
  -1   1  15  118.24   15.44
   0  -1  15  185.16   16.94
   0  -1  15  163.76   10.80
   0  -1 -15  177.24   16.57
   0   1 -15  169.17   17.06
   0   1  15  161.80   11.23
   0   1  15  134.24   14.91
   0   1  15  178.13   16.27
   1  -1  15  103.92   17.71
  -1  -1 -15   67.73   12.33
   1   1  15   80.18    5.85
  -1   1 -15   81.93   14.14
   1   1  15   85.70   13.69
   1   1  15   77.17   15.06
  -2  -1 -15    2.91    7.13
   2  -1  15   -2.66    6.55
   2   1  15   23.96    9.59
  -2   1 -15    8.09    7.46
  -3  -1 -15   25.50    9.28
   3  -1  15   38.96   11.55
   3   1  15   65.04   12.62
  -3   1 -15   41.23   10.86
   4  -1  15  139.90   19.57
   4   1  15  188.92   19.61
  -4   1 -15  131.69   19.33
   5  -1  15   27.15   10.45
  -5  -1 -15   51.69   13.50
   5   1  15   38.79   11.82
  -5   1 -15   23.81   11.31
  -6  -1 -15    5.58    9.39
   6  -1  15   23.45   10.52
  -6   1 -15   -0.42    9.19
   6   1  15   17.98   10.32
  -7  -1 -15   17.68   12.65
   7  -1  15   10.51   12.32
  -7   1 -15   20.45   11.86
  -8  -2  15   -3.32   12.38
   8  -2 -15   -2.28    8.18
   8   2 -15    8.31    7.88
   7  -2 -15  105.17   16.38
  -7  -2  15   59.30   18.47
  -7   2  15   79.83   21.75
   7   2 -15   89.37   16.76
  -6  -2  15   60.91   17.19
   6  -2 -15   63.48   12.93
  -6   2  15   69.70   18.67
   6   2 -15  108.66   17.90
   5  -2 -15   -0.51    5.64
   5   2 -15    8.06    7.77
   4  -2 -15   -2.08    5.77
  -4  -2  15   -3.61    5.27
   4   2 -15    3.47    6.77
  -3  -2  15  124.18   16.99
   3  -2 -15  104.11   14.15
   3   2 -15   91.78   14.94
  -3   2  15   84.99   14.04
  -3   2  15  121.66   15.40
   2  -2 -15  189.68   15.62
  -2   2  15  147.06   15.38
   2   2 -15  166.79   17.34
  -2   2  15  164.74   16.53
  -2   2  15  210.17   19.73
   1  -2 -15   -0.01    5.41
   1   2 -15   11.81    7.70
  -1   2  15   -8.89    6.18
  -1   2  15   -6.91    4.93
  -1   2  15    2.23    6.26
   0  -2 -15   -1.32    4.86
   0   2 -15   -1.42    5.84
   0   2  15    4.52    6.14
   0   2  15   -2.84    5.19
   0   2  15    3.27    4.15
   1  -2  15   80.06   14.10
  -1  -2 -15   70.05   12.04
   1   2  15   58.63    6.11
   1   2  15   55.43   10.77
   1   2  15  112.30   15.20
  -1   2 -15   71.50   13.37
   2  -2  15  242.85   21.20
  -2  -2 -15  322.70   22.48
  -2   2 -15  308.36   23.86
  -3  -2 -15   15.57    8.26
   3  -2  15   16.96    9.07
  -3   2 -15   22.36   10.35
   3   2  15    4.16    7.16
   4  -2  15   21.52   10.23
  -4  -2 -15   10.55    8.40
   4   2  15   18.47    8.79
  -4   2 -15    0.42    6.88
   5  -2  15   25.70    9.87
  -5  -2 -15   30.00   11.93
   5   2  15   55.16   12.66
  -5   2 -15   53.20   13.73
  -6  -2 -15  127.41   20.96
   6  -2  15  129.08   19.41
  -6   2 -15  105.62   20.37
   6   2  15   93.67   17.55
   7  -2  15    5.69    8.66
  -7  -2 -15    7.14   12.14
  -7   2 -15    9.91   10.51
   8  -3 -15   -0.70    7.87
  -8  -3  15  -15.28   10.47
   8   3 -15    4.71    9.79
  -7  -3  15    8.86   12.72
   7  -3 -15   29.05   10.12
  -7   3  15   26.17   14.47
   7   3 -15   20.37    9.71
   6  -3 -15   23.02    9.38
  -6  -3  15   26.81   12.98
  -6   3  15   14.26    9.82
   6   3 -15   28.49   10.47
   5  -3 -15    7.93    6.20
   5   3 -15   11.00   10.43
   4  -3 -15   -7.00    5.12
  -4  -3  15   -0.61    5.60
   4   3 -15    1.98    6.99
   3  -3 -15   52.27    9.88
  -3  -3  15   48.86   12.00
  -3   3  15   24.16    8.39
  -3   3  15   40.39   10.23
   3   3 -15   48.20   11.56
  -2  -3  15  118.36   16.68
   2  -3 -15   90.02   12.41
   2   3 -15   84.70   14.27
  -2   3  15   81.68   13.33
  -2   3  15  105.54   14.06
   1  -3 -15   13.97    6.72
  -1  -3  15   21.57    8.01
  -1   3  15   16.11    7.48
  -1   3  15   12.85    6.69
   1   3 -15   12.47    7.99
  -1   3  15   22.35    7.97
   0  -3 -15   -3.46    5.17
   0  -3  15    0.12    5.77
   0   3  15   -4.60    5.60
   0   3 -15   11.49    7.91
   0   3  15   -1.92    5.01
   0   3  15    4.93    4.42
  -1  -3 -15   90.30   13.22
   1  -3  15   74.27   14.07
  -1   3 -15  100.97   15.83
   1   3  15   80.26   13.13
   1   3  15   68.93    7.24
   1   3  15   82.65   13.19
  -2  -3 -15   33.28    9.11
   2  -3  15   38.87   10.67
  -2  -3 -15   44.41    8.49
   2   3  15   44.89   12.15
  -2   3 -15   33.72   12.15
   2   3  15   46.79   14.84
  -3  -3 -15   21.02    9.13
   3  -3  15    1.81    7.48
  -3   3 -15    6.74    8.20
   3   3  15   14.15    8.48
   4  -3  15    1.11    7.78
  -4  -3 -15    7.09    8.81
  -4   3 -15    5.81    8.21
   4   3  15    3.81    6.69
  -5  -3 -15   55.77   14.27
   5  -3  15   10.98    7.54
  -5   3 -15   39.43   13.01
   5   3  15   14.87    8.67
   6  -3  15   14.43   10.07
  -6  -3 -15    2.54    8.64
  -6   3 -15    9.80   10.51
   6   3  15    9.74    9.10
   7  -4 -15   54.39   12.17
  -7  -4  15   13.49   11.46
   7   4 -15   31.63   12.12
  -7   4  15    7.81   11.34
   6  -4 -15   57.97   11.20
  -6   4  15   45.64   14.68
   6   4 -15   54.37   13.19
  -5  -4  15   37.20   10.90
   5  -4 -15   33.15    8.33
   5   4 -15   26.08   10.52
  -4  -4  15   26.04    9.58
   4  -4 -15   27.17    8.20
   3  -4 -15   27.82    7.38
  -3  -4  15   35.34   10.91
  -3   4  15   16.04    7.20
   3   4 -15   35.63   10.75
   2  -4 -15  128.32   12.71
  -2  -4  15  153.51   18.53
  -2   4  15  160.13   15.70
   2   4 -15  131.03   18.06
  -2   4  15  147.98   14.36
  -1  -4  15   81.88   14.01
   1  -4 -15   63.22   10.32
   1   4 -15   88.57   15.40
  -1   4  15   57.58   10.66
  -1   4  15   77.37   11.23
  -1   4  15   61.15   11.78
   0  -4  15   27.39    8.97
   0  -4 -15   12.64    6.34
   0   4 -15   24.71    9.87
   0   4  15    9.59    6.10
   0   4  15   20.19    7.65
   0   4  15    8.90    6.75
  -1  -4 -15   10.98    6.80
   1  -4  15   13.24    8.10
  -1   4 -15   17.24    8.75
   1   4  15   23.65    8.03
   1   4  15   24.56    9.59
  -2  -4 -15  200.33   18.43
   2  -4  15  176.17   18.58
   2   4  15  180.18   17.36
  -2   4 -15  190.02   19.56
   2   4  15  210.46   18.42
   3  -4  15   66.86   13.66
  -3  -4 -15   52.02   11.94
   3   4  15   53.02   11.88
  -3   4 -15   50.93   12.79
   4  -4  15    2.17    7.93
  -4  -4 -15   -4.71    7.43
   4   4  15    2.29    6.87
  -4   4 -15   -6.60    6.74
   5  -4  15    9.79    7.69
  -5  -4 -15   -1.42    8.46
   5   4  15    6.90    7.88
  -5   4 -15    0.50    7.46
   6  -4  15   90.20   17.29
  -6  -4 -15   95.86   17.73
  -6   4 -15  142.10   23.86
   6   4  15  102.58   17.59
  -7  -5  15   -9.28    8.08
   7  -5 -15    3.10    8.02
  -7   5  15   -7.75   10.15
   7   5 -15   10.23    9.58
   6  -5 -15    9.29    6.95
   6   5 -15   32.33   11.45
  -6   5  15    4.34    9.84
  -5  -5  15  105.53   16.75
   5   5 -15  134.83   19.23
  -4  -5  15  121.69   17.64
   4  -5 -15  109.41   12.16
   4   5 -15  139.62   19.87
   3  -5 -15    9.25    5.78
  -3  -5  15   14.14    8.25
  -3   5  15    1.25    4.66
   3   5 -15    7.61    8.24
  -2  -5  15   23.15    8.63
   2  -5 -15   20.97    6.82
   2   5 -15   33.83   10.92
  -2   5  15   23.73    7.65
  -2   5  15   14.84    6.43
  -1  -5  15   80.44   14.00
   1  -5 -15   76.34   10.50
  -1   5  15   98.17   12.97
  -1   5  15   90.17   12.37
  -1   5  15   73.49   11.72
   1   5 -15   57.32   13.03
   0  -5 -15  128.80   12.72
   0  -5  15  129.19   16.89
   0   5 -15  161.97   31.77
   0   5  15  113.84   14.38
   0   5  15  111.13   13.93
  -1  -5 -15   11.04    6.35
   1  -5  15    7.00    2.63
   1  -5  15   -4.31    6.38
   1   5  15    4.71    6.00
  -1   5 -15    4.11    7.50
   1   5  15   -0.33    6.40
  -2  -5 -15    3.04    6.67
   2  -5  15    6.12    6.24
  -2   5 -15   20.68    9.15
   2   5  15   11.20    7.30
   2   5  15    5.09    6.73
   3  -5  15  100.15   16.18
  -3  -5 -15   80.10   10.97
  -3  -5 -15   77.66   14.10
   3   5  15  107.82   15.64
  -3   5 -15  107.72   17.98
   4  -5  15   71.68   15.25
  -4  -5 -15   37.61   10.62
   4   5  15   69.81   13.70
  -4   5 -15   57.75   14.52
   5  -5  15   31.93   11.03
  -5  -5 -15   -2.02    7.63
   5   5  15    9.34    8.17
  -5   5 -15   12.37   10.47
   6  -5  15   -1.21    7.29
  -6  -5 -15    6.20    9.55
  -6   5 -15    6.03   12.01
   6   5  15    7.56    8.90
  -7  -6  15   26.78   15.13
   7   6 -15    7.45    9.81
  -7   6  15  -12.96   10.54
   6  -6 -15    0.16    6.15
  -6  -6  15   -2.29    7.06
   6   6 -15   -1.16    6.61
  -6   6  15   -6.41    7.57
   5  -6 -15   65.01   10.35
  -5  -6  15   52.28   12.98
   5   6 -15   74.11   15.78
   4  -6 -15   90.61   10.98
  -4  -6  15   83.90   15.07
   4   6 -15  114.93   18.56
  -3  -6  15   32.12   10.56
   3  -6 -15   12.81    6.33
  -3   6  15   27.82    7.96
   3   6 -15   24.43    9.88
   2  -6 -15    1.80    4.05
  -2  -6  15    2.07    6.65
  -2   6  15   -1.43    4.78
   2   6 -15   -3.30    6.75
  -2   6  15    6.27    5.68
   1  -6 -15  202.51   14.23
  -1  -6  15  200.68   18.60
  -1   6  15  180.18   15.22
  -1   6  15  186.04   15.61
   1   6 -15  165.09   18.43
   0  -6 -15   62.12    9.75
   0  -6  15   98.34   14.78
   0   6  15   71.60   11.37
   0   6  15   81.10   12.00
   0   6  15   92.71   12.47
   0   6 -15   89.37   15.70
  -1  -6 -15   76.32   11.30
   1  -6  15   72.48   13.69
   1   6  15   51.10    9.92
   1   6  15   59.68   11.41
  -1   6 -15   63.26   13.30
   2  -6  15    1.96    7.25
  -2  -6 -15   -5.26    5.81
  -2   6 -15   -8.64    7.12
   2   6  15   -0.82    5.72
  -3  -6 -15   94.07   11.24
   3  -6  15  116.35   17.99
  -3  -6 -15   88.19   14.72
  -3   6 -15   85.08   16.84
   3   6  15  100.93   14.41
  -4  -6 -15   23.57    9.02
   4  -6  15   26.93   10.28
   4   6  15   34.36   10.45
  -4   6 -15   49.78   14.55
  -5  -6 -15   76.15   15.21
   5  -6  15   47.27   13.26
  -5   6 -15   38.58   13.83
   5   6  15   45.22   13.11
  -6  -6 -15   15.92   10.98
   6  -6  15   20.84   10.28
  -6   6 -15    1.93    9.91
   6   6  15   -7.61    8.20
   7  -7 -15   29.77   12.85
  -7  -7  15   31.74   12.83
   7   7 -15   20.76   10.42
  -7   7  15   29.64   15.65
  -6  -7  15    8.59    7.47
   6   7 -15   42.39   13.07
  -5  -7  15    1.07    7.02
   5   7 -15   19.54    9.30
  -4  -7  15   20.44    8.89
   4   7 -15   24.65   11.59
  -3  -7  15   28.55   10.00
   3   7 -15   25.04   10.89
  -3   7  15   38.04    8.38
  -2  -7  15   17.08    8.20
  -2   7  15   13.48    6.39
   2   7 -15   25.02   10.19
  -2   7  15   18.82    6.95
  -1  -7  15    0.96    5.81
   1   7 -15   13.33    8.33
  -1   7  15   13.03    5.87
  -1   7  15   11.23    5.54
   0  -7 -15   14.59    6.13
   0  -7  15   29.44    9.39
   0   7  15   22.31    6.68
   0   7  15   14.70    6.26
   0   7 -15    8.35    7.64
   1  -7  15   33.30    5.74
   1  -7  15   25.34   10.31
   1   7  15   40.55    9.33
   1   7  15   33.07    9.07
  -1   7 -15   46.11   12.72
   2  -7  15    8.25    8.07
  -2  -7 -15    6.23    6.90
  -2   7 -15  -13.00    6.43
   2   7  15    9.06    7.72
   2   7  15    1.52    5.97
  -3  -7 -15   11.16    8.23
   3  -7  15   -3.84    6.67
  -3   7 -15    7.17   10.10
   3   7  15  -14.36    6.32
   3   7  15    2.37    5.98
  -4  -7 -15  -16.09    7.39
  -4  -7 -15   13.79    9.36
   4  -7  15   16.13    9.69
   4   7  15    4.63    6.95
  -4   7 -15   24.31   11.40
  -5  -7 -15   15.66   10.78
   5  -7  15   31.87   11.28
  -5   7 -15   -3.23    8.44
   5   7  15   33.86   10.32
  -6  -7 -15  -15.46    9.44
   6  -7  15   22.90   11.15
   6   7  15   -9.46    6.89
  -6   7 -15   -5.61    9.16
  -7  -8  15   27.81   12.07
   7   8 -15    3.08    8.79
  -7   8  15   27.66   13.17
  -6  -8  15    7.30    8.63
   6  -8 -15   -7.66    6.65
   6   8 -15   20.54   12.36
   5  -8 -15   95.02   12.74
  -5  -8  15   70.65   14.78
   5   8 -15   66.81   15.65
   4  -8 -15   33.98    5.12
  -4  -8  15   37.81   11.02
   4   8 -15   56.72   14.24
  -3  -8  15   50.30   12.83
   3  -8 -15   39.69    4.30
   3   8 -15   37.96   12.09
  -3   8  15   49.44    8.63
  -2  -8  15    5.87    8.23
   2  -8 -15    2.99    4.57
   2   8 -15    8.28    8.00
  -2   8  15   14.55    5.82
  -2   8  15   10.21    5.72
   1  -8 -15   46.87    8.15
  -1  -8  15   49.59   11.86
   1  -8 -15   54.31    6.55
   1   8 -15   90.48   16.74
  -1   8  15   58.09   10.04
  -1   8  15   78.08   11.01
   0  -8  15   62.50    9.22
   0  -8  15   53.88   12.43
   0   8 -15   81.85   15.64
   0   8  15   70.49   10.91
   0   8  15   52.35    9.07
   1  -8  15   73.38    8.72
   1  -8  15   44.88   11.69
  -1  -8 -15   66.73    9.78
   1   8  15   54.18   10.44
   1   8  15   63.80   10.55
  -1   8 -15   59.51   13.82
   2  -8  15   23.13    8.97
  -2  -8 -15   -1.82    6.42
  -2   8 -15   22.34    9.50
   2   8  15    2.28    6.99
   2   8  15   17.98    6.84
   3  -8  15   40.68   11.70
  -3  -8 -15   37.69   10.26
  -3   8 -15   44.08   13.22
   3   8  15   29.66   10.38
   3   8  15   45.77   10.58
   4  -8  15   47.41   12.79
  -4  -8 -15   36.99   11.48
  -4  -8 -15   24.02    7.90
  -4   8 -15   43.48   12.92
   4   8  15   52.57   12.07
  -5  -8 -15   94.19   17.18
  -5  -8 -15  106.28   10.63
   5  -8  15   58.84   14.43
   5   8  15   98.71   16.19
  -5   8 -15  109.84   20.60
  -6  -8 -15   13.83   14.16
  -6  -8 -15   17.38    6.38
   6   8  15   -0.80    8.36
  -6  -9  15   98.08   18.54
   6   9 -15   87.94   19.00
  -5  -9  15    8.33    8.23
   5   9 -15   10.74   10.26
  -4  -9  15   -7.24    6.44
   4   9 -15   13.94    8.80
  -3  -9  15   74.08   15.22
   3   9 -15  113.03   18.87
  -3   9  15  120.85   11.78
  -2  -9  15  102.26   16.31
  -2   9  15  121.44   10.83
   2   9 -15  128.48   18.80
  -2   9  15  112.89   11.99
  -1  -9  15   34.41   10.72
   1   9 -15   45.39   12.94
  -1   9  15   29.83    7.55
  -1   9  15   26.67    6.54
   0  -9  15   -1.73    6.17
   0  -9  15   -3.74    4.23
   0  -9 -15   -2.37    5.76
   0   9  15    8.80    4.66
   0   9 -15   -3.69    6.34
   0   9  15   -1.23    4.69
   1  -9  15  119.04   17.53
   1  -9  15   85.19   10.16
  -1   9 -15  107.05   18.59
   1   9  15  102.73   13.09
   1   9  15   94.67   12.81
   2  -9  15   64.95   13.89
  -2  -9 -15   76.05   11.46
   2  -9  15   94.23    8.00
  -2   9 -15   82.67   16.58
   2   9  15   67.47   11.37
   2   9  15   78.96   12.66
  -3  -9 -15   74.46   13.25
   3  -9  15   93.09   15.67
   3   9  15   74.89   13.39
  -3   9 -15   82.56   16.87
   3   9  15   90.21   13.75
  -4  -9 -15   -0.93    8.97
  -4  -9 -15    0.12    4.99
   4  -9  15    2.66    8.67
  -4   9 -15    9.18    8.89
   5  -9  15   57.39   13.49
  -5  -9 -15   70.90   10.75
  -5  -9 -15   83.65   17.06
   5   9  15   71.13   13.65
  -5   9 -15   59.55   16.83
  -6 -10  15  -10.89    6.80
   6  10 -15   -1.72    9.46
  -5 -10  15    4.92    8.96
   5  10 -15    2.01    7.72
  -4 -10  15   -6.43    5.70
   4  10 -15    9.90    9.12
  -3 -10  15   -6.87    6.46
   3  10 -15   -5.75    7.35
  -3  10  15    9.76    5.55
  -2 -10  15    8.89    7.65
  -2  10  15    1.39    5.08
   2  10 -15    1.98    7.66
  -1 -10  15    7.03    6.97
   1  10 -15    0.79    7.78
  -1  10  15   -3.39    4.73
  -1  10  15    0.29    4.47
   0 -10  15    5.90    4.95
   0 -10  15   -5.72    6.11
   0  10 -15   -5.03    6.28
   0  10  15   -0.93    4.32
   0  10  15   -2.85    4.47
   1 -10  15    3.46    4.28
   1 -10  15    0.48    6.59
   1  10  15   -0.11    3.95
  -1  10 -15   -4.45    6.99
   2 -10  15    1.19    4.11
   2 -10  15   -1.10    6.62
   2  10  15   -7.64    4.61
  -2  10 -15   -5.50    6.75
   2  10  15    9.15    6.88
  -3 -10 -15  -18.78    6.55
   3 -10  15    2.39    7.26
   3  10  15    2.62    6.34
  -3  10 -15    1.88    7.80
  -4 -10 -15   -8.69    9.02
  -4 -10 -15   -0.71    6.02
   4 -10  15   14.64    8.85
  -4  10 -15   10.59    9.35
   4  10  15   -1.36    7.08
   5 -10  15   -6.74    8.26
  -5 -10 -15   -8.45    8.87
  -5 -10 -15    5.87    6.08
   5  10  15   12.59    9.40
  -5  10 -15    2.37   11.75
  -5 -11  15    4.55    8.31
   5  11 -15   15.13   10.44
  -4 -11  15    2.20    7.33
  -4  11  15    4.43    4.91
   4  11 -15    8.49    9.22
  -3 -11  15  108.07   17.14
  -3  11  15  103.93   12.05
   3  11 -15  112.24   19.49
  -2 -11  15   53.05   13.49
   2  11 -15   87.42   17.37
  -2  11  15   71.77    9.89
  -1 -11  15   19.13    7.89
  -1 -11  15   25.30    9.82
  -1  11  15   36.43    6.35
  -1  11  15   20.95    6.11
   1  11 -15   31.75   11.22
   0 -11  15   -1.31    6.54
   0 -11  15   -0.71    4.74
   0  11  15    1.15    4.40
   0  11  15    2.36    4.90
   0  11 -15   -9.88    5.98
   1 -11  15   82.04   11.16
   1 -11  15   96.57   15.85
  -1  11 -15   64.87   15.25
   1  11  15   97.09   11.98
   1  11  15   62.90   15.37
   2 -11  15   85.51   10.43
   2 -11  15   90.15   15.89
   2  11  15   64.34   10.85
   2  11  15   44.93   10.57
  -2  11 -15   53.05   14.35
  -3 -11 -15   19.51   13.88
  -3 -11 -15   32.75   10.01
   3 -11  15   23.59   10.01
  -3  11 -15   29.34   12.54
   3  11  15   35.12    9.28
   3  11  15   12.56   10.34
  -4 -11 -15    2.84    6.71
   4 -11  15    3.22    7.83
  -4 -11 -15  -11.09   14.50
   4  11  15   -7.15    5.53
  -4  11 -15   11.51   11.60
  -5 -12  15   28.26   12.85
   5  12 -15   10.79   11.03
  -4 -12  15   58.05   15.30
   4  12 -15   64.86   16.81
  -4  12  15   74.53   10.24
  -3 -12  15   45.93   12.59
   3  12 -15   22.32   10.95
  -3  12  15   35.40    7.80
  -2 -12  15   21.38    9.37
   2  12 -15   10.99    9.28
  -2  12  15   15.54    6.07
  -1 -12  15   51.86   12.60
  -1 -12  15   36.94   10.02
  -1  12  15   42.13    6.43
   1  12 -15   36.13   12.22
  -1  12  15   37.84    7.68
   0 -12  15   69.56   11.39
   0 -12  15   41.71   11.55
   0  12 -15   64.68   14.79
   0  12  15   43.01    7.46
   0  12  15   58.46    8.69
   1 -12  15   88.50   12.81
   1 -12  15   81.45   14.92
   1  12  15   50.24    8.65
  -1  12 -15   70.36   15.84
   1  12  15   62.52    9.49
   2 -12  15  -11.52    6.11
   2 -12  15    1.69    4.33
   2  12  15   -9.93    5.93
  -2  12 -15   11.19   10.60
   2  12  15   -9.58    5.42
  -3 -12 -15   50.15   12.69
   3 -12  15   28.52   10.58
  -3 -12 -15   26.36    9.60
  -3  12 -15   34.65   13.78
   3  12  15   27.51    9.09
  -4 -12 -15   27.07    9.80
   4 -12  15   31.74   11.44
  -4 -12 -15   25.74   12.59
   4  12  15   23.13    9.84
  -4 -13  15   39.46   13.45
  -4  13  15   37.00    8.34
   4  13 -15    2.38   10.25
  -3 -13  15    9.63    8.91
   3  13 -15    7.89    9.52
  -3  13  15   16.28    5.77
  -2 -13  15    4.49    6.67
  -2  13  15    6.48    4.38
   2  13 -15    5.16    9.30
  -1 -13  15    8.37    8.32
  -1 -13  15   35.39    9.94
   1  13 -15    2.39    8.51
  -1  13  15   23.15    6.28
   0 -13  15   47.84   11.40
   0 -13  15   37.06   11.66
   0  13 -15   41.59   14.17
   0  13  15   26.63    8.70
   0  13  15   34.58    7.59
   1 -13  15    5.41    8.29
   1 -13  15    9.16    6.89
   1  13  15   16.75    6.18
   1  13  15    5.51    5.14
  -1  13 -15    8.62    9.99
   2 -13  15    2.41    5.50
   2 -13  15  -13.75    6.54
   2  13  15   -2.98    5.23
  -2  13 -15   13.96   10.84
   2  13  15  -14.03    6.19
   3 -13  15   10.29    8.71
  -3 -13 -15  -14.30    6.96
   3  13  15   10.98    6.78
  -3  13 -15   -8.67    8.65
  -3 -14  15   -6.23    6.66
   3  14 -15   -6.28    8.63
  -3  14  15   -9.51    4.89
  -2 -14  15   -2.30    7.92
  -2 -14  15   14.85    9.64
   2  14 -15    1.47    9.00
  -2  14  15   13.87    4.78
  -1 -14  15   64.67   13.66
  -1 -14  15   47.97   12.47
  -1  14  15   92.65    9.28
   1  14 -15   56.65   15.90
   0 -14  15   45.19   10.94
   0 -14  15   54.76   12.86
   0  14  15   34.99    7.54
   0  14 -15   53.64   15.05
   0  14  15   50.58    7.88
   1 -14  15   -9.29    5.80
   1  14  15    4.55    5.11
   1  14  15    3.86    5.56
  -1  14 -15  -12.34    7.71
   2 -14  15   -0.40    5.26
   2 -14  15    1.18    7.25
   2  14  15    7.78    5.90
  -2  14 -15   16.06   11.85
  -2 -15  15    5.42    8.57
  -2 -15  15   -1.24    8.34
   2  15 -15   29.05   15.38
  -1 -15  15   14.60    8.30
  -1 -15  15   37.43   11.33
  -1  15  15   25.13    6.28
   0 -15  15   50.34   12.71
   0 -15  15   35.85   10.49
   0  15  15   34.16    4.42
   0  15  15   40.57    7.47
   1 -15  15    2.29    7.16
   1 -15  15    0.88    8.13
  -1  15 -15   10.23   10.40
   1  15  15    9.86    6.05
   1  15  15   12.19    6.04
   7   0 -16   48.26   11.83
  -7   0  16   41.74   16.14
   6   0 -16   -6.40    6.52
   5   0 -16   44.43   11.97
  -4   0  16  218.53   19.76
   4   0 -16  255.46   20.90
  -3   0  16  100.09   15.01
   3   0 -16  106.57   15.33
   2   0 -16   47.43   10.67
  -2   0  16   38.22   12.43
   1   0 -16   72.26   12.74
  -1   0  16   84.20   11.05
   0   0  16  229.58   13.32
   0   0  16  270.05   24.12
   0   0 -16  238.71   20.05
   1   0  16   75.87   13.72
  -1   0 -16   64.34   12.48
   2   0  16    9.51    7.70
  -2   0 -16   13.27    7.27
   3   0  16   38.39   11.77
  -3   0 -16   48.27   13.07
   4   0  16  262.71   24.06
  -4   0 -16  273.89   24.85
  -5   0 -16    7.25    8.70
   5   0  16    9.62    8.13
   6   0  16   45.66   13.53
  -6   0 -16   17.79   11.10
  -7  -1  16   29.82   15.59
   7  -1 -16   22.84   10.65
  -7   1  16  -12.97    8.65
   7   1 -16   13.58   10.13
   6  -1 -16   20.50   10.12
   6   1 -16   15.64   15.94
  -5  -1  16   -7.02    4.07
   5  -1 -16   -6.48    5.83
   5   1 -16    3.30    7.18
  -4  -1  16   16.40    8.45
   4  -1 -16    2.73    6.39
   4   1 -16    4.84    6.88
  -4   1  16   12.12    7.52
  -3  -1  16    7.89    7.12
   3  -1 -16   -1.40    6.13
   3   1 -16    8.03    7.28
  -3   1  16   -6.87    5.06
   2  -1 -16   24.60    9.00
  -2  -1  16   15.79    8.10
  -2   1  16   19.17    9.10
  -2   1  16   17.89    8.27
   2   1 -16   21.78    8.76
   1  -1 -16   15.31    7.91
  -1  -1  16   10.27    7.97
  -1   1  16   14.30    6.58
  -1   1  16   18.43    7.85
   1   1 -16    9.03    7.34
  -1   1  16   15.57    8.04
   0  -1  16   13.60    8.15
   0  -1  16    4.93    3.38
   0  -1 -16    9.67    7.52
   0   1  16   20.14    8.59
   0   1 -16   16.13    8.39
   0   1  16    8.21    4.46
   1  -1  16   -4.95    5.10
  -1  -1 -16   10.26    7.17
   1   1  16    6.67    7.23
  -1   1 -16    2.54    6.97
   2  -1  16  111.12   16.95
  -2  -1 -16   91.52   15.19
  -2   1 -16   95.00   16.03
   2   1  16   88.76   15.47
   3  -1  16   -0.19    7.38
  -3  -1 -16   11.34    8.12
  -3   1 -16   -2.27    7.34
   3   1  16    5.34    8.10
   4  -1  16   25.50    9.36
  -4  -1 -16   24.00   10.66
   4   1  16   36.98   11.18
  -4   1 -16   20.04    9.43
  -5  -1 -16    9.13    8.23
   5  -1  16   13.92    8.33
  -5   1 -16   15.19   10.84
   5   1  16   32.92   10.97
   6  -1  16   26.88   12.89
  -6  -1 -16   38.62   14.18
   6   1  16   46.84   13.79
  -6   1 -16   58.99   15.97
   7  -2 -16    9.27    9.27
  -7  -2  16   -9.23    8.69
   7   2 -16   33.48   13.12
  -7   2  16   44.54   17.36
   6  -2 -16    6.20    7.20
   6   2 -16   -2.81    6.94
  -5  -2  16    8.47    7.17
   5  -2 -16    4.54    6.37
   5   2 -16   -2.07    7.16
   4  -2 -16   72.79   12.99
  -4  -2  16   68.73   13.32
  -4   2  16   57.32   11.87
   4   2 -16   86.55   15.35
  -3  -2  16   42.02   11.22
   3  -2 -16   38.10    9.92
  -3   2  16   47.02   10.68
  -3   2  16   40.83   10.08
   3   2 -16   31.78   11.01
  -2  -2  16    6.88    7.23
   2  -2 -16   -3.48    4.95
  -2   2  16   -8.51    4.89
  -2   2  16   -5.83    6.45
   2   2 -16    0.68    7.11
  -1  -2  16    7.07    6.13
   1  -2 -16    3.12    5.48
  -1   2  16   -4.00    6.59
   1   2 -16    0.84    6.45
  -1   2  16   -0.25    5.83
  -1   2  16    4.79    6.09
   0  -2  16   97.44   15.08
   0  -2  16   97.35    8.57
   0  -2 -16  108.34   14.76
   0   2 -16  124.26   17.41
   0   2  16  109.27   15.21
   0   2  16  113.76   15.89
   0   2  16  102.93    9.87
   1  -2  16   75.14   14.12
  -1  -2 -16   85.18   12.98
  -1   2 -16   77.99   14.68
  -2  -2 -16    6.53    7.06
   2  -2  16    2.30    7.26
   2   2  16    1.39    6.25
  -2   2 -16    5.31   10.47
  -3  -2 -16   -2.74    6.22
   3  -2  16    5.26    8.27
  -3   2 -16    4.78    7.73
   3   2  16    9.20    8.21
  -4  -2 -16   46.01   15.93
   4  -2  16   51.94   13.93
  -4   2 -16   66.29   15.16
   4   2  16   76.10   15.11
  -5  -2 -16   22.98   11.53
   5  -2  16   22.45   10.77
  -5   2 -16   31.32   12.22
   5   2  16   11.26    8.76
   6  -2  16   -8.56    7.09
  -6  -2 -16   -3.87    8.78
   6   2  16    5.99    8.50
  -6   2 -16    0.34    8.42
   7  -3 -16   30.47   11.15
  -7  -3  16   12.45   14.16
   7   3 -16   32.60   11.66
  -7   3  16   11.96   11.36
   6  -3 -16  166.16   17.46
   6   3 -16  162.04   22.40
  -5  -3  16   17.09    9.22
   5  -3 -16   38.98   10.47
   5   3 -16   18.72    9.90
  -4  -3  16    7.19    7.43
   4  -3 -16   15.46    7.54
  -4   3  16   12.24    7.79
   4   3 -16   12.81    9.76
  -3  -3  16   51.36   12.01
   3  -3 -16   43.92   10.09
  -3   3  16   51.71   10.97
  -3   3  16   51.84   12.78
   3   3 -16   61.04   13.29
  -2  -3  16  238.29   20.68
   2  -3 -16  277.42   19.12
   2   3 -16  280.06   22.65
  -2   3  16  287.36   20.67
  -2   3  16  259.61   23.94
  -1  -3  16   49.75   11.87
   1  -3 -16   36.90    9.11
  -1   3  16   40.98   10.28
  -1   3  16   24.30    7.63
   1   3 -16   51.25   12.08
   0  -3 -16   43.64    9.85
   0  -3  16   33.48    9.91
   0   3  16   29.34    8.31
   0   3 -16   26.41   10.29
   0   3  16   19.01    5.99
   0   3  16   34.76    9.84
   1  -3  16   40.34   10.80
  -1  -3 -16   40.68   10.56
   1   3  16   32.93    9.62
   1   3  16   19.74    9.70
  -1   3 -16   19.85    9.27
  -2  -3 -16  165.07   16.00
  -2  -3 -16  194.50   18.40
   2  -3  16  243.29   21.45
   2   3  16  209.66   18.93
  -2   3 -16  267.40   23.22
   3  -3  16   27.80   10.40
  -3  -3 -16   23.33    9.80
  -3   3 -16   18.09   11.02
   3   3  16   17.05    9.01
   4  -3  16   33.36   11.97
  -4  -3 -16   16.70    8.90
   4   3  16   32.56   10.75
  -4   3 -16   52.94   13.01
   5  -3  16   28.43   11.10
  -5  -3 -16   19.21   11.09
   5   3  16   25.46   10.36
  -5   3 -16   26.79   12.26
  -6  -3 -16  132.84   22.32
   6  -3  16  153.55   22.47
   6   3  16  129.95   19.95
  -6   3 -16  138.81   23.65
   7  -4 -16   14.41    9.02
   7   4 -16    7.52    9.72
  -7   4  16   27.62   13.77
  -6  -4  16   45.31   11.96
   6  -4 -16   32.69    9.73
   6   4 -16   62.35   15.16
   5  -4 -16  108.12   15.02
  -5  -4  16   69.51   14.83
   5   4 -16   75.05   15.46
  -4  -4  16   24.49    9.81
   4  -4 -16   30.24    8.70
   4   4 -16   24.65   10.44
  -4   4  16   29.16    9.25
  -3  -4  16   -0.18    6.75
   3  -4 -16   13.84    6.93
  -3   4  16   14.31    6.83
   3   4 -16   28.73   17.44
  -3   4  16   -1.57    6.23
   2  -4 -16   49.73    9.59
  -2  -4  16   50.15   11.86
  -2   4  16   66.35   11.91
   2   4 -16   55.73   12.23
  -2   4  16   61.15   11.70
  -1  -4  16  110.78   16.53
   1  -4 -16  124.33   13.11
  -1   4  16   98.67   12.82
  -1   4  16   84.19   14.05
   1   4 -16  124.52   17.78
  -1   4  16  116.58   15.79
   0  -4  16   18.27    8.72
   0  -4 -16   34.50    8.32
   0   4  16   23.89    8.19
   0   4  16   19.16    6.66
   0   4  16   44.72   10.59
  -1  -4 -16    1.31    5.69
   1  -4  16    5.44    6.82
   1   4  16    2.21    7.18
  -1   4 -16   -3.66    7.37
   1   4  16   -3.78    5.00
  -2  -4 -16   19.86    8.46
   2  -4  16    7.22    7.86
  -2   4 -16   26.13   11.51
   2   4  16   16.13    8.75
   3  -4  16   39.40   11.91
  -3  -4 -16   50.85   12.44
   3   4  16   28.76   10.31
  -3   4 -16   60.72   14.40
   4  -4  16   14.52    8.30
  -4  -4 -16    0.49    7.82
  -4   4 -16    2.10    8.34
   4   4  16   14.29    8.71
  -5  -4 -16    5.10    9.89
   5  -4  16    5.13    8.65
  -5   4 -16   -3.40    8.91
   5   4  16   12.45    9.07
   6  -4  16    8.57   10.39
  -6  -4 -16   22.81   12.51
  -6   4 -16   -6.60    8.84
   6   4  16   11.37    9.94
   7  -5 -16   -2.70    9.02
  -7   5  16   13.26   11.17
   7   5 -16    5.04    9.38
   6  -5 -16   28.21    8.91
  -6  -5  16   32.27   11.71
   6   5 -16   28.06   12.11
  -5  -5  16   56.46   12.95
   5  -5 -16   41.70   12.55
   5   5 -16   47.13   13.30
   4  -5 -16   13.64    7.71
  -4  -5  16    6.64    7.25
  -4   5  16   22.68    7.78
   4   5 -16    5.87    7.33
   3  -5 -16   13.12    6.54
  -3  -5  16    8.50    8.22
  -3   5  16   31.22    7.68
   3   5 -16    6.80    8.00
  -2  -5  16   50.83   11.91
   2  -5 -16   69.95   10.26
  -2   5  16   71.89   12.30
  -2   5  16   65.89   11.79
   2   5 -16   75.52   15.09
  -1  -5  16   61.29   13.46
  -1   5  16   55.03   11.68
   1   5 -16   67.94   14.20
  -1   5  16   64.86   11.23
   0  -5 -16    9.88    6.56
   0  -5  16   17.17    8.11
   0   5  16   17.68    7.50
   0   5  16    3.37    5.74
   0   5 -16    7.08    8.15
   0   5  16    3.15    5.65
   1  -5  16   63.09   12.71
  -1  -5 -16   59.78   11.60
   1  -5  16   53.19    4.83
  -1   5 -16   59.30   13.85
   1   5  16   46.86   10.75
   1   5  16   43.01   12.59
   2  -5  16   72.06   13.98
  -2  -5 -16   53.19   11.33
   2   5  16   80.72   13.68
   2   5  16   84.18   13.54
  -2   5 -16   56.36   14.19
   3  -5  16   48.02   13.15
  -3  -5 -16   44.38   10.92
  -3  -5 -16   37.93    9.79
   3   5  16   37.35   10.84
  -3   5 -16   37.75   12.38
  -4  -5 -16   17.84    9.54
   4  -5  16  -11.16    5.14
  -4   5 -16  -10.90    6.23
   4   5  16   13.88    7.46
  -5  -5 -16   61.37   15.99
   5  -5  16   50.62   12.95
  -5   5 -16   37.89   13.51
   5   5  16   51.38   14.10
  -6  -5 -16   13.35   11.77
   6   5  16   71.56   15.25
  -6   5 -16   49.96   16.62
   7  -6 -16    9.20   13.78
  -7   6  16    3.44   10.04
   7   6 -16   18.00   10.48
   6  -6 -16   -1.32    6.26
  -6  -6  16   11.29    8.67
   6   6 -16    5.01    9.12
   5  -6 -16   45.43    9.53
  -5  -6  16   40.80   11.97
   5   6 -16   19.25   10.27
  -4  -6  16   61.62   14.61
   4  -6 -16   56.77    8.85
  -4   6  16   83.19   12.86
   4   6 -16   90.03   16.76
  -3  -6  16   15.92    8.80
   3  -6 -16   -3.06    5.07
   3   6 -16   10.30    8.47
  -3   6  16    5.45    5.95
  -2  -6  16    4.94    7.56
   2  -6 -16    3.19    4.60
  -2   6  16   -4.90    6.01
  -2   6  16    0.38    4.97
   2   6 -16   -3.56    6.42
  -1  -6  16   29.65    8.77
   1  -6 -16   26.08    7.24
  -1   6  16   42.50   10.33
   1   6 -16   12.55    9.64
  -1   6  16   23.26    7.37
   0  -6 -16   88.35   11.93
   0  -6  16   82.93   14.27
   0   6  16  105.75   14.20
   0   6  16   75.14   12.14
   0   6 -16  100.85   16.70
   0   6  16   83.74   11.98
   1  -6  16    0.52    2.43
  -1  -6 -16    0.19    5.79
   1  -6  16   -5.67    5.12
   1   6  16    4.14    6.54
  -1   6 -16    8.50    7.91
   1   6  16   -0.05    7.34
   2  -6  16    9.60    8.88
  -2  -6 -16    7.68    7.35
   2   6  16    9.40    7.73
   2   6  16   13.86    7.04
  -2   6 -16    7.03    8.96
   3  -6  16   29.48   11.22
  -3  -6 -16   33.78   10.30
  -3   6 -16   30.18   11.27
   3   6  16   12.69    7.20
  -4  -6 -16   32.32   10.86
   4  -6  16   45.43   12.62
  -4   6 -16   49.56   13.94
   4   6  16   56.39   12.38
   5  -6  16   14.56    8.95
  -5  -6 -16   -0.83    8.82
  -5   6 -16   18.10   10.60
   5   6  16    3.71    8.59
   6  -6  16   36.37   15.87
  -6  -6 -16   20.35   13.41
  -6   6 -16   -1.28   12.22
   6   6  16    0.94    8.23
  -6  -7  16   -5.14    6.86
   6   7 -16    3.64    9.28
  -5  -7  16   45.54   12.00
   5   7 -16   30.83   10.56
  -4  -7  16   79.03   15.57
   4   7 -16   67.10   15.40
  -4   7  16   63.24   10.62
  -3  -7  16  132.22   19.61
   3   7 -16  149.05   20.96
  -3   7  16  135.47   13.91
  -2  -7  16    6.03    6.82
   2   7 -16   11.83    7.39
  -2   7  16   -2.27    5.36
  -2   7  16   -8.43    4.30
  -1  -7  16   41.71   11.07
  -1   7  16   31.80    8.33
   1   7 -16   46.80   11.51
  -1   7  16   55.45   10.17
   0  -7  16   59.36   13.05
   0  -7 -16   49.13    8.84
   0   7 -16   55.42   13.25
   0   7  16   50.31    9.31
   0   7  16   41.59    9.04
  -1  -7 -16  147.57   14.61
   1  -7  16  150.83   19.99
   1  -7  16  134.88   10.39
   1   7  16  179.87   15.57
   1   7  16  129.56   16.35
  -1   7 -16  124.60   19.36
  -2  -7 -16    9.54    7.23
   2  -7  16   -0.70    6.80
   2   7  16   12.15    8.22
  -2   7 -16   -4.89    7.82
  -3  -7 -16    3.85    8.33
   3  -7  16   37.62   11.32
  -3   7 -16   20.46   10.38
   3   7  16   30.01    9.90
   4  -7  16   21.83   10.74
  -4  -7 -16   21.90   10.71
  -4  -7 -16   14.31   10.90
   4   7  16   21.72    9.62
  -4   7 -16   37.10   13.25
  -5  -7 -16  163.23   22.27
   5  -7  16  183.96   24.19
   5   7  16  227.73   22.27
  -5   7 -16  203.18   26.98
  -6  -8  16   28.98   11.82
   6   8 -16   69.14   16.69
   5  -8 -16   26.54    7.78
  -5  -8  16   37.27   12.38
   5   8 -16   27.02   11.97
  -4  -8  16   14.31    8.93
  -4   8  16   23.07    8.15
   4   8 -16   33.83   12.44
   3  -8 -16   34.95    6.30
  -3  -8  16   48.50   12.35
  -3   8  16   45.02    9.73
   3   8 -16   74.44   15.21
  -2  -8  16   43.51   12.19
   2  -8 -16   47.18    7.39
  -2   8  16   39.24    7.72
  -2   8  16   60.75   10.38
   2   8 -16   50.69   13.82
  -1  -8  16   66.93   14.21
   1  -8 -16   40.13    6.49
  -1   8  16   40.55    8.35
   1   8 -16   73.66   14.82
  -1   8  16   67.54   11.15
   0  -8  16    9.48    4.92
   0  -8  16   11.25    8.56
   0   8 -16   24.75   10.91
   0   8  16    5.49    6.46
   0   8  16   25.39    8.21
   1  -8  16   64.54   14.17
   1  -8  16   51.13    7.34
  -1  -8 -16   33.83    8.71
  -1   8 -16   69.19   14.63
   1   8  16   28.69    9.53
   1   8  16   62.31   10.94
   2  -8  16   27.11   11.02
   2   8  16   23.64    9.53
  -2   8 -16   16.45   10.24
  -3  -8 -16   81.63   13.94
   3  -8  16  107.00   18.33
  -3   8 -16   86.42   18.11
   3   8  16   72.96   13.46
  -4  -8 -16   18.98   10.99
   4  -8  16   20.25   10.07
   4   8  16   12.53    8.31
  -4   8 -16   13.09    9.54
   5  -8  16   13.86   10.07
  -5  -8 -16   -4.93    9.04
  -5   8 -16    9.63   11.21
   5   8  16   21.91   10.29
   6   9 -16   -4.97    7.88
  -5  -9  16    6.76    8.79
   5   9 -16    8.63   11.05
  -4  -9  16   15.03    9.60
   4   9 -16   13.15    9.65
  -4   9  16   32.96    7.78
  -3  -9  16   16.82    9.35
   3   9 -16   29.48   10.75
  -3   9  16   21.27    7.51
  -2  -9  16    1.68    6.34
  -2   9  16  -13.03    3.84
  -2   9  16   -9.60    3.60
   2   9 -16    5.60    8.93
  -1  -9  16   19.14    9.42
  -1   9  16    4.46    5.20
   1   9 -16    1.48    8.17
   0  -9 -16   12.75    5.55
   0  -9  16    7.27    7.74
   0  -9  16   23.29    6.67
   0   9 -16   10.12    7.58
   0   9  16   -4.73    5.34
   0   9  16   11.53    5.53
   1  -9  16   35.28    6.85
   1  -9  16   34.07   11.09
   1   9  16   25.67    8.16
   1   9  16   18.85    7.92
  -1   9 -16   31.03   11.55
   2  -9  16    9.15    8.48
  -2  -9 -16   -8.87    5.46
  -2   9 -16  -12.42    5.72
   2   9  16   -5.72    7.39
   3  -9  16   -7.15    6.63
  -3  -9 -16    6.04    7.99
   3   9  16   21.62    8.53
   3   9  16   11.12   11.77
  -3   9 -16   10.02    8.98
  -4  -9 -16    0.15    9.18
   4  -9  16   10.79    8.77
   4   9  16    9.57    7.86
  -4   9 -16   22.47   12.89
  -5  -9 -16  -10.81   10.25
   5  -9  16   -6.25    7.76
   5   9  16   15.72    9.67
  -5 -10  16   97.98   19.39
   5  10 -16   92.15   19.71
  -4 -10  16    2.31    7.63
  -4  10  16   -1.82    5.24
   4  10 -16  -12.13    5.77
  -3 -10  16  117.61   18.68
   3  10 -16   97.76   18.09
  -3  10  16   89.48   11.74
  -2 -10  16   70.28   14.51
  -2  10  16   57.88    9.61
   2  10 -16   48.62   13.68
  -1 -10  16  165.70   21.13
   1  10 -16  162.87   23.00
  -1  10  16  189.22   14.27
  -1  10  16  198.03   14.91
   0 -10  16    8.53    8.55
   0 -10  16    4.65    5.10
   0  10 -16    8.01    8.53
   0  10  16   16.73    6.62
   1 -10  16   45.21   12.39
   1 -10  16   51.69    8.68
   1  10  16   52.03    9.98
   1  10  16   33.58    8.90
  -1  10 -16   39.88   12.60
   2 -10  16   59.60   13.59
   2  10  16   77.75   12.37
  -2  10 -16   77.80   16.77
   3 -10  16  138.96   19.18
   3  10  16   85.89   17.67
   3  10  16  166.51   17.25
  -3  10 -16  132.33   21.87
   4 -10  16    3.02    7.33
  -4 -10 -16   15.46   11.70
   4  10  16    9.28    8.20
  -4  10 -16    0.33    7.66
  -5 -11  16   -0.93    9.02
   5  11 -16    0.57    9.88
  -4 -11  16    7.21    7.45
   4  11 -16    1.35   10.69
  -4  11  16   28.17    6.78
  -3 -11  16   12.81    9.32
  -3  11  16   49.18    8.97
   3  11 -16   61.69   15.65
  -2 -11  16    0.08    6.96
  -2  11  16    3.47    5.27
   2  11 -16    4.48    7.83
  -1 -11  16    7.85    7.56
   1  11 -16    2.47    7.14
  -1  11  16    8.39    5.59
  -1  11  16    9.12    4.63
   0 -11  16   12.63    8.95
   0 -11  16   11.94    6.34
   0  11 -16    3.41    6.49
   0  11  16    9.74    5.16
   0  11  16    9.61    5.87
   1 -11  16   52.81    9.39
   1 -11  16   55.63   12.65
  -1  11 -16   52.30   14.50
   1  11  16   59.44   10.35
   1  11  16   43.87    9.16
  -2 -11 -16  -17.82    6.18
   2 -11  16  -12.52    6.26
   2 -11  16    0.81    4.13
   2  11  16    9.97    8.41
  -2  11 -16   13.30   10.03
  -3 -11 -16   -5.23   11.57
   3 -11  16    4.53    8.73
   3  11  16   16.03    7.81
  -3  11 -16    6.06    9.44
   4 -11  16   15.96   10.16
   4  11  16   16.48    8.47
  -4 -12  16    0.34    7.72
  -4  12  16   16.83    6.65
   4  12 -16   22.39   12.40
  -3 -12  16   31.03   12.07
  -3  12  16   18.71    6.92
   3  12 -16   40.94   14.16
  -2 -12  16   -0.95    6.42
  -2  12  16   10.73    5.29
   2  12 -16   -9.00    7.10
  -1 -12  16    9.80    6.94
  -1 -12  16   12.17    9.05
  -1  12  16   16.13    5.93
   1  12 -16   10.35   10.19
   0 -12  16   42.39   12.75
   0 -12  16   28.58    8.06
   0  12  16   27.17    7.06
   0  12  16   25.02    6.47
   0  12 -16   37.87   12.34
   1 -12  16   12.30    6.56
   1 -12  16   18.51    8.27
   1  12  16   17.41    8.61
  -1  12 -16   14.72   11.88
   1  12  16   34.41    7.91
   2 -12  16   10.34    8.96
   2 -12  16    7.35    4.15
  -2  12 -16   14.08   11.27
   3 -12  16   29.22   10.59
  -3  12 -16   50.09   15.45
   3  12  16   21.83    8.89
  -3 -13  16   67.17   15.79
   3  13 -16   85.99   18.70
  -3  13  16   52.53    9.32
  -2 -13  16  -11.52    5.47
  -2 -13  16   -3.87    5.86
   2  13 -16    6.15   10.20
  -2  13  16   12.55    5.75
  -1 -13  16   32.27   11.18
  -1 -13  16   18.12    8.14
  -1  13  16   16.60    6.18
   1  13 -16   24.94   12.40
   0 -13  16   41.17   12.94
   0 -13  16   21.37    8.22
   0  13 -16   26.34   11.89
   0  13  16   26.19    6.50
   1 -13  16   82.24   16.35
   1 -13  16   67.97   12.00
   1  13  16   93.09   12.11
   1  13  16  107.70   11.48
  -1  13 -16   64.31   17.21
   2 -13  16   -0.89    4.83
   2 -13  16   -6.20    6.61
  -2  13 -16    2.04    9.80
  -2 -14  16    7.32    8.13
  -2 -14  16    7.59    9.45
  -2  14  16    2.23    4.96
  -1 -14  16   32.22   10.63
  -1 -14  16   24.83    9.94
  -1  14  16   49.18    7.97
   1  14 -16   15.42   10.85
   0 -14  16   58.14   13.77
   0 -14  16   56.90   11.01
   0  14  16   38.45    7.31
   0  14 -16   24.84   12.59
   0  14  16   45.29    6.88
   1 -14  16  -17.81    5.33
   1 -14  16   -9.14    6.38
   1  14  16    0.38    5.31
   1  14  16   -5.23    5.59
   6   0 -17    3.78    7.76
  -5   0  17    1.64    6.75
   5   0 -17    3.97    7.81
   4   0 -17   -7.68    5.64
  -4   0  17   -3.72    6.30
   3   0 -17    6.55    6.67
  -3   0  17   -4.74    6.08
   2   0 -17    0.30    6.47
  -2   0  17   -1.59    4.73
  -1   0  17   -6.60    8.05
   1   0 -17   -0.95    6.36
  -1   0  17   -6.76    5.52
   0   0 -17   -4.79    6.28
   0   0  17   -7.27    5.56
   0   0  17   -5.28    3.02
  -1   0 -17    5.78    6.49
   1   0  17   -7.21    5.46
   2   0  17   -1.40    6.34
  -2   0 -17   -5.56    6.06
   3   0  17    7.49    7.73
  -3   0 -17   -2.89    6.92
  -4   0 -17    0.66    8.52
   4   0  17   -1.90    7.69
  -5   0 -17   -3.24    8.85
   5   0  17   -3.04    6.90
  -6   0 -17   11.63   12.19
   7  -1 -17   56.54   14.20
   7   1 -17   35.40   13.92
   6  -1 -17   29.74   11.30
   6   1 -17   36.01   11.65
   5  -1 -17   14.61    8.11
  -5  -1  17    0.55    6.10
  -5   1  17    4.75    7.14
   5   1 -17    6.96    8.14
   4  -1 -17  204.75   18.91
  -4  -1  17  193.15   19.37
   4   1 -17  231.55   21.02
  -4   1  17  187.45   18.34
   3  -1 -17   37.76   10.44
  -3  -1  17   41.33   11.36
   3   1 -17   76.79   14.22
  -3   1  17   34.47   10.93
   2  -1 -17   55.10   12.12
  -2  -1  17   81.85   14.04
   2   1 -17   82.81   14.75
  -2   1  17   74.33   13.42
   1  -1 -17   -5.79    5.49
  -1  -1  17   -0.86    6.10
  -1   1  17   -9.77    6.06
   1   1 -17    2.89    6.87
  -1   1  17   -6.43    4.18
   0  -1  17  164.69   10.91
   0  -1 -17  154.88   17.05
   0  -1  17  190.94   18.56
   0   1  17  161.47   11.76
   0   1  17  222.39   19.03
   0   1 -17  187.88   18.75
   1  -1  17   23.56    9.59
  -1  -1 -17   29.96    9.23
   1   1  17   23.24    9.82
  -1   1 -17   21.50    9.28
   2  -1  17  115.65   17.44
  -2  -1 -17  108.76   16.24
   2   1  17  107.05   16.58
   3  -1  17   -2.61    6.33
  -3  -1 -17   -3.27    6.38
  -3   1 -17   -0.38    7.86
   3   1  17   -8.31    5.89
   4  -1  17   93.91   16.55
  -4  -1 -17  101.41   17.65
   4   1  17  129.10   19.54
  -4   1 -17   89.39   17.00
   5  -1  17   -8.56    7.00
  -5  -1 -17   -1.81    8.44
   5   1  17   23.77   11.62
  -5   1 -17   -5.73    7.73
  -6  -1 -17   99.80   19.95
  -6   1 -17   77.07   18.44
   7  -2 -17   12.65   11.03
   7   2 -17   24.71   11.79
   6  -2 -17  106.15   16.02
  -6  -2  17   67.41   15.08
   6   2 -17   82.23   15.62
  -5  -2  17   27.16   10.65
   5  -2 -17   17.64    8.92
  -5   2  17   12.70    8.39
   5   2 -17    9.44    8.64
   4  -2 -17   55.98   12.09
  -4  -2  17   45.49   11.42
   4   2 -17   48.00   12.41
  -4   2  17   63.57   12.42
  -3  -2  17    9.46    7.82
   3  -2 -17   17.95    8.60
  -3   2  17   -2.46    6.39
   3   2 -17   10.38    8.37
   2  -2 -17  122.43   15.86
  -2  -2  17  106.19   16.25
  -2   2  17  102.21   15.69
   2   2 -17  125.20   17.79
  -2   2  17   88.42   16.73
   1  -2 -17   20.24    8.96
  -1  -2  17   34.82   10.26
  -1   2  17   27.75   10.41
  -1   2  17   26.44    7.96
  -1   2  17   28.27   11.05
   1   2 -17   25.76    9.70
   0  -2  17  117.11    9.15
   0  -2 -17  121.88   16.00
   0  -2  17  127.71   17.11
   0   2  17  137.29   11.22
   0   2  17  137.44   17.60
   0   2 -17  123.56   17.94
   1  -2  17   36.71   11.16
  -1  -2 -17   40.49   11.07
  -1   2 -17   30.76   10.82
   1   2  17   39.63   10.74
  -2  -2 -17   59.15   12.67
   2  -2  17   80.06   14.89
  -2   2 -17   69.68   14.50
   2   2  17   96.64   15.73
   3  -2  17   23.48    9.92
  -3  -2 -17    2.72    7.92
  -3   2 -17   12.28    8.36
   3   2  17    8.06    6.61
   4  -2  17   90.90   16.89
  -4  -2 -17   66.94   15.65
   4   2  17  118.11   18.70
  -4   2 -17  100.57   18.03
   5  -2  17   14.88   10.25
  -5  -2 -17    1.05    9.33
   5   2  17   -1.43    6.63
  -5   2 -17    4.14   10.45
  -6  -2 -17   91.04   18.74
   6  -2  17   91.89   25.73
  -6   2 -17   68.71   18.66
   7  -3 -17   22.81   10.11
   7   3 -17   15.83   10.39
   6  -3 -17   14.21    8.54
  -6  -3  17    5.11    7.57
   6   3 -17   -0.09    7.85
   5  -3 -17   45.08   11.22
  -5  -3  17   43.41   11.02
   5   3 -17   47.73   13.47
  -4  -3  17   11.30    8.38
   4  -3 -17   12.58    7.40
   4   3 -17    8.42    8.39
  -4   3  17   10.59    6.87
  -3  -3  17    2.86    7.39
   3  -3 -17   11.97    6.96
   3   3 -17   11.10   11.11
  -3   3  17  -15.45    7.14
  -3   3  17    4.65    6.53
   2  -3 -17    9.71    6.87
  -2  -3  17    7.40    7.44
  -2   3  17   -4.09    7.98
   2   3 -17    4.10    7.16
  -2   3  17    8.71    7.94
   1  -3 -17   86.83   13.13
  -1  -3  17   99.10   15.59
   1   3 -17   81.08   14.94
  -1   3  17   71.30   13.11
  -1   3  17   73.53   11.17
  -1   3  17   66.09   13.88
   0  -3  17    9.52    7.81
   0  -3 -17   12.43    7.37
   0   3  17    1.21    5.14
   0   3  17   14.58    8.88
   1  -3  17    2.00    6.16
  -1  -3 -17   -9.15    5.15
  -1   3 -17    2.10    8.77
   1   3  17   -6.04    5.56
   2  -3  17   -1.02    6.84
  -2  -3 -17   -3.40    5.59
  -2   3 -17    3.19    8.14
   2   3  17   -1.65    6.47
  -3  -3 -17   52.73   13.07
   3  -3  17   49.41   13.82
  -3   3 -17   42.93   12.65
   3   3  17   36.41   10.70
   4  -3  17   -1.59    8.21
  -4  -3 -17   14.62   12.00
   4   3  17   -7.56    6.36
  -4   3 -17   10.97    9.79
   5  -3  17    8.54    9.56
  -5  -3 -17   -1.33    7.87
  -5   3 -17   -2.96    9.44
   5   3  17    0.58    8.03
   7  -4 -17   -3.28    9.05
   7   4 -17  -10.23    6.80
  -6  -4  17  116.79   19.29
   6  -4 -17  112.68   16.54
   6   4 -17   88.43   18.51
  -5  -4  17   32.88   10.55
   5  -4 -17   22.26    8.83
   5   4 -17   28.56   10.98
  -4  -4  17   29.67   10.60
   4  -4 -17   34.12    9.44
   4   4 -17   43.94   12.53
  -4   4  17   32.53    9.70
  -3  -4  17   -2.52    7.70
   3  -4 -17    0.46    6.13
  -3   4  17   -1.06    8.09
   3   4 -17    5.09    8.40
  -3   4  17   -5.19    6.20
   2  -4 -17  136.70   14.76
  -2  -4  17  143.97   18.54
   2   4 -17  111.46   17.52
  -2   4  17  142.96   15.26
  -1  -4  17   32.13   10.38
   1  -4 -17   17.47    7.78
   1   4 -17   11.28    9.05
  -1   4  17   30.83   11.75
  -1   4  17   18.84    7.82
   0  -4 -17   93.18   13.31
   0  -4  17   69.62   13.93
   0   4  17   61.79   13.06
   0   4  17   51.74   13.55
   0   4 -17   77.22   15.39
   0   4  17   77.20   14.77
  -1  -4 -17   29.07    9.48
   1  -4  17   19.82    9.65
   1   4  17    8.66    7.95
   1   4  17   21.56    9.31
  -1   4 -17   29.84   11.52
   2  -4  17   82.34   15.95
  -2  -4 -17   81.92   14.14
  -2   4 -17   83.10   15.95
   2   4  17   75.78   14.33
  -3  -4 -17    6.78    7.65
   3  -4  17    1.23    7.31
   3   4  17    7.34    8.01
  -3   4 -17   28.18   11.34
  -4  -4 -17   38.35   12.50
   4  -4  17   53.07   13.82
   4   4  17   52.60   12.59
  -4   4 -17   30.14   12.11
   5  -4  17   17.37   10.09
  -5  -4 -17   11.71   10.17
  -5   4 -17    9.16   11.76
   5   4  17   20.46   10.95
  -6  -5  17   27.15   11.11
   6  -5 -17   23.23    9.13
   6   5 -17   37.32   13.23
  -5  -5  17   86.27   16.15
   5  -5 -17   89.94   14.92
   5   5 -17   93.11   17.25
  -4  -5  17   36.50   10.99
  -4   5  17   44.14   10.05
   4   5 -17   24.75    9.88
  -3  -5  17    4.02    6.97
   3  -5 -17   10.76   10.97
  -3   5  17    6.26    5.92
   3   5 -17    6.00    8.19
  -2  -5  17   14.35    8.84
  -2   5  17   29.10   10.12
   2   5 -17   20.81    9.59
  -2   5  17   20.50    7.31
   1  -5 -17   89.57   12.18
  -1  -5  17  106.87   16.38
  -1   5  17  128.38   16.52
   1   5 -17   96.23   16.68
  -1   5  17   87.17   13.98
   0  -5 -17   42.44   10.13
   0  -5  17   56.16   12.38
   0   5  17   30.99    9.26
   0   5  17   21.96   17.25
   0   5  17   39.45    8.43
   0   5 -17   41.62   12.09
  -1  -5 -17   11.37    7.29
   1  -5  17    0.18    7.65
   1   5  17   12.78    7.29
   1   5  17    6.38    7.55
  -1   5 -17   -3.18    6.78
  -2  -5 -17   25.39    9.95
   2  -5  17   26.45    9.95
   2   5  17   33.76   10.73
  -2   5 -17   41.58   12.66
  -3  -5 -17   39.50   11.22
   3  -5  17   42.16   12.16
  -3   5 -17   45.84   12.76
   3   5  17   32.54   10.60
  -4  -5 -17   -8.02    7.89
   4  -5  17   14.10   10.68
   4   5  17   16.12   10.01
  -4   5 -17   12.19   10.91
   5  -5  17    9.62    9.49
  -5  -5 -17   -3.39    9.21
  -5   5 -17    4.40   10.47
   5   5  17   14.07   10.87
   6  -6 -17   10.60    7.90
  -6  -6  17   18.51   10.68
   6   6 -17   10.31   11.19
   5  -6 -17   18.03    7.80
  -5  -6  17   12.07    7.92
   5   6 -17    7.95    8.66
   4  -6 -17    4.40    6.01
  -4  -6  17    7.74    7.90
   4   6 -17   -2.95    6.95
  -4   6  17    0.21    9.38
  -3  -6  17  117.11   18.49
   3  -6 -17  124.32   12.43
   3   6 -17  156.58   21.50
  -3   6  17  149.77   15.64
   2  -6 -17    3.06    5.58
  -2  -6  17   11.18    7.91
  -2   6  17   20.68    8.00
   2   6 -17   18.15    9.43
  -2   6  17   10.79    7.77
  -1  -6  17   12.01    8.80
   1  -6 -17    0.49    5.60
  -1   6  17    0.37    6.10
  -1   6  17   15.20    7.64
   1   6 -17    7.02    7.79
   0  -6  17   -4.91    6.43
   0   6  17   -2.98    5.39
   0   6 -17   -6.10    6.82
   0   6  17  -10.03    7.23
  -1  -6 -17  173.27   16.38
   1  -6  17  141.69   19.76
  -1   6 -17  149.63   21.26
   1   6  17  129.50   17.57
  -2  -6 -17    1.70    7.21
   2  -6  17   28.49   10.52
  -2   6 -17    4.74    8.48
   2   6  17   11.41    6.84
   3  -6  17    4.06    8.95
  -3  -6 -17    7.34    7.69
  -3   6 -17   10.51    9.22
   3   6  17    3.85    7.14
   4  -6  17   -4.15    7.71
  -4  -6 -17  -12.74    7.18
  -4   6 -17    1.54    9.97
   4   6  17   -1.95    6.55
  -5  -6 -17  103.91   22.35
   5  -6  17  155.04   21.86
   5   6  17  157.73   21.87
  -5   6 -17  151.97   23.72
  -6  -7  17  -11.55    6.89
   6   7 -17   28.90   12.85
   5  -7 -17  -18.84    8.23
  -5  -7  17    0.41    7.28
   5   7 -17  -13.70    7.79
  -4  -7  17   46.62   12.07
   4   7 -17   62.28   14.19
  -4   7  17   62.09   11.69
  -3  -7  17   15.60    9.20
   3   7 -17    8.28    9.38
  -3   7  17    4.71    5.42
  -2  -7  17   -1.73    6.74
   2   7 -17    3.05    7.58
  -2   7  17    0.07    5.16
  -2   7  17   -8.56    5.80
  -1  -7  17   -0.10    6.51
  -1   7  17    8.57    7.43
   1   7 -17    9.16    9.49
  -1   7  17   17.78    7.11
   0  -7 -17   38.74    8.74
   0  -7  17   52.48   11.87
   0  -7  17   37.91    7.24
   0   7  17   49.12   11.21
   0   7  17   47.80   10.04
   0   7 -17   53.56   14.03
   1  -7  17    6.72    7.82
   1   7  17    2.43    8.19
   1   7  17   -5.28    7.32
  -1   7 -17   16.46   10.24
   2  -7  17   12.11    8.35
  -2  -7 -17    6.97    8.10
   2   7  17   -0.03    9.05
  -2   7 -17    8.85    8.82
   2   7  17   29.50    9.14
  -3  -7 -17   -9.72    7.84
   3  -7  17   15.73    9.83
   3   7  17   -5.88    6.07
  -3   7 -17   -3.02    8.85
  -4  -7 -17   28.89   11.67
   4  -7  17   58.34   14.82
  -4   7 -17   38.14   14.45
   4   7  17    9.49    8.33
  -5  -7 -17   -0.87    9.22
  -5   7 -17   -2.80    8.80
   5   7  17    5.64    7.97
  -6  -8  17    7.46    9.51
   6   8 -17   -9.05    7.07
  -5  -8  17   11.96    9.01
   5   8 -17   13.25   11.16
  -4  -8  17   55.16   13.98
  -4   8  17   43.82    9.63
   4   8 -17   46.86   14.26
  -3  -8  17  164.74   21.65
   3   8 -17  143.17   21.34
  -3   8  17  152.32   15.42
  -2  -8  17    7.47    7.38
  -2   8  17    2.95    5.55
   2   8 -17   -2.34    7.20
  -2   8  17   -2.45    5.04
  -1  -8  17    3.32    6.05
   1  -8 -17   -7.89    3.93
  -1   8  17   -3.17    4.83
   1   8 -17  -12.22    6.81
  -1   8  17  -11.61    5.64
   0  -8  17   34.49   11.44
   0  -8  17   34.72    7.23
   0   8  17   16.33    6.75
   0   8  17   19.74    7.32
   0   8 -17   30.38   11.59
   1  -8  17   95.59    8.20
  -1  -8 -17  102.91   13.45
   1  -8  17  118.84   17.65
  -1   8 -17  121.45   20.17
   1   8  17   93.73   14.10
   1   8  17   87.00   13.02
  -2  -8 -17   -1.88    7.17
   2  -8  17   -0.85    7.11
  -2   8 -17    6.59   10.06
   2   8  17    6.01    9.50
   2   8  17   -2.53    4.72
   3  -8  17   -6.61    7.12
  -3  -8 -17   -2.58    8.29
   3   8  17    1.89    7.25
  -3   8 -17    7.55   10.39
  -4  -8 -17   24.04   10.98
   4  -8  17   14.34    9.94
   4   8  17   -7.35    7.40
  -4   8 -17   28.16   13.22
  -5  -9  17  174.13   23.46
   5   9 -17  137.41   22.44
  -4  -9  17   16.81   10.00
   4   9 -17    7.51   10.99
  -4   9  17   34.44    7.99
  -3  -9  17    3.03    7.87
   3   9 -17   22.64   11.24
  -3   9  17    6.54    5.84
  -2  -9  17   13.36    9.45
  -2   9  17   21.19    8.02
  -2   9  17   26.34    8.37
   2   9 -17   34.74   11.80
  -1  -9  17  230.88   21.45
  -1   9  17  191.90   16.06
  -1   9  17  241.95   17.34
   1   9 -17  229.94   23.44
   0  -9  17   17.18    9.24
   0  -9 -17    4.63    5.67
   0  -9  17   11.88    5.67
   0   9  17    3.65    6.75
   0   9 -17    8.92    8.67
   0   9  17   17.22    7.05
   1  -9  17   12.35    4.87
   1  -9  17    6.25    7.63
  -1   9 -17    6.14    9.68
   1   9  17   13.38    6.52
   1   9  17   15.31    8.05
   2  -9  17   20.00    9.71
  -2  -9 -17   -1.78    7.25
   2   9  17   26.60    8.80
  -2   9 -17   16.82   10.89
   2   9  17    3.42   15.93
  -3  -9 -17  220.74   20.84
   3  -9  17  269.41   24.32
  -3   9 -17  193.59   27.01
   3   9  17  237.21   20.33
  -4  -9 -17   -4.13    9.66
   4  -9  17    8.61    9.28
   4   9  17  -12.25    6.60
  -4   9 -17   24.15   13.12
  -5  10  17   10.86    6.37
   5  10 -17   -9.68    7.96
  -4 -10  17   25.87   11.97
  -4  10  17    3.11    6.64
   4  10 -17    0.55   10.14
  -3 -10  17    6.09    9.09
   3  10 -17    9.60    9.76
  -3  10  17    0.19    5.12
  -2 -10  17  -10.30    5.98
  -2  10  17   -0.99    4.89
   2  10 -17    3.64    7.70
  -1 -10  17    8.54    7.04
  -1  10  17    0.24    4.97
  -1  10  17    5.13    5.76
   1  10 -17   -9.32    5.83
   0 -10  17    5.08    5.13
   0 -10  17    0.51    6.79
   0  10  17   11.64    6.28
   0  10 -17   -8.36    6.38
   1 -10  17   -3.36    4.11
   1 -10  17    2.77    7.27
   1  10  17   -4.48    5.69
  -1  10 -17   -1.71    8.83
   1  10  17    4.12    5.76
   2 -10  17    4.19    8.02
   2  10  17  -18.00    9.47
  -2  10 -17    9.11   10.77
   2  10  17    5.09    7.24
   3 -10  17  -16.25    6.99
  -3 -10 -17  -20.07    7.84
   3  10  17    0.02    6.17
  -3  10 -17  -15.54    6.48
  -4 -10 -17  -26.64    9.89
   4 -10  17  -11.72    6.24
   4  10  17   16.08    9.36
  -4 -11  17   10.52   10.41
   4  11 -17   15.86   11.35
  -4  11  17   22.72    7.47
  -3 -11  17   18.92    9.60
   3  11 -17   13.46   11.23
  -3  11  17   17.47    6.14
  -2 -11  17    1.38    6.89
   2  11 -17   -7.48    9.36
  -2  11  17   13.36    5.92
  -1 -11  17  154.33   15.55
  -1 -11  17  143.71   20.45
  -1  11  17  135.92   12.76
  -1  11  17  175.05   14.57
   1  11 -17  159.18   23.15
   0 -11  17   18.89   10.59
   0 -11  17    8.68    5.21
   0  11  17   10.75    6.53
   0  11  17   -6.99    5.41
   0  11 -17    3.72    7.34
   1 -11  17  -12.28    3.80
   1 -11  17   11.90    6.83
  -1  11 -17    2.48    9.85
   1  11  17   -6.12    4.46
   1  11  17    1.65    6.87
   2 -11  17   -0.63    8.26
  -2 -11 -17  -21.59    8.00
  -2  11 -17    2.64    8.50
   2  11  17   15.57    7.49
   3 -11  17  158.64   21.41
  -3  11 -17  112.06   21.44
   3  11  17  139.56   17.59
  -3 -12  17  117.89   18.71
   3  12 -17  169.08   24.82
  -3  12  17  135.72   13.40
  -2 -12  17    3.55    8.31
   2  12 -17   -2.66    9.57
  -2  12  17    0.87    4.59
  -1 -12  17   -6.64    6.60
  -1 -12  17   -1.21    6.10
  -1  12  17   12.72    5.53
   1  12 -17    4.71    8.22
  -1  12  17   -1.45    5.03
   0 -12  17   23.67   10.43
   0 -12  17    9.63    6.74
   0  12  17    3.61    5.61
   0  12 -17   11.20    9.05
   1 -12  17  133.61   12.54
   1 -12  17  121.52   18.47
   1  12  17   74.60   12.74
  -1  12 -17  135.22   21.78
   1  12  17  152.26   15.20
   2 -12  17  -16.54    6.92
   2  12  17    6.85    5.75
  -2  12 -17   -8.17    9.48
  -2 -13  17   17.33    9.27
  -2 -13  17   11.39    8.54
   2  13 -17    4.80    9.48
  -2  13  17   13.51    6.00
  -1 -13  17    0.69    7.22
  -1 -13  17  -11.27    5.89
  -1  13  17   11.82    5.72
   1  13 -17  -11.76    8.13
   0 -13  17   32.04    9.10
   0 -13  17   45.51   13.16
   0  13  17   39.93    8.04
   0  13 -17   43.01   14.30
   0  13  17   29.49    7.49
   1 -13  17    2.46    5.78
   1 -13  17    7.07    9.64
   1  13  17   19.45    7.66
  -6   0  18  160.24   22.23
  -5   0  18   -7.26    6.87
   5   0 -18   12.19    8.92
  -4   0  18  108.58   17.29
   4   0 -18  118.28   17.56
   3   0 -18   27.55   10.17
  -3   0  18   48.80   12.83
  -2   0  18  278.56   22.41
   2   0 -18  316.68   23.84
  -1   0  18    7.27    7.43
  -1   0  18  -11.66    6.46
   1   0 -18    0.31    6.35
   0   0 -18   56.92   12.92
   0   0  18   47.83    7.15
   0   0  18   78.87   14.13
   1   0  18   12.59    8.78
  -1   0 -18    7.66    7.92
   2   0  18  408.40   28.37
  -3   0 -18   -4.78    8.04
   3   0  18   -2.71    6.45
  -4   0 -18   10.53   10.62
   4   0  18   34.06   12.34
   5   0  18   -5.62    7.29
  -5   0 -18   -8.94    8.45
  -6  -1  18   46.34   12.53
   6  -1 -18   28.34   10.26
  -6   1  18   16.74    9.87
   6   1 -18   17.02   10.47
  -5  -1  18   -5.14    5.67
   5  -1 -18    4.45    7.85
  -5   1  18   12.37    9.00
   4  -1 -18   47.57   11.89
  -4  -1  18   43.92   10.77
  -4   1  18   47.36   12.06
   4   1 -18   51.32   13.01
  -3  -1  18   -8.92    5.82
   3  -1 -18    9.29    7.68
  -3   1  18    8.31    7.24
   3   1 -18    3.24    7.40
  -2  -1  18   23.31    9.63
   2  -1 -18   13.77    8.14
   2   1 -18   12.22    8.54
  -2   1  18   16.40    8.29
  -1  -1  18    0.84    6.54
   1  -1 -18   11.32    8.15
  -1   1  18    6.43    7.26
   1   1 -18    2.10    7.29
  -1   1  18   13.56    6.74
   0  -1 -18   51.77   12.61
   0  -1  18   37.78    5.98
   0  -1  18   49.11   11.65
   0   1 -18   33.30   11.44
   0   1  18   69.24   13.48
   0   1  18   38.56    6.78
   1  -1  18   17.13    8.89
  -1  -1 -18   12.93    8.48
   1   1  18    3.90    7.22
  -1   1 -18   12.14    9.07
   2  -1  18   15.74    8.15
  -2  -1 -18   11.97    8.76
  -2   1 -18   23.57   10.13
   2   1  18   31.93   10.54
   3  -1  18   16.24    9.96
  -3  -1 -18   -7.53    6.39
  -3   1 -18    5.07    8.44
   3   1  18   -4.81    7.29
  -4  -1 -18   61.98   14.52
   4  -1  18   42.89   13.08
   4   1  18   33.44   12.46
  -4   1 -18   51.98   15.11
   5  -1  18   -5.97    8.49
  -5  -1 -18   -5.29    7.85
  -5   1 -18   20.59   12.00
   5   1  18   -8.62    6.81
   6  -2 -18   22.40    9.64
  -6  -2  18   39.78   12.37
   6   2 -18   19.63   11.06
   5  -2 -18   26.14   10.24
  -5  -2  18   53.99   14.07
   5   2 -18   43.63   12.52
  -5   2  18   51.37   11.63
   4  -2 -18   47.04   11.25
  -4  -2  18   51.80   12.87
  -4   2  18   69.37   13.99
   4   2 -18   56.72   14.16
   3  -2 -18   -4.45    6.03
  -3  -2  18   -2.71    5.62
   3   2 -18    1.09    7.87
  -3   2  18    1.79    6.40
  -2  -2  18   45.77   11.86
   2  -2 -18   32.26    9.43
   2   2 -18   43.88   11.24
  -2   2  18   32.56    9.70
  -1  -2  18   18.45    8.79
   1  -2 -18   26.96    9.25
  -1   2  18   15.37    8.10
  -1   2  18   33.04   10.63
   1   2 -18   29.99   10.61
   0  -2  18   33.02    5.83
   0  -2  18   53.34   12.39
   0  -2 -18   44.17   10.74
   0   2 -18   77.60   21.85
   0   2  18   69.72   13.06
   0   2  18   40.48    6.88
   1  -2  18    7.76    7.92
  -1  -2 -18   -8.85    5.42
   1   2  18    8.79    8.40
  -1   2 -18    0.87    8.30
   2  -2  18   78.43   15.66
  -2  -2 -18   62.35   13.59
   2   2  18   67.33   13.52
  -2   2 -18   81.89   15.46
   3  -2  18    1.07    6.41
  -3  -2 -18    6.74   10.55
  -3   2 -18   19.46   10.71
   3   2  18   20.02   10.01
  -4  -2 -18   -4.21    8.34
   4  -2  18    6.23    9.49
  -4   2 -18    0.41    8.31
   4   2  18    7.27    9.19
   5  -2  18   -2.35    9.29
  -5  -2 -18    7.58   10.65
   5   2  18   -0.10    8.62
  -5   2 -18   -2.62    9.76
  -6  -3  18   40.79   11.90
   6  -3 -18   75.75   13.74
   6   3 -18   52.70   14.98
   5  -3 -18   13.79    9.00
  -5  -3  18   20.88   10.05
  -5   3  18   27.42    9.10
   5   3 -18   27.94   11.66
   4  -3 -18  117.47   15.77
  -4  -3  18  104.03   17.30
   4   3 -18  107.83   17.48
  -4   3  18  111.72   16.60
   3  -3 -18   -5.05    6.31
  -3  -3  18   -7.26    5.59
  -3   3  18   11.41    7.78
   3   3 -18   -1.36    6.92
  -2  -3  18   59.77   13.02
   2  -3 -18   52.67   10.64
  -2   3  18   69.01   13.03
  -2   3  18   60.90   15.28
   2   3 -18   88.23   16.06
   1  -3 -18    5.20    7.07
  -1  -3  18   12.72    8.34
   1   3 -18    6.16    8.08
  -1   3  18   21.64    9.15
  -1   3  18   -0.36    6.70
   0  -3  18  312.67   24.65
   0  -3 -18  264.21   21.28
   0  -3  18  269.77   13.74
   0   3  18  288.92   22.11
   0   3  18  237.95   15.80
   0   3 -18  300.44   24.83
  -1  -3 -18   10.28    7.66
   1  -3  18   -8.31    5.25
  -1   3 -18   -0.86    7.45
   1   3  18  -12.70    5.06
   2  -3  18   44.56   12.20
  -2  -3 -18   19.45    9.28
  -2   3 -18   42.10   12.90
   2   3  18   19.86   10.03
  -3  -3 -18    0.41    6.77
   3  -3  18   -2.11    6.92
   3   3  18    1.50    8.11
  -3   3 -18   13.09   10.31
  -4  -3 -18  152.48   21.78
   4  -3  18  178.81   24.10
   4   3  18  231.79   23.42
  -4   3 -18  153.19   22.46
   5  -3  18   -3.65    8.66
  -5  -3 -18  -17.34    6.54
   5   3  18   -6.80    7.88
  -5   3 -18  -20.54    7.93
   6  -4 -18   11.54    9.60
  -6  -4  18   27.34   11.81
   6   4 -18   27.04   11.72
  -5  -4  18   88.93   16.26
   5  -4 -18   68.01   13.68
  -5   4  18   86.42   14.40
   5   4 -18   89.25   17.35
   4  -4 -18    8.03    7.26
  -4  -4  18   12.24    9.11
  -4   4  18   -5.44    5.98
   4   4 -18    3.87    7.79
  -3  -4  18   12.95    8.56
   3  -4 -18   -1.56    5.90
  -3   4  18  -21.90    7.15
  -3   4  18   -3.76    4.84
   3   4 -18   -4.81    6.66
  -2  -4  18   10.32    8.41
   2  -4 -18    0.25    6.76
  -2   4  18  -11.31    7.17
  -2   4  18    3.47    7.66
   2   4 -18    1.05    7.28
  -1  -4  18  107.67   16.99
   1  -4 -18  102.08   14.29
  -1   4  18   98.27   15.54
   1   4 -18   94.12   16.89
  -1   4  18  106.24   15.73
   0  -4  18   -3.22    5.81
   0  -4 -18    6.95    7.42
   0   4  18   16.59    9.37
   0   4 -18    4.57    7.72
   0   4  18   -3.97    6.14
   1  -4  18   26.35   10.48
  -1  -4 -18   10.00    8.24
  -1   4 -18    2.42    8.66
   1   4  18    9.30    7.86
   2  -4  18    8.74    8.96
  -2  -4 -18    2.09    7.18
   2   4  18   20.05    8.58
  -2   4 -18    6.54    8.61
   3  -4  18   63.59   15.06
  -3  -4 -18   46.78   12.53
  -3   4 -18   36.87   12.86
   3   4  18   78.21   15.18
   4  -4  18   22.53   10.99
  -4  -4 -18    2.95   11.28
  -4   4 -18    6.76   10.51
   4   4  18    7.38    9.33
  -5  -4 -18   31.33   11.90
  -5   4 -18   25.05   13.63
   5   4  18   16.61   11.05
   6  -5 -18   52.18   12.35
  -6  -5  18   17.66   10.37
   6   5 -18   34.63   13.32
   5  -5 -18    0.75    7.69
  -5  -5  18   -1.59    7.70
  -5   5  18   12.31    8.02
   5   5 -18   -3.64    8.21
  -4  -5  18   54.40   13.54
   4  -5 -18   52.31   16.53
   4   5 -18   53.93   14.27
  -4   5  18   50.81   12.07
  -3  -5  18   73.73   14.86
   3   5 -18   84.44   16.49
  -3   5  18   66.72   12.93
  -2  -5  18   28.27   10.58
   2  -5 -18   26.86    8.57
   2   5 -18   36.57   11.89
   1  -5 -18    4.01    6.38
  -1  -5  18   -9.42    5.62
  -1   5  18  -10.96    7.70
   1   5 -18   -1.02    7.19
   0  -5  18   40.61   11.43
   0  -5 -18   36.23   10.20
   0   5  18   33.32   10.06
   0   5  18   39.88   10.87
   0   5  18   23.50    7.65
   0   5 -18   59.22   14.44
  -1  -5 -18   87.19   14.09
   1  -5  18  135.00   19.80
   1   5  18  107.79   16.17
  -1   5 -18  105.88   18.79
  -2  -5 -18   16.69    8.64
   2  -5  18   13.72   10.11
   2   5  18   35.23   11.09
  -2   5 -18    6.16    7.91
  -3  -5 -18    3.72    8.42
   3  -5  18    5.90    9.18
  -3   5 -18   29.64   10.74
   3   5  18   -9.11    6.39
  -4  -5 -18   12.37   10.33
   4  -5  18   33.01   11.93
   4   5  18   31.21   10.63
  -4   5 -18   21.78   13.22
   5  -5  18   54.41   15.72
  -5  -5 -18   35.55   13.39
   5   5  18   47.70   13.54
  -5   5 -18   39.64   15.41
   6  -6 -18   35.92   11.83
  -6  -6  18   56.47   23.45
   6   6 -18   37.51   14.38
   5  -6 -18    6.32    7.99
  -5  -6  18   15.62    9.82
  -5   6  18   -1.31    6.62
   5   6 -18    4.64   10.80
  -4  -6  18   21.39   10.55
   4  -6 -18   24.45    8.13
  -4   6  18   32.07    8.89
   4   6 -18    9.89    8.25
   3  -6 -18   10.24    6.67
  -3  -6  18   24.16   10.27
   3   6 -18    6.70    8.23
  -2  -6  18   51.79   13.21
   2  -6 -18   32.34    8.28
   2   6 -18   41.62   13.24
  -2   6  18   30.34    9.93
  -2   6  18   39.63   11.26
  -1  -6  18   18.73    9.55
   1  -6 -18    1.47    6.08
  -1   6  18   10.56    9.16
  -1   6  18    7.89    7.76
   1   6 -18    8.93    9.74
   0  -6 -18   11.80    7.25
   0  -6  18   23.96   10.30
   0   6  18   25.60   12.08
   0   6 -18   39.97   12.90
   0   6  18   17.56    8.45
  -1  -6 -18  -12.88    5.79
   1  -6  18   -7.48    5.83
   1   6  18   -4.78    8.52
   1   6  18    7.00    6.83
  -1   6 -18   -6.76    6.66
  -2  -6 -18   41.31   10.48
   2  -6  18   51.35   12.75
  -2   6 -18   47.14   13.88
   2   6  18   47.63   11.74
  -3  -6 -18    8.84    9.47
   3  -6  18    8.44    9.02
  -3   6 -18   17.28   11.76
   3   6  18   -3.72    6.73
   4  -6  18    7.87    9.69
  -4  -6 -18   27.25   12.70
   4   6  18   21.41   10.71
  -4   6 -18   10.04   10.59
   5  -7 -18  -10.60    7.75
  -5  -7  18  -10.49    7.39
   5   7 -18  -11.12    9.21
  -5   7  18   -2.33    6.35
   4  -7 -18  -10.62    5.86
  -4  -7  18   25.56   10.51
  -4   7  18    7.94    7.39
   4   7 -18    3.84    9.78
  -3  -7  18  276.37   24.40
  -3   7  18  219.17   19.21
   3   7 -18  187.44   24.44
  -2  -7  18    8.86    7.33
  -2   7  18   -8.24    6.55
   2   7 -18    3.98    7.60
  -2   7  18    9.01    6.85
   1  -7 -18   18.66    8.07
  -1  -7  18   26.23   10.28
  -1   7  18   23.30    8.06
  -1   7  18   11.75    6.81
   1   7 -18    9.76    9.28
   0  -7  18    3.51    4.16
   0  -7  18   12.27    8.69
   0  -7 -18   -3.09    5.76
   0   7 -18   12.52    8.72
   0   7  18  -21.63    7.15
   1  -7  18  191.27   20.45
  -1  -7 -18  170.54   17.40
   1   7  18  203.70   18.41
   1   7  18  167.57   18.53
  -1   7 -18  176.47   24.50
  -2  -7 -18   -0.85    7.53
   2  -7  18   -0.78    7.97
   2   7  18   -2.69    6.37
  -2   7 -18   12.79   10.29
   3  -7  18   24.67   11.51
  -3  -7 -18   12.51   10.13
   3   7  18   22.02    9.59
  -3   7 -18   -3.37    9.48
   4  -7  18   -4.84    7.81
  -4  -7 -18   -0.51    8.21
   4   7  18   13.18    8.63
  -4   7 -18   -9.14    9.63
  -5   8  18  118.43   16.10
   5   8 -18  115.08   20.24
  -4  -8  18   21.98   10.67
  -4   8  18    5.97   11.20
   4   8 -18   42.50   13.69
  -3  -8  18    7.16    7.95
   3  -8 -18  -13.72    4.66
   3   8 -18   -5.94    7.18
  -3   8  18   -7.62    6.08
   2  -8 -18   -3.13    6.13
  -2  -8  18    1.99    8.67
  -2   8  18   -4.14    6.00
  -2   8  18   17.95    7.17
   2   8 -18   19.51   10.50
  -1  -8  18   81.57   15.94
  -1   8  18   95.68   13.63
   1   8 -18   90.56   18.01
  -1   8  18   86.70   13.14
   0  -8  18   17.06    5.44
   0  -8  18   14.50   10.16
   0   8  18   17.76    8.35
   0   8  18   24.32    8.95
   0   8 -18   14.91   10.61
  -1  -8 -18    4.86    7.23
   1  -8  18   11.34    8.26
   1   8  18    7.77    6.85
   1   8  18   -0.66   10.23
  -1   8 -18    8.60    9.17
  -2  -8 -18    4.13    8.87
   2  -8  18   -7.57    7.18
   2   8  18    7.97    7.16
  -2   8 -18   -5.63    7.32
   2   8  18  -24.04    9.91
  -3  -8 -18   65.21   14.18
   3  -8  18   67.52   15.26
   3   8  18  103.66   17.14
  -3   8 -18   83.48   19.38
  -4  -8 -18  -11.57    9.31
   4   8  18   -7.60    7.15
  -4   8 -18    0.03   10.27
  -4  -9  18   17.72    9.81
  -4   9  18    3.59   10.21
   4   9 -18   29.45   12.61
  -3  -9  18   30.61   11.55
  -3   9  18   20.81    9.39
   3   9 -18   31.25   12.29
  -2  -9  18    6.02    8.54
   2   9 -18    7.38    9.13
  -2   9  18    1.10    5.38
  -2   9  18   -0.58    6.04
  -1  -9  18   11.57    9.01
  -1   9  18   14.40    7.69
  -1   9  18    4.21    6.02
   1   9 -18    9.68    9.35
   0  -9  18   10.03    9.63
   0  -9 -18   -4.41    5.74
   0  -9  18   14.64    5.46
   0   9  18    8.09    6.41
   0   9  18   16.06    7.44
   0   9 -18   12.64   10.26
   1  -9  18   24.64    4.94
   1  -9  18   34.65   11.26
   1   9  18   26.70    8.79
  -1   9 -18    8.46   11.02
   1   9  18   18.20   10.03
   2  -9  18    0.95    8.02
  -2  -9 -18    2.98    8.21
   2   9  18    0.27    6.91
  -2   9 -18   -3.09    8.90
  -3  -9 -18  -15.70    9.42
   3  -9  18   13.62    9.07
  -3   9 -18    0.31    9.32
   3   9  18   33.55   10.58
   4  10 -18   33.28   13.58
  -4  10  18   16.48    7.47
  -3 -10  18   14.11   10.89
  -3  10  18   12.04    7.43
   3  10 -18   27.69   12.82
  -2 -10  18   -4.71    8.01
  -2  10  18   18.48    7.03
   2  10 -18   15.33    9.46
  -1 -10  18  258.48   18.51
  -1 -10  18  253.69   24.10
  -1  10  18  254.03   18.63
   1  10 -18  246.84   25.84
  -1  10  18  213.89   17.42
   0 -10  18    3.20    4.64
   0 -10  18   -4.26    6.12
   0  10  18   -4.61    5.94
   0  10 -18   -1.49    8.80
   0  10  18   -3.50    6.52
   1 -10  18   27.54    5.99
   1 -10  18   37.13   12.17
   1  10  18   23.69   14.54
  -1  10 -18    5.39    9.89
   1  10  18   13.31    7.59
   2 -10  18   -0.89    7.14
   2  10  18   -1.03    7.36
  -2  10 -18   19.57   11.16
   3 -10  18  195.16   28.60
  -3 -10 -18  142.44   19.71
   3  10  18  182.16   19.25
  -3  10 -18  200.37   32.09
  -3 -11  18   79.43   18.94
   3  11 -18   66.63   16.96
  -3  11  18   55.91   10.63
  -2 -11  18   16.81    9.57
  -2  11  18    5.61    5.77
   2  11 -18  -11.64    7.55
  -1 -11  18   -0.64    7.78
  -1 -11  18    0.93    5.91
  -1  11  18   15.83    7.35
  -1  11  18    0.07    5.43
   1  11 -18   26.59   12.09
   0 -11  18    0.28    5.79
   0 -11  18   10.08    8.96
   0  11  18   -3.88    6.52
   0  11 -18    8.69   10.26
   0  11  18    9.75    6.86
   1 -11  18   71.62   15.54
   1 -11  18   51.83    8.99
   1  11  18   64.51   11.83
  -1  11 -18   57.12   15.91
   2 -11  18    1.12    8.05
   2  11  18   10.72    7.15
  -2  11 -18  -14.69    8.37
  -2 -12  18   21.98   12.07
   2  12 -18    6.51   10.44
  -2  12  18   22.21    6.92
  -1 -12  18   63.10   15.25
  -1 -12  18   71.56   12.81
  -1  12  18   42.55    9.08
  -1  12  18   51.42    8.61
   1  12 -18   70.12   17.10
   0 -12  18   12.82    5.96
   0 -12  18   -8.89    7.33
   0  12  18    9.98    6.59
   0  12 -18    7.06   10.34
   1 -12  18   -9.29    7.18
   1 -12  18   -4.55    4.39
   6   0 -19   13.30    8.95
  -6   0  19   24.32   10.62
   5   0 -19   -5.02    8.18
  -5   0  19   -8.69    6.61
   4   0 -19   15.31    9.73
  -4   0  19   -4.19    7.42
  -3   0  19    1.18    7.97
   3   0 -19  -10.04    6.30
  -2   0  19  -10.18    5.76
   2   0 -19   -3.55    6.18
  -1   0  19   18.54    6.95
  -1   0  19   -8.24    4.75
   1   0 -19   -3.61    5.82
   0   0 -19    1.14    7.45
   0   0  19    7.12    7.06
   0   0  19   -5.59    3.53
  -1   0 -19    4.56    7.51
   1   0  19    0.03    5.67
   2   0  19  -10.00    7.19
  -2   0 -19   12.63    8.97
   3   0  19    4.02    8.66
  -3   0 -19    2.81    9.30
   4   0  19   -0.40    8.58
  -4   0 -19    2.84    9.63
   6  -1 -19  115.83   18.85
  -6  -1  19  181.24   23.81
  -6   1  19  157.81   21.12
   6   1 -19  152.66   21.86
  -5  -1  19   -2.46    5.98
   5  -1 -19  -10.28    6.74
   5   1 -19    0.74    8.29
  -5   1  19   -9.03    6.65
  -4  -1  19   21.86    9.70
   4  -1 -19    1.98    7.46
  -4   1  19   10.29    8.93
   4   1 -19   14.05   15.45
  -3  -1  19  -12.75    5.33
   3  -1 -19    1.37    7.26
  -3   1  19    4.44    7.20
   3   1 -19    0.05    7.29
  -2  -1  19  274.84   23.44
   2  -1 -19  313.45   24.32
   2   1 -19  304.71   24.94
  -2   1  19  267.96   22.71
  -1  -1  19   -0.64    8.31
   1  -1 -19   -8.32    5.66
  -1  -1  19   10.07    7.85
  -1   1  19   -0.47    6.23
  -1   1  19    2.51    7.49
   1   1 -19    2.83    6.84
   0  -1  19    6.67    3.67
   0  -1  19   -2.13    6.40
   0  -1 -19    6.16    7.18
   0   1  19   -3.94    3.87
   0   1  19    7.35    8.17
   0   1 -19   -4.16    8.01
  -1  -1 -19    8.57    7.97
   1  -1  19    4.68    8.31
   1   1  19    0.11    6.51
  -1   1 -19    6.96    8.25
  -2  -1 -19  235.11   38.55
   2  -1  19  256.33   23.96
   2   1  19  251.92   22.91
  -2   1 -19  230.80   23.45
   3  -1  19    9.34    8.31
  -3  -1 -19    4.23    8.29
  -3   1 -19   12.51   11.31
   3   1  19   -0.51    7.98
   4  -1  19   -0.70    8.71
  -4  -1 -19   11.75   10.24
   4   1  19  -16.04    6.55
  -4   1 -19   21.50   12.20
   6  -2 -19   -7.89    8.91
  -6  -2  19    7.86    8.74
   6   2 -19   26.54   11.52
  -6   2  19  -11.76    7.53
   5  -2 -19   -9.46    6.99
  -5  -2  19    0.17    6.59
  -5   2  19   -1.04    8.05
   5   2 -19   -3.00    8.46
   4  -2 -19  181.71   18.88
  -4  -2  19  194.96   23.80
   4   2 -19  172.65   22.34
  -4   2  19  180.35   21.92
  -3  -2  19    2.63    6.90
   3  -2 -19   12.74    8.76
  -3   2  19    2.19    7.22
   3   2 -19  -13.22    5.84
  -2  -2  19    3.84    7.41
   2  -2 -19   -5.72    6.31
   2   2 -19    7.47    8.32
  -2   2  19   -1.53    6.99
   1  -2 -19    0.25    6.88
  -1  -2  19   40.64   12.83
  -1  -2  19   -0.56    7.62
   1   2 -19   -3.97    7.93
  -1   2  19    4.31    6.96
  -1   2  19  -14.04    6.25
   0  -2 -19  181.29   19.07
   0  -2  19  204.36   10.92
   0  -2  19  197.85   20.11
   0   2  19  224.89   20.95
   0   2 -19  210.05   21.83
   0   2  19  165.42   12.48
  -1  -2 -19    0.13    7.24
   1  -2  19   12.16    8.76
   1   2  19   -2.80    6.49
  -1   2 -19    5.91    8.14
  -2  -2 -19    9.33    8.39
   2  -2  19   14.17    9.63
   2   2  19    6.33    7.48
  -2   2 -19   -5.23    6.75
  -3  -2 -19   -5.03    7.55
   3  -2  19    2.16    8.86
  -3   2 -19    0.04    8.89
   3   2  19    1.17    8.60
   4  -2  19   87.73   18.06
  -4  -2 -19  105.11   19.17
   4   2  19  130.51   21.03
  -4   2 -19  118.62   20.75
  -6  -3  19    4.98   10.14
   6  -3 -19  -23.57    7.08
  -6   3  19  -10.49    8.12
   6   3 -19   -3.24    8.23
   5  -3 -19   57.31   12.95
  -5  -3  19   34.62   12.16
   5   3 -19   51.33   14.99
  -5   3  19   41.80   11.60
  -4  -3  19   -2.37    7.43
   4  -3 -19   -4.86    6.83
  -4   3  19  -12.23    4.31
   4   3 -19   -5.66    6.84
  -3  -3  19   14.89    8.46
   3  -3 -19    3.87    7.22
   3   3 -19   34.84   11.66
  -3   3  19   12.31    7.75
   2  -3 -19   -2.55    6.14
  -2  -3  19   11.55    8.50
   2   3 -19   -5.20    7.00
  -2   3  19   -3.10    6.27
  -1  -3  19   47.82   12.41
   1  -3 -19   26.65    8.97
   1   3 -19   29.16   10.64
  -1   3  19   18.52    8.85
   0  -3 -19    8.50    7.62
   0  -3  19   14.51    9.43
   0   3 -19   -5.00    6.95
   0   3  19   -0.43    5.28
   0   3  19  -13.77    5.57
  -1  -3 -19   21.86    9.61
   1  -3  19   30.52   11.24
   1   3  19   44.50   12.55
  -1   3 -19   50.84   13.05
  -2  -3 -19   23.99   10.07
   2  -3  19   26.08    9.42
   2   3  19   23.58   11.08
  -3  -3 -19   25.98   13.23
   3  -3  19   23.35   11.94
  -3   3 -19   31.71   12.05
   3   3  19   17.32   10.45
   4  -3  19   -9.06    7.21
  -4  -3 -19   -9.85    7.24
  -4   3 -19   -6.91    8.38
   4   3  19    3.66    9.19
   5  -4 -19   -4.75    7.94
  -5  -4  19   -6.43    7.37
  -5   4  19    0.41    6.87
   5   4 -19    8.85    9.64
   4  -4 -19  125.58   17.37
  -4  -4  19  105.52   18.29
  -4   4  19  134.75   19.44
   4   4 -19  124.30   20.12
  -3  -4  19   12.39    8.93
   3  -4 -19    1.05    7.38
  -3   4  19    1.49    6.33
   3   4 -19   11.88    8.49
  -2  -4  19   12.31    7.91
   2  -4 -19   -7.93    6.21
   2   4 -19   -6.23    6.55
  -2   4  19    1.03    6.11
  -1  -4  19    4.73    6.74
   1  -4 -19    3.03    7.09
   1   4 -19   10.35    8.23
  -1   4  19    9.62    7.07
   0  -4  19  173.57   10.71
   0  -4 -19  196.58   18.72
   0  -4  19  183.29   22.16
   0   4 -19  216.59   22.00
   0   4  19  124.38   17.39
   0   4  19  183.60   18.68
   1  -4  19    6.40    8.19
  -1  -4 -19   15.76    8.99
  -1   4 -19    7.51    8.38
   1   4  19   10.11    7.81
  -2  -4 -19   -2.26    7.23
   2  -4  19   -8.11    7.69
  -2   4 -19   -1.64    8.72
   2   4  19  -10.99    6.65
   3  -4  19   17.51   10.73
  -3  -4 -19   -1.05    9.02
  -3   4 -19   24.68   11.53
   3   4  19    8.70    8.05
   4  -4  19   93.20   17.61
  -4  -4 -19  119.99   20.35
   4   4  19  167.94   22.59
  -4   4 -19  124.92   22.06
  -5  -5  19   83.08   17.30
   5  -5 -19   38.53   12.15
   5   5 -19   69.15   16.27
  -5   5  19   46.10   11.54
   4  -5 -19    4.85    9.02
  -4  -5  19   -5.18    7.10
   4   5 -19   10.59   10.54
  -4   5  19   16.61    8.61
   3  -5 -19   15.41    8.30
  -3  -5  19   16.36    9.48
   3   5 -19   23.89   10.12
  -3   5  19   10.53    8.11
  -2  -5  19   36.91   10.36
   2  -5 -19   39.96    9.77
   2   5 -19   57.10   15.35
  -2   5  19   50.46   12.14
  -2   5  19   47.95   11.98
   1  -5 -19   36.10    9.94
  -1  -5  19   46.71   12.83
   1   5 -19   68.96   15.15
  -1   5  19   45.37   11.21
  -1   5  19   55.00   13.80
   0  -5  19    4.79    7.95
   0   5  19    0.61    6.23
   0   5  19  -15.70    6.24
   0   5 -19   16.76   10.39
  -1  -5 -19   22.07    9.51
   1  -5  19   26.07   11.91
  -1   5 -19   39.03   14.31
   1   5  19   26.13    9.64
   2  -5  19   60.65   13.89
  -2  -5 -19   48.95   12.18
   2   5  19   52.52   12.96
  -2   5 -19   62.68   13.83
  -3  -5 -19   38.27   11.93
   3  -5  19   34.55   11.89
   3   5  19   40.54   12.49
  -3   5 -19   26.02   12.12
  -4  -5 -19  -26.99   19.08
   4   5  19   -3.63    8.30
  -4   5 -19   -4.66    9.14
  -5  -6  19   18.74   13.84
   5  -6 -19   -0.22    8.65
  -5   6  19   33.49    9.84
   5   6 -19    4.64   11.02
   4  -6 -19   -0.12    7.87
  -4  -6  19   15.43    9.89
   4   6 -19    5.85    9.46
  -4   6  19   17.56    8.18
  -3  -6  19  174.17   22.82
   3  -6 -19  145.08   14.87
  -3   6  19  147.76   15.86
   3   6 -19  139.79   22.10
  -2  -6  19    3.46    8.51
   2  -6 -19    0.84    7.06
  -2   6  19   -6.11   16.58
  -2   6  19   -0.80    5.97
   2   6 -19    0.73    7.81
  -1  -6  19   52.96   13.68
  -1   6  19   55.59   11.97
   1   6 -19   42.61   13.92
  -1   6  19   35.72   11.89
   0  -6  19    7.17    7.66
   0  -6  19    0.36    3.69
   0  -6 -19    1.67    6.59
   0   6  19   24.34   10.52
   0   6  19    2.24    6.52
   0   6 -19    5.08    8.94
   1  -6  19  118.12   19.45
  -1  -6 -19   73.64   13.63
   1   6  19   83.90   14.48
  -1   6 -19   97.39   18.18
  -2  -6 -19   -2.07    8.69
   2  -6  19    6.62    8.67
  -2   6 -19   13.47    9.60
   2   6  19    0.66    6.13
  -3  -6 -19   56.82   13.46
   3  -6  19   61.23   15.32
  -3   6 -19  108.71   20.05
   3   6  19   77.76   15.44
  -4  -6 -19   -4.31    9.83
   4  -6  19   12.39   13.13
  -4   6 -19   -3.10   11.37
   4   6  19   -0.18    7.58
  -5  -7  19   18.85   12.50
   5   7 -19    6.27    9.78
  -5   7  19   14.36    8.47
   4  -7 -19   -8.88    7.14
  -4  -7  19   -5.14    8.13
   4   7 -19   -0.43    8.89
  -4   7  19    3.84    8.00
  -3  -7  19   10.04    9.82
  -3   7  19    7.45    7.82
   3   7 -19  -14.66    6.53
  -2  -7  19   43.49   12.03
   2   7 -19   38.08   13.26
  -2   7  19   45.85   10.98
  -2   7  19   47.23   12.65
   1  -7 -19   -5.43    5.80
  -1  -7  19   -1.79    6.56
  -1   7  19    2.60    6.08
   1   7 -19    4.70    7.92
  -1   7  19   -0.98    9.36
   0  -7  19   -3.08    7.12
   0  -7  19   -2.03    3.68
   0  -7 -19  -11.64    6.07
   0   7  19   -2.68    6.51
   0   7  19    1.76    9.33
   0   7 -19    8.97    9.05
   1  -7  19   30.85   11.34
  -1  -7 -19  -15.36    7.18
   1   7  19  -12.67   10.84
  -1   7 -19    1.33    9.57
   1   7  19    6.64    7.73
  -2  -7 -19   13.19   10.71
   2  -7  19   40.90   13.73
   2   7  19   33.22   10.17
  -2   7 -19   18.98   12.37
  -3  -7 -19   10.29   11.10
   3  -7  19    4.07    9.74
   3   7  19  -13.11    5.64
  -3   7 -19   20.57   11.47
  -4  -8  19   -4.86    8.53
   4   8 -19   -0.78    8.93
  -4   8  19   18.15    8.06
  -3  -8  19   82.80   17.61
  -3   8  19   71.12   13.05
   3   8 -19   77.46   17.14
   2  -8 -19  -14.04    6.42
  -2  -8  19    0.70    7.73
  -2   8  19    1.09    7.94
   2   8 -19   -5.20    7.36
  -2   8  19  -18.36    6.48
   1  -8 -19   13.86    6.70
  -1  -8  19   34.82   10.65
  -1   8  19   47.72   10.50
   1   8 -19   35.89   13.13
  -1   8  19   20.17   10.99
   0  -8  19   16.59    5.58
   0  -8  19   21.86   10.58
   0   8 -19   -8.22    8.65
   0   8  19    8.95    7.23
   0   8  19   45.04   11.71
   1  -8  19   75.92   15.53
  -1  -8 -19   37.19   10.06
  -1   8 -19   62.16   16.43
   1   8  19   68.60   13.31
   2  -8  19   -7.25    8.53
  -2   8 -19   -8.78    7.06
   2   8  19    8.00    7.19
  -3  -8 -19    3.51   10.57
   3   8  19   77.63   14.28
  -3   8 -19   41.69   14.19
  -4  -9  19    4.30    9.04
   4   9 -19    9.83    9.33
  -4   9  19    0.76    6.68
  -3  -9  19   61.91   15.46
   3   9 -19   68.24   16.40
  -3   9  19   82.09   19.53
  -2  -9  19    0.69    7.84
  -2   9  19   10.04    8.23
   2   9 -19   -3.80    7.36
  -1  -9  19  135.50   20.24
   1   9 -19  107.28   19.22
  -1   9  19   90.69   13.59
   0  -9  19   -2.26    3.85
   0  -9 -19  -20.81    8.90
   0  -9  19   -3.76    7.47
   0   9 -19   -0.18    9.65
   0   9  19   -3.27    6.73
   1  -9  19   66.03   15.67
  -1   9 -19   64.02   16.62
   1   9  19   79.69   14.25
  -2  -9 -19  -13.95    9.26
   2  -9  19  -11.53    6.90
  -2   9 -19   11.17   13.04
   2   9  19   -5.56    6.36
  -3 -10  19    2.42    8.36
  -3  10  19   -4.02    7.40
   3  10 -19    4.73    9.74
  -2 -10  19  -11.71    7.09
   2  10 -19  -11.43    7.26
  -2  10  19    2.29    6.41
  -1 -10  19   -5.01    7.52
  -1 -10  19   -9.18    4.49
  -1  10  19  -11.70    9.08
   1  10 -19   16.19   11.36
   0 -10  19   -0.01    4.60
   0 -10  19   13.61    9.91
   0  10  19   10.76    6.90
   0  10 -19   -9.71    7.58
   1 -10  19    3.82    8.80
   1 -10  19    2.36    4.47
  -1  10 -19    3.31    9.08
   1  10  19   -0.20    5.77
   2 -10  19   -3.71   12.24
  -2  10 -19   -1.16   17.67
   2  10  19  -11.69    6.44
  -2 -11  19   -0.71   12.35
   2  11 -19   -9.26    9.18
  -2  11  19    9.51    6.93
  -1 -11  19  101.19   14.54
  -1  11  19  113.43   13.94
   1  11 -19  108.35   20.67
   0 -11  19    3.38    5.03
   0  11  19    3.57    7.75
   0  11 -19   -3.31    9.15
  -5   0  20   -3.48    7.86
   5   0 -20   13.83   10.28
  -4   0  20   -3.35    7.15
   4   0 -20   -3.02    8.29
  -3   0  20    5.50    9.30
  -2   0  20  323.10   26.47
  -1   0  20   -3.83    6.55
  -1   0  20    3.19    7.98
   1   0 -20    5.21    7.92
   0   0  20   14.02    4.39
   0   0 -20    1.11    8.64
   0   0  20    7.24    8.38
  -1   0 -20    6.48    8.54
   1   0  20   19.74    9.66
  -2   0 -20  172.90   22.32
   2   0  20  174.64   23.27
   3   0  20    0.93    8.54
  -3   0 -20    4.11    9.15
  -4   0 -20   21.03   12.42
   4   0  20   29.47   14.48
   5  -1 -20   -2.32    8.40
  -5  -1  20   -5.92    8.09
  -5   1  20    7.05    8.04
   5   1 -20   10.25    9.38
  -4  -1  20   56.58   14.48
   4  -1 -20   64.13   14.56
  -4   1  20   46.42   13.18
   4   1 -20   42.40   12.91
  -3  -1  20    6.79    7.21
   3  -1 -20   -6.16    6.87
   3   1 -20    5.94    9.42
  -3   1  20    1.38    7.34
  -2  -1  20   -1.72    6.48
   2  -1 -20    3.12    7.78
   2   1 -20    6.03    8.81
  -2   1  20   -8.58    5.79
   1  -1 -20  -11.50    7.28
  -1  -1  20    7.18    6.91
  -1  -1  20    9.80    7.94
  -1   1  20    9.99    7.11
   1   1 -20   -6.72    7.15
  -1   1  20    7.35    7.59
   0  -1  20   44.99    5.67
   0  -1 -20   51.63   12.95
   0  -1  20   38.46   12.55
   0   1  20   41.59    6.61
   0   1 -20   60.52   14.72
   0   1  20   51.87   12.70
  -1  -1 -20   11.06    9.10
   1  -1  20   11.57    9.20
   1   1  20    7.33    8.10
  -1   1 -20   26.14   11.26
  -2  -1 -20    5.16    9.26
  -2   1 -20    2.92    7.66
   2   1  20   -4.42    6.60
  -3  -1 -20    5.72    9.88
   3  -1  20  -12.30    6.47
   3   1  20   -5.66    9.29
  -3   1 -20   -5.70    9.40
  -4  -1 -20   23.95   11.72
  -4   1 -20   29.84   13.06
   4   1  20    9.56   10.89
  -5  -2  20    4.15    8.08
   5  -2 -20   14.67    9.36
  -5   2  20   -4.43    6.85
   5   2 -20   -6.25    9.26
  -4  -2  20   -4.74    7.23
   4  -2 -20    8.96    8.13
  -4   2  20   -5.56    7.32
   4   2 -20    2.89    9.47
   3  -2 -20   -0.03    7.96
  -3  -2  20    8.88    8.77
   3   2 -20    3.77    8.07
  -3   2  20   17.49    9.10
  -2  -2  20   46.79   12.08
   2  -2 -20   51.71   11.98
   2   2 -20   54.13   13.46
  -2   2  20   74.55   15.51
  -1  -2  20    9.83    7.18
   1  -2 -20   11.87    7.95
  -1  -2  20   -7.29    7.34
  -1   2  20   -9.59    6.50
   1   2 -20    2.16    7.57
   0  -2 -20   16.10    9.48
   0  -2  20    0.89    7.96
   0  -2  20   -0.98    4.79
   0   2  20   12.36    7.91
   0   2  20   12.88    5.89
   0   2 -20    2.28    8.11
  -1  -2 -20   23.07   10.46
   1  -2  20   42.09   12.75
   1   2  20   12.24    9.82
  -1   2 -20   22.88    9.64
   2  -2  20   51.00   13.80
  -2   2 -20   41.06   13.29
   2   2  20   88.56   17.59
   3  -2  20  -13.89    7.28
  -3  -2 -20    1.29    8.60
  -3   2 -20  -11.74    7.75
   3   2  20   12.24   10.00
  -4  -2 -20   -2.56   10.29
   4   2  20   32.26   11.93
  -4   2 -20   11.92   12.13
  -5  -3  20   12.44   10.36
   5  -3 -20  -15.14    7.26
  -5   3  20  -11.25    7.71
   5   3 -20   15.88   10.68
  -4  -3  20  162.08   22.99
   4  -3 -20  135.34   17.91
   4   3 -20  160.35   23.39
  -4   3  20  213.31   21.12
  -3  -3  20  -14.15    6.23
   3  -3 -20    2.21    8.06
   3   3 -20  -10.92    7.00
  -3   3  20   -5.21    7.00
   2  -3 -20   -5.08    7.08
  -2  -3  20   18.83    9.45
  -2   3  20   22.36   10.13
   2   3 -20   -9.53    7.31
   1  -3 -20    6.39    7.44
  -1  -3  20    6.74    7.37
  -1   3  20   14.29    8.32
   1   3 -20   -7.04    6.18
   0  -3  20  215.31   21.66
   0  -3 -20  179.61   18.97
   0   3 -20  172.49   22.81
   0   3  20  195.66   20.19
   0   3  20  164.80   13.26
   1  -3  20    8.52    8.69
  -1  -3 -20    7.53    8.86
   1   3  20   -1.25    6.64
  -1   3 -20   -1.84    6.76
  -2  -3 -20   13.09    9.99
   2  -3  20   25.39   10.47
   2   3  20   15.83    9.46
  -2   3 -20   10.69   10.44
  -3  -3 -20    4.22    9.38
   3  -3  20   10.54    9.93
  -3   3 -20  -14.26    8.83
   3   3  20    3.49    9.44
  -5  -4  20   22.37   12.40
   5  -4 -20   24.59   10.26
  -5   4  20   34.01   10.19
   5   4 -20   17.54   11.55
  -4  -4  20   -9.58    6.71
   4  -4 -20   10.74    9.45
   4   4 -20    1.83    9.65
  -4   4  20    9.63    9.53
  -3  -4  20   28.51   11.32
   3  -4 -20   43.55   11.66
   3   4 -20   46.50   14.56
  -3   4  20   40.33   10.82
   2  -4 -20   19.59    8.89
  -2  -4  20   26.90   11.15
  -2   4  20   27.28    9.62
   2   4 -20   29.85   11.77
   1  -4 -20   23.86    9.69
  -1  -4  20   47.77   13.83
   1   4 -20   38.17   13.35
  -1   4  20   46.06   11.31
   0  -4  20   -3.00    4.11
   0  -4 -20   -1.69    7.01
   0  -4  20   -3.61    7.51
   0   4 -20    0.08    8.21
   0   4  20   -0.79    7.34
   1  -4  20   83.07   16.39
  -1  -4 -20   52.05   12.83
   1   4  20   77.68   14.53
  -1   4 -20   80.62   16.56
   2  -4  20   12.19   10.72
  -2  -4 -20   -1.73    8.02
   2   4  20    6.33    9.18
  -2   4 -20   18.99   11.65
   3  -4  20    7.84   10.40
  -3  -4 -20    3.76    9.60
   3   4  20   11.57   10.41
  -3   4 -20    3.78   10.74
   4  -5 -20   50.45   12.91
  -4  -5  20   61.28   15.23
   4   5 -20   60.84   16.15
  -4   5  20   58.07   13.30
   3  -5 -20   -2.05    7.34
  -3  -5  20    9.13    7.84
  -3   5  20    8.83    9.36
   3   5 -20   22.92   11.70
  -2  -5  20   14.41   10.31
   2  -5 -20    9.60    7.85
  -2   5  20   31.92   10.80
   2   5 -20   28.96   12.10
   1  -5 -20   41.86   10.54
  -1  -5  20   82.43   15.93
  -1   5  20   47.23   11.79
   1   5 -20   68.40   16.03
   0  -5 -20   54.28   12.32
   0  -5  20   44.67   12.46
   0  -5  20   39.78    5.88
   0   5  20   49.57   12.28
   0   5 -20   39.64   13.87
   0   5  20   14.54    9.53
  -1  -5 -20   -3.57    7.05
   1  -5  20   -6.36    6.65
  -1   5 -20    1.12    8.88
   1   5  20   18.49    9.41
  -2  -5 -20   -2.26    8.16
   2  -5  20    6.92    9.83
   2   5  20   11.29    9.91
  -2   5 -20   11.55   10.38
  -3  -5 -20   37.03   12.73
  -3   5 -20   63.47   16.77
   3   5  20   40.50   13.43
   4  -6 -20   -9.91    8.74
  -4  -6  20    2.41    8.21
   4   6 -20   13.59   11.64
  -4   6  20  -14.21    6.21
  -3  -6  20   -0.29    8.39
   3  -6 -20   -3.30    7.83
  -3   6  20   -7.67    5.87
   3   6 -20   -1.84    7.95
  -2  -6  20   63.88   15.74
   2  -6 -20   56.29   11.29
   2   6 -20  115.65   20.07
  -2   6  20   85.47   14.62
  -1  -6  20   11.59    8.67
   1   6 -20   -9.57    6.58
  -1   6  20    5.77    7.93
   0  -6  20    4.63    3.65
   0  -6  20   12.67    8.58
   0  -6 -20  -10.12    7.30
   0   6  20   -4.58    6.57
   0   6 -20   -9.27    8.75
   1  -6  20    5.09    8.69
  -1   6 -20    3.64    9.72
   1   6  20   11.46    8.26
  -2  -6 -20   31.73   11.85
   2  -6  20   79.47   17.06
   2   6  20   52.85   12.55
  -2   6 -20   43.82   14.20
  -3  -6 -20   13.16   11.30
   3  -6  20    4.23    9.76
   3   6  20    1.00    8.45
  -3   6 -20   25.62   10.13
  -4  -7  20   11.69   10.08
  -4   7  20   -8.16    6.64
   4   7 -20  -21.57    7.42
  -3  -7  20   32.82   12.17
   3   7 -20   41.77   14.33
  -3   7  20   57.11   12.77
  -2  -7  20   10.21    9.31
  -2   7  20    7.81    6.93
   2   7 -20  -12.70    7.53
  -1  -7  20   95.01   17.78
  -1   7  20  154.59   18.64
   1   7 -20  133.63   21.96
   0  -7  20  -16.19    6.39
   0  -7 -20  -12.42    7.05
   0  -7  20   -7.06    3.17
   0   7 -20    0.14    9.51
   0   7  20    9.63    8.43
  -1  -7 -20   10.18    9.76
   1  -7  20   25.85   11.77
  -1   7 -20   43.15   14.85
   1   7  20   50.21   11.18
  -2  -7 -20   -4.11    9.90
   2  -7  20   -1.09    8.46
  -2   7 -20  -17.26    7.33
   2   7  20    1.55    8.76
  -3   8  20   75.10   14.20
   3   8 -20   73.24   17.55
  -2  -8  20    1.88    7.74
  -2   8  20    5.68    5.86
   2   8 -20  -14.40    8.95
  -1  -8  20   20.47   10.28
   1  -8 -20    0.66    9.25
  -1   8  20   19.21    9.35
   1   8 -20   14.68   11.08
   0  -8  20    4.67    4.51
   0  -8  20   -6.42    6.24
   0   8 -20   12.06   10.73
   0   8  20   17.02    9.31
  -1  -8 -20   25.25   11.75
   1  -8  20   75.23   16.17
   1   8  20   52.37   12.46
  -1   8 -20   48.85   15.43
  -2  -8 -20  -21.18    9.11
   2  -8  20    4.87   10.98
  -2   8 -20   -9.59    8.55
   2   8  20   -7.72    7.86
  -2  -9  20  -19.99   11.04
  -2   9  20   -5.26    6.62
   2   9 -20   -7.85    9.73
  -1  -9  20   20.46   12.57
  -1  -9  20   15.31    6.98
   1   9 -20    5.75    9.69
  -1   9  20   18.74    9.70
   0  -9  20   -9.09    4.14
   0   9  20    5.68    6.91
   0   9 -20   -2.89   10.23
   1  -9  20   -0.18    9.31
   1   9  20   -4.18    6.68
  -1   9 -20   -4.13    9.71
   4   0 -21   -0.02    7.92
  -4   0  21    4.50    8.85
   3   0 -21  -23.68   11.86
  -3   0  21   -5.55    7.94
  -2   0  21   -1.55    7.28
   2   0 -21    4.00   13.65
  -1   0  21  -19.21    7.99
  -1   0  21    6.87    8.86
   1   0 -21   -2.62   10.23
   0   0 -21   27.62   10.73
   0   0  21   -8.28    7.68
   0   0  21  -10.87    5.17
   1   0  21   -8.01    6.64
  -1   0 -21    9.62    9.43
   2   0  21    0.51    7.39
  -2   0 -21   -3.82    8.66
   3   0  21   -2.69    8.25
  -3   0 -21   -4.77    7.82
  -4  -1  21   45.18   13.53
   4  -1 -21   20.08   10.54
  -4   1  21   70.36   15.23
   4   1 -21   58.94   14.81
  -3  -1  21   -1.32    7.75
   3  -1 -21   -0.15    8.64
  -3   1  21   -0.78    8.67
   3   1 -21   -3.95    8.84
   2  -1 -21  135.51   19.37
  -2  -1  21  116.63   18.95
   2   1 -21   74.96   15.78
  -2   1  21   91.42   16.51
   1  -1 -21   49.41   13.67
  -1  -1  21   29.82   11.52
  -1   1  21   84.44   15.98
   1   1 -21   52.07   13.40
   0  -1 -21   63.32   14.50
   0  -1  21   76.48   16.66
   0   1  21   66.51   14.47
   0   1 -21   81.49   16.27
  -1  -1 -21   -2.55    8.43
   1  -1  21    1.39    7.55
   1   1  21   -3.52    8.49
  -1   1 -21  -11.84    7.18
   2  -1  21   58.85   14.47
  -2  -1 -21   40.33   13.47
  -2   1 -21   51.29   13.72
   2   1  21   64.54   16.17
   3  -1  21   10.18   12.28
  -3  -1 -21   -3.19    9.11
   3   1  21    5.10    8.18
  -3   1 -21   22.49   11.77
   4  -2 -21   98.11   16.34
  -4  -2  21  131.78   20.50
  -4   2  21  109.26   19.22
   4   2 -21   94.99   17.74
   3  -2 -21   24.17   10.69
  -3  -2  21   19.81   10.16
   3   2 -21    7.92    9.66
  -3   2  21   14.09   10.20
   2  -2 -21   34.19   11.59
  -2  -2  21   29.33   11.32
  -2   2  21   19.13    9.66
   2   2 -21   32.25   11.75
   1  -2 -21    6.40    8.01
  -1  -2  21    7.40    7.92
  -1   2  21   -5.65    6.97
   1   2 -21   -0.08    8.19
   0  -2 -21   70.72   14.29
   0  -2  21  126.04   19.52
   0   2  21   68.69   14.42
   0   2  21   56.87    8.16
   0   2 -21   64.67   15.39
  -1  -2 -21   22.25   10.42
   1  -2  21   18.43   10.26
  -1   2 -21   19.92   10.70
   1   2  21   47.49   13.20
   2  -2  21   66.19   15.79
  -2  -2 -21   36.65   12.35
   2   2  21   39.66   12.93
  -2   2 -21   42.75   13.68
  -3  -2 -21   -9.42    9.32
   3   2  21   -7.34    6.45
  -3   2 -21   19.79   12.25
   4  -3 -21    4.12    9.23
  -4  -3  21   14.62   10.16
   4   3 -21   31.01   12.38
  -4   3  21  -19.60    7.72
   3  -3 -21   48.35   11.96
  -3  -3  21   69.66   15.14
   3   3 -21   32.85   12.70
  -3   3  21   28.93   12.07
   2  -3 -21    1.16    8.60
  -2  -3  21   -4.36    7.68
  -2   3  21    8.79    8.21
   2   3 -21    3.80    9.02
   1  -3 -21   10.07    8.75
  -1  -3  21   16.43    9.42
  -1   3  21   -0.87    7.04
   1   3 -21   12.51    9.77
   0  -3 -21    5.40    8.43
   0  -3  21    5.21    8.40
   0   3  21   18.93   10.04
   0   3 -21   -4.52    9.53
   1  -3  21   23.78   11.31
  -1  -3 -21   30.02   11.01
   1   3  21   55.79   14.45
  -1   3 -21   22.61   12.06
  -2  -3 -21  -13.51   12.87
   2  -3  21   -1.88    7.68
  -2   3 -21   10.37   10.00
   2   3  21  -14.57    6.50
   4  -4 -21   79.54   15.56
  -4  -4  21   89.85   20.55
   4   4 -21   82.84   17.30
  -4   4  21   97.39   17.16
   3  -4 -21   -8.43    8.93
  -3  -4  21   -1.60    8.89
  -3   4  21    2.19    6.98
   3   4 -21   -6.68    8.59
  -2  -4  21   71.90   15.80
   2  -4 -21   83.74   14.51
   2   4 -21   59.48   16.29
  -2   4  21   84.04   15.70
  -1  -4  21   12.19    8.85
   1  -4 -21   10.08    8.94
  -1   4  21   16.85    9.38
   1   4 -21   15.73   11.82
   0  -4 -21   62.43   13.34
   0  -4  21   59.97   14.73
   0   4 -21   39.85   14.36
   0   4  21   53.78   13.29
   1  -4  21   12.86    9.58
  -1  -4 -21   14.27    9.85
   1   4  21   30.94   12.21
  -1   4 -21   20.59   11.38
  -2  -4 -21   43.35   12.85
   2  -4  21   69.32   18.05
   2   4  21   67.92   16.25
  -2   4 -21   61.75   15.88
  -3  -5  21   29.35   12.06
   3  -5 -21   30.87   10.94
   3   5 -21   51.41   15.45
  -3   5  21   37.93   11.98
   2  -5 -21   28.65    9.78
  -2  -5  21   41.31   12.59
   2   5 -21   36.59   13.33
  -2   5  21   33.03   10.62
  -1  -5  21   24.09   10.91
   1  -5 -21    8.50    9.12
  -1   5  21   26.17    9.90
   1   5 -21   21.95   12.21
   0  -5 -21    8.89    8.93
   0  -5  21   -1.80    7.90
   0   5 -21    6.53   10.66
   0   5  21    6.97    8.91
   1  -5  21   56.60   16.16
  -1  -5 -21   38.77   12.27
  -1   5 -21   53.66   15.69
   1   5  21   68.22   14.86
   2  -5  21   40.25   14.94
  -2  -5 -21   31.02   11.85
  -2   5 -21   52.52   15.25
   2   5  21   60.23   16.19
   3  -6 -21   -9.07    8.70
   3   6 -21    0.19    9.24
  -3   6  21   -9.03    7.68
  -2  -6  21    2.67    8.22
   2  -6 -21  -22.38    8.33
  -2   6  21    0.90    6.55
   2   6 -21   18.04   11.06
  -1  -6  21  155.52   21.96
   1  -6 -21  114.97   17.81
  -1   6  21  187.81   18.43
   1   6 -21  166.98   23.60
   0  -6  21  -11.39    6.80
   0  -6 -21   -2.27    9.14
   0   6  21   -9.79    6.49
   0   6 -21   -2.05    9.51
  -1  -6 -21  -11.11    9.04
   1   6  21    3.97    7.92
  -1   6 -21   -3.76    8.51
  -2  -7  21   24.80   12.69
   2   7 -21   27.76   12.95
  -2   7  21   13.81    9.04
   1  -7 -21  -21.44    8.10
  -1   7  21   -1.21    6.72
   1   7 -21    8.84    9.65
   0  -7 -21    1.59   11.00
   0   7  21   25.86    9.94
   0   7 -21   14.20   11.01
   1  -7  21   -1.20    9.37
  -1  -7 -21  -27.71    8.73
   1   7  21    6.52    9.23
  -1   7 -21  -12.98    9.26
   3   0 -22    9.04    9.69
  -3   0  22   -2.45    8.68
   2   0 -22   37.75   13.29
  -2   0  22   14.36   10.29
  -1   0  22   76.56   16.93
   1   0 -22   74.27   16.11
   0   0  22  107.46   18.50
   0   0 -22  117.98   19.56
   1   0  22    7.65    8.91
  -1   0 -22   -8.57    9.06
  -3  -1  22   19.40   10.96
   3  -1 -22    5.20    9.10
   3   1 -22    6.67   10.03
  -3   1  22    3.38    8.22
   2  -1 -22   11.09   10.64
  -2  -1  22   31.25   10.37
  -2   1  22   29.81   12.07
   2   1 -22   -1.88    8.98
   1  -1 -22   -1.78   13.66
  -1  -1  22  -11.17    6.83
   1   1 -22    5.07   10.28
  -1   1  22   14.45    9.18
   0  -1  22   13.69   10.77
   0  -1 -22   13.63   10.09
   0   1  22   29.64   11.44
   0   1 -22    5.34    9.75
   1  -1  22   19.23   10.15
  -1  -1 -22   -0.73    9.31
  -1   1 -22    7.00    9.29
   1   1  22   -3.87    8.19
  -3  -2  22   20.29   10.93
   3  -2 -22    4.01    9.34
   3   2 -22    6.25   11.21
  -3   2  22   23.41   11.58
   2  -2 -22    1.55    9.80
  -2  -2  22    9.24    9.81
   2   2 -22   -4.94    8.30
  -2   2  22   -2.49    7.58
   1  -2 -22    8.86    9.33
  -1  -2  22   33.51   11.55
   1   2 -22   38.27   13.99
  -1   2  22   29.25   10.37
   0  -2 -22   48.93   13.53
   0  -2  22   51.37   13.60
   0   2  22   57.51   14.91
   0   2 -22   47.92   14.72
  -1  -2 -22  -11.18    7.86
   1  -2  22   -2.12    8.25
  -1   2 -22   -6.64   10.65
   1   2  22   -5.77    6.52
  -2  -3  22  117.00   19.35
   2  -3 -22   77.39   14.27
  -2   3  22   86.59   16.76
   2   3 -22  120.33   20.49
   1  -3 -22   12.94    8.66
  -1  -3  22   23.73   10.70
  -1   3  22    4.97    8.05
   1   3 -22    6.95   10.22
   0  -3  22   16.48   12.23
   0  -3 -22   15.85   11.26
   0   3 -22   28.13   13.41
   0   3  22   29.60   11.42
  -1  -3 -22   24.38   10.60
   1   3  22   50.36   12.86
  -1   3 -22   26.88   12.05
   2  -4 -22   27.82   12.39
  -2  -4  22   22.17   13.30
   2   4 -22   24.81   11.90
  -2   4  22   21.21   10.37
  -1  -4  22    4.55    9.14
   1  -4 -22  -18.69    7.64
   1   4 -22  -10.50    7.73
  -1   4  22   -9.74    7.29
   0  -4  22    0.44    9.01
   0  -4 -22   -8.93    8.58
   0   4 -22   25.69   13.60
   0   4  22  -12.44    8.59
  -1  -5  22   61.90   18.24
   1  -5 -22   15.83   11.03
  -1   5  22   31.20   11.89
   1   5 -22   31.70   13.90
   0  -5 -22    1.43    9.36
   0  -5  22    9.90   10.55
   0   5  22   13.04    9.86
   0   5 -22   -0.31   10.75
   0   0   0    0.00    0.00
;
_shelx_hkl_checksum              13353
_shelx_fab_file
;
    2    0    0     -1.78      0.00
    3    0    0      2.76      0.00
    4    0    0     -4.02      0.00
    5    0    0     -3.52      0.00
    6    0    0      4.61      0.00
    7    0    0     -5.78      0.00
    8    0    0     -1.21      0.00
    9    0    0      0.54      0.00
   10    0    0     -4.78      0.00
    1    1    0     25.52      0.00
    2    1    0     -3.66      0.00
    3    1    0     -0.76      0.00
    4    1    0      2.91      0.00
    5    1    0      0.71      0.00
    6    1    0     -1.44      0.00
    7    1    0      1.20      0.00
    8    1    0     -4.36      0.00
    9    1    0     -1.68      0.00
   10    1    0     -4.57      0.00
    2    2    0      1.47      0.00
    3    2    0     -2.14      0.00
    4    2    0     -0.76      0.00
    5    2    0      0.43      0.00
    6    2    0      3.96      0.00
    7    2    0     -2.66      0.00
    8    2    0      3.06      0.00
    9    2    0     -0.17      0.00
   10    2    0     -3.32      0.00
    2    3    0      2.40      0.00
    3    3    0     -1.22      0.00
    4    3    0     -1.21      0.00
    5    3    0      0.31      0.00
    6    3    0     -1.64      0.00
    7    3    0      1.42      0.00
    8    3    0     -2.35      0.00
    9    3    0     -3.15      0.00
   10    3    0     -2.20      0.00
    1    4    0     -0.89      0.00
    2    4    0     -0.74      0.00
    3    4    0     -0.20      0.00
    4    4    0      2.02      0.00
    5    4    0     -0.94      0.00
    6    4    0      3.32      0.00
    7    4    0     -0.81      0.00
    8    4    0      2.30      0.00
    9    4    0     -1.00      0.00
    1    5    0     -0.11      0.00
    2    5    0      3.11      0.00
    3    5    0     -2.62      0.00
    4    5    0     -3.70      0.00
    5    5    0     -2.69      0.00
    6    5    0     -4.10      0.00
    7    5    0      2.87      0.00
    8    5    0      1.47      0.00
    9    5    0     -4.56      0.00
    0    6    0      2.92      0.00
    1    6    0      0.99      0.00
    2    6    0      1.55      0.00
    3    6    0      0.35      0.00
    4    6    0     -0.28      0.00
    5    6    0      1.11      0.00
    6    6    0      0.33      0.00
    7    6    0     -5.51      0.00
    8    6    0      0.43      0.00
    9    6    0      0.70      0.00
    1    7    0     -1.30      0.00
    2    7    0      3.70      0.00
    3    7    0     -1.32      0.00
    4    7    0     -3.70      0.00
    5    7    0     -1.79      0.00
    6    7    0     -1.40      0.00
    7    7    0     -1.15      0.00
    8    7    0     -6.31      0.00
    9    7    0     -0.57      0.00
    0    8    0     -2.62      0.00
    1    8    0     -1.26      0.00
    2    8    0     -2.28      0.00
    3    8    0      2.45      0.00
    4    8    0     -0.08      0.00
    5    8    0      4.21      0.00
    6    8    0     -0.71      0.00
    7    8    0     -2.16      0.00
    8    8    0     -2.72      0.00
    9    8    0     -0.01      0.00
    1    9    0     -1.60      0.00
    2    9    0     -1.15      0.00
    3    9    0     -0.34      0.00
    4    9    0     -5.80      0.00
    5    9    0      0.61      0.00
    6    9    0     -1.88      0.00
    7    9    0     -2.50      0.00
    8    9    0     -1.11      0.00
    9    9    0     -0.47      0.00
    0   10    0    -13.91      0.00
    1   10    0     -0.56      0.00
    2   10    0     -3.36      0.00
    3   10    0      1.26      0.00
    4   10    0      2.50      0.00
    5   10    0      0.70      0.00
    6   10    0     -1.80      0.00
    7   10    0      0.01      0.00
    8   10    0     -4.74      0.00
    1   11    0      2.15      0.00
    2   11    0     -0.62      0.00
    3   11    0     -0.10      0.00
    4   11    0     -3.91      0.00
    5   11    0     -0.47      0.00
    6   11    0     -3.86      0.00
    7   11    0      1.53      0.00
    8   11    0      4.62      0.00
    0   12    0     -4.52      0.00
    1   12    0      0.42      0.00
    2   12    0     -0.29      0.00
    3   12    0     -0.07      0.00
    4   12    0      3.45      0.00
    5   12    0     -1.92      0.00
    6   12    0     -0.89      0.00
    7   12    0      2.26      0.00
    8   12    0     -5.49      0.00
    1   13    0      0.41      0.00
    2   13    0     -0.69      0.00
    3   13    0     -0.29      0.00
    4   13    0     -0.09      0.00
    5   13    0      2.78      0.00
    6   13    0     -4.20      0.00
    7   13    0      8.43      0.00
    0   14    0     -3.37      0.00
    1   14    0     -0.41      0.00
    2   14    0     -1.85      0.00
    3   14    0     -1.12      0.00
    4   14    0      2.17      0.00
    5   14    0     -2.25      0.00
    6   14    0      4.52      0.00
    7   14    0     -1.46      0.00
    1   15    0     -2.06      0.00
    2   15    0     -3.25      0.00
    3   15    0     -3.17      0.00
    4   15    0     -3.21      0.00
    5   15    0      3.79      0.00
    6   15    0     -1.92      0.00
    7   15    0     11.30      0.00
    0   16    0     -2.62      0.00
    1   16    0      0.53      0.00
    2   16    0      0.03      0.00
    3   16    0     -1.52      0.00
    4   16    0     -3.68      0.00
    5   16    0     -2.90      0.00
    6   16    0     -1.25      0.00
    1   17    0      2.72      0.00
    2   17    0     -1.66      0.00
    3   17    0      2.30      0.00
    4   17    0     -3.50      0.00
    5   17    0      2.65      0.00
    0   18    0     -1.47      0.00
    1   18    0     -0.86      0.00
    2   18    0      6.21      0.00
    3   18    0     -3.17      0.00
    4   18    0     -3.97      0.00
    5   18    0     -2.53      0.00
    1   19    0     -1.29      0.00
    2   19    0      0.43      0.00
    3   19    0      7.69      0.00
    4   19    0     -0.10      0.00
    0   20    0     -1.07      0.00
    1   20    0      0.08      0.00
    2   20    0      4.79      0.00
  -10    1    1     -1.97      0.00
   -9    1    1      4.41      0.00
   -8    1    1     -1.62      0.00
   -7    1    1     -4.96      0.00
   -6    1    1      4.56      0.00
   -5    1    1     -0.90      0.00
   -4    1    1     -2.35      0.00
   -3    1    1      0.47      0.00
   -2    1    1    -11.89      0.00
    1    1    1      1.16      0.00
    2    1    1      5.44      0.00
    3    1    1      0.47      0.00
    4    1    1     -1.52      0.00
    5    1    1     -0.41      0.00
    6    1    1      3.14      0.00
    7    1    1     -3.91      0.00
    8    1    1      1.30      0.00
    9    1    1      0.05      0.00
   10    1    1     -4.40      0.00
  -10    2    1      2.08      0.00
   -9    2    1      4.81      0.00
   -8    2    1      5.49      0.00
   -7    2    1     -0.65      0.00
   -6    2    1      2.70      0.00
   -5    2    1     -0.49      0.00
   -4    2    1     -2.30      0.00
   -3    2    1      3.53      0.00
   -2    2    1     -5.94      0.00
    1    2    1      6.86      0.00
    2    2    1     -9.52      0.00
    3    2    1      0.11      0.00
    4    2    1      0.99      0.00
    5    2    1      2.59      0.00
    6    2    1      2.04      0.00
    7    2    1      2.30      0.00
    8    2    1     -2.37      0.00
    9    2    1      0.96      0.00
   10    2    1     -6.38      0.00
  -10    3    1      2.37      0.00
   -9    3    1     -4.02      0.00
   -8    3    1      1.55      0.00
   -7    3    1     -1.89      0.00
   -6    3    1      5.15      0.00
   -5    3    1      2.44      0.00
   -4    3    1      1.28      0.00
   -3    3    1      0.12      0.00
   -2    3    1      1.62      0.00
   -1    3    1      3.45      0.00
    0    3    1     32.64      0.00
    2    3    1     -0.68      0.00
    3    3    1     -1.66      0.00
    4    3    1      1.27      0.00
    5    3    1     -1.29      0.00
    6    3    1      0.71      0.00
    7    3    1      1.37      0.00
    8    3    1      5.47      0.00
    9    3    1      3.81      0.00
   10    3    1     -2.27      0.00
   -9    4    1      7.16      0.00
   -8    4    1     -1.87      0.00
   -7    4    1     -0.86      0.00
   -6    4    1      2.59      0.00
   -5    4    1      1.73      0.00
   -4    4    1      3.72      0.00
   -3    4    1      1.62      0.00
   -2    4    1     -3.61      0.00
    1    4    1     -3.35      0.00
    2    4    1      2.56      0.00
    3    4    1     -1.62      0.00
    4    4    1     -0.91      0.00
    5    4    1      1.16      0.00
    6    4    1     -1.16      0.00
    7    4    1      2.58      0.00
    8    4    1      1.81      0.00
    9    4    1      0.92      0.00
   -9    5    1     -2.94      0.00
   -8    5    1     -1.09      0.00
   -7    5    1     -3.36      0.00
   -6    5    1      3.15      0.00
   -5    5    1     -0.75      0.00
   -4    5    1      0.29      0.00
   -3    5    1      1.35      0.00
   -2    5    1      3.08      0.00
   -1    5    1      0.80      0.00
    0    5    1     -6.92      0.00
    1    5    1      0.99      0.00
    2    5    1     -0.86      0.00
    3    5    1     -0.94      0.00
    4    5    1      0.86      0.00
    5    5    1     -1.16      0.00
    6    5    1     -0.45      0.00
    7    5    1     -1.85      0.00
    8    5    1      3.38      0.00
    9    5    1      2.55      0.00
   -9    6    1      3.08      0.00
   -8    6    1      4.49      0.00
   -7    6    1     -0.50      0.00
   -6    6    1      2.29      0.00
   -5    6    1      1.73      0.00
   -4    6    1      3.58      0.00
   -3    6    1     -0.97      0.00
   -2    6    1     -1.49      0.00
   -1    6    1      0.44      0.00
    0    6    1     -4.36      0.00
    1    6    1      1.79      0.00
    2    6    1      4.58      0.00
    3    6    1     -2.84      0.00
    4    6    1     -1.59      0.00
    5    6    1     -2.07      0.00
    6    6    1     -2.65      0.00
    7    6    1     -0.29      0.00
    8    6    1     -1.64      0.00
    9    6    1     -1.53      0.00
   -9    7    1      0.46      0.00
   -8    7    1     -2.01      0.00
   -7    7    1     -1.70      0.00
   -6    7    1      1.68      0.00
   -5    7    1      2.60      0.00
   -4    7    1     -1.70      0.00
   -3    7    1      2.62      0.00
   -2    7    1      1.11      0.00
   -1    7    1     -0.02      0.00
    0    7    1      3.65      0.00
    1    7    1      0.93      0.00
    2    7    1     -1.20      0.00
    3    7    1     -0.93      0.00
    4    7    1     -0.06      0.00
    5    7    1      3.56      0.00
    6    7    1     -1.42      0.00
    7    7    1     -3.68      0.00
    8    7    1      0.59      0.00
    9    7    1     -0.33      0.00
   -9    8    1     -3.52      0.00
   -8    8    1      9.69      0.00
   -7    8    1      1.90      0.00
   -6    8    1      0.26      0.00
   -5    8    1     -2.01      0.00
   -4    8    1      2.93      0.00
   -3    8    1     -1.33      0.00
   -2    8    1     -1.03      0.00
   -1    8    1      1.24      0.00
    0    8    1     -2.02      0.00
    1    8    1     -1.24      0.00
    2    8    1      1.36      0.00
    3    8    1     -2.22      0.00
    4    8    1     -4.19      0.00
    5    8    1     -0.41      0.00
    6    8    1     -0.42      0.00
    7    8    1     -4.10      0.00
    8    8    1     -0.68      0.00
    9    8    1     -2.48      0.00
   -9    9    1     -2.99      0.00
   -8    9    1     -3.86      0.00
   -7    9    1      2.26      0.00
   -6    9    1      1.08      0.00
   -5    9    1      5.02      0.00
   -4    9    1      0.33      0.00
   -3    9    1      3.65      0.00
   -2    9    1     -2.45      0.00
   -1    9    1     -2.42      0.00
    0    9    1     -9.86      0.00
    1    9    1     -2.43      0.00
    2    9    1     -4.75      0.00
    3    9    1      0.25      0.00
    4    9    1      2.20      0.00
    5    9    1      1.75      0.00
    6    9    1     -1.00      0.00
    7    9    1     -1.60      0.00
    8    9    1     -0.61      0.00
    9    9    1     -0.54      0.00
   -8   10    1      0.06      0.00
   -7   10    1      1.50      0.00
   -6   10    1      1.79      0.00
   -5   10    1     -1.82      0.00
   -4   10    1      5.13      0.00
   -3   10    1      0.37      0.00
   -2   10    1      3.35      0.00
   -1   10    1     -0.70      0.00
    0   10    1     -0.01      0.00
    1   10    1      0.63      0.00
    2   10    1     -0.14      0.00
    3   10    1     -0.86      0.00
    4   10    1     -5.44      0.00
    5   10    1      0.78      0.00
    6   10    1     -1.06      0.00
    7   10    1     -0.04      0.00
    8   10    1      7.19      0.00
   -8   11    1     -6.51      0.00
   -7   11    1      1.77      0.00
   -6   11    1     -3.35      0.00
   -5   11    1      0.42      0.00
   -4   11    1      2.13      0.00
   -3   11    1      0.78      0.00
   -2   11    1     -0.30      0.00
   -1   11    1      0.82      0.00
    0   11    1     -7.32      0.00
    1   11    1     -0.57      0.00
    2   11    1     -1.90      0.00
    3   11    1      0.56      0.00
    4   11    1      2.29      0.00
    5   11    1     -2.45      0.00
    6   11    1      0.53      0.00
    7   11    1      1.77      0.00
    8   11    1     -1.45      0.00
   -8   12    1     -1.06      0.00
   -7   12    1      0.64      0.00
   -6   12    1      3.12      0.00
   -5   12    1     -2.61      0.00
   -4   12    1     -1.13      0.00
   -3   12    1      0.44      0.00
   -2   12    1      1.28      0.00
   -1   12    1     -3.10      0.00
    0   12    1      1.78      0.00
    1   12    1      2.68      0.00
    2   12    1      1.87      0.00
    3   12    1     -0.63      0.00
    4   12    1     -2.15      0.00
    5   12    1      0.10      0.00
    6   12    1     -3.35      0.00
    7   12    1      7.94      0.00
    8   12    1      7.68      0.00
   -7   13    1      0.48      0.00
   -6   13    1     -0.25      0.00
   -5   13    1      0.33      0.00
   -4   13    1      1.69      0.00
   -3   13    1     -1.58      0.00
   -2   13    1     -0.27      0.00
   -1   13    1     -0.10      0.00
    0   13    1     -1.90      0.00
    1   13    1     -1.90      0.00
    2   13    1      0.08      0.00
    3   13    1     -0.51      0.00
    4   13    1      1.78      0.00
    5   13    1     -1.56      0.00
    6   13    1      5.36      0.00
    7   13    1      0.05      0.00
   -7   14    1     -3.87      0.00
   -6   14    1      0.70      0.00
   -5   14    1     -6.31      0.00
   -4   14    1     -0.98      0.00
   -3   14    1      0.96      0.00
   -2   14    1      2.46      0.00
   -1   14    1     -0.24      0.00
    0   14    1      0.98      0.00
    1   14    1     -3.88      0.00
    2   14    1     -1.53      0.00
    3   14    1     -3.05      0.00
    4   14    1     -4.58      0.00
    5   14    1      1.55      0.00
    6   14    1     -3.34      0.00
    7   14    1     13.83      0.00
   -7   15    1     -1.32      0.00
   -6   15    1      4.68      0.00
   -5   15    1     -2.22      0.00
   -4   15    1     -0.64      0.00
   -3   15    1     -0.54      0.00
   -2   15    1     -1.44      0.00
   -1   15    1      1.44      0.00
    0   15    1     -2.88      0.00
    1   15    1     -0.75      0.00
    2   15    1     -1.35      0.00
    3   15    1      0.56      0.00
    4   15    1     -0.66      0.00
    5   15    1     -0.83      0.00
    6   15    1      1.02      0.00
   -6   16    1     -0.64      0.00
   -5   16    1     -3.05      0.00
   -4   16    1      1.62      0.00
   -3   16    1      3.35      0.00
   -2   16    1      3.15      0.00
   -1   16    1     -1.04      0.00
    0   16    1      0.50      0.00
    1   16    1     -0.05      0.00
    2   16    1     -2.33      0.00
    3   16    1     -1.82      0.00
    4   16    1     -5.68      0.00
    5   16    1      3.43      0.00
    6   16    1      0.16      0.00
   -5   17    1     -2.84      0.00
   -4   17    1     -5.05      0.00
   -3   17    1     -2.84      0.00
   -2   17    1      4.19      0.00
   -1   17    1      1.04      0.00
    0   17    1     -1.22      0.00
    1   17    1     -0.58      0.00
    2   17    1      4.43      0.00
    3   17    1     -0.53      0.00
    4   17    1     -3.92      0.00
    5   17    1     -0.02      0.00
   -5   18    1      0.59      0.00
   -4   18    1      0.78      0.00
   -3   18    1     -2.74      0.00
   -2   18    1      0.48      0.00
   -1   18    1     -1.65      0.00
    0   18    1      3.35      0.00
    1   18    1      1.39      0.00
    2   18    1      0.33      0.00
    3   18    1      8.02      0.00
    4   18    1     -2.88      0.00
   -4   19    1     -1.20      0.00
   -3   19    1     -4.29      0.00
   -2   19    1      7.15      0.00
   -1   19    1     -3.32      0.00
    0   19    1     -1.93      0.00
    1   19    1      0.43      0.00
    2   19    1      4.38      0.00
    3   19    1     -0.57      0.00
    4   19    1     -2.19      0.00
   -2   20    1     -0.55      0.00
   -1   20    1      4.91      0.00
    0   20    1      1.56      0.00
    1   20    1     -5.05      0.00
    2   20    1      1.22      0.00
  -10    0    2     -0.75      0.00
   -9    0    2      9.41      0.00
   -8    0    2     -7.03      0.00
   -7    0    2     -4.75      0.00
   -6    0    2      0.95      0.00
   -5    0    2     -0.76      0.00
   -4    0    2      0.94      0.00
   -3    0    2      0.24      0.00
   -2    0    2    -24.71      0.00
    1    0    2    -17.14      0.00
    2    0    2      4.16      0.00
    3    0    2      0.68      0.00
    4    0    2     -0.56      0.00
    5    0    2      3.28      0.00
    6    0    2      4.59      0.00
    7    0    2     -3.10      0.00
    8    0    2      1.40      0.00
    9    0    2      4.51      0.00
   10    0    2     -0.87      0.00
  -10    1    2      0.02      0.00
   -9    1    2      2.65      0.00
   -8    1    2      2.82      0.00
   -7    1    2     -0.38      0.00
   -6    1    2      1.85      0.00
   -5    1    2     -1.49      0.00
   -4    1    2     -2.66      0.00
   -3    1    2      6.25      0.00
   -2    1    2     -6.79      0.00
    0    1    2      4.43      0.00
    1    1    2     -5.36      0.00
    2    1    2    -10.18      0.00
    3    1    2      1.59      0.00
    4    1    2     -0.28      0.00
    5    1    2      1.19      0.00
    6    1    2      3.40      0.00
    7    1    2      1.79      0.00
    8    1    2     -0.06      0.00
    9    1    2      1.75      0.00
   10    1    2     -3.47      0.00
  -10    2    2      3.91      0.00
   -9    2    2      0.86      0.00
   -8    2    2     -1.32      0.00
   -7    2    2     -3.92      0.00
   -6    2    2      3.42      0.00
   -5    2    2      3.62      0.00
   -4    2    2      0.16      0.00
   -3    2    2      1.05      0.00
   -2    2    2     -5.59      0.00
   -1    2    2      5.70      0.00
    1    2    2      5.35      0.00
    2    2    2     -1.73      0.00
    3    2    2     -0.04      0.00
    4    2    2      1.25      0.00
    5    2    2      1.25      0.00
    6    2    2     -0.72      0.00
    7    2    2      1.00      0.00
    8    2    2      5.69      0.00
    9    2    2      6.16      0.00
   10    2    2     -1.69      0.00
  -10    3    2     -3.17      0.00
   -9    3    2      6.26      0.00
   -8    3    2      1.06      0.00
   -7    3    2      0.18      0.00
   -6    3    2      0.26      0.00
   -5    3    2      0.31      0.00
   -4    3    2      0.13      0.00
   -3    3    2      4.22      0.00
   -2    3    2     -6.07      0.00
    0    3    2    -12.69      0.00
    1    3    2     -9.24      0.00
    2    3    2     -4.11      0.00
    3    3    2     -0.15      0.00
    4    3    2     -0.80      0.00
    5    3    2      5.13      0.00
    6    3    2      4.03      0.00
    7    3    2      1.12      0.00
    8    3    2      3.51      0.00
    9    3    2      5.67      0.00
   -9    4    2     -8.03      0.00
   -8    4    2      0.95      0.00
   -7    4    2     -0.03      0.00
   -6    4    2      3.14      0.00
   -5    4    2      1.02      0.00
   -4    4    2      0.89      0.00
   -3    4    2      1.92      0.00
   -2    4    2      4.57      0.00
   -1    4    2      0.34      0.00
    0    4    2    -16.96      0.00
    1    4    2      9.39      0.00
    2    4    2     -1.13      0.00
    3    4    2      0.87      0.00
    4    4    2     -0.22      0.00
    5    4    2     -2.44      0.00
    6    4    2     -2.21      0.00
    7    4    2      1.20      0.00
    8    4    2      4.63      0.00
    9    4    2      7.19      0.00
   -9    5    2      5.62      0.00
   -8    5    2     -0.67      0.00
   -7    5    2      2.41      0.00
   -6    5    2      1.60      0.00
   -5    5    2      1.50      0.00
   -4    5    2      2.20      0.00
   -3    5    2     -1.27      0.00
   -2    5    2     -0.48      0.00
   -1    5    2     -3.72      0.00
    0    5    2    -11.40      0.00
    1    5    2      0.58      0.00
    2    5    2      3.16      0.00
    3    5    2     -0.28      0.00
    4    5    2      1.57      0.00
    5    5    2      2.03      0.00
    6    5    2     -0.84      0.00
    7    5    2      0.58      0.00
    8    5    2      0.89      0.00
    9    5    2      1.75      0.00
   -9    6    2     -0.70      0.00
   -8    6    2     -2.58      0.00
   -7    6    2     -0.21      0.00
   -6    6    2      2.47      0.00
   -5    6    2     -0.75      0.00
   -4    6    2     -1.85      0.00
   -3    6    2      0.29      0.00
   -2    6    2      4.24      0.00
   -1    6    2      0.43      0.00
    0    6    2     -0.78      0.00
    1    6    2      3.62      0.00
    2    6    2     -1.28      0.00
    3    6    2     -3.27      0.00
    4    6    2     -0.57      0.00
    5    6    2      2.42      0.00
    6    6    2     -1.65      0.00
    7    6    2     -0.58      0.00
    8    6    2      2.23      0.00
    9    6    2      0.38      0.00
   -9    7    2     -2.58      0.00
   -8    7    2     12.18      0.00
   -7    7    2      1.60      0.00
   -6    7    2      0.14      0.00
   -5    7    2     -1.16      0.00
   -4    7    2      1.03      0.00
   -3    7    2     -4.03      0.00
   -2    7    2     -1.52      0.00
   -1    7    2     -1.34      0.00
    0    7    2     -4.25      0.00
    1    7    2      2.83      0.00
    2    7    2      2.31      0.00
    3    7    2     -2.15      0.00
    4    7    2     -1.06      0.00
    5    7    2      0.59      0.00
    6    7    2     -0.39      0.00
    7    7    2     -4.98      0.00
    8    7    2     -0.07      0.00
    9    7    2     -3.03      0.00
   -9    8    2     -3.82      0.00
   -8    8    2     -0.74      0.00
   -7    8    2      3.41      0.00
   -6    8    2      2.78      0.00
   -5    8    2      4.41      0.00
   -4    8    2     -0.39      0.00
   -3    8    2      3.40      0.00
   -2    8    2     -1.38      0.00
   -1    8    2     -2.60      0.00
    0    8    2     -2.00      0.00
    1    8    2     -2.94      0.00
    2    8    2     -4.02      0.00
    3    8    2     -1.50      0.00
    4    8    2      0.71      0.00
    5    8    2      3.80      0.00
    6    8    2      0.78      0.00
    7    8    2      0.95      0.00
    8    8    2      2.08      0.00
    9    8    2     -1.32      0.00
   -9    9    2     -7.73      0.00
   -8    9    2      6.53      0.00
   -7    9    2      0.74      0.00
   -6    9    2     -2.70      0.00
   -5    9    2     -4.65      0.00
   -4    9    2      3.47      0.00
   -3    9    2      1.45      0.00
   -2    9    2      1.95      0.00
   -1    9    2     -0.33      0.00
    0    9    2     -1.22      0.00
    1    9    2     -0.56      0.00
    2    9    2     -0.49      0.00
    3    9    2     -0.84      0.00
    4    9    2     -3.34      0.00
    5    9    2      1.88      0.00
    6    9    2      0.11      0.00
    7    9    2     -3.21      0.00
    8    9    2      7.04      0.00
    9    9    2     -2.54      0.00
   -8   10    2     -2.30      0.00
   -7   10    2      3.12      0.00
   -6   10    2      0.74      0.00
   -5   10    2      3.39      0.00
   -4   10    2      0.81      0.00
   -3   10    2      2.36      0.00
   -2   10    2      0.78      0.00
   -1   10    2     -0.24      0.00
    0   10    2     -5.56      0.00
    1   10    2     -2.66      0.00
    2   10    2     -2.95      0.00
    3   10    2      0.32      0.00
    4   10    2      1.59      0.00
    5   10    2     -0.79      0.00
    6   10    2      1.15      0.00
    7   10    2      1.60      0.00
    8   10    2      3.46      0.00
   -8   11    2     -0.94      0.00
   -7   11    2      1.08      0.00
   -6   11    2     -1.00      0.00
   -5   11    2     -3.51      0.00
   -4   11    2      2.07      0.00
   -3   11    2      2.41      0.00
   -2   11    2      2.81      0.00
   -1   11    2     -2.15      0.00
    0   11    2      1.69      0.00
    1   11    2      4.52      0.00
    2   11    2      2.65      0.00
    3   11    2     -1.27      0.00
    4   11    2     -1.55      0.00
    5   11    2      1.39      0.00
    6   11    2     -0.86      0.00
    7   11    2      3.25      0.00
    8   11    2     10.60      0.00
   -8   12    2     -3.04      0.00
   -7   12    2      0.45      0.00
   -6   12    2     -3.29      0.00
   -5   12    2      2.56      0.00
   -4   12    2     -0.41      0.00
   -3   12    2     -0.87      0.00
   -2   12    2      0.89      0.00
   -1   12    2      1.10      0.00
    0   12    2     -0.07      0.00
    1   12    2     -3.45      0.00
    2   12    2      1.29      0.00
    3   12    2     -1.52      0.00
    4   12    2     -1.54      0.00
    5   12    2     -1.33      0.00
    6   12    2      4.82      0.00
    7   12    2      1.49      0.00
    8   12    2      0.21      0.00
   -7   13    2      5.06      0.00
   -6   13    2     -2.51      0.00
   -5   13    2     -5.04      0.00
   -4   13    2     -2.03      0.00
   -3   13    2      0.88      0.00
   -2   13    2      1.28      0.00
   -1   13    2     -2.81      0.00
    0   13    2      3.12      0.00
    1   13    2     -1.09      0.00
    2   13    2      1.89      0.00
    3   13    2     -2.37      0.00
    4   13    2     -3.14      0.00
    5   13    2      0.62      0.00
    6   13    2     -3.61      0.00
    7   13    2     10.33      0.00
   -7   14    2     -1.18      0.00
   -6   14    2      3.38      0.00
   -5   14    2      1.55      0.00
   -4   14    2     -0.36      0.00
   -3   14    2      0.83      0.00
   -2   14    2     -0.08      0.00
   -1   14    2      1.03      0.00
    0   14    2     -1.64      0.00
    1   14    2     -3.64      0.00
    2   14    2     -0.69      0.00
    3   14    2     -0.66      0.00
    4   14    2     -2.21      0.00
    5   14    2      1.91      0.00
    6   14    2      4.74      0.00
    7   14    2     -4.35      0.00
   -7   15    2      0.56      0.00
   -6   15    2     -3.53      0.00
   -5   15    2     -5.04      0.00
   -4   15    2      0.30      0.00
   -3   15    2      2.52      0.00
   -2   15    2      3.40      0.00
   -1   15    2     -0.53      0.00
    0   15    2      0.92      0.00
    1   15    2     -3.24      0.00
    2   15    2     -1.29      0.00
    3   15    2     -4.26      0.00
    4   15    2     -5.71      0.00
    5   15    2      1.15      0.00
    6   15    2      0.45      0.00
   -6   16    2      4.93      0.00
   -5   16    2     -1.31      0.00
   -4   16    2     -1.56      0.00
   -3   16    2      1.87      0.00
   -2   16    2      2.24      0.00
   -1   16    2      3.93      0.00
    0   16    2     -1.60      0.00
    1   16    2     -1.67      0.00
    2   16    2      2.19      0.00
    3   16    2      0.68      0.00
    4   16    2     -1.53      0.00
    5   16    2      2.96      0.00
    6   16    2     -4.27      0.00
   -5   17    2     -0.44      0.00
   -4   17    2     -0.34      0.00
   -3   17    2      2.47      0.00
   -2   17    2      0.23      0.00
   -1   17    2     -2.76      0.00
    0   17    2      2.36      0.00
    1   17    2      0.28      0.00
    2   17    2     -0.23      0.00
    3   17    2      1.34      0.00
    4   17    2     -3.89      0.00
    5   17    2      7.20      0.00
   -5   18    2     -0.46      0.00
   -4   18    2     -2.61      0.00
   -3   18    2     -3.32      0.00
   -2   18    2      6.04      0.00
   -1   18    2     -1.68      0.00
    0   18    2     -1.31      0.00
    1   18    2     -1.48      0.00
    2   18    2      5.13      0.00
    3   18    2     -0.40      0.00
    4   18    2     -4.10      0.00
   -4   19    2      0.02      0.00
   -3   19    2     -2.09      0.00
   -2   19    2     -2.32      0.00
   -1   19    2     -0.47      0.00
    0   19    2      4.30      0.00
    1   19    2     -5.91      0.00
    2   19    2      0.40      0.00
    3   19    2      6.33      0.00
   -2   20    2      3.54      0.00
   -1   20    2     -6.41      0.00
    0   20    2     -1.75      0.00
    1   20    2      0.80      0.00
    2   20    2     -1.08      0.00
  -10    1    3      0.78      0.00
   -9    1    3      5.68      0.00
   -8    1    3     -7.25      0.00
   -7    1    3     -4.49      0.00
   -6    1    3     -2.12      0.00
   -5    1    3      2.14      0.00
   -4    1    3      2.89      0.00
   -3    1    3      1.03      0.00
   -2    1    3    -13.78      0.00
   -1    1    3      9.01      0.00
    1    1    3     -8.57      0.00
    2    1    3     -3.93      0.00
    3    1    3      0.28      0.00
    4    1    3      1.03      0.00
    5    1    3      4.48      0.00
    6    1    3      1.94      0.00
    7    1    3      0.17      0.00
    8    1    3      5.51      0.00
    9    1    3     10.03      0.00
  -10    2    3     -3.05      0.00
   -9    2    3      5.01      0.00
   -8    2    3      1.72      0.00
   -7    2    3      0.19      0.00
   -6    2    3      0.02      0.00
   -5    2    3     -1.37      0.00
   -4    2    3     -2.09      0.00
   -3    2    3      8.73      0.00
   -2    2    3     -8.40      0.00
   -1    2    3    -16.58      0.00
    0    2    3      8.84      0.00
    1    2    3    -12.11      0.00
    2    2    3     -5.97      0.00
    3    2    3      1.74      0.00
    4    2    3     -3.36      0.00
    5    2    3      2.72      0.00
    6    2    3      5.05      0.00
    7    2    3     -1.55      0.00
    8    2    3      3.44      0.00
    9    2    3      3.61      0.00
  -10    3    3      8.43      0.00
   -9    3    3     -7.56      0.00
   -8    3    3      3.54      0.00
   -7    3    3      0.06      0.00
   -6    3    3      0.88      0.00
   -5    3    3      3.45      0.00
   -4    3    3     -0.24      0.00
   -3    3    3      1.87      0.00
   -2    3    3      2.15      0.00
   -1    3    3     -6.38      0.00
    1    3    3     13.89      0.00
    2    3    3     -4.73      0.00
    3    3    3      2.70      0.00
    4    3    3     -0.14      0.00
    5    3    3     -0.01      0.00
    6    3    3     -3.51      0.00
    7    3    3      1.57      0.00
    8    3    3      5.61      0.00
    9    3    3      7.35      0.00
   -9    4    3      5.68      0.00
   -8    4    3     -1.94      0.00
   -7    4    3      3.74      0.00
   -6    4    3     -0.71      0.00
   -5    4    3      1.77      0.00
   -4    4    3      0.14      0.00
   -3    4    3      1.49      0.00
   -2    4    3     -2.20      0.00
   -1    4    3     -4.99      0.00
    0    4    3     -9.64      0.00
    1    4    3     -1.62      0.00
    2    4    3      0.47      0.00
    3    4    3      0.18      0.00
    4    4    3     -0.45      0.00
    5    4    3      5.32      0.00
    6    4    3      2.06      0.00
    7    4    3     -0.56      0.00
    8    4    3      4.45      0.00
    9    4    3      3.65      0.00
   -9    5    3     -5.50      0.00
   -8    5    3      0.40      0.00
   -7    5    3      4.07      0.00
   -6    5    3      0.62      0.00
   -5    5    3     -0.95      0.00
   -4    5    3     -1.44      0.00
   -3    5    3     -0.87      0.00
   -2    5    3      4.26      0.00
   -1    5    3     -1.62      0.00
    0    5    3    -11.68      0.00
    1    5    3      7.26      0.00
    2    5    3      0.03      0.00
    3    5    3     -1.56      0.00
    4    5    3     -1.67      0.00
    5    5    3      0.92      0.00
    6    5    3     -2.17      0.00
    7    5    3     -0.34      0.00
    8    5    3      1.26      0.00
    9    5    3      2.87      0.00
   -9    6    3      0.53      0.00
   -8    6    3      5.50      0.00
   -7    6    3      4.03      0.00
   -6    6    3      1.43      0.00
   -5    6    3      1.57      0.00
   -4    6    3     -0.40      0.00
   -3    6    3     -3.99      0.00
   -2    6    3     -1.46      0.00
   -1    6    3     -5.12      0.00
    0    6    3     -5.64      0.00
    1    6    3      3.68      0.00
    2    6    3      0.69      0.00
    3    6    3     -0.61      0.00
    4    6    3      1.51      0.00
    5    6    3      2.86      0.00
    6    6    3      0.56      0.00
    7    6    3     -1.98      0.00
    8    6    3      0.55      0.00
    9    6    3     -2.86      0.00
   -9    7    3     -0.48      0.00
   -8    7    3     -1.80      0.00
   -7    7    3      2.40      0.00
   -6    7    3      0.47      0.00
   -5    7    3      1.06      0.00
   -4    7    3     -0.32      0.00
   -3    7    3     -0.70      0.00
   -2    7    3      1.53      0.00
   -1    7    3     -2.71      0.00
    0    7    3      1.74      0.00
    1    7    3     -0.50      0.00
    2    7    3     -2.95      0.00
    3    7    3     -3.13      0.00
    4    7    3     -0.91      0.00
    5    7    3      5.27      0.00
    6    7    3      1.16      0.00
    7    7    3      3.96      0.00
    8    7    3      1.49      0.00
    9    7    3     -0.67      0.00
   -9    8    3     -6.51      0.00
   -8    8    3     11.30      0.00
   -7    8    3     -0.07      0.00
   -6    8    3     -3.03      0.00
   -5    8    3     -3.27      0.00
   -4    8    3      1.73      0.00
   -3    8    3      0.48      0.00
   -2    8    3     -0.48      0.00
   -1    8    3     -1.11      0.00
    0    8    3     -3.04      0.00
    1    8    3      0.39      0.00
    2    8    3     -0.28      0.00
    3    8    3      0.18      0.00
    4    8    3     -1.27      0.00
    5    8    3      1.59      0.00
    6    8    3     -0.21      0.00
    7    8    3     -4.90      0.00
    8    8    3      4.45      0.00
    9    8    3     -3.50      0.00
   -9    9    3     -5.76      0.00
   -8    9    3      1.90      0.00
   -7    9    3      1.67      0.00
   -6    9    3      1.62      0.00
   -5    9    3      3.24      0.00
   -4    9    3      0.39      0.00
   -3    9    3      1.78      0.00
   -2    9    3      0.62      0.00
   -1    9    3      0.27      0.00
    0    9    3     -1.87      0.00
    1    9    3     -3.77      0.00
    2    9    3     -1.95      0.00
    3    9    3      1.12      0.00
    4    9    3      1.38      0.00
    5    9    3      2.02      0.00
    6    9    3      2.26      0.00
    7    9    3      5.07      0.00
    8    9    3      5.09      0.00
   -8   10    3      1.86      0.00
   -7   10    3     -2.94      0.00
   -6   10    3     -5.29      0.00
   -5   10    3     -3.80      0.00
   -4   10    3      4.60      0.00
   -3   10    3      4.41      0.00
   -2   10    3      1.76      0.00
   -1   10    3      0.34      0.00
    0   10    3      0.28      0.00
    1   10    3      2.99      0.00
    2   10    3      0.93      0.00
    3   10    3     -0.42      0.00
    4   10    3     -0.23      0.00
    5   10    3      0.97      0.00
    6   10    3     -1.48      0.00
    7   10    3     -1.31      0.00
    8   10    3      9.16      0.00
   -8   11    3      1.55      0.00
   -7   11    3      0.92      0.00
   -6   11    3     -0.73      0.00
   -5   11    3      2.63      0.00
   -4   11    3     -0.21      0.00
   -3   11    3     -1.25      0.00
   -2   11    3      2.25      0.00
   -1   11    3      2.03      0.00
    0   11    3      1.39      0.00
    1   11    3     -2.85      0.00
    2   11    3      1.80      0.00
    3   11    3     -1.00      0.00
    4   11    3     -1.27      0.00
    5   11    3     -0.51      0.00
    6   11    3      2.65      0.00
    7   11    3      2.58      0.00
    8   11    3      2.02      0.00
   -8   12    3     -0.65      0.00
   -7   12    3      2.06      0.00
   -6   12    3     -4.21      0.00
   -5   12    3     -2.74      0.00
   -4   12    3      2.01      0.00
   -3   12    3      2.51      0.00
   -2   12    3     -0.10      0.00
   -1   12    3     -2.27      0.00
    0   12    3      2.21      0.00
    1   12    3      2.70      0.00
    2   12    3      2.57      0.00
    3   12    3     -2.47      0.00
    4   12    3      0.06      0.00
    5   12    3      0.59      0.00
    6   12    3     -3.22      0.00
    7   12    3      5.37      0.00
    8   12    3      6.11      0.00
   -7   13    3     -1.36      0.00
   -6   13    3      0.29      0.00
   -5   13    3      3.91      0.00
   -4   13    3     -2.96      0.00
   -3   13    3      0.54      0.00
   -2   13    3      0.55      0.00
   -1   13    3      1.12      0.00
    0   13    3     -0.42      0.00
    1   13    3     -4.23      0.00
    2   13    3      1.05      0.00
    3   13    3     -4.13      0.00
    4   13    3     -4.59      0.00
    5   13    3      2.64      0.00
    6   13    3      5.02      0.00
    7   13    3     -2.35      0.00
   -7   14    3      5.28      0.00
   -6   14    3     -7.06      0.00
   -5   14    3     -1.41      0.00
   -4   14    3      0.70      0.00
   -3   14    3     -0.01      0.00
   -2   14    3      2.12      0.00
   -1   14    3     -0.40      0.00
    0   14    3      2.18      0.00
    1   14    3     -3.81      0.00
    2   14    3      1.76      0.00
    3   14    3     -3.50      0.00
    4   14    3     -3.50      0.00
    5   14    3      0.34      0.00
    6   14    3     -0.80      0.00
    7   14    3      5.59      0.00
   -6   15    3      3.83      0.00
   -5   15    3     -0.44      0.00
   -4   15    3      0.54      0.00
   -3   15    3      3.99      0.00
   -2   15    3      1.05      0.00
   -1   15    3      3.35      0.00
    0   15    3     -2.44      0.00
    1   15    3     -4.04      0.00
    2   15    3     -0.94      0.00
    3   15    3     -0.95      0.00
    4   15    3     -2.40      0.00
    5   15    3      4.50      0.00
    6   15    3     -0.24      0.00
   -6   16    3     -4.22      0.00
   -5   16    3     -2.65      0.00
   -4   16    3     -0.89      0.00
   -3   16    3      1.59      0.00
   -2   16    3      0.18      0.00
   -1   16    3     -1.75      0.00
    0   16    3      0.56      0.00
    1   16    3     -0.45      0.00
    2   16    3      0.27      0.00
    3   16    3     -2.77      0.00
    4   16    3     -1.96      0.00
    5   16    3      3.59      0.00
    6   16    3      3.47      0.00
   -5   17    3     -0.05      0.00
   -4   17    3     -0.37      0.00
   -3   17    3      1.05      0.00
   -2   17    3      2.88      0.00
   -1   17    3      1.52      0.00
    0   17    3     -2.46      0.00
    1   17    3     -3.76      0.00
    2   17    3      3.85      0.00
    3   17    3     -2.30      0.00
    4   17    3     -1.95      0.00
    5   17    3      3.61      0.00
   -4   18    3     -2.01      0.00
   -3   18    3     -1.62      0.00
   -2   18    3     -5.45      0.00
   -1   18    3     -4.40      0.00
    0   18    3      3.23      0.00
    1   18    3     -6.84      0.00
    2   18    3      0.85      0.00
    3   18    3      2.13      0.00
    4   18    3     -0.57      0.00
   -3   19    3     -2.79      0.00
   -2   19    3      2.20      0.00
   -1   19    3     -5.16      0.00
    0   19    3     -0.05      0.00
    1   19    3     -1.58      0.00
    2   19    3      1.10      0.00
    3   19    3     -2.48      0.00
   -2   20    3     -3.66      0.00
   -1   20    3     -1.96      0.00
    0   20    3      2.56      0.00
    1   20    3    -10.26      0.00
    2   20    3      0.70      0.00
  -10    0    4     -3.88      0.00
   -9    0    4      4.51      0.00
   -8    0    4     -7.53      0.00
   -7    0    4     -4.32      0.00
   -6    0    4     -4.62      0.00
   -5    0    4      2.33      0.00
   -4    0    4      5.05      0.00
   -3    0    4      0.34      0.00
   -2    0    4     -7.03      0.00
   -1    0    4     10.71      0.00
    1    0    4     -7.17      0.00
    2    0    4     -3.49      0.00
    3    0    4     -1.17      0.00
    4    0    4      0.94      0.00
    5    0    4      2.49      0.00
    6    0    4      0.85      0.00
    7    0    4     -1.10      0.00
    8    0    4      6.89      0.00
    9    0    4     11.99      0.00
  -10    1    4     -0.58      0.00
   -9    1    4      2.89      0.00
   -8    1    4      0.46      0.00
   -7    1    4      0.96      0.00
   -6    1    4      0.11      0.00
   -5    1    4     -1.53      0.00
   -4    1    4     -0.69      0.00
   -3    1    4      5.59      0.00
   -2    1    4     -7.50      0.00
   -1    1    4     -0.61      0.00
    0    1    4     13.61      0.00
    1    1    4     -9.11      0.00
    2    1    4     -1.11      0.00
    3    1    4      1.71      0.00
    4    1    4     -3.60      0.00
    5    1    4     -0.55      0.00
    6    1    4      2.75      0.00
    7    1    4     -3.99      0.00
    8    1    4      0.08      0.00
    9    1    4      0.32      0.00
  -10    2    4      3.80      0.00
   -9    2    4     -3.62      0.00
   -8    2    4      1.07      0.00
   -7    2    4     -2.00      0.00
   -6    2    4     -1.33      0.00
   -5    2    4      2.83      0.00
   -4    2    4     -0.21      0.00
   -3    2    4      2.16      0.00
   -2    2    4     -1.60      0.00
   -1    2    4     -5.75      0.00
    0    2    4    -12.08      0.00
    1    2    4      5.09      0.00
    2    2    4     -7.96      0.00
    3    2    4      1.56      0.00
    4    2    4      0.75      0.00
    5    2    4      0.71      0.00
    6    2    4     -2.41      0.00
    7    2    4      1.57      0.00
    8    2    4      6.20      0.00
    9    2    4      5.16      0.00
  -10    3    4     -2.76      0.00
   -9    3    4      6.45      0.00
   -8    3    4     -0.69      0.00
   -7    3    4      2.08      0.00
   -6    3    4     -0.89      0.00
   -5    3    4      1.95      0.00
   -4    3    4     -0.75      0.00
   -3    3    4      4.34      0.00
   -2    3    4     -5.67      0.00
   -1    3    4     -0.62      0.00
    0    3    4      4.75      0.00
    1    3    4     -2.92      0.00
    2    3    4     -1.14      0.00
    3    3    4     -1.14      0.00
    4    3    4     -4.38      0.00
    5    3    4      3.19      0.00
    6    3    4      1.23      0.00
    7    3    4     -4.91      0.00
    8    3    4      4.50      0.00
    9    3    4     -0.33      0.00
   -9    4    4    -10.08      0.00
   -8    4    4      6.59      0.00
   -7    4    4      4.99      0.00
   -6    4    4     -1.70      0.00
   -5    4    4      0.79      0.00
   -4    4    4     -2.18      0.00
   -3    4    4     -0.77      0.00
   -2    4    4      1.28      0.00
   -1    4    4     -7.08      0.00
    0    4    4    -15.06      0.00
    1    4    4      6.61      0.00
    2    4    4     -1.51      0.00
    3    4    4     -0.34      0.00
    4    4    4     -1.63      0.00
    5    4    4      1.54      0.00
    6    4    4     -1.71      0.00
    7    4    4     -1.96      0.00
    8    4    4      2.45      0.00
    9    4    4      0.29      0.00
   -9    5    4      1.34      0.00
   -8    5    4     -0.90      0.00
   -7    5    4      5.38      0.00
   -6    5    4      0.50      0.00
   -5    5    4      3.21      0.00
   -4    5    4     -0.24      0.00
   -3    5    4     -0.65      0.00
   -2    5    4     -3.29      0.00
   -1    5    4     -4.75      0.00
    0    5    4     -4.59      0.00
    1    5    4      2.25      0.00
    2    5    4     -0.66      0.00
    3    5    4     -1.82      0.00
    4    5    4     -0.27      0.00
    5    5    4      3.05      0.00
    6    5    4      1.64      0.00
    7    5    4      0.65      0.00
    8    5    4      2.49      0.00
    9    5    4     -3.39      0.00
   -9    6    4      0.08      0.00
   -8    6    4     -3.43      0.00
   -7    6    4      5.07      0.00
   -6    6    4     -2.03      0.00
   -5    6    4     -0.42      0.00
   -4    6    4     -1.64      0.00
   -3    6    4     -1.62      0.00
   -2    6    4      2.57      0.00
   -1    6    4     -4.41      0.00
    0    6    4      2.06      0.00
    1    6    4      0.60      0.00
    2    6    4     -1.14      0.00
    3    6    4     -2.40      0.00
    4    6    4     -0.38      0.00
    5    6    4      4.44      0.00
    6    6    4      0.05      0.00
    7    6    4      1.31      0.00
    8    6    4     -0.48      0.00
    9    6    4     -0.22      0.00
   -9    7    4     -1.71      0.00
   -8    7    4      6.60      0.00
   -7    7    4      0.82      0.00
   -6    7    4     -0.18      0.00
   -5    7    4     -0.11      0.00
   -4    7    4     -0.63      0.00
   -3    7    4     -1.47      0.00
   -2    7    4      0.29      0.00
   -1    7    4     -4.42      0.00
    0    7    4     -3.96      0.00
    1    7    4      1.14      0.00
    2    7    4     -0.37      0.00
    3    7    4     -0.83      0.00
    4    7    4      0.44      0.00
    5    7    4      1.33      0.00
    6    7    4      1.92      0.00
    7    7    4     -1.99      0.00
    8    7    4      2.56      0.00
    9    7    4     -5.56      0.00
   -9    8    4      1.35      0.00
   -8    8    4     -0.09      0.00
   -7    8    4     -1.98      0.00
   -6    8    4     -1.75      0.00
   -5    8    4      1.97      0.00
   -4    8    4     -0.17      0.00
   -3    8    4     -1.81      0.00
   -2    8    4      1.52      0.00
   -1    8    4      1.69      0.00
    0    8    4      0.80      0.00
    1    8    4     -1.74      0.00
    2    8    4     -0.08      0.00
    3    8    4      1.78      0.00
    4    8    4      0.69      0.00
    5    8    4      3.30      0.00
    6    8    4      2.15      0.00
    7    8    4      7.11      0.00
    8    8    4      2.98      0.00
    9    8    4      1.21      0.00
   -9    9    4     -5.80      0.00
   -8    9    4      7.16      0.00
   -7    9    4     -4.25      0.00
   -6    9    4     -5.11      0.00
   -5    9    4     -2.47      0.00
   -4    9    4      4.25      0.00
   -3    9    4      3.34      0.00
   -2    9    4     -0.85      0.00
   -1    9    4      2.40      0.00
    0    9    4     -1.77      0.00
    1    9    4      0.27      0.00
    2    9    4     -0.05      0.00
    3    9    4      1.40      0.00
    4    9    4     -0.57      0.00
    5    9    4     -1.63      0.00
    6    9    4     -1.23      0.00
    7    9    4     -3.13      0.00
    8    9    4      4.69      0.00
   -8   10    4      2.81      0.00
   -7   10    4     -1.15      0.00
   -6   10    4     -0.25      0.00
   -5   10    4      1.73      0.00
   -4   10    4     -0.43      0.00
   -3   10    4     -2.07      0.00
   -2   10    4      2.41      0.00
   -1   10    4      2.64      0.00
    0   10    4      1.31      0.00
    1   10    4     -1.18      0.00
    2   10    4      1.88      0.00
    3   10    4      2.34      0.00
    4   10    4      1.70      0.00
    5   10    4      0.11      0.00
    6   10    4      1.38      0.00
    7   10    4      5.84      0.00
    8   10    4      3.32      0.00
   -8   11    4     -0.05      0.00
   -7   11    4     -5.07      0.00
   -6   11    4     -3.22      0.00
   -5   11    4     -0.74      0.00
   -4   11    4      6.12      0.00
   -3   11    4      2.14      0.00
   -2   11    4     -1.10      0.00
   -1   11    4     -0.27      0.00
    0   11    4     -0.58      0.00
    1   11    4      3.11      0.00
    2   11    4     -0.15      0.00
    3   11    4     -2.24      0.00
    4   11    4      1.04      0.00
    5   11    4     -1.90      0.00
    6   11    4     -3.11      0.00
    7   11    4      1.37      0.00
    8   11    4      4.63      0.00
   -8   12    4      3.84      0.00
   -7   12    4     -0.51      0.00
   -6   12    4      0.57      0.00
   -5   12    4      3.40      0.00
   -4   12    4     -2.53      0.00
   -3   12    4     -2.37      0.00
   -2   12    4      1.14      0.00
   -1   12    4      1.00      0.00
    0   12    4     -0.23      0.00
    1   12    4     -0.21      0.00
    2   12    4      2.39      0.00
    3   12    4     -3.64      0.00
    4   12    4     -1.48      0.00
    5   12    4      1.39      0.00
    6   12    4      3.29      0.00
    7   12    4     -0.05      0.00
   -7   13    4      0.96      0.00
   -6   13    4     -5.72      0.00
   -5   13    4      2.59      0.00
   -4   13    4      3.15      0.00
   -3   13    4     -1.07      0.00
   -2   13    4     -0.55      0.00
   -1   13    4      0.20      0.00
    0   13    4      0.47      0.00
    1   13    4     -2.94      0.00
    2   13    4      1.73      0.00
    3   13    4     -3.58      0.00
    4   13    4     -1.11      0.00
    5   13    4     -0.46      0.00
    6   13    4     -2.33      0.00
    7   13    4      6.10      0.00
   -7   14    4     -0.68      0.00
   -6   14    4     -0.41      0.00
   -5   14    4     -0.24      0.00
   -4   14    4     -2.68      0.00
   -3   14    4      1.87      0.00
   -2   14    4     -0.04      0.00
   -1   14    4      1.09      0.00
    0   14    4     -2.84      0.00
    1   14    4     -2.00      0.00
    2   14    4     -1.18      0.00
    3   14    4     -2.37      0.00
    4   14    4     -2.75      0.00
    5   14    4      4.36      0.00
    6   14    4      1.73      0.00
    7   14    4     -2.27      0.00
   -6   15    4     -5.65      0.00
   -5   15    4      1.24      0.00
   -4   15    4     -1.08      0.00
   -3   15    4     -2.72      0.00
   -2   15    4      0.42      0.00
   -1   15    4      0.48      0.00
    0   15    4     -0.50      0.00
    1   15    4     -1.88      0.00
    2   15    4      1.46      0.00
    3   15    4     -2.52      0.00
    4   15    4     -1.90      0.00
    5   15    4      0.38      0.00
    6   15    4      3.25      0.00
   -6   16    4     -0.77      0.00
   -5   16    4     -2.74      0.00
   -4   16    4      1.30      0.00
   -3   16    4      1.20      0.00
   -2   16    4     -0.46      0.00
   -1   16    4      0.76      0.00
    0   16    4     -3.73      0.00
    1   16    4     -4.55      0.00
    2   16    4     -0.07      0.00
    3   16    4     -1.61      0.00
    4   16    4      0.38      0.00
    5   16    4      1.41      0.00
    6   16    4     -1.82      0.00
   -5   17    4     -3.77      0.00
   -4   17    4     -3.95      0.00
   -3   17    4     -2.59      0.00
   -2   17    4     -5.90      0.00
   -1   17    4     -3.46      0.00
    0   17    4      0.34      0.00
    1   17    4     -2.80      0.00
    2   17    4      1.95      0.00
    3   17    4     -0.27      0.00
    4   17    4      3.13      0.00
    5   17    4      2.84      0.00
   -4   18    4      0.68      0.00
   -3   18    4     -1.37      0.00
   -2   18    4     -1.64      0.00
   -1   18    4     -2.71      0.00
    0   18    4     -0.45      0.00
    1   18    4     -3.93      0.00
    2   18    4      2.82      0.00
    3   18    4     -5.34      0.00
    4   18    4     -2.46      0.00
   -3   19    4     -4.74      0.00
   -2   19    4     -6.85      0.00
   -1   19    4     -4.82      0.00
    0   19    4      4.56      0.00
    1   19    4    -12.39      0.00
    2   19    4      2.99      0.00
    3   19    4      3.07      0.00
   -2   20    4     -1.06      0.00
   -1   20    4     -2.29      0.00
    0   20    4      4.54      0.00
    1   20    4      0.49      0.00
  -10    1    5     -3.60      0.00
   -9    1    5      0.00      0.00
   -8    1    5     -0.56      0.00
   -7    1    5     -3.99      0.00
   -6    1    5     -0.31      0.00
   -5    1    5      2.40      0.00
   -4    1    5      2.19      0.00
   -3    1    5      0.21      0.00
   -2    1    5     -0.97      0.00
   -1    1    5      3.75      0.00
    1    1    5     -0.63      0.00
    2    1    5     -3.88      0.00
    3    1    5     -1.33      0.00
    4    1    5      1.52      0.00
    5    1    5     -3.52      0.00
    6    1    5     -3.53      0.00
    7    1    5     -0.87      0.00
    8    1    5      5.88      0.00
    9    1    5      3.66      0.00
  -10    2    5      0.03      0.00
   -9    2    5      4.48      0.00
   -8    2    5     -1.00      0.00
   -7    2    5      0.64      0.00
   -6    2    5     -0.48      0.00
   -5    2    5      0.27      0.00
   -4    2    5      0.29      0.00
   -3    2    5      3.45      0.00
   -2    2    5     -9.02      0.00
   -1    2    5      3.55      0.00
    0    2    5     10.23      0.00
    1    2    5     -6.94      0.00
    2    2    5     -0.63      0.00
    3    2    5     -1.33      0.00
    4    2    5     -4.87      0.00
    5    2    5      0.01      0.00
    6    2    5      0.62      0.00
    7    2    5     -8.80      0.00
    8    2    5      0.05      0.00
    9    2    5     -2.14      0.00
   -9    3    5     -9.41      0.00
   -8    3    5      7.66      0.00
   -7    3    5      0.58      0.00
   -6    3    5     -0.98      0.00
   -5    3    5      0.37      0.00
   -4    3    5     -2.98      0.00
   -3    3    5      0.95      0.00
   -2    3    5     -0.77      0.00
   -1    3    5     -6.95      0.00
    0    3    5     -3.24      0.00
    1    3    5     -0.54      0.00
    2    3    5     -5.23      0.00
    3    3    5     -1.24      0.00
    4    3    5     -0.46      0.00
    5    3    5      0.18      0.00
    6    3    5     -0.82      0.00
    7    3    5     -0.63      0.00
    8    3    5      4.10      0.00
    9    3    5     -5.79      0.00
   -9    4    5      1.78      0.00
   -8    4    5     -1.47      0.00
   -7    4    5      2.33      0.00
   -6    4    5     -0.98      0.00
   -5    4    5      3.63      0.00
   -4    4    5      1.13      0.00
   -3    4    5      1.36      0.00
   -2    4    5     -5.29      0.00
   -1    4    5     -2.93      0.00
    0    4    5     -0.89      0.00
    1    4    5      1.51      0.00
    2    4    5     -1.67      0.00
    3    4    5     -4.38      0.00
    4    4    5     -2.71      0.00
    5    4    5      1.27      0.00
    6    4    5     -0.86      0.00
    7    4    5     -1.69      0.00
    8    4    5      2.32      0.00
    9    4    5     -5.87      0.00
   -9    5    5     -4.81      0.00
   -8    5    5     -0.48      0.00
   -7    5    5      6.48      0.00
   -6    5    5     -3.49      0.00
   -5    5    5     -1.32      0.00
   -4    5    5     -2.86      0.00
   -3    5    5      0.76      0.00
   -2    5    5      0.61      0.00
   -1    5    5     -4.61      0.00
    0    5    5      2.81      0.00
    1    5    5     -2.17      0.00
    2    5    5     -0.38      0.00
    3    5    5     -1.90      0.00
    4    5    5      0.73      0.00
    5    5    5      4.13      0.00
    6    5    5      1.16      0.00
    7    5    5     -2.97      0.00
    8    5    5      1.45      0.00
    9    5    5     -4.01      0.00
   -9    6    5     -1.06      0.00
   -8    6    5     -0.03      0.00
   -7    6    5      2.60      0.00
   -6    6    5     -0.17      0.00
   -5    6    5      0.52      0.00
   -4    6    5     -1.68      0.00
   -3    6    5     -0.22      0.00
   -2    6    5      1.19      0.00
   -1    6    5     -5.85      0.00
    0    6    5     -3.30      0.00
    1    6    5      0.31      0.00
    2    6    5      0.45      0.00
    3    6    5     -3.48      0.00
    4    6    5      0.84      0.00
    5    6    5     -0.22      0.00
    6    6    5      4.23      0.00
    7    6    5      1.33      0.00
    8    6    5      1.81      0.00
    9    6    5     -6.81      0.00
   -9    7    5      6.57      0.00
   -8    7    5     -6.51      0.00
   -7    7    5      0.21      0.00
   -6    7    5     -2.67      0.00
   -5    7    5      1.44      0.00
   -4    7    5     -2.38      0.00
   -3    7    5     -1.80      0.00
   -2    7    5      2.43      0.00
   -1    7    5      0.72      0.00
    0    7    5      4.19      0.00
    1    7    5      0.02      0.00
    2    7    5      0.83      0.00
    3    7    5      2.28      0.00
    4    7    5      1.82      0.00
    5    7    5      1.81      0.00
    6    7    5      0.46      0.00
    7    7    5      3.44      0.00
    8    7    5      0.24      0.00
    9    7    5      1.48      0.00
   -9    8    5     -0.79      0.00
   -8    8    5      5.83      0.00
   -7    8    5     -2.15      0.00
   -6    8    5     -2.92      0.00
   -5    8    5     -2.37      0.00
   -4    8    5      0.72      0.00
   -3    8    5     -0.70      0.00
   -2    8    5      1.76      0.00
   -1    8    5      0.64      0.00
    0    8    5     -3.62      0.00
    1    8    5     -0.90      0.00
    2    8    5     -0.18      0.00
    3    8    5      0.42      0.00
    4    8    5     -0.40      0.00
    5    8    5     -1.91      0.00
    6    8    5      4.11      0.00
    7    8    5     -2.46      0.00
    8    8    5      2.13      0.00
   -9    9    5      5.30      0.00
   -8    9    5     -0.90      0.00
   -7    9    5     -4.94      0.00
   -6    9    5     -1.19      0.00
   -5    9    5      2.07      0.00
   -4    9    5     -1.86      0.00
   -3    9    5     -2.73      0.00
   -2    9    5      1.87      0.00
   -1    9    5      4.94      0.00
    0    9    5     -0.40      0.00
    1    9    5      0.98      0.00
    2    9    5      1.94      0.00
    3    9    5      4.68      0.00
    4    9    5      1.97      0.00
    5    9    5     -2.14      0.00
    6    9    5      0.82      0.00
    7    9    5      7.55      0.00
    8    9    5      2.53      0.00
   -8   10    5      5.67      0.00
   -7   10    5     -6.52      0.00
   -6   10    5     -1.72      0.00
   -5   10    5      0.01      0.00
   -4   10    5      5.62      0.00
   -3   10    5     -0.29      0.00
   -2   10    5     -1.88      0.00
   -1   10    5      1.44      0.00
    0   10    5     -2.16      0.00
    1   10    5      0.24      0.00
    2   10    5     -2.41      0.00
    3   10    5     -0.50      0.00
    4   10    5     -0.23      0.00
    5   10    5     -4.17      0.00
    6   10    5      0.28      0.00
    7   10    5     -1.17      0.00
    8   10    5      1.64      0.00
   -8   11    5      1.39      0.00
   -7   11    5     -0.21      0.00
   -6   11    5      0.56      0.00
   -5   11    5      3.25      0.00
   -4   11    5     -1.25      0.00
   -3   11    5     -3.32      0.00
   -2   11    5      2.11      0.00
   -1   11    5     -0.23      0.00
    0   11    5     -0.42      0.00
    1   11    5      3.01      0.00
    2   11    5      1.59      0.00
    3   11    5      0.03      0.00
    4   11    5      2.54      0.00
    5   11    5     -1.71      0.00
    6   11    5      2.03      0.00
    7   11    5      3.22      0.00
    8   11    5     -0.39      0.00
   -8   12    5      0.15      0.00
   -7   12    5     -4.80      0.00
   -6   12    5     -1.00      0.00
   -5   12    5      2.43      0.00
   -4   12    5      5.83      0.00
   -3   12    5     -3.00      0.00
   -2   12    5     -0.84      0.00
   -1   12    5     -0.03      0.00
    0   12    5     -1.27      0.00
    1   12    5     -1.59      0.00
    2   12    5     -1.15      0.00
    3   12    5     -3.07      0.00
    4   12    5     -0.23      0.00
    5   12    5     -2.48      0.00
    6   12    5     -1.58      0.00
    7   12    5      4.99      0.00
   -7   13    5      1.35      0.00
   -6   13    5      0.02      0.00
   -5   13    5     -0.15      0.00
   -4   13    5     -4.05      0.00
   -3   13    5     -1.26      0.00
   -2   13    5     -0.01      0.00
   -1   13    5     -1.29      0.00
    0   13    5     -3.27      0.00
    1   13    5      4.29      0.00
    2   13    5     -0.31      0.00
    3   13    5     -1.22      0.00
    4   13    5      0.80      0.00
    5   13    5      1.11      0.00
    6   13    5      2.02      0.00
    7   13    5     -1.89      0.00
   -7   14    5     -2.44      0.00
   -6   14    5     -4.04      0.00
   -5   14    5      5.13      0.00
   -4   14    5     -1.73      0.00
   -3   14    5     -5.35      0.00
   -2   14    5      0.19      0.00
   -1   14    5      2.15      0.00
    0   14    5     -2.21      0.00
    1   14    5     -3.87      0.00
    2   14    5      1.02      0.00
    3   14    5     -2.92      0.00
    4   14    5     -3.16      0.00
    5   14    5     -0.73      0.00
    6   14    5      1.12      0.00
   -6   15    5     -7.21      0.00
   -5   15    5     -4.57      0.00
   -4   15    5     -1.77      0.00
   -3   15    5     -2.01      0.00
   -2   15    5     -1.62      0.00
   -1   15    5     -1.31      0.00
    0   15    5     -2.82      0.00
    1   15    5     -0.98      0.00
    2   15    5     -0.56      0.00
    3   15    5      2.85      0.00
    4   15    5      1.78      0.00
    5   15    5     -0.09      0.00
    6   15    5     -0.42      0.00
   -6   16    5     -1.35      0.00
   -5   16    5     -1.79      0.00
   -4   16    5     -5.02      0.00
   -3   16    5     -4.42      0.00
   -2   16    5     -3.44      0.00
   -1   16    5     -0.40      0.00
    0   16    5     -2.09      0.00
    1   16    5     -0.12      0.00
    2   16    5      0.45      0.00
    3   16    5     -0.42      0.00
    4   16    5      1.28      0.00
    5   16    5     -0.33      0.00
   -5   17    5     -1.57      0.00
   -4   17    5      0.44      0.00
   -3   17    5     -2.27      0.00
   -2   17    5     -4.52      0.00
   -1   17    5     -3.13      0.00
    0   17    5     -1.15      0.00
    1   17    5     -2.78      0.00
    2   17    5      2.53      0.00
    3   17    5     -1.74      0.00
    4   17    5      2.97      0.00
    5   17    5     -1.34      0.00
   -4   18    5     -3.79      0.00
   -3   18    5     -4.19      0.00
   -2   18    5     -5.92      0.00
   -1   18    5     -2.42      0.00
    0   18    5      2.73      0.00
    1   18    5     -6.90      0.00
    2   18    5      5.41      0.00
    3   18    5      4.00      0.00
    4   18    5      4.99      0.00
   -3   19    5     -1.52      0.00
   -2   19    5     -5.24      0.00
   -1   19    5     -0.43      0.00
    0   19    5      6.32      0.00
    1   19    5     -0.73      0.00
    2   19    5      1.51      0.00
    3   19    5     -4.02      0.00
   -1   20    5     -3.38      0.00
    0   20    5      6.55      0.00
    1   20    5     -9.36      0.00
  -10    0    6     -6.87      0.00
   -9    0    6      2.46      0.00
   -8    0    6      0.43      0.00
   -7    0    6     -7.00      0.00
   -6    0    6      3.12      0.00
   -5    0    6      2.71      0.00
   -4    0    6      2.74      0.00
   -3    0    6     -2.77      0.00
   -2    0    6     -0.90      0.00
   -1    0    6      3.89      0.00
    0    0    6     -0.37      0.00
    1    0    6      0.35      0.00
    2    0    6     -1.25      0.00
    3    0    6     -2.20      0.00
    4    0    6      3.33      0.00
    5    0    6     -7.43      0.00
    6    0    6     -6.78      0.00
    7    0    6     -1.46      0.00
    8    0    6      4.84      0.00
    9    0    6     -0.40      0.00
   -9    1    6      0.29      0.00
   -8    1    6     -1.02      0.00
   -7    1    6     -0.61      0.00
   -6    1    6     -0.96      0.00
   -5    1    6     -1.24      0.00
   -4    1    6      1.40      0.00
   -3    1    6      0.90      0.00
   -2    1    6     -5.58      0.00
   -1    1    6      3.07      0.00
    0    1    6      3.01      0.00
    1    1    6     -5.43      0.00
    2    1    6      0.36      0.00
    3    1    6     -1.00      0.00
    4    1    6     -2.34      0.00
    5    1    6      0.18      0.00
    6    1    6      1.24      0.00
    7    1    6     -6.65      0.00
    8    1    6     -0.65      0.00
    9    1    6      1.22      0.00
   -9    2    6     -4.37      0.00
   -8    2    6      4.04      0.00
   -7    2    6     -4.41      0.00
   -6    2    6      2.04      0.00
   -5    2    6     -0.87      0.00
   -4    2    6     -0.77      0.00
   -3    2    6      1.12      0.00
   -2    2    6     -1.66      0.00
   -1    2    6     -0.86      0.00
    0    2    6      5.79      0.00
    1    2    6     -5.04      0.00
    2    2    6     -4.41      0.00
    3    2    6     -1.30      0.00
    4    2    6      0.76      0.00
    5    2    6     -4.29      0.00
    6    2    6     -2.43      0.00
    7    2    6      0.13      0.00
    8    2    6      2.79      0.00
    9    2    6     -7.27      0.00
   -9    3    6      0.10      0.00
   -8    3    6     -1.43      0.00
   -7    3    6     -2.12      0.00
   -6    3    6     -1.22      0.00
   -5    3    6      0.99      0.00
   -4    3    6      1.36      0.00
   -3    3    6      1.70      0.00
   -2    3    6     -6.18      0.00
   -1    3    6     -2.02      0.00
    0    3    6      1.81      0.00
    1    3    6     -1.50      0.00
    2    3    6     -2.47      0.00
    3    3    6     -3.65      0.00
    4    3    6     -1.96      0.00
    5    3    6      0.48      0.00
    6    3    6     -2.21      0.00
    7    3    6     -5.21      0.00
    8    3    6     -0.08      0.00
    9    3    6     -3.75      0.00
   -9    4    6     -6.83      0.00
   -8    4    6      2.22      0.00
   -7    4    6      1.45      0.00
   -6    4    6     -2.51      0.00
   -5    4    6     -3.00      0.00
   -4    4    6     -2.60      0.00
   -3    4    6      3.10      0.00
   -2    4    6      1.08      0.00
   -1    4    6     -2.47      0.00
    0    4    6      6.74      0.00
    1    4    6     -4.93      0.00
    2    4    6     -2.45      0.00
    3    4    6     -2.39      0.00
    4    4    6      0.19      0.00
    5    4    6      3.84      0.00
    6    4    6      2.46      0.00
    7    4    6     -2.96      0.00
    8    4    6      3.93      0.00
    9    4    6     -9.78      0.00
   -9    5    6     -3.93      0.00
   -8    5    6      0.78      0.00
   -7    5    6      1.19      0.00
   -6    5    6     -2.70      0.00
   -5    5    6      0.18      0.00
   -4    5    6     -0.23      0.00
   -3    5    6      0.90      0.00
   -2    5    6      0.47      0.00
   -1    5    6     -3.57      0.00
    0    5    6     -2.82      0.00
    1    5    6      0.28      0.00
    2    5    6      1.86      0.00
    3    5    6     -4.41      0.00
    4    5    6      0.32      0.00
    5    5    6     -1.50      0.00
    6    5    6      1.72      0.00
    7    5    6      0.39      0.00
    8    5    6     -0.30      0.00
    9    5    6     -6.53      0.00
   -9    6    6      3.08      0.00
   -8    6    6     -9.20      0.00
   -7    6    6      4.89      0.00
   -6    6    6     -2.02      0.00
   -5    6    6     -1.08      0.00
   -4    6    6     -2.51      0.00
   -3    6    6      2.75      0.00
   -2    6    6      0.54      0.00
   -1    6    6     -0.18      0.00
    0    6    6      6.90      0.00
    1    6    6     -0.94      0.00
    2    6    6      0.22      0.00
    3    6    6      1.99      0.00
    4    6    6      2.78      0.00
    5    6    6      1.14      0.00
    6    6    6      1.15      0.00
    7    6    6     -0.80      0.00
    8    6    6      0.90      0.00
    9    6    6     -1.76      0.00
   -9    7    6     -0.19      0.00
   -8    7    6      1.08      0.00
   -7    7    6      2.40      0.00
   -6    7    6     -2.96      0.00
   -5    7    6     -4.04      0.00
   -4    7    6     -3.20      0.00
   -3    7    6     -0.90      0.00
   -2    7    6      7.49      0.00
   -1    7    6     -2.35      0.00
    0    7    6     -3.21      0.00
    1    7    6     -1.16      0.00
    2    7    6      0.78      0.00
    3    7    6     -1.80      0.00
    4    7    6      0.86      0.00
    5    7    6     -1.43      0.00
    6    7    6      7.82      0.00
    7    7    6     -2.78      0.00
    8    7    6      1.52      0.00
   -9    8    6     10.78      0.00
   -8    8    6     -8.01      0.00
   -7    8    6     -3.42      0.00
   -6    8    6      1.19      0.00
   -5    8    6      2.91      0.00
   -4    8    6     -2.98      0.00
   -3    8    6     -2.22      0.00
   -2    8    6      1.95      0.00
   -1    8    6      5.73      0.00
    0    8    6     -1.27      0.00
    1    8    6      2.74      0.00
    2    8    6      0.89      0.00
    3    8    6      4.10      0.00
    4    8    6      0.73      0.00
    5    8    6     -5.83      0.00
    6    8    6      0.10      0.00
    7    8    6      4.36      0.00
    8    8    6     -0.04      0.00
   -8    9    6      7.88      0.00
   -7    9    6     -2.31      0.00
   -6    9    6     -2.58      0.00
   -5    9    6     -2.16      0.00
   -4    9    6      2.29      0.00
   -3    9    6     -3.14      0.00
   -2    9    6      1.37      0.00
   -1    9    6      1.95      0.00
    0    9    6     -2.80      0.00
    1    9    6     -2.59      0.00
    2    9    6     -3.23      0.00
    3    9    6      0.13      0.00
    4    9    6     -1.32      0.00
    5    9    6     -2.13      0.00
    6    9    6      7.73      0.00
    7    9    6     -3.76      0.00
    8    9    6      0.61      0.00
   -8   10    6     -3.53      0.00
   -7   10    6     -1.92      0.00
   -6   10    6      1.04      0.00
   -5   10    6      3.69      0.00
   -4   10    6     -1.41      0.00
   -3   10    6     -0.36      0.00
   -2   10    6      1.71      0.00
   -1   10    6      1.76      0.00
    0   10    6     -0.46      0.00
    1   10    6      3.16      0.00
    2   10    6      0.37      0.00
    3   10    6      2.15      0.00
    4   10    6      1.01      0.00
    5   10    6     -7.40      0.00
    6   10    6      1.13      0.00
    7   10    6      5.42      0.00
    8   10    6      0.22      0.00
   -8   11    6      4.50      0.00
   -7   11    6     -4.13      0.00
   -6   11    6      0.67      0.00
   -5   11    6      0.53      0.00
   -4   11    6      4.90      0.00
   -3   11    6     -3.93      0.00
   -2   11    6      1.09      0.00
   -1   11    6     -1.06      0.00
    0   11    6      0.37      0.00
    1   11    6     -1.51      0.00
    2   11    6     -3.30      0.00
    3   11    6     -0.46      0.00
    4   11    6     -0.10      0.00
    5   11    6     -2.06      0.00
    6   11    6      2.49      0.00
    7   11    6      0.95      0.00
   -8   12    6     -1.09      0.00
   -7   12    6      3.36      0.00
   -6   12    6      2.31      0.00
   -5   12    6      1.50      0.00
   -4   12    6     -2.17      0.00
   -3   12    6     -1.23      0.00
   -2   12    6      2.05      0.00
   -1   12    6     -3.32      0.00
    0   12    6     -2.25      0.00
    1   12    6      7.25      0.00
    2   12    6     -0.83      0.00
    3   12    6     -0.31      0.00
    4   12    6      1.87      0.00
    5   12    6     -4.75      0.00
    6   12    6      1.96      0.00
    7   12    6     -1.35      0.00
   -7   13    6     -4.12      0.00
   -6   13    6     -1.21      0.00
   -5   13    6      2.85      0.00
   -4   13    6     -0.39      0.00
   -3   13    6     -6.62      0.00
   -2   13    6      1.76      0.00
   -1   13    6      1.99      0.00
    0   13    6     -1.18      0.00
    1   13    6     -3.14      0.00
    2   13    6      0.53      0.00
    3   13    6     -1.09      0.00
    4   13    6     -1.76      0.00
    5   13    6     -0.39      0.00
    6   13    6      0.50      0.00
    7   13    6      4.11      0.00
   -7   14    6      3.77      0.00
   -6   14    6     -5.38      0.00
   -5   14    6     -4.16      0.00
   -4   14    6     -3.50      0.00
   -3   14    6     -2.75      0.00
   -2   14    6     -0.57      0.00
   -1   14    6     -2.06      0.00
    0   14    6     -2.33      0.00
    1   14    6      3.89      0.00
    2   14    6     -0.38      0.00
    3   14    6      4.09      0.00
    4   14    6      2.12      0.00
    5   14    6     -2.92      0.00
    6   14    6     -0.42      0.00
   -6   15    6     -1.85      0.00
   -5   15    6      1.10      0.00
   -4   15    6     -6.64      0.00
   -3   15    6     -5.08      0.00
   -2   15    6     -0.22      0.00
   -1   15    6      2.02      0.00
    0   15    6     -2.63      0.00
    1   15    6     -0.58      0.00
    2   15    6     -1.18      0.00
    3   15    6     -1.45      0.00
    4   15    6     -3.29      0.00
    5   15    6      0.77      0.00
    6   15    6      1.54      0.00
   -6   16    6    -10.37      0.00
   -5   16    6     -2.62      0.00
   -4   16    6     -1.42      0.00
   -3   16    6     -4.16      0.00
   -2   16    6     -2.98      0.00
   -1   16    6     -3.21      0.00
    0   16    6     -0.03      0.00
    1   16    6      0.46      0.00
    2   16    6      3.43      0.00
    3   16    6      6.25      0.00
    4   16    6      5.12      0.00
    5   16    6     -3.20      0.00
   -5   17    6     -4.39      0.00
   -4   17    6     -4.39      0.00
   -3   17    6     -1.85      0.00
   -2   17    6     -1.77      0.00
   -1   17    6      0.87      0.00
    0   17    6     -0.51      0.00
    1   17    6     -0.89      0.00
    2   17    6      1.78      0.00
    3   17    6      2.46      0.00
    4   17    6      4.13      0.00
   -4   18    6      0.03      0.00
   -3   18    6     -1.12      0.00
   -2   18    6     -7.42      0.00
   -1   18    6     -0.21      0.00
    0   18    6      4.96      0.00
    1   18    6      1.39      0.00
    2   18    6      3.98      0.00
    3   18    6     -1.12      0.00
    4   18    6      5.46      0.00
   -3   19    6     -1.32      0.00
   -2   19    6     -1.93      0.00
   -1   19    6     -1.18      0.00
    0   19    6      5.41      0.00
    1   19    6     -7.31      0.00
    2   19    6      7.61      0.00
   -9    1    7      1.60      0.00
   -8    1    7     -0.03      0.00
   -7    1    7     -8.91      0.00
   -6    1    7      2.15      0.00
   -5    1    7     -0.08      0.00
   -4    1    7      0.91      0.00
   -3    1    7     -1.72      0.00
   -2    1    7     -1.41      0.00
   -1    1    7     -0.51      0.00
    0    1    7      1.79      0.00
    1    1    7     -0.37      0.00
    2    1    7     -1.99      0.00
    3    1    7      0.27      0.00
    4    1    7      3.35      0.00
    5    1    7     -5.67      0.00
    6    1    7     -5.54      0.00
    7    1    7      1.61      0.00
    8    1    7      2.49      0.00
    9    1    7     -3.86      0.00
   -9    2    7     -2.70      0.00
   -8    2    7     -1.06      0.00
   -7    2    7     -3.42      0.00
   -6    2    7     -0.35      0.00
   -5    2    7     -2.61      0.00
   -4    2    7      2.22      0.00
   -3    2    7      1.31      0.00
   -2    2    7     -4.47      0.00
   -1    2    7      0.68      0.00
    0    2    7      1.14      0.00
    1    2    7     -2.12      0.00
    2    2    7     -0.76      0.00
    3    2    7     -1.29      0.00
    4    2    7     -0.82      0.00
    5    2    7      1.10      0.00
    6    2    7     -0.09      0.00
    7    2    7     -5.44      0.00
    8    2    7      1.27      0.00
    9    2    7      3.99      0.00
   -9    3    7     -4.04      0.00
   -8    3    7      0.60      0.00
   -7    3    7     -4.38      0.00
   -6    3    7     -0.46      0.00
   -5    3    7     -4.86      0.00
   -4    3    7     -0.94      0.00
   -3    3    7      4.07      0.00
   -2    3    7      1.98      0.00
   -1    3    7     -1.43      0.00
    0    3    7      7.09      0.00
    1    3    7     -4.78      0.00
    2    3    7     -3.62      0.00
    3    3    7     -0.58      0.00
    4    3    7     -1.19      0.00
    5    3    7      1.73      0.00
    6    3    7      0.16      0.00
    7    3    7     -1.63      0.00
    8    3    7      1.08      0.00
    9    3    7     -9.68      0.00
   -9    4    7     -6.06      0.00
   -8    4    7      3.10      0.00
   -7    4    7     -2.78      0.00
   -6    4    7     -2.10      0.00
   -5    4    7     -0.68      0.00
   -4    4    7     -0.22      0.00
   -3    4    7      0.63      0.00
   -2    4    7     -0.26      0.00
   -1    4    7     -0.44      0.00
    0    4    7     -0.63      0.00
    1    4    7      0.98      0.00
    2    4    7      1.26      0.00
    3    4    7     -1.98      0.00
    4    4    7      0.42      0.00
    5    4    7     -0.52      0.00
    6    4    7     -1.67      0.00
    7    4    7     -0.71      0.00
    8    4    7     -1.87      0.00
    9    4    7     -2.45      0.00
   -9    5    7     -0.27      0.00
   -8    5    7     -7.25      0.00
   -7    5    7      3.47      0.00
   -6    5    7     -1.80      0.00
   -5    5    7     -3.80      0.00
   -4    5    7      0.78      0.00
   -3    5    7      5.55      0.00
   -2    5    7      0.69      0.00
   -1    5    7     -1.17      0.00
    0    5    7      6.34      0.00
    1    5    7     -0.62      0.00
    2    5    7     -1.75      0.00
    3    5    7      0.32      0.00
    4    5    7      0.45      0.00
    5    5    7      3.32      0.00
    6    5    7      1.77      0.00
    7    5    7     -2.13      0.00
    8    5    7      1.83      0.00
    9    5    7     -5.71      0.00
   -9    6    7     -4.94      0.00
   -8    6    7      2.63      0.00
   -7    6    7      4.43      0.00
   -6    6    7     -4.45      0.00
   -5    6    7     -3.68      0.00
   -4    6    7     -3.93      0.00
   -3    6    7      0.90      0.00
   -2    6    7      8.75      0.00
   -1    6    7     -0.28      0.00
    0    6    7     -2.75      0.00
    1    6    7     -0.82      0.00
    2    6    7      3.27      0.00
    3    6    7     -1.68      0.00
    4    6    7      0.50      0.00
    5    6    7     -1.43      0.00
    6    6    7      4.48      0.00
    7    6    7     -4.69      0.00
    8    6    7     -0.51      0.00
   -9    7    7      8.09      0.00
   -8    7    7    -11.96      0.00
   -7    7    7      2.71      0.00
   -6    7    7      3.11      0.00
   -5    7    7      1.36      0.00
   -4    7    7     -0.12      0.00
   -3    7    7      0.88      0.00
   -2    7    7      0.15      0.00
   -1    7    7      3.55      0.00
    0    7    7     -0.39      0.00
    1    7    7      2.37      0.00
    2    7    7     -1.26      0.00
    3    7    7      1.92      0.00
    4    7    7     -0.15      0.00
    5    7    7     -6.66      0.00
    6    7    7      0.59      0.00
    7    7    7      1.22      0.00
    8    7    7     -2.16      0.00
   -9    8    7      0.06      0.00
   -8    8    7      3.92      0.00
   -7    8    7      5.16      0.00
   -6    8    7     -4.94      0.00
   -5    8    7     -4.72      0.00
   -4    8    7     -1.39      0.00
   -3    8    7     -2.20      0.00
   -2    8    7      8.30      0.00
   -1    8    7      1.09      0.00
    0    8    7     -2.06      0.00
    1    8    7     -3.24      0.00
    2    8    7     -2.21      0.00
    3    8    7     -0.28      0.00
    4    8    7     -1.29      0.00
    5    8    7      0.96      0.00
    6    8    7      9.87      0.00
    7    8    7     -7.99      0.00
    8    8    7      1.69      0.00
   -8    9    7     -8.65      0.00
   -7    9    7     -1.77      0.00
   -6    9    7      3.97      0.00
   -5    9    7      2.79      0.00
   -4    9    7     -0.24      0.00
   -3    9    7      0.91      0.00
   -2    9    7      1.50      0.00
   -1    9    7      5.42      0.00
    0    9    7     -1.56      0.00
    1    9    7      2.48      0.00
    2    9    7     -0.80      0.00
    3    9    7      1.35      0.00
    4    9    7     -3.37      0.00
    5    9    7    -11.72      0.00
    6    9    7      0.80      0.00
    7    9    7      3.32      0.00
    8    9    7     -1.99      0.00
   -8   10    7      8.13      0.00
   -7   10    7      0.69      0.00
   -6   10    7     -2.01      0.00
   -5   10    7     -2.14      0.00
   -4   10    7      2.47      0.00
   -3   10    7     -2.57      0.00
   -2   10    7      3.50      0.00
   -1   10    7      0.47      0.00
    0   10    7      2.38      0.00
    1   10    7     -2.40      0.00
    2   10    7     -4.00      0.00
    3   10    7      1.45      0.00
    4   10    7     -0.73      0.00
    5   10    7      1.28      0.00
    6   10    7      7.87      0.00
    7   10    7     -3.98      0.00
    8   10    7      0.24      0.00
   -8   11    7     -4.45      0.00
   -7   11    7      2.67      0.00
   -6   11    7      3.11      0.00
   -5   11    7      2.31      0.00
   -4   11    7     -1.52      0.00
   -3   11    7      2.73      0.00
   -2   11    7      2.56      0.00
   -1   11    7     -1.66      0.00
    0   11    7      1.05      0.00
    1   11    7      5.36      0.00
    2   11    7     -0.09      0.00
    3   11    7     -0.69      0.00
    4   11    7     -1.60      0.00
    5   11    7    -10.19      0.00
    6   11    7      1.01      0.00
    7   11    7      0.15      0.00
   -7   12    7      0.62      0.00
   -6   12    7     -1.50      0.00
   -5   12    7      0.29      0.00
   -4   12    7      1.03      0.00
   -3   12    7     -5.47      0.00
   -2   12    7      4.92      0.00
   -1   12    7      0.50      0.00
    0   12    7      2.90      0.00
    1   12    7     -1.44      0.00
    2   12    7      0.65      0.00
    3   12    7      2.87      0.00
    4   12    7      0.70      0.00
    5   12    7      2.32      0.00
    6   12    7      1.90      0.00
    7   12    7      0.33      0.00
   -7   13    7      6.04      0.00
   -6   13    7      0.98      0.00
   -5   13    7     -2.96      0.00
   -4   13    7     -1.21      0.00
   -3   13    7     -0.82      0.00
   -2   13    7      1.70      0.00
   -1   13    7     -1.44      0.00
    0   13    7     -1.58      0.00
    1   13    7      5.27      0.00
    2   13    7     -1.47      0.00
    3   13    7      0.02      0.00
    4   13    7     -1.15      0.00
    5   13    7     -7.73      0.00
    6   13    7     -0.52      0.00
    7   13    7     -4.21      0.00
   -7   14    7     -2.40      0.00
   -6   14    7     -2.02      0.00
   -5   14    7      0.20      0.00
   -4   14    7     -5.02      0.00
   -3   14    7     -5.06      0.00
   -2   14    7      2.56      0.00
   -1   14    7      3.00      0.00
    0   14    7     -0.17      0.00
    1   14    7      0.10      0.00
    2   14    7     -0.07      0.00
    3   14    7      0.35      0.00
    4   14    7     -2.29      0.00
    5   14    7      4.45      0.00
    6   14    7      0.58      0.00
   -6   15    7     -8.30      0.00
   -5   15    7     -2.16      0.00
   -4   15    7     -0.98      0.00
   -3   15    7     -3.41      0.00
   -2   15    7      1.04      0.00
   -1   15    7     -0.58      0.00
    0   15    7     -0.53      0.00
    1   15    7      1.59      0.00
    2   15    7      2.23      0.00
    3   15    7      5.47      0.00
    4   15    7      1.38      0.00
    5   15    7     -5.03      0.00
    6   15    7      0.27      0.00
   -5   16    7     -3.04      0.00
   -4   16    7     -4.38      0.00
   -3   16    7     -0.32      0.00
   -2   16    7      2.28      0.00
   -1   16    7      3.02      0.00
    0   16    7     -0.48      0.00
    1   16    7      1.80      0.00
    2   16    7     -2.10      0.00
    3   16    7     -0.30      0.00
    4   16    7     -0.26      0.00
    5   16    7      2.18      0.00
   -5   17    7      1.22      0.00
   -4   17    7     -0.82      0.00
   -3   17    7     -0.96      0.00
   -2   17    7     -3.85      0.00
   -1   17    7     -0.60      0.00
    0   17    7      2.73      0.00
    1   17    7      3.89      0.00
    2   17    7      5.13      0.00
    3   17    7      4.63      0.00
    4   17    7      6.49      0.00
   -4   18    7     -2.42      0.00
   -3   18    7      2.00      0.00
   -2   18    7      2.57      0.00
   -1   18    7      1.08      0.00
    0   18    7      0.52      0.00
    1   18    7     -2.41      0.00
    2   18    7      4.60      0.00
    3   18    7      2.48      0.00
   -2   19    7     -6.73      0.00
   -1   19    7      3.99      0.00
    0   19    7      5.41      0.00
    1   19    7      1.89      0.00
    2   19    7      0.97      0.00
   -9    0    8      4.75      0.00
   -8    0    8     -1.96      0.00
   -7    0    8     -9.24      0.00
   -6    0    8     -2.06      0.00
   -5    0    8      1.06      0.00
   -4    0    8     -2.20      0.00
   -3    0    8     -2.27      0.00
   -2    0    8      0.84      0.00
   -1    0    8     -2.25      0.00
    0    0    8     -0.43      0.00
    1    0    8      5.43      0.00
    2    0    8     -0.70      0.00
    3    0    8      2.26      0.00
    4    0    8      5.07      0.00
    5    0    8     -3.26      0.00
    6    0    8     -4.95      0.00
    7    0    8      6.10      0.00
    8    0    8      3.78      0.00
    9    0    8      0.41      0.00
   -9    1    8     -1.37      0.00
   -8    1    8      0.15      0.00
   -7    1    8     -1.60      0.00
   -6    1    8      1.43      0.00
   -5    1    8     -2.05      0.00
   -4    1    8      2.70      0.00
   -3    1    8     -0.37      0.00
   -2    1    8     -1.90      0.00
   -1    1    8      1.19      0.00
    0    1    8     -0.23      0.00
    1    1    8      0.52      0.00
    2    1    8      0.44      0.00
    3    1    8     -0.54      0.00
    4    1    8     -0.62      0.00
    5    1    8      0.38      0.00
    6    1    8      0.49      0.00
    7    1    8     -2.58      0.00
    8    1    8      3.41      0.00
    9    1    8      5.65      0.00
   -9    2    8     -0.15      0.00
   -8    2    8     -1.20      0.00
   -7    2    8     -6.52      0.00
   -6    2    8     -2.36      0.00
   -5    2    8     -4.20      0.00
   -4    2    8     -0.80      0.00
   -3    2    8      2.03      0.00
   -2    2    8      1.60      0.00
   -1    2    8     -1.66      0.00
    0    2    8      2.16      0.00
    1    2    8     -0.07      0.00
    2    2    8     -1.45      0.00
    3    2    8      1.94      0.00
    4    2    8     -0.28      0.00
    5    2    8      0.41      0.00
    6    2    8     -2.97      0.00
    7    2    8      0.63      0.00
    8    2    8     -0.84      0.00
    9    2    8     -2.72      0.00
   -9    3    8     -5.23      0.00
   -8    3    8      2.59      0.00
   -7    3    8     -2.75      0.00
   -6    3    8      2.83      0.00
   -5    3    8     -2.36      0.00
   -4    3    8      0.77      0.00
   -3    3    8      0.21      0.00
   -2    3    8     -2.10      0.00
   -1    3    8      2.39      0.00
    0    3    8      1.92      0.00
    1    3    8      1.47      0.00
    2    3    8      0.39      0.00
    3    3    8      0.65      0.00
    4    3    8     -0.32      0.00
    5    3    8      0.01      0.00
    6    3    8     -1.13      0.00
    7    3    8      0.41      0.00
    8    3    8      0.97      0.00
    9    3    8      4.50      0.00
   -9    4    8      0.25      0.00
   -8    4    8     -5.97      0.00
   -7    4    8     -1.17      0.00
   -6    4    8     -1.58      0.00
   -5    4    8     -5.61      0.00
   -4    4    8      2.22      0.00
   -3    4    8      5.65      0.00
   -2    4    8      2.22      0.00
   -1    4    8     -4.45      0.00
    0    4    8      3.83      0.00
    1    4    8      0.45      0.00
    2    4    8     -3.05      0.00
    3    4    8     -0.29      0.00
    4    4    8     -2.53      0.00
    5    4    8      5.26      0.00
    6    4    8     -1.81      0.00
    7    4    8     -3.21      0.00
    8    4    8     -1.71      0.00
    9    4    8     -5.78      0.00
   -9    5    8     -6.92      0.00
   -8    5    8      6.02      0.00
   -7    5    8      1.90      0.00
   -6    5    8     -1.74      0.00
   -5    5    8      0.07      0.00
   -4    5    8     -3.66      0.00
   -3    5    8      0.05      0.00
   -2    5    8      6.29      0.00
   -1    5    8      4.40      0.00
    0    5    8     -2.08      0.00
    1    5    8      0.97      0.00
    2    5    8      3.62      0.00
    3    5    8     -0.01      0.00
    4    5    8     -1.49      0.00
    5    5    8      0.00      0.00
    6    5    8     -0.08      0.00
    7    5    8     -3.08      0.00
    8    5    8     -1.82      0.00
   -9    6    8      4.22      0.00
   -8    6    8    -10.11      0.00
   -7    6    8      4.66      0.00
   -6    6    8      0.92      0.00
   -5    6    8     -0.52      0.00
   -4    6    8      6.13      0.00
   -3    6    8      2.71      0.00
   -2    6    8     -2.04      0.00
   -1    6    8      0.30      0.00
    0    6    8     -0.17      0.00
    1    6    8      1.74      0.00
    2    6    8     -2.16      0.00
    3    6    8     -0.80      0.00
    4    6    8     -1.55      0.00
    5    6    8     -3.05      0.00
    6    6    8      0.22      0.00
    7    6    8     -0.02      0.00
    8    6    8     -4.69      0.00
   -9    7    8     -4.32      0.00
   -8    7    8      1.51      0.00
   -7    7    8     10.58      0.00
   -6    7    8     -5.42      0.00
   -5    7    8     -3.33      0.00
   -4    7    8     -3.48      0.00
   -3    7    8      1.22      0.00
   -2    7    8     10.37      0.00
   -1    7    8      1.75      0.00
    0    7    8     -1.47      0.00
    1    7    8     -2.75      0.00
    2    7    8      0.95      0.00
    3    7    8      0.01      0.00
    4    7    8     -2.03      0.00
    5    7    8      1.50      0.00
    6    7    8      3.87      0.00
    7    7    8    -10.06      0.00
    8    7    8      1.92      0.00
   -8    8    8    -10.64      0.00
   -7    8    8      2.20      0.00
   -6    8    8      4.70      0.00
   -5    8    8      1.47      0.00
   -4    8    8      4.12      0.00
   -3    8    8      0.26      0.00
   -2    8    8      1.83      0.00
   -1    8    8      5.46      0.00
    0    8    8     -2.46      0.00
    1    8    8      1.67      0.00
    2    8    8     -2.11      0.00
    3    8    8     -0.57      0.00
    4    8    8     -5.06      0.00
    5    8    8    -11.14      0.00
    6    8    8      0.51      0.00
    7    8    8      0.21      0.00
    8    8    8     -5.47      0.00
   -8    9    8      4.75      0.00
   -7    9    8      7.06      0.00
   -6    9    8     -5.24      0.00
   -5    9    8     -4.49      0.00
   -4    9    8      0.46      0.00
   -3    9    8     -1.53      0.00
   -2    9    8      6.51      0.00
   -1    9    8      2.53      0.00
    0    9    8      1.95      0.00
    1    9    8     -1.92      0.00
    2    9    8     -2.32      0.00
    3    9    8      1.89      0.00
    4    9    8     -1.53      0.00
    5    9    8      4.03      0.00
    6    9    8      7.90      0.00
    7    9    8     -8.59      0.00
    8    9    8      1.43      0.00
   -8   10    8     -5.99      0.00
   -7   10    8      1.67      0.00
   -6   10    8      3.30      0.00
   -5   10    8     -0.02      0.00
   -4   10    8      0.21      0.00
   -3   10    8      3.95      0.00
   -2   10    8      1.33      0.00
   -1   10    8      3.03      0.00
    0   10    8      2.37      0.00
    1   10    8      1.90      0.00
    2   10    8      1.31      0.00
    3   10    8     -0.60      0.00
    4   10    8     -4.84      0.00
    5   10    8    -11.18      0.00
    6   10    8      0.89      0.00
    7   10    8      0.49      0.00
   -8   11    8      5.65      0.00
   -7   11    8      5.60      0.00
   -6   11    8     -3.62      0.00
   -5   11    8     -0.96      0.00
   -4   11    8      0.61      0.00
   -3   11    8     -1.72      0.00
   -2   11    8      5.62      0.00
   -1   11    8      1.35      0.00
    0   11    8      5.64      0.00
    1   11    8      0.09      0.00
    2   11    8      0.19      0.00
    3   11    8      4.65      0.00
    4   11    8      0.63      0.00
    5   11    8      4.97      0.00
    6   11    8      3.79      0.00
    7   11    8     -2.65      0.00
   -7   12    8      5.22      0.00
   -6   12    8      3.15      0.00
   -5   12    8     -1.98      0.00
   -4   12    8     -1.21      0.00
   -3   12    8      2.34      0.00
   -2   12    8      1.77      0.00
   -1   12    8     -0.26      0.00
    0   12    8      0.65      0.00
    1   12    8      3.69      0.00
    2   12    8      0.11      0.00
    3   12    8     -3.38      0.00
    4   12    8     -3.88      0.00
    5   12    8     -9.18      0.00
    6   12    8     -0.48      0.00
    7   12    8     -3.31      0.00
   -7   13    8      3.85      0.00
   -6   13    8     -2.83      0.00
   -5   13    8      1.33      0.00
   -4   13    8     -0.75      0.00
   -3   13    8     -4.85      0.00
   -2   13    8      4.96      0.00
   -1   13    8      3.17      0.00
    0   13    8      2.23      0.00
    1   13    8      1.33      0.00
    2   13    8      1.23      0.00
    3   13    8      3.52      0.00
    4   13    8     -0.24      0.00
    5   13    8      7.25      0.00
    6   13    8      0.55      0.00
   -6   14    8     -1.91      0.00
   -5   14    8     -3.41      0.00
   -4   14    8      2.75      0.00
   -3   14    8     -1.86      0.00
   -2   14    8      2.91      0.00
   -1   14    8      3.66      0.00
    0   14    8     -1.66      0.00
    1   14    8      1.15      0.00
    2   14    8     -0.71      0.00
    3   14    8     -2.64      0.00
    4   14    8     -4.12      0.00
    5   14    8     -7.90      0.00
    6   14    8     -0.71      0.00
   -6   15    8     -3.86      0.00
   -5   15    8     -2.60      0.00
   -4   15    8     -1.74      0.00
   -3   15    8     -0.68      0.00
   -2   15    8      3.29      0.00
   -1   15    8      3.58      0.00
    0   15    8      1.66      0.00
    1   15    8      2.61      0.00
    2   15    8     -2.27      0.00
    3   15    8     -0.80      0.00
    4   15    8     -1.17      0.00
    5   15    8      7.94      0.00
   -5   16    8      0.77      0.00
   -4   16    8      1.03      0.00
   -3   16    8     -1.75      0.00
   -2   16    8      2.70      0.00
   -1   16    8      0.52      0.00
    0   16    8     -0.02      0.00
    1   16    8      3.23      0.00
    2   16    8      2.90      0.00
    3   16    8      2.78      0.00
    4   16    8     -0.02      0.00
    5   16    8     -2.62      0.00
   -4   17    8     -1.60      0.00
   -3   17    8      2.67      0.00
   -2   17    8      5.97      0.00
   -1   17    8      2.60      0.00
    0   17    8     -1.43      0.00
    1   17    8      1.82      0.00
    2   17    8      0.26      0.00
    3   17    8      0.03      0.00
    4   17    8      1.41      0.00
   -3   18    8      0.37      0.00
   -2   18    8     -3.82      0.00
   -1   18    8      2.33      0.00
    0   18    8      0.21      0.00
    1   18    8      3.54      0.00
    2   18    8      1.67      0.00
    3   18    8      1.35      0.00
   -2   19    8      1.68      0.00
   -1   19    8     -1.26      0.00
    0   19    8     -0.86      0.00
    1   19    8     -2.94      0.00
   -9    1    9      3.96      0.00
   -8    1    9      0.85      0.00
   -7    1    9     -3.30      0.00
   -6    1    9     -6.01      0.00
   -5    1    9      0.45      0.00
   -4    1    9     -5.97      0.00
   -3    1    9     -0.32      0.00
   -2    1    9      1.98      0.00
   -1    1    9      0.15      0.00
    0    1    9      2.09      0.00
    1    1    9      3.99      0.00
    2    1    9      0.71      0.00
    3    1    9      1.42      0.00
    4    1    9      2.00      0.00
    5    1    9     -0.67      0.00
    6    1    9     -1.94      0.00
    7    1    9      5.85      0.00
    8    1    9      2.88      0.00
    9    1    9      3.29      0.00
   -9    2    9     -0.89      0.00
   -8    2    9      0.73      0.00
   -7    2    9     -0.04      0.00
   -6    2    9      6.36      0.00
   -5    2    9     -1.62      0.00
   -4    2    9      3.76      0.00
   -3    2    9     -2.67      0.00
   -2    2    9     -4.08      0.00
   -1    2    9      1.56      0.00
    0    2    9      0.32      0.00
    1    2    9      1.65      0.00
    2    2    9      0.21      0.00
    3    2    9      0.39      0.00
    4    2    9     -1.13      0.00
    5    2    9     -1.91      0.00
    6    2    9      0.29      0.00
    7    2    9      0.84      0.00
    8    2    9      4.66      0.00
   -9    3    9      0.42      0.00
   -8    3    9     -3.17      0.00
   -7    3    9     -1.81      0.00
   -6    3    9     -3.25      0.00
   -5    3    9     -6.27      0.00
   -4    3    9      0.43      0.00
   -3    3    9      3.57      0.00
   -2    3    9      0.92      0.00
   -1    3    9     -3.66      0.00
    0    3    9      2.29      0.00
    1    3    9      0.20      0.00
    2    3    9     -0.94      0.00
    3    3    9      0.02      0.00
    4    3    9     -2.55      0.00
    5    3    9      4.78      0.00
    6    3    9     -4.52      0.00
    7    3    9     -2.85      0.00
    8    3    9     -3.62      0.00
   -9    4    9     -3.92      0.00
   -8    4    9      3.88      0.00
   -7    4    9      0.99      0.00
   -6    4    9      5.22      0.00
   -5    4    9      2.29      0.00
   -4    4    9     -1.96      0.00
   -3    4    9     -1.21      0.00
   -2    4    9      1.41      0.00
   -1    4    9      5.48      0.00
    0    4    9     -0.28      0.00
    1    4    9      1.74      0.00
    2    4    9      1.27      0.00
    3    4    9      1.42      0.00
    4    4    9     -2.87      0.00
    5    4    9      0.53      0.00
    6    4    9     -0.10      0.00
    7    4    9      1.74      0.00
    8    4    9     -0.02      0.00
   -9    5    9      3.18      0.00
   -8    5    9     -7.93      0.00
   -7    5    9      1.61      0.00
   -6    5    9     -1.38      0.00
   -5    5    9     -2.21      0.00
   -4    5    9      7.35      0.00
   -3    5    9      1.99      0.00
   -2    5    9     -2.41      0.00
   -1    5    9     -3.25      0.00
    0    5    9      0.13      0.00
    1    5    9      0.86      0.00
    2    5    9     -1.58      0.00
    3    5    9     -2.87      0.00
    4    5    9     -1.72      0.00
    5    5    9      2.05      0.00
    6    5    9     -3.49      0.00
    7    5    9     -1.68      0.00
    8    5    9     -7.51      0.00
   -9    6    9     -5.07      0.00
   -8    6    9      1.58      0.00
   -7    6    9      9.49      0.00
   -6    6    9     -1.01      0.00
   -5    6    9      3.11      0.00
   -4    6    9     -3.68      0.00
   -3    6    9      1.84      0.00
   -2    6    9      7.69      0.00
   -1    6    9      3.90      0.00
    0    6    9     -1.89      0.00
    1    6    9     -0.96      0.00
    2    6    9      2.90      0.00
    3    6    9     -0.17      0.00
    4    6    9     -4.06      0.00
    5    6    9      2.14      0.00
    6    6    9     -0.91      0.00
    7    6    9     -6.10      0.00
    8    6    9      2.16      0.00
   -8    7    9     -7.82      0.00
   -7    7    9      3.84      0.00
   -6    7    9      0.08      0.00
   -5    7    9      1.59      0.00
   -4    7    9      8.71      0.00
   -3    7    9     -0.84      0.00
   -2    7    9      0.29      0.00
   -1    7    9      3.19      0.00
    0    7    9     -2.63      0.00
    1    7    9      0.66      0.00
    2    7    9     -1.42      0.00
    3    7    9     -2.14      0.00
    4    7    9     -3.60      0.00
    5    7    9     -7.09      0.00
    6    7    9     -0.79      0.00
    7    7    9     -1.10      0.00
    8    7    9     -9.57      0.00
   -8    8    9     -0.72      0.00
   -7    8    9     12.93      0.00
   -6    8    9     -4.91      0.00
   -5    8    9     -3.07      0.00
   -4    8    9     -1.43      0.00
   -3    8    9     -0.77      0.00
   -2    8    9      6.50      0.00
   -1    8    9      1.37      0.00
    0    8    9     -0.06      0.00
    1    8    9     -1.40      0.00
    2    8    9      1.28      0.00
    3    8    9      1.16      0.00
    4    8    9     -1.45      0.00
    5    8    9      3.77      0.00
    6    8    9      2.09      0.00
    7    8    9     -8.35      0.00
    8    8    9      2.91      0.00
   -8    9    9     -6.04      0.00
   -7    9    9      3.72      0.00
   -6    9    9      1.03      0.00
   -5    9    9     -1.45      0.00
   -4    9    9      4.18      0.00
   -3    9    9      0.74      0.00
   -2    9    9      2.22      0.00
   -1    9    9      5.17      0.00
    0    9    9      0.94      0.00
    1    9    9     -0.45      0.00
    2    9    9      1.54      0.00
    3    9    9      0.19      0.00
    4    9    9     -4.73      0.00
    5    9    9     -7.54      0.00
    6    9    9      0.28      0.00
    7    9    9     -1.39      0.00
   -8   10    9      2.90      0.00
   -7   10    9      7.36      0.00
   -6   10    9     -4.56      0.00
   -5   10    9     -4.25      0.00
   -4   10    9     -0.25      0.00
   -3   10    9     -1.81      0.00
   -2   10    9      3.73      0.00
   -1   10    9      2.22      0.00
    0   10    9      3.99      0.00
    1   10    9      1.74      0.00
    2   10    9      0.47      0.00
    3   10    9      4.73      0.00
    4   10    9     -0.43      0.00
    5   10    9      6.06      0.00
    6   10    9      4.96      0.00
    7   10    9     -3.36      0.00
   -7   11    9      3.56      0.00
   -6   11    9      2.04      0.00
   -5   11    9     -2.26      0.00
   -4   11    9     -1.86      0.00
   -3   11    9      4.52      0.00
   -2   11    9     -0.90      0.00
   -1   11    9      1.28      0.00
    0   11    9      1.41      0.00
    1   11    9      0.72      0.00
    2   11    9      2.01      0.00
    3   11    9     -2.26      0.00
    4   11    9     -2.04      0.00
    5   11    9     -5.91      0.00
    6   11    9      1.15      0.00
    7   11    9      0.44      0.00
   -7   12    9      7.22      0.00
   -6   12    9     -3.71      0.00
   -5   12    9      3.66      0.00
   -4   12    9      0.03      0.00
   -3   12    9     -3.31      0.00
   -2   12    9      5.14      0.00
   -1   12    9      3.78      0.00
    0   12    9      2.70      0.00
    1   12    9      3.62      0.00
    2   12    9      0.83      0.00
    3   12    9      3.59      0.00
    4   12    9     -1.89      0.00
    5   12    9      7.45      0.00
    6   12    9      0.96      0.00
   -7   13    9      2.44      0.00
   -6   13    9     -0.05      0.00
   -5   13    9     -2.99      0.00
   -4   13    9      3.34      0.00
   -3   13    9      0.07      0.00
   -2   13    9      0.36      0.00
   -1   13    9      5.30      0.00
    0   13    9     -2.89      0.00
    1   13    9      0.42      0.00
    2   13    9     -0.82      0.00
    3   13    9     -7.03      0.00
    4   13    9     -4.42      0.00
    5   13    9     -6.79      0.00
    6   13    9     -0.33      0.00
   -6   14    9     -2.75      0.00
   -5   14    9      0.94      0.00
   -4   14    9      2.55      0.00
   -3   14    9     -3.13      0.00
   -2   14    9      2.45      0.00
   -1   14    9      4.12      0.00
    0   14    9      1.94      0.00
    1   14    9      2.30      0.00
    2   14    9     -2.02      0.00
    3   14    9     -0.36      0.00
    4   14    9     -2.86      0.00
    5   14    9      9.60      0.00
    6   14    9     -0.33      0.00
   -6   15    9     -3.00      0.00
   -5   15    9     -2.25      0.00
   -4   15    9      5.18      0.00
   -3   15    9     -3.25      0.00
   -2   15    9      4.52      0.00
   -1   15    9      3.84      0.00
    0   15    9     -1.28      0.00
    1   15    9      2.88      0.00
    2   15    9      0.10      0.00
    3   15    9     -3.43      0.00
    4   15    9     -5.24      0.00
    5   15    9     -4.98      0.00
   -5   16    9     -3.75      0.00
   -4   16    9      1.54      0.00
   -3   16    9      0.36      0.00
   -2   16    9      5.02      0.00
   -1   16    9      1.86      0.00
    0   16    9     -1.64      0.00
    1   16    9      1.79      0.00
    2   16    9     -1.54      0.00
    3   16    9     -1.32      0.00
    4   16    9      0.05      0.00
   -4   17    9      0.93      0.00
   -3   17    9     -2.97      0.00
   -2   17    9      2.32      0.00
   -1   17    9     -0.61      0.00
    0   17    9     -1.94      0.00
    1   17    9      3.50      0.00
    2   17    9      1.06      0.00
    3   17    9      1.39      0.00
   -3   18    9      1.89      0.00
   -2   18    9      4.98      0.00
   -1   18    9     -0.23      0.00
    0   18    9     -5.35      0.00
    1   18    9      0.96      0.00
    2   18    9      2.35      0.00
    0   19    9     -4.39      0.00
   -9    0   10      5.42      0.00
   -8    0   10      5.01      0.00
   -7    0   10      2.79      0.00
   -6    0   10     -7.16      0.00
   -5    0   10      3.95      0.00
   -4    0   10    -11.55      0.00
   -3    0   10      0.07      0.00
   -2    0   10      0.85      0.00
   -1    0   10      3.18      0.00
    0    0   10      4.35      0.00
    1    0   10      0.61      0.00
    2    0   10      0.28      0.00
    3    0   10     -1.44      0.00
    4    0   10      1.12      0.00
    5    0   10     -2.48      0.00
    6    0   10      1.80      0.00
    7    0   10      7.45      0.00
    8    0   10      6.47      0.00
   -9    1   10      1.97      0.00
   -8    1   10     -1.50      0.00
   -7    1   10      0.46      0.00
   -6    1   10      4.41      0.00
   -5    1   10      0.41      0.00
   -4    1   10      2.79      0.00
   -3    1   10     -3.86      0.00
   -2    1   10     -2.70      0.00
   -1    1   10     -0.86      0.00
    0    1   10     -1.19      0.00
    1    1   10      0.91      0.00
    2    1   10      0.44      0.00
    3    1   10      0.13      0.00
    4    1   10      0.17      0.00
    5    1   10     -2.66      0.00
    6    1   10      0.78      0.00
    7    1   10      0.25      0.00
    8    1   10      3.31      0.00
   -9    2   10      1.63      0.00
   -8    2   10      2.99      0.00
   -7    2   10      1.53      0.00
   -6    2   10     -5.60      0.00
   -5    2   10     -2.44      0.00
   -4    2   10     -3.94      0.00
   -3    2   10      0.17      0.00
   -2    2   10     -0.56      0.00
   -1    2   10      1.76      0.00
    0    2   10      2.60      0.00
    1    2   10     -0.94      0.00
    2    2   10      0.86      0.00
    3    2   10     -1.35      0.00
    4    2   10     -0.92      0.00
    5    2   10      1.78      0.00
    6    2   10     -1.45      0.00
    7    2   10      1.14      0.00
    8    2   10      1.64      0.00
   -9    3   10      0.08      0.00
   -8    3   10     -1.37      0.00
   -7    3   10      1.95      0.00
   -6    3   10      7.72      0.00
   -5    3   10      1.66      0.00
   -4    3   10      2.15      0.00
   -3    3   10     -3.66      0.00
   -2    3   10     -3.42      0.00
   -1    3   10      2.72      0.00
    0    3   10     -1.04      0.00
    1    3   10      0.45      0.00
    2    3   10      0.67      0.00
    3    3   10      2.29      0.00
    4    3   10     -1.64      0.00
    5    3   10     -1.90      0.00
    6    3   10      2.33      0.00
    7    3   10      3.07      0.00
    8    3   10      1.63      0.00
   -9    4   10      0.89      0.00
   -8    4   10     -4.82      0.00
   -7    4   10      1.05      0.00
   -6    4   10     -1.54      0.00
   -5    4   10     -5.35      0.00
   -4    4   10      4.27      0.00
   -3    4   10      0.81      0.00
   -2    4   10     -3.14      0.00
   -1    4   10     -1.99      0.00
    0    4   10      2.04      0.00
    1    4   10     -1.55      0.00
    2    4   10     -0.28      0.00
    3    4   10     -3.22      0.00
    4    4   10      0.19      0.00
    5    4   10      4.47      0.00
    6    4   10     -5.41      0.00
    7    4   10     -1.29      0.00
    8    4   10     -5.66      0.00
   -9    5   10     -1.31      0.00
   -8    5   10     -1.43      0.00
   -7    5   10      5.44      0.00
   -6    5   10      5.09      0.00
   -5    5   10      7.08      0.00
   -4    5   10     -2.71      0.00
   -3    5   10      1.19      0.00
   -2    5   10      4.36      0.00
   -1    5   10      3.36      0.00
    0    5   10     -1.26      0.00
    1    5   10      0.48      0.00
    2    5   10      1.85      0.00
    3    5   10     -0.12      0.00
    4    5   10     -4.53      0.00
    5    5   10      3.30      0.00
    6    5   10     -0.14      0.00
    7    5   10     -0.26      0.00
    8    5   10      2.84      0.00
   -8    6   10     -4.84      0.00
   -7    6   10      1.06      0.00
   -6    6   10     -3.47      0.00
   -5    6   10      1.67      0.00
   -4    6   10      7.55      0.00
   -3    6   10     -2.38      0.00
   -2    6   10     -1.18      0.00
   -1    6   10      1.30      0.00
    0    6   10     -2.31      0.00
    1    6   10     -0.65      0.00
    2    6   10     -0.22      0.00
    3    6   10     -3.74      0.00
    4    6   10     -0.67      0.00
    5    6   10     -1.57      0.00
    6    6   10     -2.72      0.00
    7    6   10     -1.11      0.00
    8    6   10    -11.08      0.00
   -8    7   10     -2.75      0.00
   -7    7   10     13.75      0.00
   -6    7   10     -0.23      0.00
   -5    7   10      3.22      0.00
   -4    7   10     -1.69      0.00
   -3    7   10      0.35      0.00
   -2    7   10      4.08      0.00
   -1    7   10     -0.26      0.00
    0    7   10     -1.27      0.00
    1    7   10     -1.18      0.00
    2    7   10      3.99      0.00
    3    7   10     -1.28      0.00
    4    7   10     -1.52      0.00
    5    7   10      2.79      0.00
    6    7   10     -1.49      0.00
    7    7   10     -3.12      0.00
    8    7   10      4.55      0.00
   -8    8   10     -3.98      0.00
   -7    8   10      3.96      0.00
   -6    8   10     -4.79      0.00
   -5    8   10      0.36      0.00
   -4    8   10      5.30      0.00
   -3    8   10     -2.30      0.00
   -2    8   10      2.62      0.00
   -1    8   10      3.58      0.00
    0    8   10     -1.03      0.00
    1    8   10     -1.61      0.00
    2    8   10      1.60      0.00
    3    8   10      0.56      0.00
    4    8   10     -2.72      0.00
    5    8   10     -3.38      0.00
    6    8   10     -1.64      0.00
    7    8   10     -2.81      0.00
   -8    9   10     -1.93      0.00
   -7    9   10      9.19      0.00
   -6    9   10     -2.92      0.00
   -5    9   10     -5.35      0.00
   -4    9   10     -0.38      0.00
   -3    9   10     -4.40      0.00
   -2    9   10      1.83      0.00
   -1    9   10     -1.63      0.00
    0    9   10      0.49      0.00
    1    9   10      1.12      0.00
    2    9   10      2.09      0.00
    3    9   10      3.76      0.00
    4    9   10      1.01      0.00
    5    9   10      5.60      0.00
    6    9   10      3.92      0.00
    7    9   10     -0.66      0.00
   -8   10   10     -1.64      0.00
   -7   10   10      4.38      0.00
   -6   10   10     -1.53      0.00
   -5   10   10     -2.21      0.00
   -4   10   10      0.20      0.00
   -3   10   10      2.69      0.00
   -2   10   10     -1.02      0.00
   -1   10   10      2.39      0.00
    0   10   10      0.34      0.00
    1   10   10     -1.38      0.00
    2   10   10      1.90      0.00
    3   10   10      1.20      0.00
    4   10   10      0.90      0.00
    5   10   10     -1.25      0.00
    6   10   10      2.00      0.00
    7   10   10      1.25      0.00
   -7   11   10      3.41      0.00
   -6   11   10     -3.37      0.00
   -5   11   10     -0.38      0.00
   -4   11   10     -0.37      0.00
   -3   11   10     -3.54      0.00
   -2   11   10      2.04      0.00
   -1   11   10      2.12      0.00
    0   11   10      1.59      0.00
    1   11   10      4.91      0.00
    2   11   10     -0.03      0.00
    3   11   10      3.21      0.00
    4   11   10     -2.92      0.00
    5   11   10      7.20      0.00
    6   11   10      4.15      0.00
    7   11   10      2.80      0.00
   -7   12   10      1.34      0.00
   -6   12   10     -0.16      0.00
   -5   12   10      0.06      0.00
   -4   12   10      0.59      0.00
   -3   12   10      5.12      0.00
   -2   12   10     -3.80      0.00
   -1   12   10      3.48      0.00
    0   12   10     -4.51      0.00
    1   12   10     -1.09      0.00
    2   12   10     -1.24      0.00
    3   12   10     -4.95      0.00
    4   12   10      0.64      0.00
    5   12   10     -2.98      0.00
    6   12   10      2.09      0.00
   -6   13   10     -2.66      0.00
   -5   13   10      5.77      0.00
   -4   13   10      1.87      0.00
   -3   13   10     -4.94      0.00
   -2   13   10      2.09      0.00
   -1   13   10      4.94      0.00
    0   13   10      1.29      0.00
    1   13   10      4.52      0.00
    2   13   10     -1.99      0.00
    3   13   10     -1.26      0.00
    4   13   10     -6.74      0.00
    5   13   10      7.53      0.00
    6   13   10     -0.53      0.00
   -6   14   10     -3.26      0.00
   -5   14   10     -1.45      0.00
   -4   14   10      7.72      0.00
   -3   14   10     -2.50      0.00
   -2   14   10     -0.73      0.00
   -1   14   10      5.91      0.00
    0   14   10     -4.48      0.00
    1   14   10      2.32      0.00
    2   14   10     -1.07      0.00
    3   14   10     -5.69      0.00
    4   14   10     -3.66      0.00
    5   14   10     -4.67      0.00
   -5   15   10     -2.13      0.00
   -4   15   10      4.67      0.00
   -3   15   10     -3.16      0.00
   -2   15   10      0.93      0.00
   -1   15   10      1.54      0.00
    0   15   10     -1.43      0.00
    1   15   10     -0.88      0.00
    2   15   10     -1.68      0.00
    3   15   10     -2.76      0.00
    4   15   10     -2.99      0.00
    5   15   10      6.30      0.00
   -5   16   10     -2.39      0.00
   -4   16   10      3.52      0.00
   -3   16   10     -6.12      0.00
   -2   16   10      3.58      0.00
   -1   16   10     -1.14      0.00
    0   16   10      0.46      0.00
    1   16   10      4.39      0.00
    2   16   10      1.63      0.00
    3   16   10      1.09      0.00
    4   16   10     -3.07      0.00
   -4   17   10      0.07      0.00
   -3   17   10     -0.81      0.00
   -2   17   10      5.37      0.00
   -1   17   10     -2.39      0.00
    0   17   10     -9.12      0.00
    1   17   10     -0.09      0.00
    2   17   10      0.08      0.00
    3   17   10      0.67      0.00
   -2   18   10      3.49      0.00
   -1   18   10     -1.23      0.00
    0   18   10     -4.63      0.00
    1   18   10     -0.13      0.00
   -9    1   11      2.68      0.00
   -8    1   11      5.48      0.00
   -7    1   11      3.54      0.00
   -6    1   11     -6.49      0.00
   -5    1   11      1.57      0.00
   -4    1   11     -8.82      0.00
   -3    1   11      0.87      0.00
   -2    1   11     -0.77      0.00
   -1    1   11      3.67      0.00
    0    1   11      2.00      0.00
    1    1   11     -2.73      0.00
    2    1   11     -1.02      0.00
    3    1   11     -2.16      0.00
    4    1   11     -0.48      0.00
    5    1   11     -1.00      0.00
    6    1   11      2.65      0.00
    7    1   11      3.27      0.00
    8    1   11      7.43      0.00
   -9    2   11      2.53      0.00
   -8    2   11     -4.57      0.00
   -7    2   11      0.94      0.00
   -6    2   11      4.58      0.00
   -5    2   11      1.80      0.00
   -4    2   11      2.02      0.00
   -3    2   11     -5.31      0.00
   -2    2   11     -2.64      0.00
   -1    2   11      0.56      0.00
    0    2   11     -2.01      0.00
    1    2   11      0.01      0.00
    2    2   11      2.97      0.00
    3    2   11      3.36      0.00
    4    2   11      2.04      0.00
    5    2   11     -3.17      0.00
    6    2   11      3.98      0.00
    7    2   11      0.47      0.00
    8    2   11      0.60      0.00
   -9    3   11     -1.02      0.00
   -8    3   11      0.94      0.00
   -7    3   11      2.27      0.00
   -6    3   11     -2.48      0.00
   -5    3   11     -5.64      0.00
   -4    3   11      2.37      0.00
   -3    3   11     -1.57      0.00
   -2    3   11     -2.93      0.00
   -1    3   11      2.34      0.00
    0    3   11      1.81      0.00
    1    3   11     -2.57      0.00
    2    3   11     -0.22      0.00
    3    3   11     -2.90      0.00
    4    3   11      0.92      0.00
    5    3   11      3.34      0.00
    6    3   11     -1.97      0.00
    7    3   11      1.69      0.00
    8    3   11      1.65      0.00
   -9    4   11      0.60      0.00
   -8    4   11     -4.92      0.00
   -7    4   11      2.51      0.00
   -6    4   11      4.89      0.00
   -5    4   11      4.12      0.00
   -4    4   11     -0.02      0.00
   -3    4   11      0.03      0.00
   -2    4   11      1.16      0.00
   -1    4   11      2.34      0.00
    0    4   11     -1.15      0.00
    1    4   11     -0.49      0.00
    2    4   11      2.03      0.00
    3    4   11      2.34      0.00
    4    4   11     -2.10      0.00
    5    4   11      2.15      0.00
    6    4   11      2.72      0.00
    7    4   11      0.98      0.00
    8    4   11      0.79      0.00
   -8    5   11     -2.58      0.00
   -7    5   11      0.64      0.00
   -6    5   11     -1.44      0.00
   -5    5   11     -1.57      0.00
   -4    5   11      4.00      0.00
   -3    5   11     -1.95      0.00
   -2    5   11     -1.03      0.00
   -1    5   11      1.57      0.00
    0    5   11      0.08      0.00
    1    5   11     -1.92      0.00
    2    5   11     -1.19      0.00
    3    5   11     -4.61      0.00
    4    5   11      2.10      0.00
    5    5   11      2.51      0.00
    6    5   11     -3.21      0.00
    7    5   11      2.02      0.00
    8    5   11     -6.26      0.00
   -8    6   11     -4.12      0.00
   -7    6   11      8.70      0.00
   -6    6   11      3.91      0.00
   -5    6   11      6.89      0.00
   -4    6   11     -1.50      0.00
   -3    6   11      1.50      0.00
   -2    6   11      3.27      0.00
   -1    6   11     -0.87      0.00
    0    6   11     -0.81      0.00
    1    6   11     -0.69      0.00
    2    6   11      3.84      0.00
    3    6   11     -3.56      0.00
    4    6   11     -2.06      0.00
    5    6   11      3.73      0.00
    6    6   11     -1.13      0.00
    7    6   11     -0.08      0.00
    8    6   11      5.25      0.00
   -8    7   11     -1.33      0.00
   -7    7   11     -0.07      0.00
   -6    7   11     -7.29      0.00
   -5    7   11      2.98      0.00
   -4    7   11      1.84      0.00
   -3    7   11     -2.76      0.00
   -2    7   11      2.35      0.00
   -1    7   11      1.73      0.00
    0    7   11     -2.33      0.00
    1    7   11     -2.39      0.00
    2    7   11      0.53      0.00
    3    7   11     -1.01      0.00
    4    7   11     -1.97      0.00
    5    7   11      0.30      0.00
    6    7   11     -1.99      0.00
    7    7   11     -1.84      0.00
   -8    8   11     -2.04      0.00
   -7    8   11      9.75      0.00
   -6    8   11      0.57      0.00
   -5    8   11     -0.75      0.00
   -4    8   11      0.49      0.00
   -3    8   11     -3.35      0.00
   -2    8   11      0.93      0.00
   -1    8   11     -4.58      0.00
    0    8   11     -0.43      0.00
    1    8   11     -0.59      0.00
    2    8   11      3.86      0.00
    3    8   11      1.10      0.00
    4    8   11      3.39      0.00
    5    8   11      3.30      0.00
    6    8   11      1.88      0.00
    7    8   11      3.22      0.00
   -8    9   11     -1.45      0.00
   -7    9   11      3.40      0.00
   -6    9   11     -7.71      0.00
   -5    9   11     -0.27      0.00
   -4    9   11     -0.08      0.00
   -3    9   11     -0.92      0.00
   -2    9   11      0.56      0.00
   -1    9   11      1.19      0.00
    0    9   11     -1.26      0.00
    1    9   11     -1.76      0.00
    2    9   11      1.30      0.00
    3    9   11      2.65      0.00
    4    9   11      0.71      0.00
    5    9   11      1.86      0.00
    6    9   11      0.22      0.00
    7    9   11     -0.35      0.00
   -7   10   11      0.14      0.00
   -6   10   11     -2.07      0.00
   -5   10   11     -5.13      0.00
   -4   10   11      3.15      0.00
   -3   10   11     -4.55      0.00
   -2   10   11      0.08      0.00
   -1   10   11     -2.59      0.00
    0   10   11      0.55      0.00
    1   10   11      1.29      0.00
    2   10   11      0.41      0.00
    3   10   11      4.30      0.00
    4   10   11      0.18      0.00
    5   10   11      7.25      0.00
    6   10   11      6.86      0.00
    7   10   11      5.12      0.00
   -7   11   11      1.56      0.00
   -6   11   11     -1.08      0.00
   -5   11   11      1.06      0.00
   -4   11   11     -0.53      0.00
   -3   11   11      7.74      0.00
   -2   11   11     -4.44      0.00
   -1   11   11      1.63      0.00
    0   11   11     -3.68      0.00
    1   11   11     -1.75      0.00
    2   11   11     -3.18      0.00
    3   11   11      0.36      0.00
    4   11   11      3.93      0.00
    5   11   11     -0.73      0.00
    6   11   11      4.03      0.00
   -7   12   11     -2.93      0.00
   -6   12   11     -2.92      0.00
   -5   12   11      3.98      0.00
   -4   12   11      0.67      0.00
   -3   12   11     -3.89      0.00
   -2   12   11      0.63      0.00
   -1   12   11      2.37      0.00
    0   12   11      1.09      0.00
    1   12   11      5.86      0.00
    2   12   11     -2.78      0.00
    3   12   11     -1.20      0.00
    4   12   11     -6.24      0.00
    5   12   11      6.26      0.00
    6   12   11      2.43      0.00
   -6   13   11     -1.83      0.00
   -5   13   11      3.95      0.00
   -4   13   11      5.85      0.00
   -3   13   11      4.40      0.00
   -2   13   11     -5.39      0.00
   -1   13   11      4.56      0.00
    0   13   11     -9.12      0.00
    1   13   11      0.52      0.00
    2   13   11     -3.30      0.00
    3   13   11     -4.08      0.00
    4   13   11      0.65      0.00
    5   13   11     -3.48      0.00
   -6   14   11     -1.85      0.00
   -5   14   11      2.02      0.00
   -4   14   11      3.01      0.00
   -3   14   11     -5.52      0.00
   -2   14   11     -1.44      0.00
   -1   14   11      3.68      0.00
    0   14   11      0.54      0.00
    1   14   11      0.23      0.00
    2   14   11     -0.03      0.00
    3   14   11     -3.17      0.00
    4   14   11     -5.49      0.00
    5   14   11      4.70      0.00
   -5   15   11     -0.36      0.00
   -4   15   11      7.12      0.00
   -3   15   11     -5.09      0.00
   -2   15   11     -3.09      0.00
   -1   15   11      0.00      0.00
    0   15   11     -1.22      0.00
    1   15   11      3.99      0.00
    2   15   11      0.72      0.00
    3   15   11      1.23      0.00
    4   15   11     -1.38      0.00
   -4   16   11      2.83      0.00
   -3   16   11     -2.79      0.00
   -2   16   11      2.39      0.00
   -1   16   11     -3.92      0.00
    0   16   11     -8.69      0.00
    1   16   11     -3.74      0.00
    2   16   11      0.73      0.00
    3   16   11     -0.73      0.00
   -3   17   11     -7.45      0.00
   -2   17   11      3.52      0.00
   -1   17   11     -1.81      0.00
    0   17   11      0.61      0.00
    1   17   11      1.18      0.00
    2   17   11      4.01      0.00
   -1   18   11     -3.08      0.00
    0   18   11    -10.99      0.00
   -9    0   12      0.36      0.00
   -8    0   12      1.80      0.00
   -7    0   12      1.05      0.00
   -6    0   12     -6.64      0.00
   -5    0   12     -0.16      0.00
   -4    0   12     -7.85      0.00
   -3    0   12      4.90      0.00
   -2    0   12      0.44      0.00
   -1    0   12      1.76      0.00
    0    0   12      0.07      0.00
    1    0   12     -0.58      0.00
    2    0   12     -2.06      0.00
    3    0   12      0.48      0.00
    4    0   12      0.77      0.00
    5    0   12      0.90      0.00
    6    0   12      1.41      0.00
    7    0   12      0.02      0.00
    8    0   12      7.78      0.00
   -9    1   12      2.17      0.00
   -8    1   12     -2.92      0.00
   -7    1   12      0.12      0.00
   -6    1   12      1.90      0.00
   -5    1   12      1.79      0.00
   -4    1   12     -1.77      0.00
   -3    1   12     -2.29      0.00
   -2    1   12     -0.22      0.00
   -1    1   12      0.87      0.00
    0    1   12     -0.76      0.00
    1    1   12      0.05      0.00
    2    1   12      3.48      0.00
    3    1   12      2.91      0.00
    4    1   12      3.23      0.00
    5    1   12     -1.16      0.00
    6    1   12      3.25      0.00
    7    1   12     -1.05      0.00
    8    1   12     -0.87      0.00
   -8    2   12      2.18      0.00
   -7    2   12      0.12      0.00
   -6    2   12     -4.62      0.00
   -5    2   12     -3.10      0.00
   -4    2   12     -0.28      0.00
   -3    2   12     -0.79      0.00
   -2    2   12     -0.17      0.00
   -1    2   12      1.44      0.00
    0    2   12     -0.59      0.00
    1    2   12     -0.06      0.00
    2    2   12     -1.74      0.00
    3    2   12     -1.71      0.00
    4    2   12      0.38      0.00
    5    2   12      2.25      0.00
    6    2   12      0.51      0.00
    7    2   12      1.62      0.00
    8    2   12      6.79      0.00
   -8    3   12     -3.39      0.00
   -7    3   12      0.75      0.00
   -6    3   12      1.09      0.00
   -5    3   12      2.06      0.00
   -4    3   12     -0.18      0.00
   -3    3   12     -1.81      0.00
   -2    3   12      1.05      0.00
   -1    3   12      4.37      0.00
    0    3   12     -2.04      0.00
    1    3   12     -0.96      0.00
    2    3   12      5.13      0.00
    3    3   12      5.38      0.00
    4    3   12      1.25      0.00
    5    3   12      0.60      0.00
    6    3   12      5.03      0.00
    7    3   12     -1.66      0.00
    8    3   12     -2.84      0.00
   -8    4   12      0.97      0.00
   -7    4   12      1.67      0.00
   -6    4   12     -0.76      0.00
   -5    4   12     -5.19      0.00
   -4    4   12      4.41      0.00
   -3    4   12     -2.13      0.00
   -2    4   12     -0.62      0.00
   -1    4   12      2.01      0.00
    0    4   12      1.13      0.00
    1    4   12     -1.30      0.00
    2    4   12     -2.97      0.00
    3    4   12     -4.65      0.00
    4    4   12      1.88      0.00
    5    4   12      2.60      0.00
    6    4   12     -1.55      0.00
    7    4   12      5.96      0.00
   -8    5   12     -3.70      0.00
   -7    5   12      3.54      0.00
   -6    5   12      2.46      0.00
   -5    5   12      3.20      0.00
   -4    5   12     -0.70      0.00
   -3    5   12      1.83      0.00
   -2    5   12      3.28      0.00
   -1    5   12      1.00      0.00
    0    5   12     -0.58      0.00
    1    5   12     -1.36      0.00
    2    5   12      2.87      0.00
    3    5   12     -2.32      0.00
    4    5   12     -2.66      0.00
    5    5   12      4.14      0.00
    6    5   12     -0.15      0.00
    7    5   12     -1.20      0.00
   -8    6   12      0.74      0.00
   -7    6   12     -1.89      0.00
   -6    6   12     -3.02      0.00
   -5    6   12      2.03      0.00
   -4    6   12     -0.92      0.00
   -3    6   12      0.15      0.00
   -2    6   12      4.18      0.00
   -1    6   12      1.24      0.00
    0    6   12      0.29      0.00
    1    6   12     -2.04      0.00
    2    6   12     -2.11      0.00
    3    6   12     -3.37      0.00
    4    6   12     -1.90      0.00
    5    6   12      3.07      0.00
    6    6   12     -1.76      0.00
    7    6   12      2.13      0.00
   -8    7   12     -0.17      0.00
   -7    7   12      5.59      0.00
   -6    7   12      2.33      0.00
   -5    7   12      2.80      0.00
   -4    7   12     -0.31      0.00
   -3    7   12     -1.35      0.00
   -2    7   12      1.41      0.00
   -1    7   12     -3.11      0.00
    0    7   12     -0.32      0.00
    1    7   12     -0.60      0.00
    2    7   12      3.44      0.00
    3    7   12     -2.77      0.00
    4    7   12      2.71      0.00
    5    7   12      2.24      0.00
    6    7   12     -0.01      0.00
    7    7   12      2.17      0.00
   -8    8   12     -0.08      0.00
   -7    8   12     -1.69      0.00
   -6    8   12     -9.30      0.00
   -5    8   12      2.85      0.00
   -4    8   12     -2.67      0.00
   -3    8   12     -1.05      0.00
   -2    8   12      2.13      0.00
   -1    8   12      0.12      0.00
    0    8   12     -1.76      0.00
    1    8   12     -1.55      0.00
    2    8   12      0.72      0.00
    3    8   12      0.54      0.00
    4    8   12     -3.71      0.00
    5    8   12      3.67      0.00
    6    8   12     -0.48      0.00
    7    8   12     -0.41      0.00
   -7    9   12     -0.41      0.00
   -6    9   12     -0.75      0.00
   -5    9   12     -3.30      0.00
   -4    9   12      6.13      0.00
   -3    9   12     -2.32      0.00
   -2    9   12      0.32      0.00
   -1    9   12     -3.99      0.00
    0    9   12      1.32      0.00
    1    9   12     -2.61      0.00
    2    9   12      2.11      0.00
    3    9   12      5.42      0.00
    4    9   12      4.56      0.00
    5    9   12      4.10      0.00
    6    9   12      4.45      0.00
    7    9   12      5.75      0.00
   -7   10   12      0.40      0.00
   -6   10   12     -5.30      0.00
   -5   10   12      0.51      0.00
   -4   10   12     -1.72      0.00
   -3   10   12      3.66      0.00
   -2   10   12     -2.28      0.00
   -1   10   12     -0.49      0.00
    0   10   12     -1.84      0.00
    1   10   12     -0.71      0.00
    2   10   12     -3.91      0.00
    3   10   12      3.18      0.00
    4   10   12      1.33      0.00
    5   10   12      0.74      0.00
    6   10   12      3.05      0.00
   -7   11   12     -7.78      0.00
   -6   11   12     -2.78      0.00
   -5   11   12     -0.73      0.00
   -4   11   12      7.16      0.00
   -3   11   12     -0.79      0.00
   -2   11   12     -0.29      0.00
   -1   11   12     -1.29      0.00
    0   11   12      0.93      0.00
    1   11   12      1.10      0.00
    2   11   12     -2.94      0.00
    3   11   12      1.53      0.00
    4   11   12     -0.85      0.00
    5   11   12      5.68      0.00
    6   11   12      5.39      0.00
   -6   12   12      1.17      0.00
   -5   12   12      4.25      0.00
   -4   12   12      2.34      0.00
   -3   12   12     10.41      0.00
   -2   12   12     -4.30      0.00
   -1   12   12      2.02      0.00
    0   12   12     -7.41      0.00
    1   12   12     -0.47      0.00
    2   12   12     -5.59      0.00
    3   12   12      0.44      0.00
    4   12   12      1.78      0.00
    5   12   12     -3.74      0.00
   -6   13   12     -2.53      0.00
   -5   13   12      4.29      0.00
   -4   13   12      1.01      0.00
   -3   13   12     -3.13      0.00
   -2   13   12     -1.95      0.00
   -1   13   12      3.16      0.00
    0   13   12      1.92      0.00
    1   13   12      2.31      0.00
    2   13   12     -1.28      0.00
    3   13   12     -2.09      0.00
    4   13   12     -2.70      0.00
    5   13   12      3.58      0.00
   -5   14   12      4.85      0.00
   -4   14   12      7.46      0.00
   -3   14   12      1.03      0.00
   -2   14   12     -6.77      0.00
   -1   14   12      0.57      0.00
    0   14   12     -7.00      0.00
    1   14   12      2.84      0.00
    2   14   12     -2.51      0.00
    3   14   12      0.77      0.00
    4   14   12      0.22      0.00
   -4   15   12      2.97      0.00
   -3   15   12     -3.64      0.00
   -2   15   12     -0.22      0.00
   -1   15   12      0.22      0.00
    0   15   12     -3.50      0.00
    1   15   12     -3.05      0.00
    2   15   12      4.29      0.00
    3   15   12     -0.89      0.00
    4   15   12      0.61      0.00
   -4   16   12      3.80      0.00
   -3   16   12     -5.87      0.00
   -2   16   12     -3.92      0.00
   -1   16   12     -1.42      0.00
    0   16   12      1.54      0.00
    1   16   12      0.75      0.00
    2   16   12      2.98      0.00
    3   16   12      4.02      0.00
   -2   17   12      3.64      0.00
   -1   17   12     -6.37      0.00
    0   17   12    -10.37      0.00
    1   17   12     -3.07      0.00
   -8    1   13     -1.18      0.00
   -7    1   13     -1.71      0.00
   -6    1   13     -4.77      0.00
   -5    1   13     -3.00      0.00
   -4    1   13     -2.15      0.00
   -3    1   13      4.36      0.00
   -2    1   13      2.26      0.00
   -1    1   13     -0.80      0.00
    0    1   13     -0.57      0.00
    1    1   13      4.30      0.00
    2    1   13     -0.86      0.00
    3    1   13      0.70      0.00
    4    1   13      3.07      0.00
    5    1   13      4.02      0.00
    6    1   13     -2.80      0.00
    7    1   13     -2.73      0.00
   -8    2   13      0.43      0.00
   -7    2   13      0.07      0.00
   -6    2   13      1.15      0.00
   -5    2   13      2.65      0.00
   -4    2   13     -5.28      0.00
   -3    2   13     -0.68      0.00
   -2    2   13      0.41      0.00
   -1    2   13      5.54      0.00
    0    2   13     -2.01      0.00
    1    2   13     -0.87      0.00
    2    2   13      5.53      0.00
    3    2   13      4.74      0.00
    4    2   13      2.67      0.00
    5    2   13      1.02      0.00
    6    2   13      4.71      0.00
    7    2   13     -2.73      0.00
   -8    3   13      2.23      0.00
   -7    3   13     -0.92      0.00
   -6    3   13     -3.55      0.00
   -5    3   13     -4.51      0.00
   -4    3   13      3.90      0.00
   -3    3   13     -2.57      0.00
   -2    3   13      0.15      0.00
   -1    3   13     -1.16      0.00
    0    3   13     -0.57      0.00
    1    3   13      1.95      0.00
    2    3   13     -2.76      0.00
    3    3   13     -5.40      0.00
    4    3   13     -0.09      0.00
    5    3   13      1.44      0.00
    6    3   13     -1.02      0.00
    7    3   13      4.27      0.00
   -8    4   13      2.10      0.00
   -7    4   13      1.49      0.00
   -6    4   13     -0.85      0.00
   -5    4   13      0.77      0.00
   -4    4   13     -0.44      0.00
   -3    4   13      0.21      0.00
   -2    4   13      3.41      0.00
   -1    4   13      6.21      0.00
    0    4   13     -1.48      0.00
    1    4   13     -1.49      0.00
    2    4   13      3.87      0.00
    3    4   13      1.74      0.00
    4    4   13     -3.66      0.00
    5    4   13      2.56      0.00
    6    4   13      1.59      0.00
    7    4   13     -2.57      0.00
   -8    5   13      2.89      0.00
   -7    5   13     -0.96      0.00
   -6    5   13     -1.69      0.00
   -5    5   13     -2.82      0.00
   -4    5   13      0.58      0.00
   -3    5   13      1.60      0.00
   -2    5   13      3.33      0.00
   -1    5   13      0.37      0.00
    0    5   13      3.65      0.00
    1    5   13     -1.04      0.00
    2    5   13     -3.50      0.00
    3    5   13     -5.13      0.00
    4    5   13     -1.65      0.00
    5    5   13      1.47      0.00
    6    5   13     -2.57      0.00
    7    5   13      6.20      0.00
   -8    6   13      1.79      0.00
   -7    6   13      1.71      0.00
   -6    6   13      1.06      0.00
   -5    6   13      0.81      0.00
   -4    6   13     -1.65      0.00
   -3    6   13     -0.98      0.00
   -2    6   13      2.98      0.00
   -1    6   13      0.15      0.00
    0    6   13     -0.75      0.00
    1    6   13      0.12      0.00
    2    6   13      0.72      0.00
    3    6   13     -4.97      0.00
    4    6   13     -1.00      0.00
    5    6   13      2.74      0.00
    6    6   13     -1.45      0.00
    7    6   13     -1.04      0.00
   -8    7   13      1.44      0.00
   -7    7   13     -5.08      0.00
   -6    7   13     -3.92      0.00
   -5    7   13      2.98      0.00
   -4    7   13     -3.02      0.00
   -3    7   13      2.72      0.00
   -2    7   13      5.41      0.00
   -1    7   13      1.08      0.00
    0    7   13      2.18      0.00
    1    7   13     -0.90      0.00
    2    7   13      1.38      0.00
    3    7   13     -2.22      0.00
    4    7   13     -7.35      0.00
    5    7   13      4.70      0.00
    6    7   13     -1.45      0.00
    7    7   13      0.84      0.00
   -7    8   13     -2.54      0.00
   -6    8   13     -0.17      0.00
   -5    8   13     -0.16      0.00
   -4    8   13      2.30      0.00
   -3    8   13     -1.20      0.00
   -2    8   13      0.03      0.00
   -1    8   13     -1.64      0.00
    0    8   13      0.70      0.00
    1    8   13     -2.35      0.00
    2    8   13      0.71      0.00
    3    8   13      3.84      0.00
    4    8   13      4.67      0.00
    5    8   13      0.24      0.00
    6    8   13      0.41      0.00
   -7    9   13     -3.48      0.00
   -6    9   13     -6.44      0.00
   -5    9   13      2.08      0.00
   -4    9   13     -2.45      0.00
   -3    9   13      0.35      0.00
   -2    9   13      0.11      0.00
   -1    9   13     -1.13      0.00
    0    9   13     -0.66      0.00
    1    9   13      1.17      0.00
    2    9   13     -2.20      0.00
    3    9   13      1.27      0.00
    4    9   13     -5.47      0.00
    5    9   13      2.31      0.00
    6    9   13      1.51      0.00
   -7   10   13     -7.23      0.00
   -6   10   13     -3.20      0.00
   -5   10   13     -0.91      0.00
   -4   10   13     11.81      0.00
   -3   10   13      1.77      0.00
   -2   10   13     -0.05      0.00
   -1   10   13     -0.82      0.00
    0   10   13      0.55      0.00
    1   10   13     -3.44      0.00
    2   10   13     -0.80      0.00
    3   10   13      5.51      0.00
    4   10   13      4.16      0.00
    5   10   13      1.54      0.00
    6   10   13      2.40      0.00
   -6   11   13      0.13      0.00
   -5   11   13      0.05      0.00
   -4   11   13     -0.12      0.00
   -3   11   13      7.02      0.00
   -2   11   13     -0.99      0.00
   -1   11   13     -0.76      0.00
    0   11   13     -1.65      0.00
    1   11   13     -0.81      0.00
    2   11   13     -5.33      0.00
    3   11   13      4.16      0.00
    4   11   13     -1.91      0.00
    5   11   13     -2.80      0.00
   -6   12   13     -2.55      0.00
   -5   12   13      3.22      0.00
   -4   12   13      6.33      0.00
   -3   12   13      2.03      0.00
   -2   12   13     -1.70      0.00
   -1   12   13      0.88      0.00
    0   12   13      1.26      0.00
    1   12   13      0.61      0.00
    2   12   13     -4.79      0.00
    3   12   13      0.71      0.00
    4   12   13      2.98      0.00
    5   12   13      1.91      0.00
   -5   13   13      3.97      0.00
   -4   13   13      3.52      0.00
   -3   13   13      7.26      0.00
   -2   13   13     -1.55      0.00
   -1   13   13     -0.35      0.00
    0   13   13     -5.82      0.00
    1   13   13      2.83      0.00
    2   13   13     -3.46      0.00
    3   13   13      2.24      0.00
    4   13   13     -0.46      0.00
   -5   14   13      1.75      0.00
   -4   14   13      1.51      0.00
   -3   14   13     -2.06      0.00
   -2   14   13     -0.47      0.00
   -1   14   13      4.01      0.00
    0   14   13     -0.44      0.00
    1   14   13     -0.25      0.00
    2   14   13      2.86      0.00
    3   14   13      0.19      0.00
    4   14   13      3.88      0.00
   -4   15   13      4.98      0.00
   -3   15   13     -2.67      0.00
   -2   15   13     -7.73      0.00
   -1   15   13     -1.08      0.00
    0   15   13     -1.57      0.00
    1   15   13      1.18      0.00
    2   15   13     -0.81      0.00
    3   15   13      2.38      0.00
   -3   16   13      0.11      0.00
   -2   16   13      3.45      0.00
   -1   16   13     -2.98      0.00
    0   16   13     -4.65      0.00
    1   16   13     -1.23      0.00
    2   16   13      3.85      0.00
   -8    0   14     -1.04      0.00
   -7    0   14      1.15      0.00
   -6    0   14     -1.48      0.00
   -5    0   14     -3.35      0.00
   -4    0   14     -1.78      0.00
   -3    0   14      3.81      0.00
   -2    0   14      2.12      0.00
   -1    0   14      0.19      0.00
    0    0   14      0.70      0.00
    1    0   14      5.24      0.00
    2    0   14      1.34      0.00
    3    0   14     -0.03      0.00
    4    0   14      7.10      0.00
    5    0   14      5.05      0.00
    6    0   14     -6.47      0.00
    7    0   14     -5.56      0.00
   -8    1   14      1.37      0.00
   -7    1   14     -0.47      0.00
   -6    1   14      1.58      0.00
   -5    1   14      0.99      0.00
   -4    1   14     -5.94      0.00
   -3    1   14      1.24      0.00
   -2    1   14     -2.58      0.00
   -1    1   14      3.52      0.00
    0    1   14     -1.56      0.00
    1    1   14     -1.26      0.00
    2    1   14      1.73      0.00
    3    1   14      1.35      0.00
    4    1   14      1.68      0.00
    5    1   14      1.00      0.00
    6    1   14      1.60      0.00
    7    1   14     -0.96      0.00
   -8    2   14      1.38      0.00
   -7    2   14     -0.91      0.00
   -6    2   14     -2.63      0.00
   -5    2   14     -2.24      0.00
   -4    2   14      0.09      0.00
   -3    2   14     -0.21      0.00
   -2    2   14     -0.13      0.00
   -1    2   14     -2.58      0.00
    0    2   14     -0.41      0.00
    1    2   14      4.27      0.00
    2    2   14      0.27      0.00
    3    2   14     -6.07      0.00
    4    2   14      1.68      0.00
    5    2   14      2.17      0.00
    6    2   14     -3.27      0.00
    7    2   14     -1.35      0.00
   -8    3   14      6.34      0.00
   -7    3   14     -0.60      0.00
   -6    3   14     -0.44      0.00
   -5    3   14      1.91      0.00
   -4    3   14     -4.87      0.00
   -3    3   14     -0.46      0.00
   -2    3   14      0.65      0.00
   -1    3   14      8.21      0.00
    0    3   14     -2.14      0.00
    1    3   14     -1.06      0.00
    2    3   14      3.73      0.00
    3    3   14      3.48      0.00
    4    3   14     -3.69      0.00
    5    3   14      1.06      0.00
    6    3   14      2.19      0.00
    7    3   14     -1.83      0.00
   -8    4   14      4.63      0.00
   -7    4   14     -1.67      0.00
   -6    4   14     -5.56      0.00
   -5    4   14     -4.21      0.00
   -4    4   14      1.50      0.00
   -3    4   14     -0.68      0.00
   -2    4   14     -1.62      0.00
   -1    4   14     -1.60      0.00
    0    4   14      2.23      0.00
    1    4   14      0.34      0.00
    2    4   14     -1.57      0.00
    3    4   14     -7.92      0.00
    4    4   14     -2.45      0.00
    5    4   14     -2.17      0.00
    6    4   14     -2.36      0.00
    7    4   14      5.04      0.00
   -8    5   14      5.96      0.00
   -7    5   14      1.56      0.00
   -6    5   14     -0.97      0.00
   -5    5   14     -0.49      0.00
   -4    5   14     -0.67      0.00
   -3    5   14     -1.61      0.00
   -2    5   14      4.18      0.00
   -1    5   14      4.38      0.00
    0    5   14      0.29      0.00
    1    5   14      0.94      0.00
    2    5   14      0.24      0.00
    3    5   14     -1.98      0.00
    4    5   14     -5.36      0.00
    5    5   14      1.03      0.00
    6    5   14     -0.30      0.00
    7    5   14     -0.89      0.00
   -7    6   14     -4.53      0.00
   -6    6   14     -2.13      0.00
   -5    6   14     -2.65      0.00
   -4    6   14     -1.43      0.00
   -3    6   14      4.35      0.00
   -2    6   14      4.38      0.00
   -1    6   14      0.95      0.00
    0    6   14      6.65      0.00
    1    6   14     -2.06      0.00
    2    6   14      2.68      0.00
    3    6   14     -3.56      0.00
    4    6   14     -5.87      0.00
    5    6   14      1.32      0.00
    6    6   14     -4.73      0.00
   -7    7   14     -3.06      0.00
   -6    7   14      0.67      0.00
   -5    7   14      0.09      0.00
   -4    7   14     -3.19      0.00
   -3    7   14     -2.23      0.00
   -2    7   14      1.27      0.00
   -1    7   14     -0.80      0.00
    0    7   14     -0.37      0.00
    1    7   14      0.08      0.00
    2    7   14     -4.72      0.00
    3    7   14     -0.21      0.00
    4    7   14      1.10      0.00
    5    7   14     -0.16      0.00
    6    7   14     -1.00      0.00
   -7    8   14     -6.09      0.00
   -6    8   14     -1.23      0.00
   -5    8   14      2.14      0.00
   -4    8   14     -0.43      0.00
   -3    8   14      1.16      0.00
   -2    8   14      3.12      0.00
   -1    8   14      1.31      0.00
    0    8   14      1.74      0.00
    1    8   14      1.97      0.00
    2    8   14      2.75      0.00
    3    8   14     -1.90      0.00
    4    8   14    -10.10      0.00
    5    8   14      3.45      0.00
    6    8   14     -0.55      0.00
   -7    9   14     -6.64      0.00
   -6    9   14     -2.65      0.00
   -5    9   14      0.49      0.00
   -4    9   14      4.74      0.00
   -3    9   14      0.65      0.00
   -2    9   14     -1.41      0.00
   -1    9   14      0.80      0.00
    0    9   14     -1.18      0.00
    1    9   14     -3.67      0.00
    2    9   14     -2.11      0.00
    3    9   14      6.75      0.00
    4    9   14      3.60      0.00
    5    9   14     -3.95      0.00
    6    9   14     -1.40      0.00
   -6   10   14     -1.09      0.00
   -5   10   14     -0.31      0.00
   -4   10   14     -0.15      0.00
   -3   10   14      1.06      0.00
   -2   10   14      0.52      0.00
   -1   10   14     -1.35      0.00
    0   10   14      1.58      0.00
    1   10   14      0.55      0.00
    2   10   14     -2.65      0.00
    3   10   14      3.87      0.00
    4   10   14     -7.28      0.00
    5   10   14     -0.75      0.00
   -6   11   14     -3.90      0.00
   -5   11   14      1.95      0.00
   -4   11   14      9.51      0.00
   -3   11   14      3.33      0.00
   -2   11   14     -0.96      0.00
   -1   11   14      0.92      0.00
    0   11   14     -0.32      0.00
    1   11   14     -0.16      0.00
    2   11   14     -4.78      0.00
    3   11   14      4.07      0.00
    4   11   14      6.28      0.00
    5   11   14     -2.28      0.00
   -5   12   14     -1.80      0.00
   -4   12   14      0.57      0.00
   -3   12   14      6.58      0.00
   -2   12   14      4.69      0.00
   -1   12   14     -1.62      0.00
    0   12   14      1.05      0.00
    1   12   14      1.05      0.00
    2   12   14     -0.25      0.00
    3   12   14      4.51      0.00
    4   12   14     -3.31      0.00
   -5   13   14      3.10      0.00
   -4   13   14      2.11      0.00
   -3   13   14      1.53      0.00
   -2   13   14     -0.09      0.00
   -1   13   14      3.83      0.00
    0   13   14     -0.20      0.00
    1   13   14      1.10      0.00
    2   13   14     -3.04      0.00
    3   13   14      2.49      0.00
    4   13   14      6.54      0.00
   -4   14   14      2.05      0.00
   -3   14   14      1.69      0.00
   -2   14   14     -0.91      0.00
   -1   14   14     -1.81      0.00
    0   14   14      0.32      0.00
    1   14   14      3.20      0.00
    2   14   14     -1.08      0.00
    3   14   14      2.59      0.00
   -3   15   14     -0.62      0.00
   -2   15   14      4.13      0.00
   -1   15   14      2.26      0.00
    0   15   14     -2.16      0.00
    1   15   14      1.87      0.00
    2   15   14      2.67      0.00
   -2   16   14     -6.49      0.00
   -1   16   14      0.63      0.00
    0   16   14     -0.76      0.00
    1   16   14     -1.00      0.00
   -8    1   15      2.40      0.00
   -7    1   15      4.70      0.00
   -6    1   15      1.34      0.00
   -5    1   15     -1.11      0.00
   -4    1   15     -3.01      0.00
   -3    1   15     -1.94      0.00
   -2    1   15     -1.57      0.00
   -1    1   15      0.73      0.00
    0    1   15      0.43      0.00
    1    1   15      0.86      0.00
    2    1   15      2.11      0.00
    3    1   15     -4.77      0.00
    4    1   15      5.14      0.00
    5    1   15      2.58      0.00
    6    1   15     -4.16      0.00
    7    1   15     -3.89      0.00
   -8    2   15      3.51      0.00
   -7    2   15     -3.54      0.00
   -6    2   15      0.57      0.00
   -5    2   15     -0.02      0.00
   -4    2   15     -7.33      0.00
   -3    2   15      1.48      0.00
   -2    2   15     -4.87      0.00
   -1    2   15      5.77      0.00
    0    2   15     -2.04      0.00
    1    2   15     -1.54      0.00
    2    2   15      0.38      0.00
    3    2   15      1.93      0.00
    4    2   15     -0.70      0.00
    5    2   15     -0.19      0.00
    6    2   15     -0.36      0.00
    7    2   15      0.45      0.00
   -8    3   15      5.21      0.00
   -7    3   15     -0.29      0.00
   -6    3   15     -4.48      0.00
   -5    3   15     -0.73      0.00
   -4    3   15     -1.44      0.00
   -3    3   15     -1.35      0.00
   -2    3   15     -6.56      0.00
   -1    3   15     -1.54      0.00
    0    3   15     -0.23      0.00
    1    3   15      1.45      0.00
    2    3   15      2.11      0.00
    3    3   15    -10.12      0.00
    4    3   15     -2.65      0.00
    5    3   15     -1.89      0.00
    6    3   15     -0.85      0.00
   -7    4   15     -0.81      0.00
   -6    4   15     -1.78      0.00
   -5    4   15      0.63      0.00
   -4    4   15     -1.78      0.00
   -3    4   15     -1.82      0.00
   -2    4   15      2.33      0.00
   -1    4   15      5.86      0.00
    0    4   15      1.71      0.00
    1    4   15      0.60      0.00
    2    4   15      1.83      0.00
    3    4   15      2.59      0.00
    4    4   15     -7.33      0.00
    5    4   15     -2.18      0.00
    6    4   15      1.03      0.00
   -7    5   15     -3.07      0.00
   -6    5   15     -6.47      0.00
   -5    5   15     -5.85      0.00
   -4    5   15     -0.48      0.00
   -3    5   15      1.91      0.00
   -2    5   15     -2.98      0.00
   -1    5   15      0.21      0.00
    0    5   15      5.08      0.00
    1    5   15     -3.74      0.00
    2    5   15      3.22      0.00
    3    5   15     -4.56      0.00
    4    5   15     -4.32      0.00
    5    5   15     -4.42      0.00
    6    5   15     -4.65      0.00
   -7    6   15      0.33      0.00
   -6    6   15      1.00      0.00
   -5    6   15      0.26      0.00
   -4    6   15     -2.58      0.00
   -3    6   15     -1.55      0.00
   -2    6   15      3.85      0.00
   -1    6   15     -0.58      0.00
    0    6   15      2.52      0.00
    1    6   15      1.46      0.00
    2    6   15     -6.86      0.00
    3    6   15     -0.62      0.00
    4    6   15     -1.83      0.00
    5    6   15     -1.10      0.00
    6    6   15      0.73      0.00
   -7    7   15     -5.00      0.00
   -6    7   15      1.36      0.00
   -5    7   15     -3.78      0.00
   -4    7   15      1.12      0.00
   -3    7   15      1.59      0.00
   -2    7   15      3.54      0.00
   -1    7   15      2.09      0.00
    0    7   15      3.84      0.00
    1    7   15     -2.30      0.00
    2    7   15      6.32      0.00
    3    7   15     -4.21      0.00
    4    7   15     -8.15      0.00
    5    7   15      1.09      0.00
    6    7   15     -4.44      0.00
   -7    8   15     -4.97      0.00
   -6    8   15      0.82      0.00
   -5    8   15      0.73      0.00
   -4    8   15     -4.38      0.00
   -3    8   15     -1.11      0.00
   -2    8   15     -0.61      0.00
   -1    8   15     -0.74      0.00
    0    8   15     -1.10      0.00
    1    8   15     -2.62      0.00
    2    8   15     -8.20      0.00
    3    8   15      3.83      0.00
    4    8   15      0.13      0.00
    5    8   15     -4.38      0.00
    6    8   15     -0.96      0.00
   -6    9   15      2.41      0.00
   -5    9   15     -0.02      0.00
   -4    9   15      2.16      0.00
   -3    9   15     -1.42      0.00
   -2    9   15      0.63      0.00
   -1    9   15      1.35      0.00
    0    9   15      1.46      0.00
    1    9   15      2.09      0.00
    2    9   15      1.43      0.00
    3    9   15      0.96      0.00
    4    9   15     -9.82      0.00
    5    9   15      1.03      0.00
   -6   10   15     -4.29      0.00
   -5   10   15      0.54      0.00
   -4   10   15      1.21      0.00
   -3   10   15      0.39      0.00
   -2   10   15     -1.26      0.00
   -1   10   15      1.15      0.00
    0   10   15     -1.35      0.00
    1   10   15      1.11      0.00
    2   10   15     -4.55      0.00
    3   10   15      4.62      0.00
    4   10   15      3.61      0.00
    5   10   15     -7.13      0.00
   -5   11   15     -3.00      0.00
   -4   11   15      0.82      0.00
   -3   11   15      1.63      0.00
   -2   11   15      5.06      0.00
   -1   11   15     -0.46      0.00
    0   11   15      4.44      0.00
    1   11   15      0.14      0.00
    2   11   15      4.23      0.00
    3   11   15      5.21      0.00
    4   11   15     -5.59      0.00
   -5   12   15      0.92      0.00
   -4   12   15      1.28      0.00
   -3   12   15      1.93      0.00
   -2   12   15     -0.11      0.00
   -1   12   15      2.35      0.00
    0   12   15      0.55      0.00
    1   12   15      2.79      0.00
    2   12   15     -5.19      0.00
    3   12   15      4.47      0.00
    4   12   15      7.16      0.00
   -4   13   15     -0.04      0.00
   -3   13   15      4.46      0.00
   -2   13   15      7.18      0.00
   -1   13   15     -2.13      0.00
    0   13   15      5.50      0.00
    1   13   15      2.07      0.00
    2   13   15      3.22      0.00
    3   13   15      2.72      0.00
   -3   14   15      0.16      0.00
   -2   14   15      4.02      0.00
   -1   14   15      3.35      0.00
    0   14   15     -1.99      0.00
    1   14   15      3.24      0.00
    2   14   15     -1.34      0.00
   -2   15   15     -2.59      0.00
   -1   15   15     -0.67      0.00
    0   15   15      1.79      0.00
    1   15   15     -0.22      0.00
   -7    0   16      7.67      0.00
   -6    0   16      2.28      0.00
   -5    0   16      0.56      0.00
   -4    0   16     -4.59      0.00
   -3    0   16     -6.05      0.00
   -2    0   16     -1.49      0.00
   -1    0   16      1.94      0.00
    0    0   16      0.27      0.00
    1    0   16     -6.11      0.00
    2    0   16      1.36      0.00
    3    0   16     -0.66      0.00
    4    0   16      3.19      0.00
    5    0   16      2.09      0.00
    6    0   16     -1.18      0.00
   -7    1   16     -3.56      0.00
   -6    1   16     -0.31      0.00
   -5    1   16     -1.89      0.00
   -4    1   16     -2.75      0.00
   -3    1   16      1.78      0.00
   -2    1   16     -4.12      0.00
   -1    1   16      3.08      0.00
    0    1   16     -1.31      0.00
    1    1   16     -0.75      0.00
    2    1   16     -1.56      0.00
    3    1   16      1.05      0.00
    4    1   16      2.36      0.00
    5    1   16     -1.04      0.00
    6    1   16     -1.90      0.00
   -7    2   16      4.37      0.00
   -6    2   16      0.09      0.00
   -5    2   16      1.61      0.00
   -4    2   16     -3.78      0.00
   -3    2   16     -1.83      0.00
   -2    2   16     -8.08      0.00
   -1    2   16      0.65      0.00
    0    2   16     -0.88      0.00
    1    2   16     -1.73      0.00
    2    2   16      3.04      0.00
    3    2   16     -6.33      0.00
    4    2   16     -1.98      0.00
    5    2   16      1.02      0.00
    6    2   16      0.64      0.00
   -7    3   16     -5.52      0.00
   -6    3   16     -1.50      0.00
   -5    3   16     -1.19      0.00
   -4    3   16     -3.18      0.00
   -3    3   16      0.91      0.00
   -2    3   16     -1.15      0.00
   -1    3   16      4.29      0.00
    0    3   16      1.51      0.00
    1    3   16     -1.08      0.00
    2    3   16      0.98      0.00
    3    3   16      3.51      0.00
    4    3   16     -3.12      0.00
    5    3   16     -3.95      0.00
    6    3   16     -1.43      0.00
   -7    4   16     -0.90      0.00
   -6    4   16     -6.47      0.00
   -5    4   16     -1.70      0.00
   -4    4   16     -1.54      0.00
   -3    4   16      1.11      0.00
   -2    4   16     -9.81      0.00
   -1    4   16      0.81      0.00
    0    4   16      0.77      0.00
    1    4   16     -1.81      0.00
    2    4   16      3.44      0.00
    3    4   16     -5.01      0.00
    4    4   16     -6.39      0.00
    5    4   16     -3.91      0.00
    6    4   16     -0.63      0.00
   -7    5   16      0.60      0.00
   -6    5   16     -0.61      0.00
   -5    5   16      0.89      0.00
   -4    5   16      0.50      0.00
   -3    5   16      0.00      0.00
   -2    5   16      4.30      0.00
   -1    5   16      0.64      0.00
    0    5   16      4.74      0.00
    1    5   16     -0.60      0.00
    2    5   16     -3.51      0.00
    3    5   16      1.95      0.00
    4    5   16     -3.80      0.00
    5    5   16     -4.31      0.00
    6    5   16      2.38      0.00
   -7    6   16     -2.06      0.00
   -6    6   16     -2.18      0.00
   -5    6   16     -8.35      0.00
   -4    6   16      0.84      0.00
   -3    6   16      1.38      0.00
   -2    6   16     -0.37      0.00
   -1    6   16      1.86      0.00
    0    6   16      4.10      0.00
    1    6   16     -7.86      0.00
    2    6   16      5.19      0.00
    3    6   16     -3.94      0.00
    4    6   16     -5.58      0.00
    5    6   16     -4.11      0.00
    6    6   16     -4.79      0.00
   -6    7   16      3.59      0.00
   -5    7   16      1.19      0.00
   -4    7   16     -4.33      0.00
   -3    7   16      0.90      0.00
   -2    7   16      2.93      0.00
   -1    7   16     -3.10      0.00
    0    7   16      2.38      0.00
    1    7   16     -2.98      0.00
    2    7   16    -11.89      0.00
    3    7   16      1.78      0.00
    4    7   16      0.62      0.00
    5    7   16     -2.59      0.00
   -6    8   16      5.12      0.00
   -5    8   16     -4.98      0.00
   -4    8   16      3.02      0.00
   -3    8   16     -2.19      0.00
   -2    8   16      1.68      0.00
   -1    8   16      2.68      0.00
    0    8   16      0.36      0.00
    1    8   16     -1.73      0.00
    2    8   16      3.01      0.00
    3    8   16     -4.31      0.00
    4    8   16     -7.68      0.00
    5    8   16      1.27      0.00
   -6    9   16     -0.64      0.00
   -5    9   16     -0.97      0.00
   -4    9   16     -7.48      0.00
   -3    9   16     -1.40      0.00
   -2    9   16      0.02      0.00
   -1    9   16      0.13      0.00
    0    9   16     -0.23      0.00
    1    9   16      0.50      0.00
    2    9   16     -5.94      0.00
    3    9   16      2.59      0.00
    4    9   16     -1.19      0.00
    5    9   16     -6.89      0.00
   -5   10   16     -2.06      0.00
   -4   10   16      2.04      0.00
   -3   10   16     -2.14      0.00
   -2   10   16      0.60      0.00
   -1   10   16      2.48      0.00
    0   10   16      2.16      0.00
    1   10   16      1.00      0.00
    2   10   16      5.29      0.00
    3   10   16      4.41      0.00
    4   10   16     -5.63      0.00
   -5   11   16     -2.09      0.00
   -4   11   16     -5.43      0.00
   -3   11   16     -0.66      0.00
   -2   11   16     -0.19      0.00
   -1   11   16      0.88      0.00
    0   11   16      2.48      0.00
    1   11   16      4.79      0.00
    2   11   16     -3.96      0.00
    3   11   16      2.78      0.00
    4   11   16      3.91      0.00
   -4   12   16      0.92      0.00
   -3   12   16      2.68      0.00
   -2   12   16      7.97      0.00
   -1   12   16     -0.13      0.00
    0   12   16      5.97      0.00
    1   12   16      0.82      0.00
    2   12   16      8.53      0.00
    3   12   16      2.46      0.00
   -3   13   16      1.24      0.00
   -2   13   16      1.96      0.00
   -1   13   16      1.87      0.00
    0   13   16     -0.07      0.00
    1   13   16      2.24      0.00
    2   13   16     -2.11      0.00
   -2   14   16      3.49      0.00
   -1   14   16     -0.54      0.00
    0   14   16      4.51      0.00
    1   14   16     -1.34      0.00
   -7    1   17      5.40      0.00
   -6    1   17      0.73      0.00
   -5    1   17      3.01      0.00
   -4    1   17     -2.13      0.00
   -3    1   17     -1.42      0.00
   -2    1   17     -2.46      0.00
   -1    1   17      0.20      0.00
    0    1   17     -0.21      0.00
    1    1   17     -8.59      0.00
    2    1   17      1.65      0.00
    3    1   17      3.98      0.00
    4    1   17     -2.61      0.00
    5    1   17      3.81      0.00
    6    1   17      1.36      0.00
   -7    2   17     -5.86      0.00
   -6    2   17     -1.47      0.00
   -5    2   17     -3.70      0.00
   -4    2   17     -0.35      0.00
   -3    2   17      2.50      0.00
   -2    2   17      0.06      0.00
   -1    2   17      2.86      0.00
    0    2   17     -0.21      0.00
    1    2   17     -0.89      0.00
    2    2   17     -1.53      0.00
    3    2   17      2.85      0.00
    4    2   17      4.09      0.00
    5    2   17     -3.56      0.00
    6    2   17     -3.52      0.00
   -7    3   17      1.91      0.00
   -6    3   17     -1.75      0.00
   -5    3   17      2.54      0.00
   -4    3   17     -1.29      0.00
   -3    3   17      3.18      0.00
   -2    3   17    -11.81      0.00
   -1    3   17      1.13      0.00
    0    3   17     -1.79      0.00
    1    3   17     -0.92      0.00
    2    3   17      1.82      0.00
    3    3   17     -2.53      0.00
    4    3   17     -8.37      0.00
    5    3   17      1.66      0.00
   -7    4   17     -2.92      0.00
   -6    4   17     -1.50      0.00
   -5    4   17     -1.06      0.00
   -4    4   17      1.59      0.00
   -3    4   17      2.27      0.00
   -2    4   17      4.59      0.00
   -1    4   17      2.01      0.00
    0    4   17      3.04      0.00
    1    4   17     -3.13      0.00
    2    4   17     -0.39      0.00
    3    4   17      1.11      0.00
    4    4   17     -2.48      0.00
    5    4   17     -5.37      0.00
   -6    5   17     -3.87      0.00
   -5    5   17     -4.98      0.00
   -4    5   17     -0.57      0.00
   -3    5   17      3.06      0.00
   -2    5   17     -5.14      0.00
   -1    5   17      2.98      0.00
    0    5   17      3.47      0.00
    1    5   17     -6.69      0.00
    2    5   17      2.75      0.00
    3    5   17     -1.17      0.00
    4    5   17     -8.25      0.00
    5    5   17     -3.92      0.00
   -6    6   17      2.08      0.00
   -5    6   17      1.54      0.00
   -4    6   17      1.35      0.00
   -3    6   17      3.35      0.00
   -2    6   17      4.47      0.00
   -1    6   17     -1.96      0.00
    0    6   17      2.50      0.00
    1    6   17     -5.34      0.00
    2    6   17    -10.82      0.00
    3    6   17      1.09      0.00
    4    6   17      1.80      0.00
    5    6   17     -3.28      0.00
   -6    7   17      2.91      0.00
   -5    7   17     -9.66      0.00
   -4    7   17      0.97      0.00
   -3    7   17     -0.10      0.00
   -2    7   17      3.17      0.00
   -1    7   17      3.25      0.00
    0    7   17      3.12      0.00
    1    7   17     -7.36      0.00
    2    7   17      2.01      0.00
    3    7   17     -6.95      0.00
    4    7   17     -4.37      0.00
    5    7   17     -1.30      0.00
   -6    8   17      2.92      0.00
   -5    8   17     -0.70      0.00
   -4    8   17     -6.02      0.00
   -3    8   17      0.11      0.00
   -2    8   17      2.81      0.00
   -1    8   17     -2.02      0.00
    0    8   17     -0.41      0.00
    1    8   17     -2.74      0.00
    2    8   17     -7.22      0.00
    3    8   17      1.37      0.00
    4    8   17      0.40      0.00
   -5    9   17     -5.01      0.00
   -4    9   17      1.70      0.00
   -3    9   17     -3.58      0.00
   -2    9   17     -1.15      0.00
   -1    9   17      3.74      0.00
    0    9   17     -0.67      0.00
    1    9   17     -1.31      0.00
    2    9   17      1.70      0.00
    3    9   17     -0.44      0.00
    4    9   17     -4.42      0.00
   -5   10   17     -3.96      0.00
   -4   10   17    -10.20      0.00
   -3   10   17     -2.42      0.00
   -2   10   17      0.56      0.00
   -1   10   17      0.31      0.00
    0   10   17      2.89      0.00
    1   10   17      4.80      0.00
    2   10   17     -1.09      0.00
    3   10   17      0.30      0.00
    4   10   17     -0.79      0.00
   -4   11   17      1.28      0.00
   -3   11   17     -0.84      0.00
   -2   11   17      2.47      0.00
   -1   11   17      1.68      0.00
    0   11   17      1.37      0.00
    1   11   17      1.14      0.00
    2   11   17      8.02      0.00
    3   11   17      3.27      0.00
   -3   12   17      0.32      0.00
   -2   12   17      0.46      0.00
   -1   12   17      0.85      0.00
    0   12   17      2.80      0.00
    1   12   17      1.13      0.00
    2   12   17     -0.42      0.00
   -2   13   17      5.30      0.00
   -1   13   17      0.80      0.00
    0   13   17      3.46      0.00
    1   13   17     -1.18      0.00
   -6    0   18      0.08      0.00
   -5    0   18      4.90      0.00
   -4    0   18      3.51      0.00
   -3    0   18      5.61      0.00
   -2    0   18      4.19      0.00
   -1    0   18     -2.74      0.00
    0    0   18      0.16      0.00
    1    0   18    -12.22      0.00
    2    0   18      2.30      0.00
    3    0   18     11.96      0.00
    4    0   18     -2.17      0.00
    5    0   18      6.87      0.00
   -6    1   18     -1.25      0.00
   -5    1   18     -2.73      0.00
   -4    1   18      0.55      0.00
   -3    1   18      0.38      0.00
   -2    1   18      3.37      0.00
   -1    1   18     -0.02      0.00
    0    1   18     -1.53      0.00
    1    1   18     -0.03      0.00
    2    1   18     -2.47      0.00
    3    1   18      1.78      0.00
    4    1   18      4.81      0.00
    5    1   18     -1.63      0.00
   -6    2   18      0.61      0.00
   -5    2   18      4.49      0.00
   -4    2   18      3.64      0.00
   -3    2   18      6.34      0.00
   -2    2   18     -5.50      0.00
   -1    2   18     -0.11      0.00
    0    2   18     -2.64      0.00
    1    2   18     -5.02      0.00
    2    2   18     -0.25      0.00
    3    2   18      3.82      0.00
    4    2   18     -6.38      0.00
    5    2   18      5.53      0.00
   -6    3   18     -1.43      0.00
   -5    3   18     -4.70      0.00
   -4    3   18      1.32      0.00
   -3    3   18      2.47      0.00
   -2    3   18      7.31      0.00
   -1    3   18      1.47      0.00
    0    3   18      0.32      0.00
    1    3   18     -2.14      0.00
    2    3   18     -0.91      0.00
    3    3   18     -1.15      0.00
    4    3   18      3.03      0.00
    5    3   18     -3.56      0.00
   -6    4   18     -0.68      0.00
   -5    4   18      0.44      0.00
   -4    4   18     -0.31      0.00
   -3    4   18      5.82      0.00
   -2    4   18     -7.95      0.00
   -1    4   18      2.95      0.00
    0    4   18      1.11      0.00
    1    4   18     -2.59      0.00
    2    4   18     -0.91      0.00
    3    4   18     -0.35      0.00
    4    4   18    -11.00      0.00
    5    4   18      1.22      0.00
   -6    5   18     -0.10      0.00
   -5    5   18     -0.07      0.00
   -4    5   18      3.80      0.00
   -3    5   18      3.09      0.00
   -2    5   18      5.86      0.00
   -1    5   18      2.19      0.00
    0    5   18     -0.26      0.00
    1    5   18     -4.58      0.00
    2    5   18     -7.03      0.00
    3    5   18     -2.72      0.00
    4    5   18      0.74      0.00
    5    5   18     -2.85      0.00
   -6    6   18      0.06      0.00
   -5    6   18     -7.76      0.00
   -4    6   18     -2.11      0.00
   -3    6   18      3.73      0.00
   -2    6   18      1.65      0.00
   -1    6   18      5.32      0.00
    0    6   18      7.47      0.00
    1    6   18     -7.80      0.00
    2    6   18      2.30      0.00
    3    6   18     -3.54      0.00
    4    6   18     -5.04      0.00
   -5    7   18      0.74      0.00
   -4    7   18      0.80      0.00
   -3    7   18      1.80      0.00
   -2    7   18      2.67      0.00
   -1    7   18     -2.68      0.00
    0    7   18     -4.72      0.00
    1    7   18     -5.63      0.00
    2    7   18    -10.12      0.00
    3    7   18      0.84      0.00
    4    7   18      4.38      0.00
   -5    8   18     -7.94      0.00
   -4    8   18     -1.22      0.00
   -3    8   18     -0.83      0.00
   -2    8   18      1.88      0.00
   -1    8   18      3.94      0.00
    0    8   18      2.74      0.00
    1    8   18     -4.16      0.00
    2    8   18     -0.36      0.00
    3    8   18     -5.08      0.00
    4    8   18     -1.35      0.00
   -4    9   18     -6.63      0.00
   -3    9   18     -3.27      0.00
   -2    9   18      1.55      0.00
   -1    9   18     -1.97      0.00
    0    9   18     -3.95      0.00
    1    9   18      2.01      0.00
    2    9   18      0.58      0.00
    3    9   18     -0.24      0.00
   -4   10   18      0.10      0.00
   -3   10   18     -2.33      0.00
   -2   10   18     -1.54      0.00
   -1   10   18      2.24      0.00
    0   10   18     -1.78      0.00
    1   10   18     -0.83      0.00
    2   10   18      2.04      0.00
    3   10   18      2.21      0.00
   -3   11   18     -1.75      0.00
   -2   11   18      0.18      0.00
   -1   11   18      0.91      0.00
    0   11   18      2.47      0.00
    1   11   18      2.17      0.00
    2   11   18      2.30      0.00
   -2   12   18      3.48      0.00
   -1   12   18      0.31      0.00
    0   12   18      0.42      0.00
    1   12   18      0.34      0.00
   -6    1   19      1.24      0.00
   -5    1   19      5.07      0.00
   -4    1   19      9.32      0.00
   -3    1   19     10.33      0.00
   -2    1   19      3.60      0.00
   -1    1   19     -3.22      0.00
    0    1   19     -3.69      0.00
    1    1   19     -9.17      0.00
    2    1   19      0.96      0.00
    3    1   19      8.60      0.00
    4    1   19      0.39      0.00
   -6    2   19     -1.99      0.00
   -5    2   19     -5.66      0.00
   -4    2   19     -1.65      0.00
   -3    2   19     -0.91      0.00
   -2    2   19      9.50      0.00
   -1    2   19     -3.14      0.00
    0    2   19     -1.79      0.00
    1    2   19     -1.12      0.00
    2    2   19     -3.57      0.00
    3    2   19     -1.57      0.00
    4    2   19      4.61      0.00
   -6    3   19      2.38      0.00
   -5    3   19      3.36      0.00
   -4    3   19      4.57      0.00
   -3    3   19      6.97      0.00
   -2    3   19     -4.75      0.00
   -1    3   19      2.31      0.00
    0    3   19     -2.53      0.00
    1    3   19     -1.65      0.00
    2    3   19     -4.92      0.00
    3    3   19     -0.99      0.00
    4    3   19     -7.23      0.00
   -5    4   19     -4.06      0.00
   -4    4   19      0.69      0.00
   -3    4   19     -0.04      0.00
   -2    4   19      7.87      0.00
   -1    4   19      2.96      0.00
    0    4   19      0.15      0.00
    1    4   19      0.08      0.00
    2    4   19     -3.45      0.00
    3    4   19     -6.98      0.00
    4    4   19      1.47      0.00
   -5    5   19     -2.63      0.00
   -4    5   19     -3.02      0.00
   -3    5   19      5.51      0.00
   -2    5   19     -1.71      0.00
   -1    5   19      6.13      0.00
    0    5   19      6.44      0.00
    1    5   19     -5.00      0.00
    2    5   19      0.77      0.00
    3    5   19     -2.21      0.00
    4    5   19     -7.14      0.00
   -5    6   19      0.96      0.00
   -4    6   19      3.56      0.00
   -3    6   19      0.28      0.00
   -2    6   19      1.22      0.00
   -1    6   19      0.92      0.00
    0    6   19     -5.34      0.00
    1    6   19     -2.23      0.00
    2    6   19    -10.74      0.00
    3    6   19     -1.33      0.00
    4    6   19      3.24      0.00
   -5    7   19     -6.25      0.00
   -4    7   19     -4.53      0.00
   -3    7   19      3.65      0.00
   -2    7   19      1.98      0.00
   -1    7   19      4.87      0.00
    0    7   19      7.67      0.00
    1    7   19     -4.70      0.00
    2    7   19      2.28      0.00
    3    7   19     -3.54      0.00
   -4    8   19     -0.14      0.00
   -3    8   19     -2.88      0.00
   -2    8   19     -0.03      0.00
   -1    8   19     -5.40      0.00
    0    8   19    -12.61      0.00
    1    8   19     -0.65      0.00
    2    8   19     -3.92      0.00
    3    8   19      0.07      0.00
   -4    9   19     -2.04      0.00
   -3    9   19     -0.35      0.00
   -2    9   19     -0.48      0.00
   -1    9   19      2.25      0.00
    0    9   19      0.63      0.00
    1    9   19     -2.27      0.00
    2    9   19     -0.25      0.00
   -3   10   19     -4.23      0.00
   -2   10   19      0.28      0.00
   -1   10   19     -1.05      0.00
    0   10   19     -5.79      0.00
    1   10   19      3.09      0.00
    2   10   19      3.40      0.00
   -2   11   19      1.16      0.00
   -1   11   19     -0.10      0.00
    0   11   19     -0.05      0.00
   -5    0   20      2.73      0.00
   -4    0   20     10.75      0.00
   -3    0   20      8.94      0.00
   -2    0   20      4.86      0.00
   -1    0   20     -5.82      0.00
    0    0   20     -7.15      0.00
    1    0   20     -8.73      0.00
    2    0   20      1.30      0.00
    3    0   20      4.94      0.00
    4    0   20      6.65      0.00
   -5    1   20     -3.32      0.00
   -4    1   20     -3.44      0.00
   -3    1   20     -1.33      0.00
   -2    1   20      6.81      0.00
   -1    1   20     -5.06      0.00
    0    1   20     -1.29      0.00
    1    1   20     -1.65      0.00
    2    1   20     -3.40      0.00
    3    1   20     -1.29      0.00
    4    1   20      0.86      0.00
   -5    2   20      3.49      0.00
   -4    2   20      8.34      0.00
   -3    2   20      5.07      0.00
   -2    2   20      1.87      0.00
   -1    2   20      0.04      0.00
    0    2   20     -5.65      0.00
    1    2   20     -2.56      0.00
    2    2   20     -4.75      0.00
    3    2   20     -0.59      0.00
    4    2   20      0.90      0.00
   -5    3   20     -6.33      0.00
   -4    3   20     -4.08      0.00
   -3    3   20     -3.45      0.00
   -2    3   20      8.57      0.00
   -1    3   20     -2.02      0.00
    0    3   20      1.55      0.00
    1    3   20      0.64      0.00
    2    3   20     -3.05      0.00
    3    3   20     -7.09      0.00
   -5    4   20      0.70      0.00
   -4    4   20      0.00      0.00
   -3    4   20      3.82      0.00
   -2    4   20     -1.08      0.00
   -1    4   20      5.93      0.00
    0    4   20      2.65      0.00
    1    4   20     -1.65      0.00
    2    4   20     -4.01      0.00
    3    4   20     -4.62      0.00
   -4    5   20      0.12      0.00
   -3    5   20     -3.90      0.00
   -2    5   20      0.43      0.00
   -1    5   20      3.36      0.00
    0    5   20      1.51      0.00
    1    5   20      4.27      0.00
    2    5   20     -6.24      0.00
    3    5   20     -4.48      0.00
   -4    6   20     -4.90      0.00
   -3    6   20      4.72      0.00
   -2    6   20     -1.01      0.00
   -1    6   20      5.91      0.00
    0    6   20      6.38      0.00
    1    6   20     -4.80      0.00
    2    6   20      3.60      0.00
    3    6   20     -2.26      0.00
   -4    7   20      2.55      0.00
   -3    7   20     -2.63      0.00
   -2    7   20     -4.30      0.00
   -1    7   20     -3.73      0.00
    0    7   20     -9.65      0.00
    1    7   20      1.09      0.00
    2    7   20     -7.95      0.00
   -3    8   20      3.22      0.00
   -2    8   20     -0.83      0.00
   -1    8   20      1.45      0.00
    0    8   20      3.14      0.00
    1    8   20     -2.38      0.00
    2    8   20      1.98      0.00
   -2    9   20     -0.19      0.00
   -1    9   20     -4.88      0.00
    0    9   20    -13.53      0.00
    1    9   20      3.08      0.00
   -4    1   21      6.79      0.00
   -3    1   21      0.77      0.00
   -2    1   21      3.05      0.00
   -1    1   21     -4.13      0.00
    0    1   21     -7.37      0.00
    1    1   21     -3.53      0.00
    2    1   21     -2.28      0.00
    3    1   21     -1.96      0.00
   -4    2   21     -5.14      0.00
   -3    2   21     -1.74      0.00
   -2    2   21      8.19      0.00
   -1    2   21     -5.21      0.00
    0    2   21      1.74      0.00
    1    2   21     -2.44      0.00
    2    2   21     -2.86      0.00
    3    2   21     -4.19      0.00
   -4    3   21      1.90      0.00
   -3    3   21     -0.88      0.00
   -2    3   21      2.70      0.00
   -1    3   21      4.07      0.00
    0    3   21      0.68      0.00
    1    3   21      1.13      0.00
    2    3   21     -6.09      0.00
   -4    4   21     -3.05      0.00
   -3    4   21     -5.88      0.00
   -2    4   21      0.90      0.00
   -1    4   21      1.56      0.00
    0    4   21      6.81      0.00
    1    4   21      3.73      0.00
    2    4   21     -2.23      0.00
   -3    5   21      2.15      0.00
   -2    5   21     -0.88      0.00
   -1    5   21      6.51      0.00
    0    5   21      4.34      0.00
    1    5   21     -2.92      0.00
    2    5   21      0.74      0.00
   -3    6   21     -4.36      0.00
   -2    6   21     -7.65      0.00
   -1    6   21      0.62      0.00
    0    6   21      1.91      0.00
    1    6   21      3.74      0.00
   -2    7   21     -3.14      0.00
   -1    7   21      1.91      0.00
    0    7   21      1.50      0.00
    1    7   21     -3.48      0.00
   -3    0   22     -3.16      0.00
   -2    0   22      1.24      0.00
   -1    0   22     -4.24      0.00
    0    0   22     -5.17      0.00
    1    0   22     -2.71      0.00
   -3    1   22      1.30      0.00
   -2    1   22      4.81      0.00
   -1    1   22     -2.69      0.00
    0    1   22      1.17      0.00
    1    1   22     -2.29      0.00
   -3    2   22     -4.01      0.00
   -2    2   22      3.50      0.00
   -1    2   22      0.09      0.00
    0    2   22      0.04      0.00
    1    2   22      0.86      0.00
   -2    3   22      3.81      0.00
   -1    3   22      0.07      0.00
    0    3   22      5.41      0.00
    1    3   22     -1.10      0.00
   -2    4   22      1.07      0.00
   -1    4   22      5.21      0.00
    0    4   22      5.49      0.00
   -1    5   22      2.47      0.00
    0    5   22      8.19      0.00
    1    0    0     16.44      0.00
    0    2    0    143.49      0.00
    1    2    0     11.54      0.00
    1    3    0     17.27      0.00
    0    4    0      0.86      0.00
   10    4    0     -0.31      0.00
    8   13    0      2.32      0.00
   -1    1    1     21.90      0.00
    0    1    1    206.78      0.00
   -1    2    1    -43.74      0.00
    0    2    1     -5.94      0.00
    1    3    1      7.00      0.00
  -10    4    1     -1.87      0.00
   -1    4    1    -10.95      0.00
    0    4    1    -13.34      0.00
   -9   10    1     -3.06      0.00
   -8   13    1     -4.89      0.00
    7   15    1     -4.18      0.00
    5   18    1      5.85      0.00
   -1    0    2     23.30      0.00
    0    0    2    138.20      0.00
   -1    1    2    -29.09      0.00
    0    2    2     52.29      0.00
   -1    3    2    -24.53      0.00
   10    3    2     -2.74      0.00
  -10    4    2      6.34      0.00
   -9   10    2     -5.65      0.00
   -8   13    2      1.76      0.00
    5   18    2      2.85      0.00
    4   19    2     -1.62      0.00
    0    1    3     28.90      0.00
   10    1    3      2.15      0.00
    0    3    3    -19.06      0.00
  -10    4    3     -2.93      0.00
    9    9    3     -0.99      0.00
   -7   15    3     -1.39      0.00
   -5   18    3     -0.80      0.00
   -4   19    3     -0.07      0.00
    0    0    4     -2.51      0.00
  -10    4    4      6.02      0.00
    8   12    4     -1.44      0.00
   -7   15    4      1.18      0.00
   -5   18    4      1.14      0.00
    2   20    4     -0.98      0.00
    0    1    5     -4.33      0.00
  -10    3    5      3.70      0.00
    9    8    5     -2.18      0.00
    7   14    5      3.44      0.00
    6   16    5      2.65      0.00
   -2   20    5     -4.13      0.00
  -10    1    6      0.37      0.00
  -10    2    6     -0.11      0.00
    9    7    6     -4.15      0.00
   -9    9    6      0.36      0.00
    8   11    6     -0.46      0.00
    5   17    6     -1.22      0.00
    3   19    6      5.09      0.00
   -1   20    6      2.60      0.00
    0   20    6      7.89      0.00
    1   20    6      0.68      0.00
    9    6    7     -3.61      0.00
   -8   12    7      2.92      0.00
   -6   16    7     -2.83      0.00
   -3   19    7      0.28      0.00
   -9    8    8      5.97      0.00
   -5   17    8     -3.05      0.00
   -4   18    8     -0.27      0.00
    2   19    8      4.38      0.00
    9    2    9      6.37      0.00
   -9    7    9      4.77      0.00
    8    9    9     -4.63      0.00
   -8   11    9     -2.28      0.00
    7   12    9      0.08      0.00
    4   17    9     -0.11      0.00
   -1   19    9      1.32      0.00
    1   19    9     -0.58      0.00
   -9    6   10      4.03      0.00
    2   18   10      0.87      0.00
   -9    5   11      1.26      0.00
   -2   18   11      3.35      0.00
    1   18   11     -1.06      0.00
   -9    2   12     -0.90      0.00
   -9    3   12      1.47      0.00
    8    4   12      0.85      0.00
    6   12   12      3.17      0.00
   -5   15   12     -2.07      0.00
    2   17   12      0.49      0.00
    7    8   13      2.72      0.00
    6   11   13      3.03      0.00
    5   13   13     -2.24      0.00
   -1   17   13      2.06      0.00
    0   17   13     -0.39      0.00
   -8    6   14      1.94      0.00
    7    6   14      2.34      0.00
   -6   12   14      3.16      0.00
    5   12   14     -1.79      0.00
    7    3   15      0.63      0.00
   -8    4   15      7.16      0.00
   -6   11   15      0.91      0.00
    5   11   15     -1.00      0.00
   -4   14   15     -0.02      0.00
    3   14   15      2.16      0.00
   -7    7   16     -0.41      0.00
   -4   13   16     -2.93      0.00
    3   13   16      2.99      0.00
   -3   14   16      2.30      0.00
    2   14   16      1.97      0.00
    6    3   17      1.28      0.00
    5    8   17     -2.61      0.00
   -4   12   17     -5.69      0.00
   -3   13   17      2.89      0.00
   -5    9   18     -2.91      0.00
    5    1   19      6.91      0.00
   -6    4   19     -0.98      0.00
    1   11   19     -0.32      0.00
    4    3   20      1.16      0.00
   -5    5   20     -1.20      0.00
   -3    9   20     -4.08      0.00
   -1   10   20      0.66      0.00
    0   10   20      1.25      0.00
    3    3   21     -4.49      0.00
   -4    5   21     -2.79      0.00
    2    6   21     -5.14      0.00
   -1    8   21     -4.40      0.00
    0    8   21     -9.08      0.00
    2    0   22     -0.97      0.00
    2    1   22     -0.71      0.00
   -3    3   22     -2.74      0.00
    1    4   22     -0.15      0.00
   -2    5   22     -6.16      0.00
    0    0    0      0.00      0.00
# SQUEEZE RESULTS (Version =  40618)
# Note: Data are Listed for all Voids in the P1 Unit Cell
# i.e. Centre of Gravity, Solvent Accessible Volume,
# Recovered number of Electrons in the Void and
# Details about the Squeezed Material
loop_
  _platon_squeeze_void_nr
  _platon_squeeze_void_average_x
  _platon_squeeze_void_average_y
  _platon_squeeze_void_average_z
  _platon_squeeze_void_volume
  _platon_squeeze_void_count_electrons
  _platon_squeeze_void_content
   1 -0.029  0.000  0.000       246       127 ' '
   2 -0.032  0.500  0.500       246       127 ' '
# Missing Reflections Below sin(th)/lambda = 0.25
loop_
  _platon_missing_refln_index_h
  _platon_missing_refln_index_k
  _platon_missing_refln_index_l
  _platon_missing_refln_theta
    1    0    0     2.709
    0    2    0     2.656
    1    2    0     3.795
    1    3    0     4.821
    0    4    0     5.317
   -1    1    1     3.174
    0    1    1     1.799
   -1    2    1     3.921
    0    2    1     2.920
    1    3    1     5.024
   -1    4    1     6.052
    0    4    1     5.454
   -1    0    2     3.496
    0    0    2     2.427
   -1    1    2     3.740
    0    2    2     3.599
   -1    3    2     5.305
    0    1    3     3.877
    0    3    3     5.403
    0    0    4     4.859
    0    1    5     6.222
_platon_squeeze_void_probe_radius                  1.20
_platon_squeeze_details
)
TITL du               P 1 21/c 1   R = 0.04
CELL    7.5401   15.3400   16.8317     90.00     94.44     90.00
SPGR P21/c
# Solvent Accessible Volume =       491
# Electrons Found in S.A.V. =       249
# Note: Atoms in Void are Labelled as Cxxx and Qxxx for all Others
C101 0.910 0.058 0.028 !       3.55 eA-3
C102 0.380 0.484 0.458 !       3.27 eA-3
C103 0.310 0.532 0.453 !       3.16 eA-3
C104 0.369 0.627 0.577 !       3.15 eA-3
C105 0.631 0.123 0.921 !       3.15 eA-3
C106 0.875 0.051 0.076 !       3.09 eA-3
C107 0.245 0.618 0.534 !       2.95 eA-3
C108 0.317 0.015 0.017 !       2.90 eA-3
C109 0.383 0.537 0.503 !       2.82 eA-3
Q110 0.559 0.907 0.061 !       2.72 eA-3
Q111 0.622 0.599 0.036 !       2.68 eA-3
C112 0.237 0.542 0.495 !       2.64 eA-3
Q113 0.971 0.955 0.595 !       2.64 eA-3
C114 0.022 0.467 0.463 !       2.59 eA-3
Q115 0.154 0.566 0.376 !       2.47 eA-3
C116 0.806 0.015 0.032 !       2.47 eA-3
Q117 0.544 0.424 0.372 !       2.46 eA-3
Q118 0.072 0.502 0.619 !       2.42 eA-3
C119 0.323 1.001 0.126 !       2.42 eA-3
Q120 0.097 0.974 0.653 !       2.39 eA-3
C121 0.216 0.917 0.064 !       2.37 eA-3
C122 0.345 0.939 0.086 !       2.36 eA-3
Q123 0.651 0.969 0.096 !       2.33 eA-3
C124 0.116 0.006 0.016 !       2.31 eA-3
Q125 0.750 0.170 0.375 !       2.30 eA-3
C126 0.626 0.498 0.436 !       2.27 eA-3
C127 0.441 0.050 0.074 !       2.26 eA-3
C128 0.125 0.958 0.015 !       2.25 eA-3
Q129 0.112 0.555 0.081 !       2.25 eA-3
Q130 0.096 0.053 0.133 !       2.25 eA-3
Q131 0.383 0.423 0.027 !       2.24 eA-3
C132 0.312 0.590 0.475 !       2.23 eA-3
Q133 0.375 0.542 0.387 !       2.22 eA-3
Q134 0.432 0.091 0.843 !       2.21 eA-3
Q135 0.600 0.579 0.372 !       2.20 eA-3
Q136 0.813 0.129 0.928 !       2.18 eA-3
Q137 0.497 0.311 0.080 !       2.18 eA-3
C138 0.688 0.420 0.442 !       2.17 eA-3
C139 0.999 0.014 0.069 !       2.16 eA-3
C140 0.430 0.984 0.104 !       2.16 eA-3
Q141 0.334 0.376 0.470 !       2.13 eA-3
Q142 0.753 0.987 0.075 !       2.11 eA-3
Q143 0.502 0.640 0.045 !       2.11 eA-3
C144 0.527 0.590 0.466 !       2.10 eA-3
Q145 0.380 0.908 0.406 !       2.09 eA-3
C146 0.651 0.354 0.456 !       2.08 eA-3
C147 0.360 0.438 0.484 !       2.07 eA-3
Q148 0.098 0.956 0.083 !       2.07 eA-3
Q149 0.808 0.797 0.128 !       2.04 eA-3
Q150 0.625 0.534 0.332 !       2.04 eA-3
Q151 0.631 0.296 0.046 !       2.02 eA-3
Q152 0.271 0.309 0.438 !       2.02 eA-3
Q153 0.352 0.730 0.012 !       1.99 eA-3
Q154 0.950 0.533 0.283 !       1.98 eA-3
Q155 0.840 0.838 0.582 !       1.97 eA-3
Q156 0.151 0.704 0.200 !       1.97 eA-3
Q157 0.870 0.977 0.138 !       1.96 eA-3
Q158 0.383 0.482 0.903 !       1.95 eA-3
Q159 0.283 0.597 0.112 !       1.95 eA-3
Q160 0.185 0.200 0.408 !       1.94 eA-3
C161 0.420 0.924 0.047 !       1.94 eA-3
C162 0.932 0.088 0.138 !       1.93 eA-3
C163 0.535 0.169 0.946 !       1.93 eA-3
C164 0.212 0.011 0.063 !       1.92 eA-3
C165 0.852 0.395 0.516 !       1.92 eA-3
C166 0.937 0.476 0.506 !       1.91 eA-3
Q167 0.628 0.705 0.454 !       1.91 eA-3
C168 0.091 0.101 0.030 !       1.91 eA-3
C169 0.810 0.521 0.379 !       1.91 eA-3
Q170 0.055 0.176 0.254 !       1.90 eA-3
Q171 0.680 0.925 0.069 !       1.89 eA-3
Q172 0.211 0.388 0.970 !       1.89 eA-3
C173 0.884 0.908 0.018 !       1.89 eA-3
Q174 1.004 0.959 0.096 !       1.88 eA-3
Q175 0.197 0.388 0.642 !       1.88 eA-3
Q176 0.038 0.018 0.545 !       1.87 eA-3
Q177 0.243 0.281 0.486 !       1.87 eA-3
Q178 0.170 0.420 0.169 !       1.87 eA-3
C179 0.029 0.057 0.072 !       1.86 eA-3
Q180 0.728 0.347 0.374 !       1.86 eA-3
C181 0.061 0.545 0.362 !       1.86 eA-3
C182 0.843 0.474 0.462 !       1.86 eA-3
Q183 0.877 0.939 0.531 !       1.86 eA-3
Q184 0.221 0.125 0.014 !       1.85 eA-3
Q185 0.288 0.236 0.223 !       1.85 eA-3
Q186 0.216 0.863 0.985 !       1.84 eA-3
Q187 0.322 0.175 0.347 !       1.84 eA-3
C188 0.089 0.912 0.036 !       1.84 eA-3
C189 0.038 0.985 0.903 !       1.83 eA-3
Q190 0.915 0.174 0.061 !       1.83 eA-3
Q191 0.601 0.390 0.592 !       1.82 eA-3
C192 0.774 0.950-0.003 !       1.82 eA-3
Q193 0.401 0.343 0.437 !       1.82 eA-3
Q194 0.171 0.527 0.329 !       1.82 eA-3
Q195 0.829 0.473 0.671 !       1.82 eA-3
Q196 0.668 0.092 0.486 !       1.82 eA-3
C197 0.222 0.979 0.088 !       1.81 eA-3
Q198 0.999 0.146 0.388 !       1.81 eA-3
Q199 0.852 0.345 0.912 !       1.81 eA-3
)
;
_shelx_fab_checksum              30837
_platon_squeeze_void_probe_radius 1.20
_olex2_submission_special_instructions 'No special instructions were received'
loop_
_space_group_symop_operation_xyz
'x, y, z'
'-x, y+1/2, -z+1/2'
'-x, -y, -z'
'x, -y-1/2, z-1/2'
loop_
_atom_site_label
_atom_site_type_symbol
_atom_site_fract_x
_atom_site_fract_y
_atom_site_fract_z
_atom_site_U_iso_or_equiv
_atom_site_adp_type
_atom_site_occupancy
_atom_site_site_symmetry_order
_atom_site_calc_flag
_atom_site_refinement_flags_posn
_atom_site_refinement_flags_adp
_atom_site_refinement_flags_occupancy
_atom_site_disorder_assembly
_atom_site_disorder_group
Tb1 Tb -0.86632(5) 0.94904(2) 0.59155(2) 0.00680(9) Uani 1 1 d . . . . .
Tb2 Tb -0.62629(5) 1.10231(2) 0.46160(2) 0.00649(9) Uani 1 1 d . . . . .
N1 N -0.8793(9) 1.0554(4) 0.7065(4) 0.0127(15) Uani 1 1 d . . . . .
N2 N -0.5723(9) 1.2140(4) 0.5707(4) 0.0121(15) Uani 1 1 d . . . . .
O1 O -0.5794(7) 1.0080(3) 0.5725(3) 0.0087(12) Uani 1 1 d . . . . .
H1 H -0.531800 1.041030 0.620824 0.010 Uiso 1 1 calc R . . . .
O2 O -0.9081(7) 1.0769(3) 0.5131(3) 0.0087(12) Uani 1 1 d . . . . .
H2 H -0.941510 1.127077 0.546762 0.010 Uiso 1 1 calc R . . . .
O3 O -1.1627(7) 0.9871(3) 0.6249(3) 0.0093(12) Uani 1 1 d . . . . .
O4 O -1.3459(8) 1.0681(4) 0.6929(4) 0.0164(13) Uani 1 1 d . . . . .
O5 O -0.9535(8) 0.8079(4) 0.6282(4) 0.0195(14) Uani 1 1 d . . . . .
O6 O -0.7823(8) 1.2323(3) 0.4304(3) 0.0134(13) Uani 1 1 d . . . . .
O7 O -0.3154(7) 1.1405(3) 0.4934(3) 0.0122(12) Uani 1 1 d . . . . .
O8 O -0.1041(8) 1.2080(4) 0.5724(4) 0.0212(15) Uani 1 1 d . . . . .
O9 O -0.6937(8) 0.8999(3) 0.7052(3) 0.0148(13) Uani 1 1 d . . . . .
O10 O -0.5712(8) 1.1428(4) 0.3322(3) 0.0174(14) Uani 1 1 d . . . . .
C1 C -1.0374(12) 1.0841(5) 0.7248(5) 0.0145(18) Uani 1 1 d . . . . .
C2 C -1.0602(12) 1.1485(5) 0.7814(5) 0.0139(18) Uani 1 1 d . . . . .
H2A H -1.175344 1.169037 0.791314 0.017 Uiso 1 1 calc R . . . .
C3 C -0.9059(12) 1.3177(5) 0.3236(5) 0.0168(19) Uani 1 1 d . . . . .
C4 C -0.7426(13) 1.1465(6) 0.8090(5) 0.022(2) Uani 1 1 d . . . . .
H4 H -0.637148 1.164919 0.838830 0.026 Uiso 1 1 calc R . . . .
C5 C -0.7350(13) 1.0846(6) 0.7514(6) 0.025(2) Uani 1 1 d . . . . .
H5 H -0.622241 1.060652 0.742304 0.030 Uiso 1 1 calc R . . . .
C6 C -1.1970(12) 1.0443(5) 0.6787(5) 0.0147(18) Uani 1 1 d . . . . .
C8 C -0.4040(12) 1.2342(5) 0.5947(5) 0.0146(19) Uani 1 1 d . . . . .
C9 C -0.3593(12) 1.2858(5) 0.6623(5) 0.0153(19) Uani 1 1 d . . . . .
H9 H -0.238470 1.298113 0.678717 0.018 Uiso 1 1 calc R . . . .
C10 C -0.5019(12) 0.8187(5) 0.7947(5) 0.0133(18) Uani 1 1 d . . . . .
C11 C -0.6709(12) 1.3032(6) 0.6758(5) 0.021(2) Uani 1 1 d . . . . .
H11 H -0.767486 1.326620 0.701897 0.025 Uiso 1 1 calc R . . . .
C12 C -0.7026(12) 1.2529(6) 0.6075(6) 0.021(2) Uani 1 1 d . . . . .
H12 H -0.821855 1.245820 0.585856 0.025 Uiso 1 1 calc R . . . .
C13 C -0.2606(12) 1.1925(5) 0.5507(5) 0.0147(18) Uani 1 1 d . . . . .
C14 C -0.5469(12) 0.8624(5) 0.7167(5) 0.0127(18) Uani 1 1 d . . . . .
C7 C -0.9143(12) 1.2423(4) 0.3811(5) 0.0117(18) Uani 1 1 d . U . . .
loop_
_atom_site_aniso_label
_atom_site_aniso_U_11
_atom_site_aniso_U_22
_atom_site_aniso_U_33
_atom_site_aniso_U_23
_atom_site_aniso_U_13
_atom_site_aniso_U_12
Tb1 0.0055(2) 0.00888(16) 0.00618(19) 0.00048(14) 0.00124(15) 0.00002(15)
Tb2 0.0051(2) 0.00841(16) 0.00602(19) 0.00037(14) 0.00098(15) 0.00030(15)
N1 0.010(4) 0.009(3) 0.018(4) -0.002(3) -0.003(3) -0.004(3)
N2 0.005(4) 0.023(4) 0.009(4) -0.006(3) 0.001(3) 0.002(3)
O1 0.007(3) 0.011(2) 0.008(3) -0.004(2) 0.003(2) 0.000(2)
O2 0.007(3) 0.010(2) 0.010(3) -0.004(2) 0.000(2) 0.002(2)
O3 0.003(3) 0.014(3) 0.011(3) -0.008(2) 0.002(2) -0.003(2)
O4 0.009(3) 0.021(3) 0.018(3) -0.013(2) 0.000(3) 0.003(3)
O5 0.012(4) 0.018(3) 0.027(4) 0.003(3) -0.006(3) -0.006(3)
O6 0.013(3) 0.014(3) 0.013(3) 0.008(2) 0.002(3) 0.000(2)
O7 0.007(3) 0.016(3) 0.014(3) -0.007(2) 0.005(2) 0.000(2)
O8 0.011(4) 0.026(3) 0.027(4) -0.012(3) 0.004(3) -0.003(3)
O9 0.014(3) 0.023(3) 0.007(3) 0.008(2) -0.001(3) 0.000(3)
O10 0.020(4) 0.024(3) 0.009(3) 0.008(2) 0.009(3) 0.008(3)
C1 0.011(5) 0.018(4) 0.015(5) -0.002(3) 0.006(4) -0.005(3)
C2 0.011(5) 0.023(4) 0.008(4) -0.002(3) 0.000(4) 0.002(4)
C3 0.013(5) 0.025(4) 0.012(4) 0.002(3) -0.002(4) -0.001(4)
C4 0.017(5) 0.029(5) 0.020(5) -0.010(4) 0.002(4) -0.002(4)
C5 0.006(5) 0.026(5) 0.043(6) -0.011(4) 0.007(4) 0.002(4)
C6 0.009(5) 0.018(4) 0.017(5) 0.000(3) 0.001(4) 0.003(4)
C8 0.014(5) 0.015(4) 0.015(5) 0.000(3) 0.001(4) 0.006(3)
C9 0.009(5) 0.021(4) 0.015(5) 0.002(3) -0.002(4) -0.006(4)
C10 0.010(5) 0.014(4) 0.016(5) 0.003(3) -0.001(4) -0.002(3)
C11 0.011(5) 0.033(5) 0.020(5) -0.013(4) 0.001(4) 0.006(4)
C12 0.007(5) 0.031(5) 0.025(5) -0.012(4) 0.001(4) -0.002(4)
C13 0.006(4) 0.021(4) 0.018(5) -0.001(3) 0.005(4) 0.000(3)
C14 0.016(5) 0.007(3) 0.014(4) 0.003(3) -0.004(4) 0.003(3)
C7 0.018(5) 0.005(3) 0.012(4) 0.002(3) 0.004(3) 0.007(3)
loop_
_atom_type_symbol
_atom_type_description
_atom_type_scat_dispersion_real
_atom_type_scat_dispersion_imag
_atom_type_scat_source
C C 0.0033 0.0016 'International Tables Vol C Tables 4.2.6.8 and 6.1.1.4'
H H 0.0000 0.0000 'International Tables Vol C Tables 4.2.6.8 and 6.1.1.4'
N N 0.0061 0.0033 'International Tables Vol C Tables 4.2.6.8 and 6.1.1.4'
O O 0.0106 0.0060 'International Tables Vol C Tables 4.2.6.8 and 6.1.1.4'
Tb Tb -0.1723 4.1537 'International Tables Vol C Tables 4.2.6.8 and 6.1.1.4'
loop_
_geom_angle_atom_site_label_1
_geom_angle_atom_site_label_2
_geom_angle_atom_site_label_3
_geom_angle
_geom_angle_site_symmetry_1
_geom_angle_site_symmetry_3
Tb1 Tb1 Tb2 109.818(17) 3_376 3_476
Tb1 Tb1 Tb2 57.614(12) 3_376 3_376
Tb2 Tb1 Tb1 62.016(13) . 3_376
Tb2 Tb1 Tb2 119.630(12) . 3_376
Tb2 Tb1 Tb2 144.963(15) 3_376 3_476
Tb2 Tb1 Tb2 59.519(12) . 3_476
N1 Tb1 Tb1 107.34(15) . 3_376
N1 Tb1 Tb2 113.05(16) . 3_476
N1 Tb1 Tb2 95.15(15) . .
N1 Tb1 Tb2 101.98(16) . 3_376
O1 Tb1 Tb1 99.28(12) . 3_376
O1 Tb1 Tb2 37.39(12) . .
O1 Tb1 Tb2 34.06(12) . 3_476
O1 Tb1 Tb2 156.71(12) . 3_376
O1 Tb1 N1 87.0(2) . .
O1 Tb1 O3 143.36(17) . .
O1 Tb1 O7 65.47(17) . 3_476
O2 Tb1 Tb1 35.49(12) . 3_376
O2 Tb1 Tb1 35.25(12) 3_376 3_376
O2 Tb1 Tb2 87.37(13) . 3_376
O2 Tb1 Tb2 91.28(13) 3_376 .
O2 Tb1 Tb2 34.39(14) 3_376 3_376
O2 Tb1 Tb2 115.28(14) 3_376 3_476
O2 Tb1 Tb2 97.18(14) . 3_476
O2 Tb1 Tb2 37.81(14) . .
O2 Tb1 N1 127.0(2) 3_376 .
O2 Tb1 N1 83.19(19) . .
O2 Tb1 O1 72.23(18) . .
O2 Tb1 O1 124.44(19) 3_376 .
O2 Tb1 O2 70.7(2) . 3_376
O2 Tb1 O3 81.02(19) . .
O2 Tb1 O3 65.94(18) 3_376 .
O2 Tb1 O7 101.13(19) . 3_476
O2 Tb1 O7 82.87(18) 3_376 3_476
O3 Tb1 Tb1 69.75(13) . 3_376
O3 Tb1 Tb2 118.55(13) . .
O3 Tb1 Tb2 177.42(12) . 3_476
O3 Tb1 Tb2 37.08(12) . 3_376
O3 Tb1 N1 65.0(2) . .
O3 Tb1 O7 146.32(17) . 3_476
O5 Tb1 Tb1 116.07(14) . 3_376
O5 Tb1 Tb2 151.72(16) . .
O5 Tb1 Tb2 99.30(16) . 3_476
O5 Tb1 Tb2 65.82(15) . 3_376
O5 Tb1 N1 111.3(2) . .
O5 Tb1 O1 131.02(19) . .
O5 Tb1 O2 80.96(19) . 3_376
O5 Tb1 O2 151.27(19) . .
O5 Tb1 O3 83.1(2) . .
O5 Tb1 O7 79.6(2) . 3_476
O7 Tb1 Tb1 92.39(13) 3_476 3_376
O7 Tb1 Tb2 72.44(13) 3_476 .
O7 Tb1 Tb2 109.24(13) 3_476 3_376
O7 Tb1 Tb2 35.76(13) 3_476 3_476
O7 Tb1 N1 148.6(2) 3_476 .
O9 Tb1 Tb1 174.82(13) . 3_376
O9 Tb1 Tb2 114.31(14) . .
O9 Tb1 Tb2 125.92(14) . 3_376
O9 Tb1 Tb2 69.58(15) . 3_476
O9 Tb1 N1 68.8(2) . .
O9 Tb1 O1 77.33(19) . .
O9 Tb1 O2 149.87(18) . 3_376
O9 Tb1 O2 139.38(19) . .
O9 Tb1 O3 110.6(2) . .
O9 Tb1 O5 68.96(19) . .
O9 Tb1 O7 89.75(19) . 3_476
Tb1 Tb2 Tb1 144.962(15) 3_376 3_476
Tb1 Tb2 Tb1 120.480(12) . 3_476
Tb1 Tb2 Tb1 60.369(12) . 3_376
Tb1 Tb2 Tb2 62.803(13) . 3_476
Tb2 Tb2 Tb1 57.677(12) 3_476 3_476
Tb2 Tb2 Tb1 111.115(16) 3_476 3_376
N2 Tb2 Tb1 101.43(16) . 3_476
N2 Tb2 Tb1 113.60(16) . 3_376
N2 Tb2 Tb1 93.37(16) . .
N2 Tb2 Tb2 105.20(15) . 3_476
O1 Tb2 Tb1 116.07(13) 3_476 3_376
O1 Tb2 Tb1 98.06(13) . 3_376
O1 Tb2 Tb1 37.81(13) . .
O1 Tb2 Tb1 88.35(13) . 3_476
O1 Tb2 Tb1 33.97(13) 3_476 3_476
O1 Tb2 Tb1 92.71(13) 3_476 .
O1 Tb2 Tb2 35.94(12) 3_476 3_476
O1 Tb2 Tb2 36.45(13) . 3_476
O1 Tb2 N2 80.48(19) . .
O1 Tb2 N2 125.7(2) 3_476 .
O1 Tb2 O1 72.4(2) . 3_476
O1 Tb2 O2 72.34(18) . .
O1 Tb2 O3 82.32(18) 3_476 3_376
O1 Tb2 O3 100.06(17) . 3_376
O1 Tb2 O7 65.95(17) 3_476 .
O1 Tb2 O7 83.75(19) . .
O2 Tb2 Tb1 37.49(12) . .
O2 Tb2 Tb1 157.58(12) . 3_476
O2 Tb2 Tb1 34.34(12) . 3_376
O2 Tb2 Tb2 100.14(12) . 3_476
O2 Tb2 N2 86.8(2) . .
O2 Tb2 O1 125.61(17) . 3_476
O2 Tb2 O3 64.84(18) . 3_376
O2 Tb2 O7 145.90(18) . .
O3 Tb2 Tb1 35.92(13) 3_376 3_376
O3 Tb2 Tb1 71.39(13) 3_376 .
O3 Tb2 Tb1 109.07(13) 3_376 3_476
O3 Tb2 Tb2 91.39(12) 3_376 3_476
O3 Tb2 N2 149.5(2) 3_376 .
O6 Tb2 Tb1 70.05(14) . 3_376
O6 Tb2 Tb1 113.82(14) . .
O6 Tb2 Tb1 125.35(14) . 3_476
O6 Tb2 Tb2 173.26(14) . 3_476
O6 Tb2 N2 68.7(2) . .
O6 Tb2 O1 150.08(19) . 3_476
O6 Tb2 O1 137.33(19) . .
O6 Tb2 O2 77.06(19) . .
O6 Tb2 O3 92.90(18) . 3_376
O6 Tb2 O7 107.55(19) . .
O7 Tb2 Tb1 121.33(13) . .
O7 Tb2 Tb1 177.60(12) . 3_376
O7 Tb2 Tb1 36.37(12) . 3_476
O7 Tb2 Tb2 71.27(12) . 3_476
O7 Tb2 N2 65.1(2) . .
O7 Tb2 O3 145.41(18) . 3_376
O10 Tb2 Tb1 94.65(15) . 3_376
O10 Tb2 Tb1 146.73(15) . .
O10 Tb2 Tb1 66.71(15) . 3_476
O10 Tb2 Tb2 114.32(14) . 3_476
O10 Tb2 N2 118.0(2) . .
O10 Tb2 O1 150.77(19) . .
O10 Tb2 O1 78.37(19) . 3_476
O10 Tb2 O2 127.6(2) . .
O10 Tb2 O3 75.7(2) . 3_376
O10 Tb2 O6 71.8(2) . .
O10 Tb2 O7 84.4(2) . .
C1 N1 Tb1 118.5(5) . .
C1 N1 C5 117.2(7) . .
C5 N1 Tb1 124.2(6) . .
C8 N2 Tb2 118.2(5) . .
C8 N2 C12 118.0(7) . .
C12 N2 Tb2 123.8(6) . .
Tb1 O1 Tb2 111.97(19) . 3_476
Tb1 O1 H1 110.8 . .
Tb2 O1 Tb1 104.8(2) . .
Tb2 O1 Tb2 107.6(2) . 3_476
Tb2 O1 H1 110.8 3_476 .
Tb2 O1 H1 110.8 . .
Tb1 O2 Tb1 109.26(19) . 3_376
Tb1 O2 Tb2 111.3(2) 3_376 .
Tb1 O2 Tb2 104.7(2) . .
Tb1 O2 H2 110.5 3_376 .
Tb1 O2 H2 110.5 . .
Tb2 O2 H2 110.5 . .
Tb1 O3 Tb2 107.00(19) . 3_376
C6 O3 Tb1 124.2(5) . .
C6 O3 Tb2 128.8(5) . 3_376
C7 O5 Tb1 139.7(5) 3_376 .
C7 O6 Tb2 127.5(5) . .
Tb2 O7 Tb1 107.87(19) . 3_476
C13 O7 Tb1 127.9(5) . 3_476
C13 O7 Tb2 123.9(5) . .
C14 O9 Tb1 134.5(6) . .
C14 O10 Tb2 141.1(5) 3_476 .
N1 C1 C2 123.7(8) . .
N1 C1 C6 116.2(7) . .
C2 C1 C6 120.2(8) . .
C1 C2 H2A 121.2 . .
C1 C2 C3 117.6(8) . 4_586
C3 C2 H2A 121.2 4_586 .
C2 C3 C7 121.9(8) 4_585 .
C4 C3 C2 118.2(8) 4_585 4_585
C4 C3 C7 119.9(8) 4_585 .
C3 C4 H4 120.4 4_586 .
C5 C4 C3 119.3(9) . 4_586
C5 C4 H4 120.4 . .
N1 C5 C4 123.6(9) . .
N1 C5 H5 118.2 . .
C4 C5 H5 118.2 . .
O3 C6 C1 115.9(7) . .
O4 C6 O3 124.9(8) . .
O4 C6 C1 119.2(8) . .
N2 C8 C9 122.5(8) . .
N2 C8 C13 117.1(7) . .
C9 C8 C13 120.2(8) . .
C8 C9 H9 120.8 . .
C8 C9 C10 118.4(8) . 2_456
C10 C9 H9 120.8 2_456 .
C9 C10 C14 119.0(8) 2_446 .
C11 C10 C9 118.1(8) 2_446 2_446
C11 C10 C14 122.7(8) 2_446 .
C10 C11 H11 120.3 2_456 .
C10 C11 C12 119.4(9) 2_456 .
C12 C11 H11 120.3 . .
N2 C12 C11 122.9(8) . .
N2 C12 H12 118.5 . .
C11 C12 H12 118.5 . .
O7 C13 C8 115.5(8) . .
O8 C13 O7 125.6(8) . .
O8 C13 C8 118.9(8) . .
O9 C14 O10 126.2(8) . 3_476
O9 C14 C10 118.8(8) . .
O10 C14 C10 115.0(7) 3_476 .
O5 C7 C3 117.4(7) 3_376 .
O6 C7 O5 125.9(7) . 3_376
O6 C7 C3 116.5(8) . .
loop_
_geom_bond_atom_site_label_1
_geom_bond_atom_site_label_2
_geom_bond_distance
_geom_bond_site_symmetry_2
Tb1 Tb1 3.8788(8) 3_376
Tb1 Tb2 3.7683(6) .
Tb1 Tb2 3.9406(7) 3_376
Tb1 Tb2 3.9662(8) 3_476
Tb1 N1 2.539(7) .
Tb1 O1 2.390(5) .
Tb1 O2 2.386(5) 3_376
Tb1 O2 2.371(5) .
Tb1 O3 2.417(6) .
Tb1 O5 2.359(6) .
Tb1 O7 2.471(5) 3_476
Tb1 O9 2.354(5) .
Tb2 Tb2 3.8430(8) 3_476
Tb2 N2 2.522(6) .
Tb2 O1 2.367(5) .
Tb2 O1 2.395(5) 3_476
Tb2 O2 2.388(6) .
Tb2 O3 2.485(5) 3_376
Tb2 O6 2.353(5) .
Tb2 O7 2.435(6) .
Tb2 O10 2.333(6) .
N1 C1 1.329(11) .
N1 C5 1.352(11) .
N2 C8 1.338(10) .
N2 C12 1.341(11) .
O1 H1 1.0000 .
O2 H2 1.0000 .
O3 C6 1.302(9) .
O4 C6 1.221(10) .
O5 C7 1.259(10) 3_376
O6 C7 1.255(9) .
O7 C13 1.296(9) .
O8 C13 1.231(10) .
O9 C14 1.248(10) .
O10 C14 1.261(10) 3_476
C1 C2 1.393(11) .
C1 C6 1.510(11) .
C2 H2A 0.9500 .
C2 C3 1.414(11) 4_586
C3 C4 1.388(12) 4_585
C3 C7 1.512(11) .
C4 H4 0.9500 .
C4 C5 1.360(12) .
C5 H5 0.9500 .
C8 C9 1.405(11) .
C8 C13 1.500(12) .
C9 H9 0.9500 .
C9 C10 1.412(12) 2_456
C10 C11 1.379(11) 2_446
C10 C14 1.489(11) .
C11 H11 0.9500 .
C11 C12 1.389(11) .
C12 H12 0.9500 .
loop_
_platon_squeeze_void_nr
_platon_squeeze_void_average_x
_platon_squeeze_void_average_y
_platon_squeeze_void_average_z
_platon_squeeze_void_volume
_platon_squeeze_void_count_electrons
_platon_squeeze_void_content
1 -0.029 0.000 0.000 246 127 ' '
2 -0.032 0.500 0.500 246 127 ' '
